0:0:0
     RDKit          3D

 96104  0  0  1  0  0  0  0  0999 V2000
  -30.1190  -22.0100   19.8660 C   0  0  0  0  0  0  0  0  0  0  0  0
  -31.4330  -21.6160   20.2540 C   0  0  0  0  0  0  0  0  0  0  0  0
  -30.1680  -23.3780   19.7400 C   0  0  0  0  0  0  0  0  0  0  0  0
  -32.2380  -22.7070   20.3830 C   0  0  0  0  0  0  0  0  0  0  0  0
  -28.9270  -21.1170   19.6070 C   0  0  0  0  0  1  0  0  0  0  0  0
  -33.6840  -22.8370   20.7550 C   0  0  0  0  0  1  0  0  0  0  0  0
  -31.9450  -25.1810   20.0980 C   0  0  0  0  0  1  0  0  0  0  0  0
  -31.4540  -23.8080   20.0760 N   0  0  0  0  0  0  0  0  0  0  0  0
  -31.8950  -20.3080   20.4240 N   0  0  0  0  0  0  0  0  0  0  0  0
  -32.8840  -20.2640   20.6390 H   0  0  0  0  0  0  0  0  0  0  0  0
  -31.6260  -19.5030   22.7200 C   0  0  0  0  0  1  0  0  0  0  0  0
  -31.0980  -19.4400   21.2780 C   0  0  0  0  0  3  0  0  0  0  0  0
  -31.1120  -18.0120   20.7050 C   0  0  0  0  0  2  0  0  0  0  0  0
  -29.9980  -17.1210   21.2770 C   0  0  0  0  0  2  0  0  0  0  0  0
  -29.8710  -15.7660   20.5680 C   0  0  0  0  0  2  0  0  0  0  0  0
  -31.4100  -13.9410   19.9900 C   0  0  0  0  0  0  0  0  0  0  0  0
  -30.9490  -11.7100   19.0370 C   0  0  0  0  0  2  0  0  0  0  0  0
  -29.9420  -11.8010   17.8740 C   0  0  0  0  0  2  0  0  0  0  0  0
  -28.4890  -11.7850   18.3900 C   0  0  0  0  0  2  0  0  0  0  0  0
  -28.2600  -12.7820   19.5560 C   0  0  0  0  0  3  0  0  0  0  0  0
  -29.3580  -12.6060   20.6280 C   0  0  0  0  0  2  0  0  0  0  0  0
  -30.6620  -12.8050   19.9750 N   0  0  0  0  0  0  0  0  0  0  0  0
  -32.4520  -14.0740   19.3430 O   0  0  0  0  0  0  0  0  0  0  0  0
  -31.0240  -14.9040   20.8350 N   0  0  0  0  0  0  0  0  0  0  0  0
  -31.8150  -15.4480   21.1490 H   0  0  0  0  0  0  0  0  0  0  0  0
  -25.9990  -13.6290   20.4550 C   0  0  0  0  0  0  0  0  0  0  0  0
  -24.8770  -12.9650   20.8740 C   0  0  0  0  0  0  0  0  0  0  0  0
  -25.1770  -11.5730   20.7560 C   0  0  0  0  0  0  0  0  0  0  0  0
  -26.9190  -12.6460   20.1200 N   0  0  0  0  0  0  0  0  0  0  0  0
  -26.4280  -11.4020   20.3510 N   0  0  0  0  0  0  0  0  0  0  0  0
  -24.3270  -10.3920   20.9500 C   0  0  0  0  0  0  0  0  0  0  0  0
  -24.6650   -9.3850   21.8800 C   0  0  0  0  0  3  0  0  0  0  0  0
  -23.8240   -8.2660   22.0620 C   0  0  0  0  0  3  0  0  0  0  0  0
  -22.6290   -8.1490   21.3120 C   0  0  0  0  0  0  0  0  0  0  0  0
  -22.3090   -9.1430   20.3710 C   0  0  0  0  0  3  0  0  0  0  0  0
  -23.1510  -10.2520   20.1870 C   0  0  0  0  0  3  0  0  0  0  0  0
  -21.7630   -7.0860   21.4040 O   0  0  0  0  0  0  0  0  0  0  0  0
  -21.5950   -6.3930   22.5750 C   0  0  0  0  0  0  0  0  0  0  0  0
  -21.1380   -7.0230   23.7540 C   0  0  0  0  0  3  0  0  0  0  0  0
  -20.9140   -6.2590   24.9170 C   0  0  0  0  0  3  0  0  0  0  0  0
  -21.1360   -4.8700   24.9020 C   0  0  0  0  0  0  0  0  0  0  0  0
  -21.5860   -4.2400   23.7270 C   0  0  0  0  0  3  0  0  0  0  0  0
  -21.8110   -5.0010   22.5670 C   0  0  0  0  0  0  0  0  0  0  0  0
  -22.2240   -4.3870   21.4310 F   0  0  0  0  0  0  0  0  0  0  0  0
  -20.9130   -4.1340   26.0160 F   0  0  0  0  0  0  0  0  0  0  0  0
  -23.5650  -13.5790   21.2690 C   0  0  0  0  0  0  0  0  0  0  0  0
  -22.8350  -12.9350   22.1730 N   0  0  0  0  0  0  0  0  0  0  0  0
  -23.2010  -14.6620   20.8120 O   0  0  0  0  0  0  0  0  0  0  0  0
  -23.1440  -12.0570   22.5650 H   0  0  0  0  0  0  0  0  0  0  0  0
  -21.9550  -13.3250   22.4800 H   0  0  0  0  0  0  0  0  0  0  0  0
  -26.3050  -14.9780   20.3150 N   0  0  0  0  0  0  0  0  0  0  0  0
  -25.6260  -15.7090   20.4990 H   0  0  0  0  0  0  0  0  0  0  0  0
  -27.1680  -15.3310   19.9220 H   0  0  0  0  0  0  0  0  0  0  0  0
  -29.1120  -24.3490   19.2850 C   0  0  0  0  0  2  0  0  0  0  0  0
  -28.5150  -25.2240   20.4000 C   0  0  0  0  0  2  0  0  0  0  0  0
  -28.5040  -26.5710   19.9380 O   0  0  0  0  0  0  0  0  0  0  0  0
  -24.8070  -31.5670   23.3750 C   0  0  0  0  0  0  0  0  0  0  0  0
  -27.3230  -27.2590   20.0430 C   0  0  0  0  0  0  0  0  0  0  0  0
  -23.5510  -30.2790   21.6730 C   0  0  0  0  0  3  0  0  0  0  0  0
  -24.9550  -28.7800   20.1630 C   0  0  0  0  0  0  0  0  0  0  0  0
  -26.0780  -30.6010   21.4620 C   0  0  0  0  0  2  0  0  0  0  0  0
  -26.1270  -29.2620   20.7590 C   0  0  0  0  0  0  0  0  0  0  0  0
  -27.3170  -28.5090   20.6940 C   0  0  0  0  0  3  0  0  0  0  0  0
  -26.1380  -26.7770   19.4500 C   0  0  0  0  0  3  0  0  0  0  0  0
  -24.9520  -27.5350   19.5090 C   0  0  0  0  0  3  0  0  0  0  0  0
  -23.7310  -29.6610   20.2610 C   0  0  0  0  0  2  0  0  0  0  0  0
  -24.8310  -30.8270   22.2300 N   0  0  0  0  0  0  0  0  0  0  0  0
  -23.7380  -31.8350   23.9410 O   0  0  0  0  0  0  0  0  0  0  0  0
  -22.8870  -29.2250   22.5880 C   0  0  0  0  0  0  0  0  0  0  0  0
  -21.5760  -29.0120   22.3970 N   0  0  0  0  0  0  0  0  0  0  0  0
  -23.5500  -28.6030   23.4210 O   0  0  0  0  0  0  0  0  0  0  0  0
  -21.1030  -29.5710   21.7000 H   0  0  0  0  0  0  0  0  0  0  0  0
  -18.2420  -27.6390   22.6230 C   0  0  0  0  0  0  0  0  0  0  0  0
  -20.7490  -28.0400   23.1100 C   0  0  0  0  0  3  0  0  0  0  0  0
  -20.9780  -26.6090   22.5700 C   0  0  0  0  0  2  0  0  0  0  0  0
  -19.9880  -26.2130   21.4710 C   0  0  0  0  0  2  0  0  0  0  0  0
  -18.5500  -26.2910   21.9920 C   0  0  0  0  0  2  0  0  0  0  0  0
  -19.2770  -28.4650   23.1340 C   0  0  0  0  0  0  0  0  0  0  0  0
  -18.9410  -29.7250   23.6790 C   0  0  0  0  0  3  0  0  0  0  0  0
  -17.6020  -30.1560   23.7240 C   0  0  0  0  0  3  0  0  0  0  0  0
  -16.5800  -29.3260   23.2320 C   0  0  0  0  0  3  0  0  0  0  0  0
  -16.9010  -28.0700   22.6860 C   0  0  0  0  0  3  0  0  0  0  0  0
  -26.1160  -32.1320   24.0130 C   0  0  0  0  0  3  0  0  0  0  0  0
  -25.8550  -33.5280   24.3890 N   0  0  0  0  0  0  0  0  0  0  0  0
  -26.2280  -34.5930   23.6670 C   0  0  0  0  0  0  0  0  0  0  0  0
  -26.9000  -34.5020   22.6370 O   0  0  0  0  0  0  0  0  0  0  0  0
  -25.2580  -33.6760   25.1910 H   0  0  0  0  0  0  0  0  0  0  0  0
  -24.5610  -36.4540   23.3700 C   0  0  0  0  0  1  0  0  0  0  0  0
  -25.7860  -35.9800   24.1690 C   0  0  0  0  0  3  0  0  0  0  0  0
  -27.9410  -36.7730   25.0380 C   0  0  0  0  0  1  0  0  0  0  0  0
  -26.8520  -37.0010   24.0920 N   0  0  0  0  0  0  0  0  0  0  0  0
  -26.4750  -37.9300   24.2630 H   0  0  0  0  0  0  0  0  0  0  0  0
  -26.6110  -31.3000   25.2580 C   0  0  1  0  0  0  0  0  0  0  0  0
  -25.5130  -31.0550   26.3190 C   0  0  0  0  0  1  0  0  0  0  0  0
  -27.1550  -29.9220   24.8120 C   0  0  0  0  0  1  0  0  0  0  0  0
  -27.7860  -32.0350   25.9480 C   0  0  0  0  0  1  0  0  0  0  0  0
  1  2  1  0
  2  4  2  0
  2  9  1  0
  3  1  2  0
  3  8  1  0
  4  6  1  0
  5  1  1  0
  8  7  1  0
  8  4  1  0
  9 10  1  0
  9 12  1  0
 12 11  1  0
 13 14  1  0
 13 12  1  0
 15 24  1  0
 15 14  1  0
 16 24  1  0
 17 22  1  0
 18 19  1  0
 18 17  1  0
 20 19  1  0
 20 29  1  0
 20 21  1  0
 22 16  1  0
 22 21  1  0
 23 16  2  0
 24 25  1  0
 26 27  2  0
 27 46  1  0
 28 27  1  0
 28 31  1  0
 29 30  1  0
 29 26  1  0
 30 28  2  0
 31 32  1  0
 32 33  2  0
 34 37  1  0
 34 33  1  0
 35 34  2  0
 36 35  1  0
 36 31  2  0
 37 38  1  0
 38 39  1  0
 39 40  2  0
 41 40  1  0
 41 45  1  0
 42 41  2  0
 43 38  2  0
 43 42  1  0
 44 43  1  0
 46 47  1  0
 47 50  1  0
 47 49  1  0
 48 46  2  0
 51 26  1  0
 51 52  1  0
 53 51  1  0
 54  3  1  0
 54 55  1  0
 56 58  1  0
 56 55  1  0
 57 68  2  0
 58 63  1  0
 59 67  1  0
 59 69  1  0
 60 66  1  0
 60 62  1  0
 61 67  1  0
 62 61  1  0
 63 62  2  0
 64 65  1  0
 64 58  2  0
 65 60  2  0
 66 59  1  0
 67 57  1  0
 69 71  2  0
 70 69  1  0
 72 70  1  0
 73 82  2  0
 73 78  1  0
 74 70  1  0
 74 78  1  0
 75 74  1  0
 76 77  1  0
 76 75  1  0
 77 73  1  0
 78 79  2  0
 79 80  1  0
 81 80  2  0
 82 81  1  0
 83 57  1  0
 83 84  1  0
 83 93  1  0
 84 87  1  0
 85 89  1  0
 85 84  1  0
 86 85  2  0
 89 88  1  0
 91 89  1  0
 91 92  1  0
 91 90  1  0
 93 96  1  1
 93 94  1  0
 95 93  1  0
M  ISO  4  16 100  24 100  55 101  56 101
M  END
>  <TORSDO>  (1) 
F 23

>  <SCORE>  (1) 
-11.326

>  <name>  (1) 
0

>  <ligand_id>  (1) 
0

>  <original_smiles>  (1) 
[H]c1c([H])c([H])c2c(c1[H])C([H])([H])C([H])([H])C([H])([H])C2([H])N([H])C(=O)C1([H])N(C(=O)C([H])(N([H])C(=O)C([H])(N([H])C([H])([H])[H])C([H])([H])[H])C(C([H])([H])[H])(C([H])([H])[H])C([H])([H])[H])C([H])([H])c2c([H])c(OC([H])([H])C([H])([H])c3c(C([H])([H])[H])c(N([H])C([H])(C([H])([H])[H])C([H])([H])C([H])([H])C([H])([H])N([H])C(=O)N4C([H])([H])C([H])([H])C([H])([H])C([H])(n5nc(-c6c([H])c([H])c(Oc7c([H])c([H])c(F)c([H])c7F)c([H])c6[H])c(C(=O)N([H])[H])c5N([H])[H])C4([H])[H])c(C([H])([H])[H])n3C([H])([H])[H])c([H])c([H])c2C1([H])[H]

>  <smiles>  (1) 
[H]c1c([H])c([H])c2c(c1[H])C([H])([H])C([H])([H])C([H])([H])C2([H])N([H])C(=O)C1([H])N(C(=O)C([H])(N([H])C(=O)C([H])(N([H])C([H])([H])[H])C([H])([H])[H])C(C([H])([H])[H])(C([H])([H])[H])C([H])([H])[H])C([H])([H])c2c([H])c(OC([H])([H])C([H])([H])c3c(C([H])([H])[H])c(N([H])C([H])(C([H])([H])[H])C([H])([H])C([H])([H])C([H])([H])N([H])C(=O)N4C([H])([H])C([H])([H])C([H])([H])C([H])(n5nc(-c6c([H])c([H])c(Oc7c([H])c([H])c(F)c([H])c7F)c([H])c6[H])c(C(=O)N([H])[H])c5N([H])[H])C4([H])[H])c(C([H])([H])[H])n3C([H])([H])[H])c([H])c([H])c2C1([H])[H]

$$$$
1:0:0
     RDKit          3D

103112  0  0  1  0  0  0  0  0999 V2000
  -27.4900  -21.3880   20.7140 C   0  0  0  0  0  2  0  0  0  0  0  0
  -25.8340  -21.2220   22.6000 C   0  0  0  0  0  2  0  0  0  0  0  0
  -27.7420  -22.8600   21.0520 C   0  0  0  0  0  2  0  0  0  0  0  0
  -26.0350  -22.7100   22.9480 C   0  0  0  0  0  2  0  0  0  0  0  0
  -27.1220  -20.6370   21.9980 C   0  0  0  0  0  3  0  0  0  0  0  0
  -26.5310  -23.5420   21.7320 C   0  0  0  0  0  3  0  0  0  0  0  0
  -28.8890  -17.6640   22.0670 C   0  0  0  0  0  3  0  0  0  0  0  0
  -29.8010  -17.0450   22.9460 C   0  0  0  0  0  0  0  0  0  0  0  0
  -29.6230  -17.2120   24.3410 C   0  0  0  0  0  0  0  0  0  0  0  0
  -28.5490  -18.0250   24.7750 C   0  0  0  0  0  0  0  0  0  0  0  0
  -27.8680  -18.4610   22.6010 C   0  0  0  0  0  0  0  0  0  0  0  0
  -27.6920  -18.6270   23.9240 N   0  0  0  0  0  0  0  0  0  0  0  0
  -27.0330  -19.2000   21.7640 N   0  0  0  0  0  0  0  0  0  0  0  0
  -30.6710  -16.4370   25.4830 Cl  0  0  0  0  0  0  0  0  0  0  0  0
  -27.1260  -18.9490   20.7870 H   0  0  0  0  0  0  0  0  0  0  0  0
  -27.1710  -17.4020   26.8170 C   0  0  0  0  0  1  0  0  0  0  0  0
  -28.2700  -18.3050   26.2430 C   0  0  0  0  0  2  0  0  0  0  0  0
  -30.9170  -16.2010   22.3580 C   0  0  0  0  0  2  0  0  0  0  0  0
  -30.7720  -14.3230   20.7260 C   0  0  0  0  0  0  0  0  0  0  0  0
  -30.4190  -12.2870   19.3770 C   0  0  0  0  0  2  0  0  0  0  0  0
  -29.4790  -12.5340   18.1830 C   0  0  0  0  0  2  0  0  0  0  0  0
  -28.0040  -12.3850   18.6020 C   0  0  0  0  0  2  0  0  0  0  0  0
  -27.6670  -13.1960   19.8790 C   0  0  0  0  0  3  0  0  0  0  0  0
  -28.7020  -12.9130   20.9870 C   0  0  0  0  0  2  0  0  0  0  0  0
  -30.0490  -13.2080   20.4580 N   0  0  0  0  0  0  0  0  0  0  0  0
  -31.7620  -14.6760   20.0760 O   0  0  0  0  0  0  0  0  0  0  0  0
  -30.3650  -14.9760   21.8140 N   0  0  0  0  0  0  0  0  0  0  0  0
  -29.5620  -14.5950   22.2910 H   0  0  0  0  0  0  0  0  0  0  0  0
  -25.2610  -13.8140   20.5660 C   0  0  0  0  0  0  0  0  0  0  0  0
  -24.1840  -13.0440   20.9150 C   0  0  0  0  0  0  0  0  0  0  0  0
  -24.6370  -11.6910   20.8710 C   0  0  0  0  0  0  0  0  0  0  0  0
  -26.3040  -12.9300   20.3360 N   0  0  0  0  0  0  0  0  0  0  0  0
  -25.9300  -11.6470   20.5740 N   0  0  0  0  0  0  0  0  0  0  0  0
  -23.9040  -10.4300   21.0390 C   0  0  0  0  0  0  0  0  0  0  0  0
  -24.3600   -9.4220   21.9180 C   0  0  0  0  0  3  0  0  0  0  0  0
  -23.6280   -8.2250   22.0750 C   0  0  0  0  0  3  0  0  0  0  0  0
  -22.4270   -8.0280   21.3550 C   0  0  0  0  0  0  0  0  0  0  0  0
  -21.9890   -9.0250   20.4640 C   0  0  0  0  0  3  0  0  0  0  0  0
  -22.7210  -10.2130   20.3050 C   0  0  0  0  0  3  0  0  0  0  0  0
  -21.6640   -6.8870   21.4240 O   0  0  0  0  0  0  0  0  0  0  0  0
  -21.6850   -6.0730   22.5280 C   0  0  0  0  0  0  0  0  0  0  0  0
  -21.4020   -6.5640   23.8210 C   0  0  0  0  0  3  0  0  0  0  0  0
  -21.3660   -5.6790   24.9180 C   0  0  0  0  0  3  0  0  0  0  0  0
  -21.6040   -4.3060   24.7230 C   0  0  0  0  0  0  0  0  0  0  0  0
  -21.8820   -3.8140   23.4350 C   0  0  0  0  0  3  0  0  0  0  0  0
  -21.9200   -4.6960   22.3410 C   0  0  0  0  0  0  0  0  0  0  0  0
  -22.1660   -4.2150   21.0980 F   0  0  0  0  0  0  0  0  0  0  0  0
  -21.5630   -3.4540   25.7740 F   0  0  0  0  0  0  0  0  0  0  0  0
  -22.7870  -13.5250   21.1830 C   0  0  0  0  0  0  0  0  0  0  0  0
  -22.0510  -12.8240   22.0390 N   0  0  0  0  0  0  0  0  0  0  0  0
  -22.3560  -14.5570   20.6690 O   0  0  0  0  0  0  0  0  0  0  0  0
  -22.4130  -11.9890   22.4750 H   0  0  0  0  0  0  0  0  0  0  0  0
  -21.1130  -13.1260   22.2610 H   0  0  0  0  0  0  0  0  0  0  0  0
  -25.4370  -15.1850   20.4070 N   0  0  0  0  0  0  0  0  0  0  0  0
  -24.6820  -15.8500   20.5330 H   0  0  0  0  0  0  0  0  0  0  0  0
  -26.3070  -15.6220   20.1300 H   0  0  0  0  0  0  0  0  0  0  0  0
  -25.5810  -25.6770   22.5780 C   0  0  0  0  0  1  0  0  0  0  0  0
  -26.7850  -24.9870   22.0470 N   0  0  1  0  0  4  0  0  0  0  0  0
  -26.9570  -25.4350   21.1550 H   0  0  0  0  0  0  0  0  0  0  0  0
  -28.0020  -25.2900   22.8600 C   0  0  0  0  0  2  0  0  0  0  0  0
  -29.2910  -25.5440   22.0340 C   0  0  0  0  0  2  0  0  0  0  0  0
  -29.2980  -26.8310   21.2010 C   0  0  0  0  0  2  0  0  0  0  0  0
  -28.3870  -26.7120   20.0990 O   0  0  0  0  0  0  0  0  0  0  0  0
  -24.6060  -31.8720   23.2120 C   0  0  0  0  0  0  0  0  0  0  0  0
  -27.2560  -27.4960   20.1020 C   0  0  0  0  0  0  0  0  0  0  0  0
  -23.3890  -30.4910   21.5520 C   0  0  0  0  0  3  0  0  0  0  0  0
  -24.8400  -28.9620   20.1150 C   0  0  0  0  0  0  0  0  0  0  0  0
  -25.9050  -30.8620   21.3490 C   0  0  0  0  0  2  0  0  0  0  0  0
  -25.9900  -29.4980   20.7040 C   0  0  0  0  0  0  0  0  0  0  0  0
  -27.1980  -28.7800   20.6900 C   0  0  0  0  0  3  0  0  0  0  0  0
  -26.1000  -26.9790   19.4800 C   0  0  0  0  0  3  0  0  0  0  0  0
  -24.8890  -27.7010   19.4940 C   0  0  0  0  0  3  0  0  0  0  0  0
  -23.5930  -29.8140   20.1680 C   0  0  0  0  0  2  0  0  0  0  0  0
  -24.6510  -31.0870   22.0990 N   0  0  0  0  0  0  0  0  0  0  0  0
  -23.5270  -32.1420   23.7570 O   0  0  0  0  0  0  0  0  0  0  0  0
  -22.7370  -29.4650   22.5050 C   0  0  0  0  0  0  0  0  0  0  0  0
  -21.4110  -29.3020   22.3840 N   0  0  0  0  0  0  0  0  0  0  0  0
  -23.4220  -28.8130   23.2990 O   0  0  0  0  0  0  0  0  0  0  0  0
  -20.9220  -29.8790   21.7140 H   0  0  0  0  0  0  0  0  0  0  0  0
  -18.0270  -28.1350   22.8530 C   0  0  0  0  0  0  0  0  0  0  0  0
  -20.5850  -28.3620   23.1400 C   0  0  0  0  0  3  0  0  0  0  0  0
  -20.6780  -26.9380   22.5430 C   0  0  0  0  0  2  0  0  0  0  0  0
  -19.5750  -26.6390   21.5220 C   0  0  0  0  0  2  0  0  0  0  0  0
  -18.1920  -26.7890   22.1650 C   0  0  0  0  0  2  0  0  0  0  0  0
  -19.1510  -28.8800   23.2960 C   0  0  0  0  0  0  0  0  0  0  0  0
  -18.9440  -30.1400   23.8970 C   0  0  0  0  0  3  0  0  0  0  0  0
  -17.6460  -30.6570   24.0560 C   0  0  0  0  0  3  0  0  0  0  0  0
  -16.5350  -29.9090   23.6300 C   0  0  0  0  0  3  0  0  0  0  0  0
  -16.7260  -28.6490   23.0360 C   0  0  0  0  0  3  0  0  0  0  0  0
  -25.8980  -32.4860   23.8380 C   0  0  0  0  0  3  0  0  0  0  0  0
  -25.5860  -33.8640   24.2330 N   0  0  0  0  0  0  0  0  0  0  0  0
  -25.9040  -34.9500   23.5140 C   0  0  0  0  0  0  0  0  0  0  0  0
  -26.5600  -34.8930   22.4700 O   0  0  0  0  0  0  0  0  0  0  0  0
  -25.0040  -33.9810   25.0510 H   0  0  0  0  0  0  0  0  0  0  0  0
  -24.1490  -36.7320   23.2630 C   0  0  0  0  0  1  0  0  0  0  0  0
  -25.4110  -36.3130   24.0340 C   0  0  0  0  0  3  0  0  0  0  0  0
  -27.5590  -37.1810   24.8460 C   0  0  0  0  0  1  0  0  0  0  0  0
  -26.4280  -37.3810   23.9420 N   0  0  0  0  0  0  0  0  0  0  0  0
  -26.0190  -38.2900   24.1440 H   0  0  0  0  0  0  0  0  0  0  0  0
  -26.4420  -31.6590   25.0680 C   0  0  1  0  0  0  0  0  0  0  0  0
  -25.3720  -31.3680   26.1450 C   0  0  0  0  0  1  0  0  0  0  0  0
  -27.0210  -30.3050   24.5960 C   0  0  0  0  0  1  0  0  0  0  0  0
  -27.6000  -32.4290   25.7450 C   0  0  0  0  0  1  0  0  0  0  0  0
  1  3  1  0
  1  5  1  0
  2  4  1  0
  3  6  1  0
  5 13  1  0
  5  2  1  0
  6 58  1  0
  6  4  1  0
  7 11  2  0
  7  8  1  0
  8  9  2  0
  9 10  1  0
  9 14  1  0
 10 17  1  0
 11 12  1  0
 12 10  2  0
 13 11  1  0
 15 13  1  0
 17 16  1  0
 18  8  1  0
 19 27  1  0
 20 25  1  0
 21 22  1  0
 21 20  1  0
 23 22  1  0
 23 32  1  0
 23 24  1  0
 25 19  1  0
 25 24  1  0
 26 19  2  0
 27 28  1  0
 27 18  1  0
 29 30  2  0
 30 49  1  0
 31 30  1  0
 31 34  1  0
 32 29  1  0
 32 33  1  0
 33 31  2  0
 34 35  1  0
 35 36  2  0
 37 40  1  0
 37 36  1  0
 38 37  2  0
 39 38  1  0
 39 34  2  0
 40 41  1  0
 41 42  1  0
 42 43  2  0
 44 43  1  0
 44 48  1  0
 45 44  2  0
 46 41  2  0
 46 45  1  0
 47 46  1  0
 49 50  1  0
 50 53  1  0
 50 52  1  0
 51 49  2  0
 54 55  1  0
 54 29  1  0
 56 54  1  0
 58 57  1  0
 58 60  1  0
 58 59  1  6
 61 60  1  0
 62 61  1  0
 63 65  1  0
 63 62  1  0
 64 75  2  0
 65 70  1  0
 66 74  1  0
 66 76  1  0
 67 73  1  0
 67 69  1  0
 68 74  1  0
 69 68  1  0
 70 69  2  0
 71 72  1  0
 71 65  2  0
 72 67  2  0
 73 66  1  0
 74 64  1  0
 76 78  2  0
 77 76  1  0
 79 77  1  0
 80 89  2  0
 80 85  1  0
 81 77  1  0
 81 85  1  0
 82 81  1  0
 83 84  1  0
 83 82  1  0
 84 80  1  0
 85 86  2  0
 86 87  1  0
 88 87  2  0
 89 88  1  0
 90 64  1  0
 90 91  1  0
 90100  1  0
 91 94  1  0
 92 96  1  0
 92 91  1  0
 93 92  2  0
 96 95  1  0
 98 96  1  0
 98 99  1  0
 98 97  1  0
100103  1  1
100101  1  0
102100  1  0
M  ISO  4  19 100  27 100  62 101  63 101
M  END
>  <TORSDO>  (2) 
F 23

>  <SCORE>  (2) 
41.432

>  <name>  (2) 
1

>  <ligand_id>  (2) 
1

>  <original_smiles>  (2) 
[H]c1c([H])c([H])c2c(c1[H])C([H])([H])C([H])([H])C([H])([H])C2([H])N([H])C(=O)C1([H])N(C(=O)C([H])(N([H])C(=O)C([H])(N([H])C([H])([H])[H])C([H])([H])[H])C(C([H])([H])[H])(C([H])([H])[H])C([H])([H])[H])C([H])([H])c2c([H])c(OC([H])([H])C([H])([H])C([H])([H])[N+]([H])(C([H])([H])[H])C3([H])C([H])([H])C([H])([H])C([H])(N([H])c4nc(C([H])([H])C([H])([H])[H])c(Cl)c(C([H])([H])N([H])C(=O)N5C([H])([H])C([H])([H])C([H])([H])C([H])(n6nc(-c7c([H])c([H])c(Oc8c([H])c([H])c(F)c([H])c8F)c([H])c7[H])c(C(=O)N([H])[H])c6N([H])[H])C5([H])[H])c4[H])C([H])([H])C3([H])[H])c([H])c([H])c2C1([H])[H]

>  <smiles>  (2) 
[H]c1c([H])c([H])c2c(c1[H])C([H])([H])C([H])([H])C([H])([H])C2([H])N([H])C(=O)C1([H])N(C(=O)C([H])(N([H])C(=O)C([H])(N([H])C([H])([H])[H])C([H])([H])[H])C(C([H])([H])[H])(C([H])([H])[H])C([H])([H])[H])C([H])([H])c2c([H])c(OC([H])([H])C([H])([H])C([H])([H])[N+]([H])(C([H])([H])[H])C3([H])C([H])([H])C([H])([H])C([H])(N([H])c4nc(C([H])([H])C([H])([H])[H])c(Cl)c(C([H])([H])N([H])C(=O)N5C([H])([H])C([H])([H])C([H])([H])C([H])(n6nc(-c7c([H])c([H])c(Oc8c([H])c([H])c(F)c([H])c8F)c([H])c7[H])c(C(=O)N([H])[H])c6N([H])[H])C5([H])[H])c4[H])C([H])([H])C3([H])[H])c([H])c([H])c2C1([H])[H]

$$$$
2:0:0
     RDKit          3D

 99107  0  0  1  0  0  0  0  0999 V2000
  -30.0060  -22.4090   21.2400 N   0  0  0  0  0  0  0  0  0  0  0  0
  -32.1330  -21.3590   21.7430 C   0  0  0  0  0  3  0  0  0  0  0  0
  -31.9110  -22.0820   24.4640 C   0  0  0  0  0  0  0  0  0  0  0  0
  -30.9940  -22.0650   22.1820 C   0  0  0  0  0  0  0  0  0  0  0  0
  -33.1560  -21.0130   22.6430 C   0  0  0  0  0  0  0  0  0  0  0  0
  -30.8880  -22.4400   23.5470 C   0  0  0  0  0  0  0  0  0  0  0  0
  -33.0460  -21.3710   24.0030 C   0  0  0  0  0  0  0  0  0  0  0  0
  -31.8290  -22.4570   25.9420 C   0  0  0  0  0  1  0  0  0  0  0  0
  -34.5390  -20.1560   22.0570 Cl  0  0  0  0  0  0  0  0  0  0  0  0
  -29.5240  -23.3750   24.0690 Cl  0  0  0  0  0  0  0  0  0  0  0  0
  -34.3170  -20.9470   25.1040 Cl  0  0  0  0  0  0  0  0  0  0  0  0
  -30.7320  -23.6760   19.2360 C   0  0  0  0  0  1  0  0  0  0  0  0
  -30.1160  -23.7530   20.6450 C   0  0  0  0  0  3  0  0  0  0  0  0
  -28.7800  -24.5490   20.6740 C   0  0  0  0  0  2  0  0  0  0  0  0
  -28.9570  -26.0930   20.6740 C   0  0  0  0  0  2  0  0  0  0  0  0
  -28.3090  -26.6980   19.5520 O   0  0  0  0  0  0  0  0  0  0  0  0
  -24.7690  -31.4040   23.6260 C   0  0  0  0  0  0  0  0  0  0  0  0
  -27.1920  -27.4640   19.7910 C   0  0  0  0  0  0  0  0  0  0  0  0
  -23.5030  -30.4090   21.7490 C   0  0  0  0  0  3  0  0  0  0  0  0
  -24.8850  -29.0730   20.0690 C   0  0  0  0  0  0  0  0  0  0  0  0
  -26.0480  -30.6460   21.6260 C   0  0  0  0  0  2  0  0  0  0  0  0
  -26.0620  -29.4080   20.7540 C   0  0  0  0  0  0  0  0  0  0  0  0
  -27.2180  -28.6080   20.6210 C   0  0  0  0  0  3  0  0  0  0  0  0
  -26.0080  -27.1460   19.1000 C   0  0  0  0  0  3  0  0  0  0  0  0
  -24.8520  -27.9370   19.2410 C   0  0  0  0  0  3  0  0  0  0  0  0
  -23.6900  -29.9800   20.2690 C   0  0  0  0  0  2  0  0  0  0  0  0
  -24.7920  -30.8220   22.3940 N   0  0  0  0  0  0  0  0  0  0  0  0
  -23.6990  -31.6360   24.2060 O   0  0  0  0  0  0  0  0  0  0  0  0
  -22.7810  -29.2670   22.5040 C   0  0  0  0  0  0  0  0  0  0  0  0
  -21.4700  -29.1220   22.2560 N   0  0  0  0  0  0  0  0  0  0  0  0
  -23.4020  -28.5200   23.2650 O   0  0  0  0  0  0  0  0  0  0  0  0
  -21.0300  -29.7810   21.6280 H   0  0  0  0  0  0  0  0  0  0  0  0
  -18.0920  -27.8380   22.2380 C   0  0  0  0  0  0  0  0  0  0  0  0
  -20.5970  -28.0930   22.8240 C   0  0  0  0  0  3  0  0  0  0  0  0
  -20.7980  -26.7380   22.1070 C   0  0  0  0  0  2  0  0  0  0  0  0
  -19.8210  -26.5180   20.9480 C   0  0  0  0  0  2  0  0  0  0  0  0
  -18.3730  -26.5740   21.4430 C   0  0  0  0  0  2  0  0  0  0  0  0
  -19.1380  -28.5590   22.8730 C   0  0  0  0  0  0  0  0  0  0  0  0
  -18.8250  -29.7440   23.5720 C   0  0  0  0  0  3  0  0  0  0  0  0
  -17.4990  -30.2080   23.6470 C   0  0  0  0  0  3  0  0  0  0  0  0
  -16.4640  -29.4830   23.0310 C   0  0  0  0  0  3  0  0  0  0  0  0
  -16.7620  -28.2990   22.3320 C   0  0  0  0  0  3  0  0  0  0  0  0
  -26.0830  -31.8320   24.3530 C   0  0  0  0  0  3  0  0  0  0  0  0
  -26.5360  -30.8100   25.4670 C   0  0  1  0  0  0  0  0  0  0  0  0
  -25.4190  -30.4560   26.4760 C   0  0  0  0  0  1  0  0  0  0  0  0
  -27.0320  -29.4920   24.8300 C   0  0  0  0  0  1  0  0  0  0  0  0
  -27.7310  -31.3950   26.2560 C   0  0  0  0  0  1  0  0  0  0  0  0
  -25.8560  -33.1650   24.9270 N   0  0  0  0  0  0  0  0  0  0  0  0
  -26.3000  -34.3100   24.3890 C   0  0  0  0  0  0  0  0  0  0  0  0
  -27.0140  -34.3430   23.3820 O   0  0  0  0  0  0  0  0  0  0  0  0
  -25.2320  -33.2170   25.7180 H   0  0  0  0  0  0  0  0  0  0  0  0
  -24.7300  -36.2720   24.3030 C   0  0  0  0  0  1  0  0  0  0  0  0
  -25.8880  -35.6250   25.0780 C   0  0  0  0  0  3  0  0  0  0  0  0
  -28.0250  -36.1630   26.1550 C   0  0  0  0  0  1  0  0  0  0  0  0
  -26.9990  -36.5920   25.2090 N   0  0  0  0  0  0  0  0  0  0  0  0
  -26.6540  -37.5000   25.5070 H   0  0  0  0  0  0  0  0  0  0  0  0
  -29.0480  -21.3690   20.8320 C   0  0  0  0  0  2  0  0  0  0  0  0
  -29.7130  -20.0590   20.3220 C   0  0  0  0  0  2  0  0  0  0  0  0
  -28.6900  -18.9540   19.9520 C   0  0  0  0  0  2  0  0  0  0  0  0
  -29.2840  -17.6320   19.3950 C   0  0  0  0  0  2  0  0  0  0  0  0
  -29.9430  -16.6710   20.4250 C   0  0  0  0  0  2  0  0  0  0  0  0
  -30.0430  -14.2940   19.5990 C   0  0  0  0  0  0  0  0  0  0  0  0
  -29.7260  -12.0490   18.6160 C   0  0  0  0  0  2  0  0  0  0  0  0
  -28.6090  -12.0890   17.5540 C   0  0  0  0  0  2  0  0  0  0  0  0
  -27.2280  -11.8760   18.2030 C   0  0  0  0  0  2  0  0  0  0  0  0
  -27.0060  -12.7770   19.4480 C   0  0  0  0  0  3  0  0  0  0  0  0
  -28.2240  -12.7270   20.4000 C   0  0  0  0  0  2  0  0  0  0  0  0
  -29.4290  -13.0790   19.6260 N   0  0  0  0  0  0  0  0  0  0  0  0
  -31.0270  -14.5280   18.8910 O   0  0  0  0  0  0  0  0  0  0  0  0
  -29.4750  -15.2740   20.3280 N   0  0  0  0  0  0  0  0  0  0  0  0
  -28.6710  -15.0160   20.8830 H   0  0  0  0  0  0  0  0  0  0  0  0
  -24.7480  -13.2710   20.5780 C   0  0  0  0  0  0  0  0  0  0  0  0
  -23.7820  -12.4490   21.0940 C   0  0  0  0  0  0  0  0  0  0  0  0
  -24.2680  -11.1150   20.9300 C   0  0  0  0  0  0  0  0  0  0  0  0
  -25.7630  -12.4360   20.1400 N   0  0  0  0  0  0  0  0  0  0  0  0
  -25.4890  -11.1330   20.4060 N   0  0  0  0  0  0  0  0  0  0  0  0
  -23.6220   -9.8240   21.1930 C   0  0  0  0  0  0  0  0  0  0  0  0
  -24.1810   -8.8860   22.0900 C   0  0  0  0  0  3  0  0  0  0  0  0
  -23.5310   -7.6580   22.3400 C   0  0  0  0  0  3  0  0  0  0  0  0
  -22.3080   -7.3580   21.6950 C   0  0  0  0  0  0  0  0  0  0  0  0
  -21.7660   -8.2850   20.7870 C   0  0  0  0  0  3  0  0  0  0  0  0
  -22.4170   -9.5060   20.5350 C   0  0  0  0  0  3  0  0  0  0  0  0
  -21.6190   -6.1800   21.8560 O   0  0  0  0  0  0  0  0  0  0  0  0
  -21.6520   -5.4830   23.0370 C   0  0  0  0  0  0  0  0  0  0  0  0
  -21.2160   -6.0550   24.2520 C   0  0  0  0  0  3  0  0  0  0  0  0
  -21.2010   -5.2810   25.4290 C   0  0  0  0  0  3  0  0  0  0  0  0
  -21.6120   -3.9340   25.3920 C   0  0  0  0  0  0  0  0  0  0  0  0
  -22.0420   -3.3620   24.1820 C   0  0  0  0  0  3  0  0  0  0  0  0
  -22.0580   -4.1350   23.0080 C   0  0  0  0  0  0  0  0  0  0  0  0
  -22.4520   -3.5720   21.8400 F   0  0  0  0  0  0  0  0  0  0  0  0
  -21.5920   -3.1880   26.5210 F   0  0  0  0  0  0  0  0  0  0  0  0
  -22.4400  -12.8670   21.6210 C   0  0  0  0  0  0  0  0  0  0  0  0
  -21.8990  -12.1210   22.5770 N   0  0  0  0  0  0  0  0  0  0  0  0
  -21.8840  -13.8900   21.2190 O   0  0  0  0  0  0  0  0  0  0  0  0
  -22.3640  -11.2930   22.9200 H   0  0  0  0  0  0  0  0  0  0  0  0
  -21.0030  -12.3770   22.9700 H   0  0  0  0  0  0  0  0  0  0  0  0
  -24.8420  -14.6500   20.4280 N   0  0  0  0  0  0  0  0  0  0  0  0
  -24.0840  -15.2770   20.6780 H   0  0  0  0  0  0  0  0  0  0  0  0
  -25.6180  -15.1270   19.9870 H   0  0  0  0  0  0  0  0  0  0  0  0
  1  4  1  0
  2  4  2  0
  2  5  1  0
  3  8  1  0
  4  6  1  0
  5  7  2  0
  6 10  1  0
  6  3  2  0
  7  3  1  0
  7 11  1  0
  9  5  1  0
 13 12  1  0
 13 14  1  0
 13  1  1  0
 15 14  1  0
 16 18  1  0
 16 15  1  0
 17 28  2  0
 18 23  1  0
 19 27  1  0
 19 29  1  0
 20 26  1  0
 20 22  1  0
 21 27  1  0
 22 21  1  0
 23 22  2  0
 24 25  1  0
 24 18  2  0
 25 20  2  0
 26 19  1  0
 27 17  1  0
 29 31  2  0
 30 29  1  0
 32 30  1  0
 33 42  2  0
 33 38  1  0
 34 30  1  0
 34 38  1  0
 35 34  1  0
 36 37  1  0
 36 35  1  0
 37 33  1  0
 38 39  2  0
 39 40  1  0
 41 40  2  0
 42 41  1  0
 43 17  1  0
 43 48  1  0
 43 44  1  0
 44 47  1  1
 44 45  1  0
 46 44  1  0
 48 51  1  0
 49 48  1  0
 49 53  1  0
 50 49  2  0
 53 52  1  0
 53 55  1  0
 55 56  1  0
 55 54  1  0
 57  1  1  0
 58 57  1  0
 59 58  1  0
 60 59  1  0
 60 61  1  0
 62 68  1  0
 62 70  1  0
 63 68  1  0
 64 65  1  0
 64 63  1  0
 66 65  1  0
 66 75  1  0
 66 67  1  0
 68 67  1  0
 69 62  2  0
 70 61  1  0
 70 71  1  0
 72 73  2  0
 73 92  1  0
 74 73  1  0
 74 77  1  0
 75 76  1  0
 75 72  1  0
 76 74  2  0
 77 78  1  0
 78 79  2  0
 80 83  1  0
 80 79  1  0
 81 80  2  0
 82 81  1  0
 82 77  2  0
 83 84  1  0
 84 85  1  0
 85 86  2  0
 87 86  1  0
 87 91  1  0
 88 87  2  0
 89 84  2  0
 89 88  1  0
 90 89  1  0
 92 93  1  0
 93 95  1  0
 93 96  1  0
 94 92  2  0
 97 72  1  0
 97 98  1  0
 99 97  1  0
M  ISO  4  15 101  16 101  62 100  70 100
M  END
>  <TORSDO>  (3) 
F 25

>  <SCORE>  (3) 
-4.494

>  <name>  (3) 
2

>  <ligand_id>  (3) 
2

>  <original_smiles>  (3) 
[H]c1c([H])c([H])c2c(c1[H])C([H])([H])C([H])([H])C([H])([H])C2([H])N([H])C(=O)C1([H])N(C(=O)C([H])(N([H])C(=O)C([H])(N([H])C([H])([H])[H])C([H])([H])[H])C(C([H])([H])[H])(C([H])([H])[H])C([H])([H])[H])C([H])([H])c2c([H])c(OC([H])([H])C([H])([H])C([H])(N(c3c([H])c(Cl)c(Cl)c(C([H])([H])[H])c3Cl)C([H])([H])C([H])([H])C([H])([H])C([H])([H])C([H])([H])N([H])C(=O)N3C([H])([H])C([H])([H])C([H])([H])C([H])(n4nc(-c5c([H])c([H])c(Oc6c([H])c([H])c(F)c([H])c6F)c([H])c5[H])c(C(=O)N([H])[H])c4N([H])[H])C3([H])[H])C([H])([H])[H])c([H])c([H])c2C1([H])[H]

>  <smiles>  (3) 
[H]c1c([H])c([H])c2c(c1[H])C([H])([H])C([H])([H])C([H])([H])C2([H])N([H])C(=O)C1([H])N(C(=O)C([H])(N([H])C(=O)C([H])(N([H])C([H])([H])[H])C([H])([H])[H])C(C([H])([H])[H])(C([H])([H])[H])C([H])([H])[H])C([H])([H])c2c([H])c(OC([H])([H])C([H])([H])C([H])(N(c3c([H])c(Cl)c(Cl)c(C([H])([H])[H])c3Cl)C([H])([H])C([H])([H])C([H])([H])C([H])([H])C([H])([H])N([H])C(=O)N3C([H])([H])C([H])([H])C([H])([H])C([H])(n4nc(-c5c([H])c([H])c(Oc6c([H])c([H])c(F)c([H])c6F)c([H])c5[H])c(C(=O)N([H])[H])c4N([H])[H])C3([H])[H])C([H])([H])[H])c([H])c([H])c2C1([H])[H]

$$$$
3:0:0
     RDKit          3D

103112  0  0  1  0  0  0  0  0999 V2000
  -27.9320  -21.5610   21.9850 N   0  0  0  0  0  4  0  0  0  0  0  0
  -27.0370  -21.4650   22.4360 H   0  0  0  0  0  0  0  0  0  0  0  0
  -28.4890  -20.7780   22.2730 H   0  0  0  0  0  0  0  0  0  0  0  0
  -26.2620  -21.1210   20.1950 C   0  0  0  0  0  1  0  0  0  0  0  0
  -27.7400  -21.3940   20.5260 C   0  0  0  0  0  3  0  0  0  0  0  0
  -29.8690  -19.0020   18.3420 C   0  0  0  0  0  3  0  0  0  0  0  0
  -29.1200  -19.3310   21.0190 C   0  0  0  0  0  3  0  0  0  0  0  0
  -28.9650  -20.0310   18.6880 C   0  0  0  0  0  0  0  0  0  0  0  0
  -30.4330  -18.1650   19.3300 C   0  0  0  0  0  0  0  0  0  0  0  0
  -28.6140  -20.2290   20.0490 C   0  0  0  0  0  0  0  0  0  0  0  0
  -30.0310  -18.3200   20.6750 C   0  0  0  0  0  0  0  0  0  0  0  0
  -28.4080  -20.9140   17.5820 C   0  0  0  0  0  1  0  0  0  0  0  0
  -30.6610  -17.3100   21.9280 Cl  0  0  0  0  0  0  0  0  0  0  0  0
  -31.4710  -17.1240   18.9380 C   0  0  0  0  0  2  0  0  0  0  0  0
  -31.8830  -14.7040   19.2460 C   0  0  0  0  0  0  0  0  0  0  0  0
  -31.5830  -12.2990   18.8790 C   0  0  0  0  0  2  0  0  0  0  0  0
  -30.5620  -12.1170   17.7370 C   0  0  0  0  0  2  0  0  0  0  0  0
  -29.1160  -12.1250   18.2770 C   0  0  0  0  0  2  0  0  0  0  0  0
  -28.8350  -13.3140   19.2320 C   0  0  0  0  0  3  0  0  0  0  0  0
  -29.9600  -13.4520   20.2830 C   0  0  0  0  0  2  0  0  0  0  0  0
  -31.2470  -13.5510   19.5680 N   0  0  0  0  0  0  0  0  0  0  0  0
  -32.9610  -14.7530   18.6510 O   0  0  0  0  0  0  0  0  0  0  0  0
  -31.1610  -15.8030   19.4660 N   0  0  0  0  0  0  0  0  0  0  0  0
  -30.2840  -15.6870   19.9440 H   0  0  0  0  0  0  0  0  0  0  0  0
  -26.6470  -14.1940   20.2680 C   0  0  0  0  0  0  0  0  0  0  0  0
  -25.5230  -13.5500   20.7160 C   0  0  0  0  0  0  0  0  0  0  0  0
  -25.7730  -12.1550   20.5420 C   0  0  0  0  0  0  0  0  0  0  0  0
  -27.5180  -13.1960   19.8550 N   0  0  0  0  0  0  0  0  0  0  0  0
  -26.9990  -11.9600   20.0740 N   0  0  0  0  0  0  0  0  0  0  0  0
  -24.8950  -10.9940   20.7430 C   0  0  0  0  0  0  0  0  0  0  0  0
  -25.2110   -9.9770   21.6730 C   0  0  0  0  0  3  0  0  0  0  0  0
  -24.3430   -8.8800   21.8560 C   0  0  0  0  0  3  0  0  0  0  0  0
  -23.1420   -8.7920   21.1090 C   0  0  0  0  0  0  0  0  0  0  0  0
  -22.8450   -9.7940   20.1690 C   0  0  0  0  0  3  0  0  0  0  0  0
  -23.7130  -10.8830   19.9840 C   0  0  0  0  0  3  0  0  0  0  0  0
  -22.2510   -7.7500   21.2030 O   0  0  0  0  0  0  0  0  0  0  0  0
  -21.9400   -7.1750   22.4100 C   0  0  0  0  0  0  0  0  0  0  0  0
  -21.4510   -7.9360   23.4930 C   0  0  0  0  0  3  0  0  0  0  0  0
  -21.0770   -7.2950   24.6910 C   0  0  0  0  0  3  0  0  0  0  0  0
  -21.1830   -5.8950   24.8050 C   0  0  0  0  0  0  0  0  0  0  0  0
  -21.6690   -5.1360   23.7260 C   0  0  0  0  0  3  0  0  0  0  0  0
  -22.0430   -5.7740   22.5310 C   0  0  0  0  0  0  0  0  0  0  0  0
  -22.4870   -5.0360   21.4860 F   0  0  0  0  0  0  0  0  0  0  0  0
  -20.8200   -5.2770   25.9540 F   0  0  0  0  0  0  0  0  0  0  0  0
  -24.2540  -14.1930   21.1960 C   0  0  0  0  0  0  0  0  0  0  0  0
  -23.5660  -13.5630   22.1440 N   0  0  0  0  0  0  0  0  0  0  0  0
  -23.8890  -15.2870   20.7700 O   0  0  0  0  0  0  0  0  0  0  0  0
  -23.8730  -12.6730   22.5070 H   0  0  0  0  0  0  0  0  0  0  0  0
  -22.7220  -13.9770   22.5120 H   0  0  0  0  0  0  0  0  0  0  0  0
  -26.9970  -15.5370   20.1620 N   0  0  0  0  0  0  0  0  0  0  0  0
  -26.3700  -16.2890   20.4260 H   0  0  0  0  0  0  0  0  0  0  0  0
  -27.8720  -15.8670   19.7770 H   0  0  0  0  0  0  0  0  0  0  0  0
  -28.5670  -22.7870   22.5270 C   0  0  0  0  0  2  0  0  0  0  0  0
  -28.9970  -24.7940   20.8550 C   0  0  0  0  0  0  0  0  0  0  0  0
  -29.4140  -23.6170   21.5630 C   0  0  0  0  0  0  0  0  0  0  0  0
  -30.0830  -25.2880   20.1610 C   0  0  0  0  0  0  0  0  0  0  0  0
  -30.7260  -23.4000   21.2400 C   0  0  0  0  0  0  0  0  0  0  0  0
  -27.6010  -25.3770   20.8850 C   0  0  0  0  0  1  0  0  0  0  0  0
  -31.6680  -22.3180   21.6790 C   0  0  0  0  0  1  0  0  0  0  0  0
  -32.4160  -24.4230   19.6630 C   0  0  0  0  0  1  0  0  0  0  0  0
  -31.1200  -24.3760   20.3370 N   0  0  0  0  0  0  0  0  0  0  0  0
  -30.2760  -26.5050   19.2580 C   0  0  0  0  0  2  0  0  0  0  0  0
  -29.8820  -27.7150   19.9260 O   0  0  0  0  0  0  0  0  0  0  0  0
  -24.9810  -31.5400   23.3650 C   0  0  0  0  0  0  0  0  0  0  0  0
  -28.5650  -28.1300   19.9240 C   0  0  0  0  0  0  0  0  0  0  0  0
  -24.1230  -30.0530   21.5870 C   0  0  0  0  0  3  0  0  0  0  0  0
  -25.8810  -29.0330   20.0510 C   0  0  0  0  0  0  0  0  0  0  0  0
  -26.4980  -30.9990   21.4660 C   0  0  0  0  0  2  0  0  0  0  0  0
  -26.8900  -29.7550   20.6970 C   0  0  0  0  0  0  0  0  0  0  0  0
  -28.2310  -29.3110   20.6270 C   0  0  0  0  0  3  0  0  0  0  0  0
  -27.5260  -27.4290   19.2650 C   0  0  0  0  0  3  0  0  0  0  0  0
  -26.1940  -27.8670   19.3360 C   0  0  0  0  0  3  0  0  0  0  0  0
  -24.4730  -29.5670   20.1570 C   0  0  0  0  0  2  0  0  0  0  0  0
  -25.2140  -30.8770   22.1980 N   0  0  0  0  0  0  0  0  0  0  0  0
  -23.8680  -31.5070   23.9070 O   0  0  0  0  0  0  0  0  0  0  0  0
  -23.7340  -28.8250   22.4420 C   0  0  0  0  0  0  0  0  0  0  0  0
  -22.5360  -28.2740   22.1900 N   0  0  0  0  0  0  0  0  0  0  0  0
  -24.5100  -28.3720   23.2870 O   0  0  0  0  0  0  0  0  0  0  0  0
  -21.9530  -28.7030   21.4840 H   0  0  0  0  0  0  0  0  0  0  0  0
  -19.6840  -26.0610   22.2570 C   0  0  0  0  0  0  0  0  0  0  0  0
  -21.9810  -27.0890   22.8430 C   0  0  0  0  0  3  0  0  0  0  0  0
  -22.5950  -25.7940   22.2630 C   0  0  0  0  0  2  0  0  0  0  0  0
  -21.7710  -25.1940   21.1190 C   0  0  0  0  0  2  0  0  0  0  0  0
  -20.3520  -24.8690   21.5940 C   0  0  0  0  0  2  0  0  0  0  0  0
  -20.4480  -27.1100   22.8300 C   0  0  0  0  0  0  0  0  0  0  0  0
  -19.7770  -28.2110   23.4030 C   0  0  0  0  0  3  0  0  0  0  0  0
  -18.3720  -28.2740   23.4130 C   0  0  0  0  0  3  0  0  0  0  0  0
  -17.6200  -27.2230   22.8610 C   0  0  0  0  0  3  0  0  0  0  0  0
  -18.2760  -26.1190   22.2890 C   0  0  0  0  0  3  0  0  0  0  0  0
  -26.0910  -32.3910   24.0580 C   0  0  0  0  0  3  0  0  0  0  0  0
  -25.5530  -33.7450   24.2470 N   0  0  0  0  0  0  0  0  0  0  0  0
  -25.8180  -34.7880   23.4490 C   0  0  0  0  0  0  0  0  0  0  0  0
  -26.6090  -34.7270   22.5030 O   0  0  0  0  0  0  0  0  0  0  0  0
  -24.8560  -33.8600   24.9680 H   0  0  0  0  0  0  0  0  0  0  0  0
  -23.8950  -36.2670   22.7920 C   0  0  0  0  0  1  0  0  0  0  0  0
  -25.0880  -36.1110   23.7470 C   0  0  0  0  0  3  0  0  0  0  0  0
  -26.9780  -37.3560   24.6970 C   0  0  0  0  0  1  0  0  0  0  0  0
  -25.9620  -37.3000   23.6510 N   0  0  0  0  0  0  0  0  0  0  0  0
  -25.4130  -38.1540   23.6930 H   0  0  0  0  0  0  0  0  0  0  0  0
  -26.5740  -31.7860   25.4330 C   0  0  1  0  0  0  0  0  0  0  0  0
  -25.4190  -31.4580   26.4070 C   0  0  0  0  0  1  0  0  0  0  0  0
  -27.3870  -30.4890   25.2060 C   0  0  0  0  0  1  0  0  0  0  0  0
  -27.5230  -32.7840   26.1370 C   0  0  0  0  0  1  0  0  0  0  0  0
  1  3  1  0
  1  2  1  0
  1 53  1  0
  5  4  1  0
  5  1  1  0
  6  8  2  0
  6  9  1  0
  8 10  1  0
  9 11  2  0
 10  5  1  0
 10  7  2  0
 11  7  1  0
 11 13  1  0
 12  8  1  0
 14  9  1  0
 14 23  1  0
 15 23  1  0
 15 21  1  0
 16 21  1  0
 17 18  1  0
 17 16  1  0
 19 18  1  0
 19 28  1  0
 19 20  1  0
 21 20  1  0
 22 15  2  0
 23 24  1  0
 25 26  2  0
 26 45  1  0
 27 26  1  0
 27 30  1  0
 28 29  1  0
 28 25  1  0
 29 27  2  0
 30 31  1  0
 31 32  2  0
 33 36  1  0
 33 32  1  0
 34 33  2  0
 35 34  1  0
 35 30  2  0
 36 37  1  0
 37 42  2  0
 37 38  1  0
 38 39  2  0
 39 40  1  0
 40 44  1  0
 41 40  2  0
 42 41  1  0
 43 42  1  0
 45 46  1  0
 46 48  1  0
 46 49  1  0
 47 45  2  0
 50 25  1  0
 50 51  1  0
 52 50  1  0
 54 58  1  0
 54 55  1  0
 55 53  1  0
 56 61  1  0
 56 54  2  0
 57 55  2  0
 57 59  1  0
 60 61  1  0
 61 57  1  0
 62 63  1  0
 62 56  1  0
 64 75  2  0
 65 63  1  0
 65 70  1  0
 66 74  1  0
 66 76  1  0
 67 73  1  0
 67 69  1  0
 68 74  1  0
 69 68  1  0
 70 69  2  0
 71 72  1  0
 71 65  2  0
 72 67  2  0
 73 66  1  0
 74 64  1  0
 76 78  2  0
 77 76  1  0
 79 77  1  0
 80 89  2  0
 80 85  1  0
 81 77  1  0
 82 81  1  0
 83 84  1  0
 83 82  1  0
 84 80  1  0
 85 81  1  0
 85 86  2  0
 86 87  1  0
 88 87  2  0
 89 88  1  0
 90 64  1  0
 90 91  1  0
 90100  1  0
 91 94  1  0
 92 96  1  0
 92 91  1  0
 93 92  2  0
 96 95  1  0
 98 99  1  0
 98 96  1  0
 98 97  1  0
100103  1  1
100101  1  0
102100  1  0
M  ISO  4  15 100  23 100  62 101  63 101
M  END
>  <TORSDO>  (4) 
F 22

>  <SCORE>  (4) 
-7.372

>  <name>  (4) 
3

>  <ligand_id>  (4) 
3

>  <original_smiles>  (4) 
[H]c1c([H])c([H])c2c(c1[H])C([H])([H])C([H])([H])C([H])([H])C2([H])N([H])C(=O)C1([H])N(C(=O)C([H])(N([H])C(=O)C([H])(N([H])C([H])([H])[H])C([H])([H])[H])C(C([H])([H])[H])(C([H])([H])[H])C([H])([H])[H])C([H])([H])c2c([H])c(OC([H])([H])c3c(C([H])([H])[H])c(C([H])([H])[N+]([H])([H])C([H])(c4c([H])c(Cl)c(C([H])([H])N([H])C(=O)N5C([H])([H])C([H])([H])C([H])([H])C([H])(n6nc(-c7c([H])c([H])c(Oc8c([H])c([H])c(F)c([H])c8F)c([H])c7[H])c(C(=O)N([H])[H])c6N([H])[H])C5([H])[H])c([H])c4C([H])([H])[H])C([H])([H])[H])c(C([H])([H])[H])n3C([H])([H])[H])c([H])c([H])c2C1([H])[H]

>  <smiles>  (4) 
[H]c1c([H])c([H])c2c(c1[H])C([H])([H])C([H])([H])C([H])([H])C2([H])N([H])C(=O)C1([H])N(C(=O)C([H])(N([H])C(=O)C([H])(N([H])C([H])([H])[H])C([H])([H])[H])C(C([H])([H])[H])(C([H])([H])[H])C([H])([H])[H])C([H])([H])c2c([H])c(OC([H])([H])c3c(C([H])([H])[H])c(C([H])([H])[N+]([H])([H])C([H])(c4c([H])c(Cl)c(C([H])([H])N([H])C(=O)N5C([H])([H])C([H])([H])C([H])([H])C([H])(n6nc(-c7c([H])c([H])c(Oc8c([H])c([H])c(F)c([H])c8F)c([H])c7[H])c(C(=O)N([H])[H])c6N([H])[H])C5([H])[H])c([H])c4C([H])([H])[H])C([H])([H])[H])c(C([H])([H])[H])n3C([H])([H])[H])c([H])c([H])c2C1([H])[H]

$$$$
4:0:0
     RDKit          3D

100108  0  0  1  0  0  0  0  0999 V2000
  -30.6260  -21.1180   17.2470 N   0  0  0  0  0  4  0  0  0  0  0  0
  -29.9400  -20.9910   17.9720 H   0  0  0  0  0  0  0  0  0  0  0  0
  -30.1970  -20.8410   16.3780 H   0  0  0  0  0  0  0  0  0  0  0  0
  -30.9260  -22.5580   17.1940 C   0  0  0  0  0  2  0  0  0  0  0  0
  -29.8180  -23.3300   17.9270 C   0  0  0  0  0  2  0  0  0  0  0  0
  -29.9070  -23.1950   19.4600 C   0  0  0  0  0  2  0  0  0  0  0  0
  -28.6270  -23.6740   20.1540 C   0  0  0  0  0  2  0  0  0  0  0  0
  -28.7790  -23.8290   21.6800 C   0  0  0  0  0  2  0  0  0  0  0  0
  -27.8670  -24.9260   22.2700 C   0  0  0  0  0  2  0  0  0  0  0  0
  -28.5690  -26.2770   22.5300 C   0  0  0  0  0  2  0  0  0  0  0  0
  -29.3060  -26.8920   21.3200 C   0  0  0  0  0  2  0  0  0  0  0  0
  -28.5020  -26.9130   20.1420 O   0  0  0  0  0  0  0  0  0  0  0  0
  -24.6130  -31.9710   23.2750 C   0  0  0  0  0  0  0  0  0  0  0  0
  -27.3390  -27.6380   20.1840 C   0  0  0  0  0  0  0  0  0  0  0  0
  -23.4220  -30.5530   21.6260 C   0  0  0  0  0  3  0  0  0  0  0  0
  -24.9020  -29.0460   20.2000 C   0  0  0  0  0  0  0  0  0  0  0  0
  -25.9300  -30.9770   21.4140 C   0  0  0  0  0  2  0  0  0  0  0  0
  -26.0420  -29.6120   20.7790 C   0  0  0  0  0  0  0  0  0  0  0  0
  -27.2630  -28.9170   20.7750 C   0  0  0  0  0  3  0  0  0  0  0  0
  -26.1870  -27.0750   19.5970 C   0  0  0  0  0  3  0  0  0  0  0  0
  -24.9620  -27.7690   19.6120 C   0  0  0  0  0  3  0  0  0  0  0  0
  -23.6390  -29.8760   20.2450 C   0  0  0  0  0  2  0  0  0  0  0  0
  -24.6730  -31.1810   22.1650 N   0  0  0  0  0  0  0  0  0  0  0  0
  -23.5320  -32.2230   23.8230 O   0  0  0  0  0  0  0  0  0  0  0  0
  -22.7900  -29.5220   22.5850 C   0  0  0  0  0  0  0  0  0  0  0  0
  -21.4710  -29.3140   22.4520 N   0  0  0  0  0  0  0  0  0  0  0  0
  -23.4810  -28.9090   23.4010 O   0  0  0  0  0  0  0  0  0  0  0  0
  -20.9720  -29.8650   21.7660 H   0  0  0  0  0  0  0  0  0  0  0  0
  -18.1210  -28.0530   22.9200 C   0  0  0  0  0  0  0  0  0  0  0  0
  -20.6690  -28.3610   23.2170 C   0  0  0  0  0  3  0  0  0  0  0  0
  -20.8070  -26.9320   22.6460 C   0  0  0  0  0  2  0  0  0  0  0  0
  -19.7200  -26.5840   21.6210 C   0  0  0  0  0  2  0  0  0  0  0  0
  -18.3290  -26.7060   22.2530 C   0  0  0  0  0  2  0  0  0  0  0  0
  -19.2190  -28.8370   23.3600 C   0  0  0  0  0  0  0  0  0  0  0  0
  -18.9720  -30.0990   23.9440 C   0  0  0  0  0  3  0  0  0  0  0  0
  -17.6580  -30.5790   24.0910 C   0  0  0  0  0  3  0  0  0  0  0  0
  -16.5720  -29.7920   23.6670 C   0  0  0  0  0  3  0  0  0  0  0  0
  -16.8040  -28.5310   23.0890 C   0  0  0  0  0  3  0  0  0  0  0  0
  -25.8960  -32.6140   23.8930 C   0  0  0  0  0  3  0  0  0  0  0  0
  -26.4160  -31.8550   25.1750 C   0  0  1  0  0  0  0  0  0  0  0  0
  -25.3230  -31.6090   26.2400 C   0  0  0  0  0  1  0  0  0  0  0  0
  -27.0170  -30.4830   24.7890 C   0  0  0  0  0  1  0  0  0  0  0  0
  -27.5520  -32.6660   25.8410 C   0  0  0  0  0  1  0  0  0  0  0  0
  -25.5780  -34.0120   24.2080 N   0  0  0  0  0  0  0  0  0  0  0  0
  -25.9150  -35.0570   23.4380 C   0  0  0  0  0  0  0  0  0  0  0  0
  -26.5970  -34.9460   22.4160 O   0  0  0  0  0  0  0  0  0  0  0  0
  -24.9740  -34.1720   25.0000 H   0  0  0  0  0  0  0  0  0  0  0  0
  -24.1840  -36.8340   23.0330 C   0  0  0  0  0  1  0  0  0  0  0  0
  -25.4130  -36.4470   23.8710 C   0  0  0  0  0  3  0  0  0  0  0  0
  -27.5310  -37.3450   24.7270 C   0  0  0  0  0  1  0  0  0  0  0  0
  -26.4440  -37.5020   23.7670 N   0  0  0  0  0  0  0  0  0  0  0  0
  -26.0320  -38.4220   23.9040 H   0  0  0  0  0  0  0  0  0  0  0  0
  -31.7390  -20.2020   17.5630 C   0  0  0  0  0  2  0  0  0  0  0  0
  -31.1870  -17.9530   20.6500 C   0  0  0  0  0  3  0  0  0  0  0  0
  -30.2240  -18.1780   18.0020 C   0  0  0  0  0  0  0  0  0  0  0  0
  -31.2140  -19.0880   18.4720 C   0  0  0  0  0  0  0  0  0  0  0  0
  -30.2200  -17.0430   20.1830 C   0  0  0  0  0  0  0  0  0  0  0  0
  -31.6680  -18.9800   19.8140 C   0  0  0  0  0  0  0  0  0  0  0  0
  -29.6990  -17.1970   18.8780 C   0  0  0  0  0  0  0  0  0  0  0  0
  -29.6860  -18.2200   16.5690 C   0  0  0  0  0  1  0  0  0  0  0  0
  -32.8200  -20.0860   20.4820 Cl  0  0  0  0  0  0  0  0  0  0  0  0
  -28.4130  -16.1830   18.3270 Cl  0  0  0  0  0  0  0  0  0  0  0  0
  -30.6520  -14.9050   21.1870 C   0  0  0  0  0  0  0  0  0  0  0  0
  -30.5980  -12.6040   20.3820 C   0  0  0  0  0  2  0  0  0  0  0  0
  -29.8300  -12.6060   19.0460 C   0  0  0  0  0  2  0  0  0  0  0  0
  -28.3140  -12.4540   19.2870 C   0  0  0  0  0  2  0  0  0  0  0  0
  -27.7630  -13.3980   20.3920 C   0  0  0  0  0  3  0  0  0  0  0  0
  -28.6740  -13.4080   21.6420 C   0  0  0  0  0  2  0  0  0  0  0  0
  -30.0480  -13.6930   21.1990 N   0  0  0  0  0  0  0  0  0  0  0  0
  -31.8700  -15.0540   21.0610 O   0  0  0  0  0  0  0  0  0  0  0  0
  -29.8230  -15.9440   20.9980 N   0  0  0  0  0  0  0  0  0  0  0  0
  -28.8480  -15.6940   20.9720 H   0  0  0  0  0  0  0  0  0  0  0  0
  -25.2850  -13.9530   20.8010 C   0  0  0  0  0  0  0  0  0  0  0  0
  -24.2030  -13.1550   21.0590 C   0  0  0  0  0  0  0  0  0  0  0  0
  -24.7040  -11.8180   21.1100 C   0  0  0  0  0  0  0  0  0  0  0  0
  -26.3740  -13.0970   20.7180 N   0  0  0  0  0  0  0  0  0  0  0  0
  -26.0210  -11.8110   20.9610 N   0  0  0  0  0  0  0  0  0  0  0  0
  -23.9970  -10.5380   21.2350 C   0  0  0  0  0  0  0  0  0  0  0  0
  -24.3580   -9.5880   22.2180 C   0  0  0  0  0  3  0  0  0  0  0  0
  -23.6510   -8.3730   22.3290 C   0  0  0  0  0  3  0  0  0  0  0  0
  -22.5700   -8.0960   21.4580 C   0  0  0  0  0  0  0  0  0  0  0  0
  -22.2340   -9.0330   20.4660 C   0  0  0  0  0  3  0  0  0  0  0  0
  -22.9400  -10.2410   20.3510 C   0  0  0  0  0  3  0  0  0  0  0  0
  -21.8440   -6.9310   21.4770 O   0  0  0  0  0  0  0  0  0  0  0  0
  -21.7120   -6.1860   22.6220 C   0  0  0  0  0  0  0  0  0  0  0  0
  -21.1600   -6.7280   23.8040 C   0  0  0  0  0  3  0  0  0  0  0  0
  -20.9760   -5.9080   24.9350 C   0  0  0  0  0  3  0  0  0  0  0  0
  -21.3350   -4.5470   24.8850 C   0  0  0  0  0  0  0  0  0  0  0  0
  -21.8810   -4.0060   23.7080 C   0  0  0  0  0  3  0  0  0  0  0  0
  -22.0660   -4.8220   22.5790 C   0  0  0  0  0  0  0  0  0  0  0  0
  -22.5710   -4.2900   21.4410 F   0  0  0  0  0  0  0  0  0  0  0  0
  -21.1520   -3.7580   25.9690 F   0  0  0  0  0  0  0  0  0  0  0  0
  -22.7710  -13.5950   21.1590 C   0  0  0  0  0  0  0  0  0  0  0  0
  -21.9710  -12.8930   21.9530 N   0  0  0  0  0  0  0  0  0  0  0  0
  -22.3650  -14.5950   20.5670 O   0  0  0  0  0  0  0  0  0  0  0  0
  -22.3100  -12.0820   22.4480 H   0  0  0  0  0  0  0  0  0  0  0  0
  -21.0070  -13.1710   22.0710 H   0  0  0  0  0  0  0  0  0  0  0  0
  -25.4290  -15.3230   20.6060 N   0  0  0  0  0  0  0  0  0  0  0  0
  -24.6270  -15.9430   20.5630 H   0  0  0  0  0  0  0  0  0  0  0  0
  -26.2800  -15.7640   20.2810 H   0  0  0  0  0  0  0  0  0  0  0  0
  1 53  1  0
  1  2  1  0
  3  1  1  0
  4  1  1  0
  4  5  1  0
  5  6  1  0
  6  7  1  0
  7  8  1  0
  8  9  1  0
  9 10  1  0
 11 10  1  0
 12 14  1  0
 12 11  1  0
 13 24  2  0
 14 19  1  0
 15 23  1  0
 15 25  1  0
 16 22  1  0
 16 18  1  0
 17 23  1  0
 18 17  1  0
 19 18  2  0
 20 21  1  0
 20 14  2  0
 21 16  2  0
 22 15  1  0
 23 13  1  0
 25 27  2  0
 26 25  1  0
 28 26  1  0
 29 38  2  0
 29 34  1  0
 30 26  1  0
 30 34  1  0
 31 30  1  0
 32 33  1  0
 32 31  1  0
 33 29  1  0
 34 35  2  0
 35 36  1  0
 37 36  2  0
 38 37  1  0
 39 13  1  0
 39 44  1  0
 39 40  1  0
 40 43  1  1
 40 41  1  0
 42 40  1  0
 44 47  1  0
 45 49  1  0
 45 44  1  0
 46 45  2  0
 49 48  1  0
 51 49  1  0
 51 52  1  0
 51 50  1  0
 53 56  1  0
 55 56  2  0
 55 59  1  0
 56 58  1  0
 57 54  1  0
 57 71  1  0
 58 61  1  0
 58 54  2  0
 59 57  2  0
 60 55  1  0
 62 59  1  0
 63 69  1  0
 64 69  1  0
 65 66  1  0
 65 64  1  0
 67 66  1  0
 67 76  1  0
 67 68  1  0
 69 68  1  0
 70 63  2  0
 71 63  1  0
 72 71  1  0
 73 74  2  0
 74 75  1  0
 74 93  1  0
 75 78  1  0
 76 73  1  0
 76 77  1  0
 77 75  2  0
 78 79  1  0
 79 80  2  0
 81 84  1  0
 81 80  1  0
 82 81  2  0
 83 82  1  0
 83 78  2  0
 84 85  1  0
 85 86  1  0
 86 87  2  0
 88 87  1  0
 88 92  1  0
 89 88  2  0
 90 85  2  0
 90 89  1  0
 91 90  1  0
 93 94  1  0
 94 97  1  0
 94 96  1  0
 95 93  2  0
 98 73  1  0
 99 98  1  0
100 98  1  0
M  ISO  4  11 101  12 101  63 100  71 100
M  END
>  <TORSDO>  (5) 
F 26

>  <SCORE>  (5) 
-11.153

>  <name>  (5) 
4

>  <ligand_id>  (5) 
4

>  <original_smiles>  (5) 
[H]c1c([H])c([H])c2c(c1[H])C([H])([H])C([H])([H])C([H])([H])C2([H])N([H])C(=O)C1([H])N(C(=O)C([H])(N([H])C(=O)C([H])(N([H])C([H])([H])[H])C([H])([H])[H])C(C([H])([H])[H])(C([H])([H])[H])C([H])([H])[H])C([H])([H])c2c([H])c(OC([H])([H])C([H])([H])C([H])([H])C([H])([H])C([H])([H])C([H])([H])C([H])([H])C([H])([H])[N+]([H])([H])C([H])([H])c3c(Cl)c([H])c(N([H])C(=O)N4C([H])([H])C([H])([H])C([H])([H])C([H])(n5nc(-c6c([H])c([H])c(Oc7c([H])c([H])c(F)c([H])c7F)c([H])c6[H])c(C(=O)N([H])[H])c5N([H])[H])C4([H])[H])c(Cl)c3C([H])([H])[H])c([H])c([H])c2C1([H])[H]

>  <smiles>  (5) 
[H]c1c([H])c([H])c2c(c1[H])C([H])([H])C([H])([H])C([H])([H])C2([H])N([H])C(=O)C1([H])N(C(=O)C([H])(N([H])C(=O)C([H])(N([H])C([H])([H])[H])C([H])([H])[H])C(C([H])([H])[H])(C([H])([H])[H])C([H])([H])[H])C([H])([H])c2c([H])c(OC([H])([H])C([H])([H])C([H])([H])C([H])([H])C([H])([H])C([H])([H])C([H])([H])C([H])([H])[N+]([H])([H])C([H])([H])c3c(Cl)c([H])c(N([H])C(=O)N4C([H])([H])C([H])([H])C([H])([H])C([H])(n5nc(-c6c([H])c([H])c(Oc7c([H])c([H])c(F)c([H])c7F)c([H])c6[H])c(C(=O)N([H])[H])c5N([H])[H])C4([H])[H])c(Cl)c3C([H])([H])[H])c([H])c([H])c2C1([H])[H]

$$$$
5:0:0
     RDKit          3D

 91 99  0  0  1  0  0  0  0  0999 V2000
  -27.7780  -21.7110   19.9700 C   0  0  0  0  0  3  0  0  0  0  0  0
  -29.4940  -19.8080   20.4080 C   0  0  0  0  0  0  0  0  0  0  0  0
  -28.2000  -20.2950   19.9850 C   0  0  0  0  0  0  0  0  0  0  0  0
  -28.5570  -22.8830   20.3540 C   0  0  0  0  0  0  0  0  0  0  0  0
  -30.2120  -21.0380   20.7820 C   0  0  0  0  0  0  0  0  0  0  0  0
  -29.7960  -22.4060   20.7760 N   0  0  0  0  0  0  0  0  0  0  0  0
  -27.0460  -19.1170   19.4760 Cl  0  0  0  0  0  0  0  0  0  0  0  0
  -31.8320  -20.8390   21.3420 Cl  0  0  0  0  0  0  0  0  0  0  0  0
  -27.6900  -24.6080   22.1270 C   0  0  0  0  0  1  0  0  0  0  0  0
  -27.8540  -24.4770   20.6070 C   0  0  2  0  0  0  0  0  0  0  0  0
  -26.6110  -24.1990   20.1490 F   0  0  0  0  0  0  0  0  0  0  0  0
  -28.1840  -25.8940   20.1850 O   0  0  0  0  0  0  0  0  0  0  0  0
  -24.6300  -31.8800   23.2040 C   0  0  0  0  0  0  0  0  0  0  0  0
  -27.2060  -27.0290   20.1760 C   0  0  0  0  0  0  0  0  0  0  0  0
  -23.4460  -30.4860   21.5600 C   0  0  0  0  0  3  0  0  0  0  0  0
  -24.9060  -28.9060   20.1320 C   0  0  0  0  0  0  0  0  0  0  0  0
  -26.0120  -30.7070   21.4240 C   0  0  0  0  0  2  0  0  0  0  0  0
  -26.0900  -29.3000   20.7700 C   0  0  0  0  0  0  0  0  0  0  0  0
  -27.2360  -28.3810   20.7800 C   0  0  0  0  0  3  0  0  0  0  0  0
  -26.0120  -26.8240   19.4450 C   0  0  0  0  0  3  0  0  0  0  0  0
  -24.8930  -27.6860   19.4480 C   0  0  0  0  0  3  0  0  0  0  0  0
  -23.6830  -29.8190   20.1790 C   0  0  0  0  0  2  0  0  0  0  0  0
  -24.7170  -31.0510   22.1160 N   0  0  0  0  0  0  0  0  0  0  0  0
  -23.5380  -32.1640   23.7240 O   0  0  0  0  0  0  0  0  0  0  0  0
  -22.7570  -29.4770   22.5170 C   0  0  0  0  0  0  0  0  0  0  0  0
  -21.4290  -29.3040   22.3880 N   0  0  0  0  0  0  0  0  0  0  0  0
  -23.4240  -28.8540   23.3470 O   0  0  0  0  0  0  0  0  0  0  0  0
  -20.9420  -29.8550   21.6950 H   0  0  0  0  0  0  0  0  0  0  0  0
  -18.0510  -28.0820   22.9020 C   0  0  0  0  0  0  0  0  0  0  0  0
  -20.6100  -28.3590   23.1580 C   0  0  0  0  0  3  0  0  0  0  0  0
  -20.7170  -26.9300   22.5770 C   0  0  0  0  0  2  0  0  0  0  0  0
  -19.6130  -26.6050   21.5660 C   0  0  0  0  0  2  0  0  0  0  0  0
  -18.2320  -26.7380   22.2160 C   0  0  0  0  0  2  0  0  0  0  0  0
  -19.1670  -28.8490   23.3310 C   0  0  0  0  0  0  0  0  0  0  0  0
  -18.9410  -30.1030   23.9380 C   0  0  0  0  0  3  0  0  0  0  0  0
  -17.6320  -30.5920   24.1180 C   0  0  0  0  0  3  0  0  0  0  0  0
  -16.5320  -29.8230   23.7020 C   0  0  0  0  0  3  0  0  0  0  0  0
  -16.7410  -28.5690   23.1000 C   0  0  0  0  0  3  0  0  0  0  0  0
  -25.8970  -32.5280   23.8370 C   0  0  0  0  0  3  0  0  0  0  0  0
  -25.5760  -33.9290   24.1600 N   0  0  0  0  0  0  0  0  0  0  0  0
  -25.9010  -34.9850   23.4020 C   0  0  0  0  0  0  0  0  0  0  0  0
  -26.5690  -34.8830   22.3680 O   0  0  0  0  0  0  0  0  0  0  0  0
  -24.9760  -34.0810   24.9580 H   0  0  0  0  0  0  0  0  0  0  0  0
  -24.1730  -36.7840   23.0550 C   0  0  0  0  0  1  0  0  0  0  0  0
  -25.4150  -36.3750   23.8610 C   0  0  0  0  0  3  0  0  0  0  0  0
  -27.5460  -37.2690   24.6970 C   0  0  0  0  0  1  0  0  0  0  0  0
  -26.4480  -37.4290   23.7480 N   0  0  0  0  0  0  0  0  0  0  0  0
  -26.0400  -38.3490   23.8880 H   0  0  0  0  0  0  0  0  0  0  0  0
  -26.3960  -31.7710   25.1310 C   0  0  1  0  0  0  0  0  0  0  0  0
  -25.2860  -31.5440   26.1850 C   0  0  0  0  0  1  0  0  0  0  0  0
  -26.9840  -30.3880   24.7700 C   0  0  0  0  0  1  0  0  0  0  0  0
  -27.5380  -32.5730   25.7990 C   0  0  0  0  0  1  0  0  0  0  0  0
  -30.2030  -18.2000   20.4220 C   0  0  0  0  0  2  0  0  0  0  0  0
  -30.4870  -15.3220   20.2430 C   0  0  0  0  0  0  0  0  0  0  0  0
  -30.4210  -12.9030   19.3200 C   0  0  0  0  0  2  0  0  0  0  0  0
  -29.4750  -12.7170   18.1070 C   0  0  0  0  0  2  0  0  0  0  0  0
  -28.0330  -12.4470   18.5710 C   0  0  0  0  0  2  0  0  0  0  0  0
  -27.6060  -13.3940   19.7210 C   0  0  0  0  0  3  0  0  0  0  0  0
  -28.6800  -13.5240   20.8240 C   0  0  0  0  0  2  0  0  0  0  0  0
  -29.8990  -14.0300   20.1740 N   0  0  0  0  0  0  0  0  0  0  0  0
  -31.6960  -15.3180   19.9820 O   0  0  0  0  0  0  0  0  0  0  0  0
  -29.7600  -16.6000   20.4040 N   0  0  0  0  0  0  0  0  0  0  0  0
  -28.7750  -16.4570   20.5720 H   0  0  0  0  0  0  0  0  0  0  0  0
  -25.2540  -13.9290   20.5540 C   0  0  0  0  0  0  0  0  0  0  0  0
  -24.2050  -13.1430   20.9370 C   0  0  0  0  0  0  0  0  0  0  0  0
  -24.6730  -11.7950   20.8600 C   0  0  0  0  0  0  0  0  0  0  0  0
  -26.2920  -13.0640   20.2590 N   0  0  0  0  0  0  0  0  0  0  0  0
  -25.9560  -11.7710   20.5120 N   0  0  0  0  0  0  0  0  0  0  0  0
  -23.9520  -10.5270   21.0370 C   0  0  0  0  0  0  0  0  0  0  0  0
  -24.3850   -9.5520   21.9620 C   0  0  0  0  0  3  0  0  0  0  0  0
  -23.6610   -8.3520   22.1320 C   0  0  0  0  0  3  0  0  0  0  0  0
  -22.4900   -8.1170   21.3740 C   0  0  0  0  0  0  0  0  0  0  0  0
  -22.0750   -9.0800   20.4370 C   0  0  0  0  0  3  0  0  0  0  0  0
  -22.8000  -10.2710   20.2670 C   0  0  0  0  0  3  0  0  0  0  0  0
  -21.7370   -6.9710   21.4510 O   0  0  0  0  0  0  0  0  0  0  0  0
  -21.6530   -6.2400   22.6090 C   0  0  0  0  0  0  0  0  0  0  0  0
  -21.1320   -6.7910   23.8010 C   0  0  0  0  0  3  0  0  0  0  0  0
  -21.0000   -5.9850   24.9500 C   0  0  0  0  0  3  0  0  0  0  0  0
  -21.3780   -4.6300   24.9070 C   0  0  0  0  0  0  0  0  0  0  0  0
  -21.8880   -4.0770   23.7190 C   0  0  0  0  0  3  0  0  0  0  0  0
  -22.0230   -4.8810   22.5730 C   0  0  0  0  0  0  0  0  0  0  0  0
  -22.4990   -4.3380   21.4260 F   0  0  0  0  0  0  0  0  0  0  0  0
  -21.2430   -3.8540   26.0090 F   0  0  0  0  0  0  0  0  0  0  0  0
  -22.8150  -13.6120   21.2510 C   0  0  0  0  0  0  0  0  0  0  0  0
  -22.1080  -12.9020   22.1220 N   0  0  0  0  0  0  0  0  0  0  0  0
  -22.3640  -14.6460   20.7570 O   0  0  0  0  0  0  0  0  0  0  0  0
  -22.4860  -12.0700   22.5510 H   0  0  0  0  0  0  0  0  0  0  0  0
  -21.1750  -13.2000   22.3670 H   0  0  0  0  0  0  0  0  0  0  0  0
  -25.4050  -15.3050   20.3990 N   0  0  0  0  0  0  0  0  0  0  0  0
  -24.6260  -15.9420   20.5220 H   0  0  0  0  0  0  0  0  0  0  0  0
  -26.2150  -15.7510   19.9860 H   0  0  0  0  0  0  0  0  0  0  0  0
  1  3  2  0
  1  4  1  0
  2 53  1  0
  2  5  2  0
  3  2  1  0
  4 10  1  0
  4  6  2  0
  5  8  1  0
  6  5  1  0
  7  3  1  0
 10  9  1  1
 11 10  1  0
 12 10  1  0
 13 24  2  0
 14 12  1  0
 14 19  1  0
 15 23  1  0
 15 25  1  0
 16 22  1  0
 16 18  1  0
 17 23  1  0
 18 19  2  0
 18 17  1  0
 20 21  1  0
 20 14  2  0
 21 16  2  0
 22 15  1  0
 23 13  1  0
 25 27  2  0
 26 25  1  0
 28 26  1  0
 29 38  2  0
 29 34  1  0
 30 26  1  0
 30 34  1  0
 31 30  1  0
 32 33  1  0
 32 31  1  0
 33 29  1  0
 34 35  2  0
 35 36  1  0
 37 36  2  0
 38 37  1  0
 39 13  1  0
 39 40  1  0
 39 49  1  0
 40 43  1  0
 41 45  1  0
 41 40  1  0
 42 41  2  0
 45 44  1  0
 47 45  1  0
 47 48  1  0
 47 46  1  0
 49 52  1  1
 49 50  1  0
 51 49  1  0
 54 62  1  0
 55 60  1  0
 56 57  1  0
 56 55  1  0
 58 57  1  0
 58 67  1  0
 58 59  1  0
 60 54  1  0
 60 59  1  0
 61 54  2  0
 62 53  1  0
 62 63  1  0
 64 65  2  0
 65 84  1  0
 66 65  1  0
 66 69  1  0
 67 68  1  0
 67 64  1  0
 68 66  2  0
 69 70  1  0
 70 71  2  0
 72 75  1  0
 72 71  1  0
 73 72  2  0
 74 73  1  0
 74 69  2  0
 75 76  1  0
 76 77  1  0
 77 78  2  0
 79 78  1  0
 79 83  1  0
 80 79  2  0
 81 76  2  0
 81 80  1  0
 82 81  1  0
 84 85  1  0
 85 88  1  0
 85 87  1  0
 86 84  2  0
 89 90  1  0
 89 64  1  0
 91 89  1  0
M  ISO  4  10 101  12 101  54 100  62 100
M  END
>  <TORSDO>  (6) 
F 18

>  <SCORE>  (6) 
-15.808

>  <name>  (6) 
5

>  <ligand_id>  (6) 
5

>  <original_smiles>  (6) 
[H]c1c([H])c([H])c2c(c1[H])C([H])([H])C([H])([H])C([H])([H])C2([H])N([H])C(=O)C1([H])N(C(=O)C([H])(N([H])C(=O)C([H])(N([H])C([H])([H])[H])C([H])([H])[H])C(C([H])([H])[H])(C([H])([H])[H])C([H])([H])[H])C([H])([H])c2c([H])c(OC(F)(c3nc(Cl)c(C([H])([H])N([H])C(=O)N4C([H])([H])C([H])([H])C([H])([H])C([H])(n5nc(-c6c([H])c([H])c(Oc7c([H])c([H])c(F)c([H])c7F)c([H])c6[H])c(C(=O)N([H])[H])c5N([H])[H])C4([H])[H])c(Cl)c3[H])C([H])([H])[H])c([H])c([H])c2C1([H])[H]

>  <smiles>  (6) 
[H]c1c([H])c([H])c2c(c1[H])C([H])([H])C([H])([H])C([H])([H])C2([H])N([H])C(=O)C1([H])N(C(=O)C([H])(N([H])C(=O)C([H])(N([H])C([H])([H])[H])C([H])([H])[H])C(C([H])([H])[H])(C([H])([H])[H])C([H])([H])[H])C([H])([H])c2c([H])c(OC(F)(c3nc(Cl)c(C([H])([H])N([H])C(=O)N4C([H])([H])C([H])([H])C([H])([H])C([H])(n5nc(-c6c([H])c([H])c(Oc7c([H])c([H])c(F)c([H])c7F)c([H])c6[H])c(C(=O)N([H])[H])c5N([H])[H])C4([H])[H])c(Cl)c3[H])C([H])([H])[H])c([H])c([H])c2C1([H])[H]

$$$$
6:0:0
     RDKit          3D

 99108  0  0  1  0  0  0  0  0999 V2000
  -28.4920  -21.3350   20.2290 C   0  0  0  0  0  3  0  0  0  0  0  0
  -30.6660  -15.5290   20.5570 C   0  0  0  0  0  0  0  0  0  0  0  0
  -30.7800  -13.0630   19.7910 C   0  0  0  0  0  2  0  0  0  0  0  0
  -29.9450  -12.7700   18.5210 C   0  0  0  0  0  2  0  0  0  0  0  0
  -28.4770  -12.4780   18.8860 C   0  0  0  0  0  2  0  0  0  0  0  0
  -27.9230  -13.4700   19.9400 C   0  0  0  0  0  3  0  0  0  0  0  0
  -28.8960  -13.7040   21.1100 C   0  0  0  0  0  2  0  0  0  0  0  0
  -30.1380  -14.2140   20.5120 N   0  0  0  0  0  0  0  0  0  0  0  0
  -31.9050  -15.5580   20.5670 O   0  0  0  0  0  0  0  0  0  0  0  0
  -30.1840  -18.0520   18.1250 C   0  0  0  0  0  2  0  0  0  0  0  0
  -29.8040  -19.5220   18.5050 C   0  0  0  0  0  2  0  0  0  0  0  0
  -29.4400  -16.9020   18.8800 C   0  0  0  0  0  2  0  0  0  0  0  0
  -29.8030  -18.3110   20.8210 C   0  0  0  0  0  2  0  0  0  0  0  0
  -29.1750  -19.6780   19.9040 C   0  0  0  0  0  3  0  0  0  0  0  0
  -29.8790  -16.7590   20.2820 N   0  0  0  0  0  0  0  0  0  0  0  0
  -25.5000  -13.9730   20.5590 C   0  0  0  0  0  0  0  0  0  0  0  0
  -24.4410  -13.1690   20.8740 C   0  0  0  0  0  0  0  0  0  0  0  0
  -24.9480  -11.8330   20.8890 C   0  0  0  0  0  0  0  0  0  0  0  0
  -26.5790  -13.1250   20.3850 N   0  0  0  0  0  0  0  0  0  0  0  0
  -26.2560  -11.8320   20.6530 N   0  0  0  0  0  0  0  0  0  0  0  0
  -24.2480  -10.5520   21.0520 C   0  0  0  0  0  0  0  0  0  0  0  0
  -24.6450   -9.6100   22.0270 C   0  0  0  0  0  3  0  0  0  0  0  0
  -23.9420   -8.3950   22.1770 C   0  0  0  0  0  3  0  0  0  0  0  0
  -22.8260   -8.1140   21.3520 C   0  0  0  0  0  0  0  0  0  0  0  0
  -22.4500   -9.0450   20.3670 C   0  0  0  0  0  3  0  0  0  0  0  0
  -23.1550  -10.2510   20.2160 C   0  0  0  0  0  3  0  0  0  0  0  0
  -22.0990   -6.9500   21.4100 O   0  0  0  0  0  0  0  0  0  0  0  0
  -21.9490   -6.2520   22.5810 C   0  0  0  0  0  0  0  0  0  0  0  0
  -21.3780   -6.8380   23.7310 C   0  0  0  0  0  3  0  0  0  0  0  0
  -21.1800   -6.0640   24.8920 C   0  0  0  0  0  3  0  0  0  0  0  0
  -21.5430   -4.7040   24.9020 C   0  0  0  0  0  0  0  0  0  0  0  0
  -22.1070   -4.1160   23.7570 C   0  0  0  0  0  3  0  0  0  0  0  0
  -22.3060   -4.8880   22.5980 C   0  0  0  0  0  0  0  0  0  0  0  0
  -22.8310   -4.3120   21.4890 F   0  0  0  0  0  0  0  0  0  0  0  0
  -21.3450   -3.9570   26.0140 F   0  0  0  0  0  0  0  0  0  0  0  0
  -23.0170  -13.6080   21.0520 C   0  0  0  0  0  0  0  0  0  0  0  0
  -22.2630  -12.9080   21.8910 N   0  0  0  0  0  0  0  0  0  0  0  0
  -22.5820  -14.6080   20.4850 O   0  0  0  0  0  0  0  0  0  0  0  0
  -22.6280  -12.1000   22.3750 H   0  0  0  0  0  0  0  0  0  0  0  0
  -21.3070  -13.1860   22.0550 H   0  0  0  0  0  0  0  0  0  0  0  0
  -25.6350  -15.3470   20.3770 N   0  0  0  0  0  0  0  0  0  0  0  0
  -24.8500  -15.9850   20.4460 H   0  0  0  0  0  0  0  0  0  0  0  0
  -26.5030  -15.8020   20.1290 H   0  0  0  0  0  0  0  0  0  0  0  0
  -27.3450  -21.4490   19.2930 N   0  0  0  0  0  4  0  0  0  0  0  0
  -27.3710  -22.3880   18.9350 H   0  0  0  0  0  0  0  0  0  0  0  0
  -27.4890  -20.8430   18.5000 H   0  0  0  0  0  0  0  0  0  0  0  0
  -25.9830  -21.2650   19.8350 C   0  0  0  0  0  2  0  0  0  0  0  0
  -24.5460  -23.4150   19.5520 C   0  0  0  0  0  0  0  0  0  0  0  0
  -23.7340  -23.9060   18.4980 C   0  0  0  0  0  0  0  0  0  0  0  0
  -25.0220  -22.1990   19.1550 C   0  0  0  0  0  0  0  0  0  0  0  0
  -23.0000  -25.2110   18.3870 C   0  0  0  0  0  1  0  0  0  0  0  0
  -23.7040  -23.0360   17.4970 N   0  0  0  0  0  0  0  0  0  0  0  0
  -24.4750  -21.9860   17.8930 N   0  0  0  0  0  0  0  0  0  0  0  0
  -24.9090  -24.2330   21.0310 Cl  0  0  0  0  0  0  0  0  0  0  0  0
  -23.5800  -20.6430   15.9590 C   0  0  0  0  0  1  0  0  0  0  0  0
  -24.7200  -20.8840   16.9610 C   0  0  0  0  0  2  0  0  0  0  0  0
  -29.0200  -23.0370   20.1950 C   0  0  0  0  0  3  0  0  0  0  0  0
  -28.0480  -24.5400   20.2710 C   0  0  0  0  0  3  0  0  0  0  0  0
  -28.3360  -26.1480   20.2420 O   0  0  0  0  0  0  0  0  0  0  0  0
  -24.8290  -32.0130   23.4240 C   0  0  0  0  0  0  0  0  0  0  0  0
  -27.3220  -27.2310   20.2480 C   0  0  0  0  0  0  0  0  0  0  0  0
  -23.6170  -30.6920   21.7400 C   0  0  0  0  0  3  0  0  0  0  0  0
  -25.0430  -29.1170   20.2700 C   0  0  0  0  0  0  0  0  0  0  0  0
  -26.1850  -30.8770   21.6020 C   0  0  0  0  0  2  0  0  0  0  0  0
  -26.2360  -29.4930   20.9000 C   0  0  0  0  0  0  0  0  0  0  0  0
  -27.3710  -28.5700   20.8660 C   0  0  0  0  0  3  0  0  0  0  0  0
  -26.0980  -27.0000   19.5800 C   0  0  0  0  0  3  0  0  0  0  0  0
  -24.9970  -27.8910   19.5910 C   0  0  0  0  0  3  0  0  0  0  0  0
  -23.8370  -30.0510   20.3430 C   0  0  0  0  0  2  0  0  0  0  0  0
  -24.8990  -31.2170   22.3110 N   0  0  0  0  0  0  0  0  0  0  0  0
  -23.7430  -32.3040   23.9520 O   0  0  0  0  0  0  0  0  0  0  0  0
  -22.9050  -29.6730   22.6680 C   0  0  0  0  0  0  0  0  0  0  0  0
  -21.5810  -29.5000   22.5010 N   0  0  0  0  0  0  0  0  0  0  0  0
  -23.5510  -29.0400   23.5060 O   0  0  0  0  0  0  0  0  0  0  0  0
  -21.1140  -30.0610   21.8020 H   0  0  0  0  0  0  0  0  0  0  0  0
  -18.1920  -28.2730   22.8980 C   0  0  0  0  0  0  0  0  0  0  0  0
  -20.7420  -28.5450   23.2330 C   0  0  0  0  0  3  0  0  0  0  0  0
  -20.8670  -27.1240   22.6350 C   0  0  0  0  0  2  0  0  0  0  0  0
  -19.7920  -26.8140   21.5880 C   0  0  0  0  0  2  0  0  0  0  0  0
  -18.3940  -26.9390   22.1980 C   0  0  0  0  0  2  0  0  0  0  0  0
  -19.2960  -29.0340   23.3690 C   0  0  0  0  0  0  0  0  0  0  0  0
  -19.0520  -30.2800   23.9850 C   0  0  0  0  0  3  0  0  0  0  0  0
  -17.7400  -30.7680   24.1330 C   0  0  0  0  0  3  0  0  0  0  0  0
  -16.6520  -30.0050   23.6800 C   0  0  0  0  0  3  0  0  0  0  0  0
  -16.8780  -28.7590   23.0680 C   0  0  0  0  0  3  0  0  0  0  0  0
  -26.1090  -32.6130   24.0810 C   0  0  0  0  0  3  0  0  0  0  0  0
  -25.8220  -34.0130   24.4410 N   0  0  0  0  0  0  0  0  0  0  0  0
  -26.1410  -35.0790   23.6930 C   0  0  0  0  0  0  0  0  0  0  0  0
  -26.7720  -34.9860   22.6380 O   0  0  0  0  0  0  0  0  0  0  0  0
  -25.2620  -34.1600   25.2680 H   0  0  0  0  0  0  0  0  0  0  0  0
  -24.4100  -36.8920   23.4590 C   0  0  0  0  0  1  0  0  0  0  0  0
  -25.6910  -36.4670   24.1940 C   0  0  0  0  0  3  0  0  0  0  0  0
  -27.8710  -37.3330   24.9210 C   0  0  0  0  0  1  0  0  0  0  0  0
  -26.7230  -37.5150   24.0360 N   0  0  0  0  0  0  0  0  0  0  0  0
  -26.3320  -38.4370   24.2120 H   0  0  0  0  0  0  0  0  0  0  0  0
  -26.5840  -31.8110   25.3560 C   0  0  1  0  0  0  0  0  0  0  0  0
  -25.4640  -31.5760   26.3960 C   0  0  0  0  0  1  0  0  0  0  0  0
  -27.1500  -30.4290   24.9600 C   0  0  0  0  0  1  0  0  0  0  0  0
  -27.7340  -32.5730   26.0550 C   0  0  0  0  0  1  0  0  0  0  0  0
  1 57  1  0
  2  9  2  0
  3  8  1  0
  4  5  1  0
  4  3  1  0
  6  5  1  0
  6 19  1  0
  6  7  1  0
  8  2  1  0
  8  7  1  0
 10 11  1  0
 10 12  1  0
 11 14  1  0
 12 15  1  0
 14  1  1  0
 14 13  1  0
 15  2  1  0
 15 13  1  0
 16 17  2  0
 17 18  1  0
 17 36  1  0
 18 21  1  0
 19 16  1  0
 19 20  1  0
 20 18  2  0
 21 22  1  0
 22 23  2  0
 24 27  1  0
 24 23  1  0
 25 24  2  0
 26 25  1  0
 26 21  2  0
 27 28  1  0
 28 33  2  0
 28 29  1  0
 29 30  2  0
 30 31  1  0
 31 35  1  0
 32 31  2  0
 33 32  1  0
 34 33  1  0
 36 37  1  0
 37 40  1  0
 37 39  1  0
 38 36  2  0
 41 42  1  0
 41 16  1  0
 43 41  1  0
 44 47  1  0
 44  1  1  0
 45 44  1  0
 46 44  1  0
 48 54  1  0
 49 48  1  0
 50 48  2  0
 50 47  1  0
 51 49  1  0
 52 53  1  0
 52 49  2  0
 53 50  1  0
 55 56  1  0
 56 53  1  0
 57 58  2  0
 59 61  1  0
 59 58  1  0
 60 71  2  0
 61 66  1  0
 62 70  1  0
 62 72  1  0
 63 69  1  0
 63 65  1  0
 64 70  1  0
 65 64  1  0
 66 65  2  0
 67 68  1  0
 67 61  2  0
 68 63  2  0
 69 62  1  0
 70 60  1  0
 72 74  2  0
 73 72  1  0
 75 73  1  0
 76 85  2  0
 76 81  1  0
 77 73  1  0
 77 81  1  0
 78 77  1  0
 79 80  1  0
 79 78  1  0
 80 76  1  0
 81 82  2  0
 82 83  1  0
 84 83  2  0
 85 84  1  0
 86 60  1  0
 86 87  1  0
 86 96  1  0
 87 90  1  0
 88 92  1  0
 88 87  1  0
 89 88  2  0
 92 91  1  0
 94 92  1  0
 94 95  1  0
 94 93  1  0
 96 99  1  1
 96 97  1  0
 98 96  1  0
M  ISO  4   2 100  15 100  58 101  59 101
M  END
>  <TORSDO>  (7) 
F 22

>  <SCORE>  (7) 
-13.419

>  <name>  (7) 
6

>  <ligand_id>  (7) 
6

>  <original_smiles>  (7) 
[H]c1c([H])c([H])c2c(c1[H])C([H])([H])C([H])([H])C([H])([H])C2([H])N([H])C(=O)C1([H])N(C(=O)C([H])(N([H])C(=O)C([H])(N([H])C([H])([H])[H])C([H])([H])[H])C(C([H])([H])[H])(C([H])([H])[H])C([H])([H])[H])C([H])([H])c2c([H])c(OC([H])([H])C([H])([H])C([H])(C3([H])C([H])([H])N(C(=O)N4C([H])([H])C([H])([H])C([H])([H])C([H])(n5nc(-c6c([H])c([H])c(Oc7c([H])c([H])c(F)c([H])c7F)c([H])c6[H])c(C(=O)N([H])[H])c5N([H])[H])C4([H])[H])C([H])([H])C([H])([H])C3([H])[H])[N+]([H])([H])C([H])([H])c3c(Cl)c(C([H])([H])[H])nn3C([H])([H])C([H])([H])[H])c([H])c([H])c2C1([H])[H]

>  <smiles>  (7) 
[H]c1c([H])c([H])c2c(c1[H])C([H])([H])C([H])([H])C([H])([H])C2([H])N([H])C(=O)C1([H])N(C(=O)C([H])(N([H])C(=O)C([H])(N([H])C([H])([H])[H])C([H])([H])[H])C(C([H])([H])[H])(C([H])([H])[H])C([H])([H])[H])C([H])([H])c2c([H])c(OC([H])([H])C([H])([H])C([H])(C3([H])C([H])([H])N(C(=O)N4C([H])([H])C([H])([H])C([H])([H])C([H])(n5nc(-c6c([H])c([H])c(Oc7c([H])c([H])c(F)c([H])c7F)c([H])c6[H])c(C(=O)N([H])[H])c5N([H])[H])C4([H])[H])C([H])([H])C([H])([H])C3([H])[H])[N+]([H])([H])C([H])([H])c3c(Cl)c(C([H])([H])[H])nn3C([H])([H])C([H])([H])[H])c([H])c([H])c2C1([H])[H]

$$$$
7:0:0
     RDKit          3D

 97105  0  0  1  0  0  0  0  0999 V2000
  -25.5370  -22.3750   19.3260 C   0  0  0  0  0  3  0  0  0  0  0  0
  -24.6080  -24.0420   20.8270 C   0  0  0  0  0  3  0  0  0  0  0  0
  -26.8550  -22.7510   19.6880 C   0  0  0  0  0  0  0  0  0  0  0  0
  -27.0480  -23.8560   20.5740 C   0  0  0  0  0  0  0  0  0  0  0  0
  -24.4200  -23.0250   19.8780 C   0  0  0  0  0  0  0  0  0  0  0  0
  -25.9070  -24.4510   21.1840 C   0  0  0  0  0  0  0  0  0  0  0  0
  -22.8250  -22.5570   19.4120 Cl  0  0  0  0  0  0  0  0  0  0  0  0
  -26.0470  -25.6750   22.4000 Cl  0  0  0  0  0  0  0  0  0  0  0  0
  -28.4480  -24.4100   20.8760 C   0  0  0  0  0  2  0  0  0  0  0  0
  -28.9760  -25.4210   19.8200 C   0  0  0  0  0  2  0  0  0  0  0  0
  -28.8600  -26.8000   20.1980 O   0  0  0  0  0  0  0  0  0  0  0  0
  -24.6830  -31.6290   23.2960 C   0  0  0  0  0  0  0  0  0  0  0  0
  -27.6480  -27.4550   20.1310 C   0  0  0  0  0  0  0  0  0  0  0  0
  -23.6250  -30.3010   21.4990 C   0  0  0  0  0  3  0  0  0  0  0  0
  -25.2070  -28.8910   20.0800 C   0  0  0  0  0  0  0  0  0  0  0  0
  -26.1430  -30.7380   21.4830 C   0  0  0  0  0  2  0  0  0  0  0  0
  -26.3090  -29.4100   20.7700 C   0  0  0  0  0  0  0  0  0  0  0  0
  -27.5280  -28.6990   20.7930 C   0  0  0  0  0  3  0  0  0  0  0  0
  -26.5310  -26.9540   19.4250 C   0  0  0  0  0  3  0  0  0  0  0  0
  -25.3130  -27.6600   19.4050 C   0  0  0  0  0  3  0  0  0  0  0  0
  -23.9350  -29.7080   20.0980 C   0  0  0  0  0  2  0  0  0  0  0  0
  -24.8330  -30.8980   22.1530 N   0  0  0  0  0  0  0  0  0  0  0  0
  -23.5640  -31.8370   23.7800 O   0  0  0  0  0  0  0  0  0  0  0  0
  -22.9450  -29.2100   22.3560 C   0  0  0  0  0  0  0  0  0  0  0  0
  -21.6280  -29.0330   22.1630 N   0  0  0  0  0  0  0  0  0  0  0  0
  -23.5980  -28.5300   23.1510 O   0  0  0  0  0  0  0  0  0  0  0  0
  -21.1630  -29.6330   21.4940 H   0  0  0  0  0  0  0  0  0  0  0  0
  -18.2340  -27.8410   22.5270 C   0  0  0  0  0  0  0  0  0  0  0  0
  -20.7930  -28.0290   22.8240 C   0  0  0  0  0  3  0  0  0  0  0  0
  -20.8820  -26.6690   22.0920 C   0  0  0  0  0  2  0  0  0  0  0  0
  -19.7710  -26.4650   21.0580 C   0  0  0  0  0  2  0  0  0  0  0  0
  -18.3910  -26.5630   21.7170 C   0  0  0  0  0  2  0  0  0  0  0  0
  -19.3630  -28.5340   23.0350 C   0  0  0  0  0  0  0  0  0  0  0  0
  -19.1620  -29.7320   23.7560 C   0  0  0  0  0  3  0  0  0  0  0  0
  -17.8670  -30.2410   23.9620 C   0  0  0  0  0  3  0  0  0  0  0  0
  -16.7520  -29.5430   23.4640 C   0  0  0  0  0  3  0  0  0  0  0  0
  -16.9370  -28.3400   22.7600 C   0  0  0  0  0  3  0  0  0  0  0  0
  -25.9100  -32.2550   24.0330 C   0  0  0  0  0  3  0  0  0  0  0  0
  -25.5820  -33.6550   24.3300 N   0  0  0  0  0  0  0  0  0  0  0  0
  -25.9610  -34.7000   23.5820 C   0  0  0  0  0  0  0  0  0  0  0  0
  -26.6970  -34.5840   22.5990 O   0  0  0  0  0  0  0  0  0  0  0  0
  -24.9440  -33.8180   25.0960 H   0  0  0  0  0  0  0  0  0  0  0  0
  -24.2440  -36.4740   23.1070 C   0  0  0  0  0  1  0  0  0  0  0  0
  -25.4440  -36.0930   23.9900 C   0  0  0  0  0  3  0  0  0  0  0  0
  -27.5210  -37.0090   24.9250 C   0  0  0  0  0  1  0  0  0  0  0  0
  -26.4750  -37.1490   23.9130 N   0  0  0  0  0  0  0  0  0  0  0  0
  -26.0580  -38.0710   24.0160 H   0  0  0  0  0  0  0  0  0  0  0  0
  -26.3040  -31.4830   25.3510 C   0  0  1  0  0  0  0  0  0  0  0  0
  -25.1160  -31.2530   26.3130 C   0  0  0  0  0  1  0  0  0  0  0  0
  -26.9170  -30.1030   25.0150 C   0  0  0  0  0  1  0  0  0  0  0  0
  -27.3960  -32.2710   26.1140 C   0  0  0  0  0  1  0  0  0  0  0  0
  -27.9980  -21.9020   19.1120 C   0  0  0  0  0  2  0  0  0  0  0  0
  -28.1350  -20.6310   19.8710 N   0  0  0  0  0  4  0  0  0  0  0  0
  -27.2160  -20.2290   19.9260 H   0  0  0  0  0  0  0  0  0  0  0  0
  -28.4320  -20.8360   20.8100 H   0  0  0  0  0  0  0  0  0  0  0  0
  -29.0400  -19.6150   19.2720 C   0  0  0  0  0  2  0  0  0  0  0  0
  -28.8530  -18.2030   19.8820 C   0  0  0  0  0  2  0  0  0  0  0  0
  -29.5520  -17.9480   21.2410 C   0  0  0  0  0  2  0  0  0  0  0  0
  -30.7080  -16.9230   21.1770 C   0  0  0  0  0  2  0  0  0  0  0  0
  -30.8490  -14.6060   20.2440 C   0  0  0  0  0  0  0  0  0  0  0  0
  -30.5260  -12.4650   19.0700 C   0  0  0  0  0  2  0  0  0  0  0  0
  -29.5550  -12.6740   17.8930 C   0  0  0  0  0  2  0  0  0  0  0  0
  -28.0900  -12.5310   18.3540 C   0  0  0  0  0  2  0  0  0  0  0  0
  -27.7780  -13.3520   19.6360 C   0  0  0  0  0  3  0  0  0  0  0  0
  -28.8630  -13.1180   20.7130 C   0  0  0  0  0  2  0  0  0  0  0  0
  -30.1740  -13.4340   20.1180 N   0  0  0  0  0  0  0  0  0  0  0  0
  -31.9210  -14.8320   19.6750 O   0  0  0  0  0  0  0  0  0  0  0  0
  -30.2270  -15.5540   20.9600 N   0  0  0  0  0  0  0  0  0  0  0  0
  -29.3520  -15.2890   21.3830 H   0  0  0  0  0  0  0  0  0  0  0  0
  -25.3870  -13.9390   20.3970 C   0  0  0  0  0  0  0  0  0  0  0  0
  -24.3360  -13.1580   20.7960 C   0  0  0  0  0  0  0  0  0  0  0  0
  -24.8080  -11.8100   20.7510 C   0  0  0  0  0  0  0  0  0  0  0  0
  -26.4360  -13.0670   20.1430 N   0  0  0  0  0  0  0  0  0  0  0  0
  -26.0900  -11.7810   20.4090 N   0  0  0  0  0  0  0  0  0  0  0  0
  -24.0950  -10.5440   20.9560 C   0  0  0  0  0  0  0  0  0  0  0  0
  -24.5020   -9.6220   21.9460 C   0  0  0  0  0  3  0  0  0  0  0  0
  -23.7900   -8.4180   22.1370 C   0  0  0  0  0  3  0  0  0  0  0  0
  -22.6560   -8.1280   21.3420 C   0  0  0  0  0  0  0  0  0  0  0  0
  -22.2690   -9.0400   20.3430 C   0  0  0  0  0  3  0  0  0  0  0  0
  -22.9820  -10.2350   20.1500 C   0  0  0  0  0  3  0  0  0  0  0  0
  -21.9160   -6.9740   21.4440 O   0  0  0  0  0  0  0  0  0  0  0  0
  -21.7770   -6.3120   22.6380 C   0  0  0  0  0  0  0  0  0  0  0  0
  -21.1850   -6.9220   23.7650 C   0  0  0  0  0  3  0  0  0  0  0  0
  -20.9970   -6.1820   24.9500 C   0  0  0  0  0  3  0  0  0  0  0  0
  -21.3870   -4.8300   25.0050 C   0  0  0  0  0  0  0  0  0  0  0  0
  -21.9720   -4.2200   23.8810 C   0  0  0  0  0  3  0  0  0  0  0  0
  -22.1620   -4.9570   22.7000 C   0  0  0  0  0  0  0  0  0  0  0  0
  -22.7050   -4.3570   21.6140 F   0  0  0  0  0  0  0  0  0  0  0  0
  -21.2000   -4.1150   26.1390 F   0  0  0  0  0  0  0  0  0  0  0  0
  -22.9430  -13.6230   21.1080 C   0  0  0  0  0  0  0  0  0  0  0  0
  -22.2390  -12.9190   21.9870 N   0  0  0  0  0  0  0  0  0  0  0  0
  -22.4880  -14.6500   20.6050 O   0  0  0  0  0  0  0  0  0  0  0  0
  -22.6170  -12.0890   22.4210 H   0  0  0  0  0  0  0  0  0  0  0  0
  -21.3020  -13.2120   22.2270 H   0  0  0  0  0  0  0  0  0  0  0  0
  -25.5290  -15.3110   20.2140 N   0  0  0  0  0  0  0  0  0  0  0  0
  -24.7390  -15.9400   20.3130 H   0  0  0  0  0  0  0  0  0  0  0  0
  -26.3560  -15.7680   19.8540 H   0  0  0  0  0  0  0  0  0  0  0  0
  1  3  2  0
  1  5  1  0
  2  6  1  0
  3  4  1  0
  4  9  1  0
  4  6  2  0
  5  2  2  0
  6  8  1  0
  7  5  1  0
 10 11  1  0
 10  9  1  0
 12 23  2  0
 13 11  1  0
 13 18  1  0
 14 22  1  0
 14 24  1  0
 15 21  1  0
 15 17  1  0
 16 22  1  0
 17 18  2  0
 17 16  1  0
 19 13  2  0
 20 19  1  0
 20 15  2  0
 21 14  1  0
 22 12  1  0
 24 26  2  0
 25 24  1  0
 27 25  1  0
 28 37  2  0
 28 33  1  0
 29 25  1  0
 29 33  1  0
 30 29  1  0
 31 32  1  0
 31 30  1  0
 32 28  1  0
 33 34  2  0
 34 35  1  0
 36 35  2  0
 37 36  1  0
 38 12  1  0
 38 39  1  0
 38 48  1  0
 39 42  1  0
 40 44  1  0
 40 39  1  0
 41 40  2  0
 44 43  1  0
 46 44  1  0
 46 47  1  0
 46 45  1  0
 48 51  1  1
 48 49  1  0
 50 48  1  0
 52  3  1  0
 52 53  1  0
 53 54  1  0
 53 55  1  0
 56 53  1  0
 56 57  1  0
 57 58  1  0
 59 58  1  0
 60 68  1  0
 61 66  1  0
 62 63  1  0
 62 61  1  0
 64 63  1  0
 64 73  1  0
 64 65  1  0
 66 60  1  0
 66 65  1  0
 67 60  2  0
 68 59  1  0
 68 69  1  0
 70 71  2  0
 71 90  1  0
 72 71  1  0
 72 75  1  0
 73 70  1  0
 73 74  1  0
 74 72  2  0
 75 76  1  0
 76 77  2  0
 78 81  1  0
 78 77  1  0
 79 78  2  0
 80 79  1  0
 80 75  2  0
 81 82  1  0
 82 87  2  0
 82 83  1  0
 83 84  2  0
 84 85  1  0
 85 89  1  0
 86 85  2  0
 87 86  1  0
 88 87  1  0
 90 91  1  0
 91 94  1  0
 91 93  1  0
 92 90  2  0
 95 96  1  0
 95 70  1  0
 97 95  1  0
M  ISO  4  10 101  11 101  60 100  68 100
M  END
>  <TORSDO>  (8) 
F 24

>  <SCORE>  (8) 
-12.103

>  <name>  (8) 
7

>  <ligand_id>  (8) 
7

>  <original_smiles>  (8) 
[H]c1c([H])c([H])c2c(c1[H])C([H])([H])C([H])([H])C([H])([H])C2([H])N([H])C(=O)C1([H])N(C(=O)C([H])(N([H])C(=O)C([H])(N([H])C([H])([H])[H])C([H])([H])[H])C(C([H])([H])[H])(C([H])([H])[H])C([H])([H])[H])C([H])([H])c2c([H])c(OC([H])([H])C([H])([H])c3c(Cl)c([H])c(Cl)c([H])c3C([H])([H])[N+]([H])([H])C([H])([H])C([H])([H])C([H])([H])C([H])([H])N([H])C(=O)N3C([H])([H])C([H])([H])C([H])([H])C([H])(n4nc(-c5c([H])c([H])c(Oc6c([H])c([H])c(F)c([H])c6F)c([H])c5[H])c(C(=O)N([H])[H])c4N([H])[H])C3([H])[H])c([H])c([H])c2C1([H])[H]

>  <smiles>  (8) 
[H]c1c([H])c([H])c2c(c1[H])C([H])([H])C([H])([H])C([H])([H])C2([H])N([H])C(=O)C1([H])N(C(=O)C([H])(N([H])C(=O)C([H])(N([H])C([H])([H])[H])C([H])([H])[H])C(C([H])([H])[H])(C([H])([H])[H])C([H])([H])[H])C([H])([H])c2c([H])c(OC([H])([H])C([H])([H])c3c(Cl)c([H])c(Cl)c([H])c3C([H])([H])[N+]([H])([H])C([H])([H])C([H])([H])C([H])([H])C([H])([H])N([H])C(=O)N3C([H])([H])C([H])([H])C([H])([H])C([H])(n4nc(-c5c([H])c([H])c(Oc6c([H])c([H])c(F)c([H])c6F)c([H])c5[H])c(C(=O)N([H])[H])c4N([H])[H])C3([H])[H])c([H])c([H])c2C1([H])[H]

$$$$
8:0:0
     RDKit          3D

 91 95  0  0  1  0  0  0  0  0999 V2000
  -28.8970  -17.1570   19.4800 C   0  0  0  0  0  2  0  0  0  0  0  0
  -30.0910  -17.7150   18.8920 C   0  0  0  0  0  3  0  0  0  0  0  0
  -31.0500  -16.8330   19.1070 C   0  0  0  0  0  3  0  0  0  0  0  0
  -29.2680  -15.4630   19.4010 C   0  0  0  0  0  2  0  0  0  0  0  0
  -30.2950  -15.7480   17.0360 C   0  0  0  0  0  1  0  0  0  0  0  0
  -30.3360  -15.8050   18.5180 N   0  0  0  0  0  0  0  0  0  0  0  0
  -30.5240  -19.3590   18.5990 Cl  0  0  0  0  0  0  0  0  0  0  0  0
  -28.9500  -12.3280   20.3470 Cl  0  0  0  0  0  0  0  0  0  0  0  0
  -28.0130  -18.9830   19.8710 C   0  0  0  0  0 15  0  0  0  0  0  0
  -28.2860  -21.1080   19.7570 C   0  0  0  0  0 15  0  0  0  0  0  0
  -27.5640  -23.0960   19.9860 C   0  0  0  0  0 15  0  0  0  0  0  0
  -27.8790  -24.9860   20.0490 O   0  0  0  0  0  1  0  0  0  0  0  0
  -24.6560  -31.7670   23.0490 C   0  0  0  0  0  0  0  0  0  0  0  0
  -27.0520  -26.3890   20.0760 C   0  0  0  0  0  0  0  0  0  0  0  0
  -23.4820  -30.3530   21.4320 C   0  0  0  0  0  3  0  0  0  0  0  0
  -24.9070  -28.6540   20.0310 C   0  0  0  0  0  0  0  0  0  0  0  0
  -26.0740  -30.3940   21.3430 C   0  0  0  0  0  2  0  0  0  0  0  0
  -26.1140  -28.9290   20.6840 C   0  0  0  0  0  0  0  0  0  0  0  0
  -27.1710  -27.8280   20.6680 C   0  0  0  0  0  3  0  0  0  0  0  0
  -25.8290  -26.4130   19.3640 C   0  0  0  0  0  3  0  0  0  0  0  0
  -24.8230  -27.4310   19.3480 C   0  0  0  0  0  3  0  0  0  0  0  0
  -23.7310  -29.6500   20.0660 C   0  0  0  0  0  2  0  0  0  0  0  0
  -24.7680  -30.8790   21.9920 N   0  0  0  0  0  0  0  0  0  0  0  0
  -23.5550  -32.0790   23.5380 O   0  0  0  0  0  0  0  0  0  0  0  0
  -22.7500  -29.3920   22.4090 C   0  0  0  0  0  0  0  0  0  0  0  0
  -21.4130  -29.2600   22.2990 N   0  0  0  0  0  0  0  0  0  0  0  0
  -23.4010  -28.7610   23.2440 O   0  0  0  0  0  0  0  0  0  0  0  0
  -20.9340  -29.8180   21.6060 H   0  0  0  0  0  0  0  0  0  0  0  0
  -18.0150  -28.0850   22.8590 C   0  0  0  0  0  0  0  0  0  0  0  0
  -20.5820  -28.3320   23.0800 C   0  0  0  0  0  3  0  0  0  0  0  0
  -20.6600  -26.8990   22.5020 C   0  0  0  0  0  2  0  0  0  0  0  0
  -19.5410  -26.5920   21.5010 C   0  0  0  0  0  2  0  0  0  0  0  0
  -18.1700  -26.7410   22.1670 C   0  0  0  0  0  2  0  0  0  0  0  0
  -19.1460  -28.8400   23.2730 C   0  0  0  0  0  0  0  0  0  0  0  0
  -18.9410  -30.0940   23.8880 C   0  0  0  0  0  3  0  0  0  0  0  0
  -17.6410  -30.5950   24.0890 C   0  0  0  0  0  3  0  0  0  0  0  0
  -16.5260  -29.8400   23.6860 C   0  0  0  0  0  3  0  0  0  0  0  0
  -16.7150  -28.5860   23.0770 C   0  0  0  0  0  3  0  0  0  0  0  0
  -25.9010  -32.4450   23.6970 C   0  0  0  0  0  3  0  0  0  0  0  0
  -26.4100  -31.6880   24.9880 C   0  0  1  0  0  0  0  0  0  0  0  0
  -25.3090  -31.4450   26.0470 C   0  0  0  0  0  1  0  0  0  0  0  0
  -27.0120  -30.3140   24.6240 C   0  0  0  0  0  1  0  0  0  0  0  0
  -27.5440  -32.4980   25.6590 C   0  0  0  0  0  1  0  0  0  0  0  0
  -25.5450  -33.8360   24.0560 N   0  0  0  0  0  0  0  0  0  0  0  0
  -25.8750  -34.9300   23.3550 C   0  0  0  0  0  0  0  0  0  0  0  0
  -26.5640  -34.8770   22.3350 O   0  0  0  0  0  0  0  0  0  0  0  0
  -24.9330  -33.9490   24.8510 H   0  0  0  0  0  0  0  0  0  0  0  0
  -24.1280  -36.7270   23.0570 C   0  0  0  0  0  1  0  0  0  0  0  0
  -25.3660  -36.2990   23.8630 C   0  0  0  0  0  3  0  0  0  0  0  0
  -27.4790  -37.1870   24.7480 C   0  0  0  0  0  1  0  0  0  0  0  0
  -26.3850  -37.3720   23.7990 N   0  0  0  0  0  0  0  0  0  0  0  0
  -25.9630  -38.2800   23.9750 H   0  0  0  0  0  0  0  0  0  0  0  0
  -31.8180  -16.8990   20.4100 C   0  0  0  0  0  2  0  0  0  0  0  0
  -31.3500  -14.9630   21.6500 C   0  0  0  0  0  0  0  0  0  0  0  0
  -31.0160  -13.3650   19.8770 C   0  0  0  0  0  2  0  0  0  0  0  0
  -29.9330  -12.9400   18.4820 C   0  0  0  0  0  3  0  0  0  0  0  0
  -28.1490  -13.3120   18.5620 C   0  0  0  0  0  0  0  0  0  0  0  0
  -27.4340  -14.0710   20.1210 C   0  0  0  0  0  0  0  0  0  0  0  0
  -28.6630  -14.5090   21.5700 C   0  0  0  0  0  3  0  0  0  0  0  0
  -30.3740  -14.1870   21.2600 N   0  0  0  0  0  0  0  0  0  0  0  0
  -32.5100  -14.6200   21.5280 O   0  0  0  0  0  0  0  0  0  0  0  0
  -31.0920  -16.2510   21.5070 N   0  0  0  0  0  0  0  0  0  0  0  0
  -30.1300  -16.5310   21.6140 H   0  0  0  0  0  0  0  0  0  0  0  0
  -25.1070  -14.0220   20.7260 C   0  0  0  0  0  0  0  0  0  0  0  0
  -24.1350  -13.1200   20.9500 C   0  0  0  0  0  0  0  0  0  0  0  0
  -24.7230  -11.8180   20.9520 C   0  0  0  0  0  0  0  0  0  0  0  0
  -26.2400  -13.3230   20.5470 N   0  0  0  0  0  0  0  0  0  0  0  0
  -26.0410  -11.9530   20.7230 N   0  0  0  0  0  0  0  0  0  0  0  0
  -24.0320  -10.5090   21.0980 C   0  0  0  0  0  0  0  0  0  0  0  0
  -24.3890   -9.5460   22.0720 C   0  0  0  0  0  3  0  0  0  0  0  0
  -23.6300   -8.3620   22.2360 C   0  0  0  0  0  3  0  0  0  0  0  0
  -22.4920   -8.1230   21.4290 C   0  0  0  0  0  0  0  0  0  0  0  0
  -22.1490   -9.0700   20.4490 C   0  0  0  0  0  3  0  0  0  0  0  0
  -22.9080  -10.2420   20.2830 C   0  0  0  0  0  3  0  0  0  0  0  0
  -21.7090   -6.9900   21.4920 O   0  0  0  0  0  0  0  0  0  0  0  0
  -21.6150   -6.2300   22.6300 C   0  0  0  0  0  0  0  0  0  0  0  0
  -21.1870   -6.7790   23.8590 C   0  0  0  0  0  3  0  0  0  0  0  0
  -21.0370   -5.9500   24.9880 C   0  0  0  0  0  3  0  0  0  0  0  0
  -21.3060   -4.5720   24.8930 C   0  0  0  0  0  0  0  0  0  0  0  0
  -21.7240   -4.0200   23.6690 C   0  0  0  0  0  3  0  0  0  0  0  0
  -21.8740   -4.8460   22.5400 C   0  0  0  0  0  0  0  0  0  0  0  0
  -22.2540   -4.3040   21.3590 F   0  0  0  0  0  0  0  0  0  0  0  0
  -21.1590   -3.7750   25.9780 F   0  0  0  0  0  0  0  0  0  0  0  0
  -22.7120  -13.5220   21.0510 C   0  0  0  0  0  0  0  0  0  0  0  0
  -21.9490  -12.8490   21.8950 N   0  0  0  0  0  0  0  0  0  0  0  0
  -22.3000  -14.5050   20.4340 O   0  0  0  0  0  0  0  0  0  0  0  0
  -22.3170  -12.0710   22.4210 H   0  0  0  0  0  0  0  0  0  0  0  0
  -20.9830  -13.1150   22.0210 H   0  0  0  0  0  0  0  0  0  0  0  0
  -25.0860  -15.4100   20.6330 N   0  0  0  0  0  0  0  0  0  0  0  0
  -24.2130  -15.9240   20.6950 H   0  0  0  0  0  0  0  0  0  0  0  0
  -25.8840  -16.0050   20.4560 H   0  0  0  0  0  0  0  0  0  0  0  0
  2  7  1  0
  2  3  1  0
  2  1  1  0
  3 53  1  0
  4  1  1  0
  5  6  1  0
  6  3  1  0
  6  4  1  0
 12 14  1  0
 13 24  2  0
 14 19  1  0
 15 23  1  0
 15 25  1  0
 16 22  1  0
 16 18  1  0
 17 23  1  0
 18 17  1  0
 19 18  2  0
 20 14  2  0
 21 20  1  0
 21 16  2  0
 22 15  1  0
 23 13  1  0
 25 27  2  0
 26 25  1  0
 28 26  1  0
 29 38  2  0
 29 34  1  0
 30 26  1  0
 30 34  1  0
 31 30  1  0
 32 33  1  0
 32 31  1  0
 33 29  1  0
 34 35  2  0
 35 36  1  0
 37 36  2  0
 38 37  1  0
 39 13  1  0
 39 44  1  0
 39 40  1  0
 40 43  1  1
 40 41  1  0
 42 40  1  0
 44 47  1  0
 45 49  1  0
 45 44  1  0
 46 45  2  0
 49 48  1  0
 51 49  1  0
 51 52  1  0
 51 50  1  0
 53 62  1  0
 55 60  1  0
 56 57  2  3
 56 55  1  0
 57 58  1  0
 57  8  1  0
 58 67  1  0
 58 59  2  0
 60 59  1  0
 60 54  1  0
 61 54  2  0
 62 63  1  0
 62 54  1  0
 64 65  2  0
 65 66  1  0
 65 84  1  0
 66 69  1  0
 67 68  1  0
 67 64  1  0
 68 66  2  0
 69 70  1  0
 70 71  2  0
 72 75  1  0
 72 71  1  0
 73 72  2  0
 74 73  1  0
 74 69  2  0
 75 76  1  0
 76 77  1  0
 77 78  2  0
 79 78  1  0
 79 83  1  0
 80 79  2  0
 81 76  2  0
 81 80  1  0
 82 81  1  0
 84 85  1  0
 85 88  1  0
 85 87  1  0
 86 84  2  0
 89 90  1  0
 89 64  1  0
 91 89  1  0
M  ISO  4  11 101  12 101  54 100  62 100
M  END
>  <TORSDO>  (9) 
F 20

>  <SCORE>  (9) 
-12.391

>  <name>  (9) 
8

>  <ligand_id>  (9) 
8

>  <original_smiles>  (9) 
[H]c1c([H])c([H])c2c(c1[H])C([H])([H])C([H])([H])C([H])([H])C2([H])N([H])C(=O)C1([H])N(C(=O)C([H])(N([H])C(=O)C([H])(N([H])C([H])([H])[H])C([H])([H])[H])C(C([H])([H])[H])(C([H])([H])[H])C([H])([H])[H])C([H])([H])c2c([H])c(OC([H])([H])C([H])([H])C([H])([H])c3c(Cl)c(C([H])([H])N([H])C(=O)N4C([H])([H])C([H])([H])C([H])([H])C([H])(n5nc(-c6c([H])c([H])c(Oc7c([H])c([H])c(F)c([H])c7F)c([H])c6[H])c(C(=O)N([H])[H])c5N([H])[H])C4([H])[H])n(C([H])([H])[H])c3Cl)c([H])c([H])c2C1([H])[H]

>  <smiles>  (9) 
[H]c1c([H])c([H])c2c(c1[H])C([H])([H])C([H])([H])C([H])([H])C2([H])N([H])C(=O)C1([H])N(C(=O)C([H])(N([H])C(=O)C([H])(N([H])C([H])([H])[H])C([H])([H])[H])C(C([H])([H])[H])(C([H])([H])[H])C([H])([H])[H])C([H])([H])c2c([H])c(OC([H])([H])C([H])([H])C([H])([H])c3c(Cl)c(C([H])([H])N([H])C(=O)N4C([H])([H])C([H])([H])C([H])([H])C([H])(n5nc(-c6c([H])c([H])c(Oc7c([H])c([H])c(F)c([H])c7F)c([H])c6[H])c(C(=O)N([H])[H])c5N([H])[H])C4([H])[H])n(C([H])([H])[H])c3Cl)c([H])c([H])c2C1([H])[H]

$$$$
9:0:0
     RDKit          3D

101110  0  0  1  0  0  0  0  0999 V2000
  -30.1500  -21.7310   20.7200 N   0  0  0  0  0  0  0  0  0  0  0  0
  -32.0710  -21.7530   19.1730 C   0  0  0  0  0  3  0  0  0  0  0  0
  -31.2510  -21.1180   20.0670 C   0  0  0  0  0  0  0  0  0  0  0  0
  -32.8930  -19.7200   19.5660 C   0  0  0  0  0  3  0  0  0  0  0  0
  -33.8770  -18.5900   19.5540 C   0  0  0  0  0  1  0  0  0  0  0  0
  -31.7210  -19.8200   20.2350 N   0  0  0  0  0  0  0  0  0  0  0  0
  -33.0690  -20.8650   18.8940 N   0  0  0  0  0  0  0  0  0  0  0  0
  -33.8600  -21.0640   18.2920 H   0  0  0  0  0  0  0  0  0  0  0  0
  -31.1700  -18.7190   21.0740 C   0  0  0  0  0  2  0  0  0  0  0  0
  -30.9510  -17.3270   20.3980 C   0  0  0  0  0  2  0  0  0  0  0  0
  -31.5130  -16.1810   21.2830 C   0  0  0  0  0  2  0  0  0  0  0  0
  -31.1060  -14.1630   19.8740 C   0  0  0  0  0  0  0  0  0  0  0  0
  -30.4510  -12.2270   18.4710 C   0  0  0  0  0  2  0  0  0  0  0  0
  -29.4060  -12.5830   17.3980 C   0  0  0  0  0  2  0  0  0  0  0  0
  -27.9830  -12.4600   17.9670 C   0  0  0  0  0  2  0  0  0  0  0  0
  -27.8230  -13.2140   19.3100 C   0  0  0  0  0  3  0  0  0  0  0  0
  -28.9630  -12.8620   20.2870 C   0  0  0  0  0  2  0  0  0  0  0  0
  -30.2640  -13.1130   19.6340 N   0  0  0  0  0  0  0  0  0  0  0  0
  -31.9700  -14.5070   19.0600 O   0  0  0  0  0  0  0  0  0  0  0  0
  -31.0800  -14.0370   22.3060 C   0  0  0  0  0  1  0  0  0  0  0  0
  -30.9740  -14.8160   21.0610 N   0  0  0  0  0  0  0  0  0  0  0  0
  -25.5210  -13.8800   20.2530 C   0  0  0  0  0  0  0  0  0  0  0  0
  -24.4660  -13.1330   20.7040 C   0  0  0  0  0  0  0  0  0  0  0  0
  -24.8750  -11.7690   20.6020 C   0  0  0  0  0  0  0  0  0  0  0  0
  -26.5100  -12.9710   19.9060 N   0  0  0  0  0  0  0  0  0  0  0  0
  -26.1290  -11.6950   20.1720 N   0  0  0  0  0  0  0  0  0  0  0  0
  -24.1260  -10.5270   20.8340 C   0  0  0  0  0  0  0  0  0  0  0  0
  -24.5700   -9.5590   21.7640 C   0  0  0  0  0  3  0  0  0  0  0  0
  -23.8220   -8.3820   21.9830 C   0  0  0  0  0  3  0  0  0  0  0  0
  -22.6180   -8.1620   21.2720 C   0  0  0  0  0  0  0  0  0  0  0  0
  -22.1940   -9.1170   20.3310 C   0  0  0  0  0  3  0  0  0  0  0  0
  -22.9410  -10.2860   20.1100 C   0  0  0  0  0  3  0  0  0  0  0  0
  -21.8420   -7.0360   21.3990 O   0  0  0  0  0  0  0  0  0  0  0  0
  -21.7830   -6.3310   22.5750 C   0  0  0  0  0  0  0  0  0  0  0  0
  -21.3820   -6.9370   23.7860 C   0  0  0  0  0  3  0  0  0  0  0  0
  -21.2680   -6.1610   24.9570 C   0  0  0  0  0  3  0  0  0  0  0  0
  -21.5440   -4.7810   24.9170 C   0  0  0  0  0  0  0  0  0  0  0  0
  -21.9370   -4.1760   23.7110 C   0  0  0  0  0  3  0  0  0  0  0  0
  -22.0530   -4.9490   22.5430 C   0  0  0  0  0  0  0  0  0  0  0  0
  -22.4120   -4.3570   21.3780 F   0  0  0  0  0  0  0  0  0  0  0  0
  -21.4270   -4.0330   26.0390 F   0  0  0  0  0  0  0  0  0  0  0  0
  -23.1170  -13.6490   21.1190 C   0  0  0  0  0  0  0  0  0  0  0  0
  -22.4620  -12.9680   22.0520 N   0  0  0  0  0  0  0  0  0  0  0  0
  -22.6580  -14.6890   20.6490 O   0  0  0  0  0  0  0  0  0  0  0  0
  -22.8490  -12.1240   22.4510 H   0  0  0  0  0  0  0  0  0  0  0  0
  -21.5620  -13.2940   22.3740 H   0  0  0  0  0  0  0  0  0  0  0  0
  -25.7170  -15.2480   20.0900 N   0  0  0  0  0  0  0  0  0  0  0  0
  -24.9920  -15.9300   20.2860 H   0  0  0  0  0  0  0  0  0  0  0  0
  -26.5600  -15.6630   19.7130 H   0  0  0  0  0  0  0  0  0  0  0  0
  -27.9090  -22.2260   19.8880 C   0  0  0  0  0  1  0  0  0  0  0  0
  -29.3630  -22.7260   19.9640 C   0  0  0  0  0  3  0  0  0  0  0  0
  -31.3720  -25.6330   19.3360 C   0  0  0  0  0  2  0  0  0  0  0  0
  -30.6360  -25.2570   18.0470 C   0  0  0  0  0  2  0  0  0  0  0  0
  -30.9580  -24.7350   20.5190 C   0  0  0  0  0  2  0  0  0  0  0  0
  -29.1070  -25.3590   18.2070 C   0  0  0  0  0  2  0  0  0  0  0  0
  -29.4910  -24.2150   20.4780 C   0  0  0  0  0  3  0  0  0  0  0  0
  -28.6070  -25.2200   19.6710 C   0  0  0  0  0  3  0  0  0  0  0  0
  -28.5440  -26.5190   20.3040 O   0  0  0  0  0  0  0  0  0  0  0  0
  -24.5910  -31.6610   23.2860 C   0  0  0  0  0  0  0  0  0  0  0  0
  -27.3570  -27.2390   20.2530 C   0  0  0  0  0  0  0  0  0  0  0  0
  -23.4470  -30.2690   21.5920 C   0  0  0  0  0  3  0  0  0  0  0  0
  -24.9540  -28.7510   20.2070 C   0  0  0  0  0  0  0  0  0  0  0  0
  -25.9800  -30.6310   21.4880 C   0  0  0  0  0  2  0  0  0  0  0  0
  -26.0920  -29.2670   20.8370 C   0  0  0  0  0  0  0  0  0  0  0  0
  -27.2950  -28.5180   20.8570 C   0  0  0  0  0  3  0  0  0  0  0  0
  -26.1870  -26.7460   19.6190 C   0  0  0  0  0  3  0  0  0  0  0  0
  -24.9960  -27.4890   19.5990 C   0  0  0  0  0  3  0  0  0  0  0  0
  -23.7090  -29.6090   20.2150 C   0  0  0  0  0  2  0  0  0  0  0  0
  -24.6890  -30.8680   22.1810 N   0  0  0  0  0  0  0  0  0  0  0  0
  -23.4900  -31.9270   23.7870 O   0  0  0  0  0  0  0  0  0  0  0  0
  -22.7670  -29.2360   22.5190 C   0  0  0  0  0  0  0  0  0  0  0  0
  -21.4480  -29.0520   22.3440 N   0  0  0  0  0  0  0  0  0  0  0  0
  -23.4230  -28.6040   23.3500 O   0  0  0  0  0  0  0  0  0  0  0  0
  -20.9790  -29.6150   21.6480 H   0  0  0  0  0  0  0  0  0  0  0  0
  -18.0530  -27.8810   22.7480 C   0  0  0  0  0  0  0  0  0  0  0  0
  -20.6070  -28.1060   23.0770 C   0  0  0  0  0  3  0  0  0  0  0  0
  -20.7070  -26.6860   22.4720 C   0  0  0  0  0  2  0  0  0  0  0  0
  -19.6230  -26.3990   21.4300 C   0  0  0  0  0  2  0  0  0  0  0  0
  -18.2300  -26.5430   22.0480 C   0  0  0  0  0  2  0  0  0  0  0  0
  -19.1700  -28.6210   23.2170 C   0  0  0  0  0  0  0  0  0  0  0  0
  -18.9530  -29.8750   23.8290 C   0  0  0  0  0  3  0  0  0  0  0  0
  -17.6500  -30.3860   23.9780 C   0  0  0  0  0  3  0  0  0  0  0  0
  -16.5470  -29.6430   23.5260 C   0  0  0  0  0  3  0  0  0  0  0  0
  -16.7490  -28.3920   22.9170 C   0  0  0  0  0  3  0  0  0  0  0  0
  -25.8520  -32.2900   23.9540 C   0  0  0  0  0  3  0  0  0  0  0  0
  -25.5390  -33.6960   24.2470 N   0  0  0  0  0  0  0  0  0  0  0  0
  -25.9020  -34.7300   23.4780 C   0  0  0  0  0  0  0  0  0  0  0  0
  -26.6060  -34.6040   22.4720 O   0  0  0  0  0  0  0  0  0  0  0  0
  -24.9180  -33.8700   25.0230 H   0  0  0  0  0  0  0  0  0  0  0  0
  -24.2010  -36.5270   23.0260 C   0  0  0  0  0  1  0  0  0  0  0  0
  -25.4080  -36.1300   23.8900 C   0  0  0  0  0  3  0  0  0  0  0  0
  -27.5130  -37.0190   24.7890 C   0  0  0  0  0  1  0  0  0  0  0  0
  -26.4500  -37.1750   23.7990 N   0  0  0  0  0  0  0  0  0  0  0  0
  -26.0450  -38.0990   23.9120 H   0  0  0  0  0  0  0  0  0  0  0  0
  -26.3050  -31.5340   25.2620 C   0  0  1  0  0  0  0  0  0  0  0  0
  -25.1590  -31.2980   26.2750 C   0  0  0  0  0  1  0  0  0  0  0  0
  -26.9140  -30.1560   24.9120 C   0  0  0  0  0  1  0  0  0  0  0  0
  -27.4160  -32.3400   25.9750 C   0  0  0  0  0  1  0  0  0  0  0  0
  -29.8670  -21.3890   22.1180 C   0  0  0  0  0  2  0  0  0  0  0  0
  -30.7840  -21.2980   24.4940 C   0  0  0  0  0  1  0  0  0  0  0  0
  -30.9340  -21.9040   23.0960 C   0  0  0  0  0  2  0  0  0  0  0  0
  1 99  1  0
  2  3  2  0
  3  6  1  0
  3  1  1  0
  4  5  1  0
  4  6  1  0
  6  9  1  0
  7  2  1  0
  7  4  1  0
  8  7  1  0
 10  9  1  0
 10 11  1  0
 12 21  1  0
 13 18  1  0
 14 15  1  0
 14 13  1  0
 16 15  1  0
 16 25  1  0
 16 17  1  0
 18 12  1  0
 18 17  1  0
 19 12  2  0
 21 11  1  0
 21 20  1  0
 22 23  2  0
 23 42  1  0
 24 23  1  0
 24 27  1  0
 25 26  1  0
 25 22  1  0
 26 24  2  0
 27 28  1  0
 28 29  2  0
 30 33  1  0
 30 29  1  0
 31 30  2  0
 32 31  1  0
 32 27  2  0
 33 34  1  0
 34 35  1  0
 35 36  2  0
 37 36  1  0
 37 41  1  0
 38 37  2  0
 39 34  2  0
 39 38  1  0
 40 39  1  0
 42 43  1  0
 43 46  1  0
 43 45  1  0
 44 42  2  0
 47 22  1  0
 47 48  1  0
 49 47  1  0
 51 50  1  0
 51  1  1  0
 52 54  1  0
 53 55  1  0
 53 52  1  0
 55 57  1  0
 56 51  1  0
 56 54  1  0
 57 58  1  0
 57 56  1  0
 59 70  2  0
 60 58  1  0
 60 65  1  0
 61 69  1  0
 61 71  1  0
 62 68  1  0
 62 64  1  0
 63 69  1  0
 64 65  2  0
 64 63  1  0
 66 60  2  0
 67 66  1  0
 67 62  2  0
 68 61  1  0
 69 59  1  0
 71 73  2  0
 72 71  1  0
 74 72  1  0
 75 84  2  0
 75 80  1  0
 76 72  1  0
 76 80  1  0
 77 76  1  0
 78 79  1  0
 78 77  1  0
 79 75  1  0
 80 81  2  0
 81 82  1  0
 83 82  2  0
 84 83  1  0
 85 59  1  0
 85 86  1  0
 85 95  1  0
 86 89  1  0
 87 91  1  0
 87 86  1  0
 88 87  2  0
 91 90  1  0
 93 91  1  0
 93 94  1  0
 93 92  1  0
 95 98  1  1
 95 96  1  0
 97 95  1  0
 99101  1  0
101100  1  0
M  ISO  4  12 100  21 100  57 101  58 101
M  END
>  <TORSDO>  (10) 
F 24

>  <SCORE>  (10) 
-11.650

>  <name>  (10) 
9

>  <ligand_id>  (10) 
9

>  <original_smiles>  (10) 
[H]c1c([H])c([H])c2c(c1[H])C([H])([H])C([H])([H])C([H])([H])C2([H])N([H])C(=O)C1([H])N(C(=O)C([H])(N([H])C(=O)C([H])(N([H])C([H])([H])[H])C([H])([H])[H])C(C([H])([H])[H])(C([H])([H])[H])C([H])([H])[H])C([H])([H])c2c([H])c(OC3([H])C([H])([H])C([H])([H])C([H])([H])C([H])([H])C3([H])C([H])(N(c3c([H])[n+]([H])c(C([H])([H])[H])n3C([H])([H])C([H])([H])C([H])([H])N(C(=O)N3C([H])([H])C([H])([H])C([H])([H])C([H])(n4nc(-c5c([H])c([H])c(Oc6c([H])c([H])c(F)c([H])c6F)c([H])c5[H])c(C(=O)N([H])[H])c4N([H])[H])C3([H])[H])C([H])([H])[H])C([H])([H])C([H])([H])C([H])([H])[H])C([H])([H])[H])c([H])c([H])c2C1([H])[H]

>  <smiles>  (10) 
[H]c1c([H])c([H])c2c(c1[H])C([H])([H])C([H])([H])C([H])([H])C2([H])N([H])C(=O)C1([H])N(C(=O)C([H])(N([H])C(=O)C([H])(N([H])C([H])([H])[H])C([H])([H])[H])C(C([H])([H])[H])(C([H])([H])[H])C([H])([H])[H])C([H])([H])c2c([H])c(OC3([H])C([H])([H])C([H])([H])C([H])([H])C([H])([H])C3([H])C([H])(N(c3c([H])[n+]([H])c(C([H])([H])[H])n3C([H])([H])C([H])([H])C([H])([H])N(C(=O)N3C([H])([H])C([H])([H])C([H])([H])C([H])(n4nc(-c5c([H])c([H])c(Oc6c([H])c([H])c(F)c([H])c6F)c([H])c5[H])c(C(=O)N([H])[H])c4N([H])[H])C3([H])[H])C([H])([H])[H])C([H])([H])C([H])([H])C([H])([H])[H])C([H])([H])[H])c([H])c([H])c2C1([H])[H]

$$$$
10:0:0
     RDKit          3D

 95104  0  0  1  0  0  0  0  0999 V2000
  -28.8910  -21.5050   22.5690 C   0  0  0  0  0  2  0  0  0  0  0  0
  -28.5980  -22.9920   22.7170 C   0  0  0  0  0  2  0  0  0  0  0  0
  -29.3280  -22.7060   20.4730 C   0  0  0  0  0  2  0  0  0  0  0  0
  -29.6580  -21.4230   21.2560 C   0  0  0  0  0  3  0  0  0  0  0  0
  -28.4390  -23.5210   21.3400 N   0  0  2  0  0  4  0  0  0  0  0  0
  -27.5040  -23.2550   21.0630 H   0  0  0  0  0  0  0  0  0  0  0  0
  -29.8870  -18.0430   19.7840 C   0  0  0  0  0  0  0  0  0  0  0  0
  -28.6950  -18.2490   19.1300 C   0  0  0  0  0  0  0  0  0  0  0  0
  -29.4350  -20.1490   20.5110 C   0  0  0  0  0  0  0  0  0  0  0  0
  -28.0090  -17.3670   18.1410 C   0  0  0  0  0  1  0  0  0  0  0  0
  -30.2780  -19.1200   20.5780 N   0  0  0  0  0  0  0  0  0  0  0  0
  -28.0060  -19.7960   19.5450 S   0  0  0  0  0  0  0  0  0  0  0  0
  -30.8310  -16.8890   19.6600 C   0  0  0  0  0  2  0  0  0  0  0  0
  -31.2860  -14.6180   20.2320 C   0  0  0  0  0  0  0  0  0  0  0  0
  -30.9070  -12.4630   19.1210 C   0  0  0  0  0  2  0  0  0  0  0  0
  -29.9190  -12.6630   17.9540 C   0  0  0  0  0  2  0  0  0  0  0  0
  -28.4550  -12.5630   18.4270 C   0  0  0  0  0  2  0  0  0  0  0  0
  -28.1740  -13.4000   19.7060 C   0  0  0  0  0  3  0  0  0  0  0  0
  -29.2700  -13.1640   20.7650 C   0  0  0  0  0  2  0  0  0  0  0  0
  -30.5740  -13.4610   20.1480 N   0  0  0  0  0  0  0  0  0  0  0  0
  -32.4050  -14.7370   19.7190 O   0  0  0  0  0  0  0  0  0  0  0  0
  -30.1490  -15.9960   21.9100 C   0  0  0  0  0  1  0  0  0  0  0  0
  -30.5760  -15.7260   20.5290 N   0  0  0  0  0  0  0  0  0  0  0  0
  -25.8270  -14.0310   20.5690 C   0  0  0  0  0  0  0  0  0  0  0  0
  -24.7540  -13.2700   20.9380 C   0  0  0  0  0  0  0  0  0  0  0  0
  -25.1780  -11.9130   20.8180 C   0  0  0  0  0  0  0  0  0  0  0  0
  -26.8380  -13.1400   20.2370 N   0  0  0  0  0  0  0  0  0  0  0  0
  -26.4510  -11.8560   20.4470 N   0  0  0  0  0  0  0  0  0  0  0  0
  -24.4270  -10.6640   20.9830 C   0  0  0  0  0  0  0  0  0  0  0  0
  -24.8360   -9.6810   21.9100 C   0  0  0  0  0  3  0  0  0  0  0  0
  -24.0840   -8.4980   22.0690 C   0  0  0  0  0  3  0  0  0  0  0  0
  -22.9120   -8.2930   21.3010 C   0  0  0  0  0  0  0  0  0  0  0  0
  -22.5250   -9.2670   20.3640 C   0  0  0  0  0  3  0  0  0  0  0  0
  -23.2760  -10.4420   20.2040 C   0  0  0  0  0  3  0  0  0  0  0  0
  -22.1340   -7.1630   21.3700 O   0  0  0  0  0  0  0  0  0  0  0  0
  -21.9620   -6.4790   22.5470 C   0  0  0  0  0  0  0  0  0  0  0  0
  -21.4090   -7.0910   23.6930 C   0  0  0  0  0  3  0  0  0  0  0  0
  -21.1860   -6.3300   24.8580 C   0  0  0  0  0  3  0  0  0  0  0  0
  -21.5050   -4.9580   24.8760 C   0  0  0  0  0  0  0  0  0  0  0  0
  -22.0490   -4.3470   23.7320 C   0  0  0  0  0  3  0  0  0  0  0  0
  -22.2740   -5.1050   22.5710 C   0  0  0  0  0  0  0  0  0  0  0  0
  -22.7800   -4.5070   21.4640 F   0  0  0  0  0  0  0  0  0  0  0  0
  -21.2820   -4.2230   25.9900 F   0  0  0  0  0  0  0  0  0  0  0  0
  -23.3860  -13.7750   21.2970 C   0  0  0  0  0  0  0  0  0  0  0  0
  -22.6930  -13.0780   22.1910 N   0  0  0  0  0  0  0  0  0  0  0  0
  -22.9440  -14.8200   20.8210 O   0  0  0  0  0  0  0  0  0  0  0  0
  -23.0640  -12.2380   22.6070 H   0  0  0  0  0  0  0  0  0  0  0  0
  -21.7750  -13.3950   22.4700 H   0  0  0  0  0  0  0  0  0  0  0  0
  -26.0020  -15.4020   20.4830 N   0  0  0  0  0  0  0  0  0  0  0  0
  -25.2380  -16.0470   20.6530 H   0  0  0  0  0  0  0  0  0  0  0  0
  -26.8700  -15.8610   20.2460 H   0  0  0  0  0  0  0  0  0  0  0  0
  -27.4060  -25.6770   22.0470 C   0  0  0  0  0  1  0  0  0  0  0  0
  -28.5380  -25.0130   21.2230 C   0  0  0  0  0  3  0  0  0  0  0  0
  -28.5800  -25.5170   19.7430 C   0  0  0  0  0  2  0  0  0  0  0  0
  -28.5860  -26.9470   19.6320 O   0  0  0  0  0  0  0  0  0  0  0  0
  -24.5910  -31.7170   23.0190 C   0  0  0  0  0  0  0  0  0  0  0  0
  -27.3790  -27.6070   19.6380 C   0  0  0  0  0  0  0  0  0  0  0  0
  -23.4270  -30.3820   21.2890 C   0  0  0  0  0  3  0  0  0  0  0  0
  -24.9260  -29.0030   19.7660 C   0  0  0  0  0  0  0  0  0  0  0  0
  -25.9350  -30.8510   21.1140 C   0  0  0  0  0  2  0  0  0  0  0  0
  -26.0650  -29.5320   20.3820 C   0  0  0  0  0  0  0  0  0  0  0  0
  -27.2920  -28.8420   20.3200 C   0  0  0  0  0  3  0  0  0  0  0  0
  -26.2230  -27.0970   19.0020 C   0  0  0  0  0  3  0  0  0  0  0  0
  -24.9990  -27.7830   19.0760 C   0  0  0  0  0  3  0  0  0  0  0  0
  -23.6490  -29.8000   19.8690 C   0  0  0  0  0  2  0  0  0  0  0  0
  -24.6680  -30.9950   21.8660 N   0  0  0  0  0  0  0  0  0  0  0  0
  -23.5030  -31.9150   23.5760 O   0  0  0  0  0  0  0  0  0  0  0  0
  -22.8200  -29.2760   22.1800 C   0  0  0  0  0  0  0  0  0  0  0  0
  -21.4940  -29.0990   22.0890 N   0  0  0  0  0  0  0  0  0  0  0  0
  -23.5380  -28.5850   22.9100 O   0  0  0  0  0  0  0  0  0  0  0  0
  -20.9740  -29.7150   21.4800 H   0  0  0  0  0  0  0  0  0  0  0  0
  -18.1330  -27.9050   22.6670 C   0  0  0  0  0  0  0  0  0  0  0  0
  -20.7080  -28.0920   22.8010 C   0  0  0  0  0  3  0  0  0  0  0  0
  -20.7430  -26.7310   22.0690 C   0  0  0  0  0  2  0  0  0  0  0  0
  -19.5720  -26.5370   21.0990 C   0  0  0  0  0  2  0  0  0  0  0  0
  -18.2370  -26.6340   21.8410 C   0  0  0  0  0  2  0  0  0  0  0  0
  -19.2940  -28.5980   23.1050 C   0  0  0  0  0  0  0  0  0  0  0  0
  -19.1420  -29.7940   23.8380 C   0  0  0  0  0  3  0  0  0  0  0  0
  -17.8610  -30.2950   24.1420 C   0  0  0  0  0  3  0  0  0  0  0  0
  -16.7170  -29.5940   23.7230 C   0  0  0  0  0  3  0  0  0  0  0  0
  -16.8540  -28.4020   22.9900 C   0  0  0  0  0  3  0  0  0  0  0  0
  -25.8590  -32.3480   23.6770 C   0  0  0  0  0  3  0  0  0  0  0  0
  -26.3900  -31.5350   24.9220 C   0  0  1  0  0  0  0  0  0  0  0  0
  -25.2920  -31.1960   25.9550 C   0  0  0  0  0  1  0  0  0  0  0  0
  -27.0420  -30.2060   24.4690 C   0  0  0  0  0  1  0  0  0  0  0  0
  -27.4930  -32.3440   25.6480 C   0  0  0  0  0  1  0  0  0  0  0  0
  -25.5200  -33.7230   24.0620 N   0  0  0  0  0  0  0  0  0  0  0  0
  -25.8220  -34.8110   23.3420 C   0  0  0  0  0  0  0  0  0  0  0  0
  -26.4940  -34.7670   22.3080 O   0  0  0  0  0  0  0  0  0  0  0  0
  -24.9340  -33.8360   24.8770 H   0  0  0  0  0  0  0  0  0  0  0  0
  -24.0500  -36.5700   23.0550 C   0  0  0  0  0  1  0  0  0  0  0  0
  -25.2970  -36.1660   23.8560 C   0  0  0  0  0  3  0  0  0  0  0  0
  -27.3940  -37.0740   24.7460 C   0  0  0  0  0  1  0  0  0  0  0  0
  -26.3000  -37.2500   23.7950 N   0  0  0  0  0  0  0  0  0  0  0  0
  -25.8660  -38.1500   23.9790 H   0  0  0  0  0  0  0  0  0  0  0  0
  1  2  1  0
  3  4  1  0
  3  5  1  0
  4  9  1  0
  4  1  1  0
  5  2  1  0
  5  6  1  6
  7 11  1  0
  8 12  1  0
  8  7  2  0
  9 11  2  0
 10  8  1  0
 12  9  1  0
 13  7  1  0
 13 23  1  0
 14 23  1  0
 15 20  1  0
 16 17  1  0
 16 15  1  0
 18 17  1  0
 18 27  1  0
 18 19  1  0
 20 14  1  0
 20 19  1  0
 21 14  2  0
 23 22  1  0
 24 25  2  0
 25 44  1  0
 26 25  1  0
 26 29  1  0
 27 28  1  0
 27 24  1  0
 28 26  2  0
 29 30  1  0
 30 31  2  0
 32 35  1  0
 32 31  1  0
 33 32  2  0
 34 33  1  0
 34 29  2  0
 35 36  1  0
 36 41  2  0
 36 37  1  0
 37 38  2  0
 38 39  1  0
 39 43  1  0
 40 39  2  0
 41 40  1  0
 42 41  1  0
 44 45  1  0
 45 48  1  0
 45 47  1  0
 46 44  2  0
 49 24  1  0
 49 50  1  0
 51 49  1  0
 53  5  1  0
 53 52  1  0
 54 53  1  0
 55 57  1  0
 55 54  1  0
 56 67  2  0
 57 62  1  0
 58 66  1  0
 58 68  1  0
 59 65  1  0
 59 61  1  0
 60 66  1  0
 61 60  1  0
 62 61  2  0
 63 64  1  0
 63 57  2  0
 64 59  2  0
 65 58  1  0
 66 56  1  0
 68 70  2  0
 69 68  1  0
 71 69  1  0
 72 81  2  0
 72 77  1  0
 73 69  1  0
 73 77  1  0
 74 73  1  0
 75 76  1  0
 75 74  1  0
 76 72  1  0
 77 78  2  0
 78 79  1  0
 80 79  2  0
 81 80  1  0
 82 56  1  0
 82 87  1  0
 82 83  1  0
 83 86  1  1
 83 84  1  0
 85 83  1  0
 87 90  1  0
 88 92  1  0
 88 87  1  0
 89 88  2  0
 92 91  1  0
 94 92  1  0
 94 95  1  0
 94 93  1  0
M  ISO  4  14 100  23 100  54 101  55 101
M  END
>  <TORSDO>  (11) 
F 20

>  <SCORE>  (11) 
-12.301

>  <name>  (11) 
10

>  <ligand_id>  (11) 
10

>  <original_smiles>  (11) 
[H]c1c([H])c([H])c2c(c1[H])C([H])([H])C([H])([H])C([H])([H])C2([H])N([H])C(=O)C1([H])N(C(=O)C([H])(N([H])C(=O)C([H])(N([H])C([H])([H])[H])C([H])([H])[H])C(C([H])([H])[H])(C([H])([H])[H])C([H])([H])[H])C([H])([H])c2c([H])c(OC([H])([H])C([H])(C([H])([H])[H])[N+]3([H])C([H])([H])C([H])([H])C([H])(c4nc(C([H])([H])N(C(=O)N5C([H])([H])C([H])([H])C([H])([H])C([H])(n6nc(-c7c([H])c([H])c(Oc8c([H])c([H])c(F)c([H])c8F)c([H])c7[H])c(C(=O)N([H])[H])c6N([H])[H])C5([H])[H])C([H])([H])[H])c(C([H])([H])[H])s4)C3([H])[H])c([H])c([H])c2C1([H])[H]

>  <smiles>  (11) 
[H]c1c([H])c([H])c2c(c1[H])C([H])([H])C([H])([H])C([H])([H])C2([H])N([H])C(=O)C1([H])N(C(=O)C([H])(N([H])C(=O)C([H])(N([H])C([H])([H])[H])C([H])([H])[H])C(C([H])([H])[H])(C([H])([H])[H])C([H])([H])[H])C([H])([H])c2c([H])c(OC([H])([H])C([H])(C([H])([H])[H])[N+]3([H])C([H])([H])C([H])([H])C([H])(c4nc(C([H])([H])N(C(=O)N5C([H])([H])C([H])([H])C([H])([H])C([H])(n6nc(-c7c([H])c([H])c(Oc8c([H])c([H])c(F)c([H])c8F)c([H])c7[H])c(C(=O)N([H])[H])c6N([H])[H])C5([H])[H])C([H])([H])[H])c(C([H])([H])[H])s4)C3([H])[H])c([H])c([H])c2C1([H])[H]

$$$$
11:0:0
     RDKit          3D

 92100  0  0  1  0  0  0  0  0999 V2000
  -27.6140  -19.5770   18.8100 C   0  0  0  0  0  3  0  0  0  0  0  0
  -29.0550  -20.2200   20.6440 C   0  0  0  0  0  3  0  0  0  0  0  0
  -28.0520  -20.5640   19.7160 C   0  0  0  0  0  0  0  0  0  0  0  0
  -29.3130  -17.9980   19.6200 C   0  0  0  0  0  0  0  0  0  0  0  0
  -28.2250  -18.3060   18.7590 C   0  0  0  0  0  0  0  0  0  0  0  0
  -29.6870  -18.9550   20.6000 C   0  0  0  0  0  0  0  0  0  0  0  0
  -27.6280  -17.1860   17.5760 Cl  0  0  0  0  0  0  0  0  0  0  0  0
  -30.9540  -18.6420   21.7380 Cl  0  0  0  0  0  0  0  0  0  0  0  0
  -27.4460  -21.9660   19.6370 C   0  0  0  0  0  2  0  0  0  0  0  0
  -28.2350  -23.0900   20.3570 C   0  0  0  0  0  2  0  0  0  0  0  0
  -27.8090  -24.5040   19.9070 C   0  0  0  0  0  2  0  0  0  0  0  0
  -28.5180  -25.6560   20.6720 C   0  0  0  0  0  2  0  0  0  0  0  0
  -28.5460  -26.9540   20.0480 O   0  0  0  0  0  0  0  0  0  0  0  0
  -24.6710  -31.9700   23.3390 C   0  0  0  0  0  0  0  0  0  0  0  0
  -27.3810  -27.6880   20.0930 C   0  0  0  0  0  0  0  0  0  0  0  0
  -23.5000  -30.6240   21.6300 C   0  0  0  0  0  3  0  0  0  0  0  0
  -24.9850  -29.1790   20.1510 C   0  0  0  0  0  0  0  0  0  0  0  0
  -26.0270  -31.0200   21.4770 C   0  0  0  0  0  2  0  0  0  0  0  0
  -26.1360  -29.6810   20.7760 C   0  0  0  0  0  0  0  0  0  0  0  0
  -27.3430  -28.9420   20.7470 C   0  0  0  0  0  3  0  0  0  0  0  0
  -26.2280  -27.2300   19.4270 C   0  0  0  0  0  3  0  0  0  0  0  0
  -25.0280  -27.9550   19.4690 C   0  0  0  0  0  3  0  0  0  0  0  0
  -23.7310  -30.0180   20.2230 C   0  0  0  0  0  2  0  0  0  0  0  0
  -24.7500  -31.2170   22.2070 N   0  0  0  0  0  0  0  0  0  0  0  0
  -23.5800  -32.2060   23.8770 O   0  0  0  0  0  0  0  0  0  0  0  0
  -22.8600  -29.5470   22.5380 C   0  0  0  0  0  0  0  0  0  0  0  0
  -21.5390  -29.3560   22.3960 N   0  0  0  0  0  0  0  0  0  0  0  0
  -23.5480  -28.8880   23.3240 O   0  0  0  0  0  0  0  0  0  0  0  0
  -21.0460  -29.9370   21.7320 H   0  0  0  0  0  0  0  0  0  0  0  0
  -18.1690  -28.1270   22.8370 C   0  0  0  0  0  0  0  0  0  0  0  0
  -20.7270  -28.3780   23.1190 C   0  0  0  0  0  3  0  0  0  0  0  0
  -20.8340  -26.9780   22.4710 C   0  0  0  0  0  2  0  0  0  0  0  0
  -19.7320  -26.7040   21.4440 C   0  0  0  0  0  2  0  0  0  0  0  0
  -18.3510  -26.8130   22.0960 C   0  0  0  0  0  2  0  0  0  0  0  0
  -19.2860  -28.8700   23.3030 C   0  0  0  0  0  0  0  0  0  0  0  0
  -19.0640  -30.1030   23.9540 C   0  0  0  0  0  3  0  0  0  0  0  0
  -17.7590  -30.5920   24.1450 C   0  0  0  0  0  3  0  0  0  0  0  0
  -16.6560  -29.8450   23.6970 C   0  0  0  0  0  3  0  0  0  0  0  0
  -16.8620  -28.6140   23.0480 C   0  0  0  0  0  3  0  0  0  0  0  0
  -25.9420  -32.5960   23.9950 C   0  0  0  0  0  3  0  0  0  0  0  0
  -25.6230  -33.9890   24.3350 N   0  0  0  0  0  0  0  0  0  0  0  0
  -25.9770  -35.0500   23.5980 C   0  0  0  0  0  0  0  0  0  0  0  0
  -26.6750  -34.9590   22.5830 O   0  0  0  0  0  0  0  0  0  0  0  0
  -25.0060  -34.1340   25.1210 H   0  0  0  0  0  0  0  0  0  0  0  0
  -24.2600  -36.8460   23.2080 C   0  0  0  0  0  1  0  0  0  0  0  0
  -25.4730  -36.4310   24.0550 C   0  0  0  0  0  3  0  0  0  0  0  0
  -27.5760  -37.3060   24.9750 C   0  0  0  0  0  1  0  0  0  0  0  0
  -26.5110  -37.4850   23.9920 N   0  0  0  0  0  0  0  0  0  0  0  0
  -26.1000  -38.4040   24.1340 H   0  0  0  0  0  0  0  0  0  0  0  0
  -26.4330  -31.8070   25.2690 C   0  0  1  0  0  0  0  0  0  0  0  0
  -25.3180  -31.5460   26.3090 C   0  0  0  0  0  1  0  0  0  0  0  0
  -27.0310  -30.4380   24.8690 C   0  0  0  0  0  1  0  0  0  0  0  0
  -27.5660  -32.5940   25.9700 C   0  0  0  0  0  1  0  0  0  0  0  0
  -30.1570  -16.7360   19.3650 C   0  0  0  0  0  2  0  0  0  0  0  0
  -31.0610  -14.6620   20.2140 C   0  0  0  0  0  0  0  0  0  0  0  0
  -30.6920  -12.5550   19.0000 C   0  0  0  0  0  2  0  0  0  0  0  0
  -29.7330  -12.8540   17.8300 C   0  0  0  0  0  2  0  0  0  0  0  0
  -28.2650  -12.7560   18.2940 C   0  0  0  0  0  2  0  0  0  0  0  0
  -27.9870  -13.5600   19.5960 C   0  0  0  0  0  3  0  0  0  0  0  0
  -29.0510  -13.2430   20.6690 C   0  0  0  0  0  2  0  0  0  0  0  0
  -30.3690  -13.5060   20.0750 N   0  0  0  0  0  0  0  0  0  0  0  0
  -32.2230  -14.8070   19.8150 O   0  0  0  0  0  0  0  0  0  0  0  0
  -30.2840  -15.7350   20.4380 N   0  0  0  0  0  0  0  0  0  0  0  0
  -30.3790  -16.1270   21.3630 H   0  0  0  0  0  0  0  0  0  0  0  0
  -25.6110  -14.2300   20.3460 C   0  0  0  0  0  0  0  0  0  0  0  0
  -24.5280  -13.4820   20.7310 C   0  0  0  0  0  0  0  0  0  0  0  0
  -24.9500  -12.1210   20.6750 C   0  0  0  0  0  0  0  0  0  0  0  0
  -26.6340  -13.3250   20.1000 N   0  0  0  0  0  0  0  0  0  0  0  0
  -26.2350  -12.0510   20.3480 N   0  0  0  0  0  0  0  0  0  0  0  0
  -24.1950  -10.8740   20.8620 C   0  0  0  0  0  0  0  0  0  0  0  0
  -24.5810   -9.9180   21.8260 C   0  0  0  0  0  3  0  0  0  0  0  0
  -23.8290   -8.7350   22.0040 C   0  0  0  0  0  3  0  0  0  0  0  0
  -22.6690   -8.5070   21.2290 C   0  0  0  0  0  0  0  0  0  0  0  0
  -22.3010   -9.4530   20.2540 C   0  0  0  0  0  3  0  0  0  0  0  0
  -23.0580  -10.6210   20.0690 C   0  0  0  0  0  3  0  0  0  0  0  0
  -21.8990   -7.3710   21.3120 O   0  0  0  0  0  0  0  0  0  0  0  0
  -21.7600   -6.6770   22.4900 C   0  0  0  0  0  0  0  0  0  0  0  0
  -21.2250   -7.2790   23.6490 C   0  0  0  0  0  3  0  0  0  0  0  0
  -21.0380   -6.5180   24.8190 C   0  0  0  0  0  3  0  0  0  0  0  0
  -21.3770   -5.1500   24.8310 C   0  0  0  0  0  0  0  0  0  0  0  0
  -21.9020   -4.5460   23.6740 C   0  0  0  0  0  3  0  0  0  0  0  0
  -22.0930   -5.3070   22.5060 C   0  0  0  0  0  0  0  0  0  0  0  0
  -22.5790   -4.7150   21.3900 F   0  0  0  0  0  0  0  0  0  0  0  0
  -21.1920   -4.4110   25.9480 F   0  0  0  0  0  0  0  0  0  0  0  0
  -23.1400  -13.9830   21.0140 C   0  0  0  0  0  0  0  0  0  0  0  0
  -22.4180  -13.3120   21.9010 N   0  0  0  0  0  0  0  0  0  0  0  0
  -22.7040  -14.9980   20.4700 O   0  0  0  0  0  0  0  0  0  0  0  0
  -22.8180  -12.5220   22.3930 H   0  0  0  0  0  0  0  0  0  0  0  0
  -21.4760  -13.6080   22.1260 H   0  0  0  0  0  0  0  0  0  0  0  0
  -25.8030  -15.5940   20.1560 N   0  0  0  0  0  0  0  0  0  0  0  0
  -25.0530  -16.2710   20.2570 H   0  0  0  0  0  0  0  0  0  0  0  0
  -26.6410  -16.0040   19.7580 H   0  0  0  0  0  0  0  0  0  0  0  0
  1  3  1  0
  3  2  2  0
  4  6  2  0
  5  1  2  0
  5  4  1  0
  6  2  1  0
  6  8  1  0
  7  5  1  0
  9  3  1  0
  9 10  1  0
 11 10  1  0
 11 12  1  0
 13 15  1  0
 13 12  1  0
 14 25  2  0
 15 20  1  0
 16 24  1  0
 16 26  1  0
 17 23  1  0
 17 19  1  0
 18 24  1  0
 19 18  1  0
 20 19  2  0
 21 22  1  0
 21 15  2  0
 22 17  2  0
 23 16  1  0
 24 14  1  0
 26 28  2  0
 27 26  1  0
 29 27  1  0
 30 39  2  0
 30 35  1  0
 31 27  1  0
 31 35  1  0
 32 31  1  0
 33 34  1  0
 33 32  1  0
 34 30  1  0
 35 36  2  0
 36 37  1  0
 38 37  2  0
 39 38  1  0
 40 14  1  0
 40 41  1  0
 40 50  1  0
 41 44  1  0
 42 46  1  0
 42 41  1  0
 43 42  2  0
 46 45  1  0
 48 46  1  0
 48 49  1  0
 48 47  1  0
 50 53  1  1
 50 51  1  0
 52 50  1  0
 54  4  1  0
 54 63  1  0
 55 63  1  0
 56 61  1  0
 57 58  1  0
 57 56  1  0
 59 58  1  0
 59 68  1  0
 59 60  1  0
 61 55  1  0
 61 60  1  0
 62 55  2  0
 63 64  1  0
 65 66  2  0
 66 85  1  0
 67 66  1  0
 67 70  1  0
 68 65  1  0
 68 69  1  0
 69 67  2  0
 70 71  1  0
 71 72  2  0
 73 76  1  0
 73 72  1  0
 74 73  2  0
 75 74  1  0
 75 70  2  0
 76 77  1  0
 77 82  2  0
 77 78  1  0
 78 79  2  0
 79 80  1  0
 80 84  1  0
 81 80  2  0
 82 81  1  0
 83 82  1  0
 85 86  1  0
 86 89  1  0
 86 88  1  0
 87 85  2  0
 90 91  1  0
 90 65  1  0
 92 90  1  0
M  ISO  4  12 101  13 101  55 100  63 100
M  END
>  <TORSDO>  (12) 
F 21

>  <SCORE>  (12) 
-12.274

>  <name>  (12) 
11

>  <ligand_id>  (12) 
11

>  <original_smiles>  (12) 
[H]c1c([H])c([H])c2c(c1[H])C([H])([H])C([H])([H])C([H])([H])C2([H])N([H])C(=O)C1([H])N(C(=O)C([H])(N([H])C(=O)C([H])(N([H])C([H])([H])[H])C([H])([H])[H])C(C([H])([H])[H])(C([H])([H])[H])C([H])([H])[H])C([H])([H])c2c([H])c(OC([H])([H])C([H])([H])C([H])([H])C([H])([H])c3c([H])c(Cl)c(C([H])([H])N([H])C(=O)N4C([H])([H])C([H])([H])C([H])([H])C([H])(n5nc(-c6c([H])c([H])c(Oc7c([H])c([H])c(F)c([H])c7F)c([H])c6[H])c(C(=O)N([H])[H])c5N([H])[H])C4([H])[H])c(Cl)c3[H])c([H])c([H])c2C1([H])[H]

>  <smiles>  (12) 
[H]c1c([H])c([H])c2c(c1[H])C([H])([H])C([H])([H])C([H])([H])C2([H])N([H])C(=O)C1([H])N(C(=O)C([H])(N([H])C(=O)C([H])(N([H])C([H])([H])[H])C([H])([H])[H])C(C([H])([H])[H])(C([H])([H])[H])C([H])([H])[H])C([H])([H])c2c([H])c(OC([H])([H])C([H])([H])C([H])([H])C([H])([H])c3c([H])c(Cl)c(C([H])([H])N([H])C(=O)N4C([H])([H])C([H])([H])C([H])([H])C([H])(n5nc(-c6c([H])c([H])c(Oc7c([H])c([H])c(F)c([H])c7F)c([H])c6[H])c(C(=O)N([H])[H])c5N([H])[H])C4([H])[H])c(Cl)c3[H])c([H])c([H])c2C1([H])[H]

$$$$
12:0:0
     RDKit          3D

104113  0  0  1  0  0  0  0  0999 V2000
  -30.4450  -22.0930   20.6390 C   0  0  0  0  0  2  0  0  0  0  0  0
  -27.9540  -22.5770   20.8910 C   0  0  0  0  0  2  0  0  0  0  0  0
  -30.1480  -20.6600   20.1320 C   0  0  0  0  0  2  0  0  0  0  0  0
  -27.9320  -21.0580   21.1880 C   0  0  0  0  0  2  0  0  0  0  0  0
  -29.2990  -23.0760   20.3060 C   0  0  0  0  0  3  0  0  0  0  0  0
  -28.7010  -20.2870   20.1820 N   0  0  2  0  0  4  0  0  0  0  0  0
  -28.3090  -20.5520   19.2850 H   0  0  0  0  0  0  0  0  0  0  0  0
  -29.5810  -24.4980   20.6850 N   0  0  1  0  0  4  0  0  0  0  0  0
  -28.6740  -24.9210   20.8450 H   0  0  0  0  0  0  0  0  0  0  0  0
  -30.0850  -26.0580   22.6020 C   0  0  0  0  0  1  0  0  0  0  0  0
  -30.3030  -24.6720   21.9740 C   0  0  0  0  0  2  0  0  0  0  0  0
  -30.1260  -25.3200   19.5670 C   0  0  0  0  0  2  0  0  0  0  0  0
  -29.0280  -26.2380   19.0170 C   0  0  0  0  0  2  0  0  0  0  0  0
  -28.6350  -27.0660   20.1120 O   0  0  0  0  0  0  0  0  0  0  0  0
  -24.5740  -31.8970   23.3360 C   0  0  0  0  0  0  0  0  0  0  0  0
  -27.4150  -27.7000   20.0930 C   0  0  0  0  0  0  0  0  0  0  0  0
  -23.4370  -30.5350   21.6100 C   0  0  0  0  0  3  0  0  0  0  0  0
  -24.9610  -29.1030   20.1510 C   0  0  0  0  0  0  0  0  0  0  0  0
  -25.9530  -30.9760   21.4800 C   0  0  0  0  0  2  0  0  0  0  0  0
  -26.0890  -29.6390   20.7830 C   0  0  0  0  0  0  0  0  0  0  0  0
  -27.3100  -28.9380   20.7630 C   0  0  0  0  0  3  0  0  0  0  0  0
  -26.2630  -27.1620   19.4710 C   0  0  0  0  0  3  0  0  0  0  0  0
  -25.0420  -27.8600   19.5010 C   0  0  0  0  0  3  0  0  0  0  0  0
  -23.6900  -29.9170   20.2080 C   0  0  0  0  0  2  0  0  0  0  0  0
  -24.6720  -31.1490   22.2010 N   0  0  0  0  0  0  0  0  0  0  0  0
  -23.4760  -32.1150   23.8670 O   0  0  0  0  0  0  0  0  0  0  0  0
  -22.8000  -29.4550   22.5130 C   0  0  0  0  0  0  0  0  0  0  0  0
  -21.4810  -29.2540   22.3630 N   0  0  0  0  0  0  0  0  0  0  0  0
  -23.4910  -28.8010   23.3000 O   0  0  0  0  0  0  0  0  0  0  0  0
  -20.9880  -29.8380   21.7010 H   0  0  0  0  0  0  0  0  0  0  0  0
  -18.1190  -28.0080   22.7910 C   0  0  0  0  0  0  0  0  0  0  0  0
  -20.6730  -28.2670   23.0760 C   0  0  0  0  0  3  0  0  0  0  0  0
  -20.7860  -26.8740   22.4120 C   0  0  0  0  0  2  0  0  0  0  0  0
  -19.6860  -26.6060   21.3810 C   0  0  0  0  0  2  0  0  0  0  0  0
  -18.3050  -26.7030   22.0340 C   0  0  0  0  0  2  0  0  0  0  0  0
  -19.2320  -28.7510   23.2640 C   0  0  0  0  0  0  0  0  0  0  0  0
  -19.0060  -29.9760   23.9290 C   0  0  0  0  0  3  0  0  0  0  0  0
  -17.6980  -30.4560   24.1260 C   0  0  0  0  0  3  0  0  0  0  0  0
  -16.5990  -29.7110   23.6680 C   0  0  0  0  0  3  0  0  0  0  0  0
  -16.8110  -28.4870   23.0080 C   0  0  0  0  0  3  0  0  0  0  0  0
  -25.8310  -32.5330   24.0090 C   0  0  0  0  0  3  0  0  0  0  0  0
  -25.5130  -33.9380   24.2960 N   0  0  0  0  0  0  0  0  0  0  0  0
  -25.9130  -34.9760   23.5460 C   0  0  0  0  0  0  0  0  0  0  0  0
  -26.6560  -34.8490   22.5690 O   0  0  0  0  0  0  0  0  0  0  0  0
  -24.8690  -34.1130   25.0530 H   0  0  0  0  0  0  0  0  0  0  0  0
  -24.2370  -36.7770   23.0320 C   0  0  0  0  0  1  0  0  0  0  0  0
  -25.4070  -36.3760   23.9450 C   0  0  0  0  0  3  0  0  0  0  0  0
  -27.4840  -37.2460   24.9220 C   0  0  0  0  0  1  0  0  0  0  0  0
  -26.4570  -37.4170   23.8970 N   0  0  0  0  0  0  0  0  0  0  0  0
  -26.0510  -38.3410   24.0070 H   0  0  0  0  0  0  0  0  0  0  0  0
  -26.2820  -31.7840   25.3220 C   0  0  1  0  0  0  0  0  0  0  0  0
  -25.1290  -31.5330   26.3230 C   0  0  0  0  0  1  0  0  0  0  0  0
  -26.9140  -30.4140   24.9770 C   0  0  0  0  0  1  0  0  0  0  0  0
  -27.3760  -32.6040   26.0450 C   0  0  0  0  0  1  0  0  0  0  0  0
  -28.4430  -18.8180   20.2140 C   0  0  0  0  0  2  0  0  0  0  0  0
  -30.0820  -16.9660   19.5890 C   0  0  0  0  0  3  0  0  0  0  0  0
  -30.4190  -18.0630   17.0240 C   0  0  0  0  0  3  0  0  0  0  0  0
  -29.3210  -18.0910   19.2020 C   0  0  0  0  0  0  0  0  0  0  0  0
  -31.3040  -17.0580   17.4620 C   0  0  0  0  0  0  0  0  0  0  0  0
  -31.0490  -16.4290   18.7120 C   0  0  0  0  0  0  0  0  0  0  0  0
  -29.4470  -18.5930   17.8860 C   0  0  0  0  0  0  0  0  0  0  0  0
  -28.5090  -19.9430   17.3450 Cl  0  0  0  0  0  0  0  0  0  0  0  0
  -32.1150  -14.6530   20.1480 C   0  0  0  0  0  0  0  0  0  0  0  0
  -31.6640  -12.3320   19.5850 C   0  0  0  0  0  2  0  0  0  0  0  0
  -30.8270  -12.3570   18.2840 C   0  0  0  0  0  2  0  0  0  0  0  0
  -29.3240  -12.5170   18.5980 C   0  0  0  0  0  2  0  0  0  0  0  0
  -29.0040  -13.6210   19.6430 C   0  0  0  0  0  3  0  0  0  0  0  0
  -29.9750  -13.5620   20.8470 C   0  0  0  0  0  2  0  0  0  0  0  0
  -31.3530  -13.5510   20.3350 N   0  0  0  0  0  0  0  0  0  0  0  0
  -33.3240  -14.7010   20.3520 O   0  0  0  0  0  0  0  0  0  0  0  0
  -31.7550  -15.2410   19.0000 N   0  0  0  0  0  0  0  0  0  0  0  0
  -31.8000  -14.6060   18.2210 H   0  0  0  0  0  0  0  0  0  0  0  0
  -26.6850  -14.6150   20.1710 C   0  0  0  0  0  0  0  0  0  0  0  0
  -25.4880  -14.0310   20.4780 C   0  0  0  0  0  0  0  0  0  0  0  0
  -25.7300  -12.6240   20.5080 C   0  0  0  0  0  0  0  0  0  0  0  0
  -27.5980  -13.5800   20.0480 N   0  0  0  0  0  0  0  0  0  0  0  0
  -27.0200  -12.3770   20.3050 N   0  0  0  0  0  0  0  0  0  0  0  0
  -24.8020  -11.4990   20.6670 C   0  0  0  0  0  0  0  0  0  0  0  0
  -25.1050  -10.4190   21.5260 C   0  0  0  0  0  3  0  0  0  0  0  0
  -24.1940   -9.3490   21.6740 C   0  0  0  0  0  3  0  0  0  0  0  0
  -22.9660   -9.3570   20.9730 C   0  0  0  0  0  0  0  0  0  0  0  0
  -22.6790  -10.4260   20.1070 C   0  0  0  0  0  3  0  0  0  0  0  0
  -23.5870  -11.4870   19.9530 C   0  0  0  0  0  3  0  0  0  0  0  0
  -22.0310   -8.3510   21.0390 O   0  0  0  0  0  0  0  0  0  0  0  0
  -21.9250   -7.5430   22.1420 C   0  0  0  0  0  0  0  0  0  0  0  0
  -21.7190   -8.0710   23.4360 C   0  0  0  0  0  3  0  0  0  0  0  0
  -21.5370   -7.1990   24.5290 C   0  0  0  0  0  3  0  0  0  0  0  0
  -21.5590   -5.8050   24.3300 C   0  0  0  0  0  0  0  0  0  0  0  0
  -21.7620   -5.2780   23.0410 C   0  0  0  0  0  3  0  0  0  0  0  0
  -21.9410   -6.1470   21.9500 C   0  0  0  0  0  0  0  0  0  0  0  0
  -22.1110   -5.6350   20.7070 F   0  0  0  0  0  0  0  0  0  0  0  0
  -21.3790   -4.9720   25.3820 F   0  0  0  0  0  0  0  0  0  0  0  0
  -24.1650  -14.7260   20.6290 C   0  0  0  0  0  0  0  0  0  0  0  0
  -23.2950  -14.1970   21.4830 N   0  0  0  0  0  0  0  0  0  0  0  0
  -23.9150  -15.7720   20.0250 O   0  0  0  0  0  0  0  0  0  0  0  0
  -23.5060  -13.3440   21.9850 H   0  0  0  0  0  0  0  0  0  0  0  0
  -22.4070  -14.6490   21.6390 H   0  0  0  0  0  0  0  0  0  0  0  0
  -27.0600  -15.9380   19.9630 N   0  0  0  0  0  0  0  0  0  0  0  0
  -26.3730  -16.6840   19.9500 H   0  0  0  0  0  0  0  0  0  0  0  0
  -27.9790  -16.2330   19.6640 H   0  0  0  0  0  0  0  0  0  0  0  0
  -32.2050  -16.4250   15.1370 C   0  0  0  0  0  1  0  0  0  0  0  0
  -32.5430  -16.7370   16.6000 C   0  0  0  0  0  3  0  0  0  0  0  0
  -33.2970  -19.2470   16.2740 C   0  0  0  0  0  1  0  0  0  0  0  0
  -33.6520  -17.8170   16.7240 C   0  0  0  0  0  2  0  0  0  0  0  0
  2  4  1  0
  3  6  1  0
  3  1  1  0
  5  1  1  0
  5  8  1  0
  5  2  1  0
  6 55  1  0
  6  4  1  0
  6  7  1  6
  8  9  1  1
  8 11  1  0
 11 10  1  0
 12  8  1  0
 13 12  1  0
 13 14  1  0
 15 26  2  0
 16 14  1  0
 16 21  1  0
 17 25  1  0
 17 27  1  0
 18 24  1  0
 18 20  1  0
 19 25  1  0
 20 19  1  0
 21 20  2  0
 22 23  1  0
 22 16  2  0
 23 18  2  0
 24 17  1  0
 25 15  1  0
 27 29  2  0
 28 27  1  0
 30 28  1  0
 31 40  2  0
 31 36  1  0
 32 28  1  0
 32 36  1  0
 33 32  1  0
 34 35  1  0
 34 33  1  0
 35 31  1  0
 36 37  2  0
 37 38  1  0
 39 38  2  0
 40 39  1  0
 41 15  1  0
 41 42  1  0
 41 51  1  0
 42 45  1  0
 43 47  1  0
 43 42  1  0
 44 43  2  0
 47 46  1  0
 49 47  1  0
 49 50  1  0
 49 48  1  0
 51 54  1  1
 51 52  1  0
 53 51  1  0
 57 59  2  0
 57 61  1  0
 58 56  1  0
 58 55  1  0
 59 60  1  0
 60 71  1  0
 60 56  2  0
 61 58  2  0
 62 61  1  0
 63 69  1  0
 63 70  2  0
 64 69  1  0
 65 66  1  0
 65 64  1  0
 67 66  1  0
 67 76  1  0
 67 68  1  0
 69 68  1  0
 71 63  1  0
 72 71  1  0
 73 74  2  0
 74 75  1  0
 74 93  1  0
 75 78  1  0
 76 73  1  0
 76 77  1  0
 77 75  2  0
 78 79  1  0
 79 80  2  0
 81 84  1  0
 81 80  1  0
 82 81  2  0
 83 82  1  0
 83 78  2  0
 84 85  1  0
 85 86  1  0
 86 87  2  0
 88 87  1  0
 88 92  1  0
 89 88  2  0
 90 85  2  0
 90 89  1  0
 91 90  1  0
 93 94  1  0
 94 97  1  0
 94 96  1  0
 95 93  2  0
 98 73  1  0
 99 98  1  0
100 98  1  0
102101  1  0
102104  1  0
102 59  1  0
103104  1  0
M  ISO  4  13 101  14 101  63 100  71 100
M  END
>  <TORSDO>  (13) 
F 24

>  <SCORE>  (13) 
-11.116

>  <name>  (13) 
12

>  <ligand_id>  (13) 
12

>  <original_smiles>  (13) 
[H]c1c([H])c([H])c2c(c1[H])C([H])([H])C([H])([H])C([H])([H])C2([H])N([H])C(=O)C1([H])N(C(=O)C([H])(N([H])C(=O)C([H])(N([H])C([H])([H])[H])C([H])([H])[H])C(C([H])([H])[H])(C([H])([H])[H])C([H])([H])[H])C([H])([H])c2c([H])c(OC([H])([H])C([H])([H])[N+]([H])(C([H])([H])C([H])([H])[H])C3([H])C([H])([H])C([H])([H])[N+]([H])(C([H])([H])c4c([H])c(N([H])C(=O)N5C([H])([H])C([H])([H])C([H])([H])C([H])(n6nc(-c7c([H])c([H])c(Oc8c([H])c([H])c(F)c([H])c8F)c([H])c7[H])c(C(=O)N([H])[H])c6N([H])[H])C5([H])[H])c(C([H])(C([H])([H])[H])C([H])([H])C([H])([H])[H])c([H])c4Cl)C([H])([H])C3([H])[H])c([H])c([H])c2C1([H])[H]

>  <smiles>  (13) 
[H]c1c([H])c([H])c2c(c1[H])C([H])([H])C([H])([H])C([H])([H])C2([H])N([H])C(=O)C1([H])N(C(=O)C([H])(N([H])C(=O)C([H])(N([H])C([H])([H])[H])C([H])([H])[H])C(C([H])([H])[H])(C([H])([H])[H])C([H])([H])[H])C([H])([H])c2c([H])c(OC([H])([H])C([H])([H])[N+]([H])(C([H])([H])C([H])([H])[H])C3([H])C([H])([H])C([H])([H])[N+]([H])(C([H])([H])c4c([H])c(N([H])C(=O)N5C([H])([H])C([H])([H])C([H])([H])C([H])(n6nc(-c7c([H])c([H])c(Oc8c([H])c([H])c(F)c([H])c8F)c([H])c7[H])c(C(=O)N([H])[H])c6N([H])[H])C5([H])[H])c(C([H])(C([H])([H])[H])C([H])([H])C([H])([H])[H])c([H])c4Cl)C([H])([H])C3([H])[H])c([H])c([H])c2C1([H])[H]

$$$$
13:0:0
     RDKit          3D

 93101  0  0  1  0  0  0  0  0999 V2000
  -31.1530  -20.8340   20.0600 C   0  0  0  0  0  3  0  0  0  0  0  0
  -31.7370  -18.4310   20.2700 C   0  0  0  0  0  3  0  0  0  0  0  0
  -32.1030  -19.7980   20.2270 C   0  0  0  0  0  0  0  0  0  0  0  0
  -29.7760  -20.5790   19.9070 C   0  0  0  0  0  0  0  0  0  0  0  0
  -30.4010  -17.9920   20.1230 C   0  0  0  0  0  0  0  0  0  0  0  0
  -29.4410  -19.1140   19.9090 C   0  0  0  0  0  0  0  0  0  0  0  0
  -33.5680  -20.1600   20.3790 C   0  0  0  0  0  1  0  0  0  0  0  0
  -30.8630  -15.2830   20.0680 C   0  0  0  0  0  0  0  0  0  0  0  0
  -30.7200  -12.9150   19.1660 C   0  0  0  0  0  2  0  0  0  0  0  0
  -29.7540  -12.8430   17.9600 C   0  0  0  0  0  2  0  0  0  0  0  0
  -28.3080  -12.6240   18.4380 C   0  0  0  0  0  2  0  0  0  0  0  0
  -27.9240  -13.5640   19.6100 C   0  0  0  0  0  3  0  0  0  0  0  0
  -29.0100  -13.6140   20.7060 C   0  0  0  0  0  2  0  0  0  0  0  0
  -30.2590  -14.0240   20.0520 N   0  0  0  0  0  0  0  0  0  0  0  0
  -32.0600  -15.3140   19.7670 O   0  0  0  0  0  0  0  0  0  0  0  0
  -30.0920  -16.4800   20.2050 N   0  0  0  0  0  0  0  0  0  0  0  0
  -29.1170  -16.2870   20.3740 H   0  0  0  0  0  0  0  0  0  0  0  0
  -25.5770  -14.1320   20.4540 C   0  0  0  0  0  0  0  0  0  0  0  0
  -24.5220  -13.3520   20.8370 C   0  0  0  0  0  0  0  0  0  0  0  0
  -24.9760  -12.0000   20.7510 C   0  0  0  0  0  0  0  0  0  0  0  0
  -26.6050  -13.2560   20.1500 N   0  0  0  0  0  0  0  0  0  0  0  0
  -26.2560  -11.9670   20.3960 N   0  0  0  0  0  0  0  0  0  0  0  0
  -24.2470  -10.7380   20.9280 C   0  0  0  0  0  0  0  0  0  0  0  0
  -24.6720   -9.7620   21.8570 C   0  0  0  0  0  3  0  0  0  0  0  0
  -23.9410   -8.5660   22.0240 C   0  0  0  0  0  3  0  0  0  0  0  0
  -22.7720   -8.3360   21.2600 C   0  0  0  0  0  0  0  0  0  0  0  0
  -22.3670   -9.2990   20.3190 C   0  0  0  0  0  3  0  0  0  0  0  0
  -23.0980  -10.4870   20.1510 C   0  0  0  0  0  3  0  0  0  0  0  0
  -22.0140   -7.1930   21.3360 O   0  0  0  0  0  0  0  0  0  0  0  0
  -21.9150   -6.4690   22.4970 C   0  0  0  0  0  0  0  0  0  0  0  0
  -21.4150   -7.0370   23.6890 C   0  0  0  0  0  3  0  0  0  0  0  0
  -21.2670   -6.2390   24.8410 C   0  0  0  0  0  3  0  0  0  0  0  0
  -21.6090   -4.8730   24.8000 C   0  0  0  0  0  0  0  0  0  0  0  0
  -22.1030   -4.3060   23.6130 C   0  0  0  0  0  3  0  0  0  0  0  0
  -22.2520   -5.1000   22.4630 C   0  0  0  0  0  0  0  0  0  0  0  0
  -22.7080   -4.5430   21.3160 F   0  0  0  0  0  0  0  0  0  0  0  0
  -21.4600   -4.1040   25.9040 F   0  0  0  0  0  0  0  0  0  0  0  0
  -23.1380  -13.8300   21.1680 C   0  0  0  0  0  0  0  0  0  0  0  0
  -22.4360  -13.1140   22.0380 N   0  0  0  0  0  0  0  0  0  0  0  0
  -22.6910  -14.8730   20.6920 O   0  0  0  0  0  0  0  0  0  0  0  0
  -22.8100  -12.2700   22.4430 H   0  0  0  0  0  0  0  0  0  0  0  0
  -21.5090  -13.4160   22.3040 H   0  0  0  0  0  0  0  0  0  0  0  0
  -25.7430  -15.5050   20.3110 N   0  0  0  0  0  0  0  0  0  0  0  0
  -24.9820  -16.1560   20.4720 H   0  0  0  0  0  0  0  0  0  0  0  0
  -26.5800  -15.9550   19.9680 H   0  0  0  0  0  0  0  0  0  0  0  0
  -27.7930  -18.6570   18.3310 C   0  0  0  0  0  1  0  0  0  0  0  0
  -28.1400  -18.7400   19.7050 O   0  0  0  0  0  0  0  0  0  0  0  0
  -28.7810  -21.9150   19.8230 C   0  0  0  0  0  3  0  0  0  0  0  0
  -27.4450  -21.0580   21.9280 C   0  0  0  0  0  1  0  0  0  0  0  0
  -28.1950  -22.2010   21.2300 C   0  0  0  0  0  2  0  0  0  0  0  0
  -29.2270  -23.4600   19.2510 C   0  0  0  0  0  2  0  0  0  0  0  0
  -28.2130  -24.8250   19.1510 C   0  0  0  0  0  2  0  0  0  0  0  0
  -28.5450  -26.3580   19.1560 O   0  0  0  0  0  0  0  0  0  0  0  0
  -25.1160  -31.5410   23.1710 C   0  0  0  0  0  0  0  0  0  0  0  0
  -27.5160  -27.3670   19.3020 C   0  0  0  0  0  0  0  0  0  0  0  0
  -23.8530  -30.4840   21.3390 C   0  0  0  0  0  3  0  0  0  0  0  0
  -25.2350  -29.1520   19.6310 C   0  0  0  0  0  0  0  0  0  0  0  0
  -26.4120  -30.7130   21.1700 C   0  0  0  0  0  2  0  0  0  0  0  0
  -26.4380  -29.4550   20.2810 C   0  0  0  0  0  0  0  0  0  0  0  0
  -27.5800  -28.5830   20.1000 C   0  0  0  0  0  3  0  0  0  0  0  0
  -26.2870  -27.1790   18.6320 C   0  0  0  0  0  3  0  0  0  0  0  0
  -25.1730  -28.0310   18.7920 C   0  0  0  0  0  3  0  0  0  0  0  0
  -24.0340  -30.0570   19.8590 C   0  0  0  0  0  2  0  0  0  0  0  0
  -25.1490  -30.9240   21.9500 N   0  0  0  0  0  0  0  0  0  0  0  0
  -24.0470  -31.7510   23.7640 O   0  0  0  0  0  0  0  0  0  0  0  0
  -23.1650  -29.3370   22.1230 C   0  0  0  0  0  0  0  0  0  0  0  0
  -21.8290  -29.2310   22.0110 N   0  0  0  0  0  0  0  0  0  0  0  0
  -23.8360  -28.5530   22.7980 O   0  0  0  0  0  0  0  0  0  0  0  0
  -21.3430  -29.9190   21.4520 H   0  0  0  0  0  0  0  0  0  0  0  0
  -18.4170  -28.0910   22.4480 C   0  0  0  0  0  0  0  0  0  0  0  0
  -20.9950  -28.1930   22.6260 C   0  0  0  0  0  3  0  0  0  0  0  0
  -21.0000  -26.8990   21.7800 C   0  0  0  0  0  2  0  0  0  0  0  0
  -19.8410  -26.8270   20.7800 C   0  0  0  0  0  2  0  0  0  0  0  0
  -18.4970  -26.8970   21.5110 C   0  0  0  0  0  2  0  0  0  0  0  0
  -19.5900  -28.7090   22.9590 C   0  0  0  0  0  0  0  0  0  0  0  0
  -19.4580  -29.8360   23.7990 C   0  0  0  0  0  3  0  0  0  0  0  0
  -18.1880  -30.3430   24.1320 C   0  0  0  0  0  3  0  0  0  0  0  0
  -17.0300  -29.7190   23.6340 C   0  0  0  0  0  3  0  0  0  0  0  0
  -17.1450  -28.5950   22.7990 C   0  0  0  0  0  3  0  0  0  0  0  0
  -26.4200  -32.0290   23.8730 C   0  0  0  0  0  3  0  0  0  0  0  0
  -26.1480  -33.3530   24.4540 N   0  0  0  0  0  0  0  0  0  0  0  0
  -26.4730  -34.5210   23.8840 C   0  0  0  0  0  0  0  0  0  0  0  0
  -27.1030  -34.5940   22.8250 O   0  0  0  0  0  0  0  0  0  0  0  0
  -25.5900  -33.3700   25.2960 H   0  0  0  0  0  0  0  0  0  0  0  0
  -24.7640  -36.3660   23.9370 C   0  0  0  0  0  1  0  0  0  0  0  0
  -26.0330  -35.8120   24.6030 C   0  0  0  0  0  3  0  0  0  0  0  0
  -28.2160  -36.5210   25.4770 C   0  0  0  0  0  1  0  0  0  0  0  0
  -27.0770  -36.8610   24.6270 N   0  0  0  0  0  0  0  0  0  0  0  0
  -26.6910  -37.7430   24.9540 H   0  0  0  0  0  0  0  0  0  0  0  0
  -26.9330  -31.0360   24.9880 C   0  0  1  0  0  0  0  0  0  0  0  0
  -25.8510  -30.6450   26.0220 C   0  0  0  0  0  1  0  0  0  0  0  0
  -27.4710  -29.7310   24.3570 C   0  0  0  0  0  1  0  0  0  0  0  0
  -28.1180  -31.6740   25.7520 C   0  0  0  0  0  1  0  0  0  0  0  0
  1  3  1  0
  3  2  2  0
  3  7  1  0
  4  6  1  0
  4  1  2  0
  5 16  1  0
  5  2  1  0
  6  5  2  0
  8 16  1  0
  9 14  1  0
 10 11  1  0
 10  9  1  0
 12 11  1  0
 12 21  1  0
 12 13  1  0
 14  8  1  0
 14 13  1  0
 15  8  2  0
 16 17  1  0
 18 19  2  0
 19 38  1  0
 20 19  1  0
 20 23  1  0
 21 22  1  0
 21 18  1  0
 22 20  2  0
 23 24  1  0
 24 25  2  0
 26 29  1  0
 26 25  1  0
 27 26  2  0
 28 27  1  0
 28 23  2  0
 29 30  1  0
 30 31  1  0
 31 32  2  0
 33 32  1  0
 33 37  1  0
 34 33  2  0
 35 30  2  0
 35 34  1  0
 36 35  1  0
 38 39  1  0
 39 42  1  0
 39 41  1  0
 40 38  2  0
 43 18  1  0
 43 44  1  0
 45 43  1  0
 46 47  1  0
 47  6  1  0
 48 51  1  0
 48  4  1  0
 48 50  1  0
 50 49  1  0
 52 53  1  0
 52 51  1  0
 53 55  1  0
 54 65  2  0
 55 60  1  0
 56 64  1  0
 56 66  1  0
 57 63  1  0
 57 59  1  0
 58 64  1  0
 59 58  1  0
 60 59  2  0
 61 62  1  0
 61 55  2  0
 62 57  2  0
 63 56  1  0
 64 54  1  0
 66 68  2  0
 67 66  1  0
 69 67  1  0
 70 79  2  0
 70 75  1  0
 71 67  1  0
 71 75  1  0
 72 71  1  0
 73 74  1  0
 73 72  1  0
 74 70  1  0
 75 76  2  0
 76 77  1  0
 78 77  2  0
 79 78  1  0
 80 54  1  0
 80 81  1  0
 80 90  1  0
 81 84  1  0
 82 81  1  0
 82 86  1  0
 83 82  2  0
 86 85  1  0
 86 88  1  0
 88 89  1  0
 88 87  1  0
 90 93  1  1
 90 91  1  0
 92 90  1  0
M  ISO  4   8 100  16 100  52 101  53 101
M  END
>  <TORSDO>  (14) 
F 21

>  <SCORE>  (14) 
-10.789

>  <name>  (14) 
13

>  <ligand_id>  (14) 
13

>  <original_smiles>  (14) 
[H]c1c([H])c([H])c2c(c1[H])C([H])([H])C([H])([H])C([H])([H])C2([H])N([H])C(=O)C1([H])N(C(=O)C([H])(N([H])C(=O)C([H])(N([H])C([H])([H])[H])C([H])([H])[H])C(C([H])([H])[H])(C([H])([H])[H])C([H])([H])[H])C([H])([H])c2c([H])c(OC([H])([H])C([H])([H])C([H])(c3c([H])c(C([H])([H])[H])c([H])c(N([H])C(=O)N4C([H])([H])C([H])([H])C([H])([H])C([H])(n5nc(-c6c([H])c([H])c(Oc7c([H])c([H])c(F)c([H])c7F)c([H])c6[H])c(C(=O)N([H])[H])c5N([H])[H])C4([H])[H])c3OC([H])([H])[H])C([H])([H])C([H])([H])[H])c([H])c([H])c2C1([H])[H]

>  <smiles>  (14) 
[H]c1c([H])c([H])c2c(c1[H])C([H])([H])C([H])([H])C([H])([H])C2([H])N([H])C(=O)C1([H])N(C(=O)C([H])(N([H])C(=O)C([H])(N([H])C([H])([H])[H])C([H])([H])[H])C(C([H])([H])[H])(C([H])([H])[H])C([H])([H])[H])C([H])([H])c2c([H])c(OC([H])([H])C([H])([H])C([H])(c3c([H])c(C([H])([H])[H])c([H])c(N([H])C(=O)N4C([H])([H])C([H])([H])C([H])([H])C([H])(n5nc(-c6c([H])c([H])c(Oc7c([H])c([H])c(F)c([H])c7F)c([H])c6[H])c(C(=O)N([H])[H])c5N([H])[H])C4([H])[H])c3OC([H])([H])[H])C([H])([H])C([H])([H])[H])c([H])c([H])c2C1([H])[H]

$$$$
14:0:0
     RDKit          3D

 98107  0  0  1  0  0  0  0  0999 V2000
  -26.5400  -20.8980   20.5910 C   0  0  0  0  0  2  0  0  0  0  0  0
  -27.7970  -20.1320   20.1990 C   0  0  0  0  0  2  0  0  0  0  0  0
  -26.6780  -22.1780   19.7740 C   0  0  0  0  0  2  0  0  0  0  0  0
  -28.8760  -21.2250   20.0160 C   0  0  0  0  0  3  0  0  0  0  0  0
  -28.1270  -22.4960   19.7690 N   0  0  1  0  0  4  0  0  0  0  0  0
  -28.2920  -23.0740   20.5790 H   0  0  0  0  0  0  0  0  0  0  0  0
  -30.9510  -22.3990   21.0280 C   0  0  0  0  0  1  0  0  0  0  0  0
  -29.8490  -21.3420   21.2280 C   0  0  0  0  0  3  0  0  0  0  0  0
  -31.1070  -19.2050   20.6760 C   0  0  0  0  0  3  0  0  0  0  0  0
  -31.5820  -18.1020   21.3360 C   0  0  0  0  0  0  0  0  0  0  0  0
  -31.2210  -18.3080   22.6940 C   0  0  0  0  0  0  0  0  0  0  0  0
  -30.5600  -19.4920   22.8460 C   0  0  0  0  0  0  0  0  0  0  0  0
  -30.0040  -20.1430   24.0730 C   0  0  0  0  0  1  0  0  0  0  0  0
  -30.4720  -20.0580   21.5760 N   0  0  0  0  0  0  0  0  0  0  0  0
  -31.5890  -17.2150   23.9790 Cl  0  0  0  0  0  0  0  0  0  0  0  0
  -32.3500  -16.9400   20.7510 C   0  0  0  0  0  2  0  0  0  0  0  0
  -31.7110  -14.8940   19.4790 C   0  0  0  0  0  0  0  0  0  0  0  0
  -31.1630  -12.6490   18.6140 C   0  0  0  0  0  2  0  0  0  0  0  0
  -30.1330  -12.6950   17.4730 C   0  0  0  0  0  2  0  0  0  0  0  0
  -28.7020  -12.6730   18.0370 C   0  0  0  0  0  2  0  0  0  0  0  0
  -28.4900  -13.7320   19.1500 C   0  0  0  0  0  3  0  0  0  0  0  0
  -29.6220  -13.6730   20.2020 C   0  0  0  0  0  2  0  0  0  0  0  0
  -30.9200  -13.7900   19.5120 N   0  0  0  0  0  0  0  0  0  0  0  0
  -32.6300  -15.0420   18.6670 O   0  0  0  0  0  0  0  0  0  0  0  0
  -31.5090  -15.7760   20.4660 N   0  0  0  0  0  0  0  0  0  0  0  0
  -30.7700  -15.5690   21.1200 H   0  0  0  0  0  0  0  0  0  0  0  0
  -26.2740  -14.5770   20.1550 C   0  0  0  0  0  0  0  0  0  0  0  0
  -25.1630  -13.9160   20.6090 C   0  0  0  0  0  0  0  0  0  0  0  0
  -25.4450  -12.5230   20.4620 C   0  0  0  0  0  0  0  0  0  0  0  0
  -27.1700  -13.5930   19.7670 N   0  0  0  0  0  0  0  0  0  0  0  0
  -26.6790  -12.3500   20.0040 N   0  0  0  0  0  0  0  0  0  0  0  0
  -24.5910  -11.3480   20.6760 C   0  0  0  0  0  0  0  0  0  0  0  0
  -24.9790  -10.3010   21.5420 C   0  0  0  0  0  3  0  0  0  0  0  0
  -24.1320   -9.1900   21.7450 C   0  0  0  0  0  3  0  0  0  0  0  0
  -22.8820   -9.1200   21.0860 C   0  0  0  0  0  0  0  0  0  0  0  0
  -22.5110  -10.1550   20.2090 C   0  0  0  0  0  3  0  0  0  0  0  0
  -23.3570  -11.2560   20.0020 C   0  0  0  0  0  3  0  0  0  0  0  0
  -22.0060   -8.0680   21.2020 O   0  0  0  0  0  0  0  0  0  0  0  0
  -21.9280   -7.3210   22.3510 C   0  0  0  0  0  0  0  0  0  0  0  0
  -21.6510   -7.9090   23.6040 C   0  0  0  0  0  3  0  0  0  0  0  0
  -21.5100   -7.0970   24.7470 C   0  0  0  0  0  3  0  0  0  0  0  0
  -21.6350   -5.6990   24.6380 C   0  0  0  0  0  0  0  0  0  0  0  0
  -21.9040   -5.1110   23.3890 C   0  0  0  0  0  3  0  0  0  0  0  0
  -22.0460   -5.9200   22.2490 C   0  0  0  0  0  0  0  0  0  0  0  0
  -22.2840   -5.3470   21.0450 F   0  0  0  0  0  0  0  0  0  0  0  0
  -21.4930   -4.9180   25.7350 F   0  0  0  0  0  0  0  0  0  0  0  0
  -23.8770  -14.5400   21.0660 C   0  0  0  0  0  0  0  0  0  0  0  0
  -23.1780  -13.8940   21.9930 N   0  0  0  0  0  0  0  0  0  0  0  0
  -23.5070  -15.6330   20.6380 O   0  0  0  0  0  0  0  0  0  0  0  0
  -23.4940  -13.0080   22.3600 H   0  0  0  0  0  0  0  0  0  0  0  0
  -22.3170  -14.2920   22.3430 H   0  0  0  0  0  0  0  0  0  0  0  0
  -26.5880  -15.9260   20.0250 N   0  0  0  0  0  0  0  0  0  0  0  0
  -25.9280  -16.6600   20.2610 H   0  0  0  0  0  0  0  0  0  0  0  0
  -27.4610  -16.2800   19.6540 H   0  0  0  0  0  0  0  0  0  0  0  0
  -28.5870  -23.2550   18.5710 C   0  0  0  0  0  2  0  0  0  0  0  0
  -27.9280  -24.6450   18.3710 C   0  0  0  0  0  2  0  0  0  0  0  0
  -28.0510  -25.6000   19.5730 C   0  0  0  0  0  2  0  0  0  0  0  0
  -28.0420  -26.9640   19.1510 O   0  0  0  0  0  0  0  0  0  0  0  0
  -24.8250  -31.8010   23.2220 C   0  0  0  0  0  0  0  0  0  0  0  0
  -26.8950  -27.6880   19.3710 C   0  0  0  0  0  0  0  0  0  0  0  0
  -23.3780  -30.6740   21.5590 C   0  0  0  0  0  3  0  0  0  0  0  0
  -24.5910  -29.2590   19.8160 C   0  0  0  0  0  0  0  0  0  0  0  0
  -25.8820  -30.9540   21.1290 C   0  0  0  0  0  2  0  0  0  0  0  0
  -25.8280  -29.6690   20.3290 C   0  0  0  0  0  0  0  0  0  0  0  0
  -26.9830  -28.8940   20.0970 C   0  0  0  0  0  3  0  0  0  0  0  0
  -25.6400  -27.2790   18.8660 C   0  0  0  0  0  3  0  0  0  0  0  0
  -24.4900  -28.0630   19.0820 C   0  0  0  0  0  3  0  0  0  0  0  0
  -23.4060  -30.1550   20.0940 C   0  0  0  0  0  2  0  0  0  0  0  0
  -24.7200  -31.1490   22.0290 N   0  0  0  0  0  0  0  0  0  0  0  0
  -23.8230  -32.0490   23.9060 O   0  0  0  0  0  0  0  0  0  0  0  0
  -22.7670  -29.5730   22.4540 C   0  0  0  0  0  0  0  0  0  0  0  0
  -21.4310  -29.4400   22.4090 N   0  0  0  0  0  0  0  0  0  0  0  0
  -23.4870  -28.8450   23.1420 O   0  0  0  0  0  0  0  0  0  0  0  0
  -20.9100  -30.0840   21.8300 H   0  0  0  0  0  0  0  0  0  0  0  0
  -18.0750  -28.2210   22.9530 C   0  0  0  0  0  0  0  0  0  0  0  0
  -20.6430  -28.4440   23.1320 C   0  0  0  0  0  3  0  0  0  0  0  0
  -20.7070  -27.0650   22.4380 C   0  0  0  0  0  2  0  0  0  0  0  0
  -19.5600  -26.8320   21.4480 C   0  0  0  0  0  2  0  0  0  0  0  0
  -18.2090  -26.9310   22.1620 C   0  0  0  0  0  2  0  0  0  0  0  0
  -19.2170  -28.9400   23.3940 C   0  0  0  0  0  0  0  0  0  0  0  0
  -19.0370  -30.1530   24.0930 C   0  0  0  0  0  3  0  0  0  0  0  0
  -17.7450  -30.6460   24.3560 C   0  0  0  0  0  3  0  0  0  0  0  0
  -16.6170  -29.9230   23.9300 C   0  0  0  0  0  3  0  0  0  0  0  0
  -16.7820  -28.7100   23.2360 C   0  0  0  0  0  3  0  0  0  0  0  0
  -26.2030  -32.2880   23.7730 C   0  0  0  0  0  3  0  0  0  0  0  0
  -26.0000  -33.6240   24.3510 N   0  0  0  0  0  0  0  0  0  0  0  0
  -26.3110  -34.7730   23.7350 C   0  0  0  0  0  0  0  0  0  0  0  0
  -26.8710  -34.8140   22.6350 O   0  0  0  0  0  0  0  0  0  0  0  0
  -25.4980  -33.6690   25.2250 H   0  0  0  0  0  0  0  0  0  0  0  0
  -24.6480  -36.6570   23.8490 C   0  0  0  0  0  1  0  0  0  0  0  0
  -25.9420  -36.0860   24.4520 C   0  0  0  0  0  3  0  0  0  0  0  0
  -28.1920  -36.7450   25.1770 C   0  0  0  0  0  1  0  0  0  0  0  0
  -27.0100  -37.1070   24.3980 N   0  0  0  0  0  0  0  0  0  0  0  0
  -26.6690  -38.0010   24.7400 H   0  0  0  0  0  0  0  0  0  0  0  0
  -26.8300  -31.3080   24.8410 C   0  0  1  0  0  0  0  0  0  0  0  0
  -25.8640  -30.9320   25.9890 C   0  0  0  0  0  1  0  0  0  0  0  0
  -27.2980  -29.9980   24.1670 C   0  0  0  0  0  1  0  0  0  0  0  0
  -28.0870  -31.9540   25.4700 C   0  0  0  0  0  1  0  0  0  0  0  0
  2  1  1  0
  3  1  1  0
  4  2  1  0
  4  8  1  0
  5  3  1  0
  5  4  1  0
  5  6  1  1
  8  7  1  0
  8 14  1  0
  9 10  2  0
  9 14  1  0
 10 11  1  0
 11 12  2  0
 11 15  1  0
 12 13  1  0
 14 12  1  0
 16 10  1  0
 17 23  1  0
 17 25  1  0
 18 23  1  0
 19 20  1  0
 19 18  1  0
 21 20  1  0
 21 30  1  0
 21 22  1  0
 23 22  1  0
 24 17  2  0
 25 16  1  0
 25 26  1  0
 27 28  2  0
 28 47  1  0
 29 28  1  0
 29 32  1  0
 30 31  1  0
 30 27  1  0
 31 29  2  0
 32 33  1  0
 33 34  2  0
 35 38  1  0
 35 34  1  0
 36 35  2  0
 37 36  1  0
 37 32  2  0
 38 39  1  0
 39 40  1  0
 40 41  2  0
 42 41  1  0
 42 46  1  0
 43 42  2  0
 44 39  2  0
 44 43  1  0
 45 44  1  0
 47 48  1  0
 48 51  1  0
 48 50  1  0
 49 47  2  0
 52 27  1  0
 52 53  1  0
 54 52  1  0
 55  5  1  0
 56 55  1  0
 56 57  1  0
 58 60  1  0
 58 57  1  0
 59 70  2  0
 60 65  1  0
 61 69  1  0
 61 71  1  0
 62 68  1  0
 62 64  1  0
 63 69  1  0
 64 63  1  0
 65 64  2  0
 66 67  1  0
 66 60  2  0
 67 62  2  0
 68 61  1  0
 69 59  1  0
 71 73  2  0
 72 71  1  0
 74 72  1  0
 75 84  2  0
 75 80  1  0
 76 72  1  0
 76 80  1  0
 77 76  1  0
 78 79  1  0
 78 77  1  0
 79 75  1  0
 80 81  2  0
 81 82  1  0
 83 82  2  0
 84 83  1  0
 85 59  1  0
 85 86  1  0
 85 95  1  0
 86 89  1  0
 87 86  1  0
 87 91  1  0
 88 87  2  0
 91 90  1  0
 93 91  1  0
 93 94  1  0
 93 92  1  0
 95 98  1  1
 95 96  1  0
 97 95  1  0
M  ISO  4  17 100  25 100  57 101  58 101
M  END
>  <TORSDO>  (15) 
F 22

>  <SCORE>  (15) 
-6.023

>  <name>  (15) 
14

>  <ligand_id>  (15) 
14

>  <original_smiles>  (15) 
[H]c1c([H])c([H])c2c(c1[H])C([H])([H])C([H])([H])C([H])([H])C2([H])N([H])C(=O)C1([H])N(C(=O)C([H])(N([H])C(=O)C([H])(N([H])C([H])([H])[H])C([H])([H])[H])C(C([H])([H])[H])(C([H])([H])[H])C([H])([H])[H])C([H])([H])c2c([H])c(OC([H])([H])C([H])([H])C([H])([H])[N+]3([H])C([H])([H])C([H])([H])C([H])([H])C3([H])C([H])(n3c([H])c(C([H])([H])N([H])C(=O)N4C([H])([H])C([H])([H])C([H])([H])C([H])(n5nc(-c6c([H])c([H])c(Oc7c([H])c([H])c(F)c([H])c7F)c([H])c6[H])c(C(=O)N([H])[H])c5N([H])[H])C4([H])[H])c(Cl)c3C([H])([H])[H])C([H])([H])[H])c([H])c([H])c2C1([H])[H]

>  <smiles>  (15) 
[H]c1c([H])c([H])c2c(c1[H])C([H])([H])C([H])([H])C([H])([H])C2([H])N([H])C(=O)C1([H])N(C(=O)C([H])(N([H])C(=O)C([H])(N([H])C([H])([H])[H])C([H])([H])[H])C(C([H])([H])[H])(C([H])([H])[H])C([H])([H])[H])C([H])([H])c2c([H])c(OC([H])([H])C([H])([H])C([H])([H])[N+]3([H])C([H])([H])C([H])([H])C([H])([H])C3([H])C([H])(n3c([H])c(C([H])([H])N([H])C(=O)N4C([H])([H])C([H])([H])C([H])([H])C([H])(n5nc(-c6c([H])c([H])c(Oc7c([H])c([H])c(F)c([H])c7F)c([H])c6[H])c(C(=O)N([H])[H])c5N([H])[H])C4([H])[H])c(Cl)c3C([H])([H])[H])C([H])([H])[H])c([H])c([H])c2C1([H])[H]

$$$$
15:0:0
     RDKit          3D

 98107  0  0  1  0  0  0  0  0999 V2000
  -29.3880  -23.0880   17.8420 C   0  0  0  0  0  2  0  0  0  0  0  0
  -29.9830  -21.7240   18.2140 C   0  0  0  0  0  2  0  0  0  0  0  0
  -29.8700  -24.1880   18.8040 C   0  0  0  0  0  2  0  0  0  0  0  0
  -30.1300  -22.5570   20.6350 C   0  0  0  0  0  2  0  0  0  0  0  0
  -29.6920  -21.4020   19.6960 C   0  0  0  0  0  3  0  0  0  0  0  0
  -29.5400  -23.8610   20.2180 N   0  0  1  0  0  4  0  0  0  0  0  0
  -28.5370  -23.7420   20.2580 H   0  0  0  0  0  0  0  0  0  0  0  0
  -32.0130  -18.4620   20.7200 C   0  0  0  0  0  3  0  0  0  0  0  0
  -30.1940  -20.0100   20.1360 C   0  0  0  0  0  0  0  0  0  0  0  0
  -31.0990  -17.4240   20.9710 C   0  0  0  0  0  0  0  0  0  0  0  0
  -31.5790  -19.7380   20.3180 C   0  0  0  0  0  0  0  0  0  0  0  0
  -29.2690  -18.9500   20.3810 C   0  0  0  0  0  0  0  0  0  0  0  0
  -29.7180  -17.6750   20.8030 C   0  0  0  0  0  0  0  0  0  0  0  0
  -32.8140  -20.9260   20.0820 Cl  0  0  0  0  0  0  0  0  0  0  0  0
  -27.5590  -19.1820   20.1870 Cl  0  0  0  0  0  0  0  0  0  0  0  0
  -28.5600  -16.4300   21.1460 Cl  0  0  0  0  0  0  0  0  0  0  0  0
  -31.6360  -16.0830   21.4670 C   0  0  0  0  0  2  0  0  0  0  0  0
  -31.2620  -14.1110   19.9740 C   0  0  0  0  0  0  0  0  0  0  0  0
  -30.7320  -12.0130   18.7840 C   0  0  0  0  0  2  0  0  0  0  0  0
  -29.7400  -12.2470   17.6290 C   0  0  0  0  0  2  0  0  0  0  0  0
  -28.2870  -12.2020   18.1360 C   0  0  0  0  0  2  0  0  0  0  0  0
  -28.0640  -13.0930   19.3860 C   0  0  0  0  0  3  0  0  0  0  0  0
  -29.1480  -12.8150   20.4480 C   0  0  0  0  0  2  0  0  0  0  0  0
  -30.4710  -13.0160   19.8260 N   0  0  0  0  0  0  0  0  0  0  0  0
  -32.2580  -14.3330   19.2780 O   0  0  0  0  0  0  0  0  0  0  0  0
  -30.9100  -14.9140   20.9820 N   0  0  0  0  0  0  0  0  0  0  0  0
  -30.0840  -14.6510   21.4960 H   0  0  0  0  0  0  0  0  0  0  0  0
  -25.7570  -13.8750   20.2220 C   0  0  0  0  0  0  0  0  0  0  0  0
  -24.6530  -13.1820   20.6410 C   0  0  0  0  0  0  0  0  0  0  0  0
  -25.0080  -11.8000   20.5760 C   0  0  0  0  0  0  0  0  0  0  0  0
  -26.7190  -12.9190   19.9320 N   0  0  0  0  0  0  0  0  0  0  0  0
  -26.2720  -11.6650   20.1970 N   0  0  0  0  0  0  0  0  0  0  0  0
  -24.1980  -10.5930   20.7960 C   0  0  0  0  0  0  0  0  0  0  0  0
  -24.5820   -9.6080   21.7320 C   0  0  0  0  0  3  0  0  0  0  0  0
  -23.7780   -8.4660   21.9390 C   0  0  0  0  0  3  0  0  0  0  0  0
  -22.5770   -8.3020   21.2080 C   0  0  0  0  0  0  0  0  0  0  0  0
  -22.2120   -9.2770   20.2620 C   0  0  0  0  0  3  0  0  0  0  0  0
  -23.0150  -10.4090   20.0540 C   0  0  0  0  0  3  0  0  0  0  0  0
  -21.7470   -7.2140   21.3240 O   0  0  0  0  0  0  0  0  0  0  0  0
  -21.6400   -6.5110   22.4970 C   0  0  0  0  0  0  0  0  0  0  0  0
  -21.2480   -7.1300   23.7030 C   0  0  0  0  0  3  0  0  0  0  0  0
  -21.0840   -6.3580   24.8700 C   0  0  0  0  0  3  0  0  0  0  0  0
  -21.3010   -4.9670   24.8310 C   0  0  0  0  0  0  0  0  0  0  0  0
  -21.6860   -4.3480   23.6290 C   0  0  0  0  0  3  0  0  0  0  0  0
  -21.8510   -5.1170   22.4640 C   0  0  0  0  0  0  0  0  0  0  0  0
  -22.2020   -4.5130   21.3040 F   0  0  0  0  0  0  0  0  0  0  0  0
  -21.1350   -4.2240   25.9500 F   0  0  0  0  0  0  0  0  0  0  0  0
  -23.3140  -13.7610   20.9970 C   0  0  0  0  0  0  0  0  0  0  0  0
  -22.5910  -13.1190   21.9080 N   0  0  0  0  0  0  0  0  0  0  0  0
  -22.9210  -14.8160   20.5010 O   0  0  0  0  0  0  0  0  0  0  0  0
  -22.9220  -12.2640   22.3300 H   0  0  0  0  0  0  0  0  0  0  0  0
  -21.6940  -13.4890   22.1880 H   0  0  0  0  0  0  0  0  0  0  0  0
  -26.0150  -15.2310   20.0490 N   0  0  0  0  0  0  0  0  0  0  0  0
  -25.3210  -15.9440   20.2430 H   0  0  0  0  0  0  0  0  0  0  0  0
  -26.9080  -15.6140   19.7670 H   0  0  0  0  0  0  0  0  0  0  0  0
  -29.8570  -24.9750   21.1580 C   0  0  0  0  0  2  0  0  0  0  0  0
  -28.6770  -25.9480   21.3360 C   0  0  0  0  0  2  0  0  0  0  0  0
  -28.3380  -26.5220   20.0780 O   0  0  0  0  0  0  0  0  0  0  0  0
  -24.5490  -31.7250   23.1360 C   0  0  0  0  0  0  0  0  0  0  0  0
  -27.1950  -27.2770   20.0990 C   0  0  0  0  0  0  0  0  0  0  0  0
  -23.3560  -30.3490   21.4590 C   0  0  0  0  0  3  0  0  0  0  0  0
  -24.8180  -28.7920   20.0650 C   0  0  0  0  0  0  0  0  0  0  0  0
  -25.8850  -30.6740   21.3180 C   0  0  0  0  0  2  0  0  0  0  0  0
  -25.9660  -29.3020   20.6850 C   0  0  0  0  0  0  0  0  0  0  0  0
  -27.1580  -28.5500   20.7090 C   0  0  0  0  0  3  0  0  0  0  0  0
  -26.0390  -26.7740   19.4700 C   0  0  0  0  0  3  0  0  0  0  0  0
  -24.8470  -27.5230   19.4590 C   0  0  0  0  0  3  0  0  0  0  0  0
  -23.5860  -29.6670   20.0830 C   0  0  0  0  0  2  0  0  0  0  0  0
  -24.6140  -30.9290   22.0310 N   0  0  0  0  0  0  0  0  0  0  0  0
  -23.4620  -32.0130   23.6540 O   0  0  0  0  0  0  0  0  0  0  0  0
  -22.6670  -29.3360   22.4000 C   0  0  0  0  0  0  0  0  0  0  0  0
  -21.3370  -29.2070   22.2670 N   0  0  0  0  0  0  0  0  0  0  0  0
  -23.3250  -28.6710   23.2040 O   0  0  0  0  0  0  0  0  0  0  0  0
  -20.8700  -29.7960   21.5920 H   0  0  0  0  0  0  0  0  0  0  0  0
  -17.9120  -28.1720   22.7630 C   0  0  0  0  0  0  0  0  0  0  0  0
  -20.4820  -28.2890   23.0170 C   0  0  0  0  0  3  0  0  0  0  0  0
  -20.5060  -26.8730   22.3950 C   0  0  0  0  0  2  0  0  0  0  0  0
  -19.3800  -26.6390   21.3840 C   0  0  0  0  0  2  0  0  0  0  0  0
  -18.0140  -26.8350   22.0450 C   0  0  0  0  0  2  0  0  0  0  0  0
  -19.0720  -28.8610   23.2050 C   0  0  0  0  0  0  0  0  0  0  0  0
  -18.9260  -30.1170   23.8340 C   0  0  0  0  0  3  0  0  0  0  0  0
  -17.6500  -30.6800   24.0280 C   0  0  0  0  0  3  0  0  0  0  0  0
  -16.5040  -29.9850   23.6030 C   0  0  0  0  0  3  0  0  0  0  0  0
  -16.6370  -28.7340   22.9760 C   0  0  0  0  0  3  0  0  0  0  0  0
  -25.8330  -32.3280   23.7870 C   0  0  0  0  0  3  0  0  0  0  0  0
  -26.3490  -31.4990   25.0260 C   0  0  1  0  0  0  0  0  0  0  0  0
  -25.2570  -31.2140   26.0820 C   0  0  0  0  0  1  0  0  0  0  0  0
  -26.9320  -30.1430   24.5660 C   0  0  0  0  0  1  0  0  0  0  0  0
  -27.4990  -32.2610   25.7260 C   0  0  0  0  0  1  0  0  0  0  0  0
  -25.5240  -33.7090   24.1780 N   0  0  0  0  0  0  0  0  0  0  0  0
  -25.8520  -34.7920   23.4610 C   0  0  0  0  0  0  0  0  0  0  0  0
  -26.5190  -34.7340   22.4240 O   0  0  0  0  0  0  0  0  0  0  0  0
  -24.9360  -33.8290   24.9910 H   0  0  0  0  0  0  0  0  0  0  0  0
  -24.1200  -36.5900   23.1860 C   0  0  0  0  0  1  0  0  0  0  0  0
  -25.3630  -36.1580   23.9780 C   0  0  0  0  0  3  0  0  0  0  0  0
  -27.4990  -37.0100   24.8390 C   0  0  0  0  0  1  0  0  0  0  0  0
  -26.3930  -37.2170   23.9080 N   0  0  0  0  0  0  0  0  0  0  0  0
  -25.9850  -38.1280   24.0980 H   0  0  0  0  0  0  0  0  0  0  0  0
  1  2  1  0
  1  3  1  0
  2  5  1  0
  3  6  1  0
  5  9  1  0
  5  4  1  0
  6  7  1  6
  6  4  1  0
  6 56  1  0
  8 10  1  0
  9 11  1  0
  9 12  2  0
 10 17  1  0
 11  8  2  0
 12 13  1  0
 13 10  2  0
 13 16  1  0
 14 11  1  0
 15 12  1  0
 18 26  1  0
 19 24  1  0
 20 21  1  0
 20 19  1  0
 22 21  1  0
 22 31  1  0
 22 23  1  0
 24 18  1  0
 24 23  1  0
 25 18  2  0
 26 17  1  0
 26 27  1  0
 28 29  2  0
 29 48  1  0
 30 29  1  0
 30 33  1  0
 31 32  1  0
 31 28  1  0
 32 30  2  0
 33 34  1  0
 34 35  2  0
 36 39  1  0
 36 35  1  0
 37 36  2  0
 38 37  1  0
 38 33  2  0
 39 40  1  0
 40 41  1  0
 41 42  2  0
 43 42  1  0
 43 47  1  0
 44 43  2  0
 45 40  2  0
 45 44  1  0
 46 45  1  0
 48 49  1  0
 49 52  1  0
 49 51  1  0
 50 48  2  0
 53 28  1  0
 53 54  1  0
 55 53  1  0
 56 57  1  0
 58 60  1  0
 58 57  1  0
 59 70  2  0
 60 65  1  0
 61 69  1  0
 61 71  1  0
 62 68  1  0
 62 64  1  0
 63 69  1  0
 64 65  2  0
 64 63  1  0
 66 60  2  0
 67 66  1  0
 67 62  2  0
 68 61  1  0
 69 59  1  0
 71 73  2  0
 72 71  1  0
 74 72  1  0
 75 84  2  0
 75 80  1  0
 76 72  1  0
 76 80  1  0
 77 76  1  0
 78 79  1  0
 78 77  1  0
 79 75  1  0
 80 81  2  0
 81 82  1  0
 83 82  2  0
 84 83  1  0
 85 59  1  0
 85 90  1  0
 85 86  1  0
 86 89  1  1
 86 87  1  0
 88 86  1  0
 90 93  1  0
 91 95  1  0
 91 90  1  0
 92 91  2  0
 95 94  1  0
 97 95  1  0
 97 98  1  0
 97 96  1  0
M  ISO  4  18 100  26 100  57 101  58 101
M  END
>  <TORSDO>  (16) 
F 20

>  <SCORE>  (16) 
-13.496

>  <name>  (16) 
15

>  <ligand_id>  (16) 
15

>  <original_smiles>  (16) 
[H]c1c([H])c([H])c2c(c1[H])C([H])([H])C([H])([H])C([H])([H])C2([H])N([H])C(=O)C1([H])N(C(=O)C([H])(N([H])C(=O)C([H])(N([H])C([H])([H])[H])C([H])([H])[H])C(C([H])([H])[H])(C([H])([H])[H])C([H])([H])[H])C([H])([H])c2c([H])c(OC([H])([H])C([H])([H])[N+]3([H])C([H])([H])C([H])([H])C([H])([H])C([H])(c4c(Cl)c([H])c(C([H])([H])N([H])C(=O)N5C([H])([H])C([H])([H])C([H])([H])C([H])(n6nc(-c7c([H])c([H])c(Oc8c([H])c([H])c(F)c([H])c8F)c([H])c7[H])c(C(=O)N([H])[H])c6N([H])[H])C5([H])[H])c(Cl)c4Cl)C3([H])[H])c([H])c([H])c2C1([H])[H]

>  <smiles>  (16) 
[H]c1c([H])c([H])c2c(c1[H])C([H])([H])C([H])([H])C([H])([H])C2([H])N([H])C(=O)C1([H])N(C(=O)C([H])(N([H])C(=O)C([H])(N([H])C([H])([H])[H])C([H])([H])[H])C(C([H])([H])[H])(C([H])([H])[H])C([H])([H])[H])C([H])([H])c2c([H])c(OC([H])([H])C([H])([H])[N+]3([H])C([H])([H])C([H])([H])C([H])([H])C([H])(c4c(Cl)c([H])c(C([H])([H])N([H])C(=O)N5C([H])([H])C([H])([H])C([H])([H])C([H])(n6nc(-c7c([H])c([H])c(Oc8c([H])c([H])c(F)c([H])c8F)c([H])c7[H])c(C(=O)N([H])[H])c6N([H])[H])C5([H])[H])c(Cl)c4Cl)C3([H])[H])c([H])c([H])c2C1([H])[H]

$$$$
16:0:0
     RDKit          3D

 95103  0  0  1  0  0  0  0  0999 V2000
  -31.8560  -21.6970   18.5240 C   0  0  0  0  0  2  0  0  0  0  0  0
  -31.8310  -19.6640   20.1210 C   0  0  0  0  0  3  0  0  0  0  0  0
  -30.1010  -19.8500   18.4420 C   0  0  0  0  0  3  0  0  0  0  0  0
  -31.2460  -20.3860   19.0520 C   0  0  0  0  0  0  0  0  0  0  0  0
  -30.1050  -17.9060   19.9780 C   0  0  0  0  0  0  0  0  0  0  0  0
  -31.2720  -18.4450   20.5870 C   0  0  0  0  0  0  0  0  0  0  0  0
  -29.5290  -18.6440   18.9000 C   0  0  0  0  0  0  0  0  0  0  0  0
  -32.0350  -17.6880   21.9410 Cl  0  0  0  0  0  0  0  0  0  0  0  0
  -28.0640  -18.1390   18.1260 Cl  0  0  0  0  0  0  0  0  0  0  0  0
  -29.3310  -16.6660   20.4930 C   0  0  0  0  0  2  0  0  0  0  0  0
  -30.6080  -14.5180   20.4640 C   0  0  0  0  0  0  0  0  0  0  0  0
  -30.3530  -12.3330   19.3590 C   0  0  0  0  0  2  0  0  0  0  0  0
  -29.4260  -12.5350   18.1400 C   0  0  0  0  0  2  0  0  0  0  0  0
  -27.9420  -12.4090   18.5410 C   0  0  0  0  0  2  0  0  0  0  0  0
  -27.5910  -13.2480   19.7970 C   0  0  0  0  0  3  0  0  0  0  0  0
  -28.6280  -13.0130   20.9230 C   0  0  0  0  0  2  0  0  0  0  0  0
  -29.9720  -13.3150   20.3870 N   0  0  0  0  0  0  0  0  0  0  0  0
  -31.6720  -14.7540   19.8860 O   0  0  0  0  0  0  0  0  0  0  0  0
  -29.9440  -15.4790   21.1270 N   0  0  0  0  0  0  0  0  0  0  0  0
  -29.3350  -15.0880   21.8280 H   0  0  0  0  0  0  0  0  0  0  0  0
  -25.1780  -13.8780   20.4400 C   0  0  0  0  0  0  0  0  0  0  0  0
  -24.1010  -13.1170   20.8040 C   0  0  0  0  0  0  0  0  0  0  0  0
  -24.5610  -11.7650   20.8160 C   0  0  0  0  0  0  0  0  0  0  0  0
  -26.2250  -12.9890   20.2490 N   0  0  0  0  0  0  0  0  0  0  0  0
  -25.8550  -11.7140   20.5290 N   0  0  0  0  0  0  0  0  0  0  0  0
  -23.8310  -10.5070   21.0200 C   0  0  0  0  0  0  0  0  0  0  0  0
  -24.2490   -9.5520   21.9730 C   0  0  0  0  0  3  0  0  0  0  0  0
  -23.5170   -8.3590   22.1590 C   0  0  0  0  0  3  0  0  0  0  0  0
  -22.3560   -8.1120   21.3910 C   0  0  0  0  0  0  0  0  0  0  0  0
  -21.9580   -9.0530   20.4250 C   0  0  0  0  0  3  0  0  0  0  0  0
  -22.6920  -10.2360   20.2360 C   0  0  0  0  0  3  0  0  0  0  0  0
  -21.5990   -6.9680   21.4870 O   0  0  0  0  0  0  0  0  0  0  0  0
  -21.5420   -6.2380   22.6470 C   0  0  0  0  0  0  0  0  0  0  0  0
  -21.1190   -6.8100   23.8650 C   0  0  0  0  0  3  0  0  0  0  0  0
  -21.0100   -6.0080   25.0200 C   0  0  0  0  0  3  0  0  0  0  0  0
  -21.3140   -4.6350   24.9550 C   0  0  0  0  0  0  0  0  0  0  0  0
  -21.7340   -4.0620   23.7400 C   0  0  0  0  0  3  0  0  0  0  0  0
  -21.8440   -4.8620   22.5890 C   0  0  0  0  0  0  0  0  0  0  0  0
  -22.2280   -4.3030   21.4160 F   0  0  0  0  0  0  0  0  0  0  0  0
  -21.2030   -3.8610   26.0590 F   0  0  0  0  0  0  0  0  0  0  0  0
  -22.7000  -13.6000   21.0480 C   0  0  0  0  0  0  0  0  0  0  0  0
  -21.9560  -12.9170   21.9120 N   0  0  0  0  0  0  0  0  0  0  0  0
  -22.2740  -14.6190   20.5060 O   0  0  0  0  0  0  0  0  0  0  0  0
  -22.3170  -12.0960   22.3740 H   0  0  0  0  0  0  0  0  0  0  0  0
  -21.0130  -13.2150   22.1120 H   0  0  0  0  0  0  0  0  0  0  0  0
  -25.3500  -15.2470   20.2380 N   0  0  0  0  0  0  0  0  0  0  0  0
  -24.5830  -15.9080   20.3280 H   0  0  0  0  0  0  0  0  0  0  0  0
  -26.2050  -15.6760   19.9100 H   0  0  0  0  0  0  0  0  0  0  0  0
  -31.3920  -22.9310   19.2050 N   0  0  0  0  0  4  0  0  0  0  0  0
  -32.0690  -23.6430   18.9870 H   0  0  0  0  0  0  0  0  0  0  0  0
  -31.4290  -22.7830   20.2000 H   0  0  0  0  0  0  0  0  0  0  0  0
  -30.0670  -23.4920   18.8270 C   0  0  0  0  0  2  0  0  0  0  0  0
  -29.8120  -24.8410   19.5590 C   0  0  0  0  0  2  0  0  0  0  0  0
  -28.4110  -25.4640   19.3940 C   0  0  0  0  0  2  0  0  0  0  0  0
  -28.3700  -26.7350   20.0720 O   0  0  0  0  0  0  0  0  0  0  0  0
  -24.5960  -31.9080   23.2410 C   0  0  0  0  0  0  0  0  0  0  0  0
  -27.1820  -27.4450   20.0970 C   0  0  0  0  0  0  0  0  0  0  0  0
  -23.3680  -30.5160   21.6090 C   0  0  0  0  0  3  0  0  0  0  0  0
  -24.7940  -28.9770   20.1630 C   0  0  0  0  0  0  0  0  0  0  0  0
  -25.8960  -30.8540   21.3920 C   0  0  0  0  0  2  0  0  0  0  0  0
  -25.9640  -29.4840   20.7410 C   0  0  0  0  0  0  0  0  0  0  0  0
  -27.1580  -28.7270   20.7030 C   0  0  0  0  0  3  0  0  0  0  0  0
  -25.9830  -26.9500   19.5320 C   0  0  0  0  0  3  0  0  0  0  0  0
  -24.7990  -27.7090   19.5600 C   0  0  0  0  0  3  0  0  0  0  0  0
  -23.5570  -29.8440   20.2250 C   0  0  0  0  0  2  0  0  0  0  0  0
  -24.6390  -31.1080   22.1360 N   0  0  0  0  0  0  0  0  0  0  0  0
  -23.5220  -32.1860   23.7900 O   0  0  0  0  0  0  0  0  0  0  0  0
  -22.7230  -29.4930   22.5720 C   0  0  0  0  0  0  0  0  0  0  0  0
  -21.3970  -29.3090   22.4510 N   0  0  0  0  0  0  0  0  0  0  0  0
  -23.4100  -28.8690   23.3850 O   0  0  0  0  0  0  0  0  0  0  0  0
  -20.9010  -29.8700   21.7730 H   0  0  0  0  0  0  0  0  0  0  0  0
  -18.0310  -28.1010   22.9600 C   0  0  0  0  0  0  0  0  0  0  0  0
  -20.5870  -28.3700   23.2260 C   0  0  0  0  0  3  0  0  0  0  0  0
  -20.6930  -26.9360   22.6570 C   0  0  0  0  0  2  0  0  0  0  0  0
  -19.5910  -26.6050   21.6460 C   0  0  0  0  0  2  0  0  0  0  0  0
  -18.2100  -26.7480   22.2890 C   0  0  0  0  0  2  0  0  0  0  0  0
  -19.1460  -28.8700   23.3850 C   0  0  0  0  0  0  0  0  0  0  0  0
  -18.9250  -30.1380   23.9650 C   0  0  0  0  0  3  0  0  0  0  0  0
  -17.6170  -30.6350   24.1300 C   0  0  0  0  0  3  0  0  0  0  0  0
  -16.5170  -29.8650   23.7170 C   0  0  0  0  0  3  0  0  0  0  0  0
  -16.7240  -28.6000   23.1380 C   0  0  0  0  0  3  0  0  0  0  0  0
  -25.8910  -32.5310   23.8470 C   0  0  0  0  0  3  0  0  0  0  0  0
  -25.5920  -33.9300   24.1840 N   0  0  0  0  0  0  0  0  0  0  0  0
  -25.9240  -34.9820   23.4240 C   0  0  0  0  0  0  0  0  0  0  0  0
  -26.5910  -34.8780   22.3900 O   0  0  0  0  0  0  0  0  0  0  0  0
  -25.0010  -34.0870   24.9880 H   0  0  0  0  0  0  0  0  0  0  0  0
  -24.2040  -36.7830   23.0800 C   0  0  0  0  0  1  0  0  0  0  0  0
  -25.4450  -36.3700   23.8880 C   0  0  0  0  0  3  0  0  0  0  0  0
  -27.5870  -37.2370   24.7200 C   0  0  0  0  0  1  0  0  0  0  0  0
  -26.4850  -37.4180   23.7790 N   0  0  0  0  0  0  0  0  0  0  0  0
  -26.0840  -38.3390   23.9340 H   0  0  0  0  0  0  0  0  0  0  0  0
  -26.4190  -31.7570   25.1170 C   0  0  1  0  0  0  0  0  0  0  0  0
  -25.3380  -31.5220   26.1980 C   0  0  0  0  0  1  0  0  0  0  0  0
  -26.9940  -30.3800   24.7190 C   0  0  0  0  0  1  0  0  0  0  0  0
  -27.5770  -32.5480   25.7680 C   0  0  0  0  0  1  0  0  0  0  0  0
  1  4  1  0
  1 49  1  0
  2  6  1  0
  3  7  2  0
  3  4  1  0
  4  2  2  0
  5 10  1  0
  5  6  2  0
  6  8  1  0
  7  5  1  0
  9  7  1  0
 10 19  1  0
 11 19  1  0
 12 17  1  0
 13 14  1  0
 13 12  1  0
 15 14  1  0
 15 24  1  0
 15 16  1  0
 17 11  1  0
 17 16  1  0
 18 11  2  0
 19 20  1  0
 21 22  2  0
 22 23  1  0
 22 41  1  0
 23 26  1  0
 24 21  1  0
 24 25  1  0
 25 23  2  0
 26 27  1  0
 27 28  2  0
 29 32  1  0
 29 28  1  0
 30 29  2  0
 31 30  1  0
 31 26  2  0
 32 33  1  0
 33 34  1  0
 34 35  2  0
 36 35  1  0
 36 40  1  0
 37 36  2  0
 38 33  2  0
 38 37  1  0
 39 38  1  0
 41 42  1  0
 42 45  1  0
 42 44  1  0
 43 41  2  0
 46 47  1  0
 46 21  1  0
 48 46  1  0
 49 51  1  0
 50 49  1  0
 52 49  1  0
 52 53  1  0
 54 53  1  0
 54 55  1  0
 55 57  1  0
 56 67  2  0
 57 62  1  0
 58 66  1  0
 58 68  1  0
 59 65  1  0
 59 61  1  0
 60 66  1  0
 61 60  1  0
 62 61  2  0
 63 64  1  0
 63 57  2  0
 64 59  2  0
 65 58  1  0
 66 56  1  0
 68 70  2  0
 69 68  1  0
 71 69  1  0
 72 81  2  0
 72 77  1  0
 73 69  1  0
 73 77  1  0
 74 73  1  0
 75 76  1  0
 75 74  1  0
 76 72  1  0
 77 78  2  0
 78 79  1  0
 80 79  2  0
 81 80  1  0
 82 56  1  0
 82 83  1  0
 82 92  1  0
 83 86  1  0
 84 88  1  0
 84 83  1  0
 85 84  2  0
 88 87  1  0
 90 88  1  0
 90 91  1  0
 90 89  1  0
 92 95  1  1
 92 93  1  0
 94 92  1  0
M  ISO  4  11 100  19 100  54 101  55 101
M  END
>  <TORSDO>  (17) 
F 22

>  <SCORE>  (17) 
-12.719

>  <name>  (17) 
16

>  <ligand_id>  (17) 
16

>  <original_smiles>  (17) 
[H]c1c([H])c([H])c2c(c1[H])C([H])([H])C([H])([H])C([H])([H])C2([H])N([H])C(=O)C1([H])N(C(=O)C([H])(N([H])C(=O)C([H])(N([H])C([H])([H])[H])C([H])([H])[H])C(C([H])([H])[H])(C([H])([H])[H])C([H])([H])[H])C([H])([H])c2c([H])c(OC([H])([H])C([H])([H])C([H])([H])[N+]([H])([H])C([H])([H])c3c([H])c(Cl)c(C([H])([H])N([H])C(=O)N4C([H])([H])C([H])([H])C([H])([H])C([H])(n5nc(-c6c([H])c([H])c(Oc7c([H])c([H])c(F)c([H])c7F)c([H])c6[H])c(C(=O)N([H])[H])c5N([H])[H])C4([H])[H])c(Cl)c3[H])c([H])c([H])c2C1([H])[H]

>  <smiles>  (17) 
[H]c1c([H])c([H])c2c(c1[H])C([H])([H])C([H])([H])C([H])([H])C2([H])N([H])C(=O)C1([H])N(C(=O)C([H])(N([H])C(=O)C([H])(N([H])C([H])([H])[H])C([H])([H])[H])C(C([H])([H])[H])(C([H])([H])[H])C([H])([H])[H])C([H])([H])c2c([H])c(OC([H])([H])C([H])([H])C([H])([H])[N+]([H])([H])C([H])([H])c3c([H])c(Cl)c(C([H])([H])N([H])C(=O)N4C([H])([H])C([H])([H])C([H])([H])C([H])(n5nc(-c6c([H])c([H])c(Oc7c([H])c([H])c(F)c([H])c7F)c([H])c6[H])c(C(=O)N([H])[H])c5N([H])[H])C4([H])[H])c(Cl)c3[H])c([H])c([H])c2C1([H])[H]

$$$$
17:0:0
     RDKit          3D

100108  0  0  1  0  0  0  0  0999 V2000
  -29.5060  -23.7860   21.1650 C   0  0  0  0  0  3  0  0  0  0  0  0
  -29.3910  -21.4790   21.9330 C   0  0  0  0  0  3  0  0  0  0  0  0
  -29.1910  -22.8520   22.1690 C   0  0  0  0  0  0  0  0  0  0  0  0
  -30.0090  -23.3580   19.9170 C   0  0  0  0  0  0  0  0  0  0  0  0
  -29.9170  -21.0310   20.6990 C   0  0  0  0  0  0  0  0  0  0  0  0
  -30.2230  -21.9750   19.6880 C   0  0  0  0  0  0  0  0  0  0  0  0
  -28.6360  -23.3310   23.4960 C   0  0  0  0  0  1  0  0  0  0  0  0
  -30.8520  -21.4180   18.1700 Cl  0  0  0  0  0  0  0  0  0  0  0  0
  -30.1400  -19.6670   20.4440 N   0  0  0  0  0  0  0  0  0  0  0  0
  -30.5850  -19.4450   19.5580 H   0  0  0  0  0  0  0  0  0  0  0  0
  -30.3360  -18.7400   21.5510 C   0  0  0  0  0  2  0  0  0  0  0  0
  -30.6790  -17.3290   21.0620 C   0  0  0  0  0  2  0  0  0  0  0  0
  -32.0450  -17.2600   20.3520 C   0  0  0  0  0  2  0  0  0  0  0  0
  -32.7610  -15.9110   20.5230 C   0  0  0  0  0  2  0  0  0  0  0  0
  -31.9390  -13.9160   19.2690 C   0  0  0  0  0  0  0  0  0  0  0  0
  -31.2480  -11.6630   18.5440 C   0  0  0  0  0  2  0  0  0  0  0  0
  -30.1620  -11.6830   17.4570 C   0  0  0  0  0  2  0  0  0  0  0  0
  -28.7610  -11.7710   18.0880 C   0  0  0  0  0  2  0  0  0  0  0  0
  -28.6540  -12.9110   19.1320 C   0  0  0  0  0  3  0  0  0  0  0  0
  -29.8270  -12.8500   20.1350 C   0  0  0  0  0  2  0  0  0  0  0  0
  -31.0980  -12.8580   19.3850 N   0  0  0  0  0  0  0  0  0  0  0  0
  -32.7950  -14.0180   18.3850 O   0  0  0  0  0  0  0  0  0  0  0  0
  -31.8700  -14.7800   20.2860 N   0  0  0  0  0  0  0  0  0  0  0  0
  -31.1810  -14.5790   20.9950 H   0  0  0  0  0  0  0  0  0  0  0  0
  -26.5810  -13.9400   20.2650 C   0  0  0  0  0  0  0  0  0  0  0  0
  -25.4380  -13.3760   20.7640 C   0  0  0  0  0  0  0  0  0  0  0  0
  -25.5790  -11.9670   20.5790 C   0  0  0  0  0  0  0  0  0  0  0  0
  -27.3610  -12.8850   19.8140 N   0  0  0  0  0  0  0  0  0  0  0  0
  -26.7670  -11.6880   20.0550 N   0  0  0  0  0  0  0  0  0  0  0  0
  -24.6310  -10.8710   20.8180 C   0  0  0  0  0  0  0  0  0  0  0  0
  -24.9520   -9.7880   21.6680 C   0  0  0  0  0  3  0  0  0  0  0  0
  -24.0180   -8.7560   21.8960 C   0  0  0  0  0  3  0  0  0  0  0  0
  -22.7470   -8.7990   21.2750 C   0  0  0  0  0  0  0  0  0  0  0  0
  -22.4410   -9.8670   20.4120 C   0  0  0  0  0  3  0  0  0  0  0  0
  -23.3750  -10.8910   20.1820 C   0  0  0  0  0  3  0  0  0  0  0  0
  -21.7860   -7.8280   21.4160 O   0  0  0  0  0  0  0  0  0  0  0  0
  -21.6730   -7.0890   22.5670 C   0  0  0  0  0  0  0  0  0  0  0  0
  -21.4520   -7.6960   23.8220 C   0  0  0  0  0  3  0  0  0  0  0  0
  -21.2730   -6.8950   24.9680 C   0  0  0  0  0  3  0  0  0  0  0  0
  -21.3040   -5.4920   24.8600 C   0  0  0  0  0  0  0  0  0  0  0  0
  -21.5190   -4.8870   23.6090 C   0  0  0  0  0  3  0  0  0  0  0  0
  -21.7000   -5.6830   22.4660 C   0  0  0  0  0  0  0  0  0  0  0  0
  -21.8850   -5.0950   21.2600 F   0  0  0  0  0  0  0  0  0  0  0  0
  -21.1250   -4.7230   25.9600 F   0  0  0  0  0  0  0  0  0  0  0  0
  -24.2380  -14.1050   21.2970 C   0  0  0  0  0  0  0  0  0  0  0  0
  -23.5390  -13.5160   22.2610 N   0  0  0  0  0  0  0  0  0  0  0  0
  -23.9410  -15.2300   20.8940 O   0  0  0  0  0  0  0  0  0  0  0  0
  -23.7950  -12.6020   22.6070 H   0  0  0  0  0  0  0  0  0  0  0  0
  -22.7380  -13.9850   22.6590 H   0  0  0  0  0  0  0  0  0  0  0  0
  -27.0150  -15.2560   20.1400 N   0  0  0  0  0  0  0  0  0  0  0  0
  -26.4450  -16.0460   20.4220 H   0  0  0  0  0  0  0  0  0  0  0  0
  -27.8930  -15.5320   19.7190 H   0  0  0  0  0  0  0  0  0  0  0  0
  -30.2850  -24.4120   18.8500 C   0  0  0  0  0  2  0  0  0  0  0  0
  -28.3210  -23.9010   17.4230 C   0  0  0  0  0  1  0  0  0  0  0  0
  -29.0090  -24.9080   18.2690 N   0  0  2  0  0  4  0  0  0  0  0  0
  -28.4140  -25.0330   19.0770 H   0  0  0  0  0  0  0  0  0  0  0  0
  -30.0300  -26.3720   16.4650 C   0  0  0  0  0  1  0  0  0  0  0  0
  -29.0520  -26.2710   17.6540 C   0  0  0  0  0  3  0  0  0  0  0  0
  -29.3040  -27.3640   18.7170 C   0  0  0  0  0  2  0  0  0  0  0  0
  -28.5200  -27.1050   19.8790 O   0  0  0  0  0  0  0  0  0  0  0  0
  -24.6640  -31.9190   23.4040 C   0  0  0  0  0  0  0  0  0  0  0  0
  -27.3380  -27.7920   19.9600 C   0  0  0  0  0  0  0  0  0  0  0  0
  -23.4430  -30.5780   21.7200 C   0  0  0  0  0  3  0  0  0  0  0  0
  -24.8920  -29.1760   20.1590 C   0  0  0  0  0  0  0  0  0  0  0  0
  -25.9430  -31.0390   21.4580 C   0  0  0  0  0  2  0  0  0  0  0  0
  -26.0500  -29.7120   20.7390 C   0  0  0  0  0  0  0  0  0  0  0  0
  -27.2750  -29.0220   20.6470 C   0  0  0  0  0  3  0  0  0  0  0  0
  -26.1650  -27.2490   19.3950 C   0  0  0  0  0  3  0  0  0  0  0  0
  -24.9420  -27.9400   19.4900 C   0  0  0  0  0  3  0  0  0  0  0  0
  -23.6240  -29.9870   20.2960 C   0  0  0  0  0  2  0  0  0  0  0  0
  -24.7030  -31.1900   22.2530 N   0  0  0  0  0  0  0  0  0  0  0  0
  -23.5950  -32.1240   23.9950 O   0  0  0  0  0  0  0  0  0  0  0  0
  -22.8580  -29.4810   22.6380 C   0  0  0  0  0  0  0  0  0  0  0  0
  -21.5620  -29.1790   22.4580 N   0  0  0  0  0  0  0  0  0  0  0  0
  -23.5690  -28.9060   23.4670 O   0  0  0  0  0  0  0  0  0  0  0  0
  -21.0480  -29.7030   21.7640 H   0  0  0  0  0  0  0  0  0  0  0  0
  -18.3420  -27.5610   22.6930 C   0  0  0  0  0  0  0  0  0  0  0  0
  -20.8100  -28.1550   23.1800 C   0  0  0  0  0  3  0  0  0  0  0  0
  -21.1480  -26.7410   22.6560 C   0  0  0  0  0  2  0  0  0  0  0  0
  -20.1930  -26.2600   21.5580 C   0  0  0  0  0  2  0  0  0  0  0  0
  -18.7520  -26.2350   22.0750 C   0  0  0  0  0  2  0  0  0  0  0  0
  -19.3090  -28.4700   23.1980 C   0  0  0  0  0  0  0  0  0  0  0  0
  -18.8780  -29.7040   23.7300 C   0  0  0  0  0  3  0  0  0  0  0  0
  -17.5100  -30.0330   23.7650 C   0  0  0  0  0  3  0  0  0  0  0  0
  -16.5560  -29.1240   23.2790 C   0  0  0  0  0  3  0  0  0  0  0  0
  -16.9710  -27.8900   22.7490 C   0  0  0  0  0  3  0  0  0  0  0  0
  -25.9530  -32.5520   24.0170 C   0  0  0  0  0  3  0  0  0  0  0  0
  -26.4690  -31.7920   25.3000 C   0  0  1  0  0  0  0  0  0  0  0  0
  -25.3700  -31.5470   26.3610 C   0  0  0  0  0  1  0  0  0  0  0  0
  -27.0680  -30.4190   24.9140 C   0  0  0  0  0  1  0  0  0  0  0  0
  -27.6070  -32.6010   25.9660 C   0  0  0  0  0  1  0  0  0  0  0  0
  -25.6520  -33.9550   24.3270 N   0  0  0  0  0  0  0  0  0  0  0  0
  -26.0010  -34.9960   23.5590 C   0  0  0  0  0  0  0  0  0  0  0  0
  -26.6830  -34.8740   22.5360 O   0  0  0  0  0  0  0  0  0  0  0  0
  -25.0510  -34.1240   25.1200 H   0  0  0  0  0  0  0  0  0  0  0  0
  -24.2870  -36.7920   23.1630 C   0  0  0  0  0  1  0  0  0  0  0  0
  -25.5160  -36.3910   23.9920 C   0  0  0  0  0  3  0  0  0  0  0  0
  -27.6490  -37.2730   24.8330 C   0  0  0  0  0  1  0  0  0  0  0  0
  -26.5570  -37.4370   23.8760 N   0  0  0  0  0  0  0  0  0  0  0  0
  -26.1550  -38.3610   24.0090 H   0  0  0  0  0  0  0  0  0  0  0  0
  1  3  1  0
  2  3  2  0
  3  7  1  0
  4  1  2  0
  5  2  1  0
  6  4  1  0
  6  5  2  0
  8  6  1  0
  9  5  1  0
  9 11  1  0
 10  9  1  0
 12 11  1  0
 13 14  1  0
 13 12  1  0
 15 21  1  0
 15 23  1  0
 16 21  1  0
 17 18  1  0
 17 16  1  0
 19 18  1  0
 19 28  1  0
 19 20  1  0
 21 20  1  0
 22 15  2  0
 23 14  1  0
 23 24  1  0
 25 26  2  0
 26 45  1  0
 27 26  1  0
 27 30  1  0
 28 29  1  0
 28 25  1  0
 29 27  2  0
 30 31  1  0
 31 32  2  0
 33 36  1  0
 33 32  1  0
 34 33  2  0
 35 34  1  0
 35 30  2  0
 36 37  1  0
 37 38  1  0
 38 39  2  0
 40 39  1  0
 40 44  1  0
 41 40  2  0
 42 37  2  0
 42 41  1  0
 43 42  1  0
 45 46  1  0
 46 48  1  0
 46 49  1  0
 47 45  2  0
 50 25  1  0
 50 51  1  0
 52 50  1  0
 53  4  1  0
 54 55  1  0
 55 53  1  0
 55 56  1  1
 58 57  1  0
 58 55  1  0
 58 59  1  0
 59 60  1  0
 60 62  1  0
 61 72  2  0
 62 67  1  0
 63 71  1  0
 63 73  1  0
 64 70  1  0
 64 66  1  0
 65 71  1  0
 66 65  1  0
 67 66  2  0
 68 69  1  0
 68 62  2  0
 69 64  2  0
 70 63  1  0
 71 61  1  0
 73 75  2  0
 74 73  1  0
 76 74  1  0
 77 86  2  0
 77 82  1  0
 78 74  1  0
 78 82  1  0
 79 78  1  0
 80 81  1  0
 80 79  1  0
 81 77  1  0
 82 83  2  0
 83 84  1  0
 85 84  2  0
 86 85  1  0
 87 61  1  0
 87 92  1  0
 87 88  1  0
 88 91  1  1
 88 89  1  0
 90 88  1  0
 92 95  1  0
 93 97  1  0
 93 92  1  0
 94 93  2  0
 97 96  1  0
 99 97  1  0
 99100  1  0
 99 98  1  0
M  ISO  4  15 100  23 100  59 101  60 101
M  END
>  <TORSDO>  (18) 
F 25

>  <SCORE>  (18) 
-9.405

>  <name>  (18) 
17

>  <ligand_id>  (18) 
17

>  <original_smiles>  (18) 
[H]c1c([H])c([H])c2c(c1[H])C([H])([H])C([H])([H])C([H])([H])C2([H])N([H])C(=O)C1([H])N(C(=O)C([H])(N([H])C(=O)C([H])(N([H])C([H])([H])[H])C([H])([H])[H])C(C([H])([H])[H])(C([H])([H])[H])C([H])([H])[H])C([H])([H])c2c([H])c(OC([H])([H])C([H])(C([H])([H])[H])[N+]([H])(C([H])([H])[H])C([H])([H])c3c([H])c(C([H])([H])[H])c([H])c(N([H])C([H])([H])C([H])([H])C([H])([H])C([H])([H])N([H])C(=O)N4C([H])([H])C([H])([H])C([H])([H])C([H])(n5nc(-c6c([H])c([H])c(Oc7c([H])c([H])c(F)c([H])c7F)c([H])c6[H])c(C(=O)N([H])[H])c5N([H])[H])C4([H])[H])c3Cl)c([H])c([H])c2C1([H])[H]

>  <smiles>  (18) 
[H]c1c([H])c([H])c2c(c1[H])C([H])([H])C([H])([H])C([H])([H])C2([H])N([H])C(=O)C1([H])N(C(=O)C([H])(N([H])C(=O)C([H])(N([H])C([H])([H])[H])C([H])([H])[H])C(C([H])([H])[H])(C([H])([H])[H])C([H])([H])[H])C([H])([H])c2c([H])c(OC([H])([H])C([H])(C([H])([H])[H])[N+]([H])(C([H])([H])[H])C([H])([H])c3c([H])c(C([H])([H])[H])c([H])c(N([H])C([H])([H])C([H])([H])C([H])([H])C([H])([H])N([H])C(=O)N4C([H])([H])C([H])([H])C([H])([H])C([H])(n5nc(-c6c([H])c([H])c(Oc7c([H])c([H])c(F)c([H])c7F)c([H])c6[H])c(C(=O)N([H])[H])c5N([H])[H])C4([H])[H])c3Cl)c([H])c([H])c2C1([H])[H]

$$$$
18:0:0
     RDKit          3D

107116  0  0  1  0  0  0  0  0999 V2000
  -32.3050  -23.7140   19.2290 C   0  0  0  0  0  1  0  0  0  0  0  0
  -33.8230  -23.9510   19.3810 C   0  0  0  0  0  3  0  0  0  0  0  0
  -34.5200  -22.6730   19.6800 N   0  0  0  0  0  4  0  0  0  0  0  0
  -34.2980  -21.9870   18.9780 H   0  0  0  0  0  0  0  0  0  0  0  0
  -35.5110  -22.8380   19.6160 H   0  0  0  0  0  0  0  0  0  0  0  0
  -34.2850  -22.1100   21.0350 C   0  0  0  0  0  2  0  0  0  0  0  0
  -33.8170  -20.6390   21.0150 C   0  0  0  0  0  2  0  0  0  0  0  0
  -32.3130  -20.4610   20.7200 C   0  0  0  0  0  2  0  0  0  0  0  0
  -31.4470  -16.9850   19.3480 C   0  0  0  0  0  3  0  0  0  0  0  0
  -31.8500  -18.3290   19.4180 C   0  0  0  0  0  0  0  0  0  0  0  0
  -31.8880  -18.9920   20.6690 C   0  0  0  0  0  0  0  0  0  0  0  0
  -31.5070  -18.2890   21.8460 C   0  0  0  0  0  0  0  0  0  0  0  0
  -31.0890  -16.2640   20.5100 C   0  0  0  0  0  0  0  0  0  0  0  0
  -31.1000  -16.9290   21.7570 C   0  0  0  0  0  0  0  0  0  0  0  0
  -32.2090  -19.0310   18.1150 C   0  0  0  0  0  1  0  0  0  0  0  0
  -31.5110  -19.0030   23.1980 C   0  0  0  0  0  1  0  0  0  0  0  0
  -30.5910  -16.0540   23.1650 Cl  0  0  0  0  0  0  0  0  0  0  0  0
  -31.0750  -13.9280   19.6400 C   0  0  0  0  0  0  0  0  0  0  0  0
  -30.4520  -11.8340   18.5070 C   0  0  0  0  0  2  0  0  0  0  0  0
  -29.4300  -12.1310   17.3930 C   0  0  0  0  0  2  0  0  0  0  0  0
  -27.9960  -12.1130   17.9550 C   0  0  0  0  0  2  0  0  0  0  0  0
  -27.8480  -12.9750   19.2380 C   0  0  0  0  0  3  0  0  0  0  0  0
  -28.9740  -12.6620   20.2490 C   0  0  0  0  0  2  0  0  0  0  0  0
  -30.2710  -12.8340   19.5690 N   0  0  0  0  0  0  0  0  0  0  0  0
  -32.1070  -14.0310   18.9730 O   0  0  0  0  0  0  0  0  0  0  0  0
  -30.6590  -14.9030   20.4640 N   0  0  0  0  0  0  0  0  0  0  0  0
  -29.9190  -14.6600   21.1040 H   0  0  0  0  0  0  0  0  0  0  0  0
  -25.5840  -13.7730   20.1680 C   0  0  0  0  0  0  0  0  0  0  0  0
  -24.4920  -13.0890   20.6300 C   0  0  0  0  0  0  0  0  0  0  0  0
  -24.8300  -11.7020   20.5450 C   0  0  0  0  0  0  0  0  0  0  0  0
  -26.5240  -12.8100   19.8350 N   0  0  0  0  0  0  0  0  0  0  0  0
  -26.0770  -11.5590   20.1160 N   0  0  0  0  0  0  0  0  0  0  0  0
  -24.0200  -10.5030   20.7940 C   0  0  0  0  0  0  0  0  0  0  0  0
  -24.4270   -9.5130   21.7150 C   0  0  0  0  0  3  0  0  0  0  0  0
  -23.6220   -8.3780   21.9490 C   0  0  0  0  0  3  0  0  0  0  0  0
  -22.3940   -8.2240   21.2630 C   0  0  0  0  0  0  0  0  0  0  0  0
  -22.0040   -9.2010   20.3290 C   0  0  0  0  0  3  0  0  0  0  0  0
  -22.8090  -10.3290   20.0930 C   0  0  0  0  0  3  0  0  0  0  0  0
  -21.5590   -7.1430   21.4080 O   0  0  0  0  0  0  0  0  0  0  0  0
  -21.4860   -6.4430   22.5850 C   0  0  0  0  0  0  0  0  0  0  0  0
  -21.1490   -7.0700   23.8050 C   0  0  0  0  0  3  0  0  0  0  0  0
  -21.0170   -6.3000   24.9780 C   0  0  0  0  0  3  0  0  0  0  0  0
  -21.2110   -4.9070   24.9340 C   0  0  0  0  0  0  0  0  0  0  0  0
  -21.5400   -4.2810   23.7190 C   0  0  0  0  0  3  0  0  0  0  0  0
  -21.6740   -5.0460   22.5470 C   0  0  0  0  0  0  0  0  0  0  0  0
  -21.9710   -4.4350   21.3750 F   0  0  0  0  0  0  0  0  0  0  0  0
  -21.0760   -4.1670   26.0590 F   0  0  0  0  0  0  0  0  0  0  0  0
  -23.1720  -13.6760   21.0410 C   0  0  0  0  0  0  0  0  0  0  0  0
  -22.4850  -13.0420   21.9830 N   0  0  0  0  0  0  0  0  0  0  0  0
  -22.7670  -14.7330   20.5580 O   0  0  0  0  0  0  0  0  0  0  0  0
  -22.8280  -12.1860   22.3950 H   0  0  0  0  0  0  0  0  0  0  0  0
  -21.6020  -13.4190   22.3020 H   0  0  0  0  0  0  0  0  0  0  0  0
  -25.8500  -15.1270   19.9890 N   0  0  0  0  0  0  0  0  0  0  0  0
  -25.1610  -15.8460   20.1800 H   0  0  0  0  0  0  0  0  0  0  0  0
  -26.7110  -15.4950   19.6040 H   0  0  0  0  0  0  0  0  0  0  0  0
  -34.4570  -24.6780   18.1590 C   0  0  0  0  0  2  0  0  0  0  0  0
  -33.5560  -27.8370   15.9820 C   0  0  0  0  0  2  0  0  0  0  0  0
  -34.4400  -26.7130   16.5620 C   0  0  0  0  0  2  0  0  0  0  0  0
  -32.8440  -28.6660   17.0780 C   0  0  0  0  0  2  0  0  0  0  0  0
  -33.0720  -26.8250   18.6480 C   0  0  0  0  0  2  0  0  0  0  0  0
  -33.6430  -25.8670   17.5780 C   0  0  0  0  0  3  0  0  0  0  0  0
  -32.1200  -27.7740   18.0210 N   0  0  1  0  0  4  0  0  0  0  0  0
  -31.4960  -27.2310   17.4430 H   0  0  0  0  0  0  0  0  0  0  0  0
  -31.2350  -28.4850   18.9880 C   0  0  0  0  0  2  0  0  0  0  0  0
  -29.8470  -27.8110   19.1640 C   0  0  0  0  0  2  0  0  0  0  0  0
  -29.6530  -26.9240   20.4180 C   0  0  0  0  0  2  0  0  0  0  0  0
  -28.3760  -26.2920   20.4220 O   0  0  0  0  0  0  0  0  0  0  0  0
  -24.5570  -31.6390   23.2420 C   0  0  0  0  0  0  0  0  0  0  0  0
  -27.2410  -27.0670   20.4380 C   0  0  0  0  0  0  0  0  0  0  0  0
  -23.3700  -30.1700   21.6380 C   0  0  0  0  0  3  0  0  0  0  0  0
  -24.8390  -28.5470   20.3330 C   0  0  0  0  0  0  0  0  0  0  0  0
  -25.8970  -30.5040   21.4830 C   0  0  0  0  0  2  0  0  0  0  0  0
  -25.9830  -29.1050   20.9150 C   0  0  0  0  0  0  0  0  0  0  0  0
  -27.1840  -28.3750   20.9720 C   0  0  0  0  0  3  0  0  0  0  0  0
  -26.0750  -26.5040   19.8800 C   0  0  0  0  0  3  0  0  0  0  0  0
  -24.8750  -27.2380   19.8190 C   0  0  0  0  0  3  0  0  0  0  0  0
  -23.6030  -29.4160   20.3010 C   0  0  0  0  0  2  0  0  0  0  0  0
  -24.6240  -30.7870   22.1790 N   0  0  0  0  0  0  0  0  0  0  0  0
  -23.4680  -31.9540   23.7410 O   0  0  0  0  0  0  0  0  0  0  0  0
  -22.6840  -29.2070   22.6330 C   0  0  0  0  0  0  0  0  0  0  0  0
  -21.3670  -29.0110   22.4560 N   0  0  0  0  0  0  0  0  0  0  0  0
  -23.3320  -28.6370   23.5140 O   0  0  0  0  0  0  0  0  0  0  0  0
  -20.9090  -29.5290   21.7180 H   0  0  0  0  0  0  0  0  0  0  0  0
  -17.9840  -27.7990   22.8240 C   0  0  0  0  0  0  0  0  0  0  0  0
  -20.5140  -28.1170   23.2380 C   0  0  0  0  0  3  0  0  0  0  0  0
  -20.6710  -26.6490   22.7780 C   0  0  0  0  0  2  0  0  0  0  0  0
  -19.6400  -26.2330   21.7220 C   0  0  0  0  0  2  0  0  0  0  0  0
  -18.2180  -26.4050   22.2660 C   0  0  0  0  0  2  0  0  0  0  0  0
  -19.0640  -28.6100   23.2650 C   0  0  0  0  0  0  0  0  0  0  0  0
  -18.7950  -29.9100   23.7400 C   0  0  0  0  0  3  0  0  0  0  0  0
  -17.4770  -30.4020   23.7850 C   0  0  0  0  0  3  0  0  0  0  0  0
  -16.4100  -29.5900   23.3630 C   0  0  0  0  0  3  0  0  0  0  0  0
  -16.6640  -28.2920   22.8880 C   0  0  0  0  0  3  0  0  0  0  0  0
  -25.8390  -32.2770   23.8640 C   0  0  0  0  0  3  0  0  0  0  0  0
  -26.3520  -31.5190   25.1510 C   0  0  1  0  0  0  0  0  0  0  0  0
  -25.2530  -31.2860   26.2130 C   0  0  0  0  0  1  0  0  0  0  0  0
  -26.9450  -30.1420   24.7710 C   0  0  0  0  0  1  0  0  0  0  0  0
  -27.4900  -32.3300   25.8160 C   0  0  0  0  0  1  0  0  0  0  0  0
  -25.5270  -33.6780   24.1720 N   0  0  0  0  0  0  0  0  0  0  0  0
  -25.8700  -34.7200   23.4030 C   0  0  0  0  0  0  0  0  0  0  0  0
  -26.5550  -34.6060   22.3830 O   0  0  0  0  0  0  0  0  0  0  0  0
  -24.9220  -33.8440   24.9640 H   0  0  0  0  0  0  0  0  0  0  0  0
  -24.1410  -36.5020   23.0060 C   0  0  0  0  0  1  0  0  0  0  0  0
  -25.3740  -36.1120   23.8360 C   0  0  0  0  0  3  0  0  0  0  0  0
  -27.4990  -37.0130   24.6770 C   0  0  0  0  0  1  0  0  0  0  0  0
  -26.4030  -37.1680   23.7220 N   0  0  0  0  0  0  0  0  0  0  0  0
  -25.9910  -38.0870   23.8590 H   0  0  0  0  0  0  0  0  0  0  0  0
  2  1  1  0
  2  3  1  0
  3  6  1  0
  4  3  1  0
  5  3  1  0
  7  6  1  0
  8  7  1  0
  9 10  2  0
  9 13  1  0
 10 11  1  0
 11  8  1  0
 11 12  2  0
 12 16  1  0
 13 14  2  0
 14 12  1  0
 14 17  1  0
 15 10  1  0
 18 26  1  0
 19 24  1  0
 20 21  1  0
 20 19  1  0
 22 21  1  0
 22 31  1  0
 22 23  1  0
 24 18  1  0
 24 23  1  0
 25 18  2  0
 26 13  1  0
 26 27  1  0
 28 29  2  0
 29 48  1  0
 30 29  1  0
 30 33  1  0
 31 32  1  0
 31 28  1  0
 32 30  2  0
 33 34  1  0
 34 35  2  0
 36 39  1  0
 36 35  1  0
 37 36  2  0
 38 37  1  0
 38 33  2  0
 39 40  1  0
 40 41  1  0
 41 42  2  0
 43 42  1  0
 43 47  1  0
 44 43  2  0
 45 40  2  0
 45 44  1  0
 46 45  1  0
 48 49  1  0
 49 52  1  0
 49 51  1  0
 50 48  2  0
 53 28  1  0
 53 54  1  0
 55 53  1  0
 56  2  1  0
 57 58  1  0
 57 59  1  0
 58 61  1  0
 59 62  1  0
 61 56  1  0
 61 60  1  0
 62 60  1  0
 62 64  1  0
 62 63  1  6
 64 65  1  0
 65 66  1  0
 66 67  1  0
 67 69  1  0
 68 79  2  0
 69 74  1  0
 70 78  1  0
 70 80  1  0
 71 73  1  0
 72 78  1  0
 73 74  2  0
 73 72  1  0
 75 69  2  0
 76 75  1  0
 76 71  2  0
 77 71  1  0
 77 70  1  0
 78 68  1  0
 80 82  2  0
 81 80  1  0
 83 81  1  0
 84 93  2  0
 84 89  1  0
 85 81  1  0
 85 89  1  0
 86 85  1  0
 87 88  1  0
 87 86  1  0
 88 84  1  0
 89 90  2  0
 90 91  1  0
 92 91  2  0
 93 92  1  0
 94 68  1  0
 94 99  1  0
 94 95  1  0
 95 98  1  1
 95 96  1  0
 97 95  1  0
 99102  1  0
100104  1  0
100 99  1  0
101100  2  0
104103  1  0
106104  1  0
106107  1  0
106105  1  0
M  ISO  4  18 100  26 100  66 101  67 101
M  END
>  <TORSDO>  (19) 
F 26

>  <SCORE>  (19) 
-9.683

>  <name>  (19) 
18

>  <ligand_id>  (19) 
18

>  <original_smiles>  (19) 
[H]c1c([H])c([H])c2c(c1[H])C([H])([H])C([H])([H])C([H])([H])C2([H])N([H])C(=O)C1([H])N(C(=O)C([H])(N([H])C(=O)C([H])(N([H])C([H])([H])[H])C([H])([H])[H])C(C([H])([H])[H])(C([H])([H])[H])C([H])([H])[H])C([H])([H])c2c([H])c(OC([H])([H])C([H])([H])C([H])([H])[N+]3([H])C([H])([H])C([H])([H])C([H])([H])C([H])(C([H])([H])C([H])(C([H])([H])[H])[N+]([H])([H])C([H])([H])C([H])([H])C([H])([H])c4c(C([H])([H])[H])c([H])c(N([H])C(=O)N5C([H])([H])C([H])([H])C([H])([H])C([H])(n6nc(-c7c([H])c([H])c(Oc8c([H])c([H])c(F)c([H])c8F)c([H])c7[H])c(C(=O)N([H])[H])c6N([H])[H])C5([H])[H])c(Cl)c4C([H])([H])[H])C3([H])[H])c([H])c([H])c2C1([H])[H]

>  <smiles>  (19) 
[H]c1c([H])c([H])c2c(c1[H])C([H])([H])C([H])([H])C([H])([H])C2([H])N([H])C(=O)C1([H])N(C(=O)C([H])(N([H])C(=O)C([H])(N([H])C([H])([H])[H])C([H])([H])[H])C(C([H])([H])[H])(C([H])([H])[H])C([H])([H])[H])C([H])([H])c2c([H])c(OC([H])([H])C([H])([H])C([H])([H])[N+]3([H])C([H])([H])C([H])([H])C([H])([H])C([H])(C([H])([H])C([H])(C([H])([H])[H])[N+]([H])([H])C([H])([H])C([H])([H])C([H])([H])c4c(C([H])([H])[H])c([H])c(N([H])C(=O)N5C([H])([H])C([H])([H])C([H])([H])C([H])(n6nc(-c7c([H])c([H])c(Oc8c([H])c([H])c(F)c([H])c8F)c([H])c7[H])c(C(=O)N([H])[H])c6N([H])[H])C5([H])[H])c(Cl)c4C([H])([H])[H])C3([H])[H])c([H])c([H])c2C1([H])[H]

$$$$
19:0:0
     RDKit          3D

 90 98  0  0  1  0  0  0  0  0999 V2000
  -30.6830  -19.1490   21.3250 C   0  0  0  0  0  0  0  0  0  0  0  0
  -30.1140  -19.3410   20.0850 C   0  0  0  0  0  0  0  0  0  0  0  0
  -30.6920  -20.3840   21.9920 C   0  0  0  0  0  0  0  0  0  0  0  0
  -30.1890  -21.3590   21.2840 N   0  0  0  0  0  0  0  0  0  0  0  0
  -29.8200  -20.8380   20.0820 N   0  0  0  0  0  0  0  0  0  0  0  0
  -31.3040  -17.6880   22.0210 Cl  0  0  0  0  0  0  0  0  0  0  0  0
  -31.2880  -20.6500   23.5900 Cl  0  0  0  0  0  0  0  0  0  0  0  0
  -29.9770  -18.0540   19.0780 C   0  0  0  0  0  2  0  0  0  0  0  0
  -30.7200  -15.3900   19.5350 C   0  0  0  0  0  0  0  0  0  0  0  0
  -30.6730  -12.9250   18.9440 C   0  0  0  0  0  2  0  0  0  0  0  0
  -29.6970  -12.6930   17.7670 C   0  0  0  0  0  2  0  0  0  0  0  0
  -28.2610  -12.4910   18.2860 C   0  0  0  0  0  2  0  0  0  0  0  0
  -27.8630  -13.5410   19.3610 C   0  0  0  0  0  3  0  0  0  0  0  0
  -28.9640  -13.7380   20.4250 C   0  0  0  0  0  2  0  0  0  0  0  0
  -30.1910  -14.1120   19.7100 N   0  0  0  0  0  0  0  0  0  0  0  0
  -31.8950  -15.4680   19.1590 O   0  0  0  0  0  0  0  0  0  0  0  0
  -29.8800  -16.5390   19.5700 N   0  0  0  0  0  0  0  0  0  0  0  0
  -28.9630  -16.3170   19.9260 H   0  0  0  0  0  0  0  0  0  0  0  0
  -25.5740  -14.1520   20.3240 C   0  0  0  0  0  0  0  0  0  0  0  0
  -24.5190  -13.3920   20.7490 C   0  0  0  0  0  0  0  0  0  0  0  0
  -24.9330  -12.0310   20.6160 C   0  0  0  0  0  0  0  0  0  0  0  0
  -26.5640  -13.2550   19.9570 N   0  0  0  0  0  0  0  0  0  0  0  0
  -26.1920  -11.9700   20.1970 N   0  0  0  0  0  0  0  0  0  0  0  0
  -24.1790  -10.7840   20.8080 C   0  0  0  0  0  0  0  0  0  0  0  0
  -24.5860   -9.8140   21.7500 C   0  0  0  0  0  3  0  0  0  0  0  0
  -23.8340   -8.6330   21.9310 C   0  0  0  0  0  3  0  0  0  0  0  0
  -22.6590   -8.4150   21.1710 C   0  0  0  0  0  0  0  0  0  0  0  0
  -22.2720   -9.3730   20.2180 C   0  0  0  0  0  3  0  0  0  0  0  0
  -23.0250  -10.5450   20.0340 C   0  0  0  0  0  3  0  0  0  0  0  0
  -21.8790   -7.2880   21.2610 O   0  0  0  0  0  0  0  0  0  0  0  0
  -21.7390   -6.6030   22.4410 C   0  0  0  0  0  0  0  0  0  0  0  0
  -21.1950   -7.2070   23.5960 C   0  0  0  0  0  3  0  0  0  0  0  0
  -21.0070   -6.4450   24.7670 C   0  0  0  0  0  3  0  0  0  0  0  0
  -21.3510   -5.0810   24.7820 C   0  0  0  0  0  0  0  0  0  0  0  0
  -21.8870   -4.4760   23.6320 C   0  0  0  0  0  3  0  0  0  0  0  0
  -22.0780   -5.2350   22.4640 C   0  0  0  0  0  0  0  0  0  0  0  0
  -22.5760   -4.6430   21.3520 F   0  0  0  0  0  0  0  0  0  0  0  0
  -21.1620   -4.3460   25.9040 F   0  0  0  0  0  0  0  0  0  0  0  0
  -23.1670  -13.8990   21.1570 C   0  0  0  0  0  0  0  0  0  0  0  0
  -22.4940  -13.1950   22.0610 N   0  0  0  0  0  0  0  0  0  0  0  0
  -22.7200  -14.9540   20.7090 O   0  0  0  0  0  0  0  0  0  0  0  0
  -22.8680  -12.3390   22.4430 H   0  0  0  0  0  0  0  0  0  0  0  0
  -21.5900  -13.5190   22.3740 H   0  0  0  0  0  0  0  0  0  0  0  0
  -25.7630  -15.5240   20.1910 N   0  0  0  0  0  0  0  0  0  0  0  0
  -25.0180  -16.1840   20.3840 H   0  0  0  0  0  0  0  0  0  0  0  0
  -26.5670  -15.9550   19.7550 H   0  0  0  0  0  0  0  0  0  0  0  0
  -29.1560  -22.0190   19.2600 C   0  0  0  0  0  2  0  0  0  0  0  0
  -29.1800  -23.6530   19.7940 C   0  0  0  0  0  3  0  0  0  0  0  0
  -28.2040  -24.9590   19.3180 C   0  0  0  0  0  3  0  0  0  0  0  0
  -28.2880  -26.4690   19.7490 O   0  0  0  0  0  0  0  0  0  0  0  0
  -24.5750  -31.8320   23.2060 C   0  0  0  0  0  0  0  0  0  0  0  0
  -27.1870  -27.4140   19.7600 C   0  0  0  0  0  0  0  0  0  0  0  0
  -23.3540  -30.4870   21.5410 C   0  0  0  0  0  3  0  0  0  0  0  0
  -24.7930  -29.0690   19.9480 C   0  0  0  0  0  0  0  0  0  0  0  0
  -25.8860  -30.8650   21.2780 C   0  0  0  0  0  2  0  0  0  0  0  0
  -25.9810  -29.5200   20.5350 C   0  0  0  0  0  0  0  0  0  0  0  0
  -27.1730  -28.7080   20.4280 C   0  0  0  0  0  3  0  0  0  0  0  0
  -25.9690  -27.0790   19.1250 C   0  0  0  0  0  3  0  0  0  0  0  0
  -24.8010  -27.8650   19.2290 C   0  0  0  0  0  3  0  0  0  0  0  0
  -23.5320  -29.9040   20.1140 C   0  0  0  0  0  2  0  0  0  0  0  0
  -24.6270  -31.0810   22.0630 N   0  0  0  0  0  0  0  0  0  0  0  0
  -23.5050  -32.0400   23.7970 O   0  0  0  0  0  0  0  0  0  0  0  0
  -22.7620  -29.3960   22.4690 C   0  0  0  0  0  0  0  0  0  0  0  0
  -21.4610  -29.0970   22.3130 N   0  0  0  0  0  0  0  0  0  0  0  0
  -23.4770  -28.8250   23.2960 O   0  0  0  0  0  0  0  0  0  0  0  0
  -20.9340  -29.6130   21.6220 H   0  0  0  0  0  0  0  0  0  0  0  0
  -18.2320  -27.4950   22.6650 C   0  0  0  0  0  0  0  0  0  0  0  0
  -20.7240  -28.0670   23.0490 C   0  0  0  0  0  3  0  0  0  0  0  0
  -21.0260  -26.6580   22.4880 C   0  0  0  0  0  2  0  0  0  0  0  0
  -20.0200  -26.2060   21.4240 C   0  0  0  0  0  2  0  0  0  0  0  0
  -18.6020  -26.1790   22.0030 C   0  0  0  0  0  2  0  0  0  0  0  0
  -19.2270  -28.3880   23.1430 C   0  0  0  0  0  0  0  0  0  0  0  0
  -18.8270  -29.6110   23.7240 C   0  0  0  0  0  3  0  0  0  0  0  0
  -17.4640  -29.9460   23.8310 C   0  0  0  0  0  3  0  0  0  0  0  0
  -16.4820  -29.0530   23.3690 C   0  0  0  0  0  3  0  0  0  0  0  0
  -16.8660  -27.8290   22.7910 C   0  0  0  0  0  3  0  0  0  0  0  0
  -25.8540  -32.4830   23.8130 C   0  0  0  0  0  3  0  0  0  0  0  0
  -26.3750  -31.7390   25.1050 C   0  0  1  0  0  0  0  0  0  0  0  0
  -25.2820  -31.5200   26.1760 C   0  0  0  0  0  1  0  0  0  0  0  0
  -26.9610  -30.3550   24.7450 C   0  0  0  0  0  1  0  0  0  0  0  0
  -27.5250  -32.5490   25.7480 C   0  0  0  0  0  1  0  0  0  0  0  0
  -25.5410  -33.8880   24.1230 N   0  0  0  0  0  0  0  0  0  0  0  0
  -25.8630  -34.9310   23.3460 C   0  0  0  0  0  0  0  0  0  0  0  0
  -26.5190  -34.8130   22.3080 O   0  0  0  0  0  0  0  0  0  0  0  0
  -24.9540  -34.0540   24.9280 H   0  0  0  0  0  0  0  0  0  0  0  0
  -24.1180  -36.7110   23.0000 C   0  0  0  0  0  1  0  0  0  0  0  0
  -25.3790  -36.3270   23.7900 C   0  0  0  0  0  3  0  0  0  0  0  0
  -27.5200  -37.2460   24.5660 C   0  0  0  0  0  1  0  0  0  0  0  0
  -26.4050  -37.3830   23.6330 N   0  0  0  0  0  0  0  0  0  0  0  0
  -25.9960  -38.3040   23.7590 H   0  0  0  0  0  0  0  0  0  0  0  0
  1  3  1  0
  1  6  1  0
  2  1  2  0
  3  7  1  0
  4  3  2  0
  5  2  1  0
  5  4  1  0
  8 17  1  0
  8  2  1  0
  9 17  1  0
  9 15  1  0
 10 15  1  0
 11 12  1  0
 11 10  1  0
 13 12  1  0
 13 22  1  0
 13 14  1  0
 15 14  1  0
 16  9  2  0
 17 18  1  0
 19 20  2  0
 20 39  1  0
 21 20  1  0
 21 24  1  0
 22 23  1  0
 22 19  1  0
 23 21  2  0
 24 25  1  0
 25 26  2  0
 27 30  1  0
 27 26  1  0
 28 27  2  0
 29 28  1  0
 29 24  2  0
 30 31  1  0
 31 36  2  0
 31 32  1  0
 32 33  2  0
 33 34  1  0
 34 38  1  0
 35 34  2  0
 36 35  1  0
 37 36  1  0
 39 40  1  0
 40 43  1  0
 40 42  1  0
 41 39  2  0
 44 19  1  0
 44 45  1  0
 46 44  1  0
 47 48  1  0
 47  5  1  0
 49 50  1  0
 49 48  2  0
 50 52  1  0
 51 62  2  0
 52 57  1  0
 53 61  1  0
 53 63  1  0
 54 60  1  0
 54 56  1  0
 55 61  1  0
 56 55  1  0
 57 56  2  0
 58 59  1  0
 58 52  2  0
 59 54  2  0
 60 53  1  0
 61 51  1  0
 63 65  2  0
 64 63  1  0
 66 64  1  0
 67 76  2  0
 67 72  1  0
 68 64  1  0
 68 72  1  0
 69 68  1  0
 70 71  1  0
 70 69  1  0
 71 67  1  0
 72 73  2  0
 73 74  1  0
 75 74  2  0
 76 75  1  0
 77 51  1  0
 77 82  1  0
 77 78  1  0
 78 81  1  1
 78 79  1  0
 80 78  1  0
 82 85  1  0
 83 87  1  0
 83 82  1  0
 84 83  2  0
 87 86  1  0
 89 90  1  0
 89 87  1  0
 89 88  1  0
M  ISO  4   9 100  17 100  49 101  50 101
M  END
>  <TORSDO>  (20) 
F 20

>  <SCORE>  (20) 
-14.586

>  <name>  (20) 
19

>  <ligand_id>  (20) 
19

>  <original_smiles>  (20) 
[H]c1c([H])c([H])c2c(c1[H])C([H])([H])C([H])([H])C([H])([H])C2([H])N([H])C(=O)C1([H])N(C(=O)C([H])(N([H])C(=O)C([H])(N([H])C([H])([H])[H])C([H])([H])[H])C(C([H])([H])[H])(C([H])([H])[H])C([H])([H])[H])C([H])([H])c2c([H])c(OC([H])([H])C([H])([H])C([H])([H])n3nc(Cl)c(Cl)c3C([H])([H])N([H])C(=O)N3C([H])([H])C([H])([H])C([H])([H])C([H])(n4nc(-c5c([H])c([H])c(Oc6c([H])c([H])c(F)c([H])c6F)c([H])c5[H])c(C(=O)N([H])[H])c4N([H])[H])C3([H])[H])c([H])c([H])c2C1([H])[H]

>  <smiles>  (20) 
[H]c1c([H])c([H])c2c(c1[H])C([H])([H])C([H])([H])C([H])([H])C2([H])N([H])C(=O)C1([H])N(C(=O)C([H])(N([H])C(=O)C([H])(N([H])C([H])([H])[H])C([H])([H])[H])C(C([H])([H])[H])(C([H])([H])[H])C([H])([H])[H])C([H])([H])c2c([H])c(OC([H])([H])C([H])([H])C([H])([H])n3nc(Cl)c(Cl)c3C([H])([H])N([H])C(=O)N3C([H])([H])C([H])([H])C([H])([H])C([H])(n4nc(-c5c([H])c([H])c(Oc6c([H])c([H])c(F)c([H])c6F)c([H])c5[H])c(C(=O)N([H])[H])c4N([H])[H])C3([H])[H])c([H])c([H])c2C1([H])[H]

$$$$
20:0:0
     RDKit          3D

 97105  0  0  1  0  0  0  0  0999 V2000
  -32.8060  -18.0020   19.4630 C   0  0  0  0  0  2  0  0  0  0  0  0
  -33.1240  -19.4850   19.2910 C   0  0  0  0  0  2  0  0  0  0  0  0
  -31.1590  -20.1130   20.5780 C   0  0  0  0  0  2  0  0  0  0  0  0
  -30.9580  -18.6540   21.1810 C   0  0  0  0  0  3  0  0  0  0  0  0
  -32.1560  -17.6690   20.8430 C   0  0  0  0  0  3  0  0  0  0  0  0
  -31.8350  -20.1970   19.2500 N   0  0  1  0  0  4  0  0  0  0  0  0
  -31.2840  -19.6420   18.6110 H   0  0  0  0  0  0  0  0  0  0  0  0
  -31.7330  -15.2540   20.0520 C   0  0  0  0  0  0  0  0  0  0  0  0
  -31.5240  -12.8130   19.9000 C   0  0  0  0  0  2  0  0  0  0  0  0
  -30.6910  -12.2910   18.7160 C   0  0  0  0  0  2  0  0  0  0  0  0
  -29.2060  -12.2120   19.0970 C   0  0  0  0  0  2  0  0  0  0  0  0
  -28.6860  -13.5320   19.7160 C   0  0  0  0  0  3  0  0  0  0  0  0
  -29.6330  -14.0480   20.8350 C   0  0  0  0  0  2  0  0  0  0  0  0
  -31.0200  -14.1250   20.3360 N   0  0  0  0  0  0  0  0  0  0  0  0
  -32.4960  -15.2870   19.0860 O   0  0  0  0  0  0  0  0  0  0  0  0
  -32.4440  -15.6500   22.2600 C   0  0  0  0  0  1  0  0  0  0  0  0
  -31.8320  -16.1990   21.0320 N   0  0  0  0  0  0  0  0  0  0  0  0
  -26.3280  -14.3380   20.3910 C   0  0  0  0  0  0  0  0  0  0  0  0
  -25.1860  -13.6630   20.7150 C   0  0  0  0  0  0  0  0  0  0  0  0
  -25.5180  -12.2740   20.6630 C   0  0  0  0  0  0  0  0  0  0  0  0
  -27.3020  -13.3750   20.1760 N   0  0  0  0  0  0  0  0  0  0  0  0
  -26.8090  -12.1260   20.3940 N   0  0  0  0  0  0  0  0  0  0  0  0
  -24.6740  -11.0820   20.8180 C   0  0  0  0  0  0  0  0  0  0  0  0
  -24.9960  -10.0710   21.7500 C   0  0  0  0  0  3  0  0  0  0  0  0
  -24.1630   -8.9420   21.9040 C   0  0  0  0  0  3  0  0  0  0  0  0
  -22.9940   -8.8100   21.1180 C   0  0  0  0  0  0  0  0  0  0  0  0
  -22.6860   -9.8090   20.1810 C   0  0  0  0  0  3  0  0  0  0  0  0
  -23.5150  -10.9330   20.0280 C   0  0  0  0  0  3  0  0  0  0  0  0
  -22.1460   -7.7290   21.1730 O   0  0  0  0  0  0  0  0  0  0  0  0
  -22.0040   -6.9770   22.3120 C   0  0  0  0  0  0  0  0  0  0  0  0
  -21.5520   -7.5450   23.5220 C   0  0  0  0  0  3  0  0  0  0  0  0
  -21.3540   -6.7260   24.6540 C   0  0  0  0  0  3  0  0  0  0  0  0
  -21.5900   -5.3430   24.5700 C   0  0  0  0  0  0  0  0  0  0  0  0
  -22.0360   -4.7740   23.3650 C   0  0  0  0  0  3  0  0  0  0  0  0
  -22.2360   -5.5880   22.2360 C   0  0  0  0  0  0  0  0  0  0  0  0
  -22.6410   -5.0310   21.0700 F   0  0  0  0  0  0  0  0  0  0  0  0
  -21.3960   -4.5580   25.6580 F   0  0  0  0  0  0  0  0  0  0  0  0
  -23.8310  -14.2520   20.9770 C   0  0  0  0  0  0  0  0  0  0  0  0
  -23.0390  -13.6180   21.8330 N   0  0  0  0  0  0  0  0  0  0  0  0
  -23.4890  -15.3200   20.4640 O   0  0  0  0  0  0  0  0  0  0  0  0
  -23.3330  -12.7460   22.2560 H   0  0  0  0  0  0  0  0  0  0  0  0
  -22.1310  -13.9970   22.0620 H   0  0  0  0  0  0  0  0  0  0  0  0
  -26.6250  -15.6910   20.2400 N   0  0  0  0  0  0  0  0  0  0  0  0
  -25.9220  -16.4170   20.3110 H   0  0  0  0  0  0  0  0  0  0  0  0
  -27.5400  -16.0400   19.9920 H   0  0  0  0  0  0  0  0  0  0  0  0
  -29.4210  -17.7210   23.1380 C   0  0  0  0  0  1  0  0  0  0  0  0
  -29.9180  -20.1470   23.0260 C   0  0  0  0  0  1  0  0  0  0  0  0
  -31.6950  -18.5560   23.7060 C   0  0  0  0  0  1  0  0  0  0  0  0
  -30.5140  -18.7450   22.7230 C   0  0  2  0  0  0  0  0  0  0  0  0
  -33.0180  -22.4510   19.1950 C   0  0  0  0  0  1  0  0  0  0  0  0
  -31.9120  -21.5530   18.6030 C   0  0  0  0  0  3  0  0  0  0  0  0
  -30.5260  -22.2510   18.5990 C   0  0  0  0  0  2  0  0  0  0  0  0
  -30.4600  -23.6760   18.0040 C   0  0  0  0  0  2  0  0  0  0  0  0
  -29.0660  -24.3020   18.2250 C   0  0  0  0  0  2  0  0  0  0  0  0
  -28.9830  -25.8110   17.9470 C   0  0  0  0  0  2  0  0  0  0  0  0
  -27.6000  -26.4000   18.2920 C   0  0  0  0  0  2  0  0  0  0  0  0
  -27.5550  -27.7870   17.9430 O   0  0  0  0  0  0  0  0  0  0  0  0
  -24.3770  -31.5790   23.0070 C   0  0  0  0  0  0  0  0  0  0  0  0
  -26.3950  -28.4130   18.3300 C   0  0  0  0  0  0  0  0  0  0  0  0
  -22.8780  -30.5740   21.3180 C   0  0  0  0  0  3  0  0  0  0  0  0
  -24.0190  -29.6280   19.2460 C   0  0  0  0  0  0  0  0  0  0  0  0
  -25.2710  -31.2210   20.7040 C   0  0  0  0  0  2  0  0  0  0  0  0
  -25.2610  -30.0860   19.6990 C   0  0  0  0  0  0  0  0  0  0  0  0
  -26.4560  -29.4990   19.2270 C   0  0  0  0  0  3  0  0  0  0  0  0
  -25.1370  -27.9630   17.8680 C   0  0  0  0  0  3  0  0  0  0  0  0
  -23.9490  -28.5680   18.3270 C   0  0  0  0  0  3  0  0  0  0  0  0
  -22.7900  -30.3220   19.7940 C   0  0  0  0  0  2  0  0  0  0  0  0
  -24.2110  -31.1170   21.7340 N   0  0  0  0  0  0  0  0  0  0  0  0
  -23.4330  -31.5970   23.8080 O   0  0  0  0  0  0  0  0  0  0  0  0
  -22.4840  -29.2760   22.0530 C   0  0  0  0  0  0  0  0  0  0  0  0
  -21.1840  -28.9400   22.0080 N   0  0  0  0  0  0  0  0  0  0  0  0
  -23.3330  -28.5860   22.6250 O   0  0  0  0  0  0  0  0  0  0  0  0
  -20.5580  -29.5580   21.5100 H   0  0  0  0  0  0  0  0  0  0  0  0
  -18.0860  -27.1170   22.3860 C   0  0  0  0  0  0  0  0  0  0  0  0
  -20.5850  -27.7430   22.5980 C   0  0  0  0  0  3  0  0  0  0  0  0
  -20.8680  -26.4970   21.7310 C   0  0  0  0  0  2  0  0  0  0  0  0
  -19.7580  -26.1980   20.7200 C   0  0  0  0  0  2  0  0  0  0  0  0
  -18.4220  -25.9780   21.4350 C   0  0  0  0  0  2  0  0  0  0  0  0
  -19.1000  -27.9570   22.9170 C   0  0  0  0  0  0  0  0  0  0  0  0
  -18.7360  -29.0240   23.7660 C   0  0  0  0  0  3  0  0  0  0  0  0
  -17.3840  -29.2600   24.0830 C   0  0  0  0  0  3  0  0  0  0  0  0
  -16.3850  -28.4180   23.5680 C   0  0  0  0  0  3  0  0  0  0  0  0
  -16.7360  -27.3420   22.7320 C   0  0  0  0  0  3  0  0  0  0  0  0
  -25.7490  -32.1280   23.5060 C   0  0  0  0  0  3  0  0  0  0  0  0
  -25.5090  -33.4670   24.0590 N   0  0  0  0  0  0  0  0  0  0  0  0
  -25.7420  -34.6130   23.4020 C   0  0  0  0  0  0  0  0  0  0  0  0
  -26.2540  -34.6480   22.2780 O   0  0  0  0  0  0  0  0  0  0  0  0
  -25.0350  -33.5080   24.9480 H   0  0  0  0  0  0  0  0  0  0  0  0
  -23.9900  -36.4160   23.5540 C   0  0  0  0  0  1  0  0  0  0  0  0
  -25.3420  -35.9270   24.0990 C   0  0  0  0  0  3  0  0  0  0  0  0
  -27.5820  -36.7290   24.7040 C   0  0  0  0  0  1  0  0  0  0  0  0
  -26.3550  -37.0000   23.9620 N   0  0  0  0  0  0  0  0  0  0  0  0
  -25.9810  -37.8890   24.2850 H   0  0  0  0  0  0  0  0  0  0  0  0
  -26.4440  -31.1950   24.5710 C   0  0  1  0  0  0  0  0  0  0  0  0
  -25.5190  -30.7760   25.7370 C   0  0  0  0  0  1  0  0  0  0  0  0
  -26.9630  -29.9050   23.8960 C   0  0  0  0  0  1  0  0  0  0  0  0
  -27.6840  -31.9070   25.1610 C   0  0  0  0  0  1  0  0  0  0  0  0
  1  5  1  0
  2  1  1  0
  3  4  1  0
  4 49  1  0
  5 17  1  0
  5  4  1  0
  6  2  1  0
  6  3  1  0
  6  7  1  6
  8 14  1  0
  8 17  1  0
  9 14  1  0
 10 11  1  0
 10  9  1  0
 12 11  1  0
 12 21  1  0
 12 13  1  0
 14 13  1  0
 15  8  2  0
 17 16  1  0
 18 19  2  0
 19 38  1  0
 20 19  1  0
 20 23  1  0
 21 18  1  0
 21 22  1  0
 22 20  2  0
 23 24  1  0
 24 25  2  0
 26 29  1  0
 26 25  1  0
 27 26  2  0
 28 27  1  0
 28 23  2  0
 29 30  1  0
 30 31  1  0
 31 32  2  0
 33 32  1  0
 33 37  1  0
 34 33  2  0
 35 30  2  0
 35 34  1  0
 36 35  1  0
 38 39  1  0
 39 42  1  0
 39 41  1  0
 40 38  2  0
 43 44  1  0
 43 18  1  0
 45 43  1  0
 49 47  1  6
 49 46  1  0
 49 48  1  0
 51 50  1  0
 51  6  1  0
 52 51  1  0
 53 54  1  0
 53 52  1  0
 55 54  1  0
 55 56  1  0
 57 56  1  0
 57 59  1  0
 58 69  2  0
 59 64  1  0
 60 68  1  0
 60 70  1  0
 61 63  1  0
 61 67  1  0
 62 68  1  0
 63 62  1  0
 64 63  2  0
 65 66  1  0
 65 59  2  0
 66 61  2  0
 67 60  1  0
 68 58  1  0
 70 72  2  0
 71 70  1  0
 73 71  1  0
 74 83  2  0
 74 79  1  0
 75 71  1  0
 75 79  1  0
 76 75  1  0
 77 78  1  0
 77 76  1  0
 78 74  1  0
 79 80  2  0
 80 81  1  0
 82 81  2  0
 83 82  1  0
 84 58  1  0
 84 85  1  0
 84 94  1  0
 85 88  1  0
 86 85  1  0
 86 90  1  0
 87 86  2  0
 90 89  1  0
 92 90  1  0
 92 93  1  0
 92 91  1  0
 94 97  1  1
 94 95  1  0
 96 94  1  0
M  ISO  4   8 100  17 100  56 101  57 101
M  END
>  <TORSDO>  (21) 
F 23

>  <SCORE>  (21) 
-1.751

>  <name>  (21) 
20

>  <ligand_id>  (21) 
20

>  <original_smiles>  (21) 
[H]c1c([H])c([H])c2c(c1[H])C([H])([H])C([H])([H])C([H])([H])C2([H])N([H])C(=O)C1([H])N(C(=O)C([H])(N([H])C(=O)C([H])(N([H])C([H])([H])[H])C([H])([H])[H])C(C([H])([H])[H])(C([H])([H])[H])C([H])([H])[H])C([H])([H])c2c([H])c(OC([H])([H])C([H])([H])C([H])([H])C([H])([H])C([H])([H])C([H])(C([H])([H])[H])[N+]3([H])C([H])([H])C([H])([H])C([H])(N(C(=O)N4C([H])([H])C([H])([H])C([H])([H])C([H])(n5nc(-c6c([H])c([H])c(Oc7c([H])c([H])c(F)c([H])c7F)c([H])c6[H])c(C(=O)N([H])[H])c5N([H])[H])C4([H])[H])C([H])([H])[H])C([H])(C(C([H])([H])[H])(C([H])([H])[H])C([H])([H])[H])C3([H])[H])c([H])c([H])c2C1([H])[H]

>  <smiles>  (21) 
[H]c1c([H])c([H])c2c(c1[H])C([H])([H])C([H])([H])C([H])([H])C2([H])N([H])C(=O)C1([H])N(C(=O)C([H])(N([H])C(=O)C([H])(N([H])C([H])([H])[H])C([H])([H])[H])C(C([H])([H])[H])(C([H])([H])[H])C([H])([H])[H])C([H])([H])c2c([H])c(OC([H])([H])C([H])([H])C([H])([H])C([H])([H])C([H])([H])C([H])(C([H])([H])[H])[N+]3([H])C([H])([H])C([H])([H])C([H])(N(C(=O)N4C([H])([H])C([H])([H])C([H])([H])C([H])(n5nc(-c6c([H])c([H])c(Oc7c([H])c([H])c(F)c([H])c7F)c([H])c6[H])c(C(=O)N([H])[H])c5N([H])[H])C4([H])[H])C([H])([H])[H])C([H])(C(C([H])([H])[H])(C([H])([H])[H])C([H])([H])[H])C3([H])[H])c([H])c([H])c2C1([H])[H]

$$$$
21:0:0
     RDKit          3D

 92100  0  0  1  0  0  0  0  0999 V2000
  -28.3180  -22.0110   19.0630 C   0  0  0  0  0  0  0  0  0  0  0  0
  -28.5850  -20.6790   19.4810 C   0  0  0  0  0  0  0  0  0  0  0  0
  -29.1970  -22.8210   19.7370 C   0  0  0  0  0  0  0  0  0  0  0  0
  -29.6190  -20.6380   20.3740 C   0  0  0  0  0  0  0  0  0  0  0  0
  -27.2570  -22.4160   18.0730 C   0  0  0  0  0  1  0  0  0  0  0  0
  -31.0750  -22.4230   21.4210 C   0  0  0  0  0  1  0  0  0  0  0  0
  -29.9970  -21.9820   20.5420 N   0  0  0  0  0  0  0  0  0  0  0  0
  -27.6810  -19.3260   18.8990 Cl  0  0  0  0  0  0  0  0  0  0  0  0
  -29.3460  -24.3430   19.6260 C   0  0  0  0  0  2  0  0  0  0  0  0
  -28.2770  -25.1950   20.3720 C   0  0  0  0  0  2  0  0  0  0  0  0
  -28.3960  -26.6290   20.1470 O   0  0  0  0  0  0  0  0  0  0  0  0
  -24.6000  -31.8700   23.2360 C   0  0  0  0  0  0  0  0  0  0  0  0
  -27.2330  -27.3870   20.1560 C   0  0  0  0  0  0  0  0  0  0  0  0
  -23.3940  -30.4730   21.5930 C   0  0  0  0  0  3  0  0  0  0  0  0
  -24.8470  -28.9330   20.1680 C   0  0  0  0  0  0  0  0  0  0  0  0
  -25.9270  -30.8100   21.4100 C   0  0  0  0  0  2  0  0  0  0  0  0
  -26.0090  -29.4390   20.7630 C   0  0  0  0  0  0  0  0  0  0  0  0
  -27.2040  -28.6750   20.7530 C   0  0  0  0  0  3  0  0  0  0  0  0
  -26.0510  -26.9180   19.5350 C   0  0  0  0  0  3  0  0  0  0  0  0
  -24.8650  -27.6730   19.5500 C   0  0  0  0  0  3  0  0  0  0  0  0
  -23.6090  -29.8020   20.2110 C   0  0  0  0  0  2  0  0  0  0  0  0
  -24.6580  -31.0650   22.1370 N   0  0  0  0  0  0  0  0  0  0  0  0
  -23.5160  -32.1480   23.7710 O   0  0  0  0  0  0  0  0  0  0  0  0
  -22.7370  -29.4500   22.5490 C   0  0  0  0  0  0  0  0  0  0  0  0
  -21.4130  -29.2690   22.4180 N   0  0  0  0  0  0  0  0  0  0  0  0
  -23.4170  -28.8250   23.3690 O   0  0  0  0  0  0  0  0  0  0  0  0
  -20.9240  -29.8280   21.7330 H   0  0  0  0  0  0  0  0  0  0  0  0
  -18.0380  -28.0730   22.9040 C   0  0  0  0  0  0  0  0  0  0  0  0
  -20.5930  -28.3340   23.1880 C   0  0  0  0  0  3  0  0  0  0  0  0
  -20.7010  -26.9000   22.6200 C   0  0  0  0  0  2  0  0  0  0  0  0
  -19.6060  -26.5730   21.6000 C   0  0  0  0  0  2  0  0  0  0  0  0
  -18.2190  -26.7210   22.2340 C   0  0  0  0  0  2  0  0  0  0  0  0
  -19.1530  -28.8370   23.3380 C   0  0  0  0  0  0  0  0  0  0  0  0
  -18.9330  -30.1020   23.9240 C   0  0  0  0  0  3  0  0  0  0  0  0
  -17.6270  -30.6040   24.0820 C   0  0  0  0  0  3  0  0  0  0  0  0
  -16.5250  -29.8380   23.6640 C   0  0  0  0  0  3  0  0  0  0  0  0
  -16.7310  -28.5750   23.0820 C   0  0  0  0  0  3  0  0  0  0  0  0
  -25.8850  -32.5000   23.8560 C   0  0  0  0  0  3  0  0  0  0  0  0
  -25.5780  -33.8980   24.1840 N   0  0  0  0  0  0  0  0  0  0  0  0
  -25.9140  -34.9480   23.4220 C   0  0  0  0  0  0  0  0  0  0  0  0
  -26.5840  -34.8430   22.3920 O   0  0  0  0  0  0  0  0  0  0  0  0
  -24.9840  -34.0570   24.9830 H   0  0  0  0  0  0  0  0  0  0  0  0
  -24.1870  -36.7420   23.0620 C   0  0  0  0  0  1  0  0  0  0  0  0
  -25.4260  -36.3380   23.8780 C   0  0  0  0  0  3  0  0  0  0  0  0
  -27.5590  -37.2160   24.7160 C   0  0  0  0  0  1  0  0  0  0  0  0
  -26.4590  -37.3900   23.7710 N   0  0  0  0  0  0  0  0  0  0  0  0
  -26.0530  -38.3090   23.9240 H   0  0  0  0  0  0  0  0  0  0  0  0
  -26.4050  -31.7300   25.1330 C   0  0  1  0  0  0  0  0  0  0  0  0
  -25.3140  -31.4970   26.2040 C   0  0  0  0  0  1  0  0  0  0  0  0
  -26.9840  -30.3500   24.7440 C   0  0  0  0  0  1  0  0  0  0  0  0
  -27.5550  -32.5250   25.7930 C   0  0  0  0  0  1  0  0  0  0  0  0
  -30.3020  -19.4780   21.1100 C   0  0  0  0  0  3  0  0  0  0  0  0
  -29.8670  -18.0200   20.7400 C   0  0  0  0  0  3  0  0  0  0  0  0
  -30.6570  -16.8550   21.4190 C   0  0  0  0  0  2  0  0  0  0  0  0
  -30.6980  -14.4940   20.4710 C   0  0  0  0  0  0  0  0  0  0  0  0
  -30.3570  -12.3380   19.3000 C   0  0  0  0  0  2  0  0  0  0  0  0
  -29.4120  -12.5280   18.0990 C   0  0  0  0  0  2  0  0  0  0  0  0
  -27.9430  -12.3720   18.5380 C   0  0  0  0  0  2  0  0  0  0  0  0
  -27.6070  -13.2200   19.7940 C   0  0  0  0  0  3  0  0  0  0  0  0
  -28.6690  -13.0320   20.9010 C   0  0  0  0  0  2  0  0  0  0  0  0
  -29.9930  -13.3320   20.3280 N   0  0  0  0  0  0  0  0  0  0  0  0
  -31.7930  -14.6670   19.9320 O   0  0  0  0  0  0  0  0  0  0  0  0
  -30.1070  -15.4970   21.1570 N   0  0  0  0  0  0  0  0  0  0  0  0
  -29.2180  -15.2770   21.5800 H   0  0  0  0  0  0  0  0  0  0  0  0
  -25.2100  -13.8270   20.5010 C   0  0  0  0  0  0  0  0  0  0  0  0
  -24.1420  -13.0570   20.8740 C   0  0  0  0  0  0  0  0  0  0  0  0
  -24.5990  -11.7050   20.8460 C   0  0  0  0  0  0  0  0  0  0  0  0
  -26.2550  -12.9450   20.2740 N   0  0  0  0  0  0  0  0  0  0  0  0
  -25.8910  -11.6630   20.5380 N   0  0  0  0  0  0  0  0  0  0  0  0
  -23.8690  -10.4460   21.0400 C   0  0  0  0  0  0  0  0  0  0  0  0
  -24.3120   -9.4750   21.9660 C   0  0  0  0  0  3  0  0  0  0  0  0
  -23.5880   -8.2780   22.1500 C   0  0  0  0  0  3  0  0  0  0  0  0
  -22.4040   -8.0440   21.4110 C   0  0  0  0  0  0  0  0  0  0  0  0
  -21.9790   -9.0040   20.4740 C   0  0  0  0  0  3  0  0  0  0  0  0
  -22.7060  -10.1920   20.2880 C   0  0  0  0  0  3  0  0  0  0  0  0
  -21.6480   -6.9020   21.5040 O   0  0  0  0  0  0  0  0  0  0  0  0
  -21.6200   -6.1480   22.6510 C   0  0  0  0  0  0  0  0  0  0  0  0
  -21.2270   -6.6920   23.8930 C   0  0  0  0  0  3  0  0  0  0  0  0
  -21.1470   -5.8630   25.0300 C   0  0  0  0  0  3  0  0  0  0  0  0
  -21.4510   -4.4930   24.9260 C   0  0  0  0  0  0  0  0  0  0  0  0
  -21.8400   -3.9490   23.6900 C   0  0  0  0  0  3  0  0  0  0  0  0
  -21.9210   -4.7750   22.5550 C   0  0  0  0  0  0  0  0  0  0  0  0
  -22.2730   -4.2410   21.3610 F   0  0  0  0  0  0  0  0  0  0  0  0
  -21.3680   -3.6950   26.0170 F   0  0  0  0  0  0  0  0  0  0  0  0
  -22.7450  -13.5370   21.1480 C   0  0  0  0  0  0  0  0  0  0  0  0
  -22.0200  -12.8460   22.0190 N   0  0  0  0  0  0  0  0  0  0  0  0
  -22.3060  -14.5600   20.6250 O   0  0  0  0  0  0  0  0  0  0  0  0
  -22.3870  -12.0200   22.4660 H   0  0  0  0  0  0  0  0  0  0  0  0
  -21.0840  -13.1520   22.2450 H   0  0  0  0  0  0  0  0  0  0  0  0
  -25.3770  -15.1970   20.3190 N   0  0  0  0  0  0  0  0  0  0  0  0
  -24.6050  -15.8470   20.4150 H   0  0  0  0  0  0  0  0  0  0  0  0
  -26.2250  -15.6370   19.9890 H   0  0  0  0  0  0  0  0  0  0  0  0
  1  2  1  0
  1  3  2  0
  2  4  2  0
  3  7  1  0
  4  7  1  0
  4 52  1  0
  5  1  1  0
  7  6  1  0
  8  2  1  0
  9  3  1  0
  9 10  1  0
 11 13  1  0
 11 10  1  0
 12 23  2  0
 13 18  1  0
 14 22  1  0
 14 24  1  0
 15 21  1  0
 15 17  1  0
 16 22  1  0
 17 16  1  0
 18 17  2  0
 19 20  1  0
 19 13  2  0
 20 15  2  0
 21 14  1  0
 22 12  1  0
 24 26  2  0
 25 24  1  0
 27 25  1  0
 28 37  2  0
 28 33  1  0
 29 25  1  0
 29 33  1  0
 30 29  1  0
 31 32  1  0
 31 30  1  0
 32 28  1  0
 33 34  2  0
 34 35  1  0
 36 35  2  0
 37 36  1  0
 38 12  1  0
 38 39  1  0
 38 48  1  0
 39 42  1  0
 40 44  1  0
 40 39  1  0
 41 40  2  0
 44 43  1  0
 46 44  1  0
 46 47  1  0
 46 45  1  0
 48 51  1  1
 48 49  1  0
 50 48  1  0
 53 52  2  0
 53 54  1  0
 55 63  1  0
 56 61  1  0
 57 58  1  0
 57 56  1  0
 59 58  1  0
 59 68  1  0
 59 60  1  0
 61 55  1  0
 61 60  1  0
 62 55  2  0
 63 54  1  0
 63 64  1  0
 65 66  2  0
 66 85  1  0
 67 66  1  0
 67 70  1  0
 68 65  1  0
 68 69  1  0
 69 67  2  0
 70 71  1  0
 71 72  2  0
 73 76  1  0
 73 72  1  0
 74 73  2  0
 75 74  1  0
 75 70  2  0
 76 77  1  0
 77 78  1  0
 78 79  2  0
 80 79  1  0
 80 84  1  0
 81 80  2  0
 82 77  2  0
 82 81  1  0
 83 82  1  0
 85 86  1  0
 86 89  1  0
 86 88  1  0
 87 85  2  0
 90 91  1  0
 90 65  1  0
 92 90  1  0
M  ISO  4  10 101  11 101  55 100  63 100
M  END
>  <TORSDO>  (22) 
F 21

>  <SCORE>  (22) 
-13.710

>  <name>  (22) 
21

>  <ligand_id>  (22) 
21

>  <original_smiles>  (22) 
[H]c1c([H])c([H])c2c(c1[H])C([H])([H])C([H])([H])C([H])([H])C2([H])N([H])C(=O)C1([H])N(C(=O)C([H])(N([H])C(=O)C([H])(N([H])C([H])([H])[H])C([H])([H])[H])C(C([H])([H])[H])(C([H])([H])[H])C([H])([H])[H])C([H])([H])c2c([H])c(OC([H])([H])C([H])([H])c3c(C([H])([H])[H])c(Cl)c(C([H])([H])C([H])([H])C([H])([H])N([H])C(=O)N4C([H])([H])C([H])([H])C([H])([H])C([H])(n5nc(-c6c([H])c([H])c(Oc7c([H])c([H])c(F)c([H])c7F)c([H])c6[H])c(C(=O)N([H])[H])c5N([H])[H])C4([H])[H])n3C([H])([H])[H])c([H])c([H])c2C1([H])[H]

>  <smiles>  (22) 
[H]c1c([H])c([H])c2c(c1[H])C([H])([H])C([H])([H])C([H])([H])C2([H])N([H])C(=O)C1([H])N(C(=O)C([H])(N([H])C(=O)C([H])(N([H])C([H])([H])[H])C([H])([H])[H])C(C([H])([H])[H])(C([H])([H])[H])C([H])([H])[H])C([H])([H])c2c([H])c(OC([H])([H])C([H])([H])c3c(C([H])([H])[H])c(Cl)c(C([H])([H])C([H])([H])C([H])([H])N([H])C(=O)N4C([H])([H])C([H])([H])C([H])([H])C([H])(n5nc(-c6c([H])c([H])c(Oc7c([H])c([H])c(F)c([H])c7F)c([H])c6[H])c(C(=O)N([H])[H])c5N([H])[H])C4([H])[H])n3C([H])([H])[H])c([H])c([H])c2C1([H])[H]

$$$$
22:0:0
     RDKit          3D

 95103  0  0  1  0  0  0  0  0999 V2000
  -27.3460  -22.4420   20.0130 C   0  0  0  0  0  3  0  0  0  0  0  0
  -28.3830  -21.8740   20.7790 C   0  0  0  0  0  0  0  0  0  0  0  0
  -29.5130  -22.6750   21.0540 C   0  0  0  0  0  0  0  0  0  0  0  0
  -29.5890  -23.9730   20.5150 C   0  0  0  0  0  0  0  0  0  0  0  0
  -28.5100  -24.4320   19.7290 C   0  0  0  0  0  0  0  0  0  0  0  0
  -27.4030  -23.6870   19.4930 N   0  0  0  0  0  0  0  0  0  0  0  0
  -30.8230  -22.0430   21.9980 Cl  0  0  0  0  0  0  0  0  0  0  0  0
  -30.9880  -24.9580   20.7940 Cl  0  0  0  0  0  0  0  0  0  0  0  0
  -28.2740  -20.4430   21.3060 C   0  0  0  0  0  2  0  0  0  0  0  0
  -29.1820  -19.5230   20.5790 N   0  0  0  0  0  4  0  0  0  0  0  0
  -30.0680  -19.9890   20.4820 H   0  0  0  0  0  0  0  0  0  0  0  0
  -28.8240  -19.3470   19.6540 H   0  0  0  0  0  0  0  0  0  0  0  0
  -29.4640  -18.2320   21.2480 C   0  0  0  0  0  2  0  0  0  0  0  0
  -30.8200  -17.6720   20.7730 C   0  0  0  0  0  2  0  0  0  0  0  0
  -31.3080  -16.4180   21.5240 C   0  0  0  0  0  2  0  0  0  0  0  0
  -31.0930  -14.3680   20.1160 C   0  0  0  0  0  0  0  0  0  0  0  0
  -30.6880  -12.2430   18.9310 C   0  0  0  0  0  2  0  0  0  0  0  0
  -29.7140  -12.4310   17.7520 C   0  0  0  0  0  2  0  0  0  0  0  0
  -28.2520  -12.3300   18.2270 C   0  0  0  0  0  2  0  0  0  0  0  0
  -27.9680  -13.2190   19.4660 C   0  0  0  0  0  3  0  0  0  0  0  0
  -29.0340  -12.9860   20.5560 C   0  0  0  0  0  2  0  0  0  0  0  0
  -30.3620  -13.2360   19.9630 N   0  0  0  0  0  0  0  0  0  0  0  0
  -32.1050  -14.6210   19.4550 O   0  0  0  0  0  0  0  0  0  0  0  0
  -30.6490  -15.1950   21.0730 N   0  0  0  0  0  0  0  0  0  0  0  0
  -29.8270  -14.8940   21.5770 H   0  0  0  0  0  0  0  0  0  0  0  0
  -25.6100  -13.9200   20.2310 C   0  0  0  0  0  0  0  0  0  0  0  0
  -24.5280  -13.1890   20.6420 C   0  0  0  0  0  0  0  0  0  0  0  0
  -24.9420  -11.8220   20.6120 C   0  0  0  0  0  0  0  0  0  0  0  0
  -26.6170  -13.0010   19.9810 N   0  0  0  0  0  0  0  0  0  0  0  0
  -26.2190  -11.7350   20.2640 N   0  0  0  0  0  0  0  0  0  0  0  0
  -24.1810  -10.5860   20.8360 C   0  0  0  0  0  0  0  0  0  0  0  0
  -24.5790   -9.6410   21.8080 C   0  0  0  0  0  3  0  0  0  0  0  0
  -23.8210   -8.4690   22.0170 C   0  0  0  0  0  3  0  0  0  0  0  0
  -22.6530   -8.2340   21.2550 C   0  0  0  0  0  0  0  0  0  0  0  0
  -22.2750   -9.1670   20.2730 C   0  0  0  0  0  3  0  0  0  0  0  0
  -23.0320  -10.3310   20.0630 C   0  0  0  0  0  3  0  0  0  0  0  0
  -21.8680   -7.1120   21.3720 O   0  0  0  0  0  0  0  0  0  0  0  0
  -21.7430   -6.4430   22.5620 C   0  0  0  0  0  0  0  0  0  0  0  0
  -21.2740   -7.0820   23.7310 C   0  0  0  0  0  3  0  0  0  0  0  0
  -21.0940   -6.3400   24.9160 C   0  0  0  0  0  3  0  0  0  0  0  0
  -21.3700   -4.9590   24.9310 C   0  0  0  0  0  0  0  0  0  0  0  0
  -21.8310   -4.3200   23.7670 C   0  0  0  0  0  3  0  0  0  0  0  0
  -22.0130   -5.0600   22.5850 C   0  0  0  0  0  0  0  0  0  0  0  0
  -22.4370   -4.4340   21.4610 F   0  0  0  0  0  0  0  0  0  0  0  0
  -21.1890   -4.2450   26.0660 F   0  0  0  0  0  0  0  0  0  0  0  0
  -23.1580  -13.7160   20.9530 C   0  0  0  0  0  0  0  0  0  0  0  0
  -22.4370  -13.0560   21.8540 N   0  0  0  0  0  0  0  0  0  0  0  0
  -22.7340  -14.7470   20.4310 O   0  0  0  0  0  0  0  0  0  0  0  0
  -22.7940  -12.2220   22.2970 H   0  0  0  0  0  0  0  0  0  0  0  0
  -21.5170  -13.3900   22.1040 H   0  0  0  0  0  0  0  0  0  0  0  0
  -25.8160  -15.2830   20.0310 N   0  0  0  0  0  0  0  0  0  0  0  0
  -25.0680  -15.9590   20.1340 H   0  0  0  0  0  0  0  0  0  0  0  0
  -26.6610  -15.6790   19.6400 H   0  0  0  0  0  0  0  0  0  0  0  0
  -28.5620  -25.8010   19.0630 C   0  0  0  0  0  2  0  0  0  0  0  0
  -28.3550  -26.8780   19.9780 O   0  0  0  0  0  0  0  0  0  0  0  0
  -24.5500  -31.9040   23.2330 C   0  0  0  0  0  0  0  0  0  0  0  0
  -27.1390  -27.5220   20.0270 C   0  0  0  0  0  0  0  0  0  0  0  0
  -23.3100  -30.5300   21.5890 C   0  0  0  0  0  3  0  0  0  0  0  0
  -24.7340  -29.0090   20.1210 C   0  0  0  0  0  0  0  0  0  0  0  0
  -25.8320  -30.8860   21.3580 C   0  0  0  0  0  2  0  0  0  0  0  0
  -25.8990  -29.5250   20.6970 C   0  0  0  0  0  0  0  0  0  0  0  0
  -27.0990  -28.7860   20.6520 C   0  0  0  0  0  3  0  0  0  0  0  0
  -25.9450  -26.9980   19.4740 C   0  0  0  0  0  3  0  0  0  0  0  0
  -24.7500  -27.7410   19.5130 C   0  0  0  0  0  3  0  0  0  0  0  0
  -23.4940  -29.8680   20.1960 C   0  0  0  0  0  2  0  0  0  0  0  0
  -24.5820  -31.1220   22.1170 N   0  0  0  0  0  0  0  0  0  0  0  0
  -23.4790  -32.1720   23.7960 O   0  0  0  0  0  0  0  0  0  0  0  0
  -22.6740  -29.4960   22.5440 C   0  0  0  0  0  0  0  0  0  0  0  0
  -21.3500  -29.3080   22.4220 N   0  0  0  0  0  0  0  0  0  0  0  0
  -23.3670  -28.8680   23.3480 O   0  0  0  0  0  0  0  0  0  0  0  0
  -20.8560  -29.8660   21.7400 H   0  0  0  0  0  0  0  0  0  0  0  0
  -17.9880  -28.0820   22.9060 C   0  0  0  0  0  0  0  0  0  0  0  0
  -20.5410  -28.3620   23.1890 C   0  0  0  0  0  3  0  0  0  0  0  0
  -20.6590  -26.9330   22.6100 C   0  0  0  0  0  2  0  0  0  0  0  0
  -19.5650  -26.6040   21.5900 C   0  0  0  0  0  2  0  0  0  0  0  0
  -18.1780  -26.7390   22.2240 C   0  0  0  0  0  2  0  0  0  0  0  0
  -19.0980  -28.8530   23.3420 C   0  0  0  0  0  0  0  0  0  0  0  0
  -18.8670  -30.1140   23.9330 C   0  0  0  0  0  3  0  0  0  0  0  0
  -17.5570  -30.6040   24.0960 C   0  0  0  0  0  3  0  0  0  0  0  0
  -16.4610  -29.8290   23.6790 C   0  0  0  0  0  3  0  0  0  0  0  0
  -16.6770  -28.5710   23.0910 C   0  0  0  0  0  3  0  0  0  0  0  0
  -25.8500  -32.5190   23.8400 C   0  0  0  0  0  3  0  0  0  0  0  0
  -25.5590  -33.9150   24.1860 N   0  0  0  0  0  0  0  0  0  0  0  0
  -25.8850  -34.9720   23.4280 C   0  0  0  0  0  0  0  0  0  0  0  0
  -26.5380  -34.8710   22.3860 O   0  0  0  0  0  0  0  0  0  0  0  0
  -24.9880  -34.0690   25.0050 H   0  0  0  0  0  0  0  0  0  0  0  0
  -24.1600  -36.7740   23.1110 C   0  0  0  0  0  1  0  0  0  0  0  0
  -25.4110  -36.3590   23.9030 C   0  0  0  0  0  3  0  0  0  0  0  0
  -27.5620  -37.2260   24.7080 C   0  0  0  0  0  1  0  0  0  0  0  0
  -26.4460  -37.4080   23.7820 N   0  0  0  0  0  0  0  0  0  0  0  0
  -26.0470  -38.3280   23.9460 H   0  0  0  0  0  0  0  0  0  0  0  0
  -26.3830  -31.7310   25.0980 C   0  0  1  0  0  0  0  0  0  0  0  0
  -25.3060  -31.4840   26.1800 C   0  0  0  0  0  1  0  0  0  0  0  0
  -26.9520  -30.3560   24.6790 C   0  0  0  0  0  1  0  0  0  0  0  0
  -27.5490  -32.5140   25.7470 C   0  0  0  0  0  1  0  0  0  0  0  0
  1  2  1  0
  2  3  2  0
  2  9  1  0
  3  7  1  0
  4  8  1  0
  4  3  1  0
  5  4  2  0
  6  5  1  0
  6  1  2  0
 10 13  1  0
 10  9  1  0
 11 10  1  0
 12 10  1  0
 14 13  1  0
 14 15  1  0
 16 24  1  0
 17 22  1  0
 18 19  1  0
 18 17  1  0
 20 19  1  0
 20 29  1  0
 20 21  1  0
 22 16  1  0
 22 21  1  0
 23 16  2  0
 24 15  1  0
 24 25  1  0
 26 27  2  0
 27 46  1  0
 28 27  1  0
 28 31  1  0
 29 26  1  0
 29 30  1  0
 30 28  2  0
 31 32  1  0
 32 33  2  0
 34 37  1  0
 34 33  1  0
 35 34  2  0
 36 35  1  0
 36 31  2  0
 37 38  1  0
 38 43  2  0
 38 39  1  0
 39 40  2  0
 40 41  1  0
 41 45  1  0
 42 41  2  0
 43 42  1  0
 44 43  1  0
 46 47  1  0
 47 50  1  0
 47 49  1  0
 48 46  2  0
 51 52  1  0
 51 26  1  0
 53 51  1  0
 54  5  1  0
 54 55  1  0
 55 57  1  0
 56 67  2  0
 57 62  1  0
 58 66  1  0
 58 68  1  0
 59 65  1  0
 59 61  1  0
 60 66  1  0
 61 60  1  0
 62 61  2  0
 63 64  1  0
 63 57  2  0
 64 59  2  0
 65 58  1  0
 66 56  1  0
 68 70  2  0
 69 68  1  0
 71 69  1  0
 72 81  2  0
 72 77  1  0
 73 69  1  0
 73 77  1  0
 74 73  1  0
 75 76  1  0
 75 74  1  0
 76 72  1  0
 77 78  2  0
 78 79  1  0
 80 79  2  0
 81 80  1  0
 82 56  1  0
 82 83  1  0
 82 92  1  0
 83 86  1  0
 84 88  1  0
 84 83  1  0
 85 84  2  0
 88 87  1  0
 90 88  1  0
 90 91  1  0
 90 89  1  0
 92 95  1  1
 92 93  1  0
 94 92  1  0
M  ISO  4  16 100  24 100  54 101  55 101
M  END
>  <TORSDO>  (23) 
F 22

>  <SCORE>  (23) 
-12.531

>  <name>  (23) 
22

>  <ligand_id>  (23) 
22

>  <original_smiles>  (23) 
[H]c1nc(C([H])([H])Oc2c([H])c([H])c3c(c2[H])C([H])([H])N(C(=O)C([H])(N([H])C(=O)C([H])(N([H])C([H])([H])[H])C([H])([H])[H])C(C([H])([H])[H])(C([H])([H])[H])C([H])([H])[H])C([H])(C(=O)N([H])C2([H])c4c([H])c([H])c([H])c([H])c4C([H])([H])C([H])([H])C2([H])[H])C3([H])[H])c(Cl)c(Cl)c1C([H])([H])[N+]([H])([H])C([H])([H])C([H])([H])C([H])([H])N([H])C(=O)N1C([H])([H])C([H])([H])C([H])([H])C([H])(n2nc(-c3c([H])c([H])c(Oc4c([H])c([H])c(F)c([H])c4F)c([H])c3[H])c(C(=O)N([H])[H])c2N([H])[H])C1([H])[H]

>  <smiles>  (23) 
[H]c1nc(C([H])([H])Oc2c([H])c([H])c3c(c2[H])C([H])([H])N(C(=O)C([H])(N([H])C(=O)C([H])(N([H])C([H])([H])[H])C([H])([H])[H])C(C([H])([H])[H])(C([H])([H])[H])C([H])([H])[H])C([H])(C(=O)N([H])C2([H])c4c([H])c([H])c([H])c([H])c4C([H])([H])C([H])([H])C2([H])[H])C3([H])[H])c(Cl)c(Cl)c1C([H])([H])[N+]([H])([H])C([H])([H])C([H])([H])C([H])([H])N([H])C(=O)N1C([H])([H])C([H])([H])C([H])([H])C([H])(n2nc(-c3c([H])c([H])c(Oc4c([H])c([H])c(F)c([H])c4F)c([H])c3[H])c(C(=O)N([H])[H])c2N([H])[H])C1([H])[H]

$$$$
23:0:0
     RDKit          3D

102111  0  0  1  0  0  0  0  0999 V2000
  -27.7940  -24.6150   20.8040 C   0  0  0  0  0  3  0  0  0  0  0  0
  -28.5590  -23.2550   22.7800 C   0  0  0  0  0  1  0  0  0  0  0  0
  -28.5280  -23.4020   21.2990 N   0  0  1  0  0  4  0  0  0  0  0  0
  -29.4900  -23.5470   21.0240 H   0  0  0  0  0  0  0  0  0  0  0  0
  -28.0970  -22.1570   20.6050 C   0  0  0  0  0  2  0  0  0  0  0  0
  -29.0960  -20.9910   20.6780 C   0  0  0  0  0  2  0  0  0  0  0  0
  -28.5510  -19.7700   19.9140 C   0  0  0  0  0  2  0  0  0  0  0  0
  -31.0490  -14.6230   20.0500 C   0  0  0  0  0  0  0  0  0  0  0  0
  -30.6770  -12.4000   19.0840 C   0  0  0  0  0  2  0  0  0  0  0  0
  -29.7100  -12.5420   17.8910 C   0  0  0  0  0  2  0  0  0  0  0  0
  -28.2450  -12.4690   18.3650 C   0  0  0  0  0  2  0  0  0  0  0  0
  -27.9520  -13.3980   19.5740 C   0  0  0  0  0  3  0  0  0  0  0  0
  -29.0340  -13.2540   20.6690 C   0  0  0  0  0  2  0  0  0  0  0  0
  -30.3450  -13.4620   20.0390 N   0  0  0  0  0  0  0  0  0  0  0  0
  -32.2190  -14.7110   19.6700 O   0  0  0  0  0  0  0  0  0  0  0  0
  -29.1610  -17.5670   18.8230 C   0  0  0  0  0  2  0  0  0  0  0  0
  -29.4800  -17.8010   21.2750 C   0  0  0  0  0  2  0  0  0  0  0  0
  -30.2060  -16.4490   18.8080 C   0  0  0  0  0  2  0  0  0  0  0  0
  -30.4730  -16.6200   21.2580 C   0  0  0  0  0  2  0  0  0  0  0  0
  -29.4950  -18.5590   19.9380 C   0  0  0  0  0  3  0  0  0  0  0  0
  -30.2870  -15.7350   20.0980 N   0  0  0  0  0  0  0  0  0  0  0  0
  -25.6020  -14.0850   20.3710 C   0  0  0  0  0  0  0  0  0  0  0  0
  -24.5180  -13.3480   20.7650 C   0  0  0  0  0  0  0  0  0  0  0  0
  -24.9280  -11.9800   20.7060 C   0  0  0  0  0  0  0  0  0  0  0  0
  -26.6060  -13.1690   20.1010 N   0  0  0  0  0  0  0  0  0  0  0  0
  -26.2070  -11.8990   20.3590 N   0  0  0  0  0  0  0  0  0  0  0  0
  -24.1630  -10.7430   20.9030 C   0  0  0  0  0  0  0  0  0  0  0  0
  -24.5610   -9.7700   21.8480 C   0  0  0  0  0  3  0  0  0  0  0  0
  -23.7980   -8.5970   22.0330 C   0  0  0  0  0  3  0  0  0  0  0  0
  -22.6220   -8.3890   21.2730 C   0  0  0  0  0  0  0  0  0  0  0  0
  -22.2420   -9.3490   20.3190 C   0  0  0  0  0  3  0  0  0  0  0  0
  -23.0060  -10.5140   20.1320 C   0  0  0  0  0  3  0  0  0  0  0  0
  -21.8330   -7.2690   21.3690 O   0  0  0  0  0  0  0  0  0  0  0  0
  -21.7030   -6.5770   22.5460 C   0  0  0  0  0  0  0  0  0  0  0  0
  -21.2200   -7.1910   23.7220 C   0  0  0  0  0  3  0  0  0  0  0  0
  -21.0370   -6.4260   24.8910 C   0  0  0  0  0  3  0  0  0  0  0  0
  -21.3280   -5.0490   24.8860 C   0  0  0  0  0  0  0  0  0  0  0  0
  -21.8040   -4.4350   23.7140 C   0  0  0  0  0  3  0  0  0  0  0  0
  -21.9890   -5.1970   22.5470 C   0  0  0  0  0  0  0  0  0  0  0  0
  -22.4280   -4.5950   21.4150 F   0  0  0  0  0  0  0  0  0  0  0  0
  -21.1460   -4.3130   26.0070 F   0  0  0  0  0  0  0  0  0  0  0  0
  -23.1490  -13.8730   21.0920 C   0  0  0  0  0  0  0  0  0  0  0  0
  -22.4320  -13.2010   21.9870 N   0  0  0  0  0  0  0  0  0  0  0  0
  -22.7270  -14.9120   20.5870 O   0  0  0  0  0  0  0  0  0  0  0  0
  -22.7850  -12.3540   22.4080 H   0  0  0  0  0  0  0  0  0  0  0  0
  -21.5180  -13.5360   22.2520 H   0  0  0  0  0  0  0  0  0  0  0  0
  -25.8090  -15.4500   20.2010 N   0  0  0  0  0  0  0  0  0  0  0  0
  -25.0690  -16.1280   20.3380 H   0  0  0  0  0  0  0  0  0  0  0  0
  -26.6700  -15.8640   19.8660 H   0  0  0  0  0  0  0  0  0  0  0  0
  -26.2490  -24.5000   21.0260 C   0  0  0  0  0  2  0  0  0  0  0  0
  -25.4260  -24.5190   19.7110 C   0  0  0  0  0  2  0  0  0  0  0  0
  -23.1020  -24.4830   20.7650 C   0  0  0  0  0  2  0  0  0  0  0  0
  -23.4450  -23.7320   18.3630 C   0  0  0  0  0  2  0  0  0  0  0  0
  -21.7020  -23.8410   20.7570 C   0  0  0  0  0  2  0  0  0  0  0  0
  -22.0480  -23.0900   18.3710 C   0  0  0  0  0  2  0  0  0  0  0  0
  -24.0680  -23.7950   19.7740 C   0  0  0  0  0  3  0  0  0  0  0  0
  -21.0860  -23.8040   19.3390 C   0  0  2  0  0  0  0  0  0  0  0  0
  -20.9300  -25.0610   18.9130 F   0  0  0  0  0  0  0  0  0  0  0  0
  -19.6990  -23.1300   19.3040 C   0  0  0  0  0  2  0  0  0  0  0  0
  -18.5320  -23.9380   20.3920 Cl  0  0  0  0  0  0  0  0  0  0  0  0
  -28.4350  -25.9450   21.3100 C   0  0  0  0  0  2  0  0  0  0  0  0
  -28.4980  -26.9550   20.2930 O   0  0  0  0  0  0  0  0  0  0  0  0
  -24.5770  -31.9890   23.3650 C   0  0  0  0  0  0  0  0  0  0  0  0
  -27.3690  -27.7220   20.2240 C   0  0  0  0  0  0  0  0  0  0  0  0
  -23.4440  -30.6480   21.6210 C   0  0  0  0  0  3  0  0  0  0  0  0
  -24.9670  -29.1890   20.1820 C   0  0  0  0  0  0  0  0  0  0  0  0
  -25.9670  -31.0370   21.5360 C   0  0  0  0  0  2  0  0  0  0  0  0
  -26.0870  -29.6930   20.8560 C   0  0  0  0  0  0  0  0  0  0  0  0
  -27.2900  -28.9600   20.8930 C   0  0  0  0  0  3  0  0  0  0  0  0
  -26.2640  -27.2590   19.4880 C   0  0  0  0  0  3  0  0  0  0  0  0
  -25.0470  -27.9630   19.4980 C   0  0  0  0  0  3  0  0  0  0  0  0
  -23.7090  -30.0270   20.2210 C   0  0  0  0  0  2  0  0  0  0  0  0
  -24.6790  -31.2340   22.2350 N   0  0  0  0  0  0  0  0  0  0  0  0
  -23.4760  -32.2370   23.8730 O   0  0  0  0  0  0  0  0  0  0  0  0
  -22.7640  -29.5840   22.5110 C   0  0  0  0  0  0  0  0  0  0  0  0
  -21.4380  -29.4400   22.3630 N   0  0  0  0  0  0  0  0  0  0  0  0
  -23.4280  -28.8960   23.2920 O   0  0  0  0  0  0  0  0  0  0  0  0
  -20.9670  -30.0450   21.7050 H   0  0  0  0  0  0  0  0  0  0  0  0
  -18.0290  -28.3300   22.7860 C   0  0  0  0  0  0  0  0  0  0  0  0
  -20.5920  -28.4790   23.0680 C   0  0  0  0  0  3  0  0  0  0  0  0
  -20.6470  -27.0900   22.3900 C   0  0  0  0  0  2  0  0  0  0  0  0
  -19.5360  -26.8790   21.3590 C   0  0  0  0  0  2  0  0  0  0  0  0
  -18.1590  -27.0250   22.0150 C   0  0  0  0  0  2  0  0  0  0  0  0
  -19.1730  -29.0210   23.2650 C   0  0  0  0  0  0  0  0  0  0  0  0
  -18.9990  -30.2490   23.9430 C   0  0  0  0  0  3  0  0  0  0  0  0
  -17.7120  -30.7840   24.1430 C   0  0  0  0  0  3  0  0  0  0  0  0
  -16.5830  -30.0860   23.6820 C   0  0  0  0  0  3  0  0  0  0  0  0
  -16.7420  -28.8620   23.0090 C   0  0  0  0  0  3  0  0  0  0  0  0
  -25.8360  -32.5970   24.0560 C   0  0  0  0  0  3  0  0  0  0  0  0
  -26.2530  -31.8340   25.3730 C   0  0  1  0  0  0  0  0  0  0  0  0
  -25.0820  -31.6110   26.3580 C   0  0  0  0  0  1  0  0  0  0  0  0
  -26.8490  -30.4480   25.0350 C   0  0  0  0  0  1  0  0  0  0  0  0
  -27.3650  -32.6200   26.1070 C   0  0  0  0  0  1  0  0  0  0  0  0
  -25.5480  -34.0080   24.3420 N   0  0  0  0  0  0  0  0  0  0  0  0
  -25.9200  -35.0320   23.5620 C   0  0  0  0  0  0  0  0  0  0  0  0
  -26.6150  -34.8860   22.5530 O   0  0  0  0  0  0  0  0  0  0  0  0
  -24.9410  -34.2000   25.1250 H   0  0  0  0  0  0  0  0  0  0  0  0
  -24.2230  -36.8310   23.1130 C   0  0  0  0  0  1  0  0  0  0  0  0
  -25.4410  -36.4390   23.9640 C   0  0  0  0  0  3  0  0  0  0  0  0
  -27.5690  -37.3220   24.8100 C   0  0  0  0  0  1  0  0  0  0  0  0
  -26.4880  -37.4760   23.8400 N   0  0  0  0  0  0  0  0  0  0  0  0
  -26.0910  -38.4050   23.9520 H   0  0  0  0  0  0  0  0  0  0  0  0
  1 50  1  0
  1  3  1  0
  1 61  1  0
  3  2  1  0
  3  4  1  6
  5  6  1  0
  5  3  1  0
  7  6  1  0
  8 21  1  0
  9 14  1  0
 10 11  1  0
 10  9  1  0
 12 11  1  0
 12 25  1  0
 12 13  1  0
 14  8  1  0
 14 13  1  0
 15  8  2  0
 16 20  1  0
 18 16  1  0
 18 21  1  0
 19 17  1  0
 20  7  1  0
 20 17  1  0
 21 19  1  0
 22 23  2  0
 23 42  1  0
 24 23  1  0
 24 27  1  0
 25 26  1  0
 25 22  1  0
 26 24  2  0
 27 28  1  0
 28 29  2  0
 30 33  1  0
 30 29  1  0
 31 30  2  0
 32 31  1  0
 32 27  2  0
 33 34  1  0
 34 39  2  0
 34 35  1  0
 35 36  2  0
 37 36  1  0
 37 41  1  0
 38 37  2  0
 39 38  1  0
 40 39  1  0
 42 43  1  0
 43 46  1  0
 43 45  1  0
 44 42  2  0
 47 48  1  0
 47 22  1  0
 49 47  1  0
 51 50  1  0
 53 55  1  0
 53 56  1  0
 54 52  1  0
 55 57  1  0
 56 51  1  0
 56 52  1  0
 57 58  1  6
 57 54  1  0
 59 57  1  0
 59 60  1  0
 62 61  1  0
 63 74  2  0
 64 62  1  0
 64 69  1  0
 65 73  1  0
 65 75  1  0
 66 72  1  0
 66 68  1  0
 67 73  1  0
 68 69  2  0
 68 67  1  0
 70 71  1  0
 70 64  2  0
 71 66  2  0
 72 65  1  0
 73 63  1  0
 75 77  2  0
 76 75  1  0
 78 76  1  0
 79 88  2  0
 79 84  1  0
 80 76  1  0
 80 84  1  0
 81 80  1  0
 82 83  1  0
 82 81  1  0
 83 79  1  0
 84 85  2  0
 85 86  1  0
 87 86  2  0
 88 87  1  0
 89 63  1  0
 89 94  1  0
 89 90  1  0
 90 93  1  1
 90 91  1  0
 92 90  1  0
 94 97  1  0
 95 99  1  0
 95 94  1  0
 96 95  2  0
 99 98  1  0
101102  1  0
101 99  1  0
101100  1  0
M  ISO  4   8 100  21 100  61 101  62 101
M  END
>  <TORSDO>  (24) 
F 25

>  <SCORE>  (24) 
-12.114

>  <name>  (24) 
23

>  <ligand_id>  (24) 
23

>  <original_smiles>  (24) 
[H]c1c([H])c([H])c2c(c1[H])C([H])([H])C([H])([H])C([H])([H])C2([H])N([H])C(=O)C1([H])N(C(=O)C([H])(N([H])C(=O)C([H])(N([H])C([H])([H])[H])C([H])([H])[H])C(C([H])([H])[H])(C([H])([H])[H])C([H])([H])[H])C([H])([H])c2c([H])c(OC([H])([H])C([H])(C([H])([H])C([H])([H])C3([H])C([H])([H])C([H])([H])C(F)(C([H])([H])Cl)C([H])([H])C3([H])[H])[N+]([H])(C([H])([H])[H])C([H])([H])C([H])([H])C([H])([H])C3([H])C([H])([H])C([H])([H])N(C(=O)N4C([H])([H])C([H])([H])C([H])([H])C([H])(n5nc(-c6c([H])c([H])c(Oc7c([H])c([H])c(F)c([H])c7F)c([H])c6[H])c(C(=O)N([H])[H])c5N([H])[H])C4([H])[H])C([H])([H])C3([H])[H])c([H])c([H])c2C1([H])[H]

>  <smiles>  (24) 
[H]c1c([H])c([H])c2c(c1[H])C([H])([H])C([H])([H])C([H])([H])C2([H])N([H])C(=O)C1([H])N(C(=O)C([H])(N([H])C(=O)C([H])(N([H])C([H])([H])[H])C([H])([H])[H])C(C([H])([H])[H])(C([H])([H])[H])C([H])([H])[H])C([H])([H])c2c([H])c(OC([H])([H])C([H])(C([H])([H])C([H])([H])C3([H])C([H])([H])C([H])([H])C(F)(C([H])([H])Cl)C([H])([H])C3([H])[H])[N+]([H])(C([H])([H])[H])C([H])([H])C([H])([H])C([H])([H])C3([H])C([H])([H])C([H])([H])N(C(=O)N4C([H])([H])C([H])([H])C([H])([H])C([H])(n5nc(-c6c([H])c([H])c(Oc7c([H])c([H])c(F)c([H])c7F)c([H])c6[H])c(C(=O)N([H])[H])c5N([H])[H])C4([H])[H])C([H])([H])C3([H])[H])c([H])c([H])c2C1([H])[H]

$$$$
24:0:0
     RDKit          3D

 94102  0  0  1  0  0  0  0  0999 V2000
  -28.2520  -19.5000   20.7140 C   0  0  0  0  0  2  0  0  0  0  0  0
  -28.0170  -21.0580   20.6340 C   0  0  0  0  0  2  0  0  0  0  0  0
  -29.7220  -19.2170   20.3300 C   0  0  0  0  0  3  0  0  0  0  0  0
  -29.3570  -21.7930   20.3470 C   0  0  0  0  0  3  0  0  0  0  0  0
  -30.0870  -20.5770   19.6030 N   0  0  1  0  0  4  0  0  0  0  0  0
  -29.5590  -20.5170   18.7460 H   0  0  0  0  0  0  0  0  0  0  0  0
  -31.9750  -21.9970   18.4980 C   0  0  0  0  0  1  0  0  0  0  0  0
  -32.5320  -20.3230   20.2330 C   0  0  0  0  0  1  0  0  0  0  0  0
  -31.7470  -19.7270   17.8470 C   0  0  0  0  0  1  0  0  0  0  0  0
  -31.5340  -20.6480   19.0940 C   0  0  1  0  0  0  0  0  0  0  0  0
  -28.7180  -23.4200   18.3590 C   0  0  0  0  0  1  0  0  0  0  0  0
  -30.5500  -24.1880   20.0610 C   0  0  0  0  0  1  0  0  0  0  0  0
  -29.1930  -23.4610   19.8340 C   0  0  2  0  0  0  0  0  0  0  0  0
  -28.1900  -24.6750   20.4940 C   0  0  0  0  0  2  0  0  0  0  0  0
  -28.3590  -26.2240   20.2710 O   0  0  0  0  0  0  0  0  0  0  0  0
  -24.6230  -31.8990   23.2270 C   0  0  0  0  0  0  0  0  0  0  0  0
  -27.2810  -27.1830   20.2470 C   0  0  0  0  0  0  0  0  0  0  0  0
  -23.4600  -30.4870   21.5750 C   0  0  0  0  0  3  0  0  0  0  0  0
  -24.9410  -28.9120   20.1760 C   0  0  0  0  0  0  0  0  0  0  0  0
  -26.0150  -30.7650   21.4490 C   0  0  0  0  0  2  0  0  0  0  0  0
  -26.1070  -29.3710   20.8000 C   0  0  0  0  0  0  0  0  0  0  0  0
  -27.2840  -28.5290   20.8020 C   0  0  0  0  0  3  0  0  0  0  0  0
  -26.0940  -26.8300   19.5760 C   0  0  0  0  0  3  0  0  0  0  0  0
  -24.9510  -27.6600   19.5370 C   0  0  0  0  0  3  0  0  0  0  0  0
  -23.7050  -29.8020   20.2030 C   0  0  0  0  0  2  0  0  0  0  0  0
  -24.7190  -31.0730   22.1390 N   0  0  0  0  0  0  0  0  0  0  0  0
  -23.5270  -32.1770   23.7350 O   0  0  0  0  0  0  0  0  0  0  0  0
  -22.7720  -29.4810   22.5320 C   0  0  0  0  0  0  0  0  0  0  0  0
  -21.4460  -29.3090   22.3950 N   0  0  0  0  0  0  0  0  0  0  0  0
  -23.4360  -28.8540   23.3630 O   0  0  0  0  0  0  0  0  0  0  0  0
  -20.9650  -29.8650   21.6990 H   0  0  0  0  0  0  0  0  0  0  0  0
  -18.0580  -28.1280   22.9060 C   0  0  0  0  0  0  0  0  0  0  0  0
  -20.6210  -28.3700   23.1620 C   0  0  0  0  0  3  0  0  0  0  0  0
  -20.7080  -26.9440   22.5730 C   0  0  0  0  0  2  0  0  0  0  0  0
  -19.6000  -26.6380   21.5610 C   0  0  0  0  0  2  0  0  0  0  0  0
  -18.2220  -26.7850   22.2130 C   0  0  0  0  0  2  0  0  0  0  0  0
  -19.1840  -28.8780   23.3380 C   0  0  0  0  0  0  0  0  0  0  0  0
  -18.9760  -30.1340   23.9500 C   0  0  0  0  0  3  0  0  0  0  0  0
  -17.6740  -30.6410   24.1290 C   0  0  0  0  0  3  0  0  0  0  0  0
  -16.5640  -29.8870   23.7110 C   0  0  0  0  0  3  0  0  0  0  0  0
  -16.7560  -28.6310   23.1070 C   0  0  0  0  0  3  0  0  0  0  0  0
  -25.8840  -32.5490   23.8750 C   0  0  0  0  0  3  0  0  0  0  0  0
  -26.3670  -31.8020   25.1790 C   0  0  1  0  0  0  0  0  0  0  0  0
  -25.2480  -31.5730   26.2230 C   0  0  0  0  0  1  0  0  0  0  0  0
  -26.9690  -30.4210   24.8320 C   0  0  0  0  0  1  0  0  0  0  0  0
  -27.4980  -32.6100   25.8580 C   0  0  0  0  0  1  0  0  0  0  0  0
  -25.5580  -33.9510   24.1820 N   0  0  0  0  0  0  0  0  0  0  0  0
  -25.8990  -35.0010   23.4230 C   0  0  0  0  0  0  0  0  0  0  0  0
  -26.5880  -34.8900   22.4050 O   0  0  0  0  0  0  0  0  0  0  0  0
  -24.9540  -34.1090   24.9760 H   0  0  0  0  0  0  0  0  0  0  0  0
  -24.1850  -36.7970   23.0050 C   0  0  0  0  0  1  0  0  0  0  0  0
  -25.3980  -36.3930   23.8570 C   0  0  0  0  0  3  0  0  0  0  0  0
  -27.5040  -37.2910   24.7520 C   0  0  0  0  0  1  0  0  0  0  0  0
  -26.4340  -37.4470   23.7710 N   0  0  0  0  0  0  0  0  0  0  0  0
  -26.0230  -38.3700   23.8900 H   0  0  0  0  0  0  0  0  0  0  0  0
  -30.1540  -17.6770   19.7350 C   0  0  0  0  0  2  0  0  0  0  0  0
  -30.6500  -15.0270   20.1440 C   0  0  0  0  0  0  0  0  0  0  0  0
  -30.4610  -12.6950   19.1970 C   0  0  0  0  0  2  0  0  0  0  0  0
  -29.4960  -12.7320   17.9930 C   0  0  0  0  0  2  0  0  0  0  0  0
  -28.0410  -12.5230   18.4550 C   0  0  0  0  0  2  0  0  0  0  0  0
  -27.6810  -13.3870   19.6930 C   0  0  0  0  0  3  0  0  0  0  0  0
  -28.7790  -13.3720   20.7820 C   0  0  0  0  0  2  0  0  0  0  0  0
  -30.0350  -13.7750   20.1370 N   0  0  0  0  0  0  0  0  0  0  0  0
  -31.8250  -15.0750   19.7680 O   0  0  0  0  0  0  0  0  0  0  0  0
  -29.9140  -16.2310   20.3310 N   0  0  0  0  0  0  0  0  0  0  0  0
  -29.0090  -16.1020   20.7590 H   0  0  0  0  0  0  0  0  0  0  0  0
  -25.3220  -13.9370   20.5170 C   0  0  0  0  0  0  0  0  0  0  0  0
  -24.2720  -13.1560   20.9050 C   0  0  0  0  0  0  0  0  0  0  0  0
  -24.7340  -11.8040   20.8290 C   0  0  0  0  0  0  0  0  0  0  0  0
  -26.3620  -13.0690   20.2290 N   0  0  0  0  0  0  0  0  0  0  0  0
  -26.0170  -11.7780   20.4790 N   0  0  0  0  0  0  0  0  0  0  0  0
  -24.0100  -10.5400   21.0180 C   0  0  0  0  0  0  0  0  0  0  0  0
  -24.4500   -9.5710   21.9460 C   0  0  0  0  0  3  0  0  0  0  0  0
  -23.7290   -8.3720   22.1290 C   0  0  0  0  0  3  0  0  0  0  0  0
  -22.5480   -8.1340   21.3840 C   0  0  0  0  0  0  0  0  0  0  0  0
  -22.1240   -9.0920   20.4470 C   0  0  0  0  0  3  0  0  0  0  0  0
  -22.8470  -10.2830   20.2620 C   0  0  0  0  0  3  0  0  0  0  0  0
  -21.7990   -6.9860   21.4740 O   0  0  0  0  0  0  0  0  0  0  0  0
  -21.7420   -6.2500   22.6280 C   0  0  0  0  0  0  0  0  0  0  0  0
  -21.2800   -6.8010   23.8430 C   0  0  0  0  0  3  0  0  0  0  0  0
  -21.1750   -5.9910   24.9910 C   0  0  0  0  0  3  0  0  0  0  0  0
  -21.5200   -4.6280   24.9240 C   0  0  0  0  0  0  0  0  0  0  0  0
  -21.9740   -4.0740   23.7140 C   0  0  0  0  0  3  0  0  0  0  0  0
  -22.0830   -4.8830   22.5700 C   0  0  0  0  0  0  0  0  0  0  0  0
  -22.5000   -4.3400   21.4000 F   0  0  0  0  0  0  0  0  0  0  0  0
  -21.4120   -3.8450   26.0230 F   0  0  0  0  0  0  0  0  0  0  0  0
  -22.8830  -13.6250   21.2250 C   0  0  0  0  0  0  0  0  0  0  0  0
  -22.1820  -12.9140   22.0950 N   0  0  0  0  0  0  0  0  0  0  0  0
  -22.4310  -14.6630   20.7360 O   0  0  0  0  0  0  0  0  0  0  0  0
  -22.5610  -12.0800   22.5240 H   0  0  0  0  0  0  0  0  0  0  0  0
  -21.2450  -13.2020   22.3380 H   0  0  0  0  0  0  0  0  0  0  0  0
  -25.4730  -15.3160   20.3600 N   0  0  0  0  0  0  0  0  0  0  0  0
  -24.6900  -15.9490   20.4800 H   0  0  0  0  0  0  0  0  0  0  0  0
  -26.2980  -15.7760   20.0010 H   0  0  0  0  0  0  0  0  0  0  0  0
  2  1  1  0
  3 56  1  0
  3  1  1  0
  4 13  1  0
  4  2  1  0
  5  3  1  0
  5  4  1  0
  5  6  1  6
 10  7  1  6
  9 10  1  0
 10  5  1  0
 10  8  1  0
 13 11  1  6
 13 12  1  0
 13 14  1  0
 15 14  1  0
 16 27  2  0
 17 15  1  0
 17 22  1  0
 18 26  1  0
 18 28  1  0
 19 25  1  0
 19 21  1  0
 20 26  1  0
 21 22  2  0
 21 20  1  0
 23 17  2  0
 24 23  1  0
 24 19  2  0
 25 18  1  0
 26 16  1  0
 28 30  2  0
 29 28  1  0
 31 29  1  0
 32 41  2  0
 32 37  1  0
 33 29  1  0
 33 37  1  0
 34 33  1  0
 35 36  1  0
 35 34  1  0
 36 32  1  0
 37 38  2  0
 38 39  1  0
 40 39  2  0
 41 40  1  0
 42 16  1  0
 42 47  1  0
 42 43  1  0
 43 46  1  1
 43 44  1  0
 45 43  1  0
 47 50  1  0
 48 52  1  0
 48 47  1  0
 49 48  2  0
 52 51  1  0
 54 52  1  0
 54 55  1  0
 54 53  1  0
 56 65  1  0
 57 65  1  0
 58 63  1  0
 59 60  1  0
 59 58  1  0
 61 60  1  0
 61 70  1  0
 61 62  1  0
 63 57  1  0
 63 62  1  0
 64 57  2  0
 65 66  1  0
 67 68  2  0
 68 87  1  0
 69 68  1  0
 69 72  1  0
 70 71  1  0
 70 67  1  0
 71 69  2  0
 72 73  1  0
 73 74  2  0
 75 78  1  0
 75 74  1  0
 76 75  2  0
 77 76  1  0
 77 72  2  0
 78 79  1  0
 79 80  1  0
 80 81  2  0
 82 81  1  0
 82 86  1  0
 83 82  2  0
 84 79  2  0
 84 83  1  0
 85 84  1  0
 87 88  1  0
 88 91  1  0
 88 90  1  0
 89 87  2  0
 92 93  1  0
 92 67  1  0
 94 92  1  0
M  ISO  4  14 101  15 101  57 100  65 100
M  END
>  <TORSDO>  (25) 
F 20

>  <SCORE>  (25) 
-15.454

>  <name>  (25) 
24

>  <ligand_id>  (25) 
24

>  <original_smiles>  (25) 
[H]c1c([H])c([H])c2c(c1[H])C([H])([H])C([H])([H])C([H])([H])C2([H])N([H])C(=O)C1([H])N(C(=O)C([H])(N([H])C(=O)C([H])(N([H])C([H])([H])[H])C([H])([H])[H])C(C([H])([H])[H])(C([H])([H])[H])C([H])([H])[H])C([H])([H])c2c([H])c(OC([H])([H])C(C([H])([H])[H])(C([H])([H])[H])C3([H])C([H])([H])C([H])([H])C([H])(C([H])([H])N([H])C(=O)N4C([H])([H])C([H])([H])C([H])([H])C([H])(n5nc(-c6c([H])c([H])c(Oc7c([H])c([H])c(F)c([H])c7F)c([H])c6[H])c(C(=O)N([H])[H])c5N([H])[H])C4([H])[H])[N+]3([H])C(C([H])([H])[H])(C([H])([H])[H])C([H])([H])[H])c([H])c([H])c2C1([H])[H]

>  <smiles>  (25) 
[H]c1c([H])c([H])c2c(c1[H])C([H])([H])C([H])([H])C([H])([H])C2([H])N([H])C(=O)C1([H])N(C(=O)C([H])(N([H])C(=O)C([H])(N([H])C([H])([H])[H])C([H])([H])[H])C(C([H])([H])[H])(C([H])([H])[H])C([H])([H])[H])C([H])([H])c2c([H])c(OC([H])([H])C(C([H])([H])[H])(C([H])([H])[H])C3([H])C([H])([H])C([H])([H])C([H])(C([H])([H])N([H])C(=O)N4C([H])([H])C([H])([H])C([H])([H])C([H])(n5nc(-c6c([H])c([H])c(Oc7c([H])c([H])c(F)c([H])c7F)c([H])c6[H])c(C(=O)N([H])[H])c5N([H])[H])C4([H])[H])[N+]3([H])C(C([H])([H])[H])(C([H])([H])[H])C([H])([H])[H])c([H])c([H])c2C1([H])[H]

$$$$
25:0:0
     RDKit          3D

 90 99  0  0  1  0  0  0  0  0999 V2000
  -28.4700  -21.1430   19.1110 C   0  0  0  0  0  3  0  0  0  0  0  0
  -29.9070  -19.8230   20.9760 C   0  0  0  0  0  3  0  0  0  0  0  0
  -28.8270  -22.1960   20.1020 C   0  0  0  0  0  0  0  0  0  0  0  0
  -29.5730  -21.3230   21.0510 C   0  0  0  0  0  0  0  0  0  0  0  0
  -28.7710  -19.6380   19.0530 C   0  0  0  0  0  0  0  0  0  0  0  0
  -29.5570  -18.7640   19.9790 C   0  0  0  0  0  0  0  0  0  0  0  0
  -29.9610  -22.0080   22.3650 C   0  0  0  0  0  2  0  0  0  0  0  0
  -29.5690  -23.5070   22.5100 C   0  0  0  0  0  2  0  0  0  0  0  0
  -28.1710  -23.8960   21.9620 C   0  0  0  0  0  2  0  0  0  0  0  0
  -28.1290  -23.8930   20.4200 C   0  0  0  0  0  3  0  0  0  0  0  0
  -28.1030  -18.9270   17.8830 C   0  0  0  0  0  1  0  0  0  0  0  0
  -30.4730  -15.7270   19.9380 C   0  0  0  0  0  0  0  0  0  0  0  0
  -30.5680  -13.1830   19.1190 C   0  0  0  0  0  2  0  0  0  0  0  0
  -29.6150  -12.7720   17.9590 C   0  0  0  0  0  2  0  0  0  0  0  0
  -28.2090  -12.4260   18.4750 C   0  0  0  0  0  2  0  0  0  0  0  0
  -27.7570  -13.4160   19.5730 C   0  0  0  0  0  3  0  0  0  0  0  0
  -28.8450  -13.7150   20.6310 C   0  0  0  0  0  2  0  0  0  0  0  0
  -29.9780  -14.3500   19.9140 N   0  0  0  0  0  0  0  0  0  0  0  0
  -31.6970  -15.7030   19.6930 O   0  0  0  0  0  0  0  0  0  0  0  0
  -29.6470  -17.0400   20.0470 N   0  0  0  0  0  0  0  0  0  0  0  0
  -28.7080  -16.7020   20.1850 H   0  0  0  0  0  0  0  0  0  0  0  0
  -25.4460  -13.9340   20.4890 C   0  0  0  0  0  0  0  0  0  0  0  0
  -24.4050  -13.1470   20.8900 C   0  0  0  0  0  0  0  0  0  0  0  0
  -24.8660  -11.7970   20.7920 C   0  0  0  0  0  0  0  0  0  0  0  0
  -26.4690  -13.0670   20.1590 N   0  0  0  0  0  0  0  0  0  0  0  0
  -26.1380  -11.7730   20.4070 N   0  0  0  0  0  0  0  0  0  0  0  0
  -24.1430  -10.5310   20.9780 C   0  0  0  0  0  0  0  0  0  0  0  0
  -24.5830   -9.5580   21.9010 C   0  0  0  0  0  3  0  0  0  0  0  0
  -23.8560   -8.3610   22.0790 C   0  0  0  0  0  3  0  0  0  0  0  0
  -22.6770   -8.1290   21.3320 C   0  0  0  0  0  0  0  0  0  0  0  0
  -22.2570   -9.0910   20.3960 C   0  0  0  0  0  3  0  0  0  0  0  0
  -22.9840  -10.2790   20.2170 C   0  0  0  0  0  3  0  0  0  0  0  0
  -21.9220   -6.9850   21.4200 O   0  0  0  0  0  0  0  0  0  0  0  0
  -21.8200   -6.2750   22.5900 C   0  0  0  0  0  0  0  0  0  0  0  0
  -21.2960   -6.8500   23.7670 C   0  0  0  0  0  3  0  0  0  0  0  0
  -21.1470   -6.0640   24.9290 C   0  0  0  0  0  3  0  0  0  0  0  0
  -21.5140   -4.7060   24.9120 C   0  0  0  0  0  0  0  0  0  0  0  0
  -22.0320   -4.1290   23.7390 C   0  0  0  0  0  3  0  0  0  0  0  0
  -22.1810   -4.9110   22.5800 C   0  0  0  0  0  0  0  0  0  0  0  0
  -22.6620   -4.3450   21.4460 F   0  0  0  0  0  0  0  0  0  0  0  0
  -21.3620   -3.9480   26.0240 F   0  0  0  0  0  0  0  0  0  0  0  0
  -23.0250  -13.6210   21.2440 C   0  0  0  0  0  0  0  0  0  0  0  0
  -22.3410  -12.9080   22.1310 N   0  0  0  0  0  0  0  0  0  0  0  0
  -22.5660  -14.6610   20.7720 O   0  0  0  0  0  0  0  0  0  0  0  0
  -22.7240  -12.0670   22.5370 H   0  0  0  0  0  0  0  0  0  0  0  0
  -21.4180  -13.2130   22.4100 H   0  0  0  0  0  0  0  0  0  0  0  0
  -25.6040  -15.3110   20.3410 N   0  0  0  0  0  0  0  0  0  0  0  0
  -24.8470  -15.9680   20.5050 H   0  0  0  0  0  0  0  0  0  0  0  0
  -26.4120  -15.7430   19.9170 H   0  0  0  0  0  0  0  0  0  0  0  0
  -28.3720  -25.6040   20.1130 O   0  0  0  0  0  0  0  0  0  0  0  0
  -24.7610  -31.8110   23.1380 C   0  0  0  0  0  0  0  0  0  0  0  0
  -27.3840  -26.8040   20.1230 C   0  0  0  0  0  0  0  0  0  0  0  0
  -23.6050  -30.4110   21.4820 C   0  0  0  0  0  3  0  0  0  0  0  0
  -25.0840  -28.7980   20.0670 C   0  0  0  0  0  0  0  0  0  0  0  0
  -26.1810  -30.6000   21.3680 C   0  0  0  0  0  2  0  0  0  0  0  0
  -26.2720  -29.1720   20.7060 C   0  0  0  0  0  0  0  0  0  0  0  0
  -27.4090  -28.2060   20.6970 C   0  0  0  0  0  3  0  0  0  0  0  0
  -26.1550  -26.6410   19.4350 C   0  0  0  0  0  3  0  0  0  0  0  0
  -25.0620  -27.5600   19.4080 C   0  0  0  0  0  3  0  0  0  0  0  0
  -23.8610  -29.7290   20.1090 C   0  0  0  0  0  2  0  0  0  0  0  0
  -24.8730  -30.9690   22.0520 N   0  0  0  0  0  0  0  0  0  0  0  0
  -23.6610  -32.0930   23.6430 O   0  0  0  0  0  0  0  0  0  0  0  0
  -22.8930  -29.4150   22.4380 C   0  0  0  0  0  0  0  0  0  0  0  0
  -21.5620  -29.2610   22.3130 N   0  0  0  0  0  0  0  0  0  0  0  0
  -23.5540  -28.7790   23.2630 O   0  0  0  0  0  0  0  0  0  0  0  0
  -21.0850  -29.8270   21.6260 H   0  0  0  0  0  0  0  0  0  0  0  0
  -18.1730  -28.0670   22.8480 C   0  0  0  0  0  0  0  0  0  0  0  0
  -20.7380  -28.3100   23.0690 C   0  0  0  0  0  3  0  0  0  0  0  0
  -20.8170  -26.8940   22.4490 C   0  0  0  0  0  2  0  0  0  0  0  0
  -19.6930  -26.6110   21.4440 C   0  0  0  0  0  2  0  0  0  0  0  0
  -18.3270  -26.7410   22.1210 C   0  0  0  0  0  2  0  0  0  0  0  0
  -19.3030  -28.8100   23.2780 C   0  0  0  0  0  0  0  0  0  0  0  0
  -19.1010  -30.0490   23.9250 C   0  0  0  0  0  3  0  0  0  0  0  0
  -17.8010  -30.5450   24.1400 C   0  0  0  0  0  3  0  0  0  0  0  0
  -16.6860  -29.8000   23.7230 C   0  0  0  0  0  3  0  0  0  0  0  0
  -16.8720  -28.5610   23.0830 C   0  0  0  0  0  3  0  0  0  0  0  0
  -26.0100  -32.4720   23.7960 C   0  0  0  0  0  3  0  0  0  0  0  0
  -25.6660  -33.8640   24.1510 N   0  0  0  0  0  0  0  0  0  0  0  0
  -25.9620  -34.9430   23.4150 C   0  0  0  0  0  0  0  0  0  0  0  0
  -26.6110  -34.8740   22.3680 O   0  0  0  0  0  0  0  0  0  0  0  0
  -25.0800  -33.9880   24.9640 H   0  0  0  0  0  0  0  0  0  0  0  0
  -24.1780  -36.7060   23.1590 C   0  0  0  0  0  1  0  0  0  0  0  0
  -25.4610  -36.3170   23.9130 C   0  0  0  0  0  3  0  0  0  0  0  0
  -27.6020  -37.2500   24.6750 C   0  0  0  0  0  1  0  0  0  0  0  0
  -26.4640  -37.3980   23.7730 N   0  0  0  0  0  0  0  0  0  0  0  0
  -26.0440  -38.3070   23.9460 H   0  0  0  0  0  0  0  0  0  0  0  0
  -26.5070  -31.7010   25.0810 C   0  0  1  0  0  0  0  0  0  0  0  0
  -25.3990  -31.4470   26.1300 C   0  0  0  0  0  1  0  0  0  0  0  0
  -27.1120  -30.3310   24.7000 C   0  0  0  0  0  1  0  0  0  0  0  0
  -27.6430  -32.4980   25.7680 C   0  0  0  0  0  1  0  0  0  0  0  0
  1  3  1  0
  2  4  1  0
  3 10  1  0
  3  4  2  0
  4  7  1  0
  5  1  2  0
  5  6  1  0
  6 20  1  0
  6  2  2  0
  7  8  1  0
  9  8  1  0
 10 50  1  0
 10  9  1  0
 11  5  1  0
 12 20  1  0
 13 18  1  0
 14 15  1  0
 14 13  1  0
 16 15  1  0
 16 25  1  0
 16 17  1  0
 18 12  1  0
 18 17  1  0
 19 12  2  0
 20 21  1  0
 22 23  2  0
 23 42  1  0
 24 23  1  0
 24 27  1  0
 25 26  1  0
 25 22  1  0
 26 24  2  0
 27 28  1  0
 28 29  2  0
 30 33  1  0
 30 29  1  0
 31 30  2  0
 32 31  1  0
 32 27  2  0
 33 34  1  0
 34 35  1  0
 35 36  2  0
 37 36  1  0
 37 41  1  0
 38 37  2  0
 39 34  2  0
 39 38  1  0
 40 39  1  0
 42 43  1  0
 43 46  1  0
 43 45  1  0
 44 42  2  0
 47 22  1  0
 47 48  1  0
 49 47  1  0
 50 52  1  0
 51 62  2  0
 52 57  1  0
 53 61  1  0
 53 63  1  0
 54 60  1  0
 54 56  1  0
 55 61  1  0
 56 55  1  0
 57 56  2  0
 58 52  2  0
 59 58  1  0
 59 54  2  0
 60 53  1  0
 61 51  1  0
 63 65  2  0
 64 63  1  0
 66 64  1  0
 67 76  2  0
 67 72  1  0
 68 64  1  0
 68 72  1  0
 69 68  1  0
 70 71  1  0
 70 69  1  0
 71 67  1  0
 72 73  2  0
 73 74  1  0
 75 74  2  0
 76 75  1  0
 77 51  1  0
 77 78  1  0
 77 87  1  0
 78 81  1  0
 79 83  1  0
 79 78  1  0
 80 79  2  0
 83 82  1  0
 85 83  1  0
 85 86  1  0
 85 84  1  0
 87 90  1  1
 87 88  1  0
 89 87  1  0
M  ISO  4  10 101  12 100  20 100  50 101
M  END
>  <TORSDO>  (26) 
F 16

>  <SCORE>  (26) 
-16.819

>  <name>  (26) 
25

>  <ligand_id>  (26) 
25

>  <original_smiles>  (26) 
[H]c1c([H])c([H])c2c(c1[H])C([H])([H])C([H])([H])C([H])([H])C2([H])N([H])C(=O)C1([H])N(C(=O)C([H])(N([H])C(=O)C([H])(N([H])C([H])([H])[H])C([H])([H])[H])C(C([H])([H])[H])(C([H])([H])[H])C([H])([H])[H])C([H])([H])c2c([H])c(OC3([H])c4c([H])c(C([H])([H])[H])c(N([H])C(=O)N5C([H])([H])C([H])([H])C([H])([H])C([H])(n6nc(-c7c([H])c([H])c(Oc8c([H])c([H])c(F)c([H])c8F)c([H])c7[H])c(C(=O)N([H])[H])c6N([H])[H])C5([H])[H])c([H])c4C([H])([H])C([H])([H])C3([H])[H])c([H])c([H])c2C1([H])[H]

>  <smiles>  (26) 
[H]c1c([H])c([H])c2c(c1[H])C([H])([H])C([H])([H])C([H])([H])C2([H])N([H])C(=O)C1([H])N(C(=O)C([H])(N([H])C(=O)C([H])(N([H])C([H])([H])[H])C([H])([H])[H])C(C([H])([H])[H])(C([H])([H])[H])C([H])([H])[H])C([H])([H])c2c([H])c(OC3([H])c4c([H])c(C([H])([H])[H])c(N([H])C(=O)N5C([H])([H])C([H])([H])C([H])([H])C([H])(n6nc(-c7c([H])c([H])c(Oc8c([H])c([H])c(F)c([H])c8F)c([H])c7[H])c(C(=O)N([H])[H])c6N([H])[H])C5([H])[H])c([H])c4C([H])([H])C([H])([H])C3([H])[H])c([H])c([H])c2C1([H])[H]

$$$$
26:0:0
     RDKit          3D

 95103  0  0  1  0  0  0  0  0999 V2000
  -31.6190  -20.7700   21.3550 C   0  0  0  0  0  3  0  0  0  0  0  0
  -30.2380  -20.6500   21.0880 C   0  0  0  0  0  0  0  0  0  0  0  0
  -30.6120  -18.2650   20.4110 C   0  0  0  0  0  0  0  0  0  0  0  0
  -32.4930  -19.6950   21.1240 C   0  0  0  0  0  0  0  0  0  0  0  0
  -29.7390  -19.3830   20.6410 C   0  0  0  0  0  0  0  0  0  0  0  0
  -32.0060  -18.4640   20.6280 C   0  0  0  0  0  0  0  0  0  0  0  0
  -34.1820  -19.9220   21.4310 Cl  0  0  0  0  0  0  0  0  0  0  0  0
  -28.0390  -19.2260   20.3480 Cl  0  0  0  0  0  0  0  0  0  0  0  0
  -33.1690  -17.2480   20.2280 Cl  0  0  0  0  0  0  0  0  0  0  0  0
  -30.1010  -16.9360   19.7710 C   0  0  0  0  0  2  0  0  0  0  0  0
  -30.6780  -14.5500   20.3180 C   0  0  0  0  0  0  0  0  0  0  0  0
  -30.3360  -12.3600   19.2610 C   0  0  0  0  0  2  0  0  0  0  0  0
  -29.4010  -12.5880   18.0550 C   0  0  0  0  0  2  0  0  0  0  0  0
  -27.9260  -12.4710   18.4910 C   0  0  0  0  0  2  0  0  0  0  0  0
  -27.6020  -13.2980   19.7660 C   0  0  0  0  0  3  0  0  0  0  0  0
  -28.6720  -13.0990   20.8660 C   0  0  0  0  0  2  0  0  0  0  0  0
  -29.9910  -13.3740   20.2760 N   0  0  0  0  0  0  0  0  0  0  0  0
  -31.8240  -14.6340   19.8850 O   0  0  0  0  0  0  0  0  0  0  0  0
  -29.9600  -15.6720   20.5620 N   0  0  0  0  0  0  0  0  0  0  0  0
  -29.0430  -15.5100   20.9530 H   0  0  0  0  0  0  0  0  0  0  0  0
  -25.2110  -13.8970   20.4930 C   0  0  0  0  0  0  0  0  0  0  0  0
  -24.1420  -13.1220   20.8660 C   0  0  0  0  0  0  0  0  0  0  0  0
  -24.6050  -11.7720   20.8340 C   0  0  0  0  0  0  0  0  0  0  0  0
  -26.2550  -13.0150   20.2580 N   0  0  0  0  0  0  0  0  0  0  0  0
  -25.8940  -11.7320   20.5210 N   0  0  0  0  0  0  0  0  0  0  0  0
  -23.8790  -10.5100   21.0300 C   0  0  0  0  0  0  0  0  0  0  0  0
  -24.3230   -9.5390   21.9530 C   0  0  0  0  0  3  0  0  0  0  0  0
  -23.5990   -8.3420   22.1380 C   0  0  0  0  0  3  0  0  0  0  0  0
  -22.4150   -8.1070   21.4000 C   0  0  0  0  0  0  0  0  0  0  0  0
  -21.9910   -9.0660   20.4650 C   0  0  0  0  0  3  0  0  0  0  0  0
  -22.7170  -10.2540   20.2770 C   0  0  0  0  0  3  0  0  0  0  0  0
  -21.6590   -6.9630   21.4960 O   0  0  0  0  0  0  0  0  0  0  0  0
  -21.6340   -6.2130   22.6420 C   0  0  0  0  0  0  0  0  0  0  0  0
  -21.2520   -6.7610   23.8860 C   0  0  0  0  0  3  0  0  0  0  0  0
  -21.1740   -5.9360   25.0260 C   0  0  0  0  0  3  0  0  0  0  0  0
  -21.4660   -4.5630   24.9220 C   0  0  0  0  0  0  0  0  0  0  0  0
  -21.8410   -4.0120   23.6850 C   0  0  0  0  0  3  0  0  0  0  0  0
  -21.9230   -4.8370   22.5480 C   0  0  0  0  0  0  0  0  0  0  0  0
  -22.2640   -4.2970   21.3520 F   0  0  0  0  0  0  0  0  0  0  0  0
  -21.3840   -3.7670   26.0160 F   0  0  0  0  0  0  0  0  0  0  0  0
  -22.7480  -13.6020   21.1410 C   0  0  0  0  0  0  0  0  0  0  0  0
  -22.0230  -12.9070   22.0140 N   0  0  0  0  0  0  0  0  0  0  0  0
  -22.3080  -14.6250   20.6210 O   0  0  0  0  0  0  0  0  0  0  0  0
  -22.3910  -12.0800   22.4580 H   0  0  0  0  0  0  0  0  0  0  0  0
  -21.0850  -13.2080   22.2350 H   0  0  0  0  0  0  0  0  0  0  0  0
  -25.3730  -15.2660   20.3100 N   0  0  0  0  0  0  0  0  0  0  0  0
  -24.6110  -15.9230   20.4290 H   0  0  0  0  0  0  0  0  0  0  0  0
  -26.2180  -15.7100   19.9700 H   0  0  0  0  0  0  0  0  0  0  0  0
  -29.3400  -21.8840   21.3730 C   0  0  0  0  0  2  0  0  0  0  0  0
  -29.3470  -22.9630   20.3370 N   0  0  0  0  0  4  0  0  0  0  0  0
  -28.7510  -22.6640   19.5820 H   0  0  0  0  0  0  0  0  0  0  0  0
  -30.2820  -23.0480   19.9680 H   0  0  0  0  0  0  0  0  0  0  0  0
  -28.8950  -24.3180   20.8150 C   0  0  0  0  0  2  0  0  0  0  0  0
  -28.5360  -25.3270   19.6710 C   0  0  0  0  0  2  0  0  0  0  0  0
  -28.3940  -26.6920   20.1700 O   0  0  0  0  0  0  0  0  0  0  0  0
  -24.5880  -31.9180   23.2600 C   0  0  0  0  0  0  0  0  0  0  0  0
  -27.1960  -27.4060   20.1610 C   0  0  0  0  0  0  0  0  0  0  0  0
  -23.3720  -30.5230   21.6240 C   0  0  0  0  0  3  0  0  0  0  0  0
  -24.8090  -28.9690   20.1980 C   0  0  0  0  0  0  0  0  0  0  0  0
  -25.9050  -30.8420   21.4290 C   0  0  0  0  0  2  0  0  0  0  0  0
  -25.9750  -29.4670   20.7900 C   0  0  0  0  0  0  0  0  0  0  0  0
  -27.1620  -28.6900   20.7720 C   0  0  0  0  0  3  0  0  0  0  0  0
  -25.9990  -26.9380   19.5600 C   0  0  0  0  0  3  0  0  0  0  0  0
  -24.8190  -27.7070   19.5860 C   0  0  0  0  0  3  0  0  0  0  0  0
  -23.5760  -29.8480   20.2440 C   0  0  0  0  0  2  0  0  0  0  0  0
  -24.6400  -31.1110   22.1610 N   0  0  0  0  0  0  0  0  0  0  0  0
  -23.5080  -32.1980   23.8000 O   0  0  0  0  0  0  0  0  0  0  0  0
  -22.7170  -29.5040   22.5840 C   0  0  0  0  0  0  0  0  0  0  0  0
  -21.3920  -29.3230   22.4570 N   0  0  0  0  0  0  0  0  0  0  0  0
  -23.3970  -28.8810   23.4040 O   0  0  0  0  0  0  0  0  0  0  0  0
  -20.8990  -29.8810   21.7720 H   0  0  0  0  0  0  0  0  0  0  0  0
  -18.0170  -28.1210   22.9450 C   0  0  0  0  0  0  0  0  0  0  0  0
  -20.5730  -28.3860   23.2290 C   0  0  0  0  0  3  0  0  0  0  0  0
  -20.6800  -26.9520   22.6600 C   0  0  0  0  0  2  0  0  0  0  0  0
  -19.5870  -26.6210   21.6410 C   0  0  0  0  0  2  0  0  0  0  0  0
  -18.2020  -26.7670   22.2770 C   0  0  0  0  0  2  0  0  0  0  0  0
  -19.1310  -28.8890   23.3770 C   0  0  0  0  0  0  0  0  0  0  0  0
  -18.9100  -30.1550   23.9600 C   0  0  0  0  0  3  0  0  0  0  0  0
  -17.6060  -30.6580   24.1100 C   0  0  0  0  0  3  0  0  0  0  0  0
  -16.5040  -29.8890   23.6960 C   0  0  0  0  0  3  0  0  0  0  0  0
  -16.7100  -28.6200   23.1250 C   0  0  0  0  0  3  0  0  0  0  0  0
  -25.8770  -32.5480   23.8760 C   0  0  0  0  0  3  0  0  0  0  0  0
  -25.5730  -33.9470   24.2050 N   0  0  0  0  0  0  0  0  0  0  0  0
  -25.9050  -34.9980   23.4410 C   0  0  0  0  0  0  0  0  0  0  0  0
  -26.5710  -34.8890   22.4080 O   0  0  0  0  0  0  0  0  0  0  0  0
  -24.9880  -34.1060   25.0120 H   0  0  0  0  0  0  0  0  0  0  0  0
  -24.1770  -36.7900   23.0830 C   0  0  0  0  0  1  0  0  0  0  0  0
  -25.4200  -36.3890   23.8940 C   0  0  0  0  0  3  0  0  0  0  0  0
  -27.5610  -37.2690   24.7140 C   0  0  0  0  0  1  0  0  0  0  0  0
  -26.4550  -37.4390   23.7760 N   0  0  0  0  0  0  0  0  0  0  0  0
  -26.0530  -38.3600   23.9240 H   0  0  0  0  0  0  0  0  0  0  0  0
  -26.3950  -31.7760   25.1520 C   0  0  1  0  0  0  0  0  0  0  0  0
  -25.3080  -31.5400   26.2270 C   0  0  0  0  0  1  0  0  0  0  0  0
  -26.9710  -30.3970   24.7540 C   0  0  0  0  0  1  0  0  0  0  0  0
  -27.5530  -32.5650   25.8090 C   0  0  0  0  0  1  0  0  0  0  0  0
  2  1  2  0
  2 49  1  0
  3  6  1  0
  3  5  2  0
  4  1  1  0
  4  7  1  0
  5  2  1  0
  6  4  2  0
  8  5  1  0
  9  6  1  0
 10  3  1  0
 10 19  1  0
 11 19  1  0
 12 17  1  0
 13 14  1  0
 13 12  1  0
 15 14  1  0
 15 24  1  0
 15 16  1  0
 17 11  1  0
 17 16  1  0
 18 11  2  0
 19 20  1  0
 21 22  2  0
 22 41  1  0
 23 22  1  0
 23 26  1  0
 24 21  1  0
 24 25  1  0
 25 23  2  0
 26 27  1  0
 27 28  2  0
 29 32  1  0
 29 28  1  0
 30 29  2  0
 31 30  1  0
 31 26  2  0
 32 33  1  0
 33 34  1  0
 34 35  2  0
 36 35  1  0
 36 40  1  0
 37 36  2  0
 38 33  2  0
 38 37  1  0
 39 38  1  0
 41 42  1  0
 42 45  1  0
 42 44  1  0
 43 41  2  0
 46 47  1  0
 46 21  1  0
 48 46  1  0
 50 53  1  0
 50 49  1  0
 51 50  1  0
 52 50  1  0
 54 55  1  0
 54 53  1  0
 56 67  2  0
 57 55  1  0
 57 62  1  0
 58 66  1  0
 58 68  1  0
 59 65  1  0
 59 61  1  0
 60 66  1  0
 61 60  1  0
 62 61  2  0
 63 64  1  0
 63 57  2  0
 64 59  2  0
 65 58  1  0
 66 56  1  0
 68 70  2  0
 69 68  1  0
 71 69  1  0
 72 81  2  0
 72 77  1  0
 73 69  1  0
 73 77  1  0
 74 73  1  0
 75 76  1  0
 75 74  1  0
 76 72  1  0
 77 78  2  0
 78 79  1  0
 80 79  2  0
 81 80  1  0
 82 56  1  0
 82 83  1  0
 82 92  1  0
 83 86  1  0
 84 88  1  0
 84 83  1  0
 85 84  2  0
 88 87  1  0
 90 88  1  0
 90 91  1  0
 90 89  1  0
 92 95  1  1
 92 93  1  0
 94 92  1  0
M  ISO  4  11 100  19 100  54 101  55 101
M  END
>  <TORSDO>  (27) 
F 21

>  <SCORE>  (27) 
-13.730

>  <name>  (27) 
26

>  <ligand_id>  (27) 
26

>  <original_smiles>  (27) 
[H]c1c([H])c([H])c2c(c1[H])C([H])([H])C([H])([H])C([H])([H])C2([H])N([H])C(=O)C1([H])N(C(=O)C([H])(N([H])C(=O)C([H])(N([H])C([H])([H])[H])C([H])([H])[H])C(C([H])([H])[H])(C([H])([H])[H])C([H])([H])[H])C([H])([H])c2c([H])c(OC([H])([H])C([H])([H])[N+]([H])([H])C([H])([H])c3c([H])c(Cl)c(Cl)c(C([H])([H])N([H])C(=O)N4C([H])([H])C([H])([H])C([H])([H])C([H])(n5nc(-c6c([H])c([H])c(Oc7c([H])c([H])c(F)c([H])c7F)c([H])c6[H])c(C(=O)N([H])[H])c5N([H])[H])C4([H])[H])c3Cl)c([H])c([H])c2C1([H])[H]

>  <smiles>  (27) 
[H]c1c([H])c([H])c2c(c1[H])C([H])([H])C([H])([H])C([H])([H])C2([H])N([H])C(=O)C1([H])N(C(=O)C([H])(N([H])C(=O)C([H])(N([H])C([H])([H])[H])C([H])([H])[H])C(C([H])([H])[H])(C([H])([H])[H])C([H])([H])[H])C([H])([H])c2c([H])c(OC([H])([H])C([H])([H])[N+]([H])([H])C([H])([H])c3c([H])c(Cl)c(Cl)c(C([H])([H])N([H])C(=O)N4C([H])([H])C([H])([H])C([H])([H])C([H])(n5nc(-c6c([H])c([H])c(Oc7c([H])c([H])c(F)c([H])c7F)c([H])c6[H])c(C(=O)N([H])[H])c5N([H])[H])C4([H])[H])c3Cl)c([H])c([H])c2C1([H])[H]

$$$$
27:0:0
     RDKit          3D

 98106  0  0  1  0  0  0  0  0999 V2000
  -24.7750  -21.6810   18.4640 C   0  0  0  0  0  3  0  0  0  0  0  0
  -26.1380  -21.3660   18.5810 C   0  0  0  0  0  0  0  0  0  0  0  0
  -26.9450  -22.1850   19.4390 C   0  0  0  0  0  0  0  0  0  0  0  0
  -26.4090  -23.3810   20.0220 C   0  0  0  0  0  0  0  0  0  0  0  0
  -24.9870  -23.5860   19.9770 C   0  0  0  0  0  0  0  0  0  0  0  0
  -24.1930  -22.7340   19.1770 C   0  0  0  0  0  0  0  0  0  0  0  0
  -28.3720  -21.7850   19.7970 C   0  0  0  0  0  1  0  0  0  0  0  0
  -24.2360  -24.6690   20.7590 C   0  0  0  0  0  1  0  0  0  0  0  0
  -22.4850  -22.9740   19.0140 Cl  0  0  0  0  0  0  0  0  0  0  0  0
  -27.3690  -24.4260   20.6600 C   0  0  0  0  0  2  0  0  0  0  0  0
  -28.1850  -25.3010   19.6450 C   0  0  0  0  0  2  0  0  0  0  0  0
  -28.3710  -26.6910   20.0350 O   0  0  0  0  0  0  0  0  0  0  0  0
  -24.5950  -31.8050   23.3020 C   0  0  0  0  0  0  0  0  0  0  0  0
  -27.2540  -27.5080   20.0190 C   0  0  0  0  0  0  0  0  0  0  0  0
  -23.4340  -30.5070   21.5680 C   0  0  0  0  0  3  0  0  0  0  0  0
  -24.9110  -29.0900   20.0680 C   0  0  0  0  0  0  0  0  0  0  0  0
  -25.9720  -30.8740   21.4370 C   0  0  0  0  0  2  0  0  0  0  0  0
  -26.0680  -29.5450   20.7090 C   0  0  0  0  0  0  0  0  0  0  0  0
  -27.2540  -28.7600   20.6820 C   0  0  0  0  0  3  0  0  0  0  0  0
  -26.0690  -27.0970   19.3620 C   0  0  0  0  0  3  0  0  0  0  0  0
  -24.9060  -27.8680   19.3970 C   0  0  0  0  0  3  0  0  0  0  0  0
  -23.6650  -29.9410   20.1490 C   0  0  0  0  0  2  0  0  0  0  0  0
  -24.6900  -31.0640   22.1660 N   0  0  0  0  0  0  0  0  0  0  0  0
  -23.4980  -32.0500   23.8300 O   0  0  0  0  0  0  0  0  0  0  0  0
  -22.7780  -29.4100   22.4430 C   0  0  0  0  0  0  0  0  0  0  0  0
  -21.4610  -29.2220   22.2640 N   0  0  0  0  0  0  0  0  0  0  0  0
  -23.4490  -28.7410   23.2380 O   0  0  0  0  0  0  0  0  0  0  0  0
  -20.9990  -29.8070   21.5850 H   0  0  0  0  0  0  0  0  0  0  0  0
  -18.0740  -28.0060   22.6090 C   0  0  0  0  0  0  0  0  0  0  0  0
  -20.6260  -28.2410   22.9530 C   0  0  0  0  0  3  0  0  0  0  0  0
  -20.7460  -26.8530   22.2910 C   0  0  0  0  0  2  0  0  0  0  0  0
  -19.6640  -26.5910   21.2370 C   0  0  0  0  0  2  0  0  0  0  0  0
  -18.2670  -26.6980   21.8590 C   0  0  0  0  0  2  0  0  0  0  0  0
  -19.1840  -28.7380   23.1060 C   0  0  0  0  0  0  0  0  0  0  0  0
  -18.9570  -29.9620   23.7720 C   0  0  0  0  0  3  0  0  0  0  0  0
  -17.6510  -30.4560   23.9500 C   0  0  0  0  0  3  0  0  0  0  0  0
  -16.5540  -29.7210   23.4680 C   0  0  0  0  0  3  0  0  0  0  0  0
  -16.7650  -28.4990   22.8020 C   0  0  0  0  0  3  0  0  0  0  0  0
  -25.8610  -32.4120   23.9820 C   0  0  0  0  0  3  0  0  0  0  0  0
  -25.5580  -33.8080   24.3120 N   0  0  0  0  0  0  0  0  0  0  0  0
  -25.9300  -34.8580   23.5680 C   0  0  0  0  0  0  0  0  0  0  0  0
  -26.6300  -34.7450   22.5570 O   0  0  0  0  0  0  0  0  0  0  0  0
  -24.9220  -33.9720   25.0810 H   0  0  0  0  0  0  0  0  0  0  0  0
  -24.2300  -36.6640   23.1630 C   0  0  0  0  0  1  0  0  0  0  0  0
  -25.4420  -36.2460   24.0110 C   0  0  0  0  0  3  0  0  0  0  0  0
  -27.5490  -37.1100   24.9240 C   0  0  0  0  0  1  0  0  0  0  0  0
  -26.4870  -37.2890   23.9390 N   0  0  0  0  0  0  0  0  0  0  0  0
  -26.0820  -38.2120   24.0730 H   0  0  0  0  0  0  0  0  0  0  0  0
  -26.3060  -31.6050   25.2630 C   0  0  1  0  0  0  0  0  0  0  0  0
  -25.1540  -31.3630   26.2700 C   0  0  0  0  0  1  0  0  0  0  0  0
  -26.8880  -30.2250   24.8710 C   0  0  0  0  0  1  0  0  0  0  0  0
  -27.4420  -32.3670   25.9830 C   0  0  0  0  0  1  0  0  0  0  0  0
  -26.5890  -20.1420   17.7400 C   0  0  0  0  0  2  0  0  0  0  0  0
  -28.0450  -19.8800   17.6120 N   0  0  0  0  0  4  0  0  0  0  0  0
  -28.5360  -20.5180   18.2130 H   0  0  0  0  0  0  0  0  0  0  0  0
  -28.3090  -20.1070   16.6630 H   0  0  0  0  0  0  0  0  0  0  0  0
  -28.4930  -18.4830   17.8810 C   0  0  0  0  0  2  0  0  0  0  0  0
  -28.2590  -17.9650   19.3280 C   0  0  0  0  0  2  0  0  0  0  0  0
  -29.3530  -18.2410   20.4050 C   0  0  0  0  0  2  0  0  0  0  0  0
  -30.5470  -17.2580   20.4370 C   0  0  0  0  0  2  0  0  0  0  0  0
  -30.8410  -14.7700   20.2470 C   0  0  0  0  0  0  0  0  0  0  0  0
  -30.5350  -12.5760   19.1850 C   0  0  0  0  0  2  0  0  0  0  0  0
  -29.5890  -12.7390   17.9780 C   0  0  0  0  0  2  0  0  0  0  0  0
  -28.1170  -12.5980   18.4110 C   0  0  0  0  0  2  0  0  0  0  0  0
  -27.7720  -13.4500   19.6620 C   0  0  0  0  0  3  0  0  0  0  0  0
  -28.8460  -13.3130   20.7710 C   0  0  0  0  0  2  0  0  0  0  0  0
  -30.1620  -13.5970   20.1750 N   0  0  0  0  0  0  0  0  0  0  0  0
  -31.9950  -14.9080   19.8330 O   0  0  0  0  0  0  0  0  0  0  0  0
  -30.1200  -15.8570   20.5840 N   0  0  0  0  0  0  0  0  0  0  0  0
  -29.1630  -15.6940   20.8450 H   0  0  0  0  0  0  0  0  0  0  0  0
  -25.3710  -14.0230   20.3890 C   0  0  0  0  0  0  0  0  0  0  0  0
  -24.3120  -13.2370   20.7640 C   0  0  0  0  0  0  0  0  0  0  0  0
  -24.7920  -11.8920   20.7370 C   0  0  0  0  0  0  0  0  0  0  0  0
  -26.4270  -13.1560   20.1600 N   0  0  0  0  0  0  0  0  0  0  0  0
  -26.0820  -11.8670   20.4280 N   0  0  0  0  0  0  0  0  0  0  0  0
  -24.0810  -10.6210   20.9330 C   0  0  0  0  0  0  0  0  0  0  0  0
  -24.5110   -9.6720   21.8870 C   0  0  0  0  0  3  0  0  0  0  0  0
  -23.7980   -8.4670   22.0690 C   0  0  0  0  0  3  0  0  0  0  0  0
  -22.6370   -8.2070   21.3020 C   0  0  0  0  0  0  0  0  0  0  0  0
  -22.2280   -9.1450   20.3390 C   0  0  0  0  0  3  0  0  0  0  0  0
  -22.9420  -10.3410   20.1550 C   0  0  0  0  0  3  0  0  0  0  0  0
  -21.8970   -7.0530   21.3930 O   0  0  0  0  0  0  0  0  0  0  0  0
  -21.8270   -6.3330   22.5580 C   0  0  0  0  0  0  0  0  0  0  0  0
  -21.3350   -6.8970   23.7550 C   0  0  0  0  0  3  0  0  0  0  0  0
  -21.2110   -6.1010   24.9120 C   0  0  0  0  0  3  0  0  0  0  0  0
  -21.5760   -4.7400   24.8740 C   0  0  0  0  0  0  0  0  0  0  0  0
  -22.0620   -4.1760   23.6810 C   0  0  0  0  0  3  0  0  0  0  0  0
  -22.1850   -4.9710   22.5270 C   0  0  0  0  0  0  0  0  0  0  0  0
  -22.6330   -4.4160   21.3750 F   0  0  0  0  0  0  0  0  0  0  0  0
  -21.4540   -3.9730   25.9810 F   0  0  0  0  0  0  0  0  0  0  0  0
  -22.9120  -13.7020   21.0410 C   0  0  0  0  0  0  0  0  0  0  0  0
  -22.1920  -12.9980   21.9100 N   0  0  0  0  0  0  0  0  0  0  0  0
  -22.4600  -14.7170   20.5170 O   0  0  0  0  0  0  0  0  0  0  0  0
  -22.5700  -12.1770   22.3510 H   0  0  0  0  0  0  0  0  0  0  0  0
  -21.2520  -13.2920   22.1310 H   0  0  0  0  0  0  0  0  0  0  0  0
  -25.5050  -15.3950   20.2020 N   0  0  0  0  0  0  0  0  0  0  0  0
  -24.7100  -16.0150   20.3150 H   0  0  0  0  0  0  0  0  0  0  0  0
  -26.3380  -15.8640   19.8700 H   0  0  0  0  0  0  0  0  0  0  0  0
  1  2  2  0
  1  6  1  0
  2  3  1  0
  3  7  1  0
  3  4  2  0
  4 10  1  0
  5  4  1  0
  5  8  1  0
  6  5  2  0
  9  6  1  0
 11 12  1  0
 11 10  1  0
 13 24  2  0
 14 12  1  0
 14 19  1  0
 15 23  1  0
 15 25  1  0
 16 22  1  0
 16 18  1  0
 17 23  1  0
 18 17  1  0
 19 18  2  0
 20 21  1  0
 20 14  2  0
 21 16  2  0
 22 15  1  0
 23 13  1  0
 25 27  2  0
 26 25  1  0
 28 26  1  0
 29 38  2  0
 29 34  1  0
 30 26  1  0
 30 34  1  0
 31 30  1  0
 32 33  1  0
 32 31  1  0
 33 29  1  0
 34 35  2  0
 35 36  1  0
 37 36  2  0
 38 37  1  0
 39 13  1  0
 39 40  1  0
 39 49  1  0
 40 43  1  0
 41 45  1  0
 41 40  1  0
 42 41  2  0
 45 44  1  0
 47 45  1  0
 47 48  1  0
 47 46  1  0
 49 52  1  1
 49 50  1  0
 51 49  1  0
 53  2  1  0
 54 53  1  0
 54 57  1  0
 54 55  1  0
 56 54  1  0
 57 58  1  0
 58 59  1  0
 59 60  1  0
 60 69  1  0
 61 69  1  0
 62 67  1  0
 63 64  1  0
 63 62  1  0
 65 64  1  0
 65 74  1  0
 65 66  1  0
 67 61  1  0
 67 66  1  0
 68 61  2  0
 69 70  1  0
 71 72  2  0
 72 91  1  0
 73 72  1  0
 73 76  1  0
 74 71  1  0
 74 75  1  0
 75 73  2  0
 76 77  1  0
 77 78  2  0
 79 82  1  0
 79 78  1  0
 80 79  2  0
 81 80  1  0
 81 76  2  0
 82 83  1  0
 83 84  1  0
 84 85  2  0
 86 85  1  0
 86 90  1  0
 87 86  2  0
 88 83  2  0
 88 87  1  0
 89 88  1  0
 91 92  1  0
 92 95  1  0
 92 94  1  0
 93 91  2  0
 96 97  1  0
 96 71  1  0
 98 96  1  0
M  ISO  4  11 101  12 101  61 100  69 100
M  END
>  <TORSDO>  (28) 
F 24

>  <SCORE>  (28) 
-12.695

>  <name>  (28) 
27

>  <ligand_id>  (28) 
27

>  <original_smiles>  (28) 
[H]c1c([H])c([H])c2c(c1[H])C([H])([H])C([H])([H])C([H])([H])C2([H])N([H])C(=O)C1([H])N(C(=O)C([H])(N([H])C(=O)C([H])(N([H])C([H])([H])[H])C([H])([H])[H])C(C([H])([H])[H])(C([H])([H])[H])C([H])([H])[H])C([H])([H])c2c([H])c(OC([H])([H])C([H])([H])c3c(C([H])([H])[H])c(Cl)c([H])c(C([H])([H])[N+]([H])([H])C([H])([H])C([H])([H])C([H])([H])C([H])([H])N([H])C(=O)N4C([H])([H])C([H])([H])C([H])([H])C([H])(n5nc(-c6c([H])c([H])c(Oc7c([H])c([H])c(F)c([H])c7F)c([H])c6[H])c(C(=O)N([H])[H])c5N([H])[H])C4([H])[H])c3C([H])([H])[H])c([H])c([H])c2C1([H])[H]

>  <smiles>  (28) 
[H]c1c([H])c([H])c2c(c1[H])C([H])([H])C([H])([H])C([H])([H])C2([H])N([H])C(=O)C1([H])N(C(=O)C([H])(N([H])C(=O)C([H])(N([H])C([H])([H])[H])C([H])([H])[H])C(C([H])([H])[H])(C([H])([H])[H])C([H])([H])[H])C([H])([H])c2c([H])c(OC([H])([H])C([H])([H])c3c(C([H])([H])[H])c(Cl)c([H])c(C([H])([H])[N+]([H])([H])C([H])([H])C([H])([H])C([H])([H])C([H])([H])N([H])C(=O)N4C([H])([H])C([H])([H])C([H])([H])C([H])(n5nc(-c6c([H])c([H])c(Oc7c([H])c([H])c(F)c([H])c7F)c([H])c6[H])c(C(=O)N([H])[H])c5N([H])[H])C4([H])[H])c3C([H])([H])[H])c([H])c([H])c2C1([H])[H]

$$$$
28:0:0
     RDKit          3D

 97105  0  0  1  0  0  0  0  0999 V2000
  -26.3810  -22.3210   20.0890 C   0  0  0  0  0  2  0  0  0  0  0  0
  -26.7850  -23.7960   20.0080 C   0  0  0  0  0  2  0  0  0  0  0  0
  -27.5820  -21.4070   20.3450 C   0  0  0  0  0  2  0  0  0  0  0  0
  -27.8350  -24.0180   18.9000 C   0  0  0  0  0  3  0  0  0  0  0  0
  -29.1170  -23.1480   19.2570 C   0  0  0  0  0  3  0  0  0  0  0  0
  -28.7270  -21.6010   19.3200 C   0  0  0  0  0  3  0  0  0  0  0  0
  -29.8810  -20.6710   19.6080 N   0  0  0  0  0  4  0  0  0  0  0  0
  -30.3770  -20.9940   20.4240 H   0  0  0  0  0  0  0  0  0  0  0  0
  -30.5120  -20.7810   18.8300 H   0  0  0  0  0  0  0  0  0  0  0  0
  -29.1050  -18.8380   21.1590 C   0  0  0  0  0  1  0  0  0  0  0  0
  -29.6340  -19.1880   19.7490 C   0  0  0  0  0  3  0  0  0  0  0  0
  -30.9030  -18.3380   19.3640 C   0  0  0  0  0  2  0  0  0  0  0  0
  -31.3700  -17.1180   20.2380 C   0  0  0  0  0  2  0  0  0  0  0  0
  -31.3630  -14.6770   19.5940 C   0  0  0  0  0  0  0  0  0  0  0  0
  -31.0580  -12.3070   18.9510 C   0  0  0  0  0  2  0  0  0  0  0  0
  -30.0740  -12.1900   17.7700 C   0  0  0  0  0  2  0  0  0  0  0  0
  -28.6160  -12.1420   18.2680 C   0  0  0  0  0  2  0  0  0  0  0  0
  -28.3000  -13.2470   19.3100 C   0  0  0  0  0  3  0  0  0  0  0  0
  -29.3920  -13.3130   20.4010 C   0  0  0  0  0  2  0  0  0  0  0  0
  -30.6870  -13.5020   19.7290 N   0  0  0  0  0  0  0  0  0  0  0  0
  -32.4670  -14.7420   19.0470 O   0  0  0  0  0  0  0  0  0  0  0  0
  -30.7340  -15.7960   20.0210 N   0  0  0  0  0  0  0  0  0  0  0  0
  -29.8080  -15.6650   20.3980 H   0  0  0  0  0  0  0  0  0  0  0  0
  -26.0210  -14.0360   20.2050 C   0  0  0  0  0  0  0  0  0  0  0  0
  -24.9180  -13.3480   20.6380 C   0  0  0  0  0  0  0  0  0  0  0  0
  -25.2580  -11.9640   20.5510 C   0  0  0  0  0  0  0  0  0  0  0  0
  -26.9670  -13.0750   19.8840 N   0  0  0  0  0  0  0  0  0  0  0  0
  -26.5150  -11.8210   20.1510 N   0  0  0  0  0  0  0  0  0  0  0  0
  -24.4400  -10.7620   20.7720 C   0  0  0  0  0  0  0  0  0  0  0  0
  -24.8110   -9.7800   21.7160 C   0  0  0  0  0  3  0  0  0  0  0  0
  -23.9980   -8.6440   21.9230 C   0  0  0  0  0  3  0  0  0  0  0  0
  -22.8010   -8.4830   21.1870 C   0  0  0  0  0  0  0  0  0  0  0  0
  -22.4480   -9.4540   20.2330 C   0  0  0  0  0  3  0  0  0  0  0  0
  -23.2590  -10.5810   20.0230 C   0  0  0  0  0  3  0  0  0  0  0  0
  -21.9630   -7.4000   21.3030 O   0  0  0  0  0  0  0  0  0  0  0  0
  -21.8150   -6.7280   22.4900 C   0  0  0  0  0  0  0  0  0  0  0  0
  -21.3780   -7.3790   23.6640 C   0  0  0  0  0  3  0  0  0  0  0  0
  -21.1730   -6.6380   24.8450 C   0  0  0  0  0  3  0  0  0  0  0  0
  -21.3930   -5.2480   24.8520 C   0  0  0  0  0  0  0  0  0  0  0  0
  -21.8240   -4.5970   23.6820 C   0  0  0  0  0  3  0  0  0  0  0  0
  -22.0300   -5.3350   22.5030 C   0  0  0  0  0  0  0  0  0  0  0  0
  -22.4230   -4.7010   21.3740 F   0  0  0  0  0  0  0  0  0  0  0  0
  -21.1890   -4.5340   25.9840 F   0  0  0  0  0  0  0  0  0  0  0  0
  -23.5910  -13.9360   21.0170 C   0  0  0  0  0  0  0  0  0  0  0  0
  -22.8740  -13.2920   21.9330 N   0  0  0  0  0  0  0  0  0  0  0  0
  -23.2020  -14.9990   20.5360 O   0  0  0  0  0  0  0  0  0  0  0  0
  -23.2040  -12.4310   22.3430 H   0  0  0  0  0  0  0  0  0  0  0  0
  -21.9830  -13.6670   22.2260 H   0  0  0  0  0  0  0  0  0  0  0  0
  -26.2910  -15.3900   20.0390 N   0  0  0  0  0  0  0  0  0  0  0  0
  -25.5930  -16.1050   20.2080 H   0  0  0  0  0  0  0  0  0  0  0  0
  -27.1490  -15.7580   19.6490 H   0  0  0  0  0  0  0  0  0  0  0  0
  -30.3310  -23.4240   18.3260 C   0  0  0  0  0  2  0  0  0  0  0  0
  -31.9940  -24.4730   19.9830 C   0  0  0  0  0  1  0  0  0  0  0  0
  -32.0420  -25.1360   17.5500 C   0  0  0  0  0  1  0  0  0  0  0  0
  -31.1480  -24.6830   18.7130 C   0  0  0  0  0  3  0  0  0  0  0  0
  -27.9150  -25.5060   18.3340 C   0  0  0  0  0  2  0  0  0  0  0  0
  -27.9070  -26.6960   19.1710 O   0  0  0  0  0  0  0  0  0  0  0  0
  -24.5830  -31.7300   23.0230 C   0  0  0  0  0  0  0  0  0  0  0  0
  -26.7770  -27.5090   19.2750 C   0  0  0  0  0  0  0  0  0  0  0  0
  -23.1880  -30.5260   21.3780 C   0  0  0  0  0  3  0  0  0  0  0  0
  -24.4530  -29.1160   19.6670 C   0  0  0  0  0  0  0  0  0  0  0  0
  -25.7020  -30.8220   20.9870 C   0  0  0  0  0  2  0  0  0  0  0  0
  -25.6800  -29.5190   20.2080 C   0  0  0  0  0  0  0  0  0  0  0  0
  -26.8370  -28.7140   20.0270 C   0  0  0  0  0  3  0  0  0  0  0  0
  -25.5360  -27.1750   18.6840 C   0  0  0  0  0  3  0  0  0  0  0  0
  -24.3790  -27.9410   18.9070 C   0  0  0  0  0  3  0  0  0  0  0  0
  -23.2480  -29.9940   19.9230 C   0  0  0  0  0  2  0  0  0  0  0  0
  -24.5150  -31.0360   21.8520 N   0  0  0  0  0  0  0  0  0  0  0  0
  -23.5640  -31.9750   23.6850 O   0  0  0  0  0  0  0  0  0  0  0  0
  -22.5950  -29.4270   22.2890 C   0  0  0  0  0  0  0  0  0  0  0  0
  -21.2640  -29.2520   22.2350 N   0  0  0  0  0  0  0  0  0  0  0  0
  -23.3280  -28.7380   23.0040 O   0  0  0  0  0  0  0  0  0  0  0  0
  -20.7310  -29.8580   21.6290 H   0  0  0  0  0  0  0  0  0  0  0  0
  -17.9390  -27.9550   22.7900 C   0  0  0  0  0  0  0  0  0  0  0  0
  -20.4990  -28.2520   22.9800 C   0  0  0  0  0  3  0  0  0  0  0  0
  -20.6090  -26.8610   22.3130 C   0  0  0  0  0  2  0  0  0  0  0  0
  -19.4740  -26.5760   21.3240 C   0  0  0  0  0  2  0  0  0  0  0  0
  -18.1150  -26.6530   22.0280 C   0  0  0  0  0  2  0  0  0  0  0  0
  -19.0570  -28.7130   23.2230 C   0  0  0  0  0  0  0  0  0  0  0  0
  -18.8370  -29.9340   23.8970 C   0  0  0  0  0  3  0  0  0  0  0  0
  -17.5320  -30.3970   24.1410 C   0  0  0  0  0  3  0  0  0  0  0  0
  -16.4270  -29.6330   23.7270 C   0  0  0  0  0  3  0  0  0  0  0  0
  -16.6310  -28.4140   23.0570 C   0  0  0  0  0  3  0  0  0  0  0  0
  -25.9380  -32.2680   23.5730 C   0  0  0  0  0  3  0  0  0  0  0  0
  -25.6970  -33.6230   24.0930 N   0  0  0  0  0  0  0  0  0  0  0  0
  -25.9900  -34.7520   23.4350 C   0  0  0  0  0  0  0  0  0  0  0  0
  -26.5620  -34.7590   22.3410 O   0  0  0  0  0  0  0  0  0  0  0  0
  -25.1750  -33.6890   24.9560 H   0  0  0  0  0  0  0  0  0  0  0  0
  -24.2880  -36.6030   23.4460 C   0  0  0  0  0  1  0  0  0  0  0  0
  -25.5830  -36.0840   24.0930 C   0  0  0  0  0  3  0  0  0  0  0  0
  -27.8060  -36.8270   24.8280 C   0  0  0  0  0  1  0  0  0  0  0  0
  -26.6320  -37.1250   24.0100 N   0  0  0  0  0  0  0  0  0  0  0  0
  -26.2670  -38.0290   24.2970 H   0  0  0  0  0  0  0  0  0  0  0  0
  -26.5650  -31.3450   24.6880 C   0  0  1  0  0  0  0  0  0  0  0  0
  -25.5860  -31.0000   25.8350 C   0  0  0  0  0  1  0  0  0  0  0  0
  -27.0640  -30.0110   24.0820 C   0  0  0  0  0  1  0  0  0  0  0  0
  -27.8040  -32.0380   25.3040 C   0  0  0  0  0  1  0  0  0  0  0  0
  1  3  1  0
  2  1  1  0
  4 56  1  0
  4  5  1  0
  4  2  1  0
  5 52  1  0
  5  6  1  0
  6  7  1  0
  6  3  1  0
  7 11  1  0
  7  8  1  0
  9  7  1  0
 11 10  1  0
 12 11  1  0
 12 13  1  0
 14 20  1  0
 14 22  1  0
 15 20  1  0
 16 17  1  0
 16 15  1  0
 18 17  1  0
 18 27  1  0
 18 19  1  0
 20 19  1  0
 21 14  2  0
 22 13  1  0
 22 23  1  0
 24 25  2  0
 25 44  1  0
 26 25  1  0
 26 29  1  0
 27 28  1  0
 27 24  1  0
 28 26  2  0
 29 30  1  0
 30 31  2  0
 32 35  1  0
 32 31  1  0
 33 32  2  0
 34 33  1  0
 34 29  2  0
 35 36  1  0
 36 41  2  0
 36 37  1  0
 37 38  2  0
 38 39  1  0
 39 43  1  0
 40 39  2  0
 41 40  1  0
 42 41  1  0
 44 45  1  0
 45 48  1  0
 45 47  1  0
 46 44  2  0
 49 24  1  0
 49 50  1  0
 51 49  1  0
 52 55  1  0
 54 55  1  0
 55 53  1  0
 56 57  1  0
 57 59  1  0
 58 69  2  0
 59 64  1  0
 60 68  1  0
 60 70  1  0
 61 67  1  0
 61 63  1  0
 62 68  1  0
 63 62  1  0
 64 63  2  0
 65 66  1  0
 65 59  2  0
 66 61  2  0
 67 60  1  0
 68 58  1  0
 70 72  2  0
 71 70  1  0
 73 71  1  0
 74 83  2  0
 74 79  1  0
 75 71  1  0
 75 79  1  0
 76 75  1  0
 77 78  1  0
 77 76  1  0
 78 74  1  0
 79 80  2  0
 80 81  1  0
 82 81  2  0
 83 82  1  0
 84 58  1  0
 84 85  1  0
 84 94  1  0
 85 88  1  0
 86 85  1  0
 86 90  1  0
 87 86  2  0
 90 89  1  0
 92 90  1  0
 92 93  1  0
 92 91  1  0
 94 97  1  1
 94 95  1  0
 96 94  1  0
M  ISO  4  14 100  22 100  56 101  57 101
M  END
>  <TORSDO>  (29) 
F 23

>  <SCORE>  (29) 
-10.967

>  <name>  (29) 
28

>  <ligand_id>  (29) 
28

>  <original_smiles>  (29) 
[H]c1c([H])c([H])c2c(c1[H])C([H])([H])C([H])([H])C([H])([H])C2([H])N([H])C(=O)C1([H])N(C(=O)C([H])(N([H])C(=O)C([H])(N([H])C([H])([H])[H])C([H])([H])[H])C(C([H])([H])[H])(C([H])([H])[H])C([H])([H])[H])C([H])([H])c2c([H])c(OC([H])([H])C3([H])C([H])([H])C([H])([H])C([H])([H])C([H])([N+]([H])([H])C([H])(C([H])([H])[H])C([H])([H])C([H])([H])N([H])C(=O)N4C([H])([H])C([H])([H])C([H])([H])C([H])(n5nc(-c6c([H])c([H])c(Oc7c([H])c([H])c(F)c([H])c7F)c([H])c6[H])c(C(=O)N([H])[H])c5N([H])[H])C4([H])[H])C3([H])C([H])([H])C([H])(C([H])([H])[H])C([H])([H])[H])c([H])c([H])c2C1([H])[H]

>  <smiles>  (29) 
[H]c1c([H])c([H])c2c(c1[H])C([H])([H])C([H])([H])C([H])([H])C2([H])N([H])C(=O)C1([H])N(C(=O)C([H])(N([H])C(=O)C([H])(N([H])C([H])([H])[H])C([H])([H])[H])C(C([H])([H])[H])(C([H])([H])[H])C([H])([H])[H])C([H])([H])c2c([H])c(OC([H])([H])C3([H])C([H])([H])C([H])([H])C([H])([H])C([H])([N+]([H])([H])C([H])(C([H])([H])[H])C([H])([H])C([H])([H])N([H])C(=O)N4C([H])([H])C([H])([H])C([H])([H])C([H])(n5nc(-c6c([H])c([H])c(Oc7c([H])c([H])c(F)c([H])c7F)c([H])c6[H])c(C(=O)N([H])[H])c5N([H])[H])C4([H])[H])C3([H])C([H])([H])C([H])(C([H])([H])[H])C([H])([H])[H])c([H])c([H])c2C1([H])[H]

$$$$
29:0:0
     RDKit          3D

 98107  0  0  1  0  0  0  0  0999 V2000
  -31.0620  -14.8780   20.4990 C   0  0  0  0  0  0  0  0  0  0  0  0
  -30.7560  -12.6600   19.4490 C   0  0  0  0  0  2  0  0  0  0  0  0
  -29.8450  -12.7250   18.2030 C   0  0  0  0  0  2  0  0  0  0  0  0
  -28.3390  -12.8300   18.5660 C   0  0  0  0  0  2  0  0  0  0  0  0
  -27.9900  -13.6440   19.8500 C   0  0  0  0  0  3  0  0  0  0  0  0
  -29.0300  -13.4440   20.9710 C   0  0  0  0  0  2  0  0  0  0  0  0
  -30.3500  -13.7140   20.3920 N   0  0  0  0  0  0  0  0  0  0  0  0
  -32.2950  -14.8650   20.5110 O   0  0  0  0  0  0  0  0  0  0  0  0
  -31.3340  -17.8790   19.0360 C   0  0  0  0  0  0  0  0  0  0  0  0
  -31.8400  -20.0500   19.9830 C   0  0  0  0  0  0  0  0  0  0  0  0
  -31.1720  -19.6590   21.1880 C   0  0  0  0  0  0  0  0  0  0  0  0
  -30.9410  -17.3720   20.2840 C   0  0  0  0  0  0  0  0  0  0  0  0
  -31.8960  -19.1590   18.8870 C   0  0  0  0  0  0  0  0  0  0  0  0
  -30.8120  -18.2780   21.3720 C   0  0  0  0  0  0  0  0  0  0  0  0
  -29.8950  -16.1080   18.7550 C   0  0  0  0  0  2  0  0  0  0  0  0
  -30.8880  -16.9490   17.9360 C   0  0  1  0  0  0  0  0  0  0  0  0
  -32.4280  -21.4500   19.7970 C   0  0  0  0  0  1  0  0  0  0  0  0
  -30.1130  -17.6270   16.7870 C   0  0  0  0  0  1  0  0  0  0  0  0
  -32.0580  -16.1170   17.3740 C   0  0  0  0  0  1  0  0  0  0  0  0
  -30.4040  -16.0380   20.1340 N   0  0  0  0  0  0  0  0  0  0  0  0
  -32.5720  -19.6660   17.3730 Cl  0  0  0  0  0  0  0  0  0  0  0  0
  -30.0940  -17.7180   22.8400 Cl  0  0  0  0  0  0  0  0  0  0  0  0
  -25.5900  -14.3120   20.4720 C   0  0  0  0  0  0  0  0  0  0  0  0
  -24.4920  -13.5650   20.8010 C   0  0  0  0  0  0  0  0  0  0  0  0
  -24.9310  -12.2070   20.8200 C   0  0  0  0  0  0  0  0  0  0  0  0
  -26.6260  -13.4050   20.3040 N   0  0  0  0  0  0  0  0  0  0  0  0
  -26.2330  -12.1370   20.5820 N   0  0  0  0  0  0  0  0  0  0  0  0
  -24.1780  -10.9610   20.9940 C   0  0  0  0  0  0  0  0  0  0  0  0
  -24.5580  -10.0000   21.9550 C   0  0  0  0  0  3  0  0  0  0  0  0
  -23.8100   -8.8150   22.1160 C   0  0  0  0  0  3  0  0  0  0  0  0
  -22.6650   -8.5850   21.3140 C   0  0  0  0  0  0  0  0  0  0  0  0
  -22.3060   -9.5350   20.3430 C   0  0  0  0  0  3  0  0  0  0  0  0
  -23.0560  -10.7110   20.1790 C   0  0  0  0  0  3  0  0  0  0  0  0
  -21.8900   -7.4540   21.3870 O   0  0  0  0  0  0  0  0  0  0  0  0
  -21.8000   -6.7150   22.5400 C   0  0  0  0  0  0  0  0  0  0  0  0
  -21.3720   -7.2860   23.7580 C   0  0  0  0  0  3  0  0  0  0  0  0
  -21.2260   -6.4760   24.9020 C   0  0  0  0  0  3  0  0  0  0  0  0
  -21.4980   -5.0960   24.8280 C   0  0  0  0  0  0  0  0  0  0  0  0
  -21.9190   -4.5260   23.6140 C   0  0  0  0  0  3  0  0  0  0  0  0
  -22.0680   -5.3330   22.4730 C   0  0  0  0  0  0  0  0  0  0  0  0
  -22.4530   -4.7750   21.3010 F   0  0  0  0  0  0  0  0  0  0  0  0
  -21.3510   -4.3170   25.9250 F   0  0  0  0  0  0  0  0  0  0  0  0
  -23.0920  -14.0710   20.9920 C   0  0  0  0  0  0  0  0  0  0  0  0
  -22.3140  -13.4110   21.8430 N   0  0  0  0  0  0  0  0  0  0  0  0
  -22.6930  -15.0870   20.4240 O   0  0  0  0  0  0  0  0  0  0  0  0
  -22.6470  -12.5900   22.3250 H   0  0  0  0  0  0  0  0  0  0  0  0
  -21.3710  -13.7310   22.0130 H   0  0  0  0  0  0  0  0  0  0  0  0
  -25.7870  -15.6760   20.2780 N   0  0  0  0  0  0  0  0  0  0  0  0
  -25.0330  -16.3520   20.3600 H   0  0  0  0  0  0  0  0  0  0  0  0
  -26.6710  -16.1010   20.0270 H   0  0  0  0  0  0  0  0  0  0  0  0
  -30.8100  -20.7530   22.2220 C   0  0  0  0  0  2  0  0  0  0  0  0
  -29.9320  -21.8200   21.6360 N   0  0  0  0  0  4  0  0  0  0  0  0
  -28.9930  -21.4640   21.5620 H   0  0  0  0  0  0  0  0  0  0  0  0
  -30.2720  -21.9670   20.6990 H   0  0  0  0  0  0  0  0  0  0  0  0
  -29.9020  -23.1450   22.3290 C   0  0  0  0  0  2  0  0  0  0  0  0
  -29.4920  -24.3370   21.3980 C   0  0  0  0  0  2  0  0  0  0  0  0
  -29.1970  -25.6740   22.1390 C   0  0  0  0  0  2  0  0  0  0  0  0
  -29.2580  -26.8410   21.2900 O   0  0  0  0  0  0  0  0  0  0  0  0
  -24.8890  -32.0200   23.5410 C   0  0  0  0  0  0  0  0  0  0  0  0
  -28.0690  -27.5200   21.1250 C   0  0  0  0  0  0  0  0  0  0  0  0
  -23.9350  -30.4240   21.9050 C   0  0  0  0  0  3  0  0  0  0  0  0
  -25.6130  -28.8730   20.7670 C   0  0  0  0  0  0  0  0  0  0  0  0
  -26.4440  -30.9240   21.9290 C   0  0  0  0  0  2  0  0  0  0  0  0
  -26.6730  -29.5140   21.4200 C   0  0  0  0  0  0  0  0  0  0  0  0
  -27.9070  -28.8440   21.5970 C   0  0  0  0  0  3  0  0  0  0  0  0
  -26.9980  -26.8920   20.4610 C   0  0  0  0  0  3  0  0  0  0  0  0
  -25.7690  -27.5600   20.2870 C   0  0  0  0  0  3  0  0  0  0  0  0
  -24.3260  -29.6550   20.6150 C   0  0  0  0  0  2  0  0  0  0  0  0
  -25.1010  -31.1430   22.5190 N   0  0  0  0  0  0  0  0  0  0  0  0
  -23.7450  -32.2650   23.9470 O   0  0  0  0  0  0  0  0  0  0  0  0
  -23.2450  -29.4410   22.8790 C   0  0  0  0  0  0  0  0  0  0  0  0
  -21.9410  -29.2010   22.6630 N   0  0  0  0  0  0  0  0  0  0  0  0
  -23.8830  -28.8920   23.7830 O   0  0  0  0  0  0  0  0  0  0  0  0
  -21.4880  -29.6950   21.9070 H   0  0  0  0  0  0  0  0  0  0  0  0
  -18.5680  -27.9560   23.0140 C   0  0  0  0  0  0  0  0  0  0  0  0
  -21.0980  -28.2820   23.4270 C   0  0  0  0  0  3  0  0  0  0  0  0
  -21.2630  -26.8280   22.9250 C   0  0  0  0  0  2  0  0  0  0  0  0
  -20.2310  -26.4350   21.8630 C   0  0  0  0  0  2  0  0  0  0  0  0
  -18.8100  -26.5820   22.4150 C   0  0  0  0  0  2  0  0  0  0  0  0
  -19.6440  -28.7610   23.4740 C   0  0  0  0  0  0  0  0  0  0  0  0
  -19.3670  -30.0460   23.9900 C   0  0  0  0  0  3  0  0  0  0  0  0
  -18.0450  -30.5260   24.0540 C   0  0  0  0  0  3  0  0  0  0  0  0
  -16.9820  -29.7200   23.6110 C   0  0  0  0  0  3  0  0  0  0  0  0
  -17.2440  -28.4380   23.0960 C   0  0  0  0  0  3  0  0  0  0  0  0
  -26.0700  -32.7740   24.2310 C   0  0  0  0  0  3  0  0  0  0  0  0
  -26.4750  -32.1540   25.6240 C   0  0  1  0  0  0  0  0  0  0  0  0
  -25.2750  -31.9360   26.5760 C   0  0  0  0  0  1  0  0  0  0  0  0
  -27.1810  -30.7920   25.4300 C   0  0  0  0  0  1  0  0  0  0  0  0
  -27.4890  -33.0810   26.3350 C   0  0  0  0  0  1  0  0  0  0  0  0
  -25.6690  -34.1780   24.3830 N   0  0  0  0  0  0  0  0  0  0  0  0
  -26.0250  -35.1650   23.5490 C   0  0  0  0  0  0  0  0  0  0  0  0
  -26.7920  -34.9940   22.5980 O   0  0  0  0  0  0  0  0  0  0  0  0
  -24.9930  -34.3800   25.1050 H   0  0  0  0  0  0  0  0  0  0  0  0
  -24.2600  -36.8150   22.8520 C   0  0  0  0  0  1  0  0  0  0  0  0
  -25.4330  -36.5610   23.8110 C   0  0  0  0  0  3  0  0  0  0  0  0
  -27.4320  -37.6430   24.7380 C   0  0  0  0  0  1  0  0  0  0  0  0
  -26.4230  -37.6520   23.6830 N   0  0  0  0  0  0  0  0  0  0  0  0
  -25.9620  -38.5580   23.6960 H   0  0  0  0  0  0  0  0  0  0  0  0
  1  8  2  0
  2  7  1  0
  3  4  1  0
  3  2  1  0
  5  4  1  0
  5 26  1  0
  5  6  1  0
  7  1  1  0
  7  6  1  0
  9 12  1  0
 10 11  2  0
 11 14  1  0
 11 51  1  0
 12 14  2  0
 13  9  2  0
 13 10  1  0
 14 22  1  0
 15 20  1  0
 16 15  1  0
 16  9  1  0
 17 10  1  0
 16 18  1  6
 19 16  1  0
 20 12  1  0
 20  1  1  0
 21 13  1  0
 23 24  2  0
 24 25  1  0
 24 43  1  0
 25 28  1  0
 26 23  1  0
 26 27  1  0
 27 25  2  0
 28 29  1  0
 29 30  2  0
 31 34  1  0
 31 30  1  0
 32 31  2  0
 33 32  1  0
 33 28  2  0
 34 35  1  0
 35 36  1  0
 36 37  2  0
 38 37  1  0
 38 42  1  0
 39 38  2  0
 40 35  2  0
 40 39  1  0
 41 40  1  0
 43 44  1  0
 44 47  1  0
 44 46  1  0
 45 43  2  0
 48 49  1  0
 48 23  1  0
 50 48  1  0
 52 51  1  0
 52 55  1  0
 53 52  1  0
 54 52  1  0
 56 57  1  0
 56 55  1  0
 58 57  1  0
 59 70  2  0
 60 58  1  0
 60 65  1  0
 61 69  1  0
 61 71  1  0
 62 64  1  0
 63 69  1  0
 64 65  2  0
 64 63  1  0
 66 60  2  0
 67 66  1  0
 67 62  2  0
 68 62  1  0
 68 61  1  0
 69 59  1  0
 71 73  2  0
 72 71  1  0
 74 72  1  0
 75 84  2  0
 75 80  1  0
 76 72  1  0
 76 80  1  0
 77 76  1  0
 78 79  1  0
 78 77  1  0
 79 75  1  0
 80 81  2  0
 81 82  1  0
 83 82  2  0
 84 83  1  0
 85 59  1  0
 85 90  1  0
 85 86  1  0
 86 89  1  1
 86 87  1  0
 88 86  1  0
 90 93  1  0
 91 95  1  0
 91 90  1  0
 92 91  2  0
 95 94  1  0
 97 98  1  0
 97 95  1  0
 97 96  1  0
M  ISO  4   1 100  20 100  57 101  58 101
M  END
>  <TORSDO>  (30) 
F 20

>  <SCORE>  (30) 
-11.790

>  <name>  (30) 
29

>  <ligand_id>  (30) 
29

>  <original_smiles>  (30) 
[H]c1c([H])c([H])c2c(c1[H])C([H])([H])C([H])([H])C([H])([H])C2([H])N([H])C(=O)C1([H])N(C(=O)C([H])(N([H])C(=O)C([H])(N([H])C([H])([H])[H])C([H])([H])[H])C(C([H])([H])[H])(C([H])([H])[H])C([H])([H])[H])C([H])([H])c2c([H])c(OC([H])([H])C([H])([H])C([H])([H])[N+]([H])([H])C([H])([H])c3c(Cl)c4c(c(Cl)c3C([H])([H])[H])C(C([H])([H])[H])(C([H])([H])[H])C([H])([H])N4C(=O)N3C([H])([H])C([H])([H])C([H])([H])C([H])(n4nc(-c5c([H])c([H])c(Oc6c([H])c([H])c(F)c([H])c6F)c([H])c5[H])c(C(=O)N([H])[H])c4N([H])[H])C3([H])[H])c([H])c([H])c2C1([H])[H]

>  <smiles>  (30) 
[H]c1c([H])c([H])c2c(c1[H])C([H])([H])C([H])([H])C([H])([H])C2([H])N([H])C(=O)C1([H])N(C(=O)C([H])(N([H])C(=O)C([H])(N([H])C([H])([H])[H])C([H])([H])[H])C(C([H])([H])[H])(C([H])([H])[H])C([H])([H])[H])C([H])([H])c2c([H])c(OC([H])([H])C([H])([H])C([H])([H])[N+]([H])([H])C([H])([H])c3c(Cl)c4c(c(Cl)c3C([H])([H])[H])C(C([H])([H])[H])(C([H])([H])[H])C([H])([H])N4C(=O)N3C([H])([H])C([H])([H])C([H])([H])C([H])(n4nc(-c5c([H])c([H])c(Oc6c([H])c([H])c(F)c([H])c6F)c([H])c5[H])c(C(=O)N([H])[H])c4N([H])[H])C3([H])[H])c([H])c([H])c2C1([H])[H]

$$$$
30:0:0
     RDKit          3D

 93101  0  0  1  0  0  0  0  0999 V2000
  -29.6980  -21.8760   20.9340 C   0  0  0  0  0  3  0  0  0  0  0  0
  -28.6720  -22.5560   20.2270 C   0  0  0  0  0  0  0  0  0  0  0  0
  -27.9300  -21.7560   19.3120 C   0  0  0  0  0  0  0  0  0  0  0  0
  -29.2170  -19.6630   19.8960 C   0  0  0  0  0  0  0  0  0  0  0  0
  -29.9780  -20.4900   20.7770 C   0  0  0  0  0  0  0  0  0  0  0  0
  -28.2010  -20.3530   19.1540 C   0  0  0  0  0  0  0  0  0  0  0  0
  -26.8150  -22.3870   18.4840 C   0  0  0  0  0  1  0  0  0  0  0  0
  -31.2890  -19.8650   21.7100 Cl  0  0  0  0  0  0  0  0  0  0  0  0
  -27.2400  -19.4690   18.0090 Cl  0  0  0  0  0  0  0  0  0  0  0  0
  -30.2570  -17.8680   18.3730 C   0  0  0  0  0  1  0  0  0  0  0  0
  -29.4460  -18.1020   19.6620 C   0  0  0  0  0  3  0  0  0  0  0  0
  -30.0170  -17.1600   20.8070 C   0  0  0  0  0  2  0  0  0  0  0  0
  -30.5740  -14.6360   20.4170 C   0  0  0  0  0  0  0  0  0  0  0  0
  -30.3750  -12.4080   19.3520 C   0  0  0  0  0  2  0  0  0  0  0  0
  -29.4300  -12.5540   18.1410 C   0  0  0  0  0  2  0  0  0  0  0  0
  -27.9560  -12.4010   18.5660 C   0  0  0  0  0  2  0  0  0  0  0  0
  -27.5980  -13.2540   19.8110 C   0  0  0  0  0  3  0  0  0  0  0  0
  -28.6540  -13.0840   20.9250 C   0  0  0  0  0  2  0  0  0  0  0  0
  -29.9630  -13.4150   20.3450 N   0  0  0  0  0  0  0  0  0  0  0  0
  -31.7490  -14.7980   20.0810 O   0  0  0  0  0  0  0  0  0  0  0  0
  -29.7480  -15.6870   20.6870 N   0  0  0  0  0  0  0  0  0  0  0  0
  -28.8080  -15.4100   20.9240 H   0  0  0  0  0  0  0  0  0  0  0  0
  -25.2010  -13.8580   20.5130 C   0  0  0  0  0  0  0  0  0  0  0  0
  -24.1330  -13.0850   20.8800 C   0  0  0  0  0  0  0  0  0  0  0  0
  -24.6000  -11.7340   20.8640 C   0  0  0  0  0  0  0  0  0  0  0  0
  -26.2480  -12.9790   20.2900 N   0  0  0  0  0  0  0  0  0  0  0  0
  -25.8920  -11.6980   20.5630 N   0  0  0  0  0  0  0  0  0  0  0  0
  -23.8760  -10.4720   21.0540 C   0  0  0  0  0  0  0  0  0  0  0  0
  -24.3100   -9.5050   21.9870 C   0  0  0  0  0  3  0  0  0  0  0  0
  -23.5850   -8.3080   22.1650 C   0  0  0  0  0  3  0  0  0  0  0  0
  -22.4120   -8.0680   21.4100 C   0  0  0  0  0  0  0  0  0  0  0  0
  -21.9970   -9.0240   20.4660 C   0  0  0  0  0  3  0  0  0  0  0  0
  -22.7230  -10.2140   20.2850 C   0  0  0  0  0  3  0  0  0  0  0  0
  -21.6570   -6.9230   21.4990 O   0  0  0  0  0  0  0  0  0  0  0  0
  -21.6180   -6.1750   22.6480 C   0  0  0  0  0  0  0  0  0  0  0  0
  -21.2090   -6.7250   23.8830 C   0  0  0  0  0  3  0  0  0  0  0  0
  -21.1150   -5.9030   25.0240 C   0  0  0  0  0  3  0  0  0  0  0  0
  -21.4220   -4.5310   24.9310 C   0  0  0  0  0  0  0  0  0  0  0  0
  -21.8240   -3.9810   23.7010 C   0  0  0  0  0  3  0  0  0  0  0  0
  -21.9200   -4.8000   22.5630 C   0  0  0  0  0  0  0  0  0  0  0  0
  -22.2870   -4.2610   21.3760 F   0  0  0  0  0  0  0  0  0  0  0  0
  -21.3260   -3.7390   26.0250 F   0  0  0  0  0  0  0  0  0  0  0  0
  -22.7340  -13.5610   21.1390 C   0  0  0  0  0  0  0  0  0  0  0  0
  -21.9980  -12.8680   22.0010 N   0  0  0  0  0  0  0  0  0  0  0  0
  -22.2990  -14.5830   20.6090 O   0  0  0  0  0  0  0  0  0  0  0  0
  -22.3620  -12.0410   22.4510 H   0  0  0  0  0  0  0  0  0  0  0  0
  -21.0580  -13.1700   22.2150 H   0  0  0  0  0  0  0  0  0  0  0  0
  -25.3600  -15.2290   20.3290 N   0  0  0  0  0  0  0  0  0  0  0  0
  -24.5780  -15.8680   20.4220 H   0  0  0  0  0  0  0  0  0  0  0  0
  -26.1950  -15.6760   19.9720 H   0  0  0  0  0  0  0  0  0  0  0  0
  -28.3200  -24.0500   20.6060 C   0  0  0  0  0  3  0  0  0  0  0  0
  -28.5160  -25.2530   19.5960 C   0  0  0  0  0  3  0  0  0  0  0  0
  -28.4070  -26.6050   20.1720 O   0  0  0  0  0  0  0  0  0  0  0  0
  -24.5950  -31.8880   23.2600 C   0  0  0  0  0  0  0  0  0  0  0  0
  -27.2280  -27.3590   20.1680 C   0  0  0  0  0  0  0  0  0  0  0  0
  -23.3920  -30.4850   21.6230 C   0  0  0  0  0  3  0  0  0  0  0  0
  -24.8440  -28.9340   20.2010 C   0  0  0  0  0  0  0  0  0  0  0  0
  -25.9310  -30.8110   21.4370 C   0  0  0  0  0  2  0  0  0  0  0  0
  -26.0120  -29.4360   20.7880 C   0  0  0  0  0  0  0  0  0  0  0  0
  -27.2020  -28.6580   20.7620 C   0  0  0  0  0  3  0  0  0  0  0  0
  -26.0280  -26.8860   19.5920 C   0  0  0  0  0  3  0  0  0  0  0  0
  -24.8510  -27.6650   19.6030 C   0  0  0  0  0  3  0  0  0  0  0  0
  -23.6090  -29.8070   20.2460 C   0  0  0  0  0  2  0  0  0  0  0  0
  -24.6580  -31.0790   22.1640 N   0  0  0  0  0  0  0  0  0  0  0  0
  -23.5130  -32.1660   23.7970 O   0  0  0  0  0  0  0  0  0  0  0  0
  -22.7350  -29.4680   22.5870 C   0  0  0  0  0  0  0  0  0  0  0  0
  -21.4080  -29.2840   22.4610 N   0  0  0  0  0  0  0  0  0  0  0  0
  -23.4150  -28.8470   23.4080 O   0  0  0  0  0  0  0  0  0  0  0  0
  -20.9140  -29.8330   21.7700 H   0  0  0  0  0  0  0  0  0  0  0  0
  -18.0390  -28.0770   22.9580 C   0  0  0  0  0  0  0  0  0  0  0  0
  -20.5950  -28.3480   23.2380 C   0  0  0  0  0  3  0  0  0  0  0  0
  -20.7070  -26.9150   22.6670 C   0  0  0  0  0  2  0  0  0  0  0  0
  -19.6110  -26.5840   21.6500 C   0  0  0  0  0  2  0  0  0  0  0  0
  -18.2240  -26.7250   22.2880 C   0  0  0  0  0  2  0  0  0  0  0  0
  -19.1520  -28.8450   23.3890 C   0  0  0  0  0  0  0  0  0  0  0  0
  -18.9250  -30.1100   23.9760 C   0  0  0  0  0  3  0  0  0  0  0  0
  -17.6190  -30.6090   24.1280 C   0  0  0  0  0  3  0  0  0  0  0  0
  -16.5190  -29.8370   23.7170 C   0  0  0  0  0  3  0  0  0  0  0  0
  -16.7290  -28.5720   23.1380 C   0  0  0  0  0  3  0  0  0  0  0  0
  -25.8770  -32.5250   23.8760 C   0  0  0  0  0  3  0  0  0  0  0  0
  -26.3930  -31.7610   25.1560 C   0  0  1  0  0  0  0  0  0  0  0  0
  -25.2980  -31.5350   26.2250 C   0  0  0  0  0  1  0  0  0  0  0  0
  -26.9740  -30.3760   24.7770 C   0  0  0  0  0  1  0  0  0  0  0  0
  -27.5480  -32.5570   25.8100 C   0  0  0  0  0  1  0  0  0  0  0  0
  -25.5670  -33.9250   24.1970 N   0  0  0  0  0  0  0  0  0  0  0  0
  -25.9070  -34.9730   23.4360 C   0  0  0  0  0  0  0  0  0  0  0  0
  -26.5830  -34.8650   22.4090 O   0  0  0  0  0  0  0  0  0  0  0  0
  -24.9550  -34.0840   24.9830 H   0  0  0  0  0  0  0  0  0  0  0  0
  -24.1850  -36.7720   23.0670 C   0  0  0  0  0  1  0  0  0  0  0  0
  -25.4200  -36.3650   23.8850 C   0  0  0  0  0  3  0  0  0  0  0  0
  -27.5560  -37.2500   24.7170 C   0  0  0  0  0  1  0  0  0  0  0  0
  -26.4560  -37.4130   23.7700 N   0  0  0  0  0  0  0  0  0  0  0  0
  -26.0530  -38.3360   23.9080 H   0  0  0  0  0  0  0  0  0  0  0  0
  2 51  1  0
  2  1  2  0
  3  2  1  0
  4  5  2  0
  5  1  1  0
  5  8  1  0
  6  3  2  0
  6  4  1  0
  7  3  1  0
  9  6  1  0
 11 10  1  0
 11  4  1  0
 11 12  1  0
 13 21  1  0
 14 19  1  0
 15 16  1  0
 15 14  1  0
 17 16  1  0
 17 26  1  0
 17 18  1  0
 19 13  1  0
 19 18  1  0
 20 13  2  0
 21 12  1  0
 21 22  1  0
 23 24  2  0
 24 43  1  0
 25 24  1  0
 25 28  1  0
 26 23  1  0
 26 27  1  0
 27 25  2  0
 28 29  1  0
 29 30  2  0
 31 34  1  0
 31 30  1  0
 32 31  2  0
 33 32  1  0
 33 28  2  0
 34 35  1  0
 35 36  1  0
 36 37  2  0
 38 37  1  0
 38 42  1  0
 39 38  2  0
 40 35  2  0
 40 39  1  0
 41 40  1  0
 43 44  1  0
 44 47  1  0
 44 46  1  0
 45 43  2  0
 48 49  1  0
 48 23  1  0
 50 48  1  0
 52 53  1  0
 52 51  2  0
 54 65  2  0
 55 53  1  0
 55 60  1  0
 56 64  1  0
 56 66  1  0
 57 63  1  0
 57 59  1  0
 58 64  1  0
 59 58  1  0
 60 59  2  0
 61 62  1  0
 61 55  2  0
 62 57  2  0
 63 56  1  0
 64 54  1  0
 66 68  2  0
 67 66  1  0
 69 67  1  0
 70 79  2  0
 70 75  1  0
 71 67  1  0
 71 75  1  0
 72 71  1  0
 73 74  1  0
 73 72  1  0
 74 70  1  0
 75 76  2  0
 76 77  1  0
 78 77  2  0
 79 78  1  0
 80 54  1  0
 80 85  1  0
 80 81  1  0
 81 84  1  1
 81 82  1  0
 83 81  1  0
 85 88  1  0
 86 90  1  0
 86 85  1  0
 87 86  2  0
 90 89  1  0
 92 90  1  0
 92 93  1  0
 92 91  1  0
M  ISO  4  13 100  21 100  52 101  53 101
M  END
>  <TORSDO>  (31) 
F 20

>  <SCORE>  (31) 
-14.202

>  <name>  (31) 
30

>  <ligand_id>  (31) 
30

>  <original_smiles>  (31) 
[H]c1c([H])c([H])c2c(c1[H])C([H])([H])C([H])([H])C([H])([H])C2([H])N([H])C(=O)C1([H])N(C(=O)C([H])(N([H])C(=O)C([H])(N([H])C([H])([H])[H])C([H])([H])[H])C(C([H])([H])[H])(C([H])([H])[H])C([H])([H])[H])C([H])([H])c2c([H])c(OC([H])([H])C([H])([H])c3c([H])c(Cl)c(C([H])(C([H])([H])[H])C([H])([H])N([H])C(=O)N4C([H])([H])C([H])([H])C([H])([H])C([H])(n5nc(-c6c([H])c([H])c(Oc7c([H])c([H])c(F)c([H])c7F)c([H])c6[H])c(C(=O)N([H])[H])c5N([H])[H])C4([H])[H])c(Cl)c3C([H])([H])[H])c([H])c([H])c2C1([H])[H]

>  <smiles>  (31) 
[H]c1c([H])c([H])c2c(c1[H])C([H])([H])C([H])([H])C([H])([H])C2([H])N([H])C(=O)C1([H])N(C(=O)C([H])(N([H])C(=O)C([H])(N([H])C([H])([H])[H])C([H])([H])[H])C(C([H])([H])[H])(C([H])([H])[H])C([H])([H])[H])C([H])([H])c2c([H])c(OC([H])([H])C([H])([H])c3c([H])c(Cl)c(C([H])(C([H])([H])[H])C([H])([H])N([H])C(=O)N4C([H])([H])C([H])([H])C([H])([H])C([H])(n5nc(-c6c([H])c([H])c(Oc7c([H])c([H])c(F)c([H])c7F)c([H])c6[H])c(C(=O)N([H])[H])c5N([H])[H])C4([H])[H])c(Cl)c3C([H])([H])[H])c([H])c([H])c2C1([H])[H]

$$$$
31:0:0
     RDKit          3D

 99107  0  0  1  0  0  0  0  0999 V2000
  -30.3040  -21.4200   24.2610 C   0  0  0  0  0  0  0  0  0  0  0  0
  -29.3960  -21.9230   25.2180 C   0  0  0  0  0  0  0  0  0  0  0  0
  -30.5330  -20.0340   24.3000 C   0  0  0  0  0  0  0  0  0  0  0  0
  -29.1210  -19.8210   26.0760 C   0  0  0  0  0  0  0  0  0  0  0  0
  -28.4730  -18.9190   27.1000 C   0  0  0  0  0  1  0  0  0  0  0  0
  -28.8180  -21.1140   26.1320 N   0  0  0  0  0  0  0  0  0  0  0  0
  -29.9400  -19.2380   25.2040 N   0  0  0  0  0  0  0  0  0  0  0  0
  -31.4410  -19.4550   23.4080 N   0  0  0  0  0  0  0  0  0  0  0  0
  -31.0970  -22.4240   23.0900 Cl  0  0  0  0  0  0  0  0  0  0  0  0
  -31.8760  -20.1440   22.8020 H   0  0  0  0  0  0  0  0  0  0  0  0
  -31.2360  -18.1170   22.8490 C   0  0  0  0  0  2  0  0  0  0  0  0
  -30.6170  -18.1970   21.4380 C   0  0  0  0  0  2  0  0  0  0  0  0
  -31.1360  -17.1540   20.4270 C   0  0  0  0  0  2  0  0  0  0  0  0
  -31.3140  -14.7070   20.1910 C   0  0  0  0  0  0  0  0  0  0  0  0
  -31.2200  -12.2790   19.7760 C   0  0  0  0  0  2  0  0  0  0  0  0
  -30.3510  -11.9840   18.5400 C   0  0  0  0  0  2  0  0  0  0  0  0
  -28.8710  -11.8510   18.9450 C   0  0  0  0  0  2  0  0  0  0  0  0
  -28.3860  -13.0350   19.8240 C   0  0  0  0  0  3  0  0  0  0  0  0
  -29.3710  -13.3030   20.9820 C   0  0  0  0  0  2  0  0  0  0  0  0
  -30.7140  -13.5070   20.4080 N   0  0  0  0  0  0  0  0  0  0  0  0
  -32.3810  -14.8220   19.5780 O   0  0  0  0  0  0  0  0  0  0  0  0
  -30.6640  -15.7870   20.6510 N   0  0  0  0  0  0  0  0  0  0  0  0
  -29.8010  -15.6410   21.1530 H   0  0  0  0  0  0  0  0  0  0  0  0
  -26.0910  -13.7310   20.7670 C   0  0  0  0  0  0  0  0  0  0  0  0
  -24.9650  -13.0100   21.0560 C   0  0  0  0  0  0  0  0  0  0  0  0
  -25.2820  -11.6480   20.7590 C   0  0  0  0  0  0  0  0  0  0  0  0
  -27.0290  -12.8120   20.3200 N   0  0  0  0  0  0  0  0  0  0  0  0
  -26.5470  -11.5450   20.3690 N   0  0  0  0  0  0  0  0  0  0  0  0
  -24.4390  -10.4460   20.7690 C   0  0  0  0  0  0  0  0  0  0  0  0
  -24.7640   -9.3230   21.5610 C   0  0  0  0  0  3  0  0  0  0  0  0
  -23.9280   -8.1850   21.5660 C   0  0  0  0  0  3  0  0  0  0  0  0
  -22.7540   -8.1640   20.7770 C   0  0  0  0  0  0  0  0  0  0  0  0
  -22.4480   -9.2760   19.9710 C   0  0  0  0  0  3  0  0  0  0  0  0
  -23.2830  -10.4060   19.9640 C   0  0  0  0  0  3  0  0  0  0  0  0
  -21.8980   -7.0920   20.6970 O   0  0  0  0  0  0  0  0  0  0  0  0
  -21.4230   -6.4660   21.8210 C   0  0  0  0  0  0  0  0  0  0  0  0
  -20.7280   -7.1690   22.8280 C   0  0  0  0  0  3  0  0  0  0  0  0
  -20.1950   -6.4730   23.9320 C   0  0  0  0  0  3  0  0  0  0  0  0
  -20.3460   -5.0770   24.0260 C   0  0  0  0  0  0  0  0  0  0  0  0
  -21.0340   -4.3740   23.0210 C   0  0  0  0  0  3  0  0  0  0  0  0
  -21.5680   -5.0670   21.9200 C   0  0  0  0  0  0  0  0  0  0  0  0
  -22.2110   -4.3820   20.9440 F   0  0  0  0  0  0  0  0  0  0  0  0
  -19.8290   -4.4080   25.0830 F   0  0  0  0  0  0  0  0  0  0  0  0
  -23.6370  -13.5570   21.4940 C   0  0  0  0  0  0  0  0  0  0  0  0
  -22.9180  -12.8290   22.3410 N   0  0  0  0  0  0  0  0  0  0  0  0
  -23.2490  -14.6640   21.1210 O   0  0  0  0  0  0  0  0  0  0  0  0
  -23.2470  -11.9340   22.6690 H   0  0  0  0  0  0  0  0  0  0  0  0
  -22.0280  -13.1770   22.6680 H   0  0  0  0  0  0  0  0  0  0  0  0
  -26.3900  -15.0900   20.8280 N   0  0  0  0  0  0  0  0  0  0  0  0
  -25.7050  -15.7810   21.1100 H   0  0  0  0  0  0  0  0  0  0  0  0
  -27.2680  -15.5000   20.5370 H   0  0  0  0  0  0  0  0  0  0  0  0
  -28.9880  -23.3900   25.2780 C   0  0  0  0  0  2  0  0  0  0  0  0
  -27.8840  -23.7470   24.2540 C   0  0  0  0  0  2  0  0  0  0  0  0
  -28.0990  -25.1170   23.5880 C   0  0  0  0  0  2  0  0  0  0  0  0
  -28.8240  -24.9920   22.2370 C   0  0  0  0  0  2  0  0  0  0  0  0
  -29.8230  -26.1260   21.9760 C   0  0  0  0  0  2  0  0  0  0  0  0
  -30.8550  -25.7270   20.9060 C   0  0  0  0  0  2  0  0  0  0  0  0
  -31.8460  -26.8360   20.5130 C   0  0  0  0  0  2  0  0  0  0  0  0
  -31.2580  -27.6930   19.5440 O   0  0  0  0  0  0  0  0  0  0  0  0
  -27.2220  -30.3830   24.7620 C   0  0  0  0  0  0  0  0  0  0  0  0
  -30.0810  -28.2790   19.9230 C   0  0  0  0  0  0  0  0  0  0  0  0
  -26.0990  -30.0300   22.5810 C   0  0  0  0  0  3  0  0  0  0  0  0
  -27.6340  -29.4790   20.6220 C   0  0  0  0  0  0  0  0  0  0  0  0
  -28.6120  -30.4750   22.7010 C   0  0  0  0  0  2  0  0  0  0  0  0
  -28.7540  -29.6400   21.4480 C   0  0  0  0  0  0  0  0  0  0  0  0
  -29.9800  -29.0380   21.1060 C   0  0  0  0  0  3  0  0  0  0  0  0
  -28.9540  -28.1320   19.0900 C   0  0  0  0  0  3  0  0  0  0  0  0
  -27.7240  -28.7200   19.4400 C   0  0  0  0  0  3  0  0  0  0  0  0
  -26.3640  -30.1690   21.0570 C   0  0  0  0  0  2  0  0  0  0  0  0
  -27.3260  -30.2780   23.4070 N   0  0  0  0  0  0  0  0  0  0  0  0
  -26.1200  -30.3240   25.3250 O   0  0  0  0  0  0  0  0  0  0  0  0
  -25.4550  -28.6510   22.8450 C   0  0  0  0  0  0  0  0  0  0  0  0
  -24.2320  -28.4610   22.3230 N   0  0  0  0  0  0  0  0  0  0  0  0
  -26.0570  -27.7770   23.4730 O   0  0  0  0  0  0  0  0  0  0  0  0
  -23.8090  -29.2270   21.8190 H   0  0  0  0  0  0  0  0  0  0  0  0
  -21.1350  -26.9130   21.2950 C   0  0  0  0  0  0  0  0  0  0  0  0
  -23.4450  -27.2340   22.4050 C   0  0  0  0  0  3  0  0  0  0  0  0
  -23.9630  -26.1760   21.4050 C   0  0  0  0  0  2  0  0  0  0  0  0
  -23.2270  -26.2000   20.0610 C   0  0  0  0  0  2  0  0  0  0  0  0
  -21.7280  -25.9650   20.2650 C   0  0  0  0  0  2  0  0  0  0  0  0
  -21.9440  -27.5180   22.2920 C   0  0  0  0  0  0  0  0  0  0  0  0
  -21.3480  -28.4110   23.2100 C   0  0  0  0  0  3  0  0  0  0  0  0
  -19.9720  -28.6990   23.1440 C   0  0  0  0  0  3  0  0  0  0  0  0
  -19.1730  -28.0840   22.1640 C   0  0  0  0  0  3  0  0  0  0  0  0
  -19.7530  -27.1930   21.2450 C   0  0  0  0  0  3  0  0  0  0  0  0
  -28.4750  -30.6080   25.6660 C   0  0  0  0  0  3  0  0  0  0  0  0
  -29.0240  -29.2780   26.3120 C   0  0  1  0  0  0  0  0  0  0  0  0
  -27.9300  -28.4250   26.9960 C   0  0  0  0  0  1  0  0  0  0  0  0
  -29.7170  -28.3980   25.2440 C   0  0  0  0  0  1  0  0  0  0  0  0
  -30.1010  -29.6130   27.3710 C   0  0  0  0  0  1  0  0  0  0  0  0
  -28.1010  -31.5730   26.7070 N   0  0  0  0  0  0  0  0  0  0  0  0
  -28.4200  -32.8740   26.6860 C   0  0  0  0  0  0  0  0  0  0  0  0
  -29.1340  -33.3740   25.8140 O   0  0  0  0  0  0  0  0  0  0  0  0
  -27.4760  -31.2430   27.4280 H   0  0  0  0  0  0  0  0  0  0  0  0
  -26.6600  -34.5620   27.2890 C   0  0  0  0  0  1  0  0  0  0  0  0
  -27.8590  -33.7580   27.8150 C   0  0  0  0  0  3  0  0  0  0  0  0
  -29.8900  -33.9910   29.1750 C   0  0  0  0  0  1  0  0  0  0  0  0
  -28.8620  -34.6770   28.3970 N   0  0  0  0  0  0  0  0  0  0  0  0
  -28.4150  -35.3640   29.0000 H   0  0  0  0  0  0  0  0  0  0  0  0
  1  3  1  0
  1  2  2  0
  2 52  1  0
  2  6  1  0
  3  7  2  0
  4  6  2  0
  4  5  1  0
  7  4  1  0
  8  3  1  0
  9  1  1  0
 10  8  1  0
 11  8  1  0
 12 11  1  0
 13 22  1  0
 13 12  1  0
 14 20  1  0
 14 22  1  0
 15 20  1  0
 16 17  1  0
 16 15  1  0
 18 17  1  0
 18 27  1  0
 18 19  1  0
 20 19  1  0
 21 14  2  0
 22 23  1  0
 24 49  1  0
 24 25  2  0
 25 44  1  0
 26 29  1  0
 26 25  1  0
 27 28  1  0
 27 24  1  0
 28 26  2  0
 29 30  1  0
 30 31  2  0
 32 31  1  0
 33 32  2  0
 34 33  1  0
 34 29  2  0
 35 32  1  0
 35 36  1  0
 36 41  2  0
 36 37  1  0
 37 38  2  0
 38 39  1  0
 39 43  1  0
 40 39  2  0
 41 40  1  0
 42 41  1  0
 44 45  1  0
 45 48  1  0
 45 47  1  0
 46 44  2  0
 49 50  1  0
 51 49  1  0
 53 52  1  0
 54 53  1  0
 55 54  1  0
 56 55  1  0
 57 56  1  0
 58 57  1  0
 59 61  1  0
 59 58  1  0
 60 71  2  0
 61 66  1  0
 62 72  1  0
 62 70  1  0
 63 69  1  0
 63 65  1  0
 64 70  1  0
 65 64  1  0
 66 65  2  0
 67 68  1  0
 67 61  2  0
 68 63  2  0
 69 62  1  0
 70 60  1  0
 72 74  2  0
 73 72  1  0
 75 73  1  0
 76 81  1  0
 77 73  1  0
 78 77  1  0
 79 80  1  0
 79 78  1  0
 80 76  1  0
 81 77  1  0
 81 82  2  0
 83 82  1  0
 84 83  2  0
 85 76  2  0
 85 84  1  0
 86 60  1  0
 86 87  1  0
 86 91  1  0
 87 88  1  1
 87 90  1  0
 89 87  1  0
 91 94  1  0
 92 91  1  0
 92 96  1  0
 93 92  2  0
 96 95  1  0
 96 98  1  0
 98 99  1  0
 98 97  1  0
M  ISO  4  14 100  22 100  58 101  59 101
M  END
>  <TORSDO>  (32) 
F 26

>  <SCORE>  (32) 
8.991

>  <name>  (32) 
31

>  <ligand_id>  (32) 
31

>  <original_smiles>  (32) 
[H]c1c([H])c([H])c2c(c1[H])C([H])([H])C([H])([H])C([H])([H])C2([H])N([H])C(=O)C1([H])N(C(=O)C([H])(N([H])C(=O)C([H])(N([H])C([H])([H])[H])C([H])([H])[H])C(C([H])([H])[H])(C([H])([H])[H])C([H])([H])[H])C([H])([H])c2c([H])c(OC([H])([H])C([H])([H])C([H])([H])C([H])([H])C([H])([H])C([H])([H])C([H])([H])c3nc(C([H])([H])[H])nc(N([H])C([H])([H])C([H])([H])C([H])([H])N([H])C(=O)N4C([H])([H])C([H])([H])C([H])([H])C([H])(n5nc(-c6c([H])c([H])c(Oc7c([H])c([H])c(F)c([H])c7F)c([H])c6[H])c(C(=O)N([H])[H])c5N([H])[H])C4([H])[H])c3Cl)c([H])c([H])c2C1([H])[H]

>  <smiles>  (32) 
[H]c1c([H])c([H])c2c(c1[H])C([H])([H])C([H])([H])C([H])([H])C2([H])N([H])C(=O)C1([H])N(C(=O)C([H])(N([H])C(=O)C([H])(N([H])C([H])([H])[H])C([H])([H])[H])C(C([H])([H])[H])(C([H])([H])[H])C([H])([H])[H])C([H])([H])c2c([H])c(OC([H])([H])C([H])([H])C([H])([H])C([H])([H])C([H])([H])C([H])([H])C([H])([H])c3nc(C([H])([H])[H])nc(N([H])C([H])([H])C([H])([H])C([H])([H])N([H])C(=O)N4C([H])([H])C([H])([H])C([H])([H])C([H])(n5nc(-c6c([H])c([H])c(Oc7c([H])c([H])c(F)c([H])c7F)c([H])c6[H])c(C(=O)N([H])[H])c5N([H])[H])C4([H])[H])c3Cl)c([H])c([H])c2C1([H])[H]

$$$$
32:0:0
     RDKit          3D

 94102  0  0  1  0  0  0  0  0999 V2000
  -30.6490  -19.5820   20.5980 C   0  0  0  0  0  3  0  0  0  0  0  0
  -30.7790  -18.2840   21.1660 C   0  0  0  0  0  0  0  0  0  0  0  0
  -30.6240  -19.3260   23.3940 C   0  0  0  0  0  0  0  0  0  0  0  0
  -30.5560  -20.7510   21.3920 C   0  0  0  0  0  0  0  0  0  0  0  0
  -30.7660  -18.1650   22.5830 C   0  0  0  0  0  0  0  0  0  0  0  0
  -30.5490  -20.6100   22.8000 C   0  0  0  0  0  0  0  0  0  0  0  0
  -30.6100  -19.2290   24.9180 C   0  0  0  0  0  1  0  0  0  0  0  0
  -30.9890  -16.6230   23.3450 Cl  0  0  0  0  0  0  0  0  0  0  0  0
  -30.5240  -22.0260   23.8070 Cl  0  0  0  0  0  0  0  0  0  0  0  0
  -30.6080  -22.0280   20.7870 N   0  0  0  0  0  0  0  0  0  0  0  0
  -31.3430  -22.5740   21.2280 H   0  0  0  0  0  0  0  0  0  0  0  0
  -29.3730  -22.8280   20.7630 C   0  0  0  0  0  2  0  0  0  0  0  0
  -29.6460  -24.3640   20.6770 C   0  0  0  0  0  2  0  0  0  0  0  0
  -28.3710  -25.2060   20.4110 C   0  0  0  0  0  2  0  0  0  0  0  0
  -28.5460  -26.6460   20.4230 O   0  0  0  0  0  0  0  0  0  0  0  0
  -24.6760  -31.9510   23.2540 C   0  0  0  0  0  0  0  0  0  0  0  0
  -27.3870  -27.4090   20.3420 C   0  0  0  0  0  0  0  0  0  0  0  0
  -23.5030  -30.4850   21.6480 C   0  0  0  0  0  3  0  0  0  0  0  0
  -24.9860  -28.9270   20.2780 C   0  0  0  0  0  0  0  0  0  0  0  0
  -26.0310  -30.8560   21.4690 C   0  0  0  0  0  2  0  0  0  0  0  0
  -26.1380  -29.4680   20.8650 C   0  0  0  0  0  0  0  0  0  0  0  0
  -27.3420  -28.7180   20.8900 C   0  0  0  0  0  3  0  0  0  0  0  0
  -26.2120  -26.9040   19.7360 C   0  0  0  0  0  3  0  0  0  0  0  0
  -25.0190  -27.6460   19.7090 C   0  0  0  0  0  3  0  0  0  0  0  0
  -23.7330  -29.7730   20.2910 C   0  0  0  0  0  2  0  0  0  0  0  0
  -24.7550  -31.1130   22.1800 N   0  0  0  0  0  0  0  0  0  0  0  0
  -23.5870  -32.2280   23.7720 O   0  0  0  0  0  0  0  0  0  0  0  0
  -22.8520  -29.4850   22.6320 C   0  0  0  0  0  0  0  0  0  0  0  0
  -21.5400  -29.2500   22.4700 N   0  0  0  0  0  0  0  0  0  0  0  0
  -23.5270  -28.9230   23.4980 O   0  0  0  0  0  0  0  0  0  0  0  0
  -21.0560  -29.7570   21.7420 H   0  0  0  0  0  0  0  0  0  0  0  0
  -18.2050  -27.9160   22.8700 C   0  0  0  0  0  0  0  0  0  0  0  0
  -20.7290  -28.3200   23.2570 C   0  0  0  0  0  3  0  0  0  0  0  0
  -20.9320  -26.8640   22.7810 C   0  0  0  0  0  2  0  0  0  0  0  0
  -19.9040  -26.4240   21.7340 C   0  0  0  0  0  2  0  0  0  0  0  0
  -18.4830  -26.5380   22.2950 C   0  0  0  0  0  2  0  0  0  0  0  0
  -19.2610  -28.7590   23.3060 C   0  0  0  0  0  0  0  0  0  0  0  0
  -18.9500  -30.0440   23.8000 C   0  0  0  0  0  3  0  0  0  0  0  0
  -17.6160  -30.4890   23.8650 C   0  0  0  0  0  3  0  0  0  0  0  0
  -16.5740  -29.6430   23.4480 C   0  0  0  0  0  3  0  0  0  0  0  0
  -16.8680  -28.3590   22.9550 C   0  0  0  0  0  3  0  0  0  0  0  0
  -25.9480  -32.6170   23.8640 C   0  0  0  0  0  3  0  0  0  0  0  0
  -25.6050  -34.0080   24.1900 N   0  0  0  0  0  0  0  0  0  0  0  0
  -25.9340  -35.0670   23.4400 C   0  0  0  0  0  0  0  0  0  0  0  0
  -26.6300  -34.9780   22.4240 O   0  0  0  0  0  0  0  0  0  0  0  0
  -24.9900  -34.1480   24.9780 H   0  0  0  0  0  0  0  0  0  0  0  0
  -24.1750  -36.8220   23.0540 C   0  0  0  0  0  1  0  0  0  0  0  0
  -25.4090  -36.4440   23.8890 C   0  0  0  0  0  3  0  0  0  0  0  0
  -27.5130  -37.3690   24.7540 C   0  0  0  0  0  1  0  0  0  0  0  0
  -26.4220  -37.5200   23.7950 N   0  0  0  0  0  0  0  0  0  0  0  0
  -25.9950  -38.4300   23.9420 H   0  0  0  0  0  0  0  0  0  0  0  0
  -26.4930  -31.8640   25.1380 C   0  0  1  0  0  0  0  0  0  0  0  0
  -25.4130  -31.5930   26.2110 C   0  0  0  0  0  1  0  0  0  0  0  0
  -27.1190  -30.5050   24.7460 C   0  0  0  0  0  1  0  0  0  0  0  0
  -27.6210  -32.6950   25.7980 C   0  0  0  0  0  1  0  0  0  0  0  0
  -31.0700  -17.1180   20.1880 C   0  0  0  0  0  2  0  0  0  0  0  0
  -31.1500  -14.6450   20.0010 C   0  0  0  0  0  0  0  0  0  0  0  0
  -30.7540  -12.4270   19.0080 C   0  0  0  0  0  2  0  0  0  0  0  0
  -29.7990  -12.5810   17.8080 C   0  0  0  0  0  2  0  0  0  0  0  0
  -28.3330  -12.5050   18.2750 C   0  0  0  0  0  2  0  0  0  0  0  0
  -28.0400  -13.4260   19.4900 C   0  0  0  0  0  3  0  0  0  0  0  0
  -29.1130  -13.2650   20.5910 C   0  0  0  0  0  2  0  0  0  0  0  0
  -30.4300  -13.4900   19.9750 N   0  0  0  0  0  0  0  0  0  0  0  0
  -32.2810  -14.7240   19.5140 O   0  0  0  0  0  0  0  0  0  0  0  0
  -30.5140  -15.7640   20.4090 N   0  0  0  0  0  0  0  0  0  0  0  0
  -29.5910  -15.6820   20.8090 H   0  0  0  0  0  0  0  0  0  0  0  0
  -25.7070  -14.1390   20.3040 C   0  0  0  0  0  0  0  0  0  0  0  0
  -24.6090  -13.4160   20.6850 C   0  0  0  0  0  0  0  0  0  0  0  0
  -24.9920  -12.0410   20.5960 C   0  0  0  0  0  0  0  0  0  0  0  0
  -26.6920  -13.2100   20.0090 N   0  0  0  0  0  0  0  0  0  0  0  0
  -26.2670  -11.9410   20.2420 N   0  0  0  0  0  0  0  0  0  0  0  0
  -24.2010  -10.8170   20.7710 C   0  0  0  0  0  0  0  0  0  0  0  0
  -24.6100   -9.7930   21.6550 C   0  0  0  0  0  3  0  0  0  0  0  0
  -23.8230   -8.6320   21.8200 C   0  0  0  0  0  3  0  0  0  0  0  0
  -22.6130   -8.4870   21.1020 C   0  0  0  0  0  0  0  0  0  0  0  0
  -22.2220   -9.4970   20.2060 C   0  0  0  0  0  3  0  0  0  0  0  0
  -23.0080  -10.6500   20.0390 C   0  0  0  0  0  3  0  0  0  0  0  0
  -21.7990   -7.3840   21.1790 O   0  0  0  0  0  0  0  0  0  0  0  0
  -21.7520   -6.6020   22.3050 C   0  0  0  0  0  0  0  0  0  0  0  0
  -21.4140   -7.1350   23.5690 C   0  0  0  0  0  3  0  0  0  0  0  0
  -21.3090   -6.2830   24.6870 C   0  0  0  0  0  3  0  0  0  0  0  0
  -21.5310   -4.9000   24.5430 C   0  0  0  0  0  0  0  0  0  0  0  0
  -21.8600   -4.3670   23.2850 C   0  0  0  0  0  3  0  0  0  0  0  0
  -21.9670   -5.2160   22.1690 C   0  0  0  0  0  0  0  0  0  0  0  0
  -22.2640   -4.6940   20.9530 F   0  0  0  0  0  0  0  0  0  0  0  0
  -21.4220   -4.0810   25.6150 F   0  0  0  0  0  0  0  0  0  0  0  0
  -23.2520  -13.9610   21.0210 C   0  0  0  0  0  0  0  0  0  0  0  0
  -22.5190  -13.2860   21.9010 N   0  0  0  0  0  0  0  0  0  0  0  0
  -22.8490  -15.0190   20.5390 O   0  0  0  0  0  0  0  0  0  0  0  0
  -22.8560  -12.4270   22.3110 H   0  0  0  0  0  0  0  0  0  0  0  0
  -21.6090  -13.6310   22.1660 H   0  0  0  0  0  0  0  0  0  0  0  0
  -25.9440  -15.5040   20.1640 N   0  0  0  0  0  0  0  0  0  0  0  0
  -25.2220  -16.1980   20.3190 H   0  0  0  0  0  0  0  0  0  0  0  0
  -26.8090  -15.9020   19.8220 H   0  0  0  0  0  0  0  0  0  0  0  0
  1  2  2  0
  1  4  1  0
  2  5  1  0
  3  7  1  0
  4  6  2  0
  5  8  1  0
  5  3  2  0
  6  3  1  0
  6  9  1  0
 10 11  1  0
 10  4  1  0
 12 10  1  0
 13 12  1  0
 14 15  1  0
 14 13  1  0
 16 27  2  0
 17 15  1  0
 17 22  1  0
 18 26  1  0
 18 28  1  0
 19 25  1  0
 19 21  1  0
 20 26  1  0
 21 22  2  0
 21 20  1  0
 23 17  2  0
 24 23  1  0
 24 19  2  0
 25 18  1  0
 26 16  1  0
 28 30  2  0
 29 28  1  0
 31 29  1  0
 32 41  2  0
 32 37  1  0
 33 29  1  0
 33 37  1  0
 34 33  1  0
 35 36  1  0
 35 34  1  0
 36 32  1  0
 37 38  2  0
 38 39  1  0
 40 39  2  0
 41 40  1  0
 42 16  1  0
 42 43  1  0
 42 52  1  0
 43 46  1  0
 44 48  1  0
 44 43  1  0
 45 44  2  0
 48 47  1  0
 50 48  1  0
 50 51  1  0
 50 49  1  0
 52 55  1  1
 52 53  1  0
 54 52  1  0
 56 65  1  0
 56  2  1  0
 57 65  1  0
 58 63  1  0
 59 60  1  0
 59 58  1  0
 61 60  1  0
 61 70  1  0
 61 62  1  0
 63 57  1  0
 63 62  1  0
 64 57  2  0
 65 66  1  0
 67 68  2  0
 68 87  1  0
 69 68  1  0
 69 72  1  0
 70 71  1  0
 70 67  1  0
 71 69  2  0
 72 73  1  0
 73 74  2  0
 75 78  1  0
 75 74  1  0
 76 75  2  0
 77 76  1  0
 77 72  2  0
 78 79  1  0
 79 80  1  0
 80 81  2  0
 82 81  1  0
 82 86  1  0
 83 82  2  0
 84 79  2  0
 84 83  1  0
 85 84  1  0
 87 88  1  0
 88 91  1  0
 88 90  1  0
 89 87  2  0
 92 67  1  0
 92 93  1  0
 94 92  1  0
M  ISO  4  14 101  15 101  57 100  65 100
M  END
>  <TORSDO>  (33) 
F 21

>  <SCORE>  (33) 
-11.073

>  <name>  (33) 
32

>  <ligand_id>  (33) 
32

>  <original_smiles>  (33) 
[H]c1c([H])c([H])c2c(c1[H])C([H])([H])C([H])([H])C([H])([H])C2([H])N([H])C(=O)C1([H])N(C(=O)C([H])(N([H])C(=O)C([H])(N([H])C([H])([H])[H])C([H])([H])[H])C(C([H])([H])[H])(C([H])([H])[H])C([H])([H])[H])C([H])([H])c2c([H])c(OC([H])([H])C([H])([H])C([H])([H])N([H])c3c([H])c(C([H])([H])N([H])C(=O)N4C([H])([H])C([H])([H])C([H])([H])C([H])(n5nc(-c6c([H])c([H])c(Oc7c([H])c([H])c(F)c([H])c7F)c([H])c6[H])c(C(=O)N([H])[H])c5N([H])[H])C4([H])[H])c(Cl)c(C([H])([H])[H])c3Cl)c([H])c([H])c2C1([H])[H]

>  <smiles>  (33) 
[H]c1c([H])c([H])c2c(c1[H])C([H])([H])C([H])([H])C([H])([H])C2([H])N([H])C(=O)C1([H])N(C(=O)C([H])(N([H])C(=O)C([H])(N([H])C([H])([H])[H])C([H])([H])[H])C(C([H])([H])[H])(C([H])([H])[H])C([H])([H])[H])C([H])([H])c2c([H])c(OC([H])([H])C([H])([H])C([H])([H])N([H])c3c([H])c(C([H])([H])N([H])C(=O)N4C([H])([H])C([H])([H])C([H])([H])C([H])(n5nc(-c6c([H])c([H])c(Oc7c([H])c([H])c(F)c([H])c7F)c([H])c6[H])c(C(=O)N([H])[H])c5N([H])[H])C4([H])[H])c(Cl)c(C([H])([H])[H])c3Cl)c([H])c([H])c2C1([H])[H]

$$$$
33:0:0
     RDKit          3D

 94102  0  0  1  0  0  0  0  0999 V2000
  -26.3760  -21.2220   18.6660 C   0  0  0  0  0  3  0  0  0  0  0  0
  -27.0170  -22.4130   18.2660 C   0  0  0  0  0  0  0  0  0  0  0  0
  -28.3040  -22.3580   17.6850 C   0  0  0  0  0  0  0  0  0  0  0  0
  -28.4890  -20.0380   18.4780 C   0  0  0  0  0  0  0  0  0  0  0  0
  -27.1100  -20.0280   18.7550 C   0  0  0  0  0  0  0  0  0  0  0  0
  -29.0370  -21.1440   17.7930 C   0  0  0  0  0  0  0  0  0  0  0  0
  -28.9210  -23.5900   17.0380 C   0  0  0  0  0  1  0  0  0  0  0  0
  -26.3080  -18.6420   19.3870 Cl  0  0  0  0  0  0  0  0  0  0  0  0
  -30.6440  -21.0160   17.1720 Cl  0  0  0  0  0  0  0  0  0  0  0  0
  -26.3430  -23.7270   18.6260 C   0  0  0  0  0  2  0  0  0  0  0  0
  -26.7770  -24.1940   20.0460 C   0  0  0  0  0  2  0  0  0  0  0  0
  -28.1050  -25.0230   20.2510 C   0  0  0  0  0  2  0  0  0  0  0  0
  -28.2390  -26.4890   20.2060 O   0  0  0  0  0  0  0  0  0  0  0  0
  -24.6100  -31.9140   23.3010 C   0  0  0  0  0  0  0  0  0  0  0  0
  -27.1470  -27.3290   20.2360 C   0  0  0  0  0  0  0  0  0  0  0  0
  -23.4000  -30.5300   21.6570 C   0  0  0  0  0  3  0  0  0  0  0  0
  -24.8260  -28.9860   20.2280 C   0  0  0  0  0  0  0  0  0  0  0  0
  -25.9570  -30.8000   21.5060 C   0  0  0  0  0  2  0  0  0  0  0  0
  -26.0050  -29.4430   20.8380 C   0  0  0  0  0  0  0  0  0  0  0  0
  -27.1660  -28.6160   20.8560 C   0  0  0  0  0  3  0  0  0  0  0  0
  -25.9620  -26.9740   19.5670 C   0  0  0  0  0  3  0  0  0  0  0  0
  -24.8070  -27.7440   19.5900 C   0  0  0  0  0  3  0  0  0  0  0  0
  -23.6140  -29.8810   20.2700 C   0  0  0  0  0  2  0  0  0  0  0  0
  -24.6730  -31.0900   22.2150 N   0  0  0  0  0  0  0  0  0  0  0  0
  -23.5260  -32.2220   23.8100 O   0  0  0  0  0  0  0  0  0  0  0  0
  -22.7350  -29.5030   22.6040 C   0  0  0  0  0  0  0  0  0  0  0  0
  -21.4110  -29.3360   22.4700 N   0  0  0  0  0  0  0  0  0  0  0  0
  -23.3970  -28.8760   23.4410 O   0  0  0  0  0  0  0  0  0  0  0  0
  -20.9400  -29.9040   21.7830 H   0  0  0  0  0  0  0  0  0  0  0  0
  -18.0150  -28.2080   22.9650 C   0  0  0  0  0  0  0  0  0  0  0  0
  -20.5750  -28.4170   23.2340 C   0  0  0  0  0  3  0  0  0  0  0  0
  -20.6520  -26.9840   22.6550 C   0  0  0  0  0  2  0  0  0  0  0  0
  -19.5460  -26.6850   21.6360 C   0  0  0  0  0  2  0  0  0  0  0  0
  -18.1660  -26.8570   22.2830 C   0  0  0  0  0  2  0  0  0  0  0  0
  -19.1480  -28.9460   23.3940 C   0  0  0  0  0  0  0  0  0  0  0  0
  -18.9550  -30.2120   23.9860 C   0  0  0  0  0  3  0  0  0  0  0  0
  -17.6620  -30.7430   24.1500 C   0  0  0  0  0  3  0  0  0  0  0  0
  -16.5420  -29.9990   23.7360 C   0  0  0  0  0  3  0  0  0  0  0  0
  -16.7170  -28.7340   23.1470 C   0  0  0  0  0  3  0  0  0  0  0  0
  -25.8940  -32.5350   23.9260 C   0  0  0  0  0  3  0  0  0  0  0  0
  -25.6000  -33.9500   24.2200 N   0  0  0  0  0  0  0  0  0  0  0  0
  -25.9530  -34.9830   23.4480 C   0  0  0  0  0  0  0  0  0  0  0  0
  -26.6270  -34.8480   22.4230 O   0  0  0  0  0  0  0  0  0  0  0  0
  -25.0040  -34.1300   25.0110 H   0  0  0  0  0  0  0  0  0  0  0  0
  -24.2440  -36.7880   23.0500 C   0  0  0  0  0  1  0  0  0  0  0  0
  -25.4700  -36.3840   23.8820 C   0  0  0  0  0  3  0  0  0  0  0  0
  -27.5980  -37.2560   24.7270 C   0  0  0  0  0  1  0  0  0  0  0  0
  -26.5120  -37.4200   23.7700 N   0  0  0  0  0  0  0  0  0  0  0  0
  -26.1150  -38.3460   23.8950 H   0  0  0  0  0  0  0  0  0  0  0  0
  -26.3860  -31.7830   25.2200 C   0  0  1  0  0  0  0  0  0  0  0  0
  -25.2720  -31.5650   26.2690 C   0  0  0  0  0  1  0  0  0  0  0  0
  -26.9610  -30.3930   24.8530 C   0  0  0  0  0  1  0  0  0  0  0  0
  -27.5330  -32.5760   25.8890 C   0  0  0  0  0  1  0  0  0  0  0  0
  -29.4090  -19.0580   19.2130 C   0  0  0  0  0  2  0  0  0  0  0  0
  -29.3920  -17.5780   18.8560 C   0  0  0  0  0  2  0  0  0  0  0  0
  -29.9690  -16.7190   19.9860 C   0  0  0  0  0  2  0  0  0  0  0  0
  -30.8290  -14.4650   20.2680 C   0  0  0  0  0  0  0  0  0  0  0  0
  -30.4800  -12.3020   19.2780 C   0  0  0  0  0  2  0  0  0  0  0  0
  -29.5470  -12.5440   18.0640 C   0  0  0  0  0  2  0  0  0  0  0  0
  -28.0630  -12.4500   18.4840 C   0  0  0  0  0  2  0  0  0  0  0  0
  -27.7290  -13.2810   19.7570 C   0  0  0  0  0  3  0  0  0  0  0  0
  -28.8020  -13.1130   20.8630 C   0  0  0  0  0  2  0  0  0  0  0  0
  -30.1360  -13.3090   20.2780 N   0  0  0  0  0  0  0  0  0  0  0  0
  -32.0480  -14.5510   20.1860 O   0  0  0  0  0  0  0  0  0  0  0  0
  -30.1810  -15.3740   19.5420 N   0  0  0  0  0  0  0  0  0  0  0  0
  -30.4510  -15.3490   18.5650 H   0  0  0  0  0  0  0  0  0  0  0  0
  -25.3220  -13.8800   20.4570 C   0  0  0  0  0  0  0  0  0  0  0  0
  -24.2480  -13.1030   20.8210 C   0  0  0  0  0  0  0  0  0  0  0  0
  -24.7150  -11.7550   20.8080 C   0  0  0  0  0  0  0  0  0  0  0  0
  -26.3730  -12.9990   20.2440 N   0  0  0  0  0  0  0  0  0  0  0  0
  -26.0120  -11.7150   20.5140 N   0  0  0  0  0  0  0  0  0  0  0  0
  -23.9830  -10.4930   20.9990 C   0  0  0  0  0  0  0  0  0  0  0  0
  -24.4000   -9.5370   21.9500 C   0  0  0  0  0  3  0  0  0  0  0  0
  -23.6690   -8.3430   22.1320 C   0  0  0  0  0  3  0  0  0  0  0  0
  -22.5040   -8.0990   21.3640 C   0  0  0  0  0  0  0  0  0  0  0  0
  -22.1070   -9.0460   20.4030 C   0  0  0  0  0  3  0  0  0  0  0  0
  -22.8400  -10.2310   20.2200 C   0  0  0  0  0  3  0  0  0  0  0  0
  -21.7490   -6.9530   21.4510 O   0  0  0  0  0  0  0  0  0  0  0  0
  -21.6780   -6.2250   22.6120 C   0  0  0  0  0  0  0  0  0  0  0  0
  -21.2260   -6.7940   23.8220 C   0  0  0  0  0  3  0  0  0  0  0  0
  -21.1040   -5.9920   24.9740 C   0  0  0  0  0  3  0  0  0  0  0  0
  -21.4230   -4.6210   24.9160 C   0  0  0  0  0  0  0  0  0  0  0  0
  -21.8680   -4.0530   23.7100 C   0  0  0  0  0  3  0  0  0  0  0  0
  -21.9930   -4.8520   22.5610 C   0  0  0  0  0  0  0  0  0  0  0  0
  -22.4020   -4.2940   21.3950 F   0  0  0  0  0  0  0  0  0  0  0  0
  -21.2980   -3.8470   26.0200 F   0  0  0  0  0  0  0  0  0  0  0  0
  -22.8480  -13.5890   21.0700 C   0  0  0  0  0  0  0  0  0  0  0  0
  -22.1090  -12.8970   21.9340 N   0  0  0  0  0  0  0  0  0  0  0  0
  -22.4130  -14.6060   20.5380 O   0  0  0  0  0  0  0  0  0  0  0  0
  -22.4760  -12.0760   22.3890 H   0  0  0  0  0  0  0  0  0  0  0  0
  -21.1700  -13.1990   22.1440 H   0  0  0  0  0  0  0  0  0  0  0  0
  -25.4800  -15.2450   20.2740 N   0  0  0  0  0  0  0  0  0  0  0  0
  -24.7030  -15.8920   20.3590 H   0  0  0  0  0  0  0  0  0  0  0  0
  -26.3350  -15.6930   19.9660 H   0  0  0  0  0  0  0  0  0  0  0  0
  1  5  1  0
  2 10  1  0
  2  1  2  0
  3  6  2  0
  3  2  1  0
  4  5  2  0
  4 54  1  0
  5  8  1  0
  6  4  1  0
  7  3  1  0
  9  6  1  0
 10 11  1  0
 11 12  1  0
 13 15  1  0
 13 12  1  0
 14 25  2  0
 15 20  1  0
 16 24  1  0
 16 26  1  0
 17 23  1  0
 17 19  1  0
 18 24  1  0
 19 20  2  0
 19 18  1  0
 21 22  1  0
 21 15  2  0
 22 17  2  0
 23 16  1  0
 24 14  1  0
 26 28  2  0
 27 26  1  0
 29 27  1  0
 30 39  2  0
 30 35  1  0
 31 27  1  0
 31 35  1  0
 32 31  1  0
 33 34  1  0
 33 32  1  0
 34 30  1  0
 35 36  2  0
 36 37  1  0
 38 37  2  0
 39 38  1  0
 40 14  1  0
 40 41  1  0
 40 50  1  0
 41 44  1  0
 42 46  1  0
 42 41  1  0
 43 42  2  0
 46 45  1  0
 48 46  1  0
 48 49  1  0
 48 47  1  0
 50 53  1  1
 50 51  1  0
 52 50  1  0
 55 54  1  0
 55 56  1  0
 57 63  1  0
 58 63  1  0
 59 60  1  0
 59 58  1  0
 61 60  1  0
 61 70  1  0
 61 62  1  0
 63 62  1  0
 64 57  2  0
 65 56  1  0
 65 57  1  0
 66 65  1  0
 67 68  2  0
 68 87  1  0
 69 68  1  0
 69 72  1  0
 70 67  1  0
 70 71  1  0
 71 69  2  0
 72 73  1  0
 73 74  2  0
 75 78  1  0
 75 74  1  0
 76 75  2  0
 77 76  1  0
 77 72  2  0
 78 79  1  0
 79 80  1  0
 80 81  2  0
 82 81  1  0
 82 86  1  0
 83 82  2  0
 84 79  2  0
 84 83  1  0
 85 84  1  0
 87 88  1  0
 88 91  1  0
 88 90  1  0
 89 87  2  0
 92 93  1  0
 92 67  1  0
 94 92  1  0
M  ISO  4  12 101  13 101  57 100  65 100
M  END
>  <TORSDO>  (34) 
F 22

>  <SCORE>  (34) 
-12.962

>  <name>  (34) 
33

>  <ligand_id>  (34) 
33

>  <original_smiles>  (34) 
[H]c1c([H])c([H])c2c(c1[H])C([H])([H])C([H])([H])C([H])([H])C2([H])N([H])C(=O)C1([H])N(C(=O)C([H])(N([H])C(=O)C([H])(N([H])C([H])([H])[H])C([H])([H])[H])C(C([H])([H])[H])(C([H])([H])[H])C([H])([H])[H])C([H])([H])c2c([H])c(OC([H])([H])C([H])([H])C([H])([H])c3c([H])c(Cl)c(C([H])([H])C([H])([H])C([H])([H])N([H])C(=O)N4C([H])([H])C([H])([H])C([H])([H])C([H])(n5nc(-c6c([H])c([H])c(Oc7c([H])c([H])c(F)c([H])c7F)c([H])c6[H])c(C(=O)N([H])[H])c5N([H])[H])C4([H])[H])c(Cl)c3C([H])([H])[H])c([H])c([H])c2C1([H])[H]

>  <smiles>  (34) 
[H]c1c([H])c([H])c2c(c1[H])C([H])([H])C([H])([H])C([H])([H])C2([H])N([H])C(=O)C1([H])N(C(=O)C([H])(N([H])C(=O)C([H])(N([H])C([H])([H])[H])C([H])([H])[H])C(C([H])([H])[H])(C([H])([H])[H])C([H])([H])[H])C([H])([H])c2c([H])c(OC([H])([H])C([H])([H])C([H])([H])c3c([H])c(Cl)c(C([H])([H])C([H])([H])C([H])([H])N([H])C(=O)N4C([H])([H])C([H])([H])C([H])([H])C([H])(n5nc(-c6c([H])c([H])c(Oc7c([H])c([H])c(F)c([H])c7F)c([H])c6[H])c(C(=O)N([H])[H])c5N([H])[H])C4([H])[H])c(Cl)c3C([H])([H])[H])c([H])c([H])c2C1([H])[H]

$$$$
34:0:0
     RDKit          3D

 91 99  0  0  1  0  0  0  0  0999 V2000
  -30.6090  -21.9550   20.7270 C   0  0  0  0  0  3  0  0  0  0  0  0
  -28.8390  -20.3690   20.2950 C   0  0  0  0  0  3  0  0  0  0  0  0
  -29.2290  -21.8030   20.4850 C   0  0  0  0  0  0  0  0  0  0  0  0
  -31.5140  -20.8630   20.7860 C   0  0  0  0  0  0  0  0  0  0  0  0
  -29.7440  -19.1720   20.3470 C   0  0  0  0  0  0  0  0  0  0  0  0
  -31.0950  -19.5110   20.6080 C   0  0  0  0  0  0  0  0  0  0  0  0
  -32.2820  -18.2510   20.6410 Cl  0  0  0  0  0  0  0  0  0  0  0  0
  -33.4460  -20.9050   22.4580 C   0  0  0  0  0  1  0  0  0  0  0  0
  -32.9870  -21.1840   21.0200 C   0  0  0  0  0  2  0  0  0  0  0  0
  -28.3050  -23.1890   20.6440 C   0  0  0  0  0  2  0  0  0  0  0  0
  -28.4510  -24.6990   19.8620 C   0  0  0  0  0  2  0  0  0  0  0  0
  -28.3070  -26.1800   20.3800 O   0  0  0  0  0  0  0  0  0  0  0  0
  -24.6330  -31.8790   23.2410 C   0  0  0  0  0  0  0  0  0  0  0  0
  -27.2240  -27.1310   20.2450 C   0  0  0  0  0  0  0  0  0  0  0  0
  -23.4340  -30.4690   21.6090 C   0  0  0  0  0  3  0  0  0  0  0  0
  -24.8850  -28.8770   20.1920 C   0  0  0  0  0  0  0  0  0  0  0  0
  -25.9850  -30.7320   21.4430 C   0  0  0  0  0  2  0  0  0  0  0  0
  -26.0600  -29.3330   20.8000 C   0  0  0  0  0  0  0  0  0  0  0  0
  -27.2230  -28.4740   20.8100 C   0  0  0  0  0  3  0  0  0  0  0  0
  -26.0230  -26.7750   19.5940 C   0  0  0  0  0  3  0  0  0  0  0  0
  -24.8810  -27.6140   19.5730 C   0  0  0  0  0  3  0  0  0  0  0  0
  -23.6550  -29.7750   20.2350 C   0  0  0  0  0  2  0  0  0  0  0  0
  -24.7030  -31.0510   22.1520 N   0  0  0  0  0  0  0  0  0  0  0  0
  -23.5460  -32.1670   23.7680 O   0  0  0  0  0  0  0  0  0  0  0  0
  -22.7540  -29.4720   22.5810 C   0  0  0  0  0  0  0  0  0  0  0  0
  -21.4260  -29.3040   22.4590 N   0  0  0  0  0  0  0  0  0  0  0  0
  -23.4270  -28.8530   23.4090 O   0  0  0  0  0  0  0  0  0  0  0  0
  -20.9400  -29.8550   21.7650 H   0  0  0  0  0  0  0  0  0  0  0  0
  -18.0460  -28.1040   22.9700 C   0  0  0  0  0  0  0  0  0  0  0  0
  -20.6050  -28.3730   23.2380 C   0  0  0  0  0  3  0  0  0  0  0  0
  -20.7080  -26.9350   22.6760 C   0  0  0  0  0  2  0  0  0  0  0  0
  -19.6080  -26.6030   21.6620 C   0  0  0  0  0  2  0  0  0  0  0  0
  -18.2250  -26.7510   22.3040 C   0  0  0  0  0  2  0  0  0  0  0  0
  -19.1630  -28.8720   23.3940 C   0  0  0  0  0  0  0  0  0  0  0  0
  -18.9400  -30.1380   23.9790 C   0  0  0  0  0  3  0  0  0  0  0  0
  -17.6330  -30.6360   24.1420 C   0  0  0  0  0  3  0  0  0  0  0  0
  -16.5310  -29.8650   23.7330 C   0  0  0  0  0  3  0  0  0  0  0  0
  -16.7380  -28.6010   23.1530 C   0  0  0  0  0  3  0  0  0  0  0  0
  -25.9100  -32.5210   23.8640 C   0  0  0  0  0  3  0  0  0  0  0  0
  -26.4240  -31.7590   25.1480 C   0  0  1  0  0  0  0  0  0  0  0  0
  -25.3300  -31.5310   26.2180 C   0  0  0  0  0  1  0  0  0  0  0  0
  -27.0060  -30.3770   24.7730 C   0  0  0  0  0  1  0  0  0  0  0  0
  -27.5730  -32.5580   25.8070 C   0  0  0  0  0  1  0  0  0  0  0  0
  -25.5960  -33.9210   24.1930 N   0  0  0  0  0  0  0  0  0  0  0  0
  -25.9220  -34.9770   23.4370 C   0  0  0  0  0  0  0  0  0  0  0  0
  -26.5860  -34.8760   22.4020 O   0  0  0  0  0  0  0  0  0  0  0  0
  -25.0040  -34.0730   24.9970 H   0  0  0  0  0  0  0  0  0  0  0  0
  -24.1880  -36.7720   23.1040 C   0  0  0  0  0  1  0  0  0  0  0  0
  -25.4390  -36.3660   23.9010 C   0  0  0  0  0  3  0  0  0  0  0  0
  -27.5790  -37.2580   24.7090 C   0  0  0  0  0  1  0  0  0  0  0  0
  -26.4670  -37.4200   23.7760 N   0  0  0  0  0  0  0  0  0  0  0  0
  -26.0610  -38.3400   23.9250 H   0  0  0  0  0  0  0  0  0  0  0  0
  -29.4150  -17.5960   19.8930 C   0  0  0  0  0  2  0  0  0  0  0  0
  -30.4340  -14.9980   20.2210 C   0  0  0  0  0  0  0  0  0  0  0  0
  -30.3170  -12.6390   19.2850 C   0  0  0  0  0  2  0  0  0  0  0  0
  -29.3660  -12.6150   18.0640 C   0  0  0  0  0  2  0  0  0  0  0  0
  -27.9110  -12.3950   18.5160 C   0  0  0  0  0  2  0  0  0  0  0  0
  -27.5260  -13.2950   19.7200 C   0  0  0  0  0  3  0  0  0  0  0  0
  -28.6000  -13.2910   20.8300 C   0  0  0  0  0  2  0  0  0  0  0  0
  -29.8650  -13.7180   20.2180 N   0  0  0  0  0  0  0  0  0  0  0  0
  -31.5830  -15.0830   19.7780 O   0  0  0  0  0  0  0  0  0  0  0  0
  -29.6700  -16.1610   20.5530 N   0  0  0  0  0  0  0  0  0  0  0  0
  -28.8730  -15.8920   21.1120 H   0  0  0  0  0  0  0  0  0  0  0  0
  -25.1530  -13.8480   20.4990 C   0  0  0  0  0  0  0  0  0  0  0  0
  -24.1010  -13.0640   20.8850 C   0  0  0  0  0  0  0  0  0  0  0  0
  -24.5750  -11.7170   20.8380 C   0  0  0  0  0  0  0  0  0  0  0  0
  -26.1980  -12.9810   20.2360 N   0  0  0  0  0  0  0  0  0  0  0  0
  -25.8610  -11.6920   20.5030 N   0  0  0  0  0  0  0  0  0  0  0  0
  -23.8610  -10.4480   21.0340 C   0  0  0  0  0  0  0  0  0  0  0  0
  -24.3160   -9.4770   21.9550 C   0  0  0  0  0  3  0  0  0  0  0  0
  -23.5990   -8.2750   22.1410 C   0  0  0  0  0  3  0  0  0  0  0  0
  -22.4120   -8.0350   21.4070 C   0  0  0  0  0  0  0  0  0  0  0  0
  -21.9770   -8.9950   20.4750 C   0  0  0  0  0  3  0  0  0  0  0  0
  -22.6950  -10.1860   20.2870 C   0  0  0  0  0  3  0  0  0  0  0  0
  -21.6650   -6.8860   21.5020 O   0  0  0  0  0  0  0  0  0  0  0  0
  -21.6450   -6.1330   22.6490 C   0  0  0  0  0  0  0  0  0  0  0  0
  -21.2460   -6.6750   23.8890 C   0  0  0  0  0  3  0  0  0  0  0  0
  -21.1730   -5.8500   25.0290 C   0  0  0  0  0  3  0  0  0  0  0  0
  -21.4910   -4.4820   24.9290 C   0  0  0  0  0  0  0  0  0  0  0  0
  -21.8860   -3.9390   23.6930 C   0  0  0  0  0  3  0  0  0  0  0  0
  -21.9590   -4.7620   22.5560 C   0  0  0  0  0  0  0  0  0  0  0  0
  -22.3180   -4.2290   21.3630 F   0  0  0  0  0  0  0  0  0  0  0  0
  -21.4150   -3.6860   26.0210 F   0  0  0  0  0  0  0  0  0  0  0  0
  -22.7060  -13.5290   21.1820 C   0  0  0  0  0  0  0  0  0  0  0  0
  -21.9960  -12.8230   22.0560 N   0  0  0  0  0  0  0  0  0  0  0  0
  -22.2540  -14.5550   20.6760 O   0  0  0  0  0  0  0  0  0  0  0  0
  -22.3750  -11.9950   22.4900 H   0  0  0  0  0  0  0  0  0  0  0  0
  -21.0610  -13.1180   22.2960 H   0  0  0  0  0  0  0  0  0  0  0  0
  -25.3020  -15.2210   20.3240 N   0  0  0  0  0  0  0  0  0  0  0  0
  -24.5300  -15.8670   20.4510 H   0  0  0  0  0  0  0  0  0  0  0  0
  -26.1300  -15.6650   19.9490 H   0  0  0  0  0  0  0  0  0  0  0  0
  1  4  1  0
  2  5  2  0
  2  3  1  0
  3 10  1  0
  3  1  2  0
  4  9  1  0
  5  6  1  0
  6  7  1  0
  6  4  2  0
  9  8  1  0
 11 12  1  0
 11 10  1  0
 13 24  2  0
 14 12  1  0
 14 19  1  0
 15 23  1  0
 15 25  1  0
 16 22  1  0
 16 18  1  0
 17 23  1  0
 18 19  2  0
 18 17  1  0
 20 14  2  0
 21 20  1  0
 21 16  2  0
 22 15  1  0
 23 13  1  0
 25 27  2  0
 26 25  1  0
 28 26  1  0
 29 38  2  0
 29 34  1  0
 30 26  1  0
 30 34  1  0
 31 30  1  0
 32 33  1  0
 32 31  1  0
 33 29  1  0
 34 35  2  0
 35 36  1  0
 37 36  2  0
 38 37  1  0
 39 13  1  0
 39 44  1  0
 39 40  1  0
 40 43  1  1
 40 41  1  0
 42 40  1  0
 44 47  1  0
 45 49  1  0
 45 44  1  0
 46 45  2  0
 49 48  1  0
 51 49  1  0
 51 52  1  0
 51 50  1  0
 53  5  1  0
 53 62  1  0
 54 62  1  0
 55 60  1  0
 56 57  1  0
 56 55  1  0
 58 57  1  0
 58 67  1  0
 58 59  1  0
 60 54  1  0
 60 59  1  0
 61 54  2  0
 62 63  1  0
 64 65  2  0
 65 84  1  0
 66 65  1  0
 66 69  1  0
 67 64  1  0
 67 68  1  0
 68 66  2  0
 69 70  1  0
 70 71  2  0
 72 75  1  0
 72 71  1  0
 73 72  2  0
 74 73  1  0
 74 69  2  0
 75 76  1  0
 76 77  1  0
 77 78  2  0
 79 78  1  0
 79 83  1  0
 80 79  2  0
 81 76  2  0
 81 80  1  0
 82 81  1  0
 84 85  1  0
 85 88  1  0
 85 87  1  0
 86 84  2  0
 89 90  1  0
 89 64  1  0
 91 89  1  0
M  ISO  4  11 101  12 101  54 100  62 100
M  END
>  <TORSDO>  (35) 
F 20

>  <SCORE>  (35) 
-14.811

>  <name>  (35) 
34

>  <ligand_id>  (35) 
34

>  <original_smiles>  (35) 
[H]c1c([H])c([H])c2c(c1[H])C([H])([H])C([H])([H])C([H])([H])C2([H])N([H])C(=O)C1([H])N(C(=O)C([H])(N([H])C(=O)C([H])(N([H])C([H])([H])[H])C([H])([H])[H])C(C([H])([H])[H])(C([H])([H])[H])C([H])([H])[H])C([H])([H])c2c([H])c(OC([H])([H])C([H])([H])c3c([H])c(C([H])([H])N([H])C(=O)N4C([H])([H])C([H])([H])C([H])([H])C([H])(n5nc(-c6c([H])c([H])c(Oc7c([H])c([H])c(F)c([H])c7F)c([H])c6[H])c(C(=O)N([H])[H])c5N([H])[H])C4([H])[H])c(Cl)c(C([H])([H])C([H])([H])[H])c3[H])c([H])c([H])c2C1([H])[H]

>  <smiles>  (35) 
[H]c1c([H])c([H])c2c(c1[H])C([H])([H])C([H])([H])C([H])([H])C2([H])N([H])C(=O)C1([H])N(C(=O)C([H])(N([H])C(=O)C([H])(N([H])C([H])([H])[H])C([H])([H])[H])C(C([H])([H])[H])(C([H])([H])[H])C([H])([H])[H])C([H])([H])c2c([H])c(OC([H])([H])C([H])([H])c3c([H])c(C([H])([H])N([H])C(=O)N4C([H])([H])C([H])([H])C([H])([H])C([H])(n5nc(-c6c([H])c([H])c(Oc7c([H])c([H])c(F)c([H])c7F)c([H])c6[H])c(C(=O)N([H])[H])c5N([H])[H])C4([H])[H])c(Cl)c(C([H])([H])C([H])([H])[H])c3[H])c([H])c([H])c2C1([H])[H]

$$$$
35:0:0
     RDKit          3D

 98108  0  0  1  0  0  0  0  0999 V2000
  -28.6890  -20.4400   20.3790 C   0  0  0  0  0  3  0  0  0  0  0  0
  -29.6760  -19.3680   20.7230 C   0  0  0  0  0  0  0  0  0  0  0  0
  -30.7560  -20.1710   21.0140 C   0  0  0  0  0  0  0  0  0  0  0  0
  -29.1410  -21.7960   20.4610 C   0  0  0  0  0  0  0  0  0  0  0  0
  -32.1110  -19.7210   21.4850 C   0  0  0  0  0  2  0  0  0  0  0  0
  -33.1910  -20.8130   21.4550 C   0  0  0  0  0  2  0  0  0  0  0  0
  -31.4540  -22.6150   21.0610 C   0  0  0  0  0  2  0  0  0  0  0  0
  -32.6560  -22.1760   21.9190 C   0  0  0  0  0  3  0  0  0  0  0  0
  -30.4590  -21.5570   20.8760 N   0  0  0  0  0  0  0  0  0  0  0  0
  -32.2790  -22.0900   23.2850 O   0  0  0  0  0  0  0  0  0  0  0  0
  -31.4940  -21.5490   23.3190 H   0  0  0  0  0  0  0  0  0  0  0  0
  -29.6100  -17.6910   20.9460 C   0  0  0  0  0  2  0  0  0  0  0  0
  -30.7330  -15.1870   20.3710 C   0  0  0  0  0  0  0  0  0  0  0  0
  -30.5370  -12.8840   19.3070 C   0  0  0  0  0  2  0  0  0  0  0  0
  -29.5990  -12.8660   18.0790 C   0  0  0  0  0  2  0  0  0  0  0  0
  -28.1370  -12.6610   18.5150 C   0  0  0  0  0  2  0  0  0  0  0  0
  -27.7430  -13.5450   19.7260 C   0  0  0  0  0  3  0  0  0  0  0  0
  -28.8070  -13.5350   20.8430 C   0  0  0  0  0  2  0  0  0  0  0  0
  -30.0640  -13.9690   20.2160 N   0  0  0  0  0  0  0  0  0  0  0  0
  -31.9650  -15.1260   20.2630 O   0  0  0  0  0  0  0  0  0  0  0  0
  -30.0960  -16.4510   20.0610 N   0  0  0  0  0  0  0  0  0  0  0  0
  -30.2390  -18.2680   16.0670 C   0  0  0  0  0  2  0  0  0  0  0  0
  -31.3800  -17.3250   16.4930 C   0  0  0  0  0  2  0  0  0  0  0  0
  -28.8920  -17.8180   16.6550 C   0  0  0  0  0  2  0  0  0  0  0  0
  -31.4620  -17.1970   18.0270 C   0  0  0  0  0  2  0  0  0  0  0  0
  -28.9750  -17.7400   18.1880 C   0  0  0  0  0  2  0  0  0  0  0  0
  -30.0960  -16.7690   18.6110 C   0  0  0  0  0  3  0  0  0  0  0  0
  -25.3670  -14.1340   20.4590 C   0  0  0  0  0  0  0  0  0  0  0  0
  -24.2910  -13.3630   20.8010 C   0  0  0  0  0  0  0  0  0  0  0  0
  -24.7450  -12.0080   20.7550 C   0  0  0  0  0  0  0  0  0  0  0  0
  -26.4040  -13.2490   20.2160 N   0  0  0  0  0  0  0  0  0  0  0  0
  -26.0410  -11.9640   20.4640 N   0  0  0  0  0  0  0  0  0  0  0  0
  -24.0070  -10.7490   20.9110 C   0  0  0  0  0  0  0  0  0  0  0  0
  -24.4170   -9.7630   21.8340 C   0  0  0  0  0  3  0  0  0  0  0  0
  -23.6780   -8.5690   21.9820 C   0  0  0  0  0  3  0  0  0  0  0  0
  -22.5150   -8.3520   21.2050 C   0  0  0  0  0  0  0  0  0  0  0  0
  -22.1250   -9.3280   20.2710 C   0  0  0  0  0  3  0  0  0  0  0  0
  -22.8640  -10.5130   20.1210 C   0  0  0  0  0  3  0  0  0  0  0  0
  -21.7480   -7.2130   21.2650 O   0  0  0  0  0  0  0  0  0  0  0  0
  -21.6630   -6.4600   22.4080 C   0  0  0  0  0  0  0  0  0  0  0  0
  -21.2270   -7.0120   23.6330 C   0  0  0  0  0  3  0  0  0  0  0  0
  -21.0920   -6.1860   24.7670 C   0  0  0  0  0  3  0  0  0  0  0  0
  -21.3770   -4.8100   24.6750 C   0  0  0  0  0  0  0  0  0  0  0  0
  -21.8060   -4.2590   23.4550 C   0  0  0  0  0  3  0  0  0  0  0  0
  -21.9450   -5.0820   22.3240 C   0  0  0  0  0  0  0  0  0  0  0  0
  -22.3370   -4.5420   21.1450 F   0  0  0  0  0  0  0  0  0  0  0  0
  -21.2390   -4.0140   25.7610 F   0  0  0  0  0  0  0  0  0  0  0  0
  -22.8950  -13.8470   21.0550 C   0  0  0  0  0  0  0  0  0  0  0  0
  -22.1540  -13.1620   21.9190 N   0  0  0  0  0  0  0  0  0  0  0  0
  -22.4670  -14.8690   20.5200 O   0  0  0  0  0  0  0  0  0  0  0  0
  -22.5150  -12.3390   22.3790 H   0  0  0  0  0  0  0  0  0  0  0  0
  -21.2160  -13.4700   22.1280 H   0  0  0  0  0  0  0  0  0  0  0  0
  -25.5470  -15.5050   20.3100 N   0  0  0  0  0  0  0  0  0  0  0  0
  -24.7890  -16.1670   20.4330 H   0  0  0  0  0  0  0  0  0  0  0  0
  -26.4120  -15.9410   20.0200 H   0  0  0  0  0  0  0  0  0  0  0  0
  -28.6400  -23.3310   19.9940 C   0  0  0  0  0  2  0  0  0  0  0  0
  -28.1530  -24.7320   20.8450 C   0  0  0  0  0  2  0  0  0  0  0  0
  -28.2850  -26.2550   20.4400 O   0  0  0  0  0  0  0  0  0  0  0  0
  -24.6740  -32.0440   23.3730 C   0  0  0  0  0  0  0  0  0  0  0  0
  -27.2160  -27.2340   20.4350 C   0  0  0  0  0  0  0  0  0  0  0  0
  -23.4660  -30.6340   21.7510 C   0  0  0  0  0  3  0  0  0  0  0  0
  -24.9030  -29.0120   20.3620 C   0  0  0  0  0  0  0  0  0  0  0  0
  -26.0240  -30.8680   21.5890 C   0  0  0  0  0  2  0  0  0  0  0  0
  -26.0880  -29.4610   20.9610 C   0  0  0  0  0  0  0  0  0  0  0  0
  -27.2470  -28.5910   20.9700 C   0  0  0  0  0  3  0  0  0  0  0  0
  -26.0020  -26.8850   19.8090 C   0  0  0  0  0  3  0  0  0  0  0  0
  -24.8750  -27.7390   19.7690 C   0  0  0  0  0  3  0  0  0  0  0  0
  -23.6870  -29.9270   20.3870 C   0  0  0  0  0  2  0  0  0  0  0  0
  -24.7420  -31.2050   22.2930 N   0  0  0  0  0  0  0  0  0  0  0  0
  -23.5870  -32.3450   23.8940 O   0  0  0  0  0  0  0  0  0  0  0  0
  -22.7730  -29.6520   22.7290 C   0  0  0  0  0  0  0  0  0  0  0  0
  -21.4510  -29.4570   22.5690 N   0  0  0  0  0  0  0  0  0  0  0  0
  -23.4290  -29.0630   23.5910 O   0  0  0  0  0  0  0  0  0  0  0  0
  -20.9780  -29.9820   21.8480 H   0  0  0  0  0  0  0  0  0  0  0  0
  -18.0830  -28.1900   22.9910 C   0  0  0  0  0  0  0  0  0  0  0  0
  -20.6220  -28.5320   23.3470 C   0  0  0  0  0  3  0  0  0  0  0  0
  -20.7820  -27.0800   22.8390 C   0  0  0  0  0  2  0  0  0  0  0  0
  -19.7310  -26.6860   21.7970 C   0  0  0  0  0  2  0  0  0  0  0  0
  -18.3210  -26.8200   22.3780 C   0  0  0  0  0  2  0  0  0  0  0  0
  -19.1640  -29.0000   23.4320 C   0  0  0  0  0  0  0  0  0  0  0  0
  -18.8870  -30.2780   23.9640 C   0  0  0  0  0  3  0  0  0  0  0  0
  -17.5640  -30.7470   24.0610 C   0  0  0  0  0  3  0  0  0  0  0  0
  -16.4980  -29.9370   23.6350 C   0  0  0  0  0  3  0  0  0  0  0  0
  -16.7570  -28.6590   23.1060 C   0  0  0  0  0  3  0  0  0  0  0  0
  -25.9540  -32.6770   23.9970 C   0  0  0  0  0  3  0  0  0  0  0  0
  -25.6640  -34.0920   24.2810 N   0  0  0  0  0  0  0  0  0  0  0  0
  -26.0260  -35.1190   23.4990 C   0  0  0  0  0  0  0  0  0  0  0  0
  -26.7050  -34.9730   22.4800 O   0  0  0  0  0  0  0  0  0  0  0  0
  -25.0610  -34.2780   25.0680 H   0  0  0  0  0  0  0  0  0  0  0  0
  -24.3260  -36.9310   23.0950 C   0  0  0  0  0  1  0  0  0  0  0  0
  -25.5640  -36.5300   23.9140 C   0  0  0  0  0  3  0  0  0  0  0  0
  -27.7150  -37.4100   24.7090 C   0  0  0  0  0  1  0  0  0  0  0  0
  -26.6130  -37.5630   23.7620 N   0  0  0  0  0  0  0  0  0  0  0  0
  -26.2230  -38.4940   23.8770 H   0  0  0  0  0  0  0  0  0  0  0  0
  -26.4300  -31.9440   25.3130 C   0  0  1  0  0  0  0  0  0  0  0  0
  -25.3040  -31.7350   26.3520 C   0  0  0  0  0  1  0  0  0  0  0  0
  -27.0270  -30.5560   24.9840 C   0  0  0  0  0  1  0  0  0  0  0  0
  -27.5590  -32.7590   25.9870 C   0  0  0  0  0  1  0  0  0  0  0  0
  1  4  2  0
  1  2  1  0
  2 12  1  0
  2  3  2  0
  3  5  1  0
  4  9  1  0
  6  5  1  0
  6  8  1  0
  7  8  1  0
  8 10  1  0
  9  3  1  0
  9  7  1  0
 10 11  1  0
 14 19  1  0
 15 16  1  0
 15 14  1  0
 17 16  1  0
 17 31  1  0
 17 18  1  0
 19 13  1  0
 19 18  1  0
 20 13  2  0
 21 13  1  0
 21 12  1  0
 22 23  1  0
 22 24  1  0
 23 25  1  0
 24 26  1  0
 25 27  1  0
 26 27  1  0
 27 21  1  0
 28 29  2  0
 29 48  1  0
 30 29  1  0
 30 33  1  0
 31 28  1  0
 31 32  1  0
 32 30  2  0
 33 34  1  0
 34 35  2  0
 36 39  1  0
 36 35  1  0
 37 36  2  0
 38 37  1  0
 38 33  2  0
 39 40  1  0
 40 41  1  0
 41 42  2  0
 43 42  1  0
 43 47  1  0
 44 43  2  0
 45 40  2  0
 45 44  1  0
 46 45  1  0
 48 49  1  0
 49 52  1  0
 49 51  1  0
 50 48  2  0
 53 54  1  0
 53 28  1  0
 55 53  1  0
 56  4  1  0
 56 57  1  0
 58 57  1  0
 59 70  2  0
 60 58  1  0
 60 65  1  0
 61 69  1  0
 61 71  1  0
 62 68  1  0
 62 64  1  0
 63 69  1  0
 64 65  2  0
 64 63  1  0
 66 60  2  0
 67 66  1  0
 67 62  2  0
 68 61  1  0
 69 59  1  0
 71 73  2  0
 72 71  1  0
 74 72  1  0
 75 84  2  0
 75 80  1  0
 76 72  1  0
 76 80  1  0
 77 76  1  0
 78 79  1  0
 78 77  1  0
 79 75  1  0
 80 81  2  0
 81 82  1  0
 83 82  2  0
 84 83  1  0
 85 59  1  0
 85 86  1  0
 85 95  1  0
 86 89  1  0
 87 91  1  0
 87 86  1  0
 88 87  2  0
 91 90  1  0
 93 94  1  0
 93 91  1  0
 93 92  1  0
 95 98  1  1
 95 96  1  0
 97 95  1  0
M  ISO  4  13 100  21 100  57 101  58 101
M  END
>  <TORSDO>  (36) 
F 21

>  <SCORE>  (36) 
-12.213

>  <name>  (36) 
35

>  <ligand_id>  (36) 
35

>  <original_smiles>  (36) 
[H]OC1([H])C([H])([H])n2c(C([H])([H])C([H])([H])Oc3c([H])c([H])c4c(c3[H])C([H])([H])N(C(=O)C([H])(N([H])C(=O)C([H])(N([H])C([H])([H])[H])C([H])([H])[H])C(C([H])([H])[H])(C([H])([H])[H])C([H])([H])[H])C([H])(C(=O)N([H])C3([H])c5c([H])c([H])c([H])c([H])c5C([H])([H])C([H])([H])C3([H])[H])C4([H])[H])c([H])c(C([H])([H])N(C(=O)N3C([H])([H])C([H])([H])C([H])([H])C([H])(n4nc(-c5c([H])c([H])c(Oc6c([H])c([H])c(F)c([H])c6F)c([H])c5[H])c(C(=O)N([H])[H])c4N([H])[H])C3([H])[H])C3([H])C([H])([H])C([H])([H])C([H])([H])C([H])([H])C3([H])[H])c2C([H])([H])C1([H])[H]

>  <smiles>  (36) 
[H]OC1([H])C([H])([H])n2c(C([H])([H])C([H])([H])Oc3c([H])c([H])c4c(c3[H])C([H])([H])N(C(=O)C([H])(N([H])C(=O)C([H])(N([H])C([H])([H])[H])C([H])([H])[H])C(C([H])([H])[H])(C([H])([H])[H])C([H])([H])[H])C([H])(C(=O)N([H])C3([H])c5c([H])c([H])c([H])c([H])c5C([H])([H])C([H])([H])C3([H])[H])C4([H])[H])c([H])c(C([H])([H])N(C(=O)N3C([H])([H])C([H])([H])C([H])([H])C([H])(n4nc(-c5c([H])c([H])c(Oc6c([H])c([H])c(F)c([H])c6F)c([H])c5[H])c(C(=O)N([H])[H])c4N([H])[H])C3([H])[H])C3([H])C([H])([H])C([H])([H])C([H])([H])C([H])([H])C3([H])[H])c2C([H])([H])C1([H])[H]

$$$$
36:0:0
     RDKit          3D

 94102  0  0  1  0  0  0  0  0999 V2000
  -29.4720  -20.5650   21.2680 C   0  0  0  0  0  3  0  0  0  0  0  0
  -28.8760  -19.7370   19.0590 C   0  0  0  0  0  0  0  0  0  0  0  0
  -30.1510  -18.2890   20.6200 C   0  0  0  0  0  0  0  0  0  0  0  0
  -28.8290  -20.7700   20.0370 C   0  0  0  0  0  0  0  0  0  0  0  0
  -30.1210  -19.3520   21.5650 C   0  0  0  0  0  0  0  0  0  0  0  0
  -29.5300  -18.5050   19.3570 C   0  0  0  0  0  0  0  0  0  0  0  0
  -28.2500  -19.9390   17.6800 C   0  0  0  0  0  1  0  0  0  0  0  0
  -30.8720  -19.2240   23.1180 Cl  0  0  0  0  0  0  0  0  0  0  0  0
  -29.5850  -17.2730   18.1370 Cl  0  0  0  0  0  0  0  0  0  0  0  0
  -26.6820  -21.8470   19.6180 C   0  0  0  0  0  1  0  0  0  0  0  0
  -28.1140  -21.9780   19.8730 N   0  0  0  0  0  0  0  0  0  0  0  0
  -28.8250  -23.1830   19.4240 C   0  0  0  0  0  2  0  0  0  0  0  0
  -28.4270  -24.4620   20.2130 C   0  0  0  0  0  2  0  0  0  0  0  0
  -28.8710  -25.7770   19.5250 C   0  0  0  0  0  2  0  0  0  0  0  0
  -28.6450  -26.9650   20.3040 O   0  0  0  0  0  0  0  0  0  0  0  0
  -24.6140  -31.9850   23.3460 C   0  0  0  0  0  0  0  0  0  0  0  0
  -27.4260  -27.6190   20.2770 C   0  0  0  0  0  0  0  0  0  0  0  0
  -23.4660  -30.5570   21.6840 C   0  0  0  0  0  3  0  0  0  0  0  0
  -24.9790  -29.0530   20.2790 C   0  0  0  0  0  0  0  0  0  0  0  0
  -25.9800  -30.9860   21.5070 C   0  0  0  0  0  2  0  0  0  0  0  0
  -26.1130  -29.6110   20.8800 C   0  0  0  0  0  0  0  0  0  0  0  0
  -27.3350  -28.8980   20.8800 C   0  0  0  0  0  3  0  0  0  0  0  0
  -26.2680  -27.0760   19.6750 C   0  0  0  0  0  3  0  0  0  0  0  0
  -25.0510  -27.7840   19.6790 C   0  0  0  0  0  3  0  0  0  0  0  0
  -23.7090  -29.8740   20.3090 C   0  0  0  0  0  2  0  0  0  0  0  0
  -24.7060  -31.1890   22.2410 N   0  0  0  0  0  0  0  0  0  0  0  0
  -23.5180  -32.2260   23.8730 O   0  0  0  0  0  0  0  0  0  0  0  0
  -22.8230  -29.5220   22.6360 C   0  0  0  0  0  0  0  0  0  0  0  0
  -21.5070  -29.3010   22.4790 N   0  0  0  0  0  0  0  0  0  0  0  0
  -23.5070  -28.9170   23.4650 O   0  0  0  0  0  0  0  0  0  0  0  0
  -21.0180  -29.8270   21.7660 H   0  0  0  0  0  0  0  0  0  0  0  0
  -18.1540  -28.0550   22.9380 C   0  0  0  0  0  0  0  0  0  0  0  0
  -20.7030  -28.3410   23.2350 C   0  0  0  0  0  3  0  0  0  0  0  0
  -20.8240  -26.9170   22.6440 C   0  0  0  0  0  2  0  0  0  0  0  0
  -19.7430  -26.6080   21.6050 C   0  0  0  0  0  2  0  0  0  0  0  0
  -18.3510  -26.7230   22.2350 C   0  0  0  0  0  2  0  0  0  0  0  0
  -19.2580  -28.8220   23.3900 C   0  0  0  0  0  0  0  0  0  0  0  0
  -19.0190  -30.0740   23.9990 C   0  0  0  0  0  3  0  0  0  0  0  0
  -17.7090  -30.5560   24.1650 C   0  0  0  0  0  3  0  0  0  0  0  0
  -16.6160  -29.7850   23.7310 C   0  0  0  0  0  3  0  0  0  0  0  0
  -16.8390  -28.5350   23.1230 C   0  0  0  0  0  3  0  0  0  0  0  0
  -25.8710  -32.6480   23.9890 C   0  0  0  0  0  3  0  0  0  0  0  0
  -25.5430  -34.0550   24.2570 N   0  0  0  0  0  0  0  0  0  0  0  0
  -25.8990  -35.0800   23.4720 C   0  0  0  0  0  0  0  0  0  0  0  0
  -26.6090  -34.9400   22.4710 O   0  0  0  0  0  0  0  0  0  0  0  0
  -24.9160  -34.2300   25.0290 H   0  0  0  0  0  0  0  0  0  0  0  0
  -24.1850  -36.8510   22.9710 C   0  0  0  0  0  1  0  0  0  0  0  0
  -25.3880  -36.4820   23.8540 C   0  0  0  0  0  3  0  0  0  0  0  0
  -27.4740  -37.4110   24.7560 C   0  0  0  0  0  1  0  0  0  0  0  0
  -26.4220  -37.5340   23.7500 N   0  0  0  0  0  0  0  0  0  0  0  0
  -26.0080  -38.4570   23.8380 H   0  0  0  0  0  0  0  0  0  0  0  0
  -26.3430  -31.9240   25.3090 C   0  0  1  0  0  0  0  0  0  0  0  0
  -25.2120  -31.7020   26.3400 C   0  0  0  0  0  1  0  0  0  0  0  0
  -26.9560  -30.5450   24.9760 C   0  0  0  0  0  1  0  0  0  0  0  0
  -27.4540  -32.7530   25.9950 C   0  0  0  0  0  1  0  0  0  0  0  0
  -30.9670  -17.0130   20.9400 C   0  0  0  0  0  2  0  0  0  0  0  0
  -30.9770  -14.6650   20.0890 C   0  0  0  0  0  0  0  0  0  0  0  0
  -30.5900  -12.5370   18.9160 C   0  0  0  0  0  2  0  0  0  0  0  0
  -29.6230  -12.7780   17.7420 C   0  0  0  0  0  2  0  0  0  0  0  0
  -28.1650  -12.6300   18.2180 C   0  0  0  0  0  2  0  0  0  0  0  0
  -27.8690  -13.4580   19.4980 C   0  0  0  0  0  3  0  0  0  0  0  0
  -28.9560  -13.2360   20.5730 C   0  0  0  0  0  2  0  0  0  0  0  0
  -30.2640  -13.5170   19.9630 N   0  0  0  0  0  0  0  0  0  0  0  0
  -32.0920  -14.8130   19.5800 O   0  0  0  0  0  0  0  0  0  0  0  0
  -30.3560  -15.6920   20.7010 N   0  0  0  0  0  0  0  0  0  0  0  0
  -29.4310  -15.5250   21.0660 H   0  0  0  0  0  0  0  0  0  0  0  0
  -25.4970  -14.0600   20.2940 C   0  0  0  0  0  0  0  0  0  0  0  0
  -24.4450  -13.2860   20.6970 C   0  0  0  0  0  0  0  0  0  0  0  0
  -24.9050  -11.9340   20.6470 C   0  0  0  0  0  0  0  0  0  0  0  0
  -26.5330  -13.1800   20.0220 N   0  0  0  0  0  0  0  0  0  0  0  0
  -26.1840  -11.8980   20.2930 N   0  0  0  0  0  0  0  0  0  0  0  0
  -24.1900  -10.6700   20.8600 C   0  0  0  0  0  0  0  0  0  0  0  0
  -24.6150   -9.7340   21.8280 C   0  0  0  0  0  3  0  0  0  0  0  0
  -23.8990   -8.5340   22.0270 C   0  0  0  0  0  3  0  0  0  0  0  0
  -22.7440   -8.2610   21.2560 C   0  0  0  0  0  0  0  0  0  0  0  0
  -22.3370   -9.1870   20.2780 C   0  0  0  0  0  3  0  0  0  0  0  0
  -23.0540  -10.3780   20.0790 C   0  0  0  0  0  3  0  0  0  0  0  0
  -22.0010   -7.1100   21.3610 O   0  0  0  0  0  0  0  0  0  0  0  0
  -21.8950   -6.4270   22.5450 C   0  0  0  0  0  0  0  0  0  0  0  0
  -21.3430   -7.0220   23.7010 C   0  0  0  0  0  3  0  0  0  0  0  0
  -21.1880   -6.2610   24.8780 C   0  0  0  0  0  3  0  0  0  0  0  0
  -21.5750   -4.9080   24.8980 C   0  0  0  0  0  0  0  0  0  0  0  0
  -22.1190   -4.3130   23.7470 C   0  0  0  0  0  3  0  0  0  0  0  0
  -22.2760   -5.0700   22.5720 C   0  0  0  0  0  0  0  0  0  0  0  0
  -22.7820   -4.4870   21.4590 F   0  0  0  0  0  0  0  0  0  0  0  0
  -21.4180   -4.1750   26.0260 F   0  0  0  0  0  0  0  0  0  0  0  0
  -23.0560  -13.7600   21.0180 C   0  0  0  0  0  0  0  0  0  0  0  0
  -22.3580  -13.0620   21.9060 N   0  0  0  0  0  0  0  0  0  0  0  0
  -22.5980  -14.7850   20.5140 O   0  0  0  0  0  0  0  0  0  0  0  0
  -22.7400  -12.2330   22.3360 H   0  0  0  0  0  0  0  0  0  0  0  0
  -21.4270  -13.3620   22.1610 H   0  0  0  0  0  0  0  0  0  0  0  0
  -25.6550  -15.4310   20.1180 N   0  0  0  0  0  0  0  0  0  0  0  0
  -24.8930  -16.0840   20.2630 H   0  0  0  0  0  0  0  0  0  0  0  0
  -26.4900  -15.8700   19.7510 H   0  0  0  0  0  0  0  0  0  0  0  0
  1  5  1  0
  2  6  2  0
  2  4  1  0
  3 56  1  0
  3  5  2  0
  4  1  2  0
  5  8  1  0
  6  3  1  0
  7  2  1  0
  9  6  1  0
 10 11  1  0
 11  4  1  0
 12 11  1  0
 12 13  1  0
 14 13  1  0
 14 15  1  0
 16 27  2  0
 17 15  1  0
 17 22  1  0
 18 26  1  0
 18 28  1  0
 19 25  1  0
 19 21  1  0
 20 26  1  0
 21 20  1  0
 22 21  2  0
 23 24  1  0
 23 17  2  0
 24 19  2  0
 25 18  1  0
 26 16  1  0
 28 30  2  0
 29 28  1  0
 31 29  1  0
 32 41  2  0
 32 37  1  0
 33 29  1  0
 33 37  1  0
 34 33  1  0
 35 36  1  0
 35 34  1  0
 36 32  1  0
 37 38  2  0
 38 39  1  0
 40 39  2  0
 41 40  1  0
 42 16  1  0
 42 43  1  0
 42 52  1  0
 43 46  1  0
 44 48  1  0
 44 43  1  0
 45 44  2  0
 48 47  1  0
 50 51  1  0
 50 48  1  0
 50 49  1  0
 52 55  1  1
 52 53  1  0
 54 52  1  0
 57 65  1  0
 58 63  1  0
 59 60  1  0
 59 58  1  0
 61 60  1  0
 61 70  1  0
 61 62  1  0
 63 57  1  0
 63 62  1  0
 64 57  2  0
 65 56  1  0
 65 66  1  0
 67 68  2  0
 68 87  1  0
 69 68  1  0
 69 72  1  0
 70 71  1  0
 70 67  1  0
 71 69  2  0
 72 73  1  0
 73 74  2  0
 75 78  1  0
 75 74  1  0
 76 75  2  0
 77 76  1  0
 77 72  2  0
 78 79  1  0
 79 84  2  0
 79 80  1  0
 80 81  2  0
 81 82  1  0
 82 86  1  0
 83 82  2  0
 84 83  1  0
 85 84  1  0
 87 88  1  0
 88 91  1  0
 88 90  1  0
 89 87  2  0
 92 93  1  0
 92 67  1  0
 94 92  1  0
M  ISO  4  14 101  15 101  57 100  65 100
M  END
>  <TORSDO>  (37) 
F 21

>  <SCORE>  (37) 
-12.650

>  <name>  (37) 
36

>  <ligand_id>  (37) 
36

>  <original_smiles>  (37) 
[H]c1c([H])c([H])c2c(c1[H])C([H])([H])C([H])([H])C([H])([H])C2([H])N([H])C(=O)C1([H])N(C(=O)C([H])(N([H])C(=O)C([H])(N([H])C([H])([H])[H])C([H])([H])[H])C(C([H])([H])[H])(C([H])([H])[H])C([H])([H])[H])C([H])([H])c2c([H])c(OC([H])([H])C([H])([H])C([H])([H])N(c3c([H])c(Cl)c(C([H])([H])N([H])C(=O)N4C([H])([H])C([H])([H])C([H])([H])C([H])(n5nc(-c6c([H])c([H])c(Oc7c([H])c([H])c(F)c([H])c7F)c([H])c6[H])c(C(=O)N([H])[H])c5N([H])[H])C4([H])[H])c(Cl)c3C([H])([H])[H])C([H])([H])[H])c([H])c([H])c2C1([H])[H]

>  <smiles>  (37) 
[H]c1c([H])c([H])c2c(c1[H])C([H])([H])C([H])([H])C([H])([H])C2([H])N([H])C(=O)C1([H])N(C(=O)C([H])(N([H])C(=O)C([H])(N([H])C([H])([H])[H])C([H])([H])[H])C(C([H])([H])[H])(C([H])([H])[H])C([H])([H])[H])C([H])([H])c2c([H])c(OC([H])([H])C([H])([H])C([H])([H])N(c3c([H])c(Cl)c(C([H])([H])N([H])C(=O)N4C([H])([H])C([H])([H])C([H])([H])C([H])(n5nc(-c6c([H])c([H])c(Oc7c([H])c([H])c(F)c([H])c7F)c([H])c6[H])c(C(=O)N([H])[H])c5N([H])[H])C4([H])[H])c(Cl)c3C([H])([H])[H])C([H])([H])[H])c([H])c([H])c2C1([H])[H]

$$$$
37:0:0
     RDKit          3D

104113  0  0  1  0  0  0  0  0999 V2000
  -33.7860  -20.7310   21.2580 C   0  0  0  0  0  2  0  0  0  0  0  0
  -31.8700  -22.1000   20.0770 C   0  0  0  0  0  2  0  0  0  0  0  0
  -33.6410  -19.6860   20.1360 C   0  0  0  0  0  2  0  0  0  0  0  0
  -31.7760  -20.9430   19.0540 C   0  0  0  0  0  2  0  0  0  0  0  0
  -33.1410  -22.1180   20.9780 C   0  0  0  0  0  3  0  0  0  0  0  0
  -32.1910  -19.5810   19.6550 C   0  0  0  0  0  3  0  0  0  0  0  0
  -28.4890  -18.6820   18.1910 C   0  0  0  0  0  3  0  0  0  0  0  0
  -30.7320  -18.2560   16.6480 C   0  0  0  0  0  0  0  0  0  0  0  0
  -28.3600  -18.8230   16.8040 C   0  0  0  0  0  0  0  0  0  0  0  0
  -29.5190  -18.6490   16.0200 C   0  0  0  0  0  0  0  0  0  0  0  0
  -30.7830  -18.3720   18.0560 C   0  0  0  0  0  0  0  0  0  0  0  0
  -29.6780  -18.5300   18.8100 N   0  0  0  0  0  0  0  0  0  0  0  0
  -32.0070  -18.4450   18.7330 N   0  0  0  0  0  0  0  0  0  0  0  0
  -26.8300  -19.2330   16.1020 Cl  0  0  0  0  0  0  0  0  0  0  0  0
  -29.4510  -19.0730   14.3430 Cl  0  0  0  0  0  0  0  0  0  0  0  0
  -32.8150  -18.1490   18.1970 H   0  0  0  0  0  0  0  0  0  0  0  0
  -32.2670  -16.5670   15.8220 C   0  0  0  0  0  0  0  0  0  0  0  0
  -32.9060  -14.8000   14.2070 C   0  0  0  0  0  2  0  0  0  0  0  0
  -34.0850  -15.3110   13.3500 C   0  0  0  0  0  2  0  0  0  0  0  0
  -33.5950  -16.1630   12.1620 C   0  0  0  0  0  2  0  0  0  0  0  0
  -32.5560  -17.2340   12.5860 C   0  0  0  0  0  3  0  0  0  0  0  0
  -31.4600  -16.5610   13.4320 C   0  0  0  0  0  2  0  0  0  0  0  0
  -32.1060  -15.9680   14.6120 N   0  0  0  0  0  0  0  0  0  0  0  0
  -32.8790  -16.0330   16.7520 O   0  0  0  0  0  0  0  0  0  0  0  0
  -31.8950  -17.8640   15.9100 N   0  0  0  0  0  0  0  0  0  0  0  0
  -32.6920  -18.4120   16.2080 H   0  0  0  0  0  0  0  0  0  0  0  0
  -32.0090  -19.2750   11.1170 C   0  0  0  0  0  0  0  0  0  0  0  0
  -31.4150  -19.3820    9.8890 C   0  0  0  0  0  0  0  0  0  0  0  0
  -31.0750  -18.0520    9.5000 C   0  0  0  0  0  0  0  0  0  0  0  0
  -32.0000  -17.9230   11.4270 N   0  0  0  0  0  0  0  0  0  0  0  0
  -31.3920  -17.1940   10.4610 N   0  0  0  0  0  0  0  0  0  0  0  0
  -30.5180  -17.5370    8.2430 C   0  0  0  0  0  0  0  0  0  0  0  0
  -29.3740  -16.7070    8.2260 C   0  0  0  0  0  3  0  0  0  0  0  0
  -28.8510  -16.2380    7.0020 C   0  0  0  0  0  3  0  0  0  0  0  0
  -29.4680  -16.5990    5.7810 C   0  0  0  0  0  0  0  0  0  0  0  0
  -30.6170  -17.4040    5.8070 C   0  0  0  0  0  3  0  0  0  0  0  0
  -31.1410  -17.8650    7.0240 C   0  0  0  0  0  3  0  0  0  0  0  0
  -29.0480  -16.1670    4.5470 O   0  0  0  0  0  0  0  0  0  0  0  0
  -27.7380  -15.8350    4.3120 C   0  0  0  0  0  0  0  0  0  0  0  0
  -26.6830  -16.7430    4.5530 C   0  0  0  0  0  3  0  0  0  0  0  0
  -25.3590  -16.3810    4.2340 C   0  0  0  0  0  3  0  0  0  0  0  0
  -25.0870  -15.1200    3.6710 C   0  0  0  0  0  0  0  0  0  0  0  0
  -26.1360  -14.2190    3.4260 C   0  0  0  0  0  3  0  0  0  0  0  0
  -27.4580  -14.5760    3.7470 C   0  0  0  0  0  0  0  0  0  0  0  0
  -28.4690  -13.7120    3.4910 F   0  0  0  0  0  0  0  0  0  0  0  0
  -23.8160  -14.7770    3.3570 F   0  0  0  0  0  0  0  0  0  0  0  0
  -31.2460  -20.6360    9.0840 C   0  0  0  0  0  0  0  0  0  0  0  0
  -30.1800  -20.7070    8.2870 N   0  0  0  0  0  0  0  0  0  0  0  0
  -32.0260  -21.5800    9.1910 O   0  0  0  0  0  0  0  0  0  0  0  0
  -29.5310  -19.9390    8.2220 H   0  0  0  0  0  0  0  0  0  0  0  0
  -30.0120  -21.5390    7.7400 H   0  0  0  0  0  0  0  0  0  0  0  0
  -32.5690  -20.2100   11.9800 N   0  0  0  0  0  0  0  0  0  0  0  0
  -32.6320  -21.1950   11.7450 H   0  0  0  0  0  0  0  0  0  0  0  0
  -32.9600  -19.9860   12.8880 H   0  0  0  0  0  0  0  0  0  0  0  0
  -34.1400  -23.3070   20.8400 C   0  0  0  0  0  2  0  0  0  0  0  0
  -34.7060  -23.5360   19.4910 N   0  0  0  0  0  4  0  0  0  0  0  0
  -35.0270  -22.6670   19.0950 H   0  0  0  0  0  0  0  0  0  0  0  0
  -35.5260  -24.1080   19.6230 H   0  0  0  0  0  0  0  0  0  0  0  0
  -33.8590  -24.2960   18.5360 C   0  0  0  0  0  2  0  0  0  0  0  0
  -34.5850  -25.5710   18.0290 C   0  0  0  0  0  2  0  0  0  0  0  0
  -34.0150  -26.8900   18.5830 C   0  0  0  0  0  2  0  0  0  0  0  0
  -34.4740  -27.2370   20.0190 C   0  0  0  0  0  2  0  0  0  0  0  0
  -33.4590  -28.1040   20.7820 C   0  0  0  0  0  2  0  0  0  0  0  0
  -32.3500  -27.2670   21.0280 O   0  0  0  0  0  0  0  0  0  0  0  0
  -27.8560  -30.6540   25.3500 C   0  0  0  0  0  0  0  0  0  0  0  0
  -31.1360  -27.8720   21.1840 C   0  0  0  0  0  0  0  0  0  0  0  0
  -26.8800  -29.7100   23.2740 C   0  0  0  0  0  3  0  0  0  0  0  0
  -28.5540  -28.9360   21.5200 C   0  0  0  0  0  0  0  0  0  0  0  0
  -29.3200  -30.4680   23.3440 C   0  0  0  0  0  2  0  0  0  0  0  0
  -29.6140  -29.4100   22.3040 C   0  0  0  0  0  0  0  0  0  0  0  0
  -30.9120  -28.8900   22.1350 C   0  0  0  0  0  3  0  0  0  0  0  0
  -30.0630  -27.3910   20.4080 C   0  0  0  0  0  3  0  0  0  0  0  0
  -28.7740  -27.9260   20.5680 C   0  0  0  0  0  3  0  0  0  0  0  0
  -27.1930  -29.5410   21.7640 C   0  0  0  0  0  2  0  0  0  0  0  0
  -28.0330  -30.2710   24.0530 N   0  0  0  0  0  0  0  0  0  0  0  0
  -26.7410  -30.5900   25.8840 O   0  0  0  0  0  0  0  0  0  0  0  0
  -26.3650  -28.3610   23.8210 C   0  0  0  0  0  0  0  0  0  0  0  0
  -25.2530  -27.8710   23.2510 N   0  0  0  0  0  0  0  0  0  0  0  0
  -26.9790  -27.7660   24.7090 O   0  0  0  0  0  0  0  0  0  0  0  0
  -24.8180  -28.4200   22.5210 H   0  0  0  0  0  0  0  0  0  0  0  0
  -22.7330  -25.5200   22.1740 C   0  0  0  0  0  0  0  0  0  0  0  0
  -24.6150  -26.5970   23.5760 C   0  0  0  0  0  3  0  0  0  0  0  0
  -25.4950  -25.4060   23.1300 C   0  0  0  0  0  2  0  0  0  0  0  0
  -25.1480  -24.8910   21.7290 C   0  0  0  0  0  2  0  0  0  0  0  0
  -23.6820  -24.4460   21.6700 C   0  0  0  0  0  2  0  0  0  0  0  0
  -23.1760  -26.5400   23.0560 C   0  0  0  0  0  0  0  0  0  0  0  0
  -22.2630  -27.5330   23.4690 C   0  0  0  0  0  3  0  0  0  0  0  0
  -20.9320  -27.5210   23.0160 C   0  0  0  0  0  3  0  0  0  0  0  0
  -20.4910  -26.5000   22.1570 C   0  0  0  0  0  3  0  0  0  0  0  0
  -21.3880  -25.5010   21.7420 C   0  0  0  0  0  3  0  0  0  0  0  0
  -29.0350  -31.2100   26.2120 C   0  0  0  0  0  3  0  0  0  0  0  0
  -28.5970  -32.4880   26.7910 N   0  0  0  0  0  0  0  0  0  0  0  0
  -29.0220  -33.6930   26.3880 C   0  0  0  0  0  0  0  0  0  0  0  0
  -29.9020  -33.8380   25.5330 O   0  0  0  0  0  0  0  0  0  0  0  0
  -27.8550  -32.4430   27.4730 H   0  0  0  0  0  0  0  0  0  0  0  0
  -27.3960  -35.5800   26.0500 C   0  0  0  0  0  1  0  0  0  0  0  0
  -28.3800  -34.9330   27.0380 C   0  0  0  0  0  3  0  0  0  0  0  0
  -30.1790  -35.4880   28.6160 C   0  0  0  0  0  1  0  0  0  0  0  0
  -29.3670  -35.9370   27.4900 N   0  0  0  0  0  0  0  0  0  0  0  0
  -28.9080  -36.8050   27.7500 H   0  0  0  0  0  0  0  0  0  0  0  0
  -29.5010  -30.2110   27.3460 C   0  0  1  0  0  0  0  0  0  0  0  0
  -28.3390  -29.6870   28.2290 C   0  0  0  0  0  1  0  0  0  0  0  0
  -30.2150  -28.9830   26.7320 C   0  0  0  0  0  1  0  0  0  0  0  0
  -30.5360  -30.9080   28.2580 C   0  0  0  0  0  1  0  0  0  0  0  0
  2  5  1  0
  3  1  1  0
  4  6  1  0
  4  2  1  0
  5 55  1  0
  5  1  1  0
  6 13  1  0
  6  3  1  0
  7 12  1  0
  8 11  1  0
  9  7  2  0
 10  8  2  0
 10  9  1  0
 11 13  1  0
 11 12  2  0
 14  9  1  0
 15 10  1  0
 16 13  1  0
 17 25  1  0
 17 24  2  0
 18 23  1  0
 19 18  1  0
 20 21  1  0
 20 19  1  0
 21 30  1  0
 21 22  1  0
 22 23  1  0
 23 17  1  0
 25 26  1  0
 25  8  1  0
 27 30  1  0
 27 52  1  0
 28 27  2  0
 29 28  1  0
 29 31  2  0
 31 30  1  0
 32 29  1  0
 33 32  1  0
 34 33  2  0
 35 36  2  0
 35 34  1  0
 36 37  1  0
 37 32  2  0
 38 35  1  0
 39 38  1  0
 39 40  1  0
 41 40  2  0
 42 41  1  0
 43 42  2  0
 43 44  1  0
 44 39  2  0
 45 44  1  0
 46 42  1  0
 47 49  2  0
 47 28  1  0
 48 47  1  0
 50 48  1  0
 51 48  1  0
 52 54  1  0
 53 52  1  0
 56 58  1  0
 56 55  1  0
 57 56  1  0
 59 56  1  0
 60 59  1  0
 60 61  1  0
 61 62  1  0
 62 63  1  0
 63 64  1  0
 64 66  1  0
 65 76  2  0
 66 71  1  0
 67 77  1  0
 67 75  1  0
 68 74  1  0
 68 70  1  0
 69 75  1  0
 70 69  1  0
 71 70  2  0
 72 73  1  0
 72 66  2  0
 73 68  2  0
 74 67  1  0
 75 65  1  0
 77 79  2  0
 78 77  1  0
 80 78  1  0
 81 86  1  0
 82 78  1  0
 83 82  1  0
 84 83  1  0
 85 84  1  0
 85 81  1  0
 86 87  2  0
 86 82  1  0
 88 87  1  0
 89 88  2  0
 90 89  1  0
 90 81  2  0
 91 65  1  0
 91 92  1  0
 91101  1  0
 92 95  1  0
 93 92  1  0
 93 97  1  0
 94 93  2  0
 97 96  1  0
 97 99  1  0
 99100  1  0
 99 98  1  0
101102  1  1
101104  1  0
103101  1  0
M  ISO  4  17 100  25 100  63 101  64 101
M  END
>  <TORSDO>  (38) 
F 24

>  <SCORE>  (38) 
-3.908

>  <name>  (38) 
37

>  <ligand_id>  (38) 
37

>  <original_smiles>  (38) 
[H]c1nc(N([H])C2([H])C([H])([H])C([H])([H])C([H])(C([H])([H])[N+]([H])([H])C([H])([H])C([H])([H])C([H])([H])C([H])([H])C([H])([H])Oc3c([H])c([H])c4c(c3[H])C([H])([H])N(C(=O)C([H])(N([H])C(=O)C([H])(N([H])C([H])([H])[H])C([H])([H])[H])C(C([H])([H])[H])(C([H])([H])[H])C([H])([H])[H])C([H])(C(=O)N([H])C3([H])c5c([H])c([H])c([H])c([H])c5C([H])([H])C([H])([H])C3([H])[H])C4([H])[H])C([H])([H])C2([H])[H])c(N([H])C(=O)N2C([H])([H])C([H])([H])C([H])([H])C([H])(n3nc(-c4c([H])c([H])c(Oc5c([H])c([H])c(F)c([H])c5F)c([H])c4[H])c(C(=O)N([H])[H])c3N([H])[H])C2([H])[H])c(Cl)c1Cl

>  <smiles>  (38) 
[H]c1nc(N([H])C2([H])C([H])([H])C([H])([H])C([H])(C([H])([H])[N+]([H])([H])C([H])([H])C([H])([H])C([H])([H])C([H])([H])C([H])([H])Oc3c([H])c([H])c4c(c3[H])C([H])([H])N(C(=O)C([H])(N([H])C(=O)C([H])(N([H])C([H])([H])[H])C([H])([H])[H])C(C([H])([H])[H])(C([H])([H])[H])C([H])([H])[H])C([H])(C(=O)N([H])C3([H])c5c([H])c([H])c([H])c([H])c5C([H])([H])C([H])([H])C3([H])[H])C4([H])[H])C([H])([H])C2([H])[H])c(N([H])C(=O)N2C([H])([H])C([H])([H])C([H])([H])C([H])(n3nc(-c4c([H])c([H])c(Oc5c([H])c([H])c(F)c([H])c5F)c([H])c4[H])c(C(=O)N([H])[H])c3N([H])[H])C2([H])[H])c(Cl)c1Cl

$$$$
38:0:0
     RDKit          3D

 92100  0  0  1  0  0  0  0  0999 V2000
  -29.4490  -20.4040   20.5720 C   0  0  0  0  0  0  0  0  0  0  0  0
  -31.4520  -19.4290   21.7000 C   0  0  0  0  0  0  0  0  0  0  0  0
  -29.9010  -17.7630   20.6740 C   0  0  0  0  0  0  0  0  0  0  0  0
  -29.1120  -18.9740   20.2890 C   0  0  0  0  0  0  0  0  0  0  0  0
  -30.6860  -20.5470   21.2590 C   0  0  0  0  0  0  0  0  0  0  0  0
  -31.0450  -18.0780   21.4660 C   0  0  0  0  0  0  0  0  0  0  0  0
  -32.7310  -19.7260   22.5020 C   0  0  0  0  0  1  0  0  0  0  0  0
  -27.9550  -18.7480   19.6240 F   0  0  0  0  0  0  0  0  0  0  0  0
  -31.2940  -22.1180   21.6580 Cl  0  0  0  0  0  0  0  0  0  0  0  0
  -31.9040  -16.8220   22.3000 Cl  0  0  0  0  0  0  0  0  0  0  0  0
  -30.2400  -15.1030   20.0230 C   0  0  0  0  0  0  0  0  0  0  0  0
  -30.0370  -12.8090   18.9300 C   0  0  0  0  0  2  0  0  0  0  0  0
  -29.0140  -12.8220   17.7700 C   0  0  0  0  0  2  0  0  0  0  0  0
  -27.5890  -12.5580   18.2960 C   0  0  0  0  0  2  0  0  0  0  0  0
  -27.2670  -13.3930   19.5660 C   0  0  0  0  0  3  0  0  0  0  0  0
  -28.4130  -13.3710   20.5980 C   0  0  0  0  0  2  0  0  0  0  0  0
  -29.6260  -13.8500   19.9220 N   0  0  0  0  0  0  0  0  0  0  0  0
  -31.3870  -15.1820   19.5680 O   0  0  0  0  0  0  0  0  0  0  0  0
  -29.5260  -16.2780   20.4170 N   0  0  0  0  0  0  0  0  0  0  0  0
  -28.5490  -16.0880   20.5830 H   0  0  0  0  0  0  0  0  0  0  0  0
  -24.9440  -13.8700   20.5280 C   0  0  0  0  0  0  0  0  0  0  0  0
  -23.9330  -13.0520   20.9430 C   0  0  0  0  0  0  0  0  0  0  0  0
  -24.4190  -11.7180   20.8080 C   0  0  0  0  0  0  0  0  0  0  0  0
  -25.9830  -13.0340   20.1570 N   0  0  0  0  0  0  0  0  0  0  0  0
  -25.6820  -11.7290   20.3930 N   0  0  0  0  0  0  0  0  0  0  0  0
  -23.7320  -10.4310   20.9990 C   0  0  0  0  0  0  0  0  0  0  0  0
  -24.2150   -9.4680   21.9110 C   0  0  0  0  0  3  0  0  0  0  0  0
  -23.5300   -8.2480   22.0970 C   0  0  0  0  0  3  0  0  0  0  0  0
  -22.3470   -7.9820   21.3700 C   0  0  0  0  0  0  0  0  0  0  0  0
  -21.8780   -8.9350   20.4480 C   0  0  0  0  0  3  0  0  0  0  0  0
  -22.5640  -10.1470   20.2630 C   0  0  0  0  0  3  0  0  0  0  0  0
  -21.6270   -6.8160   21.4650 O   0  0  0  0  0  0  0  0  0  0  0  0
  -21.5920   -6.0810   22.6220 C   0  0  0  0  0  0  0  0  0  0  0  0
  -21.1070   -6.6230   23.8310 C   0  0  0  0  0  3  0  0  0  0  0  0
  -21.0250   -5.8120   24.9810 C   0  0  0  0  0  3  0  0  0  0  0  0
  -21.4150   -4.4590   24.9200 C   0  0  0  0  0  0  0  0  0  0  0  0
  -21.8930   -3.9180   23.7150 C   0  0  0  0  0  3  0  0  0  0  0  0
  -21.9770   -4.7260   22.5680 C   0  0  0  0  0  0  0  0  0  0  0  0
  -22.4160   -4.1960   21.4010 F   0  0  0  0  0  0  0  0  0  0  0  0
  -21.3310   -3.6770   26.0210 F   0  0  0  0  0  0  0  0  0  0  0  0
  -22.5530  -13.4860   21.3460 C   0  0  0  0  0  0  0  0  0  0  0  0
  -21.9130  -12.7420   22.2400 N   0  0  0  0  0  0  0  0  0  0  0  0
  -22.0550  -14.5180   20.8990 O   0  0  0  0  0  0  0  0  0  0  0  0
  -22.3250  -11.9070   22.6270 H   0  0  0  0  0  0  0  0  0  0  0  0
  -20.9860  -13.0090   22.5380 H   0  0  0  0  0  0  0  0  0  0  0  0
  -25.0610  -15.2540   20.4130 N   0  0  0  0  0  0  0  0  0  0  0  0
  -24.2870  -15.8670   20.6500 H   0  0  0  0  0  0  0  0  0  0  0  0
  -25.8710  -15.7510   20.0690 H   0  0  0  0  0  0  0  0  0  0  0  0
  -28.5350  -21.7490   20.1510 C   0  0  0  0  0  2  0  0  0  0  0  0
  -28.7940  -23.4170   20.4530 C   0  0  0  0  0  3  0  0  0  0  0  0
  -27.8430  -24.7350   19.9480 C   0  0  0  0  0  3  0  0  0  0  0  0
  -28.0670  -26.2650   20.2010 O   0  0  0  0  0  0  0  0  0  0  0  0
  -24.5500  -31.9890   23.2240 C   0  0  0  0  0  0  0  0  0  0  0  0
  -27.0130  -27.2540   20.1310 C   0  0  0  0  0  0  0  0  0  0  0  0
  -23.2980  -30.6080   21.6110 C   0  0  0  0  0  3  0  0  0  0  0  0
  -24.7000  -29.0270   20.1440 C   0  0  0  0  0  0  0  0  0  0  0  0
  -25.8500  -30.8500   21.3900 C   0  0  0  0  0  2  0  0  0  0  0  0
  -25.8960  -29.4610   20.7290 C   0  0  0  0  0  0  0  0  0  0  0  0
  -27.0530  -28.5930   20.7000 C   0  0  0  0  0  3  0  0  0  0  0  0
  -25.7940  -26.9270   19.4980 C   0  0  0  0  0  3  0  0  0  0  0  0
  -24.6630  -27.7750   19.5090 C   0  0  0  0  0  3  0  0  0  0  0  0
  -23.4810  -29.9320   20.2250 C   0  0  0  0  0  2  0  0  0  0  0  0
  -24.5870  -31.1700   22.1300 N   0  0  0  0  0  0  0  0  0  0  0  0
  -23.4790  -32.2810   23.7800 O   0  0  0  0  0  0  0  0  0  0  0  0
  -22.6320  -29.6060   22.5850 C   0  0  0  0  0  0  0  0  0  0  0  0
  -21.3060  -29.4180   22.4650 N   0  0  0  0  0  0  0  0  0  0  0  0
  -23.3120  -28.9970   23.4160 O   0  0  0  0  0  0  0  0  0  0  0  0
  -20.8130  -29.9560   21.7650 H   0  0  0  0  0  0  0  0  0  0  0  0
  -17.9420  -28.1740   22.9800 C   0  0  0  0  0  0  0  0  0  0  0  0
  -20.4960  -28.4840   23.2500 C   0  0  0  0  0  3  0  0  0  0  0  0
  -20.6220  -27.0430   22.7030 C   0  0  0  0  0  2  0  0  0  0  0  0
  -19.5290  -26.6830   21.6920 C   0  0  0  0  0  2  0  0  0  0  0  0
  -18.1420  -26.8170   22.3270 C   0  0  0  0  0  2  0  0  0  0  0  0
  -19.0450  -28.9640   23.3980 C   0  0  0  0  0  0  0  0  0  0  0  0
  -18.7980  -30.2310   23.9690 C   0  0  0  0  0  3  0  0  0  0  0  0
  -17.4830  -30.7100   24.1230 C   0  0  0  0  0  3  0  0  0  0  0  0
  -16.3950  -29.9170   23.7190 C   0  0  0  0  0  3  0  0  0  0  0  0
  -16.6250  -28.6510   23.1530 C   0  0  0  0  0  3  0  0  0  0  0  0
  -25.8480  -32.6100   23.8250 C   0  0  0  0  0  3  0  0  0  0  0  0
  -26.3740  -31.8410   25.1000 C   0  0  1  0  0  0  0  0  0  0  0  0
  -25.2890  -31.6130   26.1790 C   0  0  0  0  0  1  0  0  0  0  0  0
  -26.9470  -30.4590   24.7120 C   0  0  0  0  0  1  0  0  0  0  0  0
  -27.5390  -32.6310   25.7450 C   0  0  0  0  0  1  0  0  0  0  0  0
  -25.5630  -34.0150   24.1550 N   0  0  0  0  0  0  0  0  0  0  0  0
  -25.8710  -35.0630   23.3770 C   0  0  0  0  0  0  0  0  0  0  0  0
  -26.4890  -34.9460   22.3160 O   0  0  0  0  0  0  0  0  0  0  0  0
  -25.0110  -34.1820   24.9830 H   0  0  0  0  0  0  0  0  0  0  0  0
  -24.1320  -36.8620   23.1100 C   0  0  0  0  0  1  0  0  0  0  0  0
  -25.4180  -36.4590   23.8480 C   0  0  0  0  0  3  0  0  0  0  0  0
  -27.6010  -37.3440   24.5450 C   0  0  0  0  0  1  0  0  0  0  0  0
  -26.4450  -37.5070   23.6650 N   0  0  0  0  0  0  0  0  0  0  0  0
  -26.0540  -38.4310   23.8270 H   0  0  0  0  0  0  0  0  0  0  0  0
  1  5  1  0
  2  7  1  0
  3  6  2  0
  4  1  2  0
  4  3  1  0
  5  9  1  0
  5  2  2  0
  6  2  1  0
  6 10  1  0
  8  4  1  0
 11 19  1  0
 12 17  1  0
 13 14  1  0
 13 12  1  0
 15 14  1  0
 15 24  1  0
 15 16  1  0
 17 11  1  0
 17 16  1  0
 18 11  2  0
 19 20  1  0
 19  3  1  0
 21 22  2  0
 22 41  1  0
 23 22  1  0
 23 26  1  0
 24 25  1  0
 24 21  1  0
 25 23  2  0
 26 27  1  0
 27 28  2  0
 29 32  1  0
 29 28  1  0
 30 29  2  0
 31 30  1  0
 31 26  2  0
 32 33  1  0
 33 34  1  0
 34 35  2  0
 36 35  1  0
 36 40  1  0
 37 36  2  0
 38 33  2  0
 38 37  1  0
 39 38  1  0
 41 42  1  0
 42 45  1  0
 42 44  1  0
 43 41  2  0
 46 21  1  0
 46 47  1  0
 48 46  1  0
 49 50  1  0
 49  1  1  0
 51 52  1  0
 51 50  2  0
 53 64  2  0
 54 52  1  0
 54 59  1  0
 55 63  1  0
 55 65  1  0
 56 62  1  0
 56 58  1  0
 57 63  1  0
 58 57  1  0
 59 58  2  0
 60 61  1  0
 60 54  2  0
 61 56  2  0
 62 55  1  0
 63 53  1  0
 65 67  2  0
 66 65  1  0
 68 66  1  0
 69 78  2  0
 69 74  1  0
 70 66  1  0
 70 74  1  0
 71 70  1  0
 72 73  1  0
 72 71  1  0
 73 69  1  0
 74 75  2  0
 75 76  1  0
 77 76  2  0
 78 77  1  0
 79 53  1  0
 79 84  1  0
 79 80  1  0
 80 83  1  1
 80 81  1  0
 82 80  1  0
 84 87  1  0
 85 89  1  0
 85 84  1  0
 86 85  2  0
 89 88  1  0
 91 92  1  0
 91 89  1  0
 91 90  1  0
M  ISO  4  11 100  19 100  51 101  52 101
M  END
>  <TORSDO>  (39) 
F 19

>  <SCORE>  (39) 
-14.381

>  <name>  (39) 
38

>  <ligand_id>  (39) 
38

>  <original_smiles>  (39) 
[H]c1c([H])c([H])c2c(c1[H])C([H])([H])C([H])([H])C([H])([H])C2([H])N([H])C(=O)C1([H])N(C(=O)C([H])(N([H])C(=O)C([H])(N([H])C([H])([H])[H])C([H])([H])[H])C(C([H])([H])[H])(C([H])([H])[H])C([H])([H])[H])C([H])([H])c2c([H])c(OC([H])([H])C([H])([H])C([H])([H])c3c(F)c(N([H])C(=O)N4C([H])([H])C([H])([H])C([H])([H])C([H])(n5nc(-c6c([H])c([H])c(Oc7c([H])c([H])c(F)c([H])c7F)c([H])c6[H])c(C(=O)N([H])[H])c5N([H])[H])C4([H])[H])c(Cl)c(C([H])([H])[H])c3Cl)c([H])c([H])c2C1([H])[H]

>  <smiles>  (39) 
[H]c1c([H])c([H])c2c(c1[H])C([H])([H])C([H])([H])C([H])([H])C2([H])N([H])C(=O)C1([H])N(C(=O)C([H])(N([H])C(=O)C([H])(N([H])C([H])([H])[H])C([H])([H])[H])C(C([H])([H])[H])(C([H])([H])[H])C([H])([H])[H])C([H])([H])c2c([H])c(OC([H])([H])C([H])([H])C([H])([H])c3c(F)c(N([H])C(=O)N4C([H])([H])C([H])([H])C([H])([H])C([H])(n5nc(-c6c([H])c([H])c(Oc7c([H])c([H])c(F)c([H])c7F)c([H])c6[H])c(C(=O)N([H])[H])c5N([H])[H])C4([H])[H])c(Cl)c(C([H])([H])[H])c3Cl)c([H])c([H])c2C1([H])[H]

$$$$
39:0:0
     RDKit          3D

 99107  0  0  1  0  0  0  0  0999 V2000
  -28.2490  -22.0360   21.2250 C   0  0  0  0  0  1  0  0  0  0  0  0
  -28.1090  -21.2670   18.8540 C   0  0  0  0  0  1  0  0  0  0  0  0
  -28.3440  -22.4970   19.7530 C   0  0  1  0  0  0  0  0  0  0  0  0
  -27.2420  -23.4480   19.4390 N   0  0  0  0  0  4  0  0  0  0  0  0
  -26.8490  -23.1820   18.5490 H   0  0  0  0  0  0  0  0  0  0  0  0
  -26.5150  -23.3120   20.1250 H   0  0  0  0  0  0  0  0  0  0  0  0
  -27.5520  -24.8960   19.3720 C   0  0  0  0  0  2  0  0  0  0  0  0
  -26.5040  -25.6340   18.5250 C   0  0  0  0  0  2  0  0  0  0  0  0
  -26.9950  -26.9910   17.9920 C   0  0  0  0  0  2  0  0  0  0  0  0
  -25.9090  -27.7460   17.4610 O   0  0  0  0  0  0  0  0  0  0  0  0
  -25.7190  -30.0390   24.1830 C   0  0  0  0  0  0  0  0  0  0  0  0
  -25.2610  -28.5080   18.3990 C   0  0  0  0  0  0  0  0  0  0  0  0
  -23.7010  -30.5000   22.8260 C   0  0  0  0  0  3  0  0  0  0  0  0
  -23.9320  -30.0770   20.3240 C   0  0  0  0  0  0  0  0  0  0  0  0
  -25.9950  -30.2820   21.7210 C   0  0  0  0  0  2  0  0  0  0  0  0
  -25.2850  -29.7560   20.4940 C   0  0  0  0  0  0  0  0  0  0  0  0
  -25.9550  -28.9710   19.5360 C   0  0  0  0  0  3  0  0  0  0  0  0
  -23.9050  -28.8550   18.2240 C   0  0  0  0  0  3  0  0  0  0  0  0
  -23.2330  -29.6240   19.1910 C   0  0  0  0  0  3  0  0  0  0  0  0
  -23.2920  -30.9330   21.3920 C   0  0  0  0  0  2  0  0  0  0  0  0
  -25.1720  -30.2390   22.9510 N   0  0  0  0  0  0  0  0  0  0  0  0
  -25.0290  -30.1130   25.2090 O   0  0  0  0  0  0  0  0  0  0  0  0
  -22.8280  -29.2960   23.2430 C   0  0  0  0  0  0  0  0  0  0  0  0
  -21.5040  -29.4330   23.0730 N   0  0  0  0  0  0  0  0  0  0  0  0
  -23.3410  -28.2640   23.6830 O   0  0  0  0  0  0  0  0  0  0  0  0
  -21.1620  -30.3130   22.7150 H   0  0  0  0  0  0  0  0  0  0  0  0
  -18.0820  -28.4720   22.4310 C   0  0  0  0  0  0  0  0  0  0  0  0
  -20.4930  -28.4170   23.3630 C   0  0  0  0  0  3  0  0  0  0  0  0
  -20.6940  -27.1630   22.4830 C   0  0  0  0  0  2  0  0  0  0  0  0
  -19.8790  -27.1960   21.1870 C   0  0  0  0  0  2  0  0  0  0  0  0
  -18.3830  -27.3120   21.4970 C   0  0  0  0  0  2  0  0  0  0  0  0
  -19.0770  -29.0020   23.2940 C   0  0  0  0  0  0  0  0  0  0  0  0
  -18.7540  -30.1020   24.1170 C   0  0  0  0  0  3  0  0  0  0  0  0
  -17.4670  -30.6730   24.0870 C   0  0  0  0  0  3  0  0  0  0  0  0
  -16.4820  -30.1370   23.2380 C   0  0  0  0  0  3  0  0  0  0  0  0
  -16.7880  -29.0350   22.4190 C   0  0  0  0  0  3  0  0  0  0  0  0
  -27.2400  -29.7340   24.3630 C   0  0  0  0  0  3  0  0  0  0  0  0
  -27.7180  -30.5260   25.5040 N   0  0  0  0  0  0  0  0  0  0  0  0
  -28.4760  -31.6260   25.4000 C   0  0  0  0  0  0  0  0  0  0  0  0
  -28.9110  -32.0410   24.3220 O   0  0  0  0  0  0  0  0  0  0  0  0
  -27.3600  -30.2750   26.4150 H   0  0  0  0  0  0  0  0  0  0  0  0
  -27.9190  -33.6420   26.7950 C   0  0  0  0  0  1  0  0  0  0  0  0
  -28.8030  -32.3880   26.6980 C   0  0  0  0  0  3  0  0  0  0  0  0
  -31.1190  -31.6290   26.9950 C   0  0  0  0  0  1  0  0  0  0  0  0
  -30.2270  -32.7720   26.8130 N   0  0  0  0  0  0  0  0  0  0  0  0
  -30.3650  -33.4100   27.5940 H   0  0  0  0  0  0  0  0  0  0  0  0
  -27.5470  -28.2020   24.5790 C   0  0  1  0  0  0  0  0  0  0  0  0
  -26.7000  -27.5500   25.6950 C   0  0  0  0  0  1  0  0  0  0  0  0
  -27.3010  -27.4080   23.2720 C   0  0  0  0  0  1  0  0  0  0  0  0
  -29.0390  -28.0110   24.9400 C   0  0  0  0  0  1  0  0  0  0  0  0
  -29.7270  -23.1660   19.4820 C   0  0  0  0  0  2  0  0  0  0  0  0
  -30.8310  -23.0700   20.5700 C   0  0  0  0  0  2  0  0  0  0  0  0
  -33.0680  -19.9930   20.0970 C   0  0  0  0  0  3  0  0  0  0  0  0
  -32.9110  -22.6290   19.1200 C   0  0  0  0  0  0  0  0  0  0  0  0
  -32.0170  -22.1960   20.1420 C   0  0  0  0  0  0  0  0  0  0  0  0
  -33.8340  -20.3610   18.9740 C   0  0  0  0  0  0  0  0  0  0  0  0
  -32.1880  -20.9040   20.7000 C   0  0  0  0  0  0  0  0  0  0  0  0
  -33.8050  -21.7060   18.5270 C   0  0  0  0  0  0  0  0  0  0  0  0
  -32.9060  -24.0610   18.5880 C   0  0  0  0  0  1  0  0  0  0  0  0
  -31.2900  -20.3620   22.0760 Cl  0  0  0  0  0  0  0  0  0  0  0  0
  -34.7820  -22.2220   17.1890 Cl  0  0  0  0  0  0  0  0  0  0  0  0
  -35.4110  -18.5330   18.6700 C   0  0  0  0  0  0  0  0  0  0  0  0
  -35.6890  -16.1210   18.3630 C   0  0  0  0  0  2  0  0  0  0  0  0
  -34.9240  -15.7240   17.0830 C   0  0  0  0  0  2  0  0  0  0  0  0
  -33.4380  -15.4390   17.3890 C   0  0  0  0  0  2  0  0  0  0  0  0
  -32.7710  -16.5380   18.2600 C   0  0  0  0  0  3  0  0  0  0  0  0
  -33.6730  -16.8910   19.4700 C   0  0  0  0  0  2  0  0  0  0  0  0
  -34.9910  -17.2730   18.9470 N   0  0  0  0  0  0  0  0  0  0  0  0
  -36.5880  -18.7970   18.4100 O   0  0  0  0  0  0  0  0  0  0  0  0
  -34.4700  -19.6170   16.7520 C   0  0  0  0  0  1  0  0  0  0  0  0
  -34.4330  -19.3350   18.1950 N   0  0  0  0  0  0  0  0  0  0  0  0
  -30.2870  -16.9300   18.8130 C   0  0  0  0  0  0  0  0  0  0  0  0
  -29.2800  -16.0670   19.1490 C   0  0  0  0  0  0  0  0  0  0  0  0
  -29.8690  -14.7650   19.1700 C   0  0  0  0  0  0  0  0  0  0  0  0
  -31.4250  -16.1500   18.6700 N   0  0  0  0  0  0  0  0  0  0  0  0
  -31.1720  -14.8430   18.9370 N   0  0  0  0  0  0  0  0  0  0  0  0
  -29.2570  -13.4420   19.3410 C   0  0  0  0  0  0  0  0  0  0  0  0
  -29.3970  -12.7110   20.5410 C   0  0  0  0  0  3  0  0  0  0  0  0
  -28.7850  -11.4470   20.6860 C   0  0  0  0  0  3  0  0  0  0  0  0
  -28.0220  -10.9040   19.6260 C   0  0  0  0  0  0  0  0  0  0  0  0
  -27.9040  -11.6250   18.4260 C   0  0  0  0  0  3  0  0  0  0  0  0
  -28.5180  -12.8800   18.2800 C   0  0  0  0  0  3  0  0  0  0  0  0
  -27.4100   -9.6730   19.6690 O   0  0  0  0  0  0  0  0  0  0  0  0
  -26.5270   -9.3440   20.6650 C   0  0  0  0  0  0  0  0  0  0  0  0
  -25.2860  -10.0030   20.8080 C   0  0  0  0  0  3  0  0  0  0  0  0
  -24.3780   -9.5850   21.8000 C   0  0  0  0  0  3  0  0  0  0  0  0
  -24.7010   -8.5050   22.6430 C   0  0  0  0  0  0  0  0  0  0  0  0
  -25.9350   -7.8450   22.4990 C   0  0  0  0  0  3  0  0  0  0  0  0
  -26.8430   -8.2620   21.5100 C   0  0  0  0  0  0  0  0  0  0  0  0
  -28.0200   -7.6070   21.3620 F   0  0  0  0  0  0  0  0  0  0  0  0
  -23.8250   -8.0990   23.5920 F   0  0  0  0  0  0  0  0  0  0  0  0
  -27.8300  -16.4120   19.3350 C   0  0  0  0  0  0  0  0  0  0  0  0
  -27.1200  -15.6480   20.1570 N   0  0  0  0  0  0  0  0  0  0  0  0
  -27.3290  -17.3950   18.7910 O   0  0  0  0  0  0  0  0  0  0  0  0
  -27.5390  -14.8590   20.6260 H   0  0  0  0  0  0  0  0  0  0  0  0
  -26.1480  -15.8640   20.3290 H   0  0  0  0  0  0  0  0  0  0  0  0
  -30.3200  -18.3040   18.5930 N   0  0  0  0  0  0  0  0  0  0  0  0
  -29.4720  -18.8590   18.6040 H   0  0  0  0  0  0  0  0  0  0  0  0
  -31.1150  -18.8050   18.2200 H   0  0  0  0  0  0  0  0  0  0  0  0
  3  2  1  6
  3  1  1  0
  4  3  1  0
  4  6  1  0
  5  4  1  0
  7  4  1  0
  8  7  1  0
  9  8  1  0
 10  9  1  0
 10 12  1  0
 11 22  2  0
 12 17  1  0
 13 21  1  0
 13 23  1  0
 14 16  1  0
 14 20  1  0
 15 21  1  0
 16 15  1  0
 17 16  2  0
 18 12  2  0
 18 19  1  0
 19 14  2  0
 20 13  1  0
 21 11  1  0
 23 25  2  0
 24 23  1  0
 26 24  1  0
 27 32  1  0
 28 24  1  0
 29 28  1  0
 30 31  1  0
 30 29  1  0
 31 27  1  0
 32 28  1  0
 32 33  2  0
 34 33  1  0
 35 34  2  0
 36 27  2  0
 36 35  1  0
 37 11  1  0
 37 47  1  0
 37 38  1  0
 38 41  1  0
 39 38  1  0
 39 43  1  0
 40 39  2  0
 43 42  1  0
 43 45  1  0
 45 44  1  0
 45 46  1  0
 47 50  1  1
 47 48  1  0
 49 47  1  0
 51  3  1  0
 51 52  1  0
 53 57  1  0
 54 55  1  0
 55 52  1  0
 55 57  2  0
 56 53  2  0
 57 60  1  0
 58 56  1  0
 58 54  2  0
 59 54  1  0
 61 58  1  0
 62 68  1  0
 63 68  1  0
 64 65  1  0
 64 63  1  0
 66 65  1  0
 66 75  1  0
 66 67  1  0
 68 67  1  0
 69 62  2  0
 70 71  1  0
 71 62  1  0
 71 56  1  0
 72 73  2  0
 73 74  1  0
 73 92  1  0
 74 77  1  0
 75 72  1  0
 75 76  1  0
 76 74  2  0
 77 78  1  0
 78 79  2  0
 80 83  1  0
 80 79  1  0
 81 80  2  0
 82 81  1  0
 82 77  2  0
 83 84  1  0
 84 85  2  0
 84 89  1  0
 85 86  1  0
 86 87  2  0
 87 91  1  0
 88 87  1  0
 89 88  2  0
 90 89  1  0
 92 93  1  0
 93 96  1  0
 93 95  1  0
 94 92  2  0
 97 98  1  0
 97 72  1  0
 99 97  1  0
M  ISO  4   9 101  10 101  62 100  71 100
M  END
>  <TORSDO>  (40) 
F 23

>  <SCORE>  (40) 
-7.133

>  <name>  (40) 
39

>  <ligand_id>  (40) 
39

>  <original_smiles>  (40) 
[H]c1c([H])c([H])c2c(c1[H])C([H])([H])C([H])([H])C([H])([H])C2([H])N([H])C(=O)C1([H])N(C(=O)C([H])(N([H])C(=O)C([H])(N([H])C([H])([H])[H])C([H])([H])[H])C(C([H])([H])[H])(C([H])([H])[H])C([H])([H])[H])C([H])([H])c2c([H])c(OC([H])([H])C([H])([H])C([H])([H])[N+]([H])([H])C(C([H])([H])[H])(C([H])([H])[H])C([H])([H])C([H])([H])c3c(Cl)c([H])c(N(C(=O)N4C([H])([H])C([H])([H])C([H])([H])C([H])(n5nc(-c6c([H])c([H])c(Oc7c([H])c([H])c(F)c([H])c7F)c([H])c6[H])c(C(=O)N([H])[H])c5N([H])[H])C4([H])[H])C([H])([H])[H])c(Cl)c3C([H])([H])[H])c([H])c([H])c2C1([H])[H]

>  <smiles>  (40) 
[H]c1c([H])c([H])c2c(c1[H])C([H])([H])C([H])([H])C([H])([H])C2([H])N([H])C(=O)C1([H])N(C(=O)C([H])(N([H])C(=O)C([H])(N([H])C([H])([H])[H])C([H])([H])[H])C(C([H])([H])[H])(C([H])([H])[H])C([H])([H])[H])C([H])([H])c2c([H])c(OC([H])([H])C([H])([H])C([H])([H])[N+]([H])([H])C(C([H])([H])[H])(C([H])([H])[H])C([H])([H])C([H])([H])c3c(Cl)c([H])c(N(C(=O)N4C([H])([H])C([H])([H])C([H])([H])C([H])(n5nc(-c6c([H])c([H])c(Oc7c([H])c([H])c(F)c([H])c7F)c([H])c6[H])c(C(=O)N([H])[H])c5N([H])[H])C4([H])[H])C([H])([H])[H])c(Cl)c3C([H])([H])[H])c([H])c([H])c2C1([H])[H]

$$$$
40:0:0
     RDKit          3D

100109  0  0  1  0  0  0  0  0999 V2000
  -35.1180  -27.5920   10.9920 C   0  0  0  0  0  2  0  0  0  0  0  0
  -35.6390  -27.0360   13.2790 C   0  0  0  0  0  2  0  0  0  0  0  0
  -33.6610  -27.9760   11.3750 C   0  0  0  0  0  2  0  0  0  0  0  0
  -34.2290  -27.4850   13.7330 C   0  0  0  0  0  2  0  0  0  0  0  0
  -35.6500  -26.4100   11.8490 C   0  0  0  0  0  3  0  0  0  0  0  0
  -33.2440  -27.3080   12.6390 N   0  0  1  0  0  4  0  0  0  0  0  0
  -33.3220  -26.3250   12.4060 H   0  0  0  0  0  0  0  0  0  0  0  0
  -34.8800  -25.0830   11.6590 C   0  0  0  0  0  0  0  0  0  0  0  0
  -34.2040  -24.5360   10.5650 C   0  0  0  0  0  0  0  0  0  0  0  0
  -33.9630  -23.1390   12.1910 C   0  0  0  0  0  0  0  0  0  0  0  0
  -33.5100  -21.9570   12.9900 C   0  0  0  0  0  1  0  0  0  0  0  0
  -35.4000  -24.0540   13.9840 C   0  0  0  0  0  1  0  0  0  0  0  0
  -33.5940  -23.3490   10.9430 N   0  0  0  0  0  0  0  0  0  0  0  0
  -34.7850  -24.0940   12.6640 N   0  0  0  0  0  0  0  0  0  0  0  0
  -33.9530  -24.9690    9.1360 C   0  0  0  0  0  2  0  0  0  0  0  0
  -32.5940  -25.6720    8.9060 C   0  0  0  0  0  2  0  0  0  0  0  0
  -31.4740  -25.1930    9.8650 C   0  0  0  0  0  2  0  0  0  0  0  0
  -29.4590  -24.1620    8.6860 C   0  0  0  0  0  0  0  0  0  0  0  0
  -27.4960  -22.6920    8.3800 C   0  0  0  0  0  2  0  0  0  0  0  0
  -26.9840  -22.2870    9.7810 C   0  0  0  0  0  2  0  0  0  0  0  0
  -27.7500  -21.0590   10.3260 C   0  0  0  0  0  2  0  0  0  0  0  0
  -29.2900  -21.2040   10.1810 C   0  0  0  0  0  3  0  0  0  0  0  0
  -29.6630  -21.6630    8.7540 C   0  0  0  0  0  2  0  0  0  0  0  0
  -28.9440  -22.9220    8.4900 N   0  0  0  0  0  0  0  0  0  0  0  0
  -28.8200  -25.2030    8.4940 O   0  0  0  0  0  0  0  0  0  0  0  0
  -30.6890  -24.1400    9.2260 N   0  0  0  0  0  0  0  0  0  0  0  0
  -31.0990  -23.2200    9.2860 H   0  0  0  0  0  0  0  0  0  0  0  0
  -30.3490  -19.5130   11.8040 C   0  0  0  0  0  0  0  0  0  0  0  0
  -30.9200  -18.2880   11.6000 C   0  0  0  0  0  0  0  0  0  0  0  0
  -30.8800  -18.0610   10.1880 C   0  0  0  0  0  0  0  0  0  0  0  0
  -29.9890  -19.9770   10.5500 N   0  0  0  0  0  0  0  0  0  0  0  0
  -30.3610  -19.1140    9.5690 N   0  0  0  0  0  0  0  0  0  0  0  0
  -31.2450  -16.8790    9.3960 C   0  0  0  0  0  0  0  0  0  0  0  0
  -32.5530  -16.3500    9.4200 C   0  0  0  0  0  3  0  0  0  0  0  0
  -32.8740  -15.2010    8.6670 C   0  0  0  0  0  3  0  0  0  0  0  0
  -31.8810  -14.5710    7.8790 C   0  0  0  0  0  0  0  0  0  0  0  0
  -30.5850  -15.1140    7.8400 C   0  0  0  0  0  3  0  0  0  0  0  0
  -30.2690  -16.2620    8.5880 C   0  0  0  0  0  3  0  0  0  0  0  0
  -32.1080  -13.4690    7.0910 O   0  0  0  0  0  0  0  0  0  0  0  0
  -31.5020  -12.2660    7.3440 C   0  0  0  0  0  0  0  0  0  0  0  0
  -30.3590  -11.8430    6.6290 C   0  0  0  0  0  3  0  0  0  0  0  0
  -29.8070  -10.5710    6.8690 C   0  0  0  0  0  3  0  0  0  0  0  0
  -30.3990   -9.7120    7.8160 C   0  0  0  0  0  0  0  0  0  0  0  0
  -31.5400  -10.1290    8.5260 C   0  0  0  0  0  3  0  0  0  0  0  0
  -32.0920  -11.3980    8.2870 C   0  0  0  0  0  0  0  0  0  0  0  0
  -33.2040  -11.7870    8.9560 F   0  0  0  0  0  0  0  0  0  0  0  0
  -29.8760   -8.4860    8.0440 F   0  0  0  0  0  0  0  0  0  0  0  0
  -31.4010  -17.3350   12.6580 C   0  0  0  0  0  0  0  0  0  0  0  0
  -32.7010  -17.3210   12.9250 N   0  0  0  0  0  0  0  0  0  0  0  0
  -30.6140  -16.6260   13.2850 O   0  0  0  0  0  0  0  0  0  0  0  0
  -33.3430  -17.9180   12.4250 H   0  0  0  0  0  0  0  0  0  0  0  0
  -33.0580  -16.7090   13.6460 H   0  0  0  0  0  0  0  0  0  0  0  0
  -30.0850  -20.2570   12.9520 N   0  0  0  0  0  0  0  0  0  0  0  0
  -30.2610  -19.8890   13.8800 H   0  0  0  0  0  0  0  0  0  0  0  0
  -29.6120  -21.1510   12.9660 H   0  0  0  0  0  0  0  0  0  0  0  0
  -31.8260  -27.4870   13.0420 C   0  0  0  0  0  2  0  0  0  0  0  0
  -31.6850  -28.7760   13.8820 C   0  0  0  0  0  2  0  0  0  0  0  0
  -30.6910  -29.8240   13.3480 C   0  0  0  0  0  2  0  0  0  0  0  0
  -31.3560  -31.2060   13.1610 C   0  0  0  0  0  2  0  0  0  0  0  0
  -32.6330  -31.2700   13.7880 O   0  0  0  0  0  0  0  0  0  0  0  0
  -39.6880  -31.6890   13.2580 C   0  0  0  0  0  0  0  0  0  0  0  0
  -33.7200  -31.2480   12.9480 C   0  0  0  0  0  0  0  0  0  0  0  0
  -38.4570  -31.7520   11.1200 C   0  0  0  0  0  3  0  0  0  0  0  0
  -35.9800  -31.1720   11.2560 C   0  0  0  0  0  0  0  0  0  0  0  0
  -37.4790  -30.5460   13.1530 C   0  0  0  0  0  2  0  0  0  0  0  0
  -36.1080  -30.8750   12.6200 C   0  0  0  0  0  0  0  0  0  0  0  0
  -34.9810  -30.9010   13.4690 C   0  0  0  0  0  3  0  0  0  0  0  0
  -33.5980  -31.5380   11.5680 C   0  0  0  0  0  3  0  0  0  0  0  0
  -34.7220  -31.5050   10.7210 C   0  0  0  0  0  3  0  0  0  0  0  0
  -37.2330  -31.1080   10.4160 C   0  0  0  0  0  2  0  0  0  0  0  0
  -38.5670  -31.3590   12.5590 N   0  0  0  0  0  0  0  0  0  0  0  0
  -40.6330  -32.2760   12.7130 O   0  0  0  0  0  0  0  0  0  0  0  0
  -38.3890  -33.2830   10.9090 C   0  0  0  0  0  0  0  0  0  0  0  0
  -39.5490  -33.8950   10.6240 N   0  0  0  0  0  0  0  0  0  0  0  0
  -37.3110  -33.8840   10.9670 O   0  0  0  0  0  0  0  0  0  0  0  0
  -40.3850  -33.3320   10.6000 H   0  0  0  0  0  0  0  0  0  0  0  0
  -41.6310  -36.7850   11.2340 C   0  0  0  0  0  0  0  0  0  0  0  0
  -39.7180  -35.3140   10.3180 C   0  0  0  0  0  3  0  0  0  0  0  0
  -40.3660  -35.5010    8.9260 C   0  0  0  0  0  2  0  0  0  0  0  0
  -41.8870  -35.6800    8.9780 C   0  0  0  0  0  2  0  0  0  0  0  0
  -42.2530  -36.8790    9.8500 C   0  0  0  0  0  2  0  0  0  0  0  0
  -40.4390  -36.0480   11.4540 C   0  0  0  0  0  0  0  0  0  0  0  0
  -39.9010  -35.9880   12.7590 C   0  0  0  0  0  3  0  0  0  0  0  0
  -40.5350  -36.6430   13.8310 C   0  0  0  0  0  3  0  0  0  0  0  0
  -41.7160  -37.3710   13.6060 C   0  0  0  0  0  3  0  0  0  0  0  0
  -42.2580  -37.4430   12.3090 C   0  0  0  0  0  3  0  0  0  0  0  0
  -39.8460  -31.3280   14.7680 C   0  0  0  0  0  3  0  0  0  0  0  0
  -41.1670  -30.7080   14.9340 N   0  0  0  0  0  0  0  0  0  0  0  0
  -41.3820  -29.3900   15.0170 C   0  0  0  0  0  0  0  0  0  0  0  0
  -40.4660  -28.5630   15.0370 O   0  0  0  0  0  0  0  0  0  0  0  0
  -41.9690  -31.3200   14.8840 H   0  0  0  0  0  0  0  0  0  0  0  0
  -43.2490  -28.2780   13.7570 C   0  0  0  0  0  1  0  0  0  0  0  0
  -42.8440  -28.9120   15.0950 C   0  0  0  0  0  3  0  0  0  0  0  0
  -43.0920  -28.5860   17.5170 C   0  0  0  0  0  1  0  0  0  0  0  0
  -43.0940  -27.9580   16.1980 N   0  0  0  0  0  0  0  0  0  0  0  0
  -43.9860  -27.4850   16.0700 H   0  0  0  0  0  0  0  0  0  0  0  0
  -39.6880  -32.5740   15.7290 C   0  0  1  0  0  0  0  0  0  0  0  0
  -40.9660  -33.4370   15.8420 C   0  0  0  0  0  1  0  0  0  0  0  0
  -38.5420  -33.4940   15.2460 C   0  0  0  0  0  1  0  0  0  0  0  0
  -39.3090  -32.0930   17.1510 C   0  0  0  0  0  1  0  0  0  0  0  0
  1  3  1  0
  1  5  1  0
  2  4  1  0
  3  6  1  0
  5  8  1  0
  5  2  1  0
  6 56  1  0
  6  4  1  0
  6  7  1  6
  8 14  1  0
  9 13  1  0
  9  8  2  0
 10 14  1  0
 10 11  1  0
 13 10  2  0
 14 12  1  0
 15  9  1  0
 16 15  1  0
 16 17  1  0
 18 26  1  0
 19 24  1  0
 19 20  1  0
 20 21  1  0
 22 23  1  0
 22 21  1  0
 22 31  1  0
 24 18  1  0
 24 23  1  0
 25 18  2  0
 26 27  1  0
 26 17  1  0
 28 53  1  0
 29 28  2  0
 29 48  1  0
 30 29  1  0
 31 28  1  0
 32 30  2  0
 32 31  1  0
 33 34  1  0
 33 30  1  0
 35 34  2  0
 36 35  1  0
 37 36  2  0
 37 38  1  0
 38 33  2  0
 39 40  1  0
 39 36  1  0
 40 45  1  0
 41 42  1  0
 41 40  2  0
 42 43  2  0
 43 47  1  0
 43 44  1  0
 45 44  2  0
 45 46  1  0
 48 49  1  0
 48 50  2  0
 49 52  1  0
 51 49  1  0
 53 55  1  0
 53 54  1  0
 56 57  1  0
 58 57  1  0
 59 58  1  0
 59 60  1  0
 62 67  1  0
 62 60  1  0
 63 73  1  0
 63 71  1  0
 64 66  1  0
 66 65  1  0
 66 67  2  0
 68 62  2  0
 69 64  2  0
 69 68  1  0
 70 63  1  0
 70 64  1  0
 71 65  1  0
 71 61  1  0
 72 61  2  0
 73 75  2  0
 74 73  1  0
 76 74  1  0
 77 82  2  0
 77 86  1  0
 78 74  1  0
 78 82  1  0
 79 80  1  0
 79 78  1  0
 80 81  1  0
 81 77  1  0
 82 83  1  0
 83 84  2  0
 85 84  1  0
 86 85  2  0
 87 61  1  0
 87 88  1  0
 87 97  1  0
 88 89  1  0
 89 90  2  0
 89 93  1  0
 91 88  1  0
 93 92  1  0
 93 95  1  0
 95 94  1  0
 96 95  1  0
 97 98  1  1
 97100  1  0
 99 97  1  0
M  ISO  4  18 100  26 100  59 101  60 101
M  END
>  <TORSDO>  (41) 
F 24

>  <SCORE>  (41) 
-2.914

>  <name>  (41) 
40

>  <ligand_id>  (41) 
40

>  <original_smiles>  (41) 
[H]c1c([H])c([H])c2c(c1[H])C([H])([H])C([H])([H])C([H])([H])C2([H])N([H])C(=O)C1([H])N(C(=O)C([H])(N([H])C(=O)C([H])(N([H])C([H])([H])[H])C([H])([H])[H])C(C([H])([H])[H])(C([H])([H])[H])C([H])([H])[H])C([H])([H])c2c([H])c(OC([H])([H])C([H])([H])C([H])([H])C([H])([H])[N+]3([H])C([H])([H])C([H])([H])C([H])(c4c(C([H])([H])C([H])([H])C([H])([H])N([H])C(=O)N5C([H])([H])C([H])([H])C([H])([H])C([H])(n6nc(-c7c([H])c([H])c(Oc8c([H])c([H])c(F)c([H])c8F)c([H])c7[H])c(C(=O)N([H])[H])c6N([H])[H])C5([H])[H])nc(C([H])([H])[H])n4C([H])([H])[H])C([H])([H])C3([H])[H])c([H])c([H])c2C1([H])[H]

>  <smiles>  (41) 
[H]c1c([H])c([H])c2c(c1[H])C([H])([H])C([H])([H])C([H])([H])C2([H])N([H])C(=O)C1([H])N(C(=O)C([H])(N([H])C(=O)C([H])(N([H])C([H])([H])[H])C([H])([H])[H])C(C([H])([H])[H])(C([H])([H])[H])C([H])([H])[H])C([H])([H])c2c([H])c(OC([H])([H])C([H])([H])C([H])([H])C([H])([H])[N+]3([H])C([H])([H])C([H])([H])C([H])(c4c(C([H])([H])C([H])([H])C([H])([H])N([H])C(=O)N5C([H])([H])C([H])([H])C([H])([H])C([H])(n6nc(-c7c([H])c([H])c(Oc8c([H])c([H])c(F)c([H])c8F)c([H])c7[H])c(C(=O)N([H])[H])c6N([H])[H])C5([H])[H])nc(C([H])([H])[H])n4C([H])([H])[H])C([H])([H])C3([H])[H])c([H])c([H])c2C1([H])[H]

$$$$
41:0:0
     RDKit          3D

102110  0  0  1  0  0  0  0  0999 V2000
  -28.7670  -23.0360   23.7190 C   0  0  0  0  0  0  0  0  0  0  0  0
  -30.2850  -24.4250   22.3860 C   0  0  0  0  0  0  0  0  0  0  0  0
  -27.8510  -24.6040   22.0660 C   0  0  0  0  0  0  0  0  0  0  0  0
  -30.0750  -23.4340   23.3670 C   0  0  0  0  0  0  0  0  0  0  0  0
  -27.6560  -23.6170   23.0650 C   0  0  0  0  0  0  0  0  0  0  0  0
  -29.1710  -25.0260   21.7540 C   0  0  0  0  0  0  0  0  0  0  0  0
  -28.5580  -21.9840   24.7970 C   0  0  0  0  0  1  0  0  0  0  0  0
  -31.1400  -22.8590   23.9780 F   0  0  0  0  0  0  0  0  0  0  0  0
  -26.0480  -23.1170   23.4860 Cl  0  0  0  0  0  0  0  0  0  0  0  0
  -29.4430  -26.2690   20.5730 Cl  0  0  0  0  0  0  0  0  0  0  0  0
  -25.6490  -24.1530   21.2000 C   0  0  0  0  0  1  0  0  0  0  0  0
  -26.7310  -25.1200   21.3850 N   0  0  0  0  0  0  0  0  0  0  0  0
  -27.0420  -26.0540   20.3020 C   0  0  0  0  0  2  0  0  0  0  0  0
  -25.7760  -26.5570   19.5960 C   0  0  0  0  0  2  0  0  0  0  0  0
  -26.0580  -27.2070   18.2300 C   0  0  0  0  0  2  0  0  0  0  0  0
  -25.0660  -28.1740   17.8770 O   0  0  0  0  0  0  0  0  0  0  0  0
  -25.8740  -30.0700   24.6800 C   0  0  0  0  0  0  0  0  0  0  0  0
  -24.5910  -28.9010   18.9370 C   0  0  0  0  0  0  0  0  0  0  0  0
  -23.7100  -30.6620   23.6390 C   0  0  0  0  0  3  0  0  0  0  0  0
  -23.5900  -30.3910   21.1070 C   0  0  0  0  0  0  0  0  0  0  0  0
  -25.8280  -30.4500   22.2220 C   0  0  0  0  0  2  0  0  0  0  0  0
  -24.9430  -30.0260   21.0710 C   0  0  0  0  0  0  0  0  0  0  0  0
  -25.4490  -29.2760   19.9890 C   0  0  0  0  0  3  0  0  0  0  0  0
  -23.2370  -29.2940   18.9700 C   0  0  0  0  0  3  0  0  0  0  0  0
  -22.7280  -30.0230   20.0590 C   0  0  0  0  0  3  0  0  0  0  0  0
  -23.1290  -31.1920   22.3010 C   0  0  0  0  0  2  0  0  0  0  0  0
  -25.1740  -30.3580   23.5470 N   0  0  0  0  0  0  0  0  0  0  0  0
  -25.3300  -30.1000   25.7940 O   0  0  0  0  0  0  0  0  0  0  0  0
  -22.8610  -29.4570   24.1000 C   0  0  0  0  0  0  0  0  0  0  0  0
  -21.5670  -29.4690   23.7420 N   0  0  0  0  0  0  0  0  0  0  0  0
  -23.3690  -28.5330   24.7400 O   0  0  0  0  0  0  0  0  0  0  0  0
  -21.2310  -30.2660   23.2210 H   0  0  0  0  0  0  0  0  0  0  0  0
  -18.4550  -28.0130   22.6250 C   0  0  0  0  0  0  0  0  0  0  0  0
  -20.5830  -28.4270   24.0310 C   0  0  0  0  0  3  0  0  0  0  0  0
  -21.0650  -27.0490   23.5230 C   0  0  0  0  0  2  0  0  0  0  0  0
  -20.5670  -26.7210   22.1110 C   0  0  0  0  0  2  0  0  0  0  0  0
  -19.0370  -26.7270   22.0660 C   0  0  0  0  0  2  0  0  0  0  0  0
  -19.1870  -28.8200   23.5360 C   0  0  0  0  0  0  0  0  0  0  0  0
  -18.6130  -30.0240   24.0000 C   0  0  0  0  0  3  0  0  0  0  0  0
  -17.3300  -30.4200   23.5740 C   0  0  0  0  0  3  0  0  0  0  0  0
  -16.6030  -29.6090   22.6870 C   0  0  0  0  0  3  0  0  0  0  0  0
  -17.1640  -28.4080   22.2170 C   0  0  0  0  0  3  0  0  0  0  0  0
  -27.3930  -29.7160   24.6370 C   0  0  0  0  0  3  0  0  0  0  0  0
  -28.1190  -30.8000   25.3100 N   0  0  0  0  0  0  0  0  0  0  0  0
  -28.8960  -31.6940   24.6850 C   0  0  0  0  0  0  0  0  0  0  0  0
  -29.1390  -31.6460   23.4760 O   0  0  0  0  0  0  0  0  0  0  0  0
  -27.9230  -30.9330   26.2920 H   0  0  0  0  0  0  0  0  0  0  0  0
  -28.7430  -34.1340   25.2760 C   0  0  0  0  0  1  0  0  0  0  0  0
  -29.5050  -32.8240   25.5390 C   0  0  0  0  0  3  0  0  0  0  0  0
  -31.7740  -31.9140   25.7510 C   0  0  0  0  0  1  0  0  0  0  0  0
  -30.9490  -33.0310   25.2980 N   0  0  0  0  0  0  0  0  0  0  0  0
  -31.2750  -33.8750   25.7610 H   0  0  0  0  0  0  0  0  0  0  0  0
  -27.7250  -28.3230   25.3000 C   0  0  1  0  0  0  0  0  0  0  0  0
  -27.0370  -28.1060   26.6690 C   0  0  0  0  0  1  0  0  0  0  0  0
  -27.3050  -27.1610   24.3690 C   0  0  0  0  0  1  0  0  0  0  0  0
  -29.2540  -28.1920   25.5030 C   0  0  0  0  0  1  0  0  0  0  0  0
  -31.7060  -24.8690   22.0380 C   0  0  0  0  0  2  0  0  0  0  0  0
  -32.2140  -24.2020   20.8150 N   0  0  0  0  0  4  0  0  0  0  0  0
  -31.3970  -23.9690   20.2700 H   0  0  0  0  0  0  0  0  0  0  0  0
  -32.6840  -23.3460   21.0590 H   0  0  0  0  0  0  0  0  0  0  0  0
  -33.8680  -26.0880   20.7170 C   0  0  0  0  0  1  0  0  0  0  0  0
  -33.0430  -25.0530   19.9240 C   0  0  0  0  0  3  0  0  0  0  0  0
  -33.3250  -24.0940   17.5430 C   0  0  0  0  0  1  0  0  0  0  0  0
  -33.9160  -24.1990   18.9660 C   0  0  0  0  0  3  0  0  0  0  0  0
  -35.4560  -22.4820   19.8940 C   0  0  0  0  0  0  0  0  0  0  0  0
  -36.8290  -20.6080   20.7120 C   0  0  0  0  0  2  0  0  0  0  0  0
  -37.2000  -19.6570   19.5570 C   0  0  0  0  0  2  0  0  0  0  0  0
  -36.0940  -18.6060   19.3430 C   0  0  0  0  0  2  0  0  0  0  0  0
  -34.6800  -19.2380   19.2520 C   0  0  0  0  0  3  0  0  0  0  0  0
  -34.4470  -20.2290   20.4140 C   0  0  0  0  0  2  0  0  0  0  0  0
  -35.5330  -21.2240   20.3970 N   0  0  0  0  0  0  0  0  0  0  0  0
  -36.4340  -23.2260   19.7820 O   0  0  0  0  0  0  0  0  0  0  0  0
  -34.2320  -22.8710   19.5010 N   0  0  0  0  0  0  0  0  0  0  0  0
  -33.4920  -22.2000   19.6390 H   0  0  0  0  0  0  0  0  0  0  0  0
  -32.2980  -18.3380   18.8770 C   0  0  0  0  0  0  0  0  0  0  0  0
  -31.7820  -17.0710   18.9170 C   0  0  0  0  0  0  0  0  0  0  0  0
  -32.8710  -16.2140   19.2650 C   0  0  0  0  0  0  0  0  0  0  0  0
  -33.6390  -18.2140   19.2010 N   0  0  0  0  0  0  0  0  0  0  0  0
  -33.9670  -16.9290   19.4860 N   0  0  0  0  0  0  0  0  0  0  0  0
  -32.9470  -14.7500   19.3470 C   0  0  0  0  0  0  0  0  0  0  0  0
  -33.0490  -14.0840   20.5880 C   0  0  0  0  0  3  0  0  0  0  0  0
  -33.1030  -12.6750   20.6420 C   0  0  0  0  0  3  0  0  0  0  0  0
  -33.0520  -11.9170   19.4490 C   0  0  0  0  0  0  0  0  0  0  0  0
  -32.9740  -12.5850   18.2130 C   0  0  0  0  0  3  0  0  0  0  0  0
  -32.9250  -13.9880   18.1620 C   0  0  0  0  0  3  0  0  0  0  0  0
  -33.1260  -10.5450   19.4030 O   0  0  0  0  0  0  0  0  0  0  0  0
  -32.2980   -9.7540   20.1580 C   0  0  0  0  0  0  0  0  0  0  0  0
  -30.8930   -9.8140   20.0350 C   0  0  0  0  0  3  0  0  0  0  0  0
  -30.0830   -8.9350   20.7800 C   0  0  0  0  0  3  0  0  0  0  0  0
  -30.6740   -7.9920   21.6410 C   0  0  0  0  0  0  0  0  0  0  0  0
  -32.0730   -7.9260   21.7620 C   0  0  0  0  0  3  0  0  0  0  0  0
  -32.8830   -8.8040   21.0190 C   0  0  0  0  0  0  0  0  0  0  0  0
  -34.2320   -8.7230   21.1230 F   0  0  0  0  0  0  0  0  0  0  0  0
  -29.8970   -7.1410   22.3520 F   0  0  0  0  0  0  0  0  0  0  0  0
  -30.3830  -16.6610   18.5570 C   0  0  0  0  0  0  0  0  0  0  0  0
  -29.8620  -15.6250   19.2040 N   0  0  0  0  0  0  0  0  0  0  0  0
  -29.7260  -17.2920   17.7300 O   0  0  0  0  0  0  0  0  0  0  0  0
  -30.3960  -15.1200   19.8960 H   0  0  0  0  0  0  0  0  0  0  0  0
  -28.9160  -15.3330   19.0050 H   0  0  0  0  0  0  0  0  0  0  0  0
  -31.7460  -19.5800   18.5740 N   0  0  0  0  0  0  0  0  0  0  0  0
  -30.7880  -19.6750   18.2550 H   0  0  0  0  0  0  0  0  0  0  0  0
  -32.2840  -20.4310   18.4770 H   0  0  0  0  0  0  0  0  0  0  0  0
  1  7  1  0
  2  4  2  0
  3  5  1  0
  4  1  1  0
  4  8  1  0
  5  9  1  0
  5  1  2  0
  6  3  2  0
  6  2  1  0
 10  6  1  0
 11 12  1  0
 12  3  1  0
 13 12  1  0
 14 13  1  0
 15 14  1  0
 16 15  1  0
 16 18  1  0
 17 28  2  0
 18 24  2  0
 18 23  1  0
 19 29  1  0
 20 26  1  0
 21 27  1  0
 22 20  1  0
 22 21  1  0
 23 22  2  0
 24 25  1  0
 25 20  2  0
 26 19  1  0
 27 19  1  0
 27 17  1  0
 29 31  2  0
 30 29  1  0
 32 30  1  0
 33 38  1  0
 34 30  1  0
 35 34  1  0
 36 35  1  0
 37 36  1  0
 37 33  1  0
 38 39  2  0
 38 34  1  0
 40 39  1  0
 41 40  2  0
 42 33  2  0
 42 41  1  0
 43 17  1  0
 43 53  1  0
 43 44  1  0
 44 47  1  0
 45 44  1  0
 45 49  1  0
 46 45  2  0
 49 48  1  0
 51 49  1  0
 51 50  1  0
 51 52  1  0
 53 56  1  1
 53 54  1  0
 55 53  1  0
 57  2  1  0
 58 60  1  0
 58 57  1  0
 59 58  1  0
 62 61  1  0
 62 58  1  0
 64 63  1  0
 64 73  1  0
 64 62  1  0
 65 71  1  0
 67 66  1  0
 68 67  1  0
 69 78  1  0
 69 68  1  0
 69 70  1  0
 71 70  1  0
 71 66  1  0
 72 65  2  0
 73 74  1  0
 73 65  1  0
 75 76  2  0
 75 78  1  0
 76 77  1  0
 77 80  1  0
 77 79  2  0
 78 79  1  0
 80 81  1  0
 81 82  2  0
 83 82  1  0
 84 83  2  0
 85 84  1  0
 85 80  2  0
 86 83  1  0
 86 87  1  0
 87 92  1  0
 88 87  2  0
 88 89  1  0
 89 90  2  0
 90 91  1  0
 90 94  1  0
 92 93  1  0
 92 91  2  0
 95 76  1  0
 95 96  1  0
 96 98  1  0
 97 95  2  0
 99 96  1  0
100 75  1  0
101100  1  0
102100  1  0
M  ISO  4  15 101  16 101  65 100  73 100
M  END
>  <TORSDO>  (42) 
F 24

>  <SCORE>  (42) 
4.539

>  <name>  (42) 
41

>  <ligand_id>  (42) 
41

>  <original_smiles>  (42) 
[H]c1c([H])c([H])c2c(c1[H])C([H])([H])C([H])([H])C([H])([H])C2([H])N([H])C(=O)C1([H])N(C(=O)C([H])(N([H])C(=O)C([H])(N([H])C([H])([H])[H])C([H])([H])[H])C(C([H])([H])[H])(C([H])([H])[H])C([H])([H])[H])C([H])([H])c2c([H])c(OC([H])([H])C([H])([H])C([H])([H])N(c3c(Cl)c(C([H])([H])[H])c(F)c(C([H])([H])[N+]([H])([H])C([H])(C([H])([H])[H])C([H])(N([H])C(=O)N4C([H])([H])C([H])([H])C([H])([H])C([H])(n5nc(-c6c([H])c([H])c(Oc7c([H])c([H])c(F)c([H])c7F)c([H])c6[H])c(C(=O)N([H])[H])c5N([H])[H])C4([H])[H])C([H])([H])[H])c3Cl)C([H])([H])[H])c([H])c([H])c2C1([H])[H]

>  <smiles>  (42) 
[H]c1c([H])c([H])c2c(c1[H])C([H])([H])C([H])([H])C([H])([H])C2([H])N([H])C(=O)C1([H])N(C(=O)C([H])(N([H])C(=O)C([H])(N([H])C([H])([H])[H])C([H])([H])[H])C(C([H])([H])[H])(C([H])([H])[H])C([H])([H])[H])C([H])([H])c2c([H])c(OC([H])([H])C([H])([H])C([H])([H])N(c3c(Cl)c(C([H])([H])[H])c(F)c(C([H])([H])[N+]([H])([H])C([H])(C([H])([H])[H])C([H])(N([H])C(=O)N4C([H])([H])C([H])([H])C([H])([H])C([H])(n5nc(-c6c([H])c([H])c(Oc7c([H])c([H])c(F)c([H])c7F)c([H])c6[H])c(C(=O)N([H])[H])c5N([H])[H])C4([H])[H])C([H])([H])[H])c3Cl)C([H])([H])[H])c([H])c([H])c2C1([H])[H]

$$$$
42:0:0
     RDKit          3D

 93101  0  0  1  0  0  0  0  0999 V2000
  -29.0990  -22.4910   20.1030 C   0  0  0  0  0  0  0  0  0  0  0  0
  -29.5910  -21.3360   20.8450 C   0  0  0  0  0  0  0  0  0  0  0  0
  -28.9010  -23.8060   20.6960 C   0  0  0  0  0  0  0  0  0  0  0  0
  -29.7900  -22.8650   22.7930 C   0  0  0  0  0  0  0  0  0  0  0  0
  -29.9430  -21.5810   22.2060 C   0  0  0  0  0  0  0  0  0  0  0  0
  -29.2510  -23.9540   22.0620 C   0  0  0  0  0  0  0  0  0  0  0  0
  -28.7480  -22.3260   18.6250 C   0  0  0  0  0  1  0  0  0  0  0  0
  -30.1840  -23.0410   24.2620 C   0  0  0  0  0  1  0  0  0  0  0  0
  -30.5740  -20.3340   23.2300 Cl  0  0  0  0  0  0  0  0  0  0  0  0
  -28.9680  -25.4630   22.8690 Cl  0  0  0  0  0  0  0  0  0  0  0  0
  -29.7570  -19.9010   20.1490 C   0  0  0  0  0  2  0  0  0  0  0  0
  -29.8880  -18.4760   20.8920 C   0  0  0  0  0  3  0  0  0  0  0  0
  -30.1510  -17.1880   19.9830 C   0  0  0  0  0  3  0  0  0  0  0  0
  -30.7320  -14.6860   20.3000 C   0  0  0  0  0  0  0  0  0  0  0  0
  -30.4860  -12.4370   19.2780 C   0  0  0  0  0  2  0  0  0  0  0  0
  -29.5500  -12.5630   18.0550 C   0  0  0  0  0  2  0  0  0  0  0  0
  -28.0780  -12.4190   18.4810 C   0  0  0  0  0  2  0  0  0  0  0  0
  -27.7230  -13.2990   19.7100 C   0  0  0  0  0  3  0  0  0  0  0  0
  -28.7770  -13.1600   20.8330 C   0  0  0  0  0  2  0  0  0  0  0  0
  -30.0900  -13.4750   20.2540 N   0  0  0  0  0  0  0  0  0  0  0  0
  -31.8930  -14.8010   19.8990 O   0  0  0  0  0  0  0  0  0  0  0  0
  -29.9690  -15.7990   20.5600 N   0  0  0  0  0  0  0  0  0  0  0  0
  -29.0490  -15.5960   20.9200 H   0  0  0  0  0  0  0  0  0  0  0  0
  -25.3330  -13.9240   20.4150 C   0  0  0  0  0  0  0  0  0  0  0  0
  -24.2580  -13.1630   20.7880 C   0  0  0  0  0  0  0  0  0  0  0  0
  -24.7090  -11.8070   20.7710 C   0  0  0  0  0  0  0  0  0  0  0  0
  -26.3710  -13.0320   20.1920 N   0  0  0  0  0  0  0  0  0  0  0  0
  -26.0000  -11.7540   20.4680 N   0  0  0  0  0  0  0  0  0  0  0  0
  -23.9710  -10.5520   20.9690 C   0  0  0  0  0  0  0  0  0  0  0  0
  -24.4000   -9.5830   21.9020 C   0  0  0  0  0  3  0  0  0  0  0  0
  -23.6640   -8.3940   22.0890 C   0  0  0  0  0  3  0  0  0  0  0  0
  -22.4840   -8.1650   21.3420 C   0  0  0  0  0  0  0  0  0  0  0  0
  -22.0740   -9.1230   20.3980 C   0  0  0  0  0  3  0  0  0  0  0  0
  -22.8100  -10.3040   20.2090 C   0  0  0  0  0  3  0  0  0  0  0  0
  -21.7190   -7.0280   21.4370 O   0  0  0  0  0  0  0  0  0  0  0  0
  -21.6770   -6.2820   22.5880 C   0  0  0  0  0  0  0  0  0  0  0  0
  -21.2930   -6.8440   23.8250 C   0  0  0  0  0  3  0  0  0  0  0  0
  -21.1980   -6.0260   24.9690 C   0  0  0  0  0  3  0  0  0  0  0  0
  -21.4760   -4.6500   24.8760 C   0  0  0  0  0  0  0  0  0  0  0  0
  -21.8530   -4.0870   23.6450 C   0  0  0  0  0  3  0  0  0  0  0  0
  -21.9500   -4.9020   22.5020 C   0  0  0  0  0  0  0  0  0  0  0  0
  -22.2930   -4.3520   21.3130 F   0  0  0  0  0  0  0  0  0  0  0  0
  -21.3760   -3.8620   25.9740 F   0  0  0  0  0  0  0  0  0  0  0  0
  -22.8640  -13.6540   21.0500 C   0  0  0  0  0  0  0  0  0  0  0  0
  -22.1290  -12.9760   21.9240 N   0  0  0  0  0  0  0  0  0  0  0  0
  -22.4350  -14.6760   20.5160 O   0  0  0  0  0  0  0  0  0  0  0  0
  -22.4900  -12.1480   22.3760 H   0  0  0  0  0  0  0  0  0  0  0  0
  -21.1950  -13.2880   22.1440 H   0  0  0  0  0  0  0  0  0  0  0  0
  -25.5100  -15.2910   20.2260 N   0  0  0  0  0  0  0  0  0  0  0  0
  -24.7480  -15.9520   20.3270 H   0  0  0  0  0  0  0  0  0  0  0  0
  -26.3590  -15.7190   19.8790 H   0  0  0  0  0  0  0  0  0  0  0  0
  -28.1130  -24.9740   19.9560 C   0  0  0  0  0  2  0  0  0  0  0  0
  -28.3180  -26.4260   20.2470 O   0  0  0  0  0  0  0  0  0  0  0  0
  -24.6440  -31.8910   23.2200 C   0  0  0  0  0  0  0  0  0  0  0  0
  -27.2180  -27.3070   20.1540 C   0  0  0  0  0  0  0  0  0  0  0  0
  -23.4260  -30.4960   21.5890 C   0  0  0  0  0  3  0  0  0  0  0  0
  -24.8630  -28.9460   20.1490 C   0  0  0  0  0  0  0  0  0  0  0  0
  -25.9670  -30.8000   21.3950 C   0  0  0  0  0  2  0  0  0  0  0  0
  -26.0370  -29.4200   20.7500 C   0  0  0  0  0  0  0  0  0  0  0  0
  -27.2140  -28.6090   20.7500 C   0  0  0  0  0  3  0  0  0  0  0  0
  -26.0290  -26.9160   19.4920 C   0  0  0  0  0  3  0  0  0  0  0  0
  -24.8630  -27.7000   19.5100 C   0  0  0  0  0  3  0  0  0  0  0  0
  -23.6300  -29.8240   20.2070 C   0  0  0  0  0  2  0  0  0  0  0  0
  -24.6990  -31.0800   22.1240 N   0  0  0  0  0  0  0  0  0  0  0  0
  -23.5640  -32.1740   23.7590 O   0  0  0  0  0  0  0  0  0  0  0  0
  -22.7660  -29.4800   22.5520 C   0  0  0  0  0  0  0  0  0  0  0  0
  -21.4440  -29.2840   22.4120 N   0  0  0  0  0  0  0  0  0  0  0  0
  -23.4430  -28.8730   23.3860 O   0  0  0  0  0  0  0  0  0  0  0  0
  -20.9560  -29.8280   21.7150 H   0  0  0  0  0  0  0  0  0  0  0  0
  -18.0840  -28.0130   22.8500 C   0  0  0  0  0  0  0  0  0  0  0  0
  -20.6260  -28.3460   23.1860 C   0  0  0  0  0  3  0  0  0  0  0  0
  -20.7810  -26.9030   22.6530 C   0  0  0  0  0  2  0  0  0  0  0  0
  -19.7180  -26.5240   21.6180 C   0  0  0  0  0  2  0  0  0  0  0  0
  -18.3150  -26.6510   22.2170 C   0  0  0  0  0  2  0  0  0  0  0  0
  -19.1700  -28.8160   23.2890 C   0  0  0  0  0  0  0  0  0  0  0  0
  -18.9020  -30.0890   23.8390 C   0  0  0  0  0  3  0  0  0  0  0  0
  -17.5810  -30.5610   23.9530 C   0  0  0  0  0  3  0  0  0  0  0  0
  -16.5090  -29.7560   23.5290 C   0  0  0  0  0  3  0  0  0  0  0  0
  -16.7620  -28.4840   22.9840 C   0  0  0  0  0  3  0  0  0  0  0  0
  -25.9320  -32.5200   23.8340 C   0  0  0  0  0  3  0  0  0  0  0  0
  -26.4600  -31.7410   25.1000 C   0  0  1  0  0  0  0  0  0  0  0  0
  -25.3780  -31.4980   26.1780 C   0  0  0  0  0  1  0  0  0  0  0  0
  -27.0380  -30.3650   24.6930 C   0  0  0  0  0  1  0  0  0  0  0  0
  -27.6180  -32.5290   25.7560 C   0  0  0  0  0  1  0  0  0  0  0  0
  -25.6250  -33.9150   24.1780 N   0  0  0  0  0  0  0  0  0  0  0  0
  -25.9450  -34.9750   23.4220 C   0  0  0  0  0  0  0  0  0  0  0  0
  -26.6010  -34.8790   22.3810 O   0  0  0  0  0  0  0  0  0  0  0  0
  -25.0460  -34.0650   24.9920 H   0  0  0  0  0  0  0  0  0  0  0  0
  -24.2050  -36.7630   23.1070 C   0  0  0  0  0  1  0  0  0  0  0  0
  -25.4610  -36.3590   23.8950 C   0  0  0  0  0  3  0  0  0  0  0  0
  -27.6100  -37.2420   24.6900 C   0  0  0  0  0  1  0  0  0  0  0  0
  -26.4880  -37.4160   23.7700 N   0  0  0  0  0  0  0  0  0  0  0  0
  -26.0830  -38.3330   23.9360 H   0  0  0  0  0  0  0  0  0  0  0  0
  1  3  2  0
  1  2  1  0
  2  5  2  0
  3  6  1  0
  4  8  1  0
  5  4  1  0
  5  9  1  0
  6  4  2  0
  6 10  1  0
  7  1  1  0
 11  2  1  0
 11 12  1  0
 13 22  1  0
 13 12  2  0
 14 22  1  0
 15 20  1  0
 16 17  1  0
 16 15  1  0
 18 17  1  0
 18 27  1  0
 18 19  1  0
 20 14  1  0
 20 19  1  0
 21 14  2  0
 22 23  1  0
 24 25  2  0
 25 44  1  0
 26 25  1  0
 26 29  1  0
 27 24  1  0
 27 28  1  0
 28 26  2  0
 29 30  1  0
 30 31  2  0
 32 35  1  0
 32 31  1  0
 33 32  2  0
 34 33  1  0
 34 29  2  0
 35 36  1  0
 36 37  1  0
 37 38  2  0
 39 38  1  0
 39 43  1  0
 40 39  2  0
 41 36  2  0
 41 40  1  0
 42 41  1  0
 44 45  1  0
 45 48  1  0
 45 47  1  0
 46 44  2  0
 49 50  1  0
 49 24  1  0
 51 49  1  0
 52 53  1  0
 52  3  1  0
 54 65  2  0
 55 53  1  0
 55 60  1  0
 56 64  1  0
 56 66  1  0
 57 63  1  0
 57 59  1  0
 58 64  1  0
 59 58  1  0
 60 59  2  0
 61 62  1  0
 61 55  2  0
 62 57  2  0
 63 56  1  0
 64 54  1  0
 66 68  2  0
 67 66  1  0
 69 67  1  0
 70 79  2  0
 70 75  1  0
 71 67  1  0
 71 75  1  0
 72 71  1  0
 73 74  1  0
 73 72  1  0
 74 70  1  0
 75 76  2  0
 76 77  1  0
 78 77  2  0
 79 78  1  0
 80 54  1  0
 80 85  1  0
 80 81  1  0
 81 84  1  1
 81 82  1  0
 83 81  1  0
 85 88  1  0
 86 90  1  0
 86 85  1  0
 87 86  2  0
 90 89  1  0
 92 90  1  0
 92 93  1  0
 92 91  1  0
M  ISO  4  14 100  22 100  52 101  53 101
M  END
>  <TORSDO>  (43) 
F 20

>  <SCORE>  (43) 
-13.818

>  <name>  (43) 
42

>  <ligand_id>  (43) 
42

>  <original_smiles>  (43) 
[H]c1c([H])c([H])c2c(c1[H])C([H])([H])C([H])([H])C([H])([H])C2([H])N([H])C(=O)C1([H])N(C(=O)C([H])(N([H])C(=O)C([H])(N([H])C([H])([H])[H])C([H])([H])[H])C(C([H])([H])[H])(C([H])([H])[H])C([H])([H])[H])C([H])([H])c2c([H])c(OC([H])([H])c3c(Cl)c(C([H])([H])[H])c(Cl)c(C([H])([H])C([H])([H])C([H])([H])N([H])C(=O)N4C([H])([H])C([H])([H])C([H])([H])C([H])(n5nc(-c6c([H])c([H])c(Oc7c([H])c([H])c(F)c([H])c7F)c([H])c6[H])c(C(=O)N([H])[H])c5N([H])[H])C4([H])[H])c3C([H])([H])[H])c([H])c([H])c2C1([H])[H]

>  <smiles>  (43) 
[H]c1c([H])c([H])c2c(c1[H])C([H])([H])C([H])([H])C([H])([H])C2([H])N([H])C(=O)C1([H])N(C(=O)C([H])(N([H])C(=O)C([H])(N([H])C([H])([H])[H])C([H])([H])[H])C(C([H])([H])[H])(C([H])([H])[H])C([H])([H])[H])C([H])([H])c2c([H])c(OC([H])([H])c3c(Cl)c(C([H])([H])[H])c(Cl)c(C([H])([H])C([H])([H])C([H])([H])N([H])C(=O)N4C([H])([H])C([H])([H])C([H])([H])C([H])(n5nc(-c6c([H])c([H])c(Oc7c([H])c([H])c(F)c([H])c7F)c([H])c6[H])c(C(=O)N([H])[H])c5N([H])[H])C4([H])[H])c3C([H])([H])[H])c([H])c([H])c2C1([H])[H]

$$$$
43:0:0
     RDKit          3D

101109  0  0  1  0  0  0  0  0999 V2000
  -29.9820  -21.9270   23.8370 C   0  0  0  0  0  0  0  0  0  0  0  0
  -29.2710  -22.0710   22.6210 C   0  0  0  0  0  0  0  0  0  0  0  0
  -29.6070  -22.7280   24.9400 C   0  0  0  0  0  0  0  0  0  0  0  0
  -28.2120  -23.0030   22.5680 C   0  0  0  0  0  0  0  0  0  0  0  0
  -28.5270  -23.6240   24.7820 C   0  0  0  0  0  0  0  0  0  0  0  0
  -27.8480  -23.7620   23.6220 N   0  0  0  0  0  0  0  0  0  0  0  0
  -29.7050  -21.1480   21.2200 Cl  0  0  0  0  0  0  0  0  0  0  0  0
  -30.4550  -22.6290   26.4490 Cl  0  0  0  0  0  0  0  0  0  0  0  0
  -28.0250  -24.6210   26.1000 Cl  0  0  0  0  0  0  0  0  0  0  0  0
  -31.1320  -20.9360   23.9340 C   0  0  0  0  0  2  0  0  0  0  0  0
  -32.4560  -21.5170   23.3970 C   0  0  0  0  0  2  0  0  0  0  0  0
  -33.4990  -20.4250   23.1110 C   0  0  0  0  0  2  0  0  0  0  0  0
  -33.1830  -19.6770   21.8720 N   0  0  0  0  0  4  0  0  0  0  0  0
  -33.4270  -20.2420   21.0720 H   0  0  0  0  0  0  0  0  0  0  0  0
  -32.1920  -19.5090   21.8280 H   0  0  0  0  0  0  0  0  0  0  0  0
  -33.8510  -18.3660   21.7470 C   0  0  0  0  0  2  0  0  0  0  0  0
  -32.8540  -17.2520   21.3800 C   0  0  0  0  0  2  0  0  0  0  0  0
  -31.7230  -17.0620   22.4180 C   0  0  0  0  0  2  0  0  0  0  0  0
  -31.4320  -15.5970   22.7930 C   0  0  0  0  0  2  0  0  0  0  0  0
  -30.8110  -14.3090   20.7390 C   0  0  0  0  0  0  0  0  0  0  0  0
  -30.4040  -12.2930   19.3770 C   0  0  0  0  0  2  0  0  0  0  0  0
  -29.4740  -12.5410   18.1790 C   0  0  0  0  0  2  0  0  0  0  0  0
  -28.0010  -12.3880   18.5990 C   0  0  0  0  0  2  0  0  0  0  0  0
  -27.6600  -13.2060   19.8720 C   0  0  0  0  0  3  0  0  0  0  0  0
  -28.6960  -12.9530   20.9870 C   0  0  0  0  0  2  0  0  0  0  0  0
  -30.0430  -13.2300   20.4500 N   0  0  0  0  0  0  0  0  0  0  0  0
  -31.8000  -14.6340   20.0780 O   0  0  0  0  0  0  0  0  0  0  0  0
  -30.5110  -14.8920   21.9040 N   0  0  0  0  0  0  0  0  0  0  0  0
  -29.6570  -14.5630   22.3310 H   0  0  0  0  0  0  0  0  0  0  0  0
  -25.2570  -13.8170   20.5660 C   0  0  0  0  0  0  0  0  0  0  0  0
  -24.1820  -13.0440   20.9170 C   0  0  0  0  0  0  0  0  0  0  0  0
  -24.6370  -11.6910   20.8720 C   0  0  0  0  0  0  0  0  0  0  0  0
  -26.3000  -12.9330   20.3330 N   0  0  0  0  0  0  0  0  0  0  0  0
  -25.9290  -11.6480   20.5720 N   0  0  0  0  0  0  0  0  0  0  0  0
  -23.9050  -10.4300   21.0410 C   0  0  0  0  0  0  0  0  0  0  0  0
  -24.3600   -9.4220   21.9190 C   0  0  0  0  0  3  0  0  0  0  0  0
  -23.6280   -8.2250   22.0750 C   0  0  0  0  0  3  0  0  0  0  0  0
  -22.4270   -8.0280   21.3530 C   0  0  0  0  0  0  0  0  0  0  0  0
  -21.9900   -9.0260   20.4640 C   0  0  0  0  0  3  0  0  0  0  0  0
  -22.7230  -10.2140   20.3050 C   0  0  0  0  0  3  0  0  0  0  0  0
  -21.6630   -6.8880   21.4230 O   0  0  0  0  0  0  0  0  0  0  0  0
  -21.6850   -6.0740   22.5270 C   0  0  0  0  0  0  0  0  0  0  0  0
  -21.4010   -6.5640   23.8210 C   0  0  0  0  0  3  0  0  0  0  0  0
  -21.3660   -5.6790   24.9170 C   0  0  0  0  0  3  0  0  0  0  0  0
  -21.6050   -4.3050   24.7220 C   0  0  0  0  0  0  0  0  0  0  0  0
  -21.8820   -3.8140   23.4340 C   0  0  0  0  0  3  0  0  0  0  0  0
  -21.9190   -4.6960   22.3400 C   0  0  0  0  0  0  0  0  0  0  0  0
  -22.1660   -4.2150   21.0980 F   0  0  0  0  0  0  0  0  0  0  0  0
  -21.5630   -3.4540   25.7740 F   0  0  0  0  0  0  0  0  0  0  0  0
  -22.7850  -13.5240   21.1860 C   0  0  0  0  0  0  0  0  0  0  0  0
  -22.0490  -12.8220   22.0410 N   0  0  0  0  0  0  0  0  0  0  0  0
  -22.3540  -14.5560   20.6730 O   0  0  0  0  0  0  0  0  0  0  0  0
  -22.4080  -11.9860   22.4770 H   0  0  0  0  0  0  0  0  0  0  0  0
  -21.1100  -13.1250   22.2620 H   0  0  0  0  0  0  0  0  0  0  0  0
  -25.4330  -15.1890   20.4090 N   0  0  0  0  0  0  0  0  0  0  0  0
  -24.6730  -15.8520   20.5170 H   0  0  0  0  0  0  0  0  0  0  0  0
  -26.3000  -15.6230   20.1170 H   0  0  0  0  0  0  0  0  0  0  0  0
  -27.4300  -23.2500   21.2860 C   0  0  0  0  0  2  0  0  0  0  0  0
  -28.0850  -24.2910   20.3580 C   0  0  0  0  0  2  0  0  0  0  0  0
  -28.3280  -25.6560   21.0300 C   0  0  0  0  0  2  0  0  0  0  0  0
  -28.3790  -26.7240   20.0840 O   0  0  0  0  0  0  0  0  0  0  0  0
  -24.6130  -31.8650   23.2130 C   0  0  0  0  0  0  0  0  0  0  0  0
  -27.2290  -27.4710   20.0720 C   0  0  0  0  0  0  0  0  0  0  0  0
  -23.3970  -30.4930   21.5520 C   0  0  0  0  0  3  0  0  0  0  0  0
  -24.8420  -28.9650   20.1130 C   0  0  0  0  0  0  0  0  0  0  0  0
  -25.9250  -30.8410   21.3630 C   0  0  0  0  0  2  0  0  0  0  0  0
  -26.0020  -29.4830   20.7020 C   0  0  0  0  0  0  0  0  0  0  0  0
  -27.2040  -28.7440   20.6800 C   0  0  0  0  0  3  0  0  0  0  0  0
  -26.0560  -26.9590   19.4810 C   0  0  0  0  0  3  0  0  0  0  0  0
  -24.8590  -27.6980   19.5050 C   0  0  0  0  0  3  0  0  0  0  0  0
  -23.6010  -29.8270   20.1670 C   0  0  0  0  0  2  0  0  0  0  0  0
  -24.6630  -31.0790   22.1010 N   0  0  0  0  0  0  0  0  0  0  0  0
  -23.5330  -32.1380   23.7580 O   0  0  0  0  0  0  0  0  0  0  0  0
  -22.7380  -29.4660   22.4990 C   0  0  0  0  0  0  0  0  0  0  0  0
  -21.4110  -29.3010   22.3730 N   0  0  0  0  0  0  0  0  0  0  0  0
  -23.4180  -28.8200   23.3010 O   0  0  0  0  0  0  0  0  0  0  0  0
  -20.9250  -29.8760   21.7000 H   0  0  0  0  0  0  0  0  0  0  0  0
  -18.0250  -28.1340   22.8480 C   0  0  0  0  0  0  0  0  0  0  0  0
  -20.5850  -28.3620   23.1310 C   0  0  0  0  0  3  0  0  0  0  0  0
  -20.6740  -26.9370   22.5390 C   0  0  0  0  0  2  0  0  0  0  0  0
  -19.5730  -26.6370   21.5170 C   0  0  0  0  0  2  0  0  0  0  0  0
  -18.1910  -26.7900   22.1600 C   0  0  0  0  0  2  0  0  0  0  0  0
  -19.1510  -28.8790   23.2900 C   0  0  0  0  0  0  0  0  0  0  0  0
  -18.9450  -30.1400   23.8900 C   0  0  0  0  0  3  0  0  0  0  0  0
  -17.6460  -30.6570   24.0530 C   0  0  0  0  0  3  0  0  0  0  0  0
  -16.5340  -29.9060   23.6330 C   0  0  0  0  0  3  0  0  0  0  0  0
  -16.7240  -28.6470   23.0350 C   0  0  0  0  0  3  0  0  0  0  0  0
  -25.9040  -32.4780   23.8410 C   0  0  0  0  0  3  0  0  0  0  0  0
  -25.5890  -33.8580   24.2320 N   0  0  0  0  0  0  0  0  0  0  0  0
  -25.9020  -34.9440   23.5130 C   0  0  0  0  0  0  0  0  0  0  0  0
  -26.5610  -34.8890   22.4710 O   0  0  0  0  0  0  0  0  0  0  0  0
  -24.9910  -33.9730   25.0380 H   0  0  0  0  0  0  0  0  0  0  0  0
  -24.1500  -36.7360   23.2640 C   0  0  0  0  0  1  0  0  0  0  0  0
  -25.4080  -36.3070   24.0330 C   0  0  0  0  0  3  0  0  0  0  0  0
  -27.5560  -37.1800   24.8450 C   0  0  0  0  0  1  0  0  0  0  0  0
  -26.4260  -37.3760   23.9410 N   0  0  0  0  0  0  0  0  0  0  0  0
  -26.0120  -38.2830   24.1370 H   0  0  0  0  0  0  0  0  0  0  0  0
  -26.4460  -31.6570   25.0740 C   0  0  1  0  0  0  0  0  0  0  0  0
  -25.3740  -31.3680   26.1510 C   0  0  0  0  0  1  0  0  0  0  0  0
  -27.0280  -30.2980   24.6160 C   0  0  0  0  0  1  0  0  0  0  0  0
  -27.6030  -32.4290   25.7520 C   0  0  0  0  0  1  0  0  0  0  0  0
  1 10  1  0
  1  3  1  0
  2  1  2  0
  3  8  1  0
  4  2  1  0
  4  6  2  0
  5  3  2  0
  5  9  1  0
  6  5  1  0
  7  2  1  0
 11 10  1  0
 12 11  1  0
 13 12  1  0
 14 13  1  0
 15 13  1  0
 16 13  1  0
 17 16  1  0
 17 18  1  0
 18 19  1  0
 20 28  1  0
 21 26  1  0
 22 23  1  0
 22 21  1  0
 24 23  1  0
 24 33  1  0
 24 25  1  0
 26 20  1  0
 26 25  1  0
 27 20  2  0
 28 29  1  0
 28 19  1  0
 30 31  2  0
 31 50  1  0
 32 31  1  0
 32 35  1  0
 33 30  1  0
 33 34  1  0
 34 32  2  0
 35 36  1  0
 36 37  2  0
 38 41  1  0
 38 37  1  0
 39 38  2  0
 40 39  1  0
 40 35  2  0
 41 42  1  0
 42 43  1  0
 43 44  2  0
 45 44  1  0
 45 49  1  0
 46 45  2  0
 47 42  2  0
 47 46  1  0
 48 47  1  0
 50 51  1  0
 51 54  1  0
 51 53  1  0
 52 50  2  0
 55 56  1  0
 55 30  1  0
 57 55  1  0
 58  4  1  0
 59 60  1  0
 59 58  1  0
 61 60  1  0
 62 73  2  0
 63 61  1  0
 63 68  1  0
 64 72  1  0
 64 74  1  0
 65 71  1  0
 65 67  1  0
 66 72  1  0
 67 66  1  0
 68 67  2  0
 69 70  1  0
 69 63  2  0
 70 65  2  0
 71 64  1  0
 72 62  1  0
 74 76  2  0
 75 74  1  0
 77 75  1  0
 78 87  2  0
 78 83  1  0
 79 75  1  0
 79 83  1  0
 80 79  1  0
 81 82  1  0
 81 80  1  0
 82 78  1  0
 83 84  2  0
 84 85  1  0
 86 85  2  0
 87 86  1  0
 88 62  1  0
 88 89  1  0
 88 98  1  0
 89 92  1  0
 90 94  1  0
 90 89  1  0
 91 90  2  0
 94 93  1  0
 96 94  1  0
 96 97  1  0
 96 95  1  0
 98101  1  1
 98 99  1  0
100 98  1  0
M  ISO  4  20 100  28 100  60 101  61 101
M  END
>  <TORSDO>  (44) 
F 27

>  <SCORE>  (44) 
0.146

>  <name>  (44) 
43

>  <ligand_id>  (44) 
43

>  <original_smiles>  (44) 
[H]c1c([H])c([H])c2c(c1[H])C([H])([H])C([H])([H])C([H])([H])C2([H])N([H])C(=O)C1([H])N(C(=O)C([H])(N([H])C(=O)C([H])(N([H])C([H])([H])[H])C([H])([H])[H])C(C([H])([H])[H])(C([H])([H])[H])C([H])([H])[H])C([H])([H])c2c([H])c(OC([H])([H])C([H])([H])C([H])([H])c3nc(Cl)c(Cl)c(C([H])([H])C([H])([H])C([H])([H])[N+]([H])([H])C([H])([H])C([H])([H])C([H])([H])C([H])([H])N([H])C(=O)N4C([H])([H])C([H])([H])C([H])([H])C([H])(n5nc(-c6c([H])c([H])c(Oc7c([H])c([H])c(F)c([H])c7F)c([H])c6[H])c(C(=O)N([H])[H])c5N([H])[H])C4([H])[H])c3Cl)c([H])c([H])c2C1([H])[H]

>  <smiles>  (44) 
[H]c1c([H])c([H])c2c(c1[H])C([H])([H])C([H])([H])C([H])([H])C2([H])N([H])C(=O)C1([H])N(C(=O)C([H])(N([H])C(=O)C([H])(N([H])C([H])([H])[H])C([H])([H])[H])C(C([H])([H])[H])(C([H])([H])[H])C([H])([H])[H])C([H])([H])c2c([H])c(OC([H])([H])C([H])([H])C([H])([H])c3nc(Cl)c(Cl)c(C([H])([H])C([H])([H])C([H])([H])[N+]([H])([H])C([H])([H])C([H])([H])C([H])([H])C([H])([H])N([H])C(=O)N4C([H])([H])C([H])([H])C([H])([H])C([H])(n5nc(-c6c([H])c([H])c(Oc7c([H])c([H])c(F)c([H])c7F)c([H])c6[H])c(C(=O)N([H])[H])c5N([H])[H])C4([H])[H])c3Cl)c([H])c([H])c2C1([H])[H]

$$$$
44:0:0
     RDKit          3D

100108  0  0  1  0  0  0  0  0999 V2000
  -30.9320  -19.4790   18.9330 C   0  0  0  0  0  3  0  0  0  0  0  0
  -30.0310  -20.6970   19.3850 C   0  0  0  0  0  0  0  0  0  0  0  0
  -30.5650  -21.9420   19.3340 N   0  0  0  0  0  0  0  0  0  0  0  0
  -28.8580  -20.5190   19.7170 O   0  0  0  0  0  0  0  0  0  0  0  0
  -31.5120  -21.9680   18.9790 H   0  0  0  0  0  0  0  0  0  0  0  0
  -30.0740  -23.2710   19.8130 C   0  0  0  0  0  2  0  0  0  0  0  0
  -28.7890  -23.8860   19.1660 C   0  0  0  0  0  2  0  0  0  0  0  0
  -28.8360  -25.3990   18.7220 C   0  0  0  0  0  2  0  0  0  0  0  0
  -28.6220  -26.4790   19.6750 O   0  0  0  0  0  0  0  0  0  0  0  0
  -24.8310  -31.5170   23.0710 C   0  0  0  0  0  0  0  0  0  0  0  0
  -27.4460  -27.2240   19.6870 C   0  0  0  0  0  0  0  0  0  0  0  0
  -23.6040  -30.2020   21.3740 C   0  0  0  0  0  3  0  0  0  0  0  0
  -25.0430  -28.7500   19.8360 C   0  0  0  0  0  0  0  0  0  0  0  0
  -26.1290  -30.5700   21.1570 C   0  0  0  0  0  2  0  0  0  0  0  0
  -26.2100  -29.2320   20.4380 C   0  0  0  0  0  0  0  0  0  0  0  0
  -27.4060  -28.4740   20.3680 C   0  0  0  0  0  3  0  0  0  0  0  0
  -26.2530  -26.7700   19.0770 C   0  0  0  0  0  3  0  0  0  0  0  0
  -25.0620  -27.5190   19.1560 C   0  0  0  0  0  3  0  0  0  0  0  0
  -23.7970  -29.6020   19.9550 C   0  0  0  0  0  2  0  0  0  0  0  0
  -24.8740  -30.7760   21.9250 N   0  0  0  0  0  0  0  0  0  0  0  0
  -23.7580  -31.7550   23.6430 O   0  0  0  0  0  0  0  0  0  0  0  0
  -22.9730  -29.1250   22.2870 C   0  0  0  0  0  0  0  0  0  0  0  0
  -21.6500  -28.9280   22.1570 N   0  0  0  0  0  0  0  0  0  0  0  0
  -23.6710  -28.4730   23.0670 O   0  0  0  0  0  0  0  0  0  0  0  0
  -21.1490  -29.5130   21.5020 H   0  0  0  0  0  0  0  0  0  0  0  0
  -18.2960  -27.6590   22.6060 C   0  0  0  0  0  0  0  0  0  0  0  0
  -20.8520  -27.9380   22.8790 C   0  0  0  0  0  3  0  0  0  0  0  0
  -20.9710  -26.5400   22.2260 C   0  0  0  0  0  2  0  0  0  0  0  0
  -19.8690  -26.2560   21.2010 C   0  0  0  0  0  2  0  0  0  0  0  0
  -18.4900  -26.3490   21.8600 C   0  0  0  0  0  2  0  0  0  0  0  0
  -19.4080  -28.4130   23.0700 C   0  0  0  0  0  0  0  0  0  0  0  0
  -19.1750  -29.6410   23.7260 C   0  0  0  0  0  3  0  0  0  0  0  0
  -17.8650  -30.1150   23.9250 C   0  0  0  0  0  3  0  0  0  0  0  0
  -16.7680  -29.3550   23.4800 C   0  0  0  0  0  3  0  0  0  0  0  0
  -16.9860  -28.1300   22.8260 C   0  0  0  0  0  3  0  0  0  0  0  0
  -26.1250  -32.1190   23.7030 C   0  0  0  0  0  3  0  0  0  0  0  0
  -26.6510  -31.2980   24.9450 C   0  0  1  0  0  0  0  0  0  0  0  0
  -25.5640  -31.0200   26.0100 C   0  0  0  0  0  1  0  0  0  0  0  0
  -27.2290  -29.9370   24.4950 C   0  0  0  0  0  1  0  0  0  0  0  0
  -27.8070  -32.0650   25.6290 C   0  0  0  0  0  1  0  0  0  0  0  0
  -25.8270  -33.5070   24.0850 N   0  0  0  0  0  0  0  0  0  0  0  0
  -26.1810  -34.5830   23.3730 C   0  0  0  0  0  0  0  0  0  0  0  0
  -26.8660  -34.5130   22.3460 O   0  0  0  0  0  0  0  0  0  0  0  0
  -25.2210  -33.6370   24.8830 H   0  0  0  0  0  0  0  0  0  0  0  0
  -24.4790  -36.4090   23.0650 C   0  0  0  0  0  1  0  0  0  0  0  0
  -25.7020  -35.9570   23.8780 C   0  0  0  0  0  3  0  0  0  0  0  0
  -27.8270  -36.7890   24.7860 C   0  0  0  0  0  1  0  0  0  0  0  0
  -26.7480  -37.0020   23.8250 N   0  0  0  0  0  0  0  0  0  0  0  0
  -26.3480  -37.9210   23.9950 H   0  0  0  0  0  0  0  0  0  0  0  0
  -30.2900  -18.8100   17.6860 C   0  0  0  0  0  2  0  0  0  0  0  0
  -31.7420  -19.6670   15.7280 C   0  0  0  0  0  1  0  0  0  0  0  0
  -30.3500  -19.6130   16.3680 C   0  0  0  0  0  2  0  0  0  0  0  0
  -31.3200  -18.3330   20.0050 C   0  0  0  0  0  3  0  0  0  0  0  0
  -33.2290  -17.6810   18.3320 C   0  0  0  0  0  1  0  0  0  0  0  0
  -33.5600  -17.0440   20.6660 C   0  0  0  0  0  1  0  0  0  0  0  0
  -32.4510  -17.2260   19.5950 C   0  0  1  0  0  0  0  0  0  0  0  0
  -32.4460  -14.6310   19.1460 C   0  0  0  0  0  0  0  0  0  0  0  0
  -31.9430  -12.2660   18.5870 C   0  0  0  0  0  2  0  0  0  0  0  0
  -30.8920  -12.2230   17.4600 C   0  0  0  0  0  2  0  0  0  0  0  0
  -29.4700  -12.2600   18.0520 C   0  0  0  0  0  2  0  0  0  0  0  0
  -29.2880  -13.3890   19.1040 C   0  0  0  0  0  3  0  0  0  0  0  0
  -30.4510  -13.3980   20.1190 C   0  0  0  0  0  2  0  0  0  0  0  0
  -31.7020  -13.5020   19.3580 N   0  0  0  0  0  0  0  0  0  0  0  0
  -33.5410  -14.5570   18.5880 O   0  0  0  0  0  0  0  0  0  0  0  0
  -31.8740  -15.8340   19.4650 N   0  0  0  0  0  0  0  0  0  0  0  0
  -30.9250  -15.7470   19.7950 H   0  0  0  0  0  0  0  0  0  0  0  0
  -27.1680  -14.3250   20.2130 C   0  0  0  0  0  0  0  0  0  0  0  0
  -26.0330  -13.7190   20.6810 C   0  0  0  0  0  0  0  0  0  0  0  0
  -26.2240  -12.3160   20.4830 C   0  0  0  0  0  0  0  0  0  0  0  0
  -27.9880  -13.3030   19.7630 N   0  0  0  0  0  0  0  0  0  0  0  0
  -27.4300  -12.0820   19.9800 N   0  0  0  0  0  0  0  0  0  0  0  0
  -25.3040  -11.1910   20.6910 C   0  0  0  0  0  0  0  0  0  0  0  0
  -25.5760  -10.1800   21.6400 C   0  0  0  0  0  3  0  0  0  0  0  0
  -24.6680   -9.1160   21.8340 C   0  0  0  0  0  3  0  0  0  0  0  0
  -23.4720   -9.0580   21.0810 C   0  0  0  0  0  0  0  0  0  0  0  0
  -23.2130  -10.0570   20.1250 C   0  0  0  0  0  3  0  0  0  0  0  0
  -24.1200  -11.1110   19.9300 C   0  0  0  0  0  3  0  0  0  0  0  0
  -22.5450   -8.0490   21.1830 O   0  0  0  0  0  0  0  0  0  0  0  0
  -22.2390   -7.4750   22.3900 C   0  0  0  0  0  0  0  0  0  0  0  0
  -21.7100   -8.2280   23.4600 C   0  0  0  0  0  3  0  0  0  0  0  0
  -21.3420   -7.5850   24.6590 C   0  0  0  0  0  3  0  0  0  0  0  0
  -21.4960   -6.1920   24.7870 C   0  0  0  0  0  0  0  0  0  0  0  0
  -22.0190   -5.4390   23.7220 C   0  0  0  0  0  3  0  0  0  0  0  0
  -22.3870   -6.0800   22.5250 C   0  0  0  0  0  0  0  0  0  0  0  0
  -22.8700   -5.3460   21.4920 F   0  0  0  0  0  0  0  0  0  0  0  0
  -21.1350   -5.5730   25.9360 F   0  0  0  0  0  0  0  0  0  0  0  0
  -24.8010  -14.4090   21.1900 C   0  0  0  0  0  0  0  0  0  0  0  0
  -24.0950  -13.7940   22.1340 N   0  0  0  0  0  0  0  0  0  0  0  0
  -24.4830  -15.5280   20.7880 O   0  0  0  0  0  0  0  0  0  0  0  0
  -24.3680  -12.8870   22.4850 H   0  0  0  0  0  0  0  0  0  0  0  0
  -23.2720  -14.2370   22.5140 H   0  0  0  0  0  0  0  0  0  0  0  0
  -27.5540  -15.6570   20.1170 N   0  0  0  0  0  0  0  0  0  0  0  0
  -26.9220  -16.4010   20.3900 H   0  0  0  0  0  0  0  0  0  0  0  0
  -28.4070  -15.9970   19.6910 H   0  0  0  0  0  0  0  0  0  0  0  0
  -30.1830  -19.0500   22.2890 C   0  0  0  0  0  2  0  0  0  0  0  0
  -31.1410  -17.9600   22.6310 C   0  0  0  0  0  2  0  0  0  0  0  0
  -31.4560  -18.8790   21.4530 C   0  0  1  0  0  0  0  0  0  0  0  0
  -32.5910  -19.9030   21.6430 C   0  0  0  0  0  3  0  0  0  0  0  0
  -32.1130  -21.1130   21.9380 F   0  0  0  0  0  0  0  0  0  0  0  0
  -33.4020  -20.0240   20.5910 F   0  0  0  0  0  0  0  0  0  0  0  0
  1 50  1  0
  1  2  1  0
  1 53  1  0
  2  4  2  0
  3  2  1  0
  3  6  1  0
  5  3  1  0
  7  6  1  0
  8  7  1  0
  8  9  1  0
  9 11  1  0
 10 21  2  0
 11 16  1  0
 12 20  1  0
 12 22  1  0
 13 19  1  0
 13 15  1  0
 14 20  1  0
 15 14  1  0
 16 15  2  0
 17 18  1  0
 17 11  2  0
 18 13  2  0
 19 12  1  0
 20 10  1  0
 22 24  2  0
 23 22  1  0
 25 23  1  0
 26 35  2  0
 26 31  1  0
 27 23  1  0
 27 31  1  0
 28 27  1  0
 29 30  1  0
 29 28  1  0
 30 26  1  0
 31 32  2  0
 32 33  1  0
 34 33  2  0
 35 34  1  0
 36 10  1  0
 36 41  1  0
 36 37  1  0
 37 40  1  1
 37 38  1  0
 39 37  1  0
 41 44  1  0
 42 46  1  0
 42 41  1  0
 43 42  2  0
 46 45  1  0
 48 46  1  0
 48 49  1  0
 48 47  1  0
 51 52  1  0
 52 50  1  0
 53 56  1  0
 97 53  1  6
 56 54  1  6
 56 55  1  0
 57 63  1  0
 57 65  1  0
 58 63  1  0
 59 60  1  0
 59 58  1  0
 61 60  1  0
 61 70  1  0
 61 62  1  0
 63 62  1  0
 64 57  2  0
 65 56  1  0
 65 66  1  0
 67 68  2  0
 68 87  1  0
 69 68  1  0
 69 72  1  0
 70 71  1  0
 70 67  1  0
 71 69  2  0
 72 73  1  0
 73 74  2  0
 75 78  1  0
 75 74  1  0
 76 75  2  0
 77 76  1  0
 77 72  2  0
 78 79  1  0
 79 84  2  0
 79 80  1  0
 80 81  2  0
 81 82  1  0
 82 86  1  0
 83 82  2  0
 84 83  1  0
 85 84  1  0
 87 88  1  0
 88 90  1  0
 88 91  1  0
 89 87  2  0
 92 67  1  0
 92 93  1  0
 94 92  1  0
 95 96  1  0
 97 98  1  0
 97 95  1  0
 97 96  1  0
 98 99  1  0
100 98  1  0
M  ISO  4   8 101   9 101  57 100  65 100
M  END
>  <TORSDO>  (45) 
F 26

>  <SCORE>  (45) 
-7.975

>  <name>  (45) 
44

>  <ligand_id>  (45) 
44

>  <original_smiles>  (45) 
[H]c1c([H])c([H])c2c(c1[H])C([H])([H])C([H])([H])C([H])([H])C2([H])N([H])C(=O)C1([H])N(C(=O)C([H])(N([H])C(=O)C([H])(N([H])C([H])([H])[H])C([H])([H])[H])C(C([H])([H])[H])(C([H])([H])[H])C([H])([H])[H])C([H])([H])c2c([H])c(OC([H])([H])C([H])([H])C([H])([H])N([H])C(=O)C([H])(C([H])([H])C([H])([H])C([H])([H])[H])C([H])(C(N([H])C(=O)N3C([H])([H])C([H])([H])C([H])([H])C([H])(n4nc(-c5c([H])c([H])c(Oc6c([H])c([H])c(F)c([H])c6F)c([H])c5[H])c(C(=O)N([H])[H])c4N([H])[H])C3([H])[H])(C([H])([H])[H])C([H])([H])[H])C3(C([H])(F)F)C([H])([H])C3([H])[H])c([H])c([H])c2C1([H])[H]

>  <smiles>  (45) 
[H]c1c([H])c([H])c2c(c1[H])C([H])([H])C([H])([H])C([H])([H])C2([H])N([H])C(=O)C1([H])N(C(=O)C([H])(N([H])C(=O)C([H])(N([H])C([H])([H])[H])C([H])([H])[H])C(C([H])([H])[H])(C([H])([H])[H])C([H])([H])[H])C([H])([H])c2c([H])c(OC([H])([H])C([H])([H])C([H])([H])N([H])C(=O)C([H])(C([H])([H])C([H])([H])C([H])([H])[H])C([H])(C(N([H])C(=O)N3C([H])([H])C([H])([H])C([H])([H])C([H])(n4nc(-c5c([H])c([H])c(Oc6c([H])c([H])c(F)c([H])c6F)c([H])c5[H])c(C(=O)N([H])[H])c4N([H])[H])C3([H])[H])(C([H])([H])[H])C([H])([H])[H])C3(C([H])(F)F)C([H])([H])C3([H])[H])c([H])c([H])c2C1([H])[H]

$$$$
45:0:0
     RDKit          3D

 97106  0  0  1  0  0  0  0  0999 V2000
  -30.7270  -20.0380   20.7560 C   0  0  0  0  0  3  0  0  0  0  0  0
  -28.3990  -21.1420   19.7700 C   0  0  0  0  0  0  0  0  0  0  0  0
  -28.7220  -19.7190   19.4820 C   0  0  0  0  0  0  0  0  0  0  0  0
  -29.9050  -19.0880   20.0800 C   0  0  0  0  0  0  0  0  0  0  0  0
  -29.3380  -22.0930   20.3210 C   0  0  0  0  0  0  0  0  0  0  0  0
  -30.5000  -21.4480   20.8260 C   0  0  0  0  0  0  0  0  0  0  0  0
  -26.9650  -21.6670   19.6800 C   0  0  0  0  0  2  0  0  0  0  0  0
  -25.6990  -20.4410   17.8930 C   0  0  0  0  0  2  0  0  0  0  0  0
  -26.3360  -19.1790   18.5100 C   0  0  0  0  0  2  0  0  0  0  0  0
  -26.3750  -21.7630   18.2740 C   0  0  0  0  0  3  0  0  0  0  0  0
  -27.8770  -18.9840   18.3760 C   0  0  1  0  0  0  0  0  0  0  0  0
  -25.3950  -22.9390   18.1550 C   0  0  0  0  0  1  0  0  0  0  0  0
  -28.3910  -19.4380   16.9910 C   0  0  0  0  0  1  0  0  0  0  0  0
  -28.0460  -17.4570   18.3500 C   0  0  0  0  0  1  0  0  0  0  0  0
  -31.4330  -22.1970   21.4620 F   0  0  0  0  0  0  0  0  0  0  0  0
  -29.1950  -23.7100   20.5930 C   0  0  0  0  0  3  0  0  0  0  0  0
  -28.2570  -24.8640   19.8730 C   0  0  0  0  0  3  0  0  0  0  0  0
  -28.4300  -26.3640   20.1420 O   0  0  0  0  0  0  0  0  0  0  0  0
  -24.5480  -31.7640   23.1460 C   0  0  0  0  0  0  0  0  0  0  0  0
  -27.3350  -27.2790   20.0460 C   0  0  0  0  0  0  0  0  0  0  0  0
  -23.4270  -30.3950   21.4270 C   0  0  0  0  0  3  0  0  0  0  0  0
  -24.9530  -28.9150   19.9900 C   0  0  0  0  0  0  0  0  0  0  0  0
  -25.9690  -30.7530   21.3340 C   0  0  0  0  0  2  0  0  0  0  0  0
  -26.0980  -29.3880   20.6460 C   0  0  0  0  0  0  0  0  0  0  0  0
  -27.2890  -28.5840   20.6630 C   0  0  0  0  0  3  0  0  0  0  0  0
  -26.1740  -26.9000   19.3390 C   0  0  0  0  0  3  0  0  0  0  0  0
  -25.0000  -27.6820   19.3210 C   0  0  0  0  0  3  0  0  0  0  0  0
  -23.7000  -29.7720   20.0320 C   0  0  0  0  0  2  0  0  0  0  0  0
  -24.6660  -30.9910   22.0250 N   0  0  0  0  0  0  0  0  0  0  0  0
  -23.4440  -32.0020   23.6560 O   0  0  0  0  0  0  0  0  0  0  0  0
  -22.7530  -29.3380   22.3370 C   0  0  0  0  0  0  0  0  0  0  0  0
  -21.4270  -29.1650   22.1940 N   0  0  0  0  0  0  0  0  0  0  0  0
  -23.4260  -28.6780   23.1320 O   0  0  0  0  0  0  0  0  0  0  0  0
  -20.9410  -29.7500   21.5280 H   0  0  0  0  0  0  0  0  0  0  0  0
  -18.0470  -27.9560   22.6460 C   0  0  0  0  0  0  0  0  0  0  0  0
  -20.6070  -28.1890   22.9160 C   0  0  0  0  0  3  0  0  0  0  0  0
  -20.7010  -26.7920   22.2580 C   0  0  0  0  0  2  0  0  0  0  0  0
  -19.5920  -26.5330   21.2340 C   0  0  0  0  0  2  0  0  0  0  0  0
  -18.2130  -26.6470   21.8920 C   0  0  0  0  0  2  0  0  0  0  0  0
  -19.1700  -28.6870   23.1130 C   0  0  0  0  0  0  0  0  0  0  0  0
  -18.9600  -29.9140   23.7780 C   0  0  0  0  0  3  0  0  0  0  0  0
  -17.6580  -30.4080   23.9830 C   0  0  0  0  0  3  0  0  0  0  0  0
  -16.5490  -29.6730   23.5300 C   0  0  0  0  0  3  0  0  0  0  0  0
  -16.7430  -28.4490   22.8670 C   0  0  0  0  0  3  0  0  0  0  0  0
  -25.7940  -32.4070   23.8280 C   0  0  0  0  0  3  0  0  0  0  0  0
  -26.2590  -31.6350   25.1250 C   0  0  1  0  0  0  0  0  0  0  0  0
  -25.1240  -31.4030   26.1500 C   0  0  0  0  0  1  0  0  0  0  0  0
  -26.8550  -30.2570   24.7590 C   0  0  0  0  0  1  0  0  0  0  0  0
  -27.3850  -32.4270   25.8280 C   0  0  0  0  0  1  0  0  0  0  0  0
  -25.4570  -33.8020   24.1530 N   0  0  0  0  0  0  0  0  0  0  0  0
  -25.8010  -34.8640   23.4110 C   0  0  0  0  0  0  0  0  0  0  0  0
  -26.5020  -34.7710   22.3990 O   0  0  0  0  0  0  0  0  0  0  0  0
  -24.8360  -33.9470   24.9360 H   0  0  0  0  0  0  0  0  0  0  0  0
  -24.0570  -36.6370   23.0250 C   0  0  0  0  0  1  0  0  0  0  0  0
  -25.2870  -36.2460   23.8620 C   0  0  0  0  0  3  0  0  0  0  0  0
  -27.3920  -37.1580   24.7360 C   0  0  0  0  0  1  0  0  0  0  0  0
  -26.3090  -37.3120   23.7690 N   0  0  0  0  0  0  0  0  0  0  0  0
  -25.8870  -38.2260   23.9060 H   0  0  0  0  0  0  0  0  0  0  0  0
  -30.5890  -17.5930   19.9290 C   0  0  0  0  0  2  0  0  0  0  0  0
  -30.8150  -14.9620   20.1780 C   0  0  0  0  0  0  0  0  0  0  0  0
  -30.5650  -12.6520   19.2170 C   0  0  0  0  0  2  0  0  0  0  0  0
  -29.6130  -12.6800   18.0000 C   0  0  0  0  0  2  0  0  0  0  0  0
  -28.1520  -12.5140   18.4550 C   0  0  0  0  0  2  0  0  0  0  0  0
  -27.7910  -13.4260   19.6560 C   0  0  0  0  0  3  0  0  0  0  0  0
  -28.8690  -13.3930   20.7640 C   0  0  0  0  0  2  0  0  0  0  0  0
  -30.1520  -13.7440   20.1420 N   0  0  0  0  0  0  0  0  0  0  0  0
  -31.9970  -14.9870   19.8270 O   0  0  0  0  0  0  0  0  0  0  0  0
  -30.1250  -16.1710   20.3710 N   0  0  0  0  0  0  0  0  0  0  0  0
  -29.1620  -16.0910   20.6600 H   0  0  0  0  0  0  0  0  0  0  0  0
  -25.4290  -14.0260   20.4560 C   0  0  0  0  0  0  0  0  0  0  0  0
  -24.3600  -13.2630   20.8280 C   0  0  0  0  0  0  0  0  0  0  0  0
  -24.8010  -11.9080   20.7570 C   0  0  0  0  0  0  0  0  0  0  0  0
  -26.4560  -13.1400   20.1750 N   0  0  0  0  0  0  0  0  0  0  0  0
  -26.0860  -11.8560   20.4210 N   0  0  0  0  0  0  0  0  0  0  0  0
  -24.0540  -10.6570   20.9330 C   0  0  0  0  0  0  0  0  0  0  0  0
  -24.4870   -9.6590   21.8320 C   0  0  0  0  0  3  0  0  0  0  0  0
  -23.7410   -8.4730   22.0000 C   0  0  0  0  0  3  0  0  0  0  0  0
  -22.5460   -8.2780   21.2670 C   0  0  0  0  0  0  0  0  0  0  0  0
  -22.1310   -9.2650   20.3550 C   0  0  0  0  0  3  0  0  0  0  0  0
  -22.8780  -10.4420   20.1860 C   0  0  0  0  0  3  0  0  0  0  0  0
  -21.7680   -7.1480   21.3460 O   0  0  0  0  0  0  0  0  0  0  0  0
  -21.7280   -6.3810   22.4810 C   0  0  0  0  0  0  0  0  0  0  0  0
  -21.3510   -6.9190   23.7320 C   0  0  0  0  0  3  0  0  0  0  0  0
  -21.2590   -6.0780   24.8590 C   0  0  0  0  0  3  0  0  0  0  0  0
  -21.5300   -4.7030   24.7370 C   0  0  0  0  0  0  0  0  0  0  0  0
  -21.8980   -4.1650   23.4920 C   0  0  0  0  0  3  0  0  0  0  0  0
  -21.9930   -5.0020   22.3660 C   0  0  0  0  0  0  0  0  0  0  0  0
  -22.3290   -4.4730   21.1650 F   0  0  0  0  0  0  0  0  0  0  0  0
  -21.4320   -3.8940   25.8190 F   0  0  0  0  0  0  0  0  0  0  0  0
  -22.9770  -13.7620   21.1300 C   0  0  0  0  0  0  0  0  0  0  0  0
  -22.2620  -13.0830   22.0190 N   0  0  0  0  0  0  0  0  0  0  0  0
  -22.5410  -14.7910   20.6130 O   0  0  0  0  0  0  0  0  0  0  0  0
  -22.6280  -12.2520   22.4570 H   0  0  0  0  0  0  0  0  0  0  0  0
  -21.3330  -13.3980   22.2640 H   0  0  0  0  0  0  0  0  0  0  0  0
  -25.5960  -15.3950   20.3100 N   0  0  0  0  0  0  0  0  0  0  0  0
  -24.8220  -16.0360   20.4390 H   0  0  0  0  0  0  0  0  0  0  0  0
  -26.4140  -15.8330   19.9100 H   0  0  0  0  0  0  0  0  0  0  0  0
  1  6  1  0
  2  5  1  0
  3  2  2  0
  3  4  1  0
  4  1  2  0
  5 16  1  0
  5  6  2  0
  6 15  1  0
  7  2  1  0
  8 10  1  0
  8  9  1  0
 10 12  1  0
 10  7  1  0
 11  9  1  0
 11  3  1  0
 11 13  1  6
 14 11  1  0
 17 18  1  0
 17 16  2  0
 19 30  2  0
 20 18  1  0
 20 25  1  0
 21 29  1  0
 21 31  1  0
 22 28  1  0
 22 24  1  0
 23 29  1  0
 24 25  2  0
 24 23  1  0
 26 20  2  0
 27 26  1  0
 27 22  2  0
 28 21  1  0
 29 19  1  0
 31 33  2  0
 32 31  1  0
 34 32  1  0
 35 44  2  0
 35 40  1  0
 36 32  1  0
 36 40  1  0
 37 36  1  0
 38 39  1  0
 38 37  1  0
 39 35  1  0
 40 41  2  0
 41 42  1  0
 43 42  2  0
 44 43  1  0
 45 19  1  0
 45 50  1  0
 45 46  1  0
 46 49  1  1
 46 47  1  0
 48 46  1  0
 50 53  1  0
 51 55  1  0
 51 50  1  0
 52 51  2  0
 55 54  1  0
 57 55  1  0
 57 58  1  0
 57 56  1  0
 59  4  1  0
 59 68  1  0
 60 68  1  0
 61 66  1  0
 62 63  1  0
 62 61  1  0
 64 63  1  0
 64 73  1  0
 64 65  1  0
 66 60  1  0
 66 65  1  0
 67 60  2  0
 68 69  1  0
 70 71  2  0
 71 90  1  0
 72 71  1  0
 72 75  1  0
 73 74  1  0
 73 70  1  0
 74 72  2  0
 75 76  1  0
 76 77  2  0
 78 81  1  0
 78 77  1  0
 79 78  2  0
 80 79  1  0
 80 75  2  0
 81 82  1  0
 82 83  1  0
 83 84  2  0
 85 84  1  0
 85 89  1  0
 86 85  2  0
 87 82  2  0
 87 86  1  0
 88 87  1  0
 90 91  1  0
 91 94  1  0
 91 93  1  0
 92 90  2  0
 95 96  1  0
 95 70  1  0
 97 95  1  0
M  ISO  4  17 101  18 101  60 100  68 100
M  END
>  <TORSDO>  (46) 
F 19

>  <SCORE>  (46) 
-14.356

>  <name>  (46) 
45

>  <ligand_id>  (46) 
45

>  <original_smiles>  (46) 
[H]c1c([H])c([H])c2c(c1[H])C([H])([H])C([H])([H])C([H])([H])C2([H])N([H])C(=O)C1([H])N(C(=O)C([H])(N([H])C(=O)C([H])(N([H])C([H])([H])[H])C([H])([H])[H])C(C([H])([H])[H])(C([H])([H])[H])C([H])([H])[H])C([H])([H])c2c([H])c(OC([H])([H])C([H])([H])c3c(F)c([H])c(C([H])([H])N([H])C(=O)N4C([H])([H])C([H])([H])C([H])([H])C([H])(n5nc(-c6c([H])c([H])c(Oc7c([H])c([H])c(F)c([H])c7F)c([H])c6[H])c(C(=O)N([H])[H])c5N([H])[H])C4([H])[H])c4c3C([H])([H])C([H])(C([H])([H])[H])C([H])([H])C([H])([H])C4(C([H])([H])[H])C([H])([H])[H])c([H])c([H])c2C1([H])[H]

>  <smiles>  (46) 
[H]c1c([H])c([H])c2c(c1[H])C([H])([H])C([H])([H])C([H])([H])C2([H])N([H])C(=O)C1([H])N(C(=O)C([H])(N([H])C(=O)C([H])(N([H])C([H])([H])[H])C([H])([H])[H])C(C([H])([H])[H])(C([H])([H])[H])C([H])([H])[H])C([H])([H])c2c([H])c(OC([H])([H])C([H])([H])c3c(F)c([H])c(C([H])([H])N([H])C(=O)N4C([H])([H])C([H])([H])C([H])([H])C([H])(n5nc(-c6c([H])c([H])c(Oc7c([H])c([H])c(F)c([H])c7F)c([H])c6[H])c(C(=O)N([H])[H])c5N([H])[H])C4([H])[H])c4c3C([H])([H])C([H])(C([H])([H])[H])C([H])([H])C([H])([H])C4(C([H])([H])[H])C([H])([H])[H])c([H])c([H])c2C1([H])[H]

$$$$
46:0:0
     RDKit          3D

 91 99  0  0  1  0  0  0  0  0999 V2000
  -28.7590  -20.2540   20.6500 C   0  0  0  0  0  2  0  0  0  0  0  0
  -31.2370  -19.6000   20.5990 C   0  0  0  0  0  3  0  0  0  0  0  0
  -31.9740  -17.2890   20.8540 C   0  0  0  0  0  3  0  0  0  0  0  0
  -29.5970  -17.8170   20.9170 C   0  0  0  0  0  3  0  0  0  0  0  0
  -32.2760  -18.6530   20.6740 C   0  0  0  0  0  0  0  0  0  0  0  0
  -29.8900  -19.2050   20.7450 C   0  0  0  0  0  0  0  0  0  0  0  0
  -30.6330  -16.8400   20.9380 C   0  0  0  0  0  0  0  0  0  0  0  0
  -33.7190  -19.1040   20.5540 C   0  0  0  0  0  1  0  0  0  0  0  0
  -30.7130  -14.5090   20.1680 C   0  0  0  0  0  0  0  0  0  0  0  0
  -30.2370  -12.4200   18.9170 C   0  0  0  0  0  2  0  0  0  0  0  0
  -29.2330  -12.6530   17.7730 C   0  0  0  0  0  2  0  0  0  0  0  0
  -27.7900  -12.4970   18.2830 C   0  0  0  0  0  2  0  0  0  0  0  0
  -27.5280  -13.3050   19.5790 C   0  0  0  0  0  3  0  0  0  0  0  0
  -28.6420  -13.0820   20.6240 C   0  0  0  0  0  2  0  0  0  0  0  0
  -29.9480  -13.3800   20.0050 N   0  0  0  0  0  0  0  0  0  0  0  0
  -31.7010  -14.7020   19.4540 O   0  0  0  0  0  0  0  0  0  0  0  0
  -30.3720  -14.9920   22.5230 C   0  0  0  0  0  1  0  0  0  0  0  0
  -30.3650  -15.4290   21.1210 N   0  0  0  0  0  0  0  0  0  0  0  0
  -25.1870  -13.8980   20.4640 C   0  0  0  0  0  0  0  0  0  0  0  0
  -24.1370  -13.1180   20.8740 C   0  0  0  0  0  0  0  0  0  0  0  0
  -24.5840  -11.7670   20.7660 C   0  0  0  0  0  0  0  0  0  0  0  0
  -26.2050  -13.0190   20.1330 N   0  0  0  0  0  0  0  0  0  0  0  0
  -25.8510  -11.7300   20.3710 N   0  0  0  0  0  0  0  0  0  0  0  0
  -23.8590  -10.5030   20.9590 C   0  0  0  0  0  0  0  0  0  0  0  0
  -24.3410   -9.5020   21.8300 C   0  0  0  0  0  3  0  0  0  0  0  0
  -23.6180   -8.3030   22.0130 C   0  0  0  0  0  3  0  0  0  0  0  0
  -22.3990   -8.0970   21.3250 C   0  0  0  0  0  0  0  0  0  0  0  0
  -21.9330   -9.0890   20.4430 C   0  0  0  0  0  3  0  0  0  0  0  0
  -22.6570  -10.2800   20.2590 C   0  0  0  0  0  3  0  0  0  0  0  0
  -21.6420   -6.9530   21.4220 O   0  0  0  0  0  0  0  0  0  0  0  0
  -21.6590   -6.1700   22.5490 C   0  0  0  0  0  0  0  0  0  0  0  0
  -21.3390   -6.6910   23.8220 C   0  0  0  0  0  3  0  0  0  0  0  0
  -21.2980   -5.8380   24.9420 C   0  0  0  0  0  3  0  0  0  0  0  0
  -21.5690   -4.4640   24.7910 C   0  0  0  0  0  0  0  0  0  0  0  0
  -21.8820   -3.9430   23.5240 C   0  0  0  0  0  3  0  0  0  0  0  0
  -21.9240   -4.7930   22.4050 C   0  0  0  0  0  0  0  0  0  0  0  0
  -22.2050   -4.2830   21.1810 F   0  0  0  0  0  0  0  0  0  0  0  0
  -21.5230   -3.6400   25.8640 F   0  0  0  0  0  0  0  0  0  0  0  0
  -22.7630  -13.5970   21.2500 C   0  0  0  0  0  0  0  0  0  0  0  0
  -22.0910  -12.8860   22.1460 N   0  0  0  0  0  0  0  0  0  0  0  0
  -22.2960  -14.6340   20.7830 O   0  0  0  0  0  0  0  0  0  0  0  0
  -22.4830  -12.0460   22.5500 H   0  0  0  0  0  0  0  0  0  0  0  0
  -21.1710  -13.1890   22.4340 H   0  0  0  0  0  0  0  0  0  0  0  0
  -25.3490  -15.2720   20.3240 N   0  0  0  0  0  0  0  0  0  0  0  0
  -24.6070  -15.9280   20.5430 H   0  0  0  0  0  0  0  0  0  0  0  0
  -26.1750  -15.7230   19.9440 H   0  0  0  0  0  0  0  0  0  0  0  0
  -29.0260  -21.7070   21.1870 C   0  0  0  0  0  3  0  0  0  0  0  0
  -28.8570  -22.8580   20.1430 C   0  0  0  0  0  3  0  0  0  0  0  0
  -28.6780  -24.2970   20.7250 C   0  0  0  0  0  2  0  0  0  0  0  0
  -28.6710  -25.4280   19.6500 C   0  0  0  0  0  2  0  0  0  0  0  0
  -28.5040  -26.7610   20.1850 O   0  0  0  0  0  0  0  0  0  0  0  0
  -24.5990  -31.8950   23.2030 C   0  0  0  0  0  0  0  0  0  0  0  0
  -27.2910  -27.4370   20.1520 C   0  0  0  0  0  0  0  0  0  0  0  0
  -23.4050  -30.4730   21.5690 C   0  0  0  0  0  3  0  0  0  0  0  0
  -24.8720  -28.9320   20.1600 C   0  0  0  0  0  0  0  0  0  0  0  0
  -25.9270  -30.8530   21.3650 C   0  0  0  0  0  2  0  0  0  0  0  0
  -26.0270  -29.4760   20.7320 C   0  0  0  0  0  0  0  0  0  0  0  0
  -27.2360  -28.7380   20.7180 C   0  0  0  0  0  3  0  0  0  0  0  0
  -26.1070  -26.9070   19.5900 C   0  0  0  0  0  3  0  0  0  0  0  0
  -24.9080  -27.6480   19.5880 C   0  0  0  0  0  3  0  0  0  0  0  0
  -23.6200  -29.7770   20.1990 C   0  0  0  0  0  2  0  0  0  0  0  0
  -24.6610  -31.0910   22.1030 N   0  0  0  0  0  0  0  0  0  0  0  0
  -23.5160  -32.1620   23.7440 O   0  0  0  0  0  0  0  0  0  0  0  0
  -22.7620  -29.4560   22.5390 C   0  0  0  0  0  0  0  0  0  0  0  0
  -21.4390  -29.2600   22.4050 N   0  0  0  0  0  0  0  0  0  0  0  0
  -23.4470  -28.8460   23.3630 O   0  0  0  0  0  0  0  0  0  0  0  0
  -20.9520  -29.7950   21.7010 H   0  0  0  0  0  0  0  0  0  0  0  0
  -18.0790  -28.0210   22.8930 C   0  0  0  0  0  0  0  0  0  0  0  0
  -20.6310  -28.3200   23.1810 C   0  0  0  0  0  3  0  0  0  0  0  0
  -20.7580  -26.8840   22.6220 C   0  0  0  0  0  2  0  0  0  0  0  0
  -19.6680  -26.5360   21.6020 C   0  0  0  0  0  2  0  0  0  0  0  0
  -18.2800  -26.6670   22.2350 C   0  0  0  0  0  2  0  0  0  0  0  0
  -19.1840  -28.8030   23.3230 C   0  0  0  0  0  0  0  0  0  0  0  0
  -18.9420  -30.0700   23.8970 C   0  0  0  0  0  3  0  0  0  0  0  0
  -17.6310  -30.5550   24.0480 C   0  0  0  0  0  3  0  0  0  0  0  0
  -16.5400  -29.7690   23.6360 C   0  0  0  0  0  3  0  0  0  0  0  0
  -16.7660  -28.5040   23.0640 C   0  0  0  0  0  3  0  0  0  0  0  0
  -25.8810  -32.5390   23.8200 C   0  0  0  0  0  3  0  0  0  0  0  0
  -25.5560  -33.9310   24.1590 N   0  0  0  0  0  0  0  0  0  0  0  0
  -25.8710  -34.9920   23.4020 C   0  0  0  0  0  0  0  0  0  0  0  0
  -26.5360  -34.9010   22.3670 O   0  0  0  0  0  0  0  0  0  0  0  0
  -24.9590  -34.0710   24.9610 H   0  0  0  0  0  0  0  0  0  0  0  0
  -24.1130  -36.7560   23.0700 C   0  0  0  0  0  1  0  0  0  0  0  0
  -25.3680  -36.3710   23.8690 C   0  0  0  0  0  3  0  0  0  0  0  0
  -27.5020  -37.2800   24.6740 C   0  0  0  0  0  1  0  0  0  0  0  0
  -26.3830  -37.4400   23.7480 N   0  0  0  0  0  0  0  0  0  0  0  0
  -25.9660  -38.3520   23.9050 H   0  0  0  0  0  0  0  0  0  0  0  0
  -26.4200  -31.7660   25.0860 C   0  0  1  0  0  0  0  0  0  0  0  0
  -25.3410  -31.5040   26.1630 C   0  0  0  0  0  1  0  0  0  0  0  0
  -27.0150  -30.3980   24.6760 C   0  0  0  0  0  1  0  0  0  0  0  0
  -27.5660  -32.5710   25.7400 C   0  0  0  0  0  1  0  0  0  0  0  0
  1  6  1  0
  1 47  1  0
  2  5  2  0
  2  6  1  0
  3  7  2  0
  4  7  1  0
  5  3  1  0
  6  4  2  0
  7 18  1  0
  8  5  1  0
  9 18  1  0
 10 15  1  0
 11 12  1  0
 11 10  1  0
 13 12  1  0
 13 22  1  0
 13 14  1  0
 15  9  1  0
 15 14  1  0
 16  9  2  0
 18 17  1  0
 19 20  2  0
 20 39  1  0
 21 20  1  0
 21 24  1  0
 22 23  1  0
 22 19  1  0
 23 21  2  0
 24 25  1  0
 25 26  2  0
 27 30  1  0
 27 26  1  0
 28 27  2  0
 29 28  1  0
 29 24  2  0
 30 31  1  0
 31 32  1  0
 32 33  2  0
 34 33  1  0
 34 38  1  0
 35 34  2  0
 36 31  2  0
 36 35  1  0
 37 36  1  0
 39 40  1  0
 40 43  1  0
 40 42  1  0
 41 39  2  0
 44 19  1  0
 44 45  1  0
 46 44  1  0
 48 49  1  0
 48 47  2  0
 50 51  1  0
 50 49  1  0
 52 63  2  0
 53 51  1  0
 53 58  1  0
 54 62  1  0
 54 64  1  0
 55 61  1  0
 55 57  1  0
 56 62  1  0
 57 56  1  0
 58 57  2  0
 59 53  2  0
 60 59  1  0
 60 55  2  0
 61 54  1  0
 62 52  1  0
 64 66  2  0
 65 64  1  0
 67 65  1  0
 68 77  2  0
 68 73  1  0
 69 65  1  0
 69 73  1  0
 70 69  1  0
 71 72  1  0
 71 70  1  0
 72 68  1  0
 73 74  2  0
 74 75  1  0
 76 75  2  0
 77 76  1  0
 78 52  1  0
 78 79  1  0
 78 88  1  0
 79 82  1  0
 80 84  1  0
 80 79  1  0
 81 80  2  0
 84 83  1  0
 86 84  1  0
 86 87  1  0
 86 85  1  0
 88 91  1  1
 88 89  1  0
 90 88  1  0
M  ISO  4   9 100  18 100  50 101  51 101
M  END
>  <TORSDO>  (47) 
F 21

>  <SCORE>  (47) 
-12.282

>  <name>  (47) 
46

>  <ligand_id>  (47) 
46

>  <original_smiles>  (47) 
[H]c1c([H])c([H])c2c(c1[H])C([H])([H])C([H])([H])C([H])([H])C2([H])N([H])C(=O)C1([H])N(C(=O)C([H])(N([H])C(=O)C([H])(N([H])C([H])([H])[H])C([H])([H])[H])C(C([H])([H])[H])(C([H])([H])[H])C([H])([H])[H])C([H])([H])c2c([H])c(OC([H])([H])C([H])([H])C([H])([H])C([H])([H])C([H])([H])c3c([H])c(N(C(=O)N4C([H])([H])C([H])([H])C([H])([H])C([H])(n5nc(-c6c([H])c([H])c(Oc7c([H])c([H])c(F)c([H])c7F)c([H])c6[H])c(C(=O)N([H])[H])c5N([H])[H])C4([H])[H])C([H])([H])[H])c([H])c(C([H])([H])[H])c3[H])c([H])c([H])c2C1([H])[H]

>  <smiles>  (47) 
[H]c1c([H])c([H])c2c(c1[H])C([H])([H])C([H])([H])C([H])([H])C2([H])N([H])C(=O)C1([H])N(C(=O)C([H])(N([H])C(=O)C([H])(N([H])C([H])([H])[H])C([H])([H])[H])C(C([H])([H])[H])(C([H])([H])[H])C([H])([H])[H])C([H])([H])c2c([H])c(OC([H])([H])C([H])([H])C([H])([H])C([H])([H])C([H])([H])c3c([H])c(N(C(=O)N4C([H])([H])C([H])([H])C([H])([H])C([H])(n5nc(-c6c([H])c([H])c(Oc7c([H])c([H])c(F)c([H])c7F)c([H])c6[H])c(C(=O)N([H])[H])c5N([H])[H])C4([H])[H])C([H])([H])[H])c([H])c(C([H])([H])[H])c3[H])c([H])c([H])c2C1([H])[H]

$$$$
47:0:0
     RDKit          3D

102110  0  0  1  0  0  0  0  0999 V2000
  -28.4620  -20.2830   25.2040 N   0  0  0  0  0  4  0  0  0  0  0  0
  -28.0610  -20.5600   24.3230 H   0  0  0  0  0  0  0  0  0  0  0  0
  -28.6720  -21.1150   25.7280 H   0  0  0  0  0  0  0  0  0  0  0  0
  -29.7340  -19.5910   24.9230 C   0  0  0  0  0  2  0  0  0  0  0  0
  -30.8790  -20.3670   20.7850 C   0  0  0  0  0  3  0  0  0  0  0  0
  -30.7750  -19.0450   21.2470 C   0  0  0  0  0  0  0  0  0  0  0  0
  -30.3050  -21.2260   23.0050 C   0  0  0  0  0  0  0  0  0  0  0  0
  -30.1830  -19.8880   23.4880 C   0  0  0  0  0  0  0  0  0  0  0  0
  -30.6470  -21.4480   21.6480 C   0  0  0  0  0  0  0  0  0  0  0  0
  -30.4230  -18.8050   22.5970 C   0  0  0  0  0  0  0  0  0  0  0  0
  -30.0330  -22.4550   23.8760 C   0  0  0  0  0  1  0  0  0  0  0  0
  -30.7680  -23.0460   20.9960 Cl  0  0  0  0  0  0  0  0  0  0  0  0
  -30.2410  -17.1630   23.1280 Cl  0  0  0  0  0  0  0  0  0  0  0  0
  -30.9970  -17.9070   20.2620 C   0  0  0  0  0  2  0  0  0  0  0  0
  -31.7400  -15.5810   20.7970 C   0  0  0  0  0  0  0  0  0  0  0  0
  -31.8830  -13.1220   20.6700 C   0  0  0  0  0  2  0  0  0  0  0  0
  -31.1770  -12.6500   19.3820 C   0  0  0  0  0  2  0  0  0  0  0  0
  -29.6650  -12.4670   19.6180 C   0  0  0  0  0  2  0  0  0  0  0  0
  -29.0180  -13.6910   20.3160 C   0  0  0  0  0  3  0  0  0  0  0  0
  -29.8440  -14.1080   21.5530 C   0  0  0  0  0  2  0  0  0  0  0  0
  -31.2280  -14.3630   21.1090 N   0  0  0  0  0  0  0  0  0  0  0  0
  -32.8870  -15.7480   20.3660 O   0  0  0  0  0  0  0  0  0  0  0  0
  -30.8570  -16.5830   20.8620 N   0  0  0  0  0  0  0  0  0  0  0  0
  -29.9420  -16.3500   21.2180 H   0  0  0  0  0  0  0  0  0  0  0  0
  -26.5800  -14.3320   20.8450 C   0  0  0  0  0  0  0  0  0  0  0  0
  -25.4680  -13.5710   21.0860 C   0  0  0  0  0  0  0  0  0  0  0  0
  -25.9000  -12.2110   21.0220 C   0  0  0  0  0  0  0  0  0  0  0  0
  -27.6210  -13.4360   20.6590 N   0  0  0  0  0  0  0  0  0  0  0  0
  -27.2080  -12.1530   20.8180 N   0  0  0  0  0  0  0  0  0  0  0  0
  -25.1350  -10.9600   21.0850 C   0  0  0  0  0  0  0  0  0  0  0  0
  -25.3470  -10.0170   22.1140 C   0  0  0  0  0  3  0  0  0  0  0  0
  -24.5840   -8.8290   22.1640 C   0  0  0  0  0  3  0  0  0  0  0  0
  -23.5980   -8.5780   21.1820 C   0  0  0  0  0  0  0  0  0  0  0  0
  -23.4050   -9.5110   20.1490 C   0  0  0  0  0  3  0  0  0  0  0  0
  -24.1680  -10.6890   20.0970 C   0  0  0  0  0  3  0  0  0  0  0  0
  -22.8270   -7.4400   21.1350 O   0  0  0  0  0  0  0  0  0  0  0  0
  -22.3470   -6.8510   22.2770 C   0  0  0  0  0  0  0  0  0  0  0  0
  -21.5260   -7.5490   23.1900 C   0  0  0  0  0  3  0  0  0  0  0  0
  -20.9970   -6.8830   24.3130 C   0  0  0  0  0  3  0  0  0  0  0  0
  -21.2800   -5.5200   24.5230 C   0  0  0  0  0  0  0  0  0  0  0  0
  -22.0950   -4.8220   23.6120 C   0  0  0  0  0  3  0  0  0  0  0  0
  -22.6240   -5.4860   22.4920 C   0  0  0  0  0  0  0  0  0  0  0  0
  -23.3890   -4.8020   21.6070 F   0  0  0  0  0  0  0  0  0  0  0  0
  -20.7670   -4.8770   25.5980 F   0  0  0  0  0  0  0  0  0  0  0  0
  -24.0620  -14.0710   21.2670 C   0  0  0  0  0  0  0  0  0  0  0  0
  -23.2580  -13.3620   22.0520 N   0  0  0  0  0  0  0  0  0  0  0  0
  -23.6830  -15.1210   20.7520 O   0  0  0  0  0  0  0  0  0  0  0  0
  -23.5750  -12.5100   22.4910 H   0  0  0  0  0  0  0  0  0  0  0  0
  -22.3120  -13.6760   22.2150 H   0  0  0  0  0  0  0  0  0  0  0  0
  -26.7900  -15.7040   20.7550 N   0  0  0  0  0  0  0  0  0  0  0  0
  -26.0420  -16.3770   20.8740 H   0  0  0  0  0  0  0  0  0  0  0  0
  -27.6840  -16.1390   20.5710 H   0  0  0  0  0  0  0  0  0  0  0  0
  -27.4560  -19.4860   25.9370 C   0  0  0  0  0  2  0  0  0  0  0  0
  -26.5450  -20.3660   26.8180 C   0  0  0  0  0  2  0  0  0  0  0  0
  -26.2750  -21.7900   26.2880 C   0  0  0  0  0  2  0  0  0  0  0  0
  -25.0370  -21.9100   25.3760 C   0  0  0  0  0  2  0  0  0  0  0  0
  -25.1870  -23.0100   24.3170 C   0  0  0  0  0  2  0  0  0  0  0  0
  -25.9580  -22.5650   23.0550 C   0  0  0  0  0  2  0  0  0  0  0  0
  -27.1080  -23.5150   22.6900 C   0  0  0  0  0  2  0  0  0  0  0  0
  -26.6840  -24.5790   21.6630 C   0  0  0  0  0  2  0  0  0  0  0  0
  -27.7630  -25.6430   21.4060 C   0  0  0  0  0  2  0  0  0  0  0  0
  -27.4950  -26.3680   20.2120 O   0  0  0  0  0  0  0  0  0  0  0  0
  -24.4200  -31.9380   23.3900 C   0  0  0  0  0  0  0  0  0  0  0  0
  -26.4110  -27.2030   20.2900 C   0  0  0  0  0  0  0  0  0  0  0  0
  -22.9770  -30.6330   21.8620 C   0  0  0  0  0  3  0  0  0  0  0  0
  -24.1790  -28.9180   20.4050 C   0  0  0  0  0  0  0  0  0  0  0  0
  -25.5050  -30.7330   21.5000 C   0  0  0  0  0  2  0  0  0  0  0  0
  -25.4140  -29.3420   20.9110 C   0  0  0  0  0  0  0  0  0  0  0  0
  -26.5360  -28.4890   20.8550 C   0  0  0  0  0  3  0  0  0  0  0  0
  -25.1660  -26.7850   19.7790 C   0  0  0  0  0  3  0  0  0  0  0  0
  -24.0470  -27.6360   19.8430 C   0  0  0  0  0  3  0  0  0  0  0  0
  -23.0270  -29.8970   20.4960 C   0  0  0  0  0  2  0  0  0  0  0  0
  -24.3240  -31.1160   22.3080 N   0  0  0  0  0  0  0  0  0  0  0  0
  -23.4080  -32.3330   23.9850 O   0  0  0  0  0  0  0  0  0  0  0  0
  -22.2880  -29.7060   22.8900 C   0  0  0  0  0  0  0  0  0  0  0  0
  -20.9770  -29.4880   22.7070 N   0  0  0  0  0  0  0  0  0  0  0  0
  -22.9340  -29.1830   23.8020 O   0  0  0  0  0  0  0  0  0  0  0  0
  -20.5200  -29.9640   21.9400 H   0  0  0  0  0  0  0  0  0  0  0  0
  -17.6320  -28.1650   23.0410 C   0  0  0  0  0  0  0  0  0  0  0  0
  -20.1290  -28.6200   23.5240 C   0  0  0  0  0  3  0  0  0  0  0  0
  -20.3630  -27.1310   23.1840 C   0  0  0  0  0  2  0  0  0  0  0  0
  -19.3920  -26.5930   22.1290 C   0  0  0  0  0  2  0  0  0  0  0  0
  -17.9440  -26.7430   22.6080 C   0  0  0  0  0  2  0  0  0  0  0  0
  -18.6610  -29.0510   23.4580 C   0  0  0  0  0  0  0  0  0  0  0  0
  -18.3220  -30.3730   23.8230 C   0  0  0  0  0  3  0  0  0  0  0  0
  -16.9850  -30.8100   23.7750 C   0  0  0  0  0  3  0  0  0  0  0  0
  -15.9680  -29.9250   23.3780 C   0  0  0  0  0  3  0  0  0  0  0  0
  -16.2920  -28.6060   23.0150 C   0  0  0  0  0  3  0  0  0  0  0  0
  -25.8020  -32.4420   23.9120 C   0  0  0  0  0  3  0  0  0  0  0  0
  -25.6600  -33.8690   24.2270 N   0  0  0  0  0  0  0  0  0  0  0  0
  -26.0610  -34.8670   23.4270 C   0  0  0  0  0  0  0  0  0  0  0  0
  -26.6640  -34.6720   22.3680 O   0  0  0  0  0  0  0  0  0  0  0  0
  -25.1210  -34.1030   25.0470 H   0  0  0  0  0  0  0  0  0  0  0  0
  -24.5210  -36.8300   23.0990 C   0  0  0  0  0  1  0  0  0  0  0  0
  -25.7410  -36.3060   23.8720 C   0  0  0  0  0  3  0  0  0  0  0  0
  -27.9880  -36.9740   24.6020 C   0  0  0  0  0  1  0  0  0  0  0  0
  -26.8720  -37.2430   23.6990 N   0  0  0  0  0  0  0  0  0  0  0  0
  -26.5710  -38.2030   23.8390 H   0  0  0  0  0  0  0  0  0  0  0  0
  -26.3210  -31.6430   25.1700 C   0  0  1  0  0  0  0  0  0  0  0  0
  -25.2780  -31.5190   26.3050 C   0  0  0  0  0  1  0  0  0  0  0  0
  -26.7580  -30.2120   24.7680 C   0  0  0  0  0  1  0  0  0  0  0  0
  -27.5710  -32.3430   25.7550 C   0  0  0  0  0  1  0  0  0  0  0  0
  1  3  1  0
  1 53  1  0
  2  1  1  0
  4  1  1  0
  5  6  2  0
  5  9  1  0
  6 10  1  0
  7  8  1  0
  7 11  1  0
  8  4  1  0
  9  7  2  0
 10 13  1  0
 10  8  2  0
 12  9  1  0
 14 23  1  0
 14  6  1  0
 15 23  1  0
 15 21  1  0
 16 21  1  0
 17 18  1  0
 17 16  1  0
 19 18  1  0
 19 28  1  0
 19 20  1  0
 21 20  1  0
 22 15  2  0
 23 24  1  0
 25 26  2  0
 26 45  1  0
 27 30  1  0
 27 26  1  0
 28 29  1  0
 28 25  1  0
 29 27  2  0
 30 31  1  0
 31 32  2  0
 33 32  1  0
 34 33  2  0
 35 34  1  0
 35 30  2  0
 36 33  1  0
 36 37  1  0
 37 42  2  0
 37 38  1  0
 38 39  2  0
 39 40  1  0
 40 44  1  0
 41 40  2  0
 42 41  1  0
 43 42  1  0
 45 46  1  0
 46 49  1  0
 46 48  1  0
 47 45  2  0
 50 25  1  0
 50 51  1  0
 52 50  1  0
 53 54  1  0
 55 54  1  0
 56 55  1  0
 57 56  1  0
 58 57  1  0
 59 58  1  0
 60 59  1  0
 61 60  1  0
 62 64  1  0
 62 61  1  0
 63 74  2  0
 64 69  1  0
 65 73  1  0
 65 75  1  0
 66 72  1  0
 66 68  1  0
 67 73  1  0
 68 67  1  0
 69 68  2  0
 70 71  1  0
 70 64  2  0
 71 66  2  0
 72 65  1  0
 73 63  1  0
 75 77  2  0
 76 75  1  0
 78 76  1  0
 79 84  1  0
 80 76  1  0
 81 80  1  0
 82 83  1  0
 82 81  1  0
 83 79  1  0
 84 80  1  0
 84 85  2  0
 86 85  1  0
 87 86  2  0
 88 79  2  0
 88 87  1  0
 89 63  1  0
 89 90  1  0
 89 99  1  0
 90 93  1  0
 91 95  1  0
 91 90  1  0
 92 91  2  0
 95 94  1  0
 97 98  1  0
 97 95  1  0
 97 96  1  0
 99102  1  1
 99100  1  0
101 99  1  0
M  ISO  4  15 100  23 100  61 101  62 101
M  END
>  <TORSDO>  (48) 
F 28

>  <SCORE>  (48) 
23.223

>  <name>  (48) 
47

>  <ligand_id>  (48) 
47

>  <original_smiles>  (48) 
[H]c1c([H])c([H])c2c(c1[H])C([H])([H])C([H])([H])C([H])([H])C2([H])N([H])C(=O)C1([H])N(C(=O)C([H])(N([H])C(=O)C([H])(N([H])C([H])([H])[H])C([H])([H])[H])C(C([H])([H])[H])(C([H])([H])[H])C([H])([H])[H])C([H])([H])c2c([H])c(OC([H])([H])C([H])([H])C([H])([H])C([H])([H])C([H])([H])C([H])([H])C([H])([H])C([H])([H])C([H])([H])[N+]([H])([H])C([H])([H])c3c(Cl)c(C([H])([H])N([H])C(=O)N4C([H])([H])C([H])([H])C([H])([H])C([H])(n5nc(-c6c([H])c([H])c(Oc7c([H])c([H])c(F)c([H])c7F)c([H])c6[H])c(C(=O)N([H])[H])c5N([H])[H])C4([H])[H])c([H])c(Cl)c3C([H])([H])[H])c([H])c([H])c2C1([H])[H]

>  <smiles>  (48) 
[H]c1c([H])c([H])c2c(c1[H])C([H])([H])C([H])([H])C([H])([H])C2([H])N([H])C(=O)C1([H])N(C(=O)C([H])(N([H])C(=O)C([H])(N([H])C([H])([H])[H])C([H])([H])[H])C(C([H])([H])[H])(C([H])([H])[H])C([H])([H])[H])C([H])([H])c2c([H])c(OC([H])([H])C([H])([H])C([H])([H])C([H])([H])C([H])([H])C([H])([H])C([H])([H])C([H])([H])C([H])([H])[N+]([H])([H])C([H])([H])c3c(Cl)c(C([H])([H])N([H])C(=O)N4C([H])([H])C([H])([H])C([H])([H])C([H])(n5nc(-c6c([H])c([H])c(Oc7c([H])c([H])c(F)c([H])c7F)c([H])c6[H])c(C(=O)N([H])[H])c5N([H])[H])C4([H])[H])c([H])c(Cl)c3C([H])([H])[H])c([H])c([H])c2C1([H])[H]

$$$$
48:0:0
     RDKit          3D

 95102  0  0  1  0  0  0  0  0999 V2000
  -29.2540  -21.3910   19.2430 C   0  0  0  0  0  2  0  0  0  0  0  0
  -30.8970  -17.9150   20.1580 C   0  0  0  0  0  3  0  0  0  0  0  0
  -30.7270  -19.3150   19.9200 C   0  0  0  0  0  0  0  0  0  0  0  0
  -29.4320  -19.9200   19.8060 C   0  0  0  0  0  0  0  0  0  0  0  0
  -28.3230  -19.0520   20.0570 C   0  0  0  0  0  0  0  0  0  0  0  0
  -29.7950  -17.0450   20.3430 C   0  0  0  0  0  0  0  0  0  0  0  0
  -28.5150  -17.6610   20.3480 C   0  0  0  0  0  3  0  0  0  0  0  0
  -31.9920  -20.1410   19.7410 C   0  0  0  0  0  1  0  0  0  0  0  0
  -26.8880  -19.5680   19.9880 C   0  0  0  0  0  1  0  0  0  0  0  0
  -27.1420  -16.6670   20.7070 Cl  0  0  0  0  0 15  0  0  0  0  0  0
  -30.5760  -14.6030   19.8920 C   0  0  0  0  0  0  0  0  0  0  0  0
  -30.2690  -12.4240   18.7290 C   0  0  0  0  0  2  0  0  0  0  0  0
  -29.2390  -12.6240   17.5940 C   0  0  0  0  0  2  0  0  0  0  0  0
  -27.7970  -12.4660   18.1180 C   0  0  0  0  0  2  0  0  0  0  0  0
  -27.5450  -13.2650   19.4240 C   0  0  0  0  0  3  0  0  0  0  0  0
  -28.6760  -13.0240   20.4480 C   0  0  0  0  0  2  0  0  0  0  0  0
  -29.9510  -13.3860   19.8030 N   0  0  0  0  0  0  0  0  0  0  0  0
  -31.6750  -14.8000   19.3640 O   0  0  0  0  0  0  0  0  0  0  0  0
  -29.8620  -15.5920   20.5090 N   0  0  0  0  0  0  0  0  0  0  0  0
  -29.0690  -15.2270   21.0160 H   0  0  0  0  0  0  0  0  0  0  0  0
  -25.2030  -13.8560   20.3040 C   0  0  0  0  0  0  0  0  0  0  0  0
  -24.1600  -13.0800   20.7280 C   0  0  0  0  0  0  0  0  0  0  0  0
  -24.6090  -11.7280   20.6290 C   0  0  0  0  0  0  0  0  0  0  0  0
  -26.2270  -12.9780   19.9860 N   0  0  0  0  0  0  0  0  0  0  0  0
  -25.8760  -11.6890   20.2350 N   0  0  0  0  0  0  0  0  0  0  0  0
  -23.8860  -10.4670   20.8320 C   0  0  0  0  0  0  0  0  0  0  0  0
  -24.2910   -9.5310   21.8100 C   0  0  0  0  0  3  0  0  0  0  0  0
  -23.5680   -8.3340   21.9980 C   0  0  0  0  0  3  0  0  0  0  0  0
  -22.4260   -8.0630   21.2080 C   0  0  0  0  0  0  0  0  0  0  0  0
  -22.0410   -8.9870   20.2200 C   0  0  0  0  0  3  0  0  0  0  0  0
  -22.7640  -10.1750   20.0290 C   0  0  0  0  0  3  0  0  0  0  0  0
  -21.6780   -6.9140   21.3030 O   0  0  0  0  0  0  0  0  0  0  0  0
  -21.4960   -6.2710   22.5010 C   0  0  0  0  0  0  0  0  0  0  0  0
  -20.9030   -6.9130   23.6090 C   0  0  0  0  0  3  0  0  0  0  0  0
  -20.6720   -6.1950   24.7990 C   0  0  0  0  0  3  0  0  0  0  0  0
  -21.0230   -4.8350   24.8800 C   0  0  0  0  0  0  0  0  0  0  0  0
  -21.6090   -4.1920   23.7750 C   0  0  0  0  0  3  0  0  0  0  0  0
  -21.8430   -4.9080   22.5880 C   0  0  0  0  0  0  0  0  0  0  0  0
  -22.3870   -4.2770   21.5190 F   0  0  0  0  0  0  0  0  0  0  0  0
  -20.7960   -4.1410   26.0200 F   0  0  0  0  0  0  0  0  0  0  0  0
  -22.7890  -13.5590   21.1110 C   0  0  0  0  0  0  0  0  0  0  0  0
  -22.1280  -12.8560   22.0250 N   0  0  0  0  0  0  0  0  0  0  0  0
  -22.3170  -14.5910   20.6380 O   0  0  0  0  0  0  0  0  0  0  0  0
  -22.5250  -12.0210   22.4270 H   0  0  0  0  0  0  0  0  0  0  0  0
  -21.2110  -13.1590   22.3230 H   0  0  0  0  0  0  0  0  0  0  0  0
  -25.3550  -15.2280   20.1420 N   0  0  0  0  0  0  0  0  0  0  0  0
  -24.6130  -15.8820   20.3620 H   0  0  0  0  0  0  0  0  0  0  0  0
  -26.2120  -15.6850   19.8610 H   0  0  0  0  0  0  0  0  0  0  0  0
  -29.0430  -22.5770   20.1620 N   0  0  0  0  0  4  0  0  0  0  0  0
  -29.7440  -22.5470   20.8870 H   0  0  0  0  0  0  0  0  0  0  0  0
  -28.1530  -22.4370   20.6140 H   0  0  0  0  0  0  0  0  0  0  0  0
  -30.5080  -24.3780   19.2080 C   0  0  0  0  0  1  0  0  0  0  0  0
  -29.0540  -23.9620   19.5100 C   0  0  0  0  0  3  0  0  0  0  0  0
  -28.3130  -25.1280   20.3090 C   0  0  0  0  0  2  0  0  0  0  0  0
  -28.3770  -26.4950   19.7490 O   0  0  0  0  0  0  0  0  0  0  0  0
  -24.5310  -31.6910   22.9320 C   0  0  0  0  0  0  0  0  0  0  0  0
  -27.2220  -27.2790   19.7700 C   0  0  0  0  0  0  0  0  0  0  0  0
  -23.3410  -30.2970   21.2730 C   0  0  0  0  0  3  0  0  0  0  0  0
  -24.8140  -28.8060   19.8080 C   0  0  0  0  0  0  0  0  0  0  0  0
  -25.8670  -30.6890   21.0660 C   0  0  0  0  0  2  0  0  0  0  0  0
  -25.9740  -29.3250   20.3970 C   0  0  0  0  0  0  0  0  0  0  0  0
  -27.1830  -28.5750   20.3650 C   0  0  0  0  0  3  0  0  0  0  0  0
  -26.0440  -26.8010   19.1600 C   0  0  0  0  0  3  0  0  0  0  0  0
  -24.8500  -27.5500   19.1790 C   0  0  0  0  0  3  0  0  0  0  0  0
  -23.5560  -29.6460   19.8810 C   0  0  0  0  0  2  0  0  0  0  0  0
  -24.5990  -30.9080   21.8150 N   0  0  0  0  0  0  0  0  0  0  0  0
  -23.4490  -31.9310   23.4850 O   0  0  0  0  0  0  0  0  0  0  0  0
  -22.7110  -29.2490   22.2210 C   0  0  0  0  0  0  0  0  0  0  0  0
  -21.3820  -29.0750   22.1320 N   0  0  0  0  0  0  0  0  0  0  0  0
  -23.4170  -28.5940   22.9930 O   0  0  0  0  0  0  0  0  0  0  0  0
  -20.8710  -29.6570   21.4820 H   0  0  0  0  0  0  0  0  0  0  0  0
  -18.0140  -27.9140   22.7530 C   0  0  0  0  0  0  0  0  0  0  0  0
  -20.5890  -28.1110   22.8960 C   0  0  0  0  0  3  0  0  0  0  0  0
  -20.6290  -26.7130   22.2390 C   0  0  0  0  0  2  0  0  0  0  0  0
  -19.4670  -26.4670   21.2700 C   0  0  0  0  0  2  0  0  0  0  0  0
  -18.1250  -26.6010   21.9970 C   0  0  0  0  0  2  0  0  0  0  0  0
  -19.1700  -28.6310   23.1610 C   0  0  0  0  0  0  0  0  0  0  0  0
  -19.0100  -29.8630   23.8320 C   0  0  0  0  0  3  0  0  0  0  0  0
  -17.7280  -30.3790   24.0950 C   0  0  0  0  0  3  0  0  0  0  0  0
  -16.5870  -29.6580   23.7030 C   0  0  0  0  0  3  0  0  0  0  0  0
  -16.7320  -28.4260   23.0390 C   0  0  0  0  0  3  0  0  0  0  0  0
  -25.8070  -32.3370   23.5560 C   0  0  0  0  0  3  0  0  0  0  0  0
  -26.4130  -31.4940   24.7440 C   0  0  1  0  0  0  0  0  0  0  0  0
  -25.3770  -31.1110   25.8260 C   0  0  0  0  0  1  0  0  0  0  0  0
  -27.0490  -30.1870   24.2180 C   0  0  0  0  0  1  0  0  0  0  0  0
  -27.5480  -32.2920   25.4290 C   0  0  0  0  0  1  0  0  0  0  0  0
  -25.4460  -33.6870   24.0100 N   0  0  0  0  0  0  0  0  0  0  0  0
  -25.6950  -34.8120   23.3260 C   0  0  0  0  0  0  0  0  0  0  0  0
  -26.3250  -34.8230   22.2640 O   0  0  0  0  0  0  0  0  0  0  0  0
  -24.8800  -33.7480   24.8430 H   0  0  0  0  0  0  0  0  0  0  0  0
  -23.8670  -36.5320   23.1900 C   0  0  0  0  0  1  0  0  0  0  0  0
  -25.1640  -36.1330   23.9130 C   0  0  0  0  0  3  0  0  0  0  0  0
  -27.2870  -37.0650   24.7200 C   0  0  0  0  0  1  0  0  0  0  0  0
  -26.1370  -37.2450   23.8370 N   0  0  0  0  0  0  0  0  0  0  0  0
  -25.6920  -38.1290   24.0720 H   0  0  0  0  0  0  0  0  0  0  0  0
  1  4  1  0
  1 49  1  0
  2  6  1  0
  3  2  2  0
  4  3  1  0
  4  5  2  0
  5  7  1  0
  6  7  2  0
  6 19  1  0
  8  3  1  0
  9  5  1  0
 11 19  1  0
 12 17  1  0
 13 14  1  0
 13 12  1  0
 15 14  1  0
 15 24  1  0
 15 16  1  0
 17 11  1  0
 17 16  1  0
 18 11  2  0
 19 20  1  0
 21 22  2  0
 22 41  1  0
 23 22  1  0
 23 26  1  0
 24 25  1  0
 24 21  1  0
 25 23  2  0
 26 27  1  0
 27 28  2  0
 29 32  1  0
 29 28  1  0
 30 29  2  0
 31 30  1  0
 31 26  2  0
 32 33  1  0
 33 38  2  0
 33 34  1  0
 34 35  2  0
 35 36  1  0
 36 40  1  0
 37 36  2  0
 38 37  1  0
 39 38  1  0
 41 42  1  0
 42 45  1  0
 42 44  1  0
 43 41  2  0
 46 21  1  0
 46 47  1  0
 48 46  1  0
 49 51  1  0
 49 50  1  0
 53 52  1  0
 53 49  1  0
 53 54  1  0
 55 57  1  0
 55 54  1  0
 56 67  2  0
 57 62  1  0
 58 66  1  0
 58 68  1  0
 59 65  1  0
 59 61  1  0
 60 66  1  0
 61 60  1  0
 62 61  2  0
 63 64  1  0
 63 57  2  0
 64 59  2  0
 65 58  1  0
 66 56  1  0
 68 70  2  0
 69 68  1  0
 71 69  1  0
 72 81  2  0
 72 77  1  0
 73 69  1  0
 73 77  1  0
 74 73  1  0
 75 76  1  0
 75 74  1  0
 76 72  1  0
 77 78  2  0
 78 79  1  0
 80 79  2  0
 81 80  1  0
 82 56  1  0
 82 87  1  0
 82 83  1  0
 83 86  1  1
 83 84  1  0
 85 83  1  0
 87 90  1  0
 88 92  1  0
 88 87  1  0
 89 88  2  0
 92 91  1  0
 94 92  1  0
 94 95  1  0
 94 93  1  0
M  ISO  4  11 100  19 100  54 101  55 101
M  END
>  <TORSDO>  (49) 
F 20

>  <SCORE>  (49) 
-12.280

>  <name>  (49) 
48

>  <ligand_id>  (49) 
48

>  <original_smiles>  (49) 
[H]c1c([H])c([H])c2c(c1[H])C([H])([H])C([H])([H])C([H])([H])C2([H])N([H])C(=O)C1([H])N(C(=O)C([H])(N([H])C(=O)C([H])(N([H])C([H])([H])[H])C([H])([H])[H])C(C([H])([H])[H])(C([H])([H])[H])C([H])([H])[H])C([H])([H])c2c([H])c(OC([H])([H])C([H])(C([H])([H])[H])[N+]([H])([H])C([H])([H])c3c(C([H])([H])[H])c([H])c(N([H])C(=O)N4C([H])([H])C([H])([H])C([H])([H])C([H])(n5nc(-c6c([H])c([H])c(Oc7c([H])c([H])c(F)c([H])c7F)c([H])c6[H])c(C(=O)N([H])[H])c5N([H])[H])C4([H])[H])c(Cl)c3C([H])([H])[H])c([H])c([H])c2C1([H])[H]

>  <smiles>  (49) 
[H]c1c([H])c([H])c2c(c1[H])C([H])([H])C([H])([H])C([H])([H])C2([H])N([H])C(=O)C1([H])N(C(=O)C([H])(N([H])C(=O)C([H])(N([H])C([H])([H])[H])C([H])([H])[H])C(C([H])([H])[H])(C([H])([H])[H])C([H])([H])[H])C([H])([H])c2c([H])c(OC([H])([H])C([H])(C([H])([H])[H])[N+]([H])([H])C([H])([H])c3c(C([H])([H])[H])c([H])c(N([H])C(=O)N4C([H])([H])C([H])([H])C([H])([H])C([H])(n5nc(-c6c([H])c([H])c(Oc7c([H])c([H])c(F)c([H])c7F)c([H])c6[H])c(C(=O)N([H])[H])c5N([H])[H])C4([H])[H])c(Cl)c3C([H])([H])[H])c([H])c([H])c2C1([H])[H]

$$$$
49:0:0
     RDKit          3D

100108  0  0  1  0  0  0  0  0999 V2000
  -30.3220  -21.6780   22.0160 C   0  0  0  0  0  3  0  0  0  0  0  0
  -31.7070  -20.0780   23.5440 C   0  0  0  0  0  1  0  0  0  0  0  0
  -31.3190  -22.4000   24.2590 C   0  0  0  0  0  1  0  0  0  0  0  0
  -29.4240  -20.7760   24.2990 C   0  0  0  0  0  1  0  0  0  0  0  0
  -30.6650  -21.2230   23.4940 C   0  0  1  0  0  0  0  0  0  0  0  0
  -29.4870  -22.9080   22.0440 N   0  0  0  0  0  4  0  0  0  0  0  0
  -28.5680  -22.6440   21.7300 H   0  0  0  0  0  0  0  0  0  0  0  0
  -29.4230  -23.1820   23.0120 H   0  0  0  0  0  0  0  0  0  0  0  0
  -29.9580  -24.0870   21.2740 C   0  0  0  0  0  2  0  0  0  0  0  0
  -28.8070  -25.0600   20.8770 C   0  0  0  0  0  2  0  0  0  0  0  0
  -29.1610  -26.5610   21.0020 C   0  0  0  0  0  2  0  0  0  0  0  0
  -28.7150  -27.3210   19.8740 O   0  0  0  0  0  0  0  0  0  0  0  0
  -24.6130  -32.0100   23.3350 C   0  0  0  0  0  0  0  0  0  0  0  0
  -27.5010  -27.9490   19.9960 C   0  0  0  0  0  0  0  0  0  0  0  0
  -23.4840  -30.6480   21.6060 C   0  0  0  0  0  3  0  0  0  0  0  0
  -25.0210  -29.2880   20.0950 C   0  0  0  0  0  0  0  0  0  0  0  0
  -25.9820  -31.1730   21.4320 C   0  0  0  0  0  2  0  0  0  0  0  0
  -26.1430  -29.8480   20.7180 C   0  0  0  0  0  0  0  0  0  0  0  0
  -27.3880  -29.1850   20.6670 C   0  0  0  0  0  3  0  0  0  0  0  0
  -26.3670  -27.3970   19.3670 C   0  0  0  0  0  3  0  0  0  0  0  0
  -25.1260  -28.0580   19.4180 C   0  0  0  0  0  3  0  0  0  0  0  0
  -23.7280  -30.0650   20.1880 C   0  0  0  0  0  2  0  0  0  0  0  0
  -24.7110  -31.2900   22.1840 N   0  0  0  0  0  0  0  0  0  0  0  0
  -23.5200  -32.1820   23.8950 O   0  0  0  0  0  0  0  0  0  0  0  0
  -22.8990  -29.5310   22.5030 C   0  0  0  0  0  0  0  0  0  0  0  0
  -21.6020  -29.2370   22.3170 N   0  0  0  0  0  0  0  0  0  0  0  0
  -23.6080  -28.9350   23.3160 O   0  0  0  0  0  0  0  0  0  0  0  0
  -21.0860  -29.7720   21.6330 H   0  0  0  0  0  0  0  0  0  0  0  0
  -18.3550  -27.6810   22.5880 C   0  0  0  0  0  0  0  0  0  0  0  0
  -20.8500  -28.2000   23.0210 C   0  0  0  0  0  3  0  0  0  0  0  0
  -21.1400  -26.8040   22.4210 C   0  0  0  0  0  2  0  0  0  0  0  0
  -20.1370  -26.3950   21.3350 C   0  0  0  0  0  2  0  0  0  0  0  0
  -18.7130  -26.3770   21.8970 C   0  0  0  0  0  2  0  0  0  0  0  0
  -19.3590  -28.5460   23.1020 C   0  0  0  0  0  0  0  0  0  0  0  0
  -18.9720  -29.7630   23.7020 C   0  0  0  0  0  3  0  0  0  0  0  0
  -17.6130  -30.1190   23.7990 C   0  0  0  0  0  3  0  0  0  0  0  0
  -16.6230  -29.2540   23.3030 C   0  0  0  0  0  3  0  0  0  0  0  0
  -16.9950  -28.0370   22.7030 C   0  0  0  0  0  3  0  0  0  0  0  0
  -25.8630  -32.6730   23.9950 C   0  0  0  0  0  3  0  0  0  0  0  0
  -26.3740  -31.9060   25.2760 C   0  0  1  0  0  0  0  0  0  0  0  0
  -25.2590  -31.6060   26.3040 C   0  0  0  0  0  1  0  0  0  0  0  0
  -27.0250  -30.5610   24.8770 C   0  0  0  0  0  1  0  0  0  0  0  0
  -27.4680  -32.7380   25.9850 C   0  0  0  0  0  1  0  0  0  0  0  0
  -25.5070  -34.0580   24.3280 N   0  0  0  0  0  0  0  0  0  0  0  0
  -25.8640  -35.1300   23.6090 C   0  0  0  0  0  0  0  0  0  0  0  0
  -26.6020  -35.0580   22.6220 O   0  0  0  0  0  0  0  0  0  0  0  0
  -24.8560  -34.1840   25.0890 H   0  0  0  0  0  0  0  0  0  0  0  0
  -24.1350  -36.9000   23.1610 C   0  0  0  0  0  1  0  0  0  0  0  0
  -25.3190  -36.4990   24.0560 C   0  0  0  0  0  3  0  0  0  0  0  0
  -27.3670  -37.4010   25.0640 C   0  0  0  0  0  1  0  0  0  0  0  0
  -26.3370  -37.5710   24.0430 N   0  0  0  0  0  0  0  0  0  0  0  0
  -25.9010  -38.4790   24.1810 H   0  0  0  0  0  0  0  0  0  0  0  0
  -28.1370  -20.4970   21.1690 C   0  0  0  0  0  1  0  0  0  0  0  0
  -29.6680  -20.6440   21.0260 C   0  0  0  0  0  3  0  0  0  0  0  0
  -30.3450  -19.3410   21.0620 N   0  0  0  0  0  0  0  0  0  0  0  0
  -31.3330  -19.4270   21.2720 H   0  0  0  0  0  0  0  0  0  0  0  0
  -32.7080  -17.3580   20.0650 C   0  0  0  0  0  2  0  0  0  0  0  0
  -32.2110  -17.7350   18.6560 C   0  0  0  0  0  2  0  0  0  0  0  0
  -30.2500  -16.9400   20.5570 C   0  0  0  0  0  2  0  0  0  0  0  0
  -31.6980  -16.3880   20.7570 C   0  0  0  0  0  3  0  0  0  0  0  0
  -30.9630  -18.6400   18.7150 C   0  0  0  0  0  3  0  0  0  0  0  0
  -30.1040  -18.3780   19.9890 C   0  0  0  0  0  3  0  0  0  0  0  0
  -32.0630  -14.8990   20.4020 C   0  0  0  0  0  0  0  0  0  0  0  0
  -31.5470  -12.6960   19.4130 C   0  0  0  0  0  2  0  0  0  0  0  0
  -30.6780  -12.8790   18.1530 C   0  0  0  0  0  2  0  0  0  0  0  0
  -29.1840  -12.8540   18.5320 C   0  0  0  0  0  2  0  0  0  0  0  0
  -28.8630  -13.8080   19.7060 C   0  0  0  0  0  3  0  0  0  0  0  0
  -29.8810  -13.6450   20.8710 C   0  0  0  0  0  2  0  0  0  0  0  0
  -31.2320  -13.8140   20.3290 N   0  0  0  0  0  0  0  0  0  0  0  0
  -33.2350  -14.7620   20.0480 O   0  0  0  0  0  0  0  0  0  0  0  0
  -26.5410  -14.6600   20.4220 C   0  0  0  0  0  0  0  0  0  0  0  0
  -25.3920  -14.0000   20.7480 C   0  0  0  0  0  0  0  0  0  0  0  0
  -25.7080  -12.6060   20.6880 C   0  0  0  0  0  0  0  0  0  0  0  0
  -27.4890  -13.6780   20.1750 N   0  0  0  0  0  0  0  0  0  0  0  0
  -26.9930  -12.4370   20.4090 N   0  0  0  0  0  0  0  0  0  0  0  0
  -24.8490  -11.4270   20.8290 C   0  0  0  0  0  0  0  0  0  0  0  0
  -25.1460  -10.4080   21.7600 C   0  0  0  0  0  3  0  0  0  0  0  0
  -24.3020   -9.2860   21.8870 C   0  0  0  0  0  3  0  0  0  0  0  0
  -23.1410   -9.1790   21.0860 C   0  0  0  0  0  0  0  0  0  0  0  0
  -22.8580  -10.1870   20.1470 C   0  0  0  0  0  3  0  0  0  0  0  0
  -23.7040  -11.3000   20.0180 C   0  0  0  0  0  3  0  0  0  0  0  0
  -22.2740   -8.1140   21.1240 O   0  0  0  0  0  0  0  0  0  0  0  0
  -22.0570   -7.4060   22.2770 C   0  0  0  0  0  0  0  0  0  0  0  0
  -21.5730   -8.0210   23.4540 C   0  0  0  0  0  3  0  0  0  0  0  0
  -21.2890   -7.2400   24.5880 C   0  0  0  0  0  3  0  0  0  0  0  0
  -21.4890   -5.8470   24.5580 C   0  0  0  0  0  0  0  0  0  0  0  0
  -21.9690   -5.2340   23.3870 C   0  0  0  0  0  3  0  0  0  0  0  0
  -22.2470   -6.0100   22.2500 C   0  0  0  0  0  0  0  0  0  0  0  0
  -22.6870   -5.4090   21.1190 F   0  0  0  0  0  0  0  0  0  0  0  0
  -21.2100   -5.0960   25.6490 F   0  0  0  0  0  0  0  0  0  0  0  0
  -24.0420  -14.6120   20.9990 C   0  0  0  0  0  0  0  0  0  0  0  0
  -23.2310  -13.9930   21.8500 N   0  0  0  0  0  0  0  0  0  0  0  0
  -23.7180  -15.6780   20.4740 O   0  0  0  0  0  0  0  0  0  0  0  0
  -23.5050  -13.1310   22.2990 H   0  0  0  0  0  0  0  0  0  0  0  0
  -22.3220  -14.3770   22.0640 H   0  0  0  0  0  0  0  0  0  0  0  0
  -26.8520  -16.0130   20.2920 N   0  0  0  0  0  0  0  0  0  0  0  0
  -26.1610  -16.7350   20.4640 H   0  0  0  0  0  0  0  0  0  0  0  0
  -27.7670  -16.3770   20.0740 H   0  0  0  0  0  0  0  0  0  0  0  0
  -30.7260  -19.2030   16.1890 C   0  0  0  0  0  1  0  0  0  0  0  0
  -30.1120  -18.5280   17.4260 C   0  0  0  0  0  2  0  0  0  0  0  0
  1  6  1  0
  1  5  1  0
  5  2  1  6
  5  3  1  0
  5  4  1  0
  6  8  1  0
  7  6  1  0
  9  6  1  0
 10 11  1  0
 10  9  1  0
 12 14  1  0
 12 11  1  0
 13 24  2  0
 14 19  1  0
 15 23  1  0
 15 25  1  0
 16 22  1  0
 16 18  1  0
 17 23  1  0
 18 17  1  0
 19 18  2  0
 20 21  1  0
 20 14  2  0
 21 16  2  0
 22 15  1  0
 23 13  1  0
 25 27  2  0
 26 25  1  0
 28 26  1  0
 29 38  2  0
 29 34  1  0
 30 26  1  0
 30 34  1  0
 31 30  1  0
 32 33  1  0
 32 31  1  0
 33 29  1  0
 34 35  2  0
 35 36  1  0
 37 36  2  0
 38 37  1  0
 39 13  1  0
 39 44  1  0
 39 40  1  0
 40 43  1  1
 40 41  1  0
 42 40  1  0
 44 47  1  0
 45 49  1  0
 45 44  1  0
 46 45  2  0
 49 48  1  0
 51 49  1  0
 51 52  1  0
 51 50  1  0
 54 55  1  0
 54 53  1  0
 54  1  1  0
 55 56  1  0
 57 60  1  0
 58 61  1  0
 58 57  1  0
 59 60  1  0
 60 63  1  0
 61100  1  0
 61 62  1  0
 62 59  1  0
 62 55  1  0
 64 69  1  0
 65 66  1  0
 65 64  1  0
 67 66  1  0
 67 74  1  0
 67 68  1  0
 69 63  1  0
 69 68  1  0
 70 63  2  0
 71 72  2  0
 72 91  1  0
 73 72  1  0
 73 76  1  0
 74 75  1  0
 74 71  1  0
 75 73  2  0
 76 77  1  0
 77 78  2  0
 79 82  1  0
 79 78  1  0
 80 79  2  0
 81 80  1  0
 81 76  2  0
 82 83  1  0
 83 84  1  0
 84 85  2  0
 86 85  1  0
 86 90  1  0
 87 86  2  0
 88 83  2  0
 88 87  1  0
 89 88  1  0
 91 92  1  0
 92 95  1  0
 92 94  1  0
 93 91  2  0
 96 71  1  0
 96 97  1  0
 98 96  1  0
 99100  1  0
M  ISO  4  11 101  12 101  60 100  63 100
M  END
>  <TORSDO>  (50) 
F 25

>  <SCORE>  (50) 
-9.146

>  <name>  (50) 
49

>  <ligand_id>  (50) 
49

>  <original_smiles>  (50) 
[H]c1c([H])c([H])c2c(c1[H])C([H])([H])C([H])([H])C([H])([H])C2([H])N([H])C(=O)C1([H])N(C(=O)C([H])(N([H])C(=O)C([H])(N([H])C([H])([H])[H])C([H])([H])[H])C(C([H])([H])[H])(C([H])([H])[H])C([H])([H])[H])C([H])([H])c2c([H])c(OC([H])([H])C([H])([H])C([H])([H])[N+]([H])([H])C([H])(C([H])(N([H])C3([H])C([H])([H])C([H])(C(=O)N4C([H])([H])C([H])([H])C([H])([H])C([H])(n5nc(-c6c([H])c([H])c(Oc7c([H])c([H])c(F)c([H])c7F)c([H])c6[H])c(C(=O)N([H])[H])c5N([H])[H])C4([H])[H])C([H])([H])C([H])([H])C3([H])C([H])([H])C([H])([H])[H])C([H])([H])[H])C(C([H])([H])[H])(C([H])([H])[H])C([H])([H])[H])c([H])c([H])c2C1([H])[H]

>  <smiles>  (50) 
[H]c1c([H])c([H])c2c(c1[H])C([H])([H])C([H])([H])C([H])([H])C2([H])N([H])C(=O)C1([H])N(C(=O)C([H])(N([H])C(=O)C([H])(N([H])C([H])([H])[H])C([H])([H])[H])C(C([H])([H])[H])(C([H])([H])[H])C([H])([H])[H])C([H])([H])c2c([H])c(OC([H])([H])C([H])([H])C([H])([H])[N+]([H])([H])C([H])(C([H])(N([H])C3([H])C([H])([H])C([H])(C(=O)N4C([H])([H])C([H])([H])C([H])([H])C([H])(n5nc(-c6c([H])c([H])c(Oc7c([H])c([H])c(F)c([H])c7F)c([H])c6[H])c(C(=O)N([H])[H])c5N([H])[H])C4([H])[H])C([H])([H])C([H])([H])C3([H])C([H])([H])C([H])([H])[H])C([H])([H])[H])C(C([H])([H])[H])(C([H])([H])[H])C([H])([H])[H])c([H])c([H])c2C1([H])[H]

$$$$
50:0:0
     RDKit          3D

 96104  0  0  1  0  0  0  0  0999 V2000
  -29.8750  -23.9700   21.2480 C   0  0  0  0  0  3  0  0  0  0  0  0
  -29.7460  -24.7460   18.9300 C   0  0  0  0  0  3  0  0  0  0  0  0
  -29.2140  -24.6650   20.2240 C   0  0  0  0  0  0  0  0  0  0  0  0
  -31.5530  -23.2740   19.6180 C   0  0  0  0  0  0  0  0  0  0  0  0
  -31.0560  -23.2740   20.9470 C   0  0  0  0  0  0  0  0  0  0  0  0
  -30.9350  -24.0810   18.6300 C   0  0  0  0  0  0  0  0  0  0  0  0
  -31.8510  -22.4340   22.2270 Cl  0  0  0  0  0  0  0  0  0  0  0  0
  -31.5770  -24.2520   17.0310 Cl  0  0  0  0  0  0  0  0  0  0  0  0
  -32.6760  -22.3480   19.2020 C   0  0  0  0  0  2  0  0  0  0  0  0
  -32.0730  -21.1580   18.5540 N   0  0  0  0  0  4  0  0  0  0  0  0
  -32.5980  -20.9760   17.7110 H   0  0  0  0  0  0  0  0  0  0  0  0
  -31.1400  -21.4020   18.2540 H   0  0  0  0  0  0  0  0  0  0  0  0
  -32.0810  -19.9020   19.3500 C   0  0  0  0  0  2  0  0  0  0  0  0
  -30.6920  -19.3210   19.7310 C   0  0  0  0  0  2  0  0  0  0  0  0
  -30.8130  -17.9490   20.4760 C   0  0  0  0  0  2  0  0  0  0  0  0
  -29.6030  -17.0010   20.2750 C   0  0  0  0  0  2  0  0  0  0  0  0
  -30.4930  -14.5890   20.0940 C   0  0  0  0  0  0  0  0  0  0  0  0
  -30.2080  -12.4350   18.9130 C   0  0  0  0  0  2  0  0  0  0  0  0
  -29.1770  -12.6930   17.7940 C   0  0  0  0  0  2  0  0  0  0  0  0
  -27.7380  -12.5010   18.3080 C   0  0  0  0  0  2  0  0  0  0  0  0
  -27.4870  -13.2440   19.6500 C   0  0  0  0  0  3  0  0  0  0  0  0
  -28.6240  -12.9630   20.6570 C   0  0  0  0  0  2  0  0  0  0  0  0
  -29.8970  -13.3590   20.0230 N   0  0  0  0  0  0  0  0  0  0  0  0
  -31.5550  -14.8420   19.5160 O   0  0  0  0  0  0  0  0  0  0  0  0
  -29.7450  -15.5660   20.6610 N   0  0  0  0  0  0  0  0  0  0  0  0
  -28.9630  -15.2080   21.1890 H   0  0  0  0  0  0  0  0  0  0  0  0
  -25.1270  -13.7940   20.5020 C   0  0  0  0  0  0  0  0  0  0  0  0
  -24.0910  -12.9990   20.9060 C   0  0  0  0  0  0  0  0  0  0  0  0
  -24.5630  -11.6560   20.8060 C   0  0  0  0  0  0  0  0  0  0  0  0
  -26.1700  -12.9340   20.1960 N   0  0  0  0  0  0  0  0  0  0  0  0
  -25.8340  -11.6390   20.4220 N   0  0  0  0  0  0  0  0  0  0  0  0
  -23.8610  -10.3800   20.9930 C   0  0  0  0  0  0  0  0  0  0  0  0
  -24.3240   -9.4170   21.9170 C   0  0  0  0  0  3  0  0  0  0  0  0
  -23.6260   -8.2030   22.0960 C   0  0  0  0  0  3  0  0  0  0  0  0
  -22.4510   -7.9440   21.3520 C   0  0  0  0  0  0  0  0  0  0  0  0
  -22.0060   -8.8950   20.4190 C   0  0  0  0  0  3  0  0  0  0  0  0
  -22.7050  -10.1000   20.2380 C   0  0  0  0  0  3  0  0  0  0  0  0
  -21.7170   -6.7850   21.4410 O   0  0  0  0  0  0  0  0  0  0  0  0
  -21.6640   -6.0590   22.6020 C   0  0  0  0  0  0  0  0  0  0  0  0
  -21.1600   -6.5990   23.8030 C   0  0  0  0  0  3  0  0  0  0  0  0
  -21.0660   -5.7940   24.9530 C   0  0  0  0  0  3  0  0  0  0  0  0
  -21.4580   -4.4440   24.9030 C   0  0  0  0  0  0  0  0  0  0  0  0
  -21.9480   -3.8990   23.7040 C   0  0  0  0  0  3  0  0  0  0  0  0
  -22.0510   -4.7020   22.5540 C   0  0  0  0  0  0  0  0  0  0  0  0
  -22.5060   -4.1680   21.4000 F   0  0  0  0  0  0  0  0  0  0  0  0
  -21.3550   -3.6660   26.0060 F   0  0  0  0  0  0  0  0  0  0  0  0
  -22.7060  -13.4500   21.2800 C   0  0  0  0  0  0  0  0  0  0  0  0
  -22.0390  -12.7050   22.1540 N   0  0  0  0  0  0  0  0  0  0  0  0
  -22.2340  -14.4980   20.8390 O   0  0  0  0  0  0  0  0  0  0  0  0
  -22.4340  -11.8580   22.5310 H   0  0  0  0  0  0  0  0  0  0  0  0
  -21.1100  -12.9810   22.4450 H   0  0  0  0  0  0  0  0  0  0  0  0
  -25.2750  -15.1690   20.3580 N   0  0  0  0  0  0  0  0  0  0  0  0
  -24.4940  -15.8090   20.4580 H   0  0  0  0  0  0  0  0  0  0  0  0
  -26.1130  -15.6250   20.0230 H   0  0  0  0  0  0  0  0  0  0  0  0
  -27.9440  -25.3870   20.4730 C   0  0  0  0  0  2  0  0  0  0  0  0
  -28.1860  -26.7740   20.2950 O   0  0  0  0  0  0  0  0  0  0  0  0
  -24.5350  -31.9720   23.3930 C   0  0  0  0  0  0  0  0  0  0  0  0
  -27.0520  -27.5280   20.2740 C   0  0  0  0  0  0  0  0  0  0  0  0
  -23.2960  -30.5990   21.7530 C   0  0  0  0  0  3  0  0  0  0  0  0
  -24.7110  -29.0660   20.3060 C   0  0  0  0  0  0  0  0  0  0  0  0
  -25.8260  -30.9210   21.5490 C   0  0  0  0  0  2  0  0  0  0  0  0
  -25.8750  -29.5560   20.9060 C   0  0  0  0  0  0  0  0  0  0  0  0
  -27.0570  -28.7900   20.8970 C   0  0  0  0  0  3  0  0  0  0  0  0
  -25.8810  -27.0640   19.6360 C   0  0  0  0  0  3  0  0  0  0  0  0
  -24.7020  -27.8200   19.6680 C   0  0  0  0  0  3  0  0  0  0  0  0
  -23.4840  -29.9450   20.3610 C   0  0  0  0  0  2  0  0  0  0  0  0
  -24.5700  -31.1790   22.2890 N   0  0  0  0  0  0  0  0  0  0  0  0
  -23.4600  -32.2590   23.9400 O   0  0  0  0  0  0  0  0  0  0  0  0
  -22.6440  -29.5700   22.7020 C   0  0  0  0  0  0  0  0  0  0  0  0
  -21.3250  -29.3650   22.5460 N   0  0  0  0  0  0  0  0  0  0  0  0
  -23.3170  -28.9620   23.5410 O   0  0  0  0  0  0  0  0  0  0  0  0
  -20.8460  -29.9030   21.8360 H   0  0  0  0  0  0  0  0  0  0  0  0
  -17.9650  -28.1160   22.9530 C   0  0  0  0  0  0  0  0  0  0  0  0
  -20.5060  -28.4280   23.3090 C   0  0  0  0  0  3  0  0  0  0  0  0
  -20.6560  -26.9870   22.7740 C   0  0  0  0  0  2  0  0  0  0  0  0
  -19.5990  -26.6180   21.7280 C   0  0  0  0  0  2  0  0  0  0  0  0
  -18.1910  -26.7530   22.3170 C   0  0  0  0  0  2  0  0  0  0  0  0
  -19.0530  -28.9080   23.4030 C   0  0  0  0  0  0  0  0  0  0  0  0
  -18.7930  -30.1830   23.9550 C   0  0  0  0  0  3  0  0  0  0  0  0
  -17.4740  -30.6660   24.0580 C   0  0  0  0  0  3  0  0  0  0  0  0
  -16.3980  -29.8700   23.6290 C   0  0  0  0  0  3  0  0  0  0  0  0
  -16.6450  -28.5970   23.0830 C   0  0  0  0  0  3  0  0  0  0  0  0
  -25.8340  -32.5810   24.0040 C   0  0  0  0  0  3  0  0  0  0  0  0
  -25.5580  -33.9880   24.3120 N   0  0  0  0  0  0  0  0  0  0  0  0
  -25.8680  -35.0170   23.5100 C   0  0  0  0  0  0  0  0  0  0  0  0
  -26.4950  -34.8770   22.4560 O   0  0  0  0  0  0  0  0  0  0  0  0
  -25.0050  -34.1730   25.1360 H   0  0  0  0  0  0  0  0  0  0  0  0
  -24.1260  -36.7990   23.1910 C   0  0  0  0  0  1  0  0  0  0  0  0
  -25.4100  -36.4180   23.9480 C   0  0  0  0  0  3  0  0  0  0  0  0
  -27.5900  -37.3180   24.6290 C   0  0  0  0  0  1  0  0  0  0  0  0
  -26.4320  -37.4690   23.7530 N   0  0  0  0  0  0  0  0  0  0  0  0
  -26.0350  -38.3900   23.9180 H   0  0  0  0  0  0  0  0  0  0  0  0
  -26.3360  -31.8080   25.2850 C   0  0  1  0  0  0  0  0  0  0  0  0
  -25.2360  -31.5950   26.3490 C   0  0  0  0  0  1  0  0  0  0  0  0
  -26.8940  -30.4170   24.8990 C   0  0  0  0  0  1  0  0  0  0  0  0
  -27.5000  -32.5840   25.9440 C   0  0  0  0  0  1  0  0  0  0  0  0
  2  3  1  0
  3 55  1  0
  3  1  2  0
  4  5  2  0
  5  1  1  0
  5  7  1  0
  6  2  2  0
  6  4  1  0
  8  6  1  0
  9  4  1  0
 10  9  1  0
 10 13  1  0
 11 10  1  0
 12 10  1  0
 13 14  1  0
 14 15  1  0
 16 15  1  0
 16 25  1  0
 17 25  1  0
 18 23  1  0
 19 20  1  0
 19 18  1  0
 21 20  1  0
 21 30  1  0
 21 22  1  0
 23 17  1  0
 23 22  1  0
 24 17  2  0
 25 26  1  0
 27 28  2  0
 28 47  1  0
 29 28  1  0
 29 32  1  0
 30 31  1  0
 30 27  1  0
 31 29  2  0
 32 33  1  0
 33 34  2  0
 35 38  1  0
 35 34  1  0
 36 35  2  0
 37 36  1  0
 37 32  2  0
 38 39  1  0
 39 40  1  0
 40 41  2  0
 42 41  1  0
 42 46  1  0
 43 42  2  0
 44 39  2  0
 44 43  1  0
 45 44  1  0
 47 48  1  0
 48 51  1  0
 48 50  1  0
 49 47  2  0
 52 53  1  0
 52 27  1  0
 54 52  1  0
 56 55  1  0
 57 68  2  0
 58 56  1  0
 58 63  1  0
 59 67  1  0
 59 69  1  0
 60 66  1  0
 60 62  1  0
 61 67  1  0
 62 61  1  0
 63 62  2  0
 64 65  1  0
 64 58  2  0
 65 60  2  0
 66 59  1  0
 67 57  1  0
 69 71  2  0
 70 69  1  0
 72 70  1  0
 73 82  2  0
 73 78  1  0
 74 70  1  0
 74 78  1  0
 75 74  1  0
 76 77  1  0
 76 75  1  0
 77 73  1  0
 78 79  2  0
 79 80  1  0
 81 80  2  0
 82 81  1  0
 83 57  1  0
 83 84  1  0
 83 93  1  0
 84 87  1  0
 85 89  1  0
 85 84  1  0
 86 85  2  0
 89 88  1  0
 91 92  1  0
 91 89  1  0
 91 90  1  0
 93 96  1  1
 93 94  1  0
 95 93  1  0
M  ISO  4  17 100  25 100  55 101  56 101
M  END
>  <TORSDO>  (51) 
F 23

>  <SCORE>  (51) 
-12.024

>  <name>  (51) 
50

>  <ligand_id>  (51) 
50

>  <original_smiles>  (51) 
[H]c1c([H])c([H])c2c(c1[H])C([H])([H])C([H])([H])C([H])([H])C2([H])N([H])C(=O)C1([H])N(C(=O)C([H])(N([H])C(=O)C([H])(N([H])C([H])([H])[H])C([H])([H])[H])C(C([H])([H])[H])(C([H])([H])[H])C([H])([H])[H])C([H])([H])c2c([H])c(OC([H])([H])c3c([H])c(Cl)c(C([H])([H])[N+]([H])([H])C([H])([H])C([H])([H])C([H])([H])C([H])([H])N([H])C(=O)N4C([H])([H])C([H])([H])C([H])([H])C([H])(n5nc(-c6c([H])c([H])c(Oc7c([H])c([H])c(F)c([H])c7F)c([H])c6[H])c(C(=O)N([H])[H])c5N([H])[H])C4([H])[H])c(Cl)c3[H])c([H])c([H])c2C1([H])[H]

>  <smiles>  (51) 
[H]c1c([H])c([H])c2c(c1[H])C([H])([H])C([H])([H])C([H])([H])C2([H])N([H])C(=O)C1([H])N(C(=O)C([H])(N([H])C(=O)C([H])(N([H])C([H])([H])[H])C([H])([H])[H])C(C([H])([H])[H])(C([H])([H])[H])C([H])([H])[H])C([H])([H])c2c([H])c(OC([H])([H])c3c([H])c(Cl)c(C([H])([H])[N+]([H])([H])C([H])([H])C([H])([H])C([H])([H])C([H])([H])N([H])C(=O)N4C([H])([H])C([H])([H])C([H])([H])C([H])(n5nc(-c6c([H])c([H])c(Oc7c([H])c([H])c(F)c([H])c7F)c([H])c6[H])c(C(=O)N([H])[H])c5N([H])[H])C4([H])[H])c(Cl)c3[H])c([H])c([H])c2C1([H])[H]

$$$$
51:0:0
     RDKit          3D

 97105  0  0  1  0  0  0  0  0999 V2000
  -29.0280  -22.9780   22.3930 C   0  0  0  0  0  0  0  0  0  0  0  0
  -28.2490  -23.2650   21.2310 C   0  0  0  0  0  0  0  0  0  0  0  0
  -29.6390  -21.7050   22.5070 C   0  0  0  0  0  0  0  0  0  0  0  0
  -28.0520  -22.2050   20.3010 C   0  0  0  0  0  0  0  0  0  0  0  0
  -29.4200  -20.7540   21.4960 C   0  0  0  0  0  0  0  0  0  0  0  0
  -29.2340  -23.9960   23.5070 C   0  0  0  0  0  1  0  0  0  0  0  0
  -28.6480  -21.0000   20.4280 N   0  0  0  0  0  0  0  0  0  0  0  0
  -30.6700  -21.3020   23.8450 Cl  0  0  0  0  0  0  0  0  0  0  0  0
  -30.0180  -19.4930   21.6000 N   0  0  0  0  0  0  0  0  0  0  0  0
  -30.7260  -19.4100   22.3200 H   0  0  0  0  0  0  0  0  0  0  0  0
  -30.0330  -18.5570   20.4780 C   0  0  0  0  0  2  0  0  0  0  0  0
  -31.3160  -17.7120   20.4650 C   0  0  0  0  0  2  0  0  0  0  0  0
  -31.3880  -16.6170   21.5570 C   0  0  0  0  0  2  0  0  0  0  0  0
  -31.0960  -14.4980   20.3060 C   0  0  0  0  0  0  0  0  0  0  0  0
  -30.6920  -12.3570   19.1580 C   0  0  0  0  0  2  0  0  0  0  0  0
  -29.7620  -12.5470   17.9470 C   0  0  0  0  0  2  0  0  0  0  0  0
  -28.2870  -12.4420   18.3770 C   0  0  0  0  0  2  0  0  0  0  0  0
  -27.9600  -13.3310   19.6050 C   0  0  0  0  0  3  0  0  0  0  0  0
  -29.0060  -13.1360   20.7270 C   0  0  0  0  0  2  0  0  0  0  0  0
  -30.3470  -13.3720   20.1620 N   0  0  0  0  0  0  0  0  0  0  0  0
  -32.1340  -14.6960   19.6700 O   0  0  0  0  0  0  0  0  0  0  0  0
  -30.6630  -15.3940   21.2010 N   0  0  0  0  0  0  0  0  0  0  0  0
  -29.8180  -15.1730   21.7100 H   0  0  0  0  0  0  0  0  0  0  0  0
  -25.5690  -13.9870   20.3030 C   0  0  0  0  0  0  0  0  0  0  0  0
  -24.4880  -13.2370   20.6860 C   0  0  0  0  0  0  0  0  0  0  0  0
  -24.9270  -11.8780   20.6750 C   0  0  0  0  0  0  0  0  0  0  0  0
  -26.6000  -13.0860   20.0860 N   0  0  0  0  0  0  0  0  0  0  0  0
  -26.2170  -11.8140   20.3660 N   0  0  0  0  0  0  0  0  0  0  0  0
  -24.1800  -10.6310   20.8830 C   0  0  0  0  0  0  0  0  0  0  0  0
  -24.5700   -9.6930   21.8630 C   0  0  0  0  0  3  0  0  0  0  0  0
  -23.8250   -8.5090   22.0580 C   0  0  0  0  0  3  0  0  0  0  0  0
  -22.6740   -8.2580   21.2720 C   0  0  0  0  0  0  0  0  0  0  0  0
  -22.3030   -9.1870   20.2830 C   0  0  0  0  0  3  0  0  0  0  0  0
  -23.0500  -10.3610   20.0870 C   0  0  0  0  0  3  0  0  0  0  0  0
  -21.9040   -7.1250   21.3730 O   0  0  0  0  0  0  0  0  0  0  0  0
  -21.7710   -6.4500   22.5590 C   0  0  0  0  0  0  0  0  0  0  0  0
  -21.2740   -7.0770   23.7230 C   0  0  0  0  0  3  0  0  0  0  0  0
  -21.0870   -6.3270   24.9020 C   0  0  0  0  0  3  0  0  0  0  0  0
  -21.3860   -4.9510   24.9180 C   0  0  0  0  0  0  0  0  0  0  0  0
  -21.8770   -4.3240   23.7590 C   0  0  0  0  0  3  0  0  0  0  0  0
  -22.0660   -5.0710   22.5830 C   0  0  0  0  0  0  0  0  0  0  0  0
  -22.5170   -4.4560   21.4640 F   0  0  0  0  0  0  0  0  0  0  0  0
  -21.2000   -4.2300   26.0480 F   0  0  0  0  0  0  0  0  0  0  0  0
  -23.0990  -13.7430   20.9530 C   0  0  0  0  0  0  0  0  0  0  0  0
  -22.3670  -13.0800   21.8410 N   0  0  0  0  0  0  0  0  0  0  0  0
  -22.6730  -14.7610   20.4100 O   0  0  0  0  0  0  0  0  0  0  0  0
  -22.7260  -12.2560   22.3010 H   0  0  0  0  0  0  0  0  0  0  0  0
  -21.4350  -13.4010   22.0620 H   0  0  0  0  0  0  0  0  0  0  0  0
  -25.7560  -15.3510   20.1030 N   0  0  0  0  0  0  0  0  0  0  0  0
  -25.0010  -16.0210   20.2010 H   0  0  0  0  0  0  0  0  0  0  0  0
  -26.6180  -15.7730   19.7790 H   0  0  0  0  0  0  0  0  0  0  0  0
  -26.3840  -24.8730   21.8520 C   0  0  0  0  0  1  0  0  0  0  0  0
  -27.6400  -24.6620   20.9750 C   0  0  0  0  0  3  0  0  0  0  0  0
  -28.6610  -25.8440   21.0050 C   0  0  0  0  0  2  0  0  0  0  0  0
  -28.4930  -26.8470   19.9940 O   0  0  0  0  0  0  0  0  0  0  0  0
  -24.6480  -31.9170   23.2200 C   0  0  0  0  0  0  0  0  0  0  0  0
  -27.3330  -27.5790   20.0510 C   0  0  0  0  0  0  0  0  0  0  0  0
  -23.4540  -30.5350   21.5510 C   0  0  0  0  0  3  0  0  0  0  0  0
  -24.9240  -29.0440   20.1000 C   0  0  0  0  0  0  0  0  0  0  0  0
  -25.9730  -30.9250   21.3640 C   0  0  0  0  0  2  0  0  0  0  0  0
  -26.0740  -29.5650   20.7100 C   0  0  0  0  0  0  0  0  0  0  0  0
  -27.2850  -28.8330   20.6970 C   0  0  0  0  0  3  0  0  0  0  0  0
  -26.1810  -27.0890   19.4040 C   0  0  0  0  0  3  0  0  0  0  0  0
  -24.9680  -27.8010   19.4480 C   0  0  0  0  0  3  0  0  0  0  0  0
  -23.6690  -29.8840   20.1600 C   0  0  0  0  0  2  0  0  0  0  0  0
  -24.7090  -31.1430   22.1020 N   0  0  0  0  0  0  0  0  0  0  0  0
  -23.5650  -32.1660   23.7670 O   0  0  0  0  0  0  0  0  0  0  0  0
  -22.8160  -29.4880   22.4900 C   0  0  0  0  0  0  0  0  0  0  0  0
  -21.4940  -29.3010   22.3560 N   0  0  0  0  0  0  0  0  0  0  0  0
  -23.5060  -28.8490   23.2880 O   0  0  0  0  0  0  0  0  0  0  0  0
  -21.0070  -29.8700   21.6780 H   0  0  0  0  0  0  0  0  0  0  0  0
  -18.1210  -28.0900   22.8540 C   0  0  0  0  0  0  0  0  0  0  0  0
  -20.6830  -28.3430   23.1050 C   0  0  0  0  0  3  0  0  0  0  0  0
  -20.7790  -26.9290   22.4860 C   0  0  0  0  0  2  0  0  0  0  0  0
  -19.6670  -26.6350   21.4750 C   0  0  0  0  0  2  0  0  0  0  0  0
  -18.2920  -26.7590   22.1370 C   0  0  0  0  0  2  0  0  0  0  0  0
  -19.2450  -28.8390   23.2940 C   0  0  0  0  0  0  0  0  0  0  0  0
  -19.0350  -30.0830   23.9260 C   0  0  0  0  0  3  0  0  0  0  0  0
  -17.7340  -30.5830   24.1160 C   0  0  0  0  0  3  0  0  0  0  0  0
  -16.6230  -29.8340   23.6910 C   0  0  0  0  0  3  0  0  0  0  0  0
  -16.8180  -28.5870   23.0680 C   0  0  0  0  0  3  0  0  0  0  0  0
  -25.9310  -32.5440   23.8500 C   0  0  0  0  0  3  0  0  0  0  0  0
  -25.6170  -33.9390   24.1800 N   0  0  0  0  0  0  0  0  0  0  0  0
  -25.9610  -34.9940   23.4260 C   0  0  0  0  0  0  0  0  0  0  0  0
  -26.6500  -34.8950   22.4080 O   0  0  0  0  0  0  0  0  0  0  0  0
  -25.0020  -34.0900   24.9650 H   0  0  0  0  0  0  0  0  0  0  0  0
  -24.2440  -36.7900   23.0430 C   0  0  0  0  0  1  0  0  0  0  0  0
  -25.4640  -36.3780   23.8800 C   0  0  0  0  0  3  0  0  0  0  0  0
  -27.5810  -37.2550   24.7570 C   0  0  0  0  0  1  0  0  0  0  0  0
  -26.5000  -37.4310   23.7920 N   0  0  0  0  0  0  0  0  0  0  0  0
  -26.0900  -38.3510   23.9370 H   0  0  0  0  0  0  0  0  0  0  0  0
  -26.4400  -31.7670   25.1250 C   0  0  1  0  0  0  0  0  0  0  0  0
  -25.3340  -31.5120   26.1780 C   0  0  0  0  0  1  0  0  0  0  0  0
  -27.0380  -30.3960   24.7290 C   0  0  0  0  0  1  0  0  0  0  0  0
  -27.5800  -32.5660   25.8030 C   0  0  0  0  0  1  0  0  0  0  0  0
  -26.6760  -21.0110   18.4640 C   0  0  0  0  0  1  0  0  0  0  0  0
  -27.1940  -22.3420   19.0420 C   0  0  0  0  0  2  0  0  0  0  0  0
  1  3  1  0
  1  6  1  0
  2  1  2  0
  3  8  1  0
  4  7  2  0
  4  2  1  0
  5  9  1  0
  5  3  2  0
  7  5  1  0
  9 10  1  0
 11  9  1  0
 12 11  1  0
 12 13  1  0
 14 22  1  0
 15 20  1  0
 16 17  1  0
 16 15  1  0
 18 17  1  0
 18 27  1  0
 18 19  1  0
 20 14  1  0
 20 19  1  0
 21 14  2  0
 22 13  1  0
 22 23  1  0
 24 25  2  0
 25 44  1  0
 26 25  1  0
 26 29  1  0
 27 24  1  0
 27 28  1  0
 28 26  2  0
 29 30  1  0
 30 31  2  0
 32 35  1  0
 32 31  1  0
 33 32  2  0
 34 33  1  0
 34 29  2  0
 35 36  1  0
 36 41  2  0
 36 37  1  0
 37 38  2  0
 38 39  1  0
 39 43  1  0
 40 39  2  0
 41 40  1  0
 42 41  1  0
 44 45  1  0
 45 48  1  0
 45 47  1  0
 46 44  2  0
 49 50  1  0
 49 24  1  0
 51 49  1  0
 53 54  1  0
 53  2  1  0
 53 52  1  0
 55 57  1  0
 55 54  1  0
 56 67  2  0
 57 62  1  0
 58 66  1  0
 58 68  1  0
 59 65  1  0
 59 61  1  0
 60 66  1  0
 61 60  1  0
 62 61  2  0
 63 64  1  0
 63 57  2  0
 64 59  2  0
 65 58  1  0
 66 56  1  0
 68 70  2  0
 69 68  1  0
 71 69  1  0
 72 81  2  0
 72 77  1  0
 73 69  1  0
 73 77  1  0
 74 73  1  0
 75 76  1  0
 75 74  1  0
 76 72  1  0
 77 78  2  0
 78 79  1  0
 80 79  2  0
 81 80  1  0
 82 56  1  0
 82 83  1  0
 82 92  1  0
 83 86  1  0
 84 88  1  0
 84 83  1  0
 85 84  2  0
 88 87  1  0
 90 88  1  0
 90 91  1  0
 90 89  1  0
 92 95  1  1
 92 93  1  0
 94 92  1  0
 96 97  1  0
 97  4  1  0
M  ISO  4  14 100  22 100  54 101  55 101
M  END
>  <TORSDO>  (52) 
F 23

>  <SCORE>  (52) 
-13.101

>  <name>  (52) 
51

>  <ligand_id>  (52) 
51

>  <original_smiles>  (52) 
[H]c1c([H])c([H])c2c(c1[H])C([H])([H])C([H])([H])C([H])([H])C2([H])N([H])C(=O)C1([H])N(C(=O)C([H])(N([H])C(=O)C([H])(N([H])C([H])([H])[H])C([H])([H])[H])C(C([H])([H])[H])(C([H])([H])[H])C([H])([H])[H])C([H])([H])c2c([H])c(OC([H])([H])C([H])(c3c(C([H])([H])C([H])([H])[H])nc(N([H])C([H])([H])C([H])([H])C([H])([H])N([H])C(=O)N4C([H])([H])C([H])([H])C([H])([H])C([H])(n5nc(-c6c([H])c([H])c(Oc7c([H])c([H])c(F)c([H])c7F)c([H])c6[H])c(C(=O)N([H])[H])c5N([H])[H])C4([H])[H])c(Cl)c3C([H])([H])[H])C([H])([H])[H])c([H])c([H])c2C1([H])[H]

>  <smiles>  (52) 
[H]c1c([H])c([H])c2c(c1[H])C([H])([H])C([H])([H])C([H])([H])C2([H])N([H])C(=O)C1([H])N(C(=O)C([H])(N([H])C(=O)C([H])(N([H])C([H])([H])[H])C([H])([H])[H])C(C([H])([H])[H])(C([H])([H])[H])C([H])([H])[H])C([H])([H])c2c([H])c(OC([H])([H])C([H])(c3c(C([H])([H])C([H])([H])[H])nc(N([H])C([H])([H])C([H])([H])C([H])([H])N([H])C(=O)N4C([H])([H])C([H])([H])C([H])([H])C([H])(n5nc(-c6c([H])c([H])c(Oc7c([H])c([H])c(F)c([H])c7F)c([H])c6[H])c(C(=O)N([H])[H])c5N([H])[H])C4([H])[H])c(Cl)c3C([H])([H])[H])C([H])([H])[H])c([H])c([H])c2C1([H])[H]

$$$$
52:0:0
     RDKit          3D

 90 98  0  0  1  0  0  0  0  0999 V2000
  -30.2390  -20.7100   21.6300 C   0  0  0  0  0  2  0  0  0  0  0  0
  -32.0760  -19.1400   20.6540 C   0  0  0  0  0  2  0  0  0  0  0  0
  -31.2950  -18.7790   23.0220 C   0  0  0  0  0  2  0  0  0  0  0  0
  -31.2510  -17.9210   20.1850 C   0  0  0  0  0  2  0  0  0  0  0  0
  -30.4450  -17.5670   22.5930 C   0  0  0  0  0  2  0  0  0  0  0  0
  -31.4950  -19.8330   21.9060 C   0  0  0  0  0  3  0  0  0  0  0  0
  -31.0020  -16.8810   21.3170 C   0  0  0  0  0  3  0  0  0  0  0  0
  -30.7460  -14.5790   20.3770 C   0  0  0  0  0  0  0  0  0  0  0  0
  -30.4000  -12.3880   19.2720 C   0  0  0  0  0  2  0  0  0  0  0  0
  -29.4640  -12.5340   18.0550 C   0  0  0  0  0  2  0  0  0  0  0  0
  -27.9950  -12.3630   18.4830 C   0  0  0  0  0  2  0  0  0  0  0  0
  -27.6380  -13.2360   19.7120 C   0  0  0  0  0  3  0  0  0  0  0  0
  -28.7040  -13.0990   20.8340 C   0  0  0  0  0  2  0  0  0  0  0  0
  -30.0160  -13.4220   20.2530 N   0  0  0  0  0  0  0  0  0  0  0  0
  -31.9140  -14.6180   19.9830 O   0  0  0  0  0  0  0  0  0  0  0  0
  -28.8370  -16.1740   20.4260 C   0  0  0  0  0  1  0  0  0  0  0  0
  -30.1670  -15.7260   20.8700 N   0  0  0  0  0  0  0  0  0  0  0  0
  -25.2520  -13.8910   20.4120 C   0  0  0  0  0  0  0  0  0  0  0  0
  -24.1760  -13.1340   20.7850 C   0  0  0  0  0  0  0  0  0  0  0  0
  -24.6250  -11.7790   20.7720 C   0  0  0  0  0  0  0  0  0  0  0  0
  -26.2880  -12.9910   20.1970 N   0  0  0  0  0  0  0  0  0  0  0  0
  -25.9150  -11.7190   20.4750 N   0  0  0  0  0  0  0  0  0  0  0  0
  -23.8900  -10.5260   20.9670 C   0  0  0  0  0  0  0  0  0  0  0  0
  -24.3140   -9.5620   21.9070 C   0  0  0  0  0  3  0  0  0  0  0  0
  -23.5810   -8.3700   22.0870 C   0  0  0  0  0  3  0  0  0  0  0  0
  -22.4100   -8.1360   21.3280 C   0  0  0  0  0  0  0  0  0  0  0  0
  -22.0060   -9.0890   20.3770 C   0  0  0  0  0  3  0  0  0  0  0  0
  -22.7400  -10.2720   20.1940 C   0  0  0  0  0  3  0  0  0  0  0  0
  -21.6480   -6.9980   21.4190 O   0  0  0  0  0  0  0  0  0  0  0  0
  -21.5890   -6.2640   22.5770 C   0  0  0  0  0  0  0  0  0  0  0  0
  -21.1660   -6.8310   23.7990 C   0  0  0  0  0  3  0  0  0  0  0  0
  -21.0550   -6.0240   24.9490 C   0  0  0  0  0  3  0  0  0  0  0  0
  -21.3560   -4.6510   24.8770 C   0  0  0  0  0  0  0  0  0  0  0  0
  -21.7720   -4.0830   23.6600 C   0  0  0  0  0  3  0  0  0  0  0  0
  -21.8860   -4.8880   22.5130 C   0  0  0  0  0  0  0  0  0  0  0  0
  -22.2680   -4.3310   21.3380 F   0  0  0  0  0  0  0  0  0  0  0  0
  -21.2400   -3.8730   25.9790 F   0  0  0  0  0  0  0  0  0  0  0  0
  -22.7810  -13.6270   21.0380 C   0  0  0  0  0  0  0  0  0  0  0  0
  -22.0390  -12.9460   21.9050 N   0  0  0  0  0  0  0  0  0  0  0  0
  -22.3560  -14.6520   20.5060 O   0  0  0  0  0  0  0  0  0  0  0  0
  -22.3940  -12.1170   22.3590 H   0  0  0  0  0  0  0  0  0  0  0  0
  -21.1020  -13.2580   22.1170 H   0  0  0  0  0  0  0  0  0  0  0  0
  -25.4240  -15.2570   20.2120 N   0  0  0  0  0  0  0  0  0  0  0  0
  -24.6590  -15.9150   20.3110 H   0  0  0  0  0  0  0  0  0  0  0  0
  -26.2760  -15.6870   19.8760 H   0  0  0  0  0  0  0  0  0  0  0  0
  -30.5530  -22.1590   21.1620 C   0  0  0  0  0  2  0  0  0  0  0  0
  -29.2870  -23.0040   20.8710 C   0  0  0  0  0  2  0  0  0  0  0  0
  -29.5330  -24.5190   20.6330 C   0  0  0  0  0  2  0  0  0  0  0  0
  -28.2480  -25.2700   20.2110 C   0  0  0  0  0  2  0  0  0  0  0  0
  -28.3930  -26.7020   20.1880 O   0  0  0  0  0  0  0  0  0  0  0  0
  -24.5660  -31.9020   23.1980 C   0  0  0  0  0  0  0  0  0  0  0  0
  -27.2190  -27.4370   20.1470 C   0  0  0  0  0  0  0  0  0  0  0  0
  -23.3640  -30.4920   21.5590 C   0  0  0  0  0  3  0  0  0  0  0  0
  -24.8200  -28.9520   20.1430 C   0  0  0  0  0  0  0  0  0  0  0  0
  -25.8910  -30.8500   21.3660 C   0  0  0  0  0  2  0  0  0  0  0  0
  -25.9780  -29.4770   20.7280 C   0  0  0  0  0  0  0  0  0  0  0  0
  -27.1810  -28.7300   20.7240 C   0  0  0  0  0  3  0  0  0  0  0  0
  -26.0390  -26.9320   19.5520 C   0  0  0  0  0  3  0  0  0  0  0  0
  -24.8450  -27.6790   19.5490 C   0  0  0  0  0  3  0  0  0  0  0  0
  -23.5760  -29.8100   20.1820 C   0  0  0  0  0  2  0  0  0  0  0  0
  -24.6250  -31.0960   22.1000 N   0  0  0  0  0  0  0  0  0  0  0  0
  -23.4840  -32.1760   23.7350 O   0  0  0  0  0  0  0  0  0  0  0  0
  -22.7110  -29.4750   22.5230 C   0  0  0  0  0  0  0  0  0  0  0  0
  -21.3860  -29.2940   22.3960 N   0  0  0  0  0  0  0  0  0  0  0  0
  -23.3930  -28.8510   23.3410 O   0  0  0  0  0  0  0  0  0  0  0  0
  -20.8980  -29.8490   21.7060 H   0  0  0  0  0  0  0  0  0  0  0  0
  -18.0070  -28.1130   22.8970 C   0  0  0  0  0  0  0  0  0  0  0  0
  -20.5660  -28.3590   23.1660 C   0  0  0  0  0  3  0  0  0  0  0  0
  -20.6620  -26.9280   22.5890 C   0  0  0  0  0  2  0  0  0  0  0  0
  -19.5580  -26.6100   21.5760 C   0  0  0  0  0  2  0  0  0  0  0  0
  -18.1770  -26.7620   22.2220 C   0  0  0  0  0  2  0  0  0  0  0  0
  -19.1300  -28.8700   23.3260 C   0  0  0  0  0  0  0  0  0  0  0  0
  -18.9180  -30.1350   23.9140 C   0  0  0  0  0  3  0  0  0  0  0  0
  -17.6170  -30.6440   24.0810 C   0  0  0  0  0  3  0  0  0  0  0  0
  -16.5080  -29.8840   23.6700 C   0  0  0  0  0  3  0  0  0  0  0  0
  -16.7040  -28.6210   23.0830 C   0  0  0  0  0  3  0  0  0  0  0  0
  -25.8520  -32.5340   23.8180 C   0  0  0  0  0  3  0  0  0  0  0  0
  -25.5380  -33.9260   24.1620 N   0  0  0  0  0  0  0  0  0  0  0  0
  -25.8630  -34.9870   23.4120 C   0  0  0  0  0  0  0  0  0  0  0  0
  -26.5320  -34.8970   22.3790 O   0  0  0  0  0  0  0  0  0  0  0  0
  -24.9430  -34.0700   24.9660 H   0  0  0  0  0  0  0  0  0  0  0  0
  -24.1280  -36.7760   23.0720 C   0  0  0  0  0  1  0  0  0  0  0  0
  -25.3680  -36.3680   23.8830 C   0  0  0  0  0  3  0  0  0  0  0  0
  -27.4970  -37.2510   24.7280 C   0  0  0  0  0  1  0  0  0  0  0  0
  -26.3970  -37.4260   23.7840 N   0  0  0  0  0  0  0  0  0  0  0  0
  -25.9870  -38.3420   23.9420 H   0  0  0  0  0  0  0  0  0  0  0  0
  -26.3820  -31.7520   25.0820 C   0  0  1  0  0  0  0  0  0  0  0  0
  -25.2980  -31.4950   26.1540 C   0  0  0  0  0  1  0  0  0  0  0  0
  -26.9720  -30.3840   24.6680 C   0  0  0  0  0  1  0  0  0  0  0  0
  -27.5310  -32.5470   25.7450 C   0  0  0  0  0  1  0  0  0  0  0  0
  2  6  1  0
  4  2  1  0
  4  7  1  0
  5  3  1  0
  6  1  1  0
  6  3  1  0
  7 17  1  0
  7  5  1  0
  8 17  1  0
  9 14  1  0
 10 11  1  0
 10  9  1  0
 12 11  1  0
 12 21  1  0
 12 13  1  0
 14  8  1  0
 14 13  1  0
 15  8  2  0
 16 17  1  0
 18 19  2  0
 19 38  1  0
 20 19  1  0
 20 23  1  0
 21 18  1  0
 21 22  1  0
 22 20  2  0
 23 24  1  0
 24 25  2  0
 26 29  1  0
 26 25  1  0
 27 26  2  0
 28 27  1  0
 28 23  2  0
 29 30  1  0
 30 31  1  0
 31 32  2  0
 33 32  1  0
 33 37  1  0
 34 33  2  0
 35 30  2  0
 35 34  1  0
 36 35  1  0
 38 39  1  0
 39 42  1  0
 39 41  1  0
 40 38  2  0
 43 44  1  0
 43 18  1  0
 45 43  1  0
 46  1  1  0
 47 46  1  0
 48 47  1  0
 49 48  1  0
 50 49  1  0
 51 62  2  0
 52 50  1  0
 52 57  1  0
 53 61  1  0
 53 63  1  0
 54 60  1  0
 54 56  1  0
 55 61  1  0
 56 55  1  0
 57 56  2  0
 58 52  2  0
 59 58  1  0
 59 54  2  0
 60 53  1  0
 61 51  1  0
 63 65  2  0
 64 63  1  0
 66 64  1  0
 67 76  2  0
 67 72  1  0
 68 64  1  0
 68 72  1  0
 69 68  1  0
 70 71  1  0
 70 69  1  0
 71 67  1  0
 72 73  2  0
 73 74  1  0
 75 74  2  0
 76 75  1  0
 77 51  1  0
 77 78  1  0
 77 87  1  0
 78 81  1  0
 79 83  1  0
 79 78  1  0
 80 79  2  0
 83 82  1  0
 85 83  1  0
 85 86  1  0
 85 84  1  0
 87 90  1  1
 87 88  1  0
 89 87  1  0
M  ISO  4   8 100  17 100  49 101  50 101
M  END
>  <TORSDO>  (53) 
F 21

>  <SCORE>  (53) 
-13.359

>  <name>  (53) 
52

>  <ligand_id>  (53) 
52

>  <original_smiles>  (53) 
[H]c1c([H])c([H])c2c(c1[H])C([H])([H])C([H])([H])C([H])([H])C2([H])N([H])C(=O)C1([H])N(C(=O)C([H])(N([H])C(=O)C([H])(N([H])C([H])([H])[H])C([H])([H])[H])C(C([H])([H])[H])(C([H])([H])[H])C([H])([H])[H])C([H])([H])c2c([H])c(OC([H])([H])C([H])([H])C([H])([H])C([H])([H])C([H])([H])C3([H])C([H])([H])C([H])([H])C([H])(N(C(=O)N4C([H])([H])C([H])([H])C([H])([H])C([H])(n5nc(-c6c([H])c([H])c(Oc7c([H])c([H])c(F)c([H])c7F)c([H])c6[H])c(C(=O)N([H])[H])c5N([H])[H])C4([H])[H])C([H])([H])[H])C([H])([H])C3([H])[H])c([H])c([H])c2C1([H])[H]

>  <smiles>  (53) 
[H]c1c([H])c([H])c2c(c1[H])C([H])([H])C([H])([H])C([H])([H])C2([H])N([H])C(=O)C1([H])N(C(=O)C([H])(N([H])C(=O)C([H])(N([H])C([H])([H])[H])C([H])([H])[H])C(C([H])([H])[H])(C([H])([H])[H])C([H])([H])[H])C([H])([H])c2c([H])c(OC([H])([H])C([H])([H])C([H])([H])C([H])([H])C([H])([H])C3([H])C([H])([H])C([H])([H])C([H])(N(C(=O)N4C([H])([H])C([H])([H])C([H])([H])C([H])(n5nc(-c6c([H])c([H])c(Oc7c([H])c([H])c(F)c([H])c7F)c([H])c6[H])c(C(=O)N([H])[H])c5N([H])[H])C4([H])[H])C([H])([H])[H])C([H])([H])C3([H])[H])c([H])c([H])c2C1([H])[H]

$$$$
53:0:0
     RDKit          3D

 97106  0  0  1  0  0  0  0  0999 V2000
  -28.4450  -22.5890   21.2180 C   0  0  0  0  0  2  0  0  0  0  0  0
  -30.7310  -22.9910   20.1880 C   0  0  0  0  0  2  0  0  0  0  0  0
  -28.6420  -23.8630   22.0540 C   0  0  0  0  0  2  0  0  0  0  0  0
  -30.8330  -24.2620   21.0560 C   0  0  0  0  0  2  0  0  0  0  0  0
  -29.7690  -21.9280   20.7700 C   0  0  0  0  0  3  0  0  0  0  0  0
  -29.4850  -24.8290   21.3110 N   0  0  2  0  0  4  0  0  0  0  0  0
  -29.0350  -24.9490   20.4130 H   0  0  0  0  0  0  0  0  0  0  0  0
  -29.4570  -20.8140   19.7420 C   0  0  0  0  0  2  0  0  0  0  0  0
  -30.0880  -18.9020   21.2600 C   0  0  0  0  0  3  0  0  0  0  0  0
  -31.2630  -17.4570   19.1570 C   0  0  0  0  0  3  0  0  0  0  0  0
  -30.1500  -19.4790   19.9740 C   0  0  0  0  0  0  0  0  0  0  0  0
  -31.1490  -16.8590   20.4370 C   0  0  0  0  0  0  0  0  0  0  0  0
  -30.5700  -17.6010   21.4900 C   0  0  0  0  0  0  0  0  0  0  0  0
  -30.7610  -18.7530   18.9220 C   0  0  0  0  0  0  0  0  0  0  0  0
  -30.3870  -16.9010   23.0610 Cl  0  0  0  0  0  0  0  0  0  0  0  0
  -30.8660  -19.4040   17.3240 Cl  0  0  0  0  0  0  0  0  0  0  0  0
  -32.0000  -14.5950   19.8810 C   0  0  0  0  0  0  0  0  0  0  0  0
  -31.6220  -12.3510   18.9340 C   0  0  0  0  0  2  0  0  0  0  0  0
  -30.5920  -12.4700   17.7900 C   0  0  0  0  0  2  0  0  0  0  0  0
  -29.1530  -12.3790   18.3350 C   0  0  0  0  0  2  0  0  0  0  0  0
  -28.9130  -13.3340   19.5340 C   0  0  0  0  0  3  0  0  0  0  0  0
  -30.0390  -13.1760   20.5800 C   0  0  0  0  0  2  0  0  0  0  0  0
  -31.3360  -13.4100   19.9110 N   0  0  0  0  0  0  0  0  0  0  0  0
  -32.9820  -14.8100   19.1650 O   0  0  0  0  0  0  0  0  0  0  0  0
  -31.5180  -15.5140   20.7270 N   0  0  0  0  0  0  0  0  0  0  0  0
  -30.9720  -15.1160   21.4780 H   0  0  0  0  0  0  0  0  0  0  0  0
  -26.6610  -14.0600   20.5570 C   0  0  0  0  0  0  0  0  0  0  0  0
  -25.5720  -13.3410   20.9710 C   0  0  0  0  0  0  0  0  0  0  0  0
  -25.9000  -11.9680   20.7560 C   0  0  0  0  0  0  0  0  0  0  0  0
  -27.5920  -13.1260   20.1270 N   0  0  0  0  0  0  0  0  0  0  0  0
  -27.1400  -11.8560   20.2970 N   0  0  0  0  0  0  0  0  0  0  0  0
  -25.0850  -10.7560   20.9080 C   0  0  0  0  0  0  0  0  0  0  0  0
  -25.3440   -9.8150   21.9300 C   0  0  0  0  0  3  0  0  0  0  0  0
  -24.5370   -8.6650   22.0640 C   0  0  0  0  0  3  0  0  0  0  0  0
  -23.4560   -8.4490   21.1770 C   0  0  0  0  0  0  0  0  0  0  0  0
  -23.2180   -9.3760   20.1480 C   0  0  0  0  0  3  0  0  0  0  0  0
  -24.0260  -10.5170   20.0110 C   0  0  0  0  0  3  0  0  0  0  0  0
  -22.6330   -7.3480   21.2160 O   0  0  0  0  0  0  0  0  0  0  0  0
  -22.2000   -6.8160   22.4040 C   0  0  0  0  0  0  0  0  0  0  0  0
  -21.4890   -7.5870   23.3500 C   0  0  0  0  0  3  0  0  0  0  0  0
  -21.0030   -6.9820   24.5270 C   0  0  0  0  0  3  0  0  0  0  0  0
  -21.2160   -5.6090   24.7540 C   0  0  0  0  0  0  0  0  0  0  0  0
  -21.9190   -4.8400   23.8110 C   0  0  0  0  0  3  0  0  0  0  0  0
  -22.4070   -5.4420   22.6370 C   0  0  0  0  0  0  0  0  0  0  0  0
  -23.0650   -4.6910   21.7210 F   0  0  0  0  0  0  0  0  0  0  0  0
  -20.7420   -5.0260   25.8800 F   0  0  0  0  0  0  0  0  0  0  0  0
  -24.2620  -13.8960   21.4520 C   0  0  0  0  0  0  0  0  0  0  0  0
  -23.6210  -13.2220   22.4000 N   0  0  0  0  0  0  0  0  0  0  0  0
  -23.8220  -14.9610   21.0200 O   0  0  0  0  0  0  0  0  0  0  0  0
  -23.9910  -12.3560   22.7660 H   0  0  0  0  0  0  0  0  0  0  0  0
  -22.7470  -13.5740   22.7660 H   0  0  0  0  0  0  0  0  0  0  0  0
  -26.9330  -15.4230   20.4930 N   0  0  0  0  0  0  0  0  0  0  0  0
  -26.2500  -16.1260   20.7520 H   0  0  0  0  0  0  0  0  0  0  0  0
  -27.7900  -15.8190   20.1280 H   0  0  0  0  0  0  0  0  0  0  0  0
  -29.4880  -26.2000   21.8860 C   0  0  0  0  0  2  0  0  0  0  0  0
  -29.6030  -27.2500   20.7660 C   0  0  0  0  0  2  0  0  0  0  0  0
  -28.5130  -27.0800   19.8520 O   0  0  0  0  0  0  0  0  0  0  0  0
  -24.5250  -31.9570   23.2700 C   0  0  0  0  0  0  0  0  0  0  0  0
  -27.3490  -27.8100   19.9850 C   0  0  0  0  0  0  0  0  0  0  0  0
  -23.3680  -30.6160   21.5370 C   0  0  0  0  0  3  0  0  0  0  0  0
  -24.8810  -29.2010   20.0490 C   0  0  0  0  0  0  0  0  0  0  0  0
  -25.8740  -31.0700   21.3800 C   0  0  0  0  0  2  0  0  0  0  0  0
  -26.0100  -29.7370   20.6810 C   0  0  0  0  0  0  0  0  0  0  0  0
  -27.2390  -29.0500   20.6590 C   0  0  0  0  0  3  0  0  0  0  0  0
  -26.2010  -27.2810   19.3570 C   0  0  0  0  0  3  0  0  0  0  0  0
  -24.9680  -27.9620   19.3900 C   0  0  0  0  0  3  0  0  0  0  0  0
  -23.6090  -30.0140   20.1240 C   0  0  0  0  0  2  0  0  0  0  0  0
  -24.6050  -31.2250   22.1240 N   0  0  0  0  0  0  0  0  0  0  0  0
  -23.4340  -32.1690   23.8180 O   0  0  0  0  0  0  0  0  0  0  0  0
  -22.7390  -29.5270   22.4320 C   0  0  0  0  0  0  0  0  0  0  0  0
  -21.4190  -29.3350   22.2940 N   0  0  0  0  0  0  0  0  0  0  0  0
  -23.4360  -28.8620   23.2030 O   0  0  0  0  0  0  0  0  0  0  0  0
  -20.9240  -29.9230   21.6380 H   0  0  0  0  0  0  0  0  0  0  0  0
  -18.0510  -28.1220   22.7790 C   0  0  0  0  0  0  0  0  0  0  0  0
  -20.6160  -28.3390   23.0000 C   0  0  0  0  0  3  0  0  0  0  0  0
  -20.6930  -26.9650   22.2970 C   0  0  0  0  0  2  0  0  0  0  0  0
  -19.5610  -26.7380   21.2910 C   0  0  0  0  0  2  0  0  0  0  0  0
  -18.1980  -26.8350   21.9810 C   0  0  0  0  0  2  0  0  0  0  0  0
  -19.1880  -28.8360   23.2430 C   0  0  0  0  0  0  0  0  0  0  0  0
  -18.9960  -30.0450   23.9470 C   0  0  0  0  0  3  0  0  0  0  0  0
  -17.7020  -30.5400   24.1900 C   0  0  0  0  0  3  0  0  0  0  0  0
  -16.5800  -29.8210   23.7420 C   0  0  0  0  0  3  0  0  0  0  0  0
  -16.7560  -28.6130   23.0430 C   0  0  0  0  0  3  0  0  0  0  0  0
  -25.7920  -32.5810   23.9380 C   0  0  0  0  0  3  0  0  0  0  0  0
  -26.2750  -31.7900   25.2150 C   0  0  1  0  0  0  0  0  0  0  0  0
  -25.1420  -31.4890   26.2240 C   0  0  0  0  0  1  0  0  0  0  0  0
  -26.9170  -30.4430   24.8060 C   0  0  0  0  0  1  0  0  0  0  0  0
  -27.3730  -32.5960   25.9470 C   0  0  0  0  0  1  0  0  0  0  0  0
  -25.4770  -33.9750   24.2750 N   0  0  0  0  0  0  0  0  0  0  0  0
  -25.8630  -35.0370   23.5560 C   0  0  0  0  0  0  0  0  0  0  0  0
  -26.5970  -34.9470   22.5690 O   0  0  0  0  0  0  0  0  0  0  0  0
  -24.8440  -34.1210   25.0470 H   0  0  0  0  0  0  0  0  0  0  0  0
  -24.1770  -36.8440   23.1090 C   0  0  0  0  0  1  0  0  0  0  0  0
  -25.3530  -36.4210   24.0030 C   0  0  0  0  0  3  0  0  0  0  0  0
  -27.4260  -37.2710   25.0050 C   0  0  0  0  0  1  0  0  0  0  0  0
  -26.3990  -37.4680   23.9850 N   0  0  0  0  0  0  0  0  0  0  0  0
  -25.9920  -38.3890   24.1220 H   0  0  0  0  0  0  0  0  0  0  0  0
  1  3  1  0
  2  5  1  0
  2  4  1  0
  4  6  1  0
  5  8  1  0
  5  1  1  0
  6 55  1  0
  6  3  1  0
  6  7  1  6
  8 11  1  0
  9 13  1  0
 10 12  1  0
 11  9  2  0
 12 25  1  0
 12 13  2  0
 13 15  1  0
 14 10  2  0
 14 11  1  0
 16 14  1  0
 17 23  1  0
 17 25  1  0
 18 23  1  0
 19 20  1  0
 19 18  1  0
 21 20  1  0
 21 30  1  0
 21 22  1  0
 23 22  1  0
 24 17  2  0
 25 26  1  0
 27 28  2  0
 28 47  1  0
 29 32  1  0
 29 28  1  0
 30 31  1  0
 30 27  1  0
 31 29  2  0
 32 33  1  0
 33 34  2  0
 35 38  1  0
 35 34  1  0
 36 35  2  0
 37 36  1  0
 37 32  2  0
 38 39  1  0
 39 44  2  0
 39 40  1  0
 40 41  2  0
 41 42  1  0
 42 46  1  0
 43 42  2  0
 44 43  1  0
 45 44  1  0
 47 48  1  0
 48 50  1  0
 48 51  1  0
 49 47  2  0
 52 27  1  0
 52 53  1  0
 54 52  1  0
 56 55  1  0
 57 59  1  0
 57 56  1  0
 58 69  2  0
 59 64  1  0
 60 68  1  0
 60 70  1  0
 61 67  1  0
 61 63  1  0
 62 68  1  0
 63 62  1  0
 64 63  2  0
 65 66  1  0
 65 59  2  0
 66 61  2  0
 67 60  1  0
 68 58  1  0
 70 72  2  0
 71 70  1  0
 73 71  1  0
 74 83  2  0
 74 79  1  0
 75 71  1  0
 75 79  1  0
 76 75  1  0
 77 78  1  0
 77 76  1  0
 78 74  1  0
 79 80  2  0
 80 81  1  0
 82 81  2  0
 83 82  1  0
 84 58  1  0
 84 89  1  0
 84 85  1  0
 85 88  1  1
 85 86  1  0
 87 85  1  0
 89 92  1  0
 90 94  1  0
 90 89  1  0
 91 90  2  0
 94 93  1  0
 96 94  1  0
 96 97  1  0
 96 95  1  0
M  ISO  4  17 100  25 100  56 101  57 101
M  END
>  <TORSDO>  (54) 
F 20

>  <SCORE>  (54) 
-11.717

>  <name>  (54) 
53

>  <ligand_id>  (54) 
53

>  <original_smiles>  (54) 
[H]c1c([H])c([H])c2c(c1[H])C([H])([H])C([H])([H])C([H])([H])C2([H])N([H])C(=O)C1([H])N(C(=O)C([H])(N([H])C(=O)C([H])(N([H])C([H])([H])[H])C([H])([H])[H])C(C([H])([H])[H])(C([H])([H])[H])C([H])([H])[H])C([H])([H])c2c([H])c(OC([H])([H])C([H])([H])[N+]3([H])C([H])([H])C([H])([H])C([H])(C([H])([H])c4c([H])c(Cl)c(N([H])C(=O)N5C([H])([H])C([H])([H])C([H])([H])C([H])(n6nc(-c7c([H])c([H])c(Oc8c([H])c([H])c(F)c([H])c8F)c([H])c7[H])c(C(=O)N([H])[H])c6N([H])[H])C5([H])[H])c([H])c4Cl)C([H])([H])C3([H])[H])c([H])c([H])c2C1([H])[H]

>  <smiles>  (54) 
[H]c1c([H])c([H])c2c(c1[H])C([H])([H])C([H])([H])C([H])([H])C2([H])N([H])C(=O)C1([H])N(C(=O)C([H])(N([H])C(=O)C([H])(N([H])C([H])([H])[H])C([H])([H])[H])C(C([H])([H])[H])(C([H])([H])[H])C([H])([H])[H])C([H])([H])c2c([H])c(OC([H])([H])C([H])([H])[N+]3([H])C([H])([H])C([H])([H])C([H])(C([H])([H])c4c([H])c(Cl)c(N([H])C(=O)N5C([H])([H])C([H])([H])C([H])([H])C([H])(n6nc(-c7c([H])c([H])c(Oc8c([H])c([H])c(F)c([H])c8F)c([H])c7[H])c(C(=O)N([H])[H])c6N([H])[H])C5([H])[H])c([H])c4Cl)C([H])([H])C3([H])[H])c([H])c([H])c2C1([H])[H]

$$$$
54:0:0
     RDKit          3D

 95103  0  0  1  0  0  0  0  0999 V2000
  -28.3180  -19.9010   20.7550 C   0  0  0  0  0  3  0  0  0  0  0  0
  -29.2170  -20.9930   20.7200 C   0  0  0  0  0  0  0  0  0  0  0  0
  -30.1120  -18.3090   20.1930 C   0  0  0  0  0  0  0  0  0  0  0  0
  -28.7580  -18.5720   20.5350 C   0  0  0  0  0  0  0  0  0  0  0  0
  -30.5640  -20.7320   20.3710 C   0  0  0  0  0  0  0  0  0  0  0  0
  -30.9870  -19.4190   20.0640 C   0  0  0  0  0  0  0  0  0  0  0  0
  -27.6090  -17.3030   20.7430 Cl  0  0  0  0  0  0  0  0  0  0  0  0
  -31.7360  -22.0070   20.3380 Cl  0  0  0  0  0  0  0  0  0  0  0  0
  -32.6260  -19.1850   19.5460 Cl  0  0  0  0  0  0  0  0  0  0  0  0
  -30.7280  -16.9180   19.9300 C   0  0  0  0  0  2  0  0  0  0  0  0
  -30.7890  -14.4870   20.0740 C   0  0  0  0  0  0  0  0  0  0  0  0
  -30.3590  -12.3650   18.9270 C   0  0  0  0  0  2  0  0  0  0  0  0
  -29.3710  -12.6170   17.7700 C   0  0  0  0  0  2  0  0  0  0  0  0
  -27.9170  -12.5140   18.2640 C   0  0  0  0  0  2  0  0  0  0  0  0
  -27.6480  -13.3210   19.5650 C   0  0  0  0  0  3  0  0  0  0  0  0
  -28.7590  -13.0970   20.6200 C   0  0  0  0  0  2  0  0  0  0  0  0
  -30.0520  -13.3520   19.9760 N   0  0  0  0  0  0  0  0  0  0  0  0
  -31.9430  -14.5540   19.6560 O   0  0  0  0  0  0  0  0  0  0  0  0
  -30.1330  -15.6310   20.3630 N   0  0  0  0  0  0  0  0  0  0  0  0
  -29.1700  -15.6020   20.6660 H   0  0  0  0  0  0  0  0  0  0  0  0
  -25.2630  -13.8960   20.3510 C   0  0  0  0  0  0  0  0  0  0  0  0
  -24.2150  -13.1150   20.7500 C   0  0  0  0  0  0  0  0  0  0  0  0
  -24.6910  -11.7690   20.7140 C   0  0  0  0  0  0  0  0  0  0  0  0
  -26.3150  -13.0300   20.0960 N   0  0  0  0  0  0  0  0  0  0  0  0
  -25.9760  -11.7440   20.3790 N   0  0  0  0  0  0  0  0  0  0  0  0
  -23.9780  -10.5050   20.9310 C   0  0  0  0  0  0  0  0  0  0  0  0
  -24.4240   -9.5590   21.8800 C   0  0  0  0  0  3  0  0  0  0  0  0
  -23.7080   -8.3620   22.0880 C   0  0  0  0  0  3  0  0  0  0  0  0
  -22.5300   -8.0990   21.3440 C   0  0  0  0  0  0  0  0  0  0  0  0
  -22.1010   -9.0380   20.3880 C   0  0  0  0  0  3  0  0  0  0  0  0
  -22.8200  -10.2270   20.1780 C   0  0  0  0  0  3  0  0  0  0  0  0
  -21.7880   -6.9500   21.4570 O   0  0  0  0  0  0  0  0  0  0  0  0
  -21.7320   -6.2410   22.6310 C   0  0  0  0  0  0  0  0  0  0  0  0
  -21.2790   -6.8260   23.8350 C   0  0  0  0  0  3  0  0  0  0  0  0
  -21.1660   -6.0410   24.9980 C   0  0  0  0  0  3  0  0  0  0  0  0
  -21.5050   -4.6740   24.9630 C   0  0  0  0  0  0  0  0  0  0  0  0
  -21.9560   -4.0910   23.7660 C   0  0  0  0  0  3  0  0  0  0  0  0
  -22.0640   -4.8730   22.6020 C   0  0  0  0  0  0  0  0  0  0  0  0
  -22.4740   -4.2990   21.4440 F   0  0  0  0  0  0  0  0  0  0  0  0
  -21.3930   -3.9180   26.0800 F   0  0  0  0  0  0  0  0  0  0  0  0
  -22.8220  -13.5820   21.0660 C   0  0  0  0  0  0  0  0  0  0  0  0
  -22.1290  -12.8880   21.9600 N   0  0  0  0  0  0  0  0  0  0  0  0
  -22.3620  -14.6050   20.5600 O   0  0  0  0  0  0  0  0  0  0  0  0
  -22.5170  -12.0640   22.3930 H   0  0  0  0  0  0  0  0  0  0  0  0
  -21.1950  -13.1830   22.2100 H   0  0  0  0  0  0  0  0  0  0  0  0
  -25.3940  -15.2660   20.1710 N   0  0  0  0  0  0  0  0  0  0  0  0
  -24.6560  -15.9050   20.4410 H   0  0  0  0  0  0  0  0  0  0  0  0
  -26.2560  -15.7430   19.9440 H   0  0  0  0  0  0  0  0  0  0  0  0
  -28.7690  -22.3890   21.1840 C   0  0  0  0  0  2  0  0  0  0  0  0
  -29.0290  -23.4700   20.1990 N   0  0  0  0  0  4  0  0  0  0  0  0
  -29.6870  -23.0770   19.5400 H   0  0  0  0  0  0  0  0  0  0  0  0
  -28.1920  -23.6940   19.6870 H   0  0  0  0  0  0  0  0  0  0  0  0
  -29.6680  -24.6920   20.7520 C   0  0  0  0  0  2  0  0  0  0  0  0
  -28.6850  -25.7480   21.2970 C   0  0  0  0  0  2  0  0  0  0  0  0
  -28.5660  -26.7740   20.3160 O   0  0  0  0  0  0  0  0  0  0  0  0
  -24.5930  -31.8930   23.2700 C   0  0  0  0  0  0  0  0  0  0  0  0
  -27.3840  -27.4640   20.3420 C   0  0  0  0  0  0  0  0  0  0  0  0
  -23.4530  -30.4590   21.6080 C   0  0  0  0  0  3  0  0  0  0  0  0
  -24.9690  -28.9080   20.2660 C   0  0  0  0  0  0  0  0  0  0  0  0
  -25.9800  -30.8450   21.4880 C   0  0  0  0  0  2  0  0  0  0  0  0
  -26.1000  -29.4670   20.8760 C   0  0  0  0  0  0  0  0  0  0  0  0
  -27.3150  -28.7500   20.9150 C   0  0  0  0  0  3  0  0  0  0  0  0
  -26.2410  -26.9020   19.7400 C   0  0  0  0  0  3  0  0  0  0  0  0
  -25.0310  -27.6240   19.7000 C   0  0  0  0  0  3  0  0  0  0  0  0
  -23.7170  -29.7540   20.2490 C   0  0  0  0  0  2  0  0  0  0  0  0
  -24.6920  -31.0820   22.1810 N   0  0  0  0  0  0  0  0  0  0  0  0
  -23.4940  -32.1610   23.7740 O   0  0  0  0  0  0  0  0  0  0  0  0
  -22.7800  -29.4440   22.5580 C   0  0  0  0  0  0  0  0  0  0  0  0
  -21.4640  -29.2450   22.3870 N   0  0  0  0  0  0  0  0  0  0  0  0
  -23.4420  -28.8330   23.4010 O   0  0  0  0  0  0  0  0  0  0  0  0
  -20.9940  -29.7750   21.6670 H   0  0  0  0  0  0  0  0  0  0  0  0
  -18.0870  -28.0320   22.8070 C   0  0  0  0  0  0  0  0  0  0  0  0
  -20.6360  -28.3050   23.1430 C   0  0  0  0  0  3  0  0  0  0  0  0
  -20.7630  -26.8730   22.5750 C   0  0  0  0  0  2  0  0  0  0  0  0
  -19.6870  -26.5370   21.5370 C   0  0  0  0  0  2  0  0  0  0  0  0
  -18.2880  -26.6840   22.1390 C   0  0  0  0  0  2  0  0  0  0  0  0
  -19.1910  -28.8020   23.2620 C   0  0  0  0  0  0  0  0  0  0  0  0
  -18.9500  -30.0700   23.8340 C   0  0  0  0  0  3  0  0  0  0  0  0
  -17.6390  -30.5660   23.9600 C   0  0  0  0  0  3  0  0  0  0  0  0
  -16.5470  -29.7930   23.5260 C   0  0  0  0  0  3  0  0  0  0  0  0
  -16.7730  -28.5260   22.9560 C   0  0  0  0  0  3  0  0  0  0  0  0
  -25.8540  -32.5440   23.9220 C   0  0  0  0  0  3  0  0  0  0  0  0
  -25.5230  -33.9430   24.2230 N   0  0  0  0  0  0  0  0  0  0  0  0
  -25.8640  -34.9870   23.4560 C   0  0  0  0  0  0  0  0  0  0  0  0
  -26.5630  -34.8760   22.4440 O   0  0  0  0  0  0  0  0  0  0  0  0
  -24.9010  -34.1040   25.0030 H   0  0  0  0  0  0  0  0  0  0  0  0
  -24.1200  -36.7460   23.0280 C   0  0  0  0  0  1  0  0  0  0  0  0
  -25.3470  -36.3740   23.8750 C   0  0  0  0  0  3  0  0  0  0  0  0
  -27.4480  -37.3030   24.7420 C   0  0  0  0  0  1  0  0  0  0  0  0
  -26.3680  -37.4390   23.7680 N   0  0  0  0  0  0  0  0  0  0  0  0
  -25.9470  -38.3560   23.8890 H   0  0  0  0  0  0  0  0  0  0  0  0
  -26.3430  -31.7940   25.2210 C   0  0  1  0  0  0  0  0  0  0  0  0
  -25.2210  -31.5510   26.2570 C   0  0  0  0  0  1  0  0  0  0  0  0
  -26.9600  -30.4220   24.8590 C   0  0  0  0  0  1  0  0  0  0  0  0
  -27.4620  -32.6130   25.9090 C   0  0  0  0  0  1  0  0  0  0  0  0
  2  1  1  0
  2 49  1  0
  3  4  1  0
  4  7  1  0
  4  1  2  0
  5  2  2  0
  6  3  2  0
  6  5  1  0
  8  5  1  0
  9  6  1  0
 10  3  1  0
 10 19  1  0
 11 19  1  0
 12 17  1  0
 13 14  1  0
 13 12  1  0
 15 14  1  0
 15 24  1  0
 15 16  1  0
 17 11  1  0
 17 16  1  0
 18 11  2  0
 19 20  1  0
 21 22  2  0
 22 41  1  0
 23 22  1  0
 23 26  1  0
 24 21  1  0
 24 25  1  0
 25 23  2  0
 26 27  1  0
 27 28  2  0
 29 32  1  0
 29 28  1  0
 30 29  2  0
 31 30  1  0
 31 26  2  0
 32 33  1  0
 33 34  1  0
 34 35  2  0
 36 35  1  0
 36 40  1  0
 37 36  2  0
 38 33  2  0
 38 37  1  0
 39 38  1  0
 41 42  1  0
 42 45  1  0
 42 44  1  0
 43 41  2  0
 46 21  1  0
 46 47  1  0
 48 46  1  0
 50 53  1  0
 50 49  1  0
 51 50  1  0
 52 50  1  0
 53 54  1  0
 55 57  1  0
 55 54  1  0
 56 67  2  0
 57 62  1  0
 58 66  1  0
 58 68  1  0
 59 61  1  0
 60 66  1  0
 61 62  2  0
 61 60  1  0
 63 57  2  0
 64 63  1  0
 64 59  2  0
 65 59  1  0
 65 58  1  0
 66 56  1  0
 68 70  2  0
 69 68  1  0
 71 69  1  0
 72 81  2  0
 72 77  1  0
 73 69  1  0
 73 77  1  0
 74 73  1  0
 75 76  1  0
 75 74  1  0
 76 72  1  0
 77 78  2  0
 78 79  1  0
 80 79  2  0
 81 80  1  0
 82 56  1  0
 82 83  1  0
 82 92  1  0
 83 86  1  0
 84 88  1  0
 84 83  1  0
 85 84  2  0
 88 87  1  0
 90 88  1  0
 90 91  1  0
 90 89  1  0
 92 95  1  1
 92 93  1  0
 94 92  1  0
M  ISO  4  11 100  19 100  54 101  55 101
M  END
>  <TORSDO>  (55) 
F 21

>  <SCORE>  (55) 
-13.276

>  <name>  (55) 
54

>  <ligand_id>  (55) 
54

>  <original_smiles>  (55) 
[H]c1c([H])c([H])c2c(c1[H])C([H])([H])C([H])([H])C([H])([H])C2([H])N([H])C(=O)C1([H])N(C(=O)C([H])(N([H])C(=O)C([H])(N([H])C([H])([H])[H])C([H])([H])[H])C(C([H])([H])[H])(C([H])([H])[H])C([H])([H])[H])C([H])([H])c2c([H])c(OC([H])([H])C([H])([H])[N+]([H])([H])C([H])([H])c3c([H])c(Cl)c(C([H])([H])N([H])C(=O)N4C([H])([H])C([H])([H])C([H])([H])C([H])(n5nc(-c6c([H])c([H])c(Oc7c([H])c([H])c(F)c([H])c7F)c([H])c6[H])c(C(=O)N([H])[H])c5N([H])[H])C4([H])[H])c(Cl)c3Cl)c([H])c([H])c2C1([H])[H]

>  <smiles>  (55) 
[H]c1c([H])c([H])c2c(c1[H])C([H])([H])C([H])([H])C([H])([H])C2([H])N([H])C(=O)C1([H])N(C(=O)C([H])(N([H])C(=O)C([H])(N([H])C([H])([H])[H])C([H])([H])[H])C(C([H])([H])[H])(C([H])([H])[H])C([H])([H])[H])C([H])([H])c2c([H])c(OC([H])([H])C([H])([H])[N+]([H])([H])C([H])([H])c3c([H])c(Cl)c(C([H])([H])N([H])C(=O)N4C([H])([H])C([H])([H])C([H])([H])C([H])(n5nc(-c6c([H])c([H])c(Oc7c([H])c([H])c(F)c([H])c7F)c([H])c6[H])c(C(=O)N([H])[H])c5N([H])[H])C4([H])[H])c(Cl)c3Cl)c([H])c([H])c2C1([H])[H]

$$$$
55:0:0
     RDKit          3D

 90 98  0  0  1  0  0  0  0  0999 V2000
  -29.7980  -20.8300   22.0420 C   0  0  0  0  0  3  0  0  0  0  0  0
  -29.3940  -21.6580   19.4850 C   0  0  0  0  0  3  0  0  0  0  0  0
  -29.6850  -22.2250   21.7970 C   0  0  0  0  0  0  0  0  0  0  0  0
  -29.4600  -22.6840   20.4720 C   0  0  0  0  0  0  0  0  0  0  0  0
  -29.7220  -19.8880   20.9960 C   0  0  0  0  0  0  0  0  0  0  0  0
  -29.8340  -23.1830   22.9680 C   0  0  0  0  0  1  0  0  0  0  0  0
  -29.5240  -20.3150   19.7290 N   0  0  0  0  0  0  0  0  0  0  0  0
  -29.8240  -18.5000   21.3100 N   0  0  0  0  0  0  0  0  0  0  0  0
  -29.9340  -18.3030   22.3000 H   0  0  0  0  0  0  0  0  0  0  0  0
  -29.4420  -24.2070   20.0700 C   0  0  0  0  0  3  0  0  0  0  0  0
  -28.2800  -25.1640   20.5630 C   0  0  0  0  0  3  0  0  0  0  0  0
  -28.4150  -26.5920   20.2090 O   0  0  0  0  0  0  0  0  0  0  0  0
  -24.6090  -31.9180   23.2280 C   0  0  0  0  0  0  0  0  0  0  0  0
  -27.2660  -27.3920   20.1940 C   0  0  0  0  0  0  0  0  0  0  0  0
  -23.4170  -30.5110   21.5840 C   0  0  0  0  0  3  0  0  0  0  0  0
  -24.8820  -28.9630   20.1710 C   0  0  0  0  0  0  0  0  0  0  0  0
  -25.9520  -30.8500   21.4060 C   0  0  0  0  0  2  0  0  0  0  0  0
  -26.0420  -29.4720   20.7670 C   0  0  0  0  0  0  0  0  0  0  0  0
  -27.2390  -28.6970   20.7670 C   0  0  0  0  0  3  0  0  0  0  0  0
  -26.0840  -26.9290   19.5720 C   0  0  0  0  0  3  0  0  0  0  0  0
  -24.9020  -27.6950   19.5670 C   0  0  0  0  0  3  0  0  0  0  0  0
  -23.6400  -29.8300   20.2080 C   0  0  0  0  0  2  0  0  0  0  0  0
  -24.6780  -31.1110   22.1300 N   0  0  0  0  0  0  0  0  0  0  0  0
  -23.5230  -32.1910   23.7580 O   0  0  0  0  0  0  0  0  0  0  0  0
  -22.7560  -29.4930   22.5440 C   0  0  0  0  0  0  0  0  0  0  0  0
  -21.4310  -29.3140   22.4130 N   0  0  0  0  0  0  0  0  0  0  0  0
  -23.4360  -28.8680   23.3630 O   0  0  0  0  0  0  0  0  0  0  0  0
  -20.9440  -29.8710   21.7240 H   0  0  0  0  0  0  0  0  0  0  0  0
  -18.0500  -28.1280   22.9170 C   0  0  0  0  0  0  0  0  0  0  0  0
  -20.6100  -28.3760   23.1810 C   0  0  0  0  0  3  0  0  0  0  0  0
  -20.7060  -26.9470   22.5980 C   0  0  0  0  0  2  0  0  0  0  0  0
  -19.6000  -26.6330   21.5860 C   0  0  0  0  0  2  0  0  0  0  0  0
  -18.2200  -26.7810   22.2340 C   0  0  0  0  0  2  0  0  0  0  0  0
  -19.1740  -28.8840   23.3470 C   0  0  0  0  0  0  0  0  0  0  0  0
  -18.9610  -30.1450   23.9440 C   0  0  0  0  0  3  0  0  0  0  0  0
  -17.6590  -30.6500   24.1170 C   0  0  0  0  0  3  0  0  0  0  0  0
  -16.5500  -29.8910   23.7030 C   0  0  0  0  0  3  0  0  0  0  0  0
  -16.7470  -28.6320   23.1080 C   0  0  0  0  0  3  0  0  0  0  0  0
  -25.8880  -32.5540   23.8560 C   0  0  0  0  0  3  0  0  0  0  0  0
  -26.3990  -31.7860   25.1360 C   0  0  1  0  0  0  0  0  0  0  0  0
  -25.3010  -31.5490   26.1980 C   0  0  0  0  0  1  0  0  0  0  0  0
  -26.9890  -30.4100   24.7490 C   0  0  0  0  0  1  0  0  0  0  0  0
  -27.5460  -32.5840   25.8020 C   0  0  0  0  0  1  0  0  0  0  0  0
  -25.5730  -33.9520   24.1830 N   0  0  0  0  0  0  0  0  0  0  0  0
  -25.9080  -35.0050   23.4260 C   0  0  0  0  0  0  0  0  0  0  0  0
  -26.5840  -34.9030   22.3980 O   0  0  0  0  0  0  0  0  0  0  0  0
  -24.9760  -34.1060   24.9820 H   0  0  0  0  0  0  0  0  0  0  0  0
  -24.1790  -36.7950   23.0550 C   0  0  0  0  0  1  0  0  0  0  0  0
  -25.4140  -36.3940   23.8790 C   0  0  0  0  0  3  0  0  0  0  0  0
  -27.5400  -37.2810   24.7270 C   0  0  0  0  0  1  0  0  0  0  0  0
  -26.4450  -37.4480   23.7750 N   0  0  0  0  0  0  0  0  0  0  0  0
  -26.0370  -38.3680   23.9170 H   0  0  0  0  0  0  0  0  0  0  0  0
  -30.1970  -17.3700   20.4070 C   0  0  0  0  0  2  0  0  0  0  0  0
  -29.9640  -15.9180   21.0260 C   0  0  0  0  0  2  0  0  0  0  0  0
  -30.6490  -14.6680   20.3420 C   0  0  0  0  0  0  0  0  0  0  0  0
  -30.3950  -12.4720   19.1940 C   0  0  0  0  0  2  0  0  0  0  0  0
  -29.4390  -12.6460   17.9930 C   0  0  0  0  0  2  0  0  0  0  0  0
  -27.9690  -12.4860   18.4310 C   0  0  0  0  0  2  0  0  0  0  0  0
  -27.6340  -13.3130   19.7020 C   0  0  0  0  0  3  0  0  0  0  0  0
  -28.7040  -13.1100   20.7970 C   0  0  0  0  0  2  0  0  0  0  0  0
  -30.0100  -13.4610   20.2210 N   0  0  0  0  0  0  0  0  0  0  0  0
  -31.7720  -14.8270   19.8550 O   0  0  0  0  0  0  0  0  0  0  0  0
  -25.2400  -13.9080   20.4240 C   0  0  0  0  0  0  0  0  0  0  0  0
  -24.1780  -13.1320   20.8020 C   0  0  0  0  0  0  0  0  0  0  0  0
  -24.6450  -11.7830   20.7780 C   0  0  0  0  0  0  0  0  0  0  0  0
  -26.2880  -13.0310   20.1920 N   0  0  0  0  0  0  0  0  0  0  0  0
  -25.9340  -11.7470   20.4620 N   0  0  0  0  0  0  0  0  0  0  0  0
  -23.9250  -10.5190   20.9820 C   0  0  0  0  0  0  0  0  0  0  0  0
  -24.3700   -9.5580   21.9170 C   0  0  0  0  0  3  0  0  0  0  0  0
  -23.6500   -8.3590   22.1090 C   0  0  0  0  0  3  0  0  0  0  0  0
  -22.4730   -8.1120   21.3640 C   0  0  0  0  0  0  0  0  0  0  0  0
  -22.0460   -9.0610   20.4190 C   0  0  0  0  0  3  0  0  0  0  0  0
  -22.7660  -10.2530   20.2260 C   0  0  0  0  0  3  0  0  0  0  0  0
  -21.7230   -6.9630   21.4650 O   0  0  0  0  0  0  0  0  0  0  0  0
  -21.6890   -6.2240   22.6200 C   0  0  0  0  0  0  0  0  0  0  0  0
  -21.2780   -6.7820   23.8500 C   0  0  0  0  0  3  0  0  0  0  0  0
  -21.1920   -5.9690   24.9970 C   0  0  0  0  0  3  0  0  0  0  0  0
  -21.5060   -4.6000   24.9160 C   0  0  0  0  0  0  0  0  0  0  0  0
  -21.9110   -4.0400   23.6900 C   0  0  0  0  0  3  0  0  0  0  0  0
  -21.9990   -4.8510   22.5450 C   0  0  0  0  0  0  0  0  0  0  0  0
  -22.3680   -4.3040   21.3620 F   0  0  0  0  0  0  0  0  0  0  0  0
  -21.4160   -3.8160   26.0150 F   0  0  0  0  0  0  0  0  0  0  0  0
  -22.7810  -13.6050   21.0800 C   0  0  0  0  0  0  0  0  0  0  0  0
  -22.0620  -12.9110   21.9550 N   0  0  0  0  0  0  0  0  0  0  0  0
  -22.3350  -14.6260   20.5580 O   0  0  0  0  0  0  0  0  0  0  0  0
  -22.4370  -12.0890   22.4040 H   0  0  0  0  0  0  0  0  0  0  0  0
  -21.1230  -13.2080   22.1790 H   0  0  0  0  0  0  0  0  0  0  0  0
  -25.4000  -15.2780   20.2400 N   0  0  0  0  0  0  0  0  0  0  0  0
  -24.6370  -15.9360   20.3530 H   0  0  0  0  0  0  0  0  0  0  0  0
  -26.2570  -15.7170   19.9260 H   0  0  0  0  0  0  0  0  0  0  0  0
  2  7  2  0
  2  4  1  0
  3  1  1  0
  3  6  1  0
  4  3  2  0
  5  8  1  0
  5  1  2  0
  7  5  1  0
  8  9  1  0
 10  4  1  0
 10 11  2  0
 12 11  1  0
 13 24  2  0
 14 12  1  0
 14 19  1  0
 15 23  1  0
 15 25  1  0
 16 22  1  0
 16 18  1  0
 17 23  1  0
 18 19  2  0
 18 17  1  0
 20 14  2  0
 21 20  1  0
 21 16  2  0
 22 15  1  0
 23 13  1  0
 25 27  2  0
 26 25  1  0
 28 26  1  0
 29 38  2  0
 29 34  1  0
 30 26  1  0
 30 34  1  0
 31 30  1  0
 32 33  1  0
 32 31  1  0
 33 29  1  0
 34 35  2  0
 35 36  1  0
 37 36  2  0
 38 37  1  0
 39 13  1  0
 39 44  1  0
 39 40  1  0
 40 43  1  1
 40 41  1  0
 42 40  1  0
 44 47  1  0
 45 49  1  0
 45 44  1  0
 46 45  2  0
 49 48  1  0
 51 49  1  0
 51 52  1  0
 51 50  1  0
 53 54  1  0
 53  8  1  0
 55 54  1  0
 56 61  1  0
 57 58  1  0
 57 56  1  0
 59 58  1  0
 59 66  1  0
 59 60  1  0
 61 55  1  0
 61 60  1  0
 62 55  2  0
 63 64  2  0
 64 83  1  0
 65 64  1  0
 65 68  1  0
 66 63  1  0
 66 67  1  0
 67 65  2  0
 68 69  1  0
 69 70  2  0
 71 74  1  0
 71 70  1  0
 72 71  2  0
 73 72  1  0
 73 68  2  0
 74 75  1  0
 75 76  1  0
 76 77  2  0
 78 77  1  0
 78 82  1  0
 79 78  2  0
 80 75  2  0
 80 79  1  0
 81 80  1  0
 83 84  1  0
 84 87  1  0
 84 86  1  0
 85 83  2  0
 88 89  1  0
 88 63  1  0
 90 88  1  0
M  ISO  4  11 101  12 101  54 100  55 100
M  END
>  <TORSDO>  (56) 
F 20

>  <SCORE>  (56) 
-13.977

>  <name>  (56) 
55

>  <ligand_id>  (56) 
55

>  <original_smiles>  (56) 
[H]c1nc(N([H])C([H])([H])C([H])([H])C(=O)N2C([H])([H])C([H])([H])C([H])([H])C([H])(n3nc(-c4c([H])c([H])c(Oc5c([H])c([H])c(F)c([H])c5F)c([H])c4[H])c(C(=O)N([H])[H])c3N([H])[H])C2([H])[H])c([H])c(C([H])([H])[H])c1C([H])([H])C([H])([H])Oc1c([H])c([H])c2c(c1[H])C([H])([H])N(C(=O)C([H])(N([H])C(=O)C([H])(N([H])C([H])([H])[H])C([H])([H])[H])C(C([H])([H])[H])(C([H])([H])[H])C([H])([H])[H])C([H])(C(=O)N([H])C1([H])c3c([H])c([H])c([H])c([H])c3C([H])([H])C([H])([H])C1([H])[H])C2([H])[H]

>  <smiles>  (56) 
[H]c1nc(N([H])C([H])([H])C([H])([H])C(=O)N2C([H])([H])C([H])([H])C([H])([H])C([H])(n3nc(-c4c([H])c([H])c(Oc5c([H])c([H])c(F)c([H])c5F)c([H])c4[H])c(C(=O)N([H])[H])c3N([H])[H])C2([H])[H])c([H])c(C([H])([H])[H])c1C([H])([H])C([H])([H])Oc1c([H])c([H])c2c(c1[H])C([H])([H])N(C(=O)C([H])(N([H])C(=O)C([H])(N([H])C([H])([H])[H])C([H])([H])[H])C(C([H])([H])[H])(C([H])([H])[H])C([H])([H])[H])C([H])(C(=O)N([H])C1([H])c3c([H])c([H])c([H])c([H])c3C([H])([H])C([H])([H])C1([H])[H])C2([H])[H]

$$$$
56:0:0
     RDKit          3D

 98106  0  0  1  0  0  0  0  0999 V2000
  -30.4360  -20.7780   19.1500 C   0  0  0  0  0  3  0  0  0  0  0  0
  -30.2020  -22.2310   19.0280 C   0  0  0  0  0  0  0  0  0  0  0  0
  -29.6120  -19.7700   19.7650 C   0  0  0  0  0  0  0  0  0  0  0  0
  -29.0470  -22.9880   19.5340 C   0  0  0  0  0  0  0  0  0  0  0  0
  -28.4570  -20.5050   20.2810 C   0  0  0  0  0  0  0  0  0  0  0  0
  -28.1890  -21.9780   20.1570 C   0  0  0  0  0  0  0  0  0  0  0  0
  -27.3090  -19.5470   21.1520 Cl  0  0  0  0  0  0  0  0  0  0  0  0
  -26.7020  -22.5850   20.8030 Cl  0  0  0  0  0  0  0  0  0  0  0  0
  -28.1760  -24.6840   17.6810 C   0  0  0  0  0  1  0  0  0  0  0  0
  -28.7130  -24.6560   19.1220 C   0  0  0  0  0  3  0  0  0  0  0  0
  -28.4870  -26.0760   19.8950 O   0  0  0  0  0  0  0  0  0  0  0  0
  -24.6250  -31.7200   23.0040 C   0  0  0  0  0  0  0  0  0  0  0  0
  -27.4130  -27.1040   19.8090 C   0  0  0  0  0  0  0  0  0  0  0  0
  -23.4970  -30.3230   21.3220 C   0  0  0  0  0  3  0  0  0  0  0  0
  -25.0160  -28.8500   19.8460 C   0  0  0  0  0  0  0  0  0  0  0  0
  -26.0490  -30.6670   21.1840 C   0  0  0  0  0  2  0  0  0  0  0  0
  -26.1840  -29.2920   20.4760 C   0  0  0  0  0  0  0  0  0  0  0  0
  -27.3710  -28.4380   20.4390 C   0  0  0  0  0  3  0  0  0  0  0  0
  -26.1930  -26.8010   19.1620 C   0  0  0  0  0  3  0  0  0  0  0  0
  -25.0410  -27.6240   19.1710 C   0  0  0  0  0  3  0  0  0  0  0  0
  -23.7570  -29.7070   19.9230 C   0  0  0  0  0  2  0  0  0  0  0  0
  -24.7440  -30.9300   21.8910 N   0  0  0  0  0  0  0  0  0  0  0  0
  -23.5210  -31.9390   23.5340 O   0  0  0  0  0  0  0  0  0  0  0  0
  -22.8560  -29.2600   22.2520 C   0  0  0  0  0  0  0  0  0  0  0  0
  -21.5310  -29.0510   22.1390 N   0  0  0  0  0  0  0  0  0  0  0  0
  -23.5570  -28.6260   23.0460 O   0  0  0  0  0  0  0  0  0  0  0  0
  -21.0160  -29.6140   21.4740 H   0  0  0  0  0  0  0  0  0  0  0  0
  -18.1990  -27.7170   22.6660 C   0  0  0  0  0  0  0  0  0  0  0  0
  -20.7560  -28.0530   22.8840 C   0  0  0  0  0  3  0  0  0  0  0  0
  -20.8880  -26.6530   22.2410 C   0  0  0  0  0  2  0  0  0  0  0  0
  -19.7730  -26.3390   21.2390 C   0  0  0  0  0  2  0  0  0  0  0  0
  -18.4010  -26.4100   21.9180 C   0  0  0  0  0  2  0  0  0  0  0  0
  -19.3020  -28.4960   23.1050 C   0  0  0  0  0  0  0  0  0  0  0  0
  -19.0570  -29.7190   23.7650 C   0  0  0  0  0  3  0  0  0  0  0  0
  -17.7410  -30.1650   23.9910 C   0  0  0  0  0  3  0  0  0  0  0  0
  -16.6520  -29.3840   23.5640 C   0  0  0  0  0  3  0  0  0  0  0  0
  -16.8810  -28.1630   22.9050 C   0  0  0  0  0  3  0  0  0  0  0  0
  -25.8630  -32.4010   23.6580 C   0  0  0  0  0  3  0  0  0  0  0  0
  -25.4860  -33.7790   24.0220 N   0  0  0  0  0  0  0  0  0  0  0  0
  -25.7720  -34.8710   23.3000 C   0  0  0  0  0  0  0  0  0  0  0  0
  -26.4490  -34.8300   22.2690 O   0  0  0  0  0  0  0  0  0  0  0  0
  -24.8900  -33.8850   24.8300 H   0  0  0  0  0  0  0  0  0  0  0  0
  -23.9580  -36.5920   23.0180 C   0  0  0  0  0  1  0  0  0  0  0  0
  -25.2250  -36.2210   23.8040 C   0  0  0  0  0  3  0  0  0  0  0  0
  -27.3200  -37.1900   24.6430 C   0  0  0  0  0  1  0  0  0  0  0  0
  -26.2040  -37.3260   23.7110 N   0  0  0  0  0  0  0  0  0  0  0  0
  -25.7530  -38.2190   23.8860 H   0  0  0  0  0  0  0  0  0  0  0  0
  -26.3960  -31.6350   24.9310 C   0  0  1  0  0  0  0  0  0  0  0  0
  -25.3010  -31.3360   25.9810 C   0  0  0  0  0  1  0  0  0  0  0  0
  -27.0410  -30.2890   24.5320 C   0  0  0  0  0  1  0  0  0  0  0  0
  -27.5080  -32.4640   25.6150 C   0  0  0  0  0  1  0  0  0  0  0  0
  -31.3400  -22.9370   18.2980 C   0  0  0  0  0  2  0  0  0  0  0  0
  -32.5100  -23.2320   19.2530 C   0  0  0  0  0  2  0  0  0  0  0  0
  -33.6960  -23.7730   18.5550 N   0  0  0  0  0  4  0  0  0  0  0  0
  -33.4260  -24.6480   18.1350 H   0  0  0  0  0  0  0  0  0  0  0  0
  -33.9710  -23.1510   17.8100 H   0  0  0  0  0  0  0  0  0  0  0  0
  -35.7520  -25.1190   18.8390 C   0  0  0  0  0  1  0  0  0  0  0  0
  -35.6660  -22.7360   19.7050 C   0  0  0  0  0  1  0  0  0  0  0  0
  -34.8580  -24.0220   19.4360 C   0  0  0  0  0  3  0  0  0  0  0  0
  -30.1940  -18.1630   20.0720 C   0  0  0  0  0  2  0  0  0  0  0  0
  -30.4510  -15.3290   19.6840 C   0  0  0  0  0  0  0  0  0  0  0  0
  -30.2690  -12.9440   18.7110 C   0  0  0  0  0  2  0  0  0  0  0  0
  -29.2250  -12.8130   17.5760 C   0  0  0  0  0  2  0  0  0  0  0  0
  -27.8160  -12.5700   18.1500 C   0  0  0  0  0  2  0  0  0  0  0  0
  -27.5050  -13.4990   19.3530 C   0  0  0  0  0  3  0  0  0  0  0  0
  -28.6640  -13.5710   20.3670 C   0  0  0  0  0  2  0  0  0  0  0  0
  -29.8360  -14.0580   19.6230 N   0  0  0  0  0  0  0  0  0  0  0  0
  -31.6560  -15.3150   19.3980 O   0  0  0  0  0  0  0  0  0  0  0  0
  -29.7350  -16.6010   19.8570 N   0  0  0  0  0  0  0  0  0  0  0  0
  -28.7370  -16.4700   19.9370 H   0  0  0  0  0  0  0  0  0  0  0  0
  -25.2250  -14.0610   20.3480 C   0  0  0  0  0  0  0  0  0  0  0  0
  -24.1950  -13.2830   20.7970 C   0  0  0  0  0  0  0  0  0  0  0  0
  -24.6440  -11.9300   20.6900 C   0  0  0  0  0  0  0  0  0  0  0  0
  -26.2300  -13.1840   19.9840 N   0  0  0  0  0  0  0  0  0  0  0  0
  -25.9000  -11.8950   20.2580 N   0  0  0  0  0  0  0  0  0  0  0  0
  -23.9250  -10.6700   20.9120 C   0  0  0  0  0  0  0  0  0  0  0  0
  -24.4040   -9.6920   21.8090 C   0  0  0  0  0  3  0  0  0  0  0  0
  -23.6810   -8.5000   22.0240 C   0  0  0  0  0  3  0  0  0  0  0  0
  -22.4630   -8.2750   21.3390 C   0  0  0  0  0  0  0  0  0  0  0  0
  -21.9990   -9.2420   20.4300 C   0  0  0  0  0  3  0  0  0  0  0  0
  -22.7240  -10.4260   20.2140 C   0  0  0  0  0  3  0  0  0  0  0  0
  -21.7040   -7.1360   21.4660 O   0  0  0  0  0  0  0  0  0  0  0  0
  -21.7020   -6.3970   22.6220 C   0  0  0  0  0  0  0  0  0  0  0  0
  -21.3190   -6.9520   23.8630 C   0  0  0  0  0  3  0  0  0  0  0  0
  -21.2670   -6.1380   25.0110 C   0  0  0  0  0  3  0  0  0  0  0  0
  -21.5870   -4.7710   24.9220 C   0  0  0  0  0  0  0  0  0  0  0  0
  -21.9650   -4.2150   23.6860 C   0  0  0  0  0  3  0  0  0  0  0  0
  -22.0200   -5.0260   22.5400 C   0  0  0  0  0  0  0  0  0  0  0  0
  -22.3650   -4.4820   21.3480 F   0  0  0  0  0  0  0  0  0  0  0  0
  -21.5290   -3.9870   26.0230 F   0  0  0  0  0  0  0  0  0  0  0  0
  -22.8330  -13.7640   21.2020 C   0  0  0  0  0  0  0  0  0  0  0  0
  -22.1810  -13.0540   22.1160 N   0  0  0  0  0  0  0  0  0  0  0  0
  -22.3620  -14.8050   20.7460 O   0  0  0  0  0  0  0  0  0  0  0  0
  -22.5780  -12.2120   22.5060 H   0  0  0  0  0  0  0  0  0  0  0  0
  -21.2690  -13.3550   22.4300 H   0  0  0  0  0  0  0  0  0  0  0  0
  -25.3810  -15.4350   20.1880 N   0  0  0  0  0  0  0  0  0  0  0  0
  -24.6230  -16.0830   20.3760 H   0  0  0  0  0  0  0  0  0  0  0  0
  -26.1860  -15.8800   19.7670 H   0  0  0  0  0  0  0  0  0  0  0  0
  1  3  1  0
  2  1  2  0
  2  4  1  0
  3 60  1  0
  3  5  2  0
  4  6  2  0
  5  7  1  0
  6  5  1  0
  6  8  1  0
 10  9  1  0
 10  4  1  0
 10 11  1  0
 12 23  2  0
 13 11  1  0
 13 18  1  0
 14 22  1  0
 14 24  1  0
 15 21  1  0
 15 17  1  0
 16 22  1  0
 17 16  1  0
 18 17  2  0
 19 20  1  0
 19 13  2  0
 20 15  2  0
 21 14  1  0
 22 12  1  0
 24 26  2  0
 25 24  1  0
 27 25  1  0
 28 37  2  0
 28 33  1  0
 29 25  1  0
 29 33  1  0
 30 29  1  0
 31 32  1  0
 31 30  1  0
 32 28  1  0
 33 34  2  0
 34 35  1  0
 36 35  2  0
 37 36  1  0
 38 12  1  0
 38 39  1  0
 38 48  1  0
 39 42  1  0
 40 44  1  0
 40 39  1  0
 41 40  2  0
 44 43  1  0
 46 44  1  0
 46 47  1  0
 46 45  1  0
 48 51  1  1
 48 49  1  0
 50 48  1  0
 52  2  1  0
 52 53  1  0
 54 53  1  0
 54 59  1  0
 55 54  1  0
 56 54  1  0
 57 59  1  0
 59 58  1  0
 61 69  1  0
 62 67  1  0
 63 64  1  0
 63 62  1  0
 65 64  1  0
 65 74  1  0
 65 66  1  0
 67 61  1  0
 67 66  1  0
 68 61  2  0
 69 70  1  0
 69 60  1  0
 71 72  2  0
 72 91  1  0
 73 72  1  0
 73 76  1  0
 74 75  1  0
 74 71  1  0
 75 73  2  0
 76 77  1  0
 77 78  2  0
 79 82  1  0
 79 78  1  0
 80 79  2  0
 81 80  1  0
 81 76  2  0
 82 83  1  0
 83 84  1  0
 84 85  2  0
 86 85  1  0
 86 90  1  0
 87 86  2  0
 88 83  2  0
 88 87  1  0
 89 88  1  0
 91 92  1  0
 92 95  1  0
 92 94  1  0
 93 91  2  0
 96 71  1  0
 96 97  1  0
 98 96  1  0
M  ISO  4  10 101  11 101  61 100  69 100
M  END
>  <TORSDO>  (57) 
F 22

>  <SCORE>  (57) 
-11.841

>  <name>  (57) 
56

>  <ligand_id>  (57) 
56

>  <original_smiles>  (57) 
[H]c1c([H])c([H])c2c(c1[H])C([H])([H])C([H])([H])C([H])([H])C2([H])N([H])C(=O)C1([H])N(C(=O)C([H])(N([H])C(=O)C([H])(N([H])C([H])([H])[H])C([H])([H])[H])C(C([H])([H])[H])(C([H])([H])[H])C([H])([H])[H])C([H])([H])c2c([H])c(OC([H])(c3c(Cl)c(Cl)c(C([H])([H])N([H])C(=O)N4C([H])([H])C([H])([H])C([H])([H])C([H])(n5nc(-c6c([H])c([H])c(Oc7c([H])c([H])c(F)c([H])c7F)c([H])c6[H])c(C(=O)N([H])[H])c5N([H])[H])C4([H])[H])c([H])c3C([H])([H])C([H])([H])[N+]([H])([H])C([H])(C([H])([H])[H])C([H])([H])[H])C([H])([H])[H])c([H])c([H])c2C1([H])[H]

>  <smiles>  (57) 
[H]c1c([H])c([H])c2c(c1[H])C([H])([H])C([H])([H])C([H])([H])C2([H])N([H])C(=O)C1([H])N(C(=O)C([H])(N([H])C(=O)C([H])(N([H])C([H])([H])[H])C([H])([H])[H])C(C([H])([H])[H])(C([H])([H])[H])C([H])([H])[H])C([H])([H])c2c([H])c(OC([H])(c3c(Cl)c(Cl)c(C([H])([H])N([H])C(=O)N4C([H])([H])C([H])([H])C([H])([H])C([H])(n5nc(-c6c([H])c([H])c(Oc7c([H])c([H])c(F)c([H])c7F)c([H])c6[H])c(C(=O)N([H])[H])c5N([H])[H])C4([H])[H])c([H])c3C([H])([H])C([H])([H])[N+]([H])([H])C([H])(C([H])([H])[H])C([H])([H])[H])C([H])([H])[H])c([H])c([H])c2C1([H])[H]

$$$$
57:0:0
     RDKit          3D

 94102  0  0  1  0  0  0  0  0999 V2000
  -29.8860  -19.4030   20.5610 C   0  0  0  0  0  3  0  0  0  0  0  0
  -30.1710  -18.1070   20.0620 C   0  0  0  0  0  0  0  0  0  0  0  0
  -30.2240  -19.0880   17.8050 C   0  0  0  0  0  0  0  0  0  0  0  0
  -29.8160  -20.5740   19.7500 C   0  0  0  0  0  0  0  0  0  0  0  0
  -30.3220  -17.9580   18.6550 C   0  0  0  0  0  0  0  0  0  0  0  0
  -30.0070  -20.3850   18.3390 C   0  0  0  0  0  0  0  0  0  0  0  0
  -30.4110  -18.9230   16.2930 C   0  0  0  0  0  1  0  0  0  0  0  0
  -30.6870  -16.4270   17.9400 Cl  0  0  0  0  0  0  0  0  0  0  0  0
  -30.0720  -21.6990   17.1990 Cl  0  0  0  0  0  0  0  0  0  0  0  0
  -30.3840  -21.9760   21.6600 C   0  0  0  0  0  1  0  0  0  0  0  0
  -29.6210  -21.8340   20.4140 N   0  0  0  0  0  0  0  0  0  0  0  0
  -29.2920  -23.0720   19.6760 C   0  0  0  0  0  2  0  0  0  0  0  0
  -28.7660  -24.3000   20.4770 C   0  0  0  0  0  2  0  0  0  0  0  0
  -28.6040  -25.5480   19.5590 C   0  0  0  0  0  2  0  0  0  0  0  0
  -28.3860  -26.7760   20.2770 O   0  0  0  0  0  0  0  0  0  0  0  0
  -24.5310  -31.9370   23.2780 C   0  0  0  0  0  0  0  0  0  0  0  0
  -27.1820  -27.4590   20.2360 C   0  0  0  0  0  0  0  0  0  0  0  0
  -23.3270  -30.5280   21.6400 C   0  0  0  0  0  3  0  0  0  0  0  0
  -24.7810  -28.9770   20.2300 C   0  0  0  0  0  0  0  0  0  0  0  0
  -25.8530  -30.8790   21.4480 C   0  0  0  0  0  2  0  0  0  0  0  0
  -25.9370  -29.5010   20.8200 C   0  0  0  0  0  0  0  0  0  0  0  0
  -27.1330  -28.7480   20.8240 C   0  0  0  0  0  3  0  0  0  0  0  0
  -25.9960  -26.9440   19.6590 C   0  0  0  0  0  3  0  0  0  0  0  0
  -24.8050  -27.6950   19.6540 C   0  0  0  0  0  3  0  0  0  0  0  0
  -23.5380  -29.8370   20.2650 C   0  0  0  0  0  2  0  0  0  0  0  0
  -24.5880  -31.1320   22.1800 N   0  0  0  0  0  0  0  0  0  0  0  0
  -23.4500  -32.2140   23.8160 O   0  0  0  0  0  0  0  0  0  0  0  0
  -22.6700  -29.5150   22.6060 C   0  0  0  0  0  0  0  0  0  0  0  0
  -21.3460  -29.3360   22.4750 N   0  0  0  0  0  0  0  0  0  0  0  0
  -23.3490  -28.8920   23.4270 O   0  0  0  0  0  0  0  0  0  0  0  0
  -20.8610  -29.8880   21.7810 H   0  0  0  0  0  0  0  0  0  0  0  0
  -17.9640  -28.1680   22.9660 C   0  0  0  0  0  0  0  0  0  0  0  0
  -20.5220  -28.4060   23.2450 C   0  0  0  0  0  3  0  0  0  0  0  0
  -20.6180  -26.9750   22.6680 C   0  0  0  0  0  2  0  0  0  0  0  0
  -19.5160  -26.6590   21.6540 C   0  0  0  0  0  2  0  0  0  0  0  0
  -18.1340  -26.8150   22.2940 C   0  0  0  0  0  2  0  0  0  0  0  0
  -19.0860  -28.9220   23.3960 C   0  0  0  0  0  0  0  0  0  0  0  0
  -18.8780  -30.1900   23.9820 C   0  0  0  0  0  3  0  0  0  0  0  0
  -17.5780  -30.7010   24.1470 C   0  0  0  0  0  3  0  0  0  0  0  0
  -16.4690  -29.9420   23.7370 C   0  0  0  0  0  3  0  0  0  0  0  0
  -16.6610  -28.6790   23.1500 C   0  0  0  0  0  3  0  0  0  0  0  0
  -25.8190  -32.5670   23.8960 C   0  0  0  0  0  3  0  0  0  0  0  0
  -25.5230  -33.9740   24.1980 N   0  0  0  0  0  0  0  0  0  0  0  0
  -25.8810  -35.0090   23.4280 C   0  0  0  0  0  0  0  0  0  0  0  0
  -26.5690  -34.8830   22.4110 O   0  0  0  0  0  0  0  0  0  0  0  0
  -24.9200  -34.1470   24.9880 H   0  0  0  0  0  0  0  0  0  0  0  0
  -24.1890  -36.8210   23.0070 C   0  0  0  0  0  1  0  0  0  0  0  0
  -25.4010  -36.4100   23.8570 C   0  0  0  0  0  3  0  0  0  0  0  0
  -27.5210  -37.2780   24.7370 C   0  0  0  0  0  1  0  0  0  0  0  0
  -26.4480  -37.4490   23.7620 N   0  0  0  0  0  0  0  0  0  0  0  0
  -26.0460  -38.3740   23.8930 H   0  0  0  0  0  0  0  0  0  0  0  0
  -26.3210  -31.8130   25.1890 C   0  0  1  0  0  0  0  0  0  0  0  0
  -25.2200  -31.6010   26.2550 C   0  0  0  0  0  1  0  0  0  0  0  0
  -26.8950  -30.4260   24.8210 C   0  0  0  0  0  1  0  0  0  0  0  0
  -27.4700  -32.6090   25.8490 C   0  0  0  0  0  1  0  0  0  0  0  0
  -30.4250  -16.9880   21.1100 C   0  0  0  0  0  2  0  0  0  0  0  0
  -30.7480  -14.5440   20.5650 C   0  0  0  0  0  0  0  0  0  0  0  0
  -30.4870  -12.3910   19.3970 C   0  0  0  0  0  2  0  0  0  0  0  0
  -29.5640  -12.5930   18.1770 C   0  0  0  0  0  2  0  0  0  0  0  0
  -28.0790  -12.4670   18.5780 C   0  0  0  0  0  2  0  0  0  0  0  0
  -27.7210  -13.3040   19.8330 C   0  0  0  0  0  3  0  0  0  0  0  0
  -28.7500  -13.0700   20.9580 C   0  0  0  0  0  2  0  0  0  0  0  0
  -30.0820  -13.3710   20.4140 N   0  0  0  0  0  0  0  0  0  0  0  0
  -31.9330  -14.6870   20.2580 O   0  0  0  0  0  0  0  0  0  0  0  0
  -29.9720  -15.6050   20.8740 N   0  0  0  0  0  0  0  0  0  0  0  0
  -28.9920  -15.4150   21.0180 H   0  0  0  0  0  0  0  0  0  0  0  0
  -25.3080  -13.9160   20.4780 C   0  0  0  0  0  0  0  0  0  0  0  0
  -24.2330  -13.1450   20.8260 C   0  0  0  0  0  0  0  0  0  0  0  0
  -24.6980  -11.7950   20.8270 C   0  0  0  0  0  0  0  0  0  0  0  0
  -26.3600  -13.0350   20.2870 N   0  0  0  0  0  0  0  0  0  0  0  0
  -25.9970  -11.7550   20.5550 N   0  0  0  0  0  0  0  0  0  0  0  0
  -23.9730  -10.5320   21.0160 C   0  0  0  0  0  0  0  0  0  0  0  0
  -24.3790   -9.5810   21.9770 C   0  0  0  0  0  3  0  0  0  0  0  0
  -23.6550   -8.3830   22.1510 C   0  0  0  0  0  3  0  0  0  0  0  0
  -22.5090   -8.1270   21.3610 C   0  0  0  0  0  0  0  0  0  0  0  0
  -22.1210   -9.0660   20.3890 C   0  0  0  0  0  3  0  0  0  0  0  0
  -22.8470  -10.2560   20.2160 C   0  0  0  0  0  3  0  0  0  0  0  0
  -21.7540   -6.9810   21.4430 O   0  0  0  0  0  0  0  0  0  0  0  0
  -21.6650   -6.2620   22.6070 C   0  0  0  0  0  0  0  0  0  0  0  0
  -21.1870   -6.8360   23.8050 C   0  0  0  0  0  3  0  0  0  0  0  0
  -21.0490   -6.0420   24.9600 C   0  0  0  0  0  3  0  0  0  0  0  0
  -21.3760   -4.6740   24.9170 C   0  0  0  0  0  0  0  0  0  0  0  0
  -21.8490   -4.0990   23.7240 C   0  0  0  0  0  3  0  0  0  0  0  0
  -21.9910   -4.8910   22.5710 C   0  0  0  0  0  0  0  0  0  0  0  0
  -22.4280   -4.3280   21.4180 F   0  0  0  0  0  0  0  0  0  0  0  0
  -21.2350   -3.9080   26.0240 F   0  0  0  0  0  0  0  0  0  0  0  0
  -22.8260  -13.6190   21.0520 C   0  0  0  0  0  0  0  0  0  0  0  0
  -22.0780  -12.9310   21.9060 N   0  0  0  0  0  0  0  0  0  0  0  0
  -22.3980  -14.6350   20.5070 O   0  0  0  0  0  0  0  0  0  0  0  0
  -22.4380  -12.1090   22.3690 H   0  0  0  0  0  0  0  0  0  0  0  0
  -21.1350  -13.2320   22.1050 H   0  0  0  0  0  0  0  0  0  0  0  0
  -25.4730  -15.2830   20.2850 N   0  0  0  0  0  0  0  0  0  0  0  0
  -24.6940  -15.9300   20.3500 H   0  0  0  0  0  0  0  0  0  0  0  0
  -26.3180  -15.7160   19.9340 H   0  0  0  0  0  0  0  0  0  0  0  0
  2  1  1  0
  2 56  1  0
  3  6  2  0
  3  5  1  0
  4 11  1  0
  4  1  2  0
  5  2  2  0
  6  4  1  0
  7  3  1  0
  8  5  1  0
  9  6  1  0
 11 10  1  0
 12 11  1  0
 12 13  1  0
 14 15  1  0
 14 13  1  0
 16 27  2  0
 17 15  1  0
 17 22  1  0
 18 26  1  0
 18 28  1  0
 19 25  1  0
 19 21  1  0
 20 26  1  0
 21 22  2  0
 21 20  1  0
 23 17  2  0
 24 23  1  0
 24 19  2  0
 25 18  1  0
 26 16  1  0
 28 30  2  0
 29 28  1  0
 31 29  1  0
 32 41  2  0
 32 37  1  0
 33 29  1  0
 33 37  1  0
 34 33  1  0
 35 36  1  0
 35 34  1  0
 36 32  1  0
 37 38  2  0
 38 39  1  0
 40 39  2  0
 41 40  1  0
 42 16  1  0
 42 43  1  0
 42 52  1  0
 43 46  1  0
 44 48  1  0
 44 43  1  0
 45 44  2  0
 48 47  1  0
 50 48  1  0
 50 51  1  0
 50 49  1  0
 52 55  1  1
 52 53  1  0
 54 52  1  0
 57 65  1  0
 58 63  1  0
 59 60  1  0
 59 58  1  0
 61 60  1  0
 61 70  1  0
 61 62  1  0
 63 57  1  0
 63 62  1  0
 64 57  2  0
 65 66  1  0
 65 56  1  0
 67 68  2  0
 68 69  1  0
 68 87  1  0
 69 72  1  0
 70 67  1  0
 70 71  1  0
 71 69  2  0
 72 73  1  0
 73 74  2  0
 75 78  1  0
 75 74  1  0
 76 75  2  0
 77 76  1  0
 77 72  2  0
 78 79  1  0
 79 80  1  0
 80 81  2  0
 82 81  1  0
 82 86  1  0
 83 82  2  0
 84 79  2  0
 84 83  1  0
 85 84  1  0
 87 88  1  0
 88 91  1  0
 88 90  1  0
 89 87  2  0
 92 93  1  0
 92 67  1  0
 94 92  1  0
M  ISO  4  14 101  15 101  57 100  65 100
M  END
>  <TORSDO>  (58) 
F 21

>  <SCORE>  (58) 
-13.386

>  <name>  (58) 
57

>  <ligand_id>  (58) 
57

>  <original_smiles>  (58) 
[H]c1c([H])c([H])c2c(c1[H])C([H])([H])C([H])([H])C([H])([H])C2([H])N([H])C(=O)C1([H])N(C(=O)C([H])(N([H])C(=O)C([H])(N([H])C([H])([H])[H])C([H])([H])[H])C(C([H])([H])[H])(C([H])([H])[H])C([H])([H])[H])C([H])([H])c2c([H])c(OC([H])([H])C([H])([H])C([H])([H])N(c3c([H])c(C([H])([H])N([H])C(=O)N4C([H])([H])C([H])([H])C([H])([H])C([H])(n5nc(-c6c([H])c([H])c(Oc7c([H])c([H])c(F)c([H])c7F)c([H])c6[H])c(C(=O)N([H])[H])c5N([H])[H])C4([H])[H])c(Cl)c(C([H])([H])[H])c3Cl)C([H])([H])[H])c([H])c([H])c2C1([H])[H]

>  <smiles>  (58) 
[H]c1c([H])c([H])c2c(c1[H])C([H])([H])C([H])([H])C([H])([H])C2([H])N([H])C(=O)C1([H])N(C(=O)C([H])(N([H])C(=O)C([H])(N([H])C([H])([H])[H])C([H])([H])[H])C(C([H])([H])[H])(C([H])([H])[H])C([H])([H])[H])C([H])([H])c2c([H])c(OC([H])([H])C([H])([H])C([H])([H])N(c3c([H])c(C([H])([H])N([H])C(=O)N4C([H])([H])C([H])([H])C([H])([H])C([H])(n5nc(-c6c([H])c([H])c(Oc7c([H])c([H])c(F)c([H])c7F)c([H])c6[H])c(C(=O)N([H])[H])c5N([H])[H])C4([H])[H])c(Cl)c(C([H])([H])[H])c3Cl)C([H])([H])[H])c([H])c([H])c2C1([H])[H]

$$$$
58:0:0
     RDKit          3D

 94102  0  0  1  0  0  0  0  0999 V2000
  -29.7510  -21.8690   21.7390 N   0  0  1  0  0  4  0  0  0  0  0  0
  -28.8040  -21.7820   22.0770 H   0  0  0  0  0  0  0  0  0  0  0  0
  -32.0340  -18.8580   20.8040 C   0  0  0  0  0  2  0  0  0  0  0  0
  -29.7480  -17.9550   21.6720 C   0  0  0  0  0  2  0  0  0  0  0  0
  -31.3310  -20.2080   20.5300 C   0  0  0  0  0  2  0  0  0  0  0  0
  -29.1610  -19.3660   21.3830 C   0  0  0  0  0  2  0  0  0  0  0  0
  -31.1110  -17.6140   20.9940 C   0  0  0  0  0  3  0  0  0  0  0  0
  -30.2400  -20.4480   21.5900 C   0  0  0  0  0  3  0  0  0  0  0  0
  -30.9980  -16.7040   19.7380 C   0  0  0  0  0  2  0  0  0  0  0  0
  -31.2440  -14.2040   19.5700 C   0  0  0  0  0  0  0  0  0  0  0  0
  -30.6690  -12.0970   18.4310 C   0  0  0  0  0  2  0  0  0  0  0  0
  -29.6050  -12.4130   17.3590 C   0  0  0  0  0  2  0  0  0  0  0  0
  -28.1880  -12.3600   17.9640 C   0  0  0  0  0  2  0  0  0  0  0  0
  -28.0680  -13.1500   19.2930 C   0  0  0  0  0  3  0  0  0  0  0  0
  -29.2380  -12.8310   20.2510 C   0  0  0  0  0  2  0  0  0  0  0  0
  -30.4940  -13.0690   19.5240 N   0  0  0  0  0  0  0  0  0  0  0  0
  -32.3420  -14.2960   19.0160 O   0  0  0  0  0  0  0  0  0  0  0  0
  -30.6180  -15.3040   20.0430 N   0  0  0  0  0  0  0  0  0  0  0  0
  -29.7170  -15.1550   20.4710 H   0  0  0  0  0  0  0  0  0  0  0  0
  -25.8130  -13.8630   20.3050 C   0  0  0  0  0  0  0  0  0  0  0  0
  -24.7530  -13.1380   20.7800 C   0  0  0  0  0  0  0  0  0  0  0  0
  -25.1260  -11.7650   20.6560 C   0  0  0  0  0  0  0  0  0  0  0  0
  -26.7690  -12.9330   19.9260 N   0  0  0  0  0  0  0  0  0  0  0  0
  -26.3660  -11.6640   20.1930 N   0  0  0  0  0  0  0  0  0  0  0  0
  -24.3540  -10.5390   20.8970 C   0  0  0  0  0  0  0  0  0  0  0  0
  -24.7580   -9.5890   21.8610 C   0  0  0  0  0  3  0  0  0  0  0  0
  -23.9880   -8.4280   22.0880 C   0  0  0  0  0  3  0  0  0  0  0  0
  -22.8010   -8.2070   21.3500 C   0  0  0  0  0  0  0  0  0  0  0  0
  -22.4150   -9.1440   20.3760 C   0  0  0  0  0  3  0  0  0  0  0  0
  -23.1850  -10.2970   20.1470 C   0  0  0  0  0  3  0  0  0  0  0  0
  -22.0030   -7.0960   21.4860 O   0  0  0  0  0  0  0  0  0  0  0  0
  -21.8310   -6.4780   22.6980 C   0  0  0  0  0  0  0  0  0  0  0  0
  -21.3010   -7.1600   23.8150 C   0  0  0  0  0  3  0  0  0  0  0  0
  -21.0750   -6.4670   25.0210 C   0  0  0  0  0  3  0  0  0  0  0  0
  -21.3700   -5.0940   25.1100 C   0  0  0  0  0  0  0  0  0  0  0  0
  -21.8920   -4.4110   23.9970 C   0  0  0  0  0  3  0  0  0  0  0  0
  -22.1180   -5.1010   22.7940 C   0  0  0  0  0  0  0  0  0  0  0  0
  -22.6020   -4.4350   21.7180 F   0  0  0  0  0  0  0  0  0  0  0  0
  -21.1460   -4.4270   26.2660 F   0  0  0  0  0  0  0  0  0  0  0  0
  -23.4300  -13.6830   21.2340 C   0  0  0  0  0  0  0  0  0  0  0  0
  -22.7920  -13.0170   22.1920 N   0  0  0  0  0  0  0  0  0  0  0  0
  -22.9760  -14.7290   20.7750 O   0  0  0  0  0  0  0  0  0  0  0  0
  -23.1750  -12.1680   22.5800 H   0  0  0  0  0  0  0  0  0  0  0  0
  -21.9100  -13.3630   22.5430 H   0  0  0  0  0  0  0  0  0  0  0  0
  -26.0360  -15.2260   20.1440 N   0  0  0  0  0  0  0  0  0  0  0  0
  -25.3280  -15.9200   20.3560 H   0  0  0  0  0  0  0  0  0  0  0  0
  -26.8590  -15.6240   19.7090 H   0  0  0  0  0  0  0  0  0  0  0  0
  -30.4700  -22.5550   22.8580 C   0  0  0  0  0  2  0  0  0  0  0  0
  -31.1570  -22.3350   25.3210 C   0  0  0  0  0  1  0  0  0  0  0  0
  -30.1860  -21.8870   24.2210 C   0  0  0  0  0  2  0  0  0  0  0  0
  -29.6300  -22.6960   20.4900 C   0  0  0  0  0  2  0  0  0  0  0  0
  -29.0190  -24.1300   20.7100 C   0  0  0  0  0  2  0  0  0  0  0  0
  -28.7410  -24.9520   19.4260 C   0  0  0  0  0  2  0  0  0  0  0  0
  -28.6650  -26.3670   19.7220 O   0  0  0  0  0  0  0  0  0  0  0  0
  -24.9070  -31.4610   22.9950 C   0  0  0  0  0  0  0  0  0  0  0  0
  -27.4650  -27.0600   19.7540 C   0  0  0  0  0  0  0  0  0  0  0  0
  -23.6620  -30.1130   21.3380 C   0  0  0  0  0  3  0  0  0  0  0  0
  -25.0800  -28.6020   19.8490 C   0  0  0  0  0  0  0  0  0  0  0  0
  -26.1890  -30.4530   21.1070 C   0  0  0  0  0  2  0  0  0  0  0  0
  -26.2520  -29.0960   20.4310 C   0  0  0  0  0  0  0  0  0  0  0  0
  -27.4430  -28.3330   20.3790 C   0  0  0  0  0  3  0  0  0  0  0  0
  -26.2680  -26.5870   19.1670 C   0  0  0  0  0  3  0  0  0  0  0  0
  -25.0840  -27.3470   19.2150 C   0  0  0  0  0  3  0  0  0  0  0  0
  -23.8430  -29.4690   19.9380 C   0  0  0  0  0  2  0  0  0  0  0  0
  -24.9380  -30.6890   21.8720 N   0  0  0  0  0  0  0  0  0  0  0  0
  -23.8370  -31.7270   23.5600 O   0  0  0  0  0  0  0  0  0  0  0  0
  -23.0210  -29.0700   22.2830 C   0  0  0  0  0  0  0  0  0  0  0  0
  -21.6940  -28.8940   22.1700 N   0  0  0  0  0  0  0  0  0  0  0  0
  -23.7140  -28.4200   23.0710 O   0  0  0  0  0  0  0  0  0  0  0  0
  -21.1940  -29.4710   21.5100 H   0  0  0  0  0  0  0  0  0  0  0  0
  -18.3210  -27.7070   22.6920 C   0  0  0  0  0  0  0  0  0  0  0  0
  -20.8860  -27.9400   22.9280 C   0  0  0  0  0  3  0  0  0  0  0  0
  -20.9680  -26.5250   22.3100 C   0  0  0  0  0  2  0  0  0  0  0  0
  -19.8460  -26.2390   21.3050 C   0  0  0  0  0  2  0  0  0  0  0  0
  -18.4760  -26.3760   21.9770 C   0  0  0  0  0  2  0  0  0  0  0  0
  -19.4530  -28.4490   23.1240 C   0  0  0  0  0  0  0  0  0  0  0  0
  -19.2540  -29.6970   23.7510 C   0  0  0  0  0  3  0  0  0  0  0  0
  -17.9570  -30.2040   23.9520 C   0  0  0  0  0  3  0  0  0  0  0  0
  -16.8400  -29.4580   23.5380 C   0  0  0  0  0  3  0  0  0  0  0  0
  -17.0220  -28.2120   22.9130 C   0  0  0  0  0  3  0  0  0  0  0  0
  -26.2080  -32.0680   23.6080 C   0  0  0  0  0  3  0  0  0  0  0  0
  -25.9020  -33.4440   24.0220 N   0  0  0  0  0  0  0  0  0  0  0  0
  -26.2040  -34.5370   23.3090 C   0  0  0  0  0  0  0  0  0  0  0  0
  -26.8380  -34.4920   22.2510 O   0  0  0  0  0  0  0  0  0  0  0  0
  -25.3320  -33.5530   24.8490 H   0  0  0  0  0  0  0  0  0  0  0  0
  -24.4490  -36.3280   23.1060 C   0  0  0  0  0  1  0  0  0  0  0  0
  -25.7210  -35.8950   23.8540 C   0  0  0  0  0  3  0  0  0  0  0  0
  -27.8690  -36.7610   24.6680 C   0  0  0  0  0  1  0  0  0  0  0  0
  -26.7420  -36.9620   23.7610 N   0  0  0  0  0  0  0  0  0  0  0  0
  -26.3330  -37.8710   23.9600 H   0  0  0  0  0  0  0  0  0  0  0  0
  -26.7710  -31.2320   24.8220 C   0  0  1  0  0  0  0  0  0  0  0  0
  -25.7120  -30.9160   25.9050 C   0  0  0  0  0  1  0  0  0  0  0  0
  -27.3610  -29.8900   24.3310 C   0  0  0  0  0  1  0  0  0  0  0  0
  -27.9290  -32.0040   25.4970 C   0  0  0  0  0  1  0  0  0  0  0  0
  1  2  1  1
  1 48  1  0
  3  7  1  0
  5  3  1  0
  5  8  1  0
  6  8  1  0
  6  4  1  0
  7  9  1  0
  7  4  1  0
  8  1  1  0
  9 18  1  0
 10 18  1  0
 11 16  1  0
 12 13  1  0
 12 11  1  0
 14 13  1  0
 14 23  1  0
 14 15  1  0
 16 10  1  0
 16 15  1  0
 17 10  2  0
 18 19  1  0
 20 21  2  0
 21 40  1  0
 22 21  1  0
 22 25  1  0
 23 24  1  0
 23 20  1  0
 24 22  2  0
 25 26  1  0
 26 27  2  0
 28 31  1  0
 28 27  1  0
 29 28  2  0
 30 29  1  0
 30 25  2  0
 31 32  1  0
 32 37  2  0
 32 33  1  0
 33 34  2  0
 34 35  1  0
 35 39  1  0
 36 35  2  0
 37 36  1  0
 38 37  1  0
 40 41  1  0
 41 44  1  0
 41 43  1  0
 42 40  2  0
 45 20  1  0
 45 46  1  0
 47 45  1  0
 48 50  1  0
 50 49  1  0
 51 52  1  0
 51  1  1  0
 53 54  1  0
 53 52  1  0
 54 56  1  0
 55 66  2  0
 56 61  1  0
 57 65  1  0
 57 67  1  0
 58 64  1  0
 58 60  1  0
 59 65  1  0
 60 59  1  0
 61 60  2  0
 62 63  1  0
 62 56  2  0
 63 58  2  0
 64 57  1  0
 65 55  1  0
 67 69  2  0
 68 67  1  0
 70 68  1  0
 71 80  2  0
 71 76  1  0
 72 68  1  0
 72 76  1  0
 73 72  1  0
 74 75  1  0
 74 73  1  0
 75 71  1  0
 76 77  2  0
 77 78  1  0
 79 78  2  0
 80 79  1  0
 81 55  1  0
 81 82  1  0
 81 91  1  0
 82 85  1  0
 83 87  1  0
 83 82  1  0
 84 83  2  0
 87 86  1  0
 89 87  1  0
 89 90  1  0
 89 88  1  0
 91 94  1  1
 91 92  1  0
 93 91  1  0
M  ISO  4  10 100  18 100  53 101  54 101
M  END
>  <TORSDO>  (59) 
F 23

>  <SCORE>  (59) 
-10.216

>  <name>  (59) 
58

>  <ligand_id>  (59) 
58

>  <original_smiles>  (59) 
[H]c1c([H])c([H])c2c(c1[H])C([H])([H])C([H])([H])C([H])([H])C2([H])N([H])C(=O)C1([H])N(C(=O)C([H])(N([H])C(=O)C([H])(N([H])C([H])([H])[H])C([H])([H])[H])C(C([H])([H])[H])(C([H])([H])[H])C([H])([H])[H])C([H])([H])c2c([H])c(OC([H])([H])C([H])([H])C([H])([H])[N+]([H])(C([H])([H])C([H])([H])C([H])([H])[H])C3([H])C([H])([H])C([H])([H])C([H])(C([H])([H])N([H])C(=O)N4C([H])([H])C([H])([H])C([H])([H])C([H])(n5nc(-c6c([H])c([H])c(Oc7c([H])c([H])c(F)c([H])c7F)c([H])c6[H])c(C(=O)N([H])[H])c5N([H])[H])C4([H])[H])C([H])([H])C3([H])[H])c([H])c([H])c2C1([H])[H]

>  <smiles>  (59) 
[H]c1c([H])c([H])c2c(c1[H])C([H])([H])C([H])([H])C([H])([H])C2([H])N([H])C(=O)C1([H])N(C(=O)C([H])(N([H])C(=O)C([H])(N([H])C([H])([H])[H])C([H])([H])[H])C(C([H])([H])[H])(C([H])([H])[H])C([H])([H])[H])C([H])([H])c2c([H])c(OC([H])([H])C([H])([H])C([H])([H])[N+]([H])(C([H])([H])C([H])([H])C([H])([H])[H])C3([H])C([H])([H])C([H])([H])C([H])(C([H])([H])N([H])C(=O)N4C([H])([H])C([H])([H])C([H])([H])C([H])(n5nc(-c6c([H])c([H])c(Oc7c([H])c([H])c(F)c([H])c7F)c([H])c6[H])c(C(=O)N([H])[H])c5N([H])[H])C4([H])[H])C([H])([H])C3([H])[H])c([H])c([H])c2C1([H])[H]

$$$$
59:0:0
     RDKit          3D

 94102  0  0  1  0  0  0  0  0999 V2000
  -31.1910  -20.3260   20.0290 C   0  0  0  0  0  0  0  0  0  0  0  0
  -30.8410  -21.3590   19.1360 C   0  0  0  0  0  0  0  0  0  0  0  0
  -30.3540  -20.1650   21.1510 C   0  0  0  0  0  0  0  0  0  0  0  0
  -29.0740  -21.9610   20.4680 C   0  0  0  0  0  0  0  0  0  0  0  0
  -29.7960  -22.1820   19.3720 N   0  0  0  0  0  0  0  0  0  0  0  0
  -29.3010  -20.9930   21.3590 N   0  0  0  0  0  0  0  0  0  0  0  0
  -32.5820  -19.3250   19.7680 Cl  0  0  0  0  0  0  0  0  0  0  0  0
  -32.8760  -22.4540   18.0480 C   0  0  0  0  0  1  0  0  0  0  0  0
  -31.6160  -21.6020   17.8490 C   0  0  0  0  0  2  0  0  0  0  0  0
  -30.5790  -19.0620   22.1920 C   0  0  0  0  0  2  0  0  0  0  0  0
  -29.9080  -17.6880   21.8960 C   0  0  0  0  0  2  0  0  0  0  0  0
  -30.7950  -16.7020   21.0910 C   0  0  0  0  0  2  0  0  0  0  0  0
  -30.8400  -14.3810   20.2310 C   0  0  0  0  0  0  0  0  0  0  0  0
  -30.4260  -12.3120   18.9480 C   0  0  0  0  0  2  0  0  0  0  0  0
  -29.4460  -12.6270   17.7990 C   0  0  0  0  0  2  0  0  0  0  0  0
  -27.9870  -12.4970   18.2810 C   0  0  0  0  0  2  0  0  0  0  0  0
  -27.7280  -13.2650   19.6080 C   0  0  0  0  0  3  0  0  0  0  0  0
  -28.8160  -12.9300   20.6540 C   0  0  0  0  0  2  0  0  0  0  0  0
  -30.1260  -13.2350   20.0560 N   0  0  0  0  0  0  0  0  0  0  0  0
  -31.9130  -14.5940   19.6590 O   0  0  0  0  0  0  0  0  0  0  0  0
  -30.2620  -15.3350   20.9850 N   0  0  0  0  0  0  0  0  0  0  0  0
  -29.3920  -15.1130   21.4490 H   0  0  0  0  0  0  0  0  0  0  0  0
  -25.3590  -13.8930   20.3900 C   0  0  0  0  0  0  0  0  0  0  0  0
  -24.2970  -13.1290   20.7910 C   0  0  0  0  0  0  0  0  0  0  0  0
  -24.7430  -11.7730   20.7360 C   0  0  0  0  0  0  0  0  0  0  0  0
  -26.3880  -13.0030   20.1250 N   0  0  0  0  0  0  0  0  0  0  0  0
  -26.0230  -11.7220   20.3870 N   0  0  0  0  0  0  0  0  0  0  0  0
  -24.0130  -10.5160   20.9470 C   0  0  0  0  0  0  0  0  0  0  0  0
  -24.4500   -9.5620   21.8940 C   0  0  0  0  0  3  0  0  0  0  0  0
  -23.7220   -8.3690   22.0930 C   0  0  0  0  0  3  0  0  0  0  0  0
  -22.5460   -8.1210   21.3450 C   0  0  0  0  0  0  0  0  0  0  0  0
  -22.1300   -9.0630   20.3900 C   0  0  0  0  0  3  0  0  0  0  0  0
  -22.8560  -10.2490   20.1890 C   0  0  0  0  0  3  0  0  0  0  0  0
  -21.7920   -6.9780   21.4500 O   0  0  0  0  0  0  0  0  0  0  0  0
  -21.7200   -6.2700   22.6230 C   0  0  0  0  0  0  0  0  0  0  0  0
  -21.2540   -6.8560   23.8220 C   0  0  0  0  0  3  0  0  0  0  0  0
  -21.1300   -6.0730   24.9850 C   0  0  0  0  0  3  0  0  0  0  0  0
  -21.4590   -4.7040   24.9530 C   0  0  0  0  0  0  0  0  0  0  0  0
  -21.9170   -4.1180   23.7600 C   0  0  0  0  0  3  0  0  0  0  0  0
  -22.0440   -4.9000   22.5980 C   0  0  0  0  0  0  0  0  0  0  0  0
  -22.4640   -4.3250   21.4450 F   0  0  0  0  0  0  0  0  0  0  0  0
  -21.3320   -3.9500   26.0690 F   0  0  0  0  0  0  0  0  0  0  0  0
  -22.9150  -13.6170   21.1130 C   0  0  0  0  0  0  0  0  0  0  0  0
  -22.2160  -12.9190   22.0030 N   0  0  0  0  0  0  0  0  0  0  0  0
  -22.4640  -14.6460   20.6120 O   0  0  0  0  0  0  0  0  0  0  0  0
  -22.5950  -12.0850   22.4290 H   0  0  0  0  0  0  0  0  0  0  0  0
  -21.2890  -13.2240   22.2630 H   0  0  0  0  0  0  0  0  0  0  0  0
  -25.5330  -15.2620   20.2080 N   0  0  0  0  0  0  0  0  0  0  0  0
  -24.7790  -15.9270   20.3360 H   0  0  0  0  0  0  0  0  0  0  0  0
  -26.3850  -15.6920   19.8650 H   0  0  0  0  0  0  0  0  0  0  0  0
  -27.8370  -22.8380   20.6780 C   0  0  0  0  0  2  0  0  0  0  0  0
  -28.0760  -24.2970   21.1540 C   0  0  0  0  0  2  0  0  0  0  0  0
  -28.5880  -25.2680   20.0610 C   0  0  0  0  0  2  0  0  0  0  0  0
  -28.5150  -26.6530   20.4510 O   0  0  0  0  0  0  0  0  0  0  0  0
  -24.5670  -31.8530   23.2770 C   0  0  0  0  0  0  0  0  0  0  0  0
  -27.3200  -27.3480   20.3720 C   0  0  0  0  0  0  0  0  0  0  0  0
  -23.4210  -30.4270   21.6140 C   0  0  0  0  0  3  0  0  0  0  0  0
  -24.9230  -28.8630   20.2710 C   0  0  0  0  0  0  0  0  0  0  0  0
  -25.9540  -30.7760   21.5060 C   0  0  0  0  0  2  0  0  0  0  0  0
  -26.0600  -29.3960   20.8880 C   0  0  0  0  0  0  0  0  0  0  0  0
  -27.2590  -28.6460   20.9330 C   0  0  0  0  0  3  0  0  0  0  0  0
  -26.1560  -26.8280   19.7560 C   0  0  0  0  0  3  0  0  0  0  0  0
  -24.9660  -27.5780   19.7050 C   0  0  0  0  0  3  0  0  0  0  0  0
  -23.6790  -29.7220   20.2550 C   0  0  0  0  0  2  0  0  0  0  0  0
  -24.6640  -31.0350   22.1920 N   0  0  0  0  0  0  0  0  0  0  0  0
  -23.4670  -32.1360   23.7700 O   0  0  0  0  0  0  0  0  0  0  0  0
  -22.7330  -29.4220   22.5640 C   0  0  0  0  0  0  0  0  0  0  0  0
  -21.4160  -29.2340   22.3840 N   0  0  0  0  0  0  0  0  0  0  0  0
  -23.3830  -28.8170   23.4220 O   0  0  0  0  0  0  0  0  0  0  0  0
  -20.9550  -29.7720   21.6630 H   0  0  0  0  0  0  0  0  0  0  0  0
  -18.0260  -28.0420   22.7620 C   0  0  0  0  0  0  0  0  0  0  0  0
  -20.5700  -28.3090   23.1380 C   0  0  0  0  0  3  0  0  0  0  0  0
  -20.6980  -26.8680   22.5930 C   0  0  0  0  0  2  0  0  0  0  0  0
  -19.6410  -26.5250   21.5390 C   0  0  0  0  0  2  0  0  0  0  0  0
  -18.2330  -26.6810   22.1200 C   0  0  0  0  0  2  0  0  0  0  0  0
  -19.1240  -28.8140   23.2250 C   0  0  0  0  0  0  0  0  0  0  0  0
  -18.8810  -30.0890   23.7810 C   0  0  0  0  0  3  0  0  0  0  0  0
  -17.5710  -30.5920   23.8820 C   0  0  0  0  0  3  0  0  0  0  0  0
  -16.4850  -29.8160   23.4380 C   0  0  0  0  0  3  0  0  0  0  0  0
  -16.7120  -28.5450   22.8840 C   0  0  0  0  0  3  0  0  0  0  0  0
  -25.8300  -32.4940   23.9350 C   0  0  0  0  0  3  0  0  0  0  0  0
  -25.5110  -33.8960   24.2300 N   0  0  0  0  0  0  0  0  0  0  0  0
  -25.8740  -34.9350   23.4660 C   0  0  0  0  0  0  0  0  0  0  0  0
  -26.5830  -34.8130   22.4620 O   0  0  0  0  0  0  0  0  0  0  0  0
  -24.8880  -34.0670   25.0050 H   0  0  0  0  0  0  0  0  0  0  0  0
  -24.1670  -36.7240   23.0100 C   0  0  0  0  0  1  0  0  0  0  0  0
  -25.3720  -36.3320   23.8790 C   0  0  0  0  0  3  0  0  0  0  0  0
  -27.4710  -37.2270   24.7850 C   0  0  0  0  0  1  0  0  0  0  0  0
  -26.4100  -37.3820   23.7930 N   0  0  0  0  0  0  0  0  0  0  0  0
  -26.0020  -38.3040   23.9100 H   0  0  0  0  0  0  0  0  0  0  0  0
  -26.3010  -31.7410   25.2400 C   0  0  1  0  0  0  0  0  0  0  0  0
  -25.1690  -31.5160   26.2700 C   0  0  0  0  0  1  0  0  0  0  0  0
  -26.9010  -30.3600   24.8880 C   0  0  0  0  0  1  0  0  0  0  0  0
  -27.4260  -32.5470   25.9290 C   0  0  0  0  0  1  0  0  0  0  0  0
  1  3  1  0
  2  5  1  0
  2  1  2  0
  3  6  2  0
  3 10  1  0
  4 51  1  0
  4  6  1  0
  5  4  2  0
  7  1  1  0
  9  8  1  0
  9  2  1  0
 11 10  1  0
 12 11  1  0
 13 21  1  0
 14 19  1  0
 15 16  1  0
 15 14  1  0
 17 16  1  0
 17 26  1  0
 17 18  1  0
 19 13  1  0
 19 18  1  0
 20 13  2  0
 21 12  1  0
 21 22  1  0
 23 24  2  0
 24 43  1  0
 25 24  1  0
 25 28  1  0
 26 27  1  0
 26 23  1  0
 27 25  2  0
 28 29  1  0
 29 30  2  0
 31 34  1  0
 31 30  1  0
 32 31  2  0
 33 32  1  0
 33 28  2  0
 34 35  1  0
 35 36  1  0
 36 37  2  0
 38 37  1  0
 38 42  1  0
 39 38  2  0
 40 35  2  0
 40 39  1  0
 41 40  1  0
 43 44  1  0
 44 47  1  0
 44 46  1  0
 45 43  2  0
 48 49  1  0
 48 23  1  0
 50 48  1  0
 51 52  1  0
 53 54  1  0
 53 52  1  0
 55 66  2  0
 56 54  1  0
 56 61  1  0
 57 65  1  0
 57 67  1  0
 58 60  1  0
 59 65  1  0
 60 61  2  0
 60 59  1  0
 62 56  2  0
 63 62  1  0
 63 58  2  0
 64 58  1  0
 64 57  1  0
 65 55  1  0
 67 69  2  0
 68 67  1  0
 70 68  1  0
 71 80  2  0
 71 76  1  0
 72 68  1  0
 72 76  1  0
 73 72  1  0
 74 75  1  0
 74 73  1  0
 75 71  1  0
 76 77  2  0
 77 78  1  0
 79 78  2  0
 80 79  1  0
 81 55  1  0
 81 82  1  0
 81 91  1  0
 82 85  1  0
 83 87  1  0
 83 82  1  0
 84 83  2  0
 87 86  1  0
 89 87  1  0
 89 90  1  0
 89 88  1  0
 91 94  1  1
 91 92  1  0
 93 91  1  0
M  ISO  4  13 100  21 100  53 101  54 101
M  END
>  <TORSDO>  (60) 
F 23

>  <SCORE>  (60) 
-12.500

>  <name>  (60) 
59

>  <ligand_id>  (60) 
59

>  <original_smiles>  (60) 
[H]c1c([H])c([H])c2c(c1[H])C([H])([H])C([H])([H])C([H])([H])C2([H])N([H])C(=O)C1([H])N(C(=O)C([H])(N([H])C(=O)C([H])(N([H])C([H])([H])[H])C([H])([H])[H])C(C([H])([H])[H])(C([H])([H])[H])C([H])([H])[H])C([H])([H])c2c([H])c(OC([H])([H])C([H])([H])C([H])([H])c3nc(C([H])([H])C([H])([H])[H])c(Cl)c(C([H])([H])C([H])([H])C([H])([H])N([H])C(=O)N4C([H])([H])C([H])([H])C([H])([H])C([H])(n5nc(-c6c([H])c([H])c(Oc7c([H])c([H])c(F)c([H])c7F)c([H])c6[H])c(C(=O)N([H])[H])c5N([H])[H])C4([H])[H])n3)c([H])c([H])c2C1([H])[H]

>  <smiles>  (60) 
[H]c1c([H])c([H])c2c(c1[H])C([H])([H])C([H])([H])C([H])([H])C2([H])N([H])C(=O)C1([H])N(C(=O)C([H])(N([H])C(=O)C([H])(N([H])C([H])([H])[H])C([H])([H])[H])C(C([H])([H])[H])(C([H])([H])[H])C([H])([H])[H])C([H])([H])c2c([H])c(OC([H])([H])C([H])([H])C([H])([H])c3nc(C([H])([H])C([H])([H])[H])c(Cl)c(C([H])([H])C([H])([H])C([H])([H])N([H])C(=O)N4C([H])([H])C([H])([H])C([H])([H])C([H])(n5nc(-c6c([H])c([H])c(Oc7c([H])c([H])c(F)c([H])c7F)c([H])c6[H])c(C(=O)N([H])[H])c5N([H])[H])C4([H])[H])n3)c([H])c([H])c2C1([H])[H]

$$$$
60:0:0
     RDKit          3D

 95103  0  0  1  0  0  0  0  0999 V2000
  -27.1740  -20.7160   19.6970 C   0  0  0  0  0  2  0  0  0  0  0  0
  -30.0320  -18.4340   18.4330 C   0  0  0  0  0  3  0  0  0  0  0  0
  -28.6060  -18.9520   20.7820 C   0  0  0  0  0  3  0  0  0  0  0  0
  -28.9870  -19.3820   18.4090 C   0  0  0  0  0  0  0  0  0  0  0  0
  -29.6390  -17.9910   20.8000 C   0  0  0  0  0  0  0  0  0  0  0  0
  -30.3800  -17.7500   19.6170 C   0  0  0  0  0  0  0  0  0  0  0  0
  -28.2800  -19.6670   19.6080 C   0  0  0  0  0  0  0  0  0  0  0  0
  -28.6810  -20.0570   17.0780 C   0  0  0  0  0  1  0  0  0  0  0  0
  -29.9110  -17.2360   22.0930 C   0  0  0  0  0  1  0  0  0  0  0  0
  -31.5410  -16.7640   19.5760 C   0  0  0  0  0  2  0  0  0  0  0  0
  -31.6220  -14.2930   19.2910 C   0  0  0  0  0  0  0  0  0  0  0  0
  -31.2700  -11.8890   18.8750 C   0  0  0  0  0  2  0  0  0  0  0  0
  -30.2750  -11.6880   17.7150 C   0  0  0  0  0  2  0  0  0  0  0  0
  -28.8240  -11.7080   18.2320 C   0  0  0  0  0  2  0  0  0  0  0  0
  -28.5310  -12.9240   19.1490 C   0  0  0  0  0  3  0  0  0  0  0  0
  -29.6270  -13.0660   20.2290 C   0  0  0  0  0  2  0  0  0  0  0  0
  -30.9340  -13.1510   19.5490 N   0  0  0  0  0  0  0  0  0  0  0  0
  -32.6380  -14.3280   18.5930 O   0  0  0  0  0  0  0  0  0  0  0  0
  -31.0960  -15.3980   19.8260 N   0  0  0  0  0  0  0  0  0  0  0  0
  -30.2760  -15.2790   20.3990 H   0  0  0  0  0  0  0  0  0  0  0  0
  -26.2970  -13.8430   20.0420 C   0  0  0  0  0  0  0  0  0  0  0  0
  -25.1740  -13.2150   20.5160 C   0  0  0  0  0  0  0  0  0  0  0  0
  -25.4590  -11.8160   20.4780 C   0  0  0  0  0  0  0  0  0  0  0  0
  -27.1990  -12.8320   19.7440 N   0  0  0  0  0  0  0  0  0  0  0  0
  -26.7020  -11.6090   20.0600 N   0  0  0  0  0  0  0  0  0  0  0  0
  -24.6010  -10.6580   20.7610 C   0  0  0  0  0  0  0  0  0  0  0  0
  -24.9200   -9.7360   21.7820 C   0  0  0  0  0  3  0  0  0  0  0  0
  -24.0720   -8.6390   22.0470 C   0  0  0  0  0  3  0  0  0  0  0  0
  -22.8880   -8.4580   21.2910 C   0  0  0  0  0  0  0  0  0  0  0  0
  -22.5860   -9.3680   20.2630 C   0  0  0  0  0  3  0  0  0  0  0  0
  -23.4340  -10.4560   19.9960 C   0  0  0  0  0  3  0  0  0  0  0  0
  -22.0170   -7.4080   21.4600 O   0  0  0  0  0  0  0  0  0  0  0  0
  -21.7940   -6.8500   22.6940 C   0  0  0  0  0  0  0  0  0  0  0  0
  -21.2980   -7.6100   23.7760 C   0  0  0  0  0  3  0  0  0  0  0  0
  -21.0160   -6.9820   25.0050 C   0  0  0  0  0  3  0  0  0  0  0  0
  -21.2190   -5.5970   25.1530 C   0  0  0  0  0  0  0  0  0  0  0  0
  -21.7060   -4.8370   24.0740 C   0  0  0  0  0  3  0  0  0  0  0  0
  -21.9890   -5.4630   22.8470 C   0  0  0  0  0  0  0  0  0  0  0  0
  -22.4390   -4.7230   21.8060 F   0  0  0  0  0  0  0  0  0  0  0  0
  -20.9400   -4.9930   26.3320 F   0  0  0  0  0  0  0  0  0  0  0  0
  -23.8770  -13.8690   20.8970 C   0  0  0  0  0  0  0  0  0  0  0  0
  -23.1630  -13.2980   21.8610 N   0  0  0  0  0  0  0  0  0  0  0  0
  -23.5140  -14.9180   20.3720 O   0  0  0  0  0  0  0  0  0  0  0  0
  -23.4750  -12.4490   22.3070 H   0  0  0  0  0  0  0  0  0  0  0  0
  -22.2940  -13.7200   22.1580 H   0  0  0  0  0  0  0  0  0  0  0  0
  -26.6200  -15.1780   19.8280 N   0  0  0  0  0  0  0  0  0  0  0  0
  -25.9670  -15.9320   20.0150 H   0  0  0  0  0  0  0  0  0  0  0  0
  -27.5160  -15.5040   19.4840 H   0  0  0  0  0  0  0  0  0  0  0  0
  -27.6700  -21.9770   20.2850 N   0  0  0  0  0  4  0  0  0  0  0  0
  -28.4690  -21.7590   20.8560 H   0  0  0  0  0  0  0  0  0  0  0  0
  -26.9470  -22.3220   20.8970 H   0  0  0  0  0  0  0  0  0  0  0  0
  -28.0100  -23.0480   19.3240 C   0  0  0  0  0  2  0  0  0  0  0  0
  -28.2120  -24.4010   20.0310 C   0  0  0  0  0  2  0  0  0  0  0  0
  -28.6030  -25.5370   19.0640 C   0  0  0  0  0  2  0  0  0  0  0  0
  -28.5000  -26.8160   19.6980 O   0  0  0  0  0  0  0  0  0  0  0  0
  -24.6080  -31.7250   23.0520 C   0  0  0  0  0  0  0  0  0  0  0  0
  -27.2780  -27.4590   19.7500 C   0  0  0  0  0  0  0  0  0  0  0  0
  -23.3910  -30.3480   21.3950 C   0  0  0  0  0  3  0  0  0  0  0  0
  -24.8410  -28.8920   19.8900 C   0  0  0  0  0  0  0  0  0  0  0  0
  -25.9030  -30.7740   21.1480 C   0  0  0  0  0  2  0  0  0  0  0  0
  -26.0010  -29.4250   20.4660 C   0  0  0  0  0  0  0  0  0  0  0  0
  -27.2170  -28.7120   20.4010 C   0  0  0  0  0  3  0  0  0  0  0  0
  -26.0940  -26.9360   19.1770 C   0  0  0  0  0  3  0  0  0  0  0  0
  -24.8820  -27.6440   19.2490 C   0  0  0  0  0  3  0  0  0  0  0  0
  -23.5780  -29.7150   19.9900 C   0  0  0  0  0  2  0  0  0  0  0  0
  -24.6540  -30.9610   21.9230 N   0  0  0  0  0  0  0  0  0  0  0  0
  -23.5320  -31.9550   23.6260 O   0  0  0  0  0  0  0  0  0  0  0  0
  -22.7870  -29.2820   22.3380 C   0  0  0  0  0  0  0  0  0  0  0  0
  -21.4650  -29.0710   22.2340 N   0  0  0  0  0  0  0  0  0  0  0  0
  -23.5040  -28.6480   23.1160 O   0  0  0  0  0  0  0  0  0  0  0  0
  -20.9460  -29.6380   21.5790 H   0  0  0  0  0  0  0  0  0  0  0  0
  -18.1360  -27.7700   22.7470 C   0  0  0  0  0  0  0  0  0  0  0  0
  -20.6880  -28.0870   22.9890 C   0  0  0  0  0  3  0  0  0  0  0  0
  -20.8210  -26.6780   22.3660 C   0  0  0  0  0  2  0  0  0  0  0  0
  -19.7150  -26.3580   21.3580 C   0  0  0  0  0  2  0  0  0  0  0  0
  -18.3400  -26.4470   22.0240 C   0  0  0  0  0  2  0  0  0  0  0  0
  -19.2390  -28.5480   23.1840 C   0  0  0  0  0  0  0  0  0  0  0  0
  -18.9960  -29.7890   23.8110 C   0  0  0  0  0  3  0  0  0  0  0  0
  -17.6810  -30.2530   24.0060 C   0  0  0  0  0  3  0  0  0  0  0  0
  -16.5920  -29.4680   23.5880 C   0  0  0  0  0  3  0  0  0  0  0  0
  -16.8190  -28.2270   22.9660 C   0  0  0  0  0  3  0  0  0  0  0  0
  -25.8950  -32.3650   23.6590 C   0  0  0  0  0  3  0  0  0  0  0  0
  -25.5650  -33.7470   24.0360 N   0  0  0  0  0  0  0  0  0  0  0  0
  -25.8630  -34.8270   23.3000 C   0  0  0  0  0  0  0  0  0  0  0  0
  -26.5150  -34.7650   22.2540 O   0  0  0  0  0  0  0  0  0  0  0  0
  -24.9840  -33.8630   24.8530 H   0  0  0  0  0  0  0  0  0  0  0  0
  -24.0890  -36.5880   23.0320 C   0  0  0  0  0  1  0  0  0  0  0  0
  -25.3560  -36.1930   23.8050 C   0  0  0  0  0  3  0  0  0  0  0  0
  -27.4900  -37.1020   24.6070 C   0  0  0  0  0  1  0  0  0  0  0  0
  -26.3640  -37.2700   23.6930 N   0  0  0  0  0  0  0  0  0  0  0  0
  -25.9430  -38.1770   23.8720 H   0  0  0  0  0  0  0  0  0  0  0  0
  -26.4590  -31.5690   24.8990 C   0  0  1  0  0  0  0  0  0  0  0  0
  -25.3990  -31.2740   25.9860 C   0  0  0  0  0  1  0  0  0  0  0  0
  -27.0600  -30.2190   24.4460 C   0  0  0  0  0  1  0  0  0  0  0  0
  -27.6090  -32.3660   25.5560 C   0  0  0  0  0  1  0  0  0  0  0  0
  1 49  1  0
  2  6  1  0
  3  5  1  0
  4  2  2  0
  4  7  1  0
  5  9  1  0
  6  5  2  0
  7  1  1  0
  7  3  2  0
  8  4  1  0
 10  6  1  0
 10 19  1  0
 11 17  1  0
 11 19  1  0
 12 17  1  0
 13 14  1  0
 13 12  1  0
 15 14  1  0
 15 24  1  0
 15 16  1  0
 17 16  1  0
 18 11  2  0
 19 20  1  0
 21 22  2  0
 22 41  1  0
 23 22  1  0
 23 26  1  0
 24 21  1  0
 24 25  1  0
 25 23  2  0
 26 27  1  0
 27 28  2  0
 29 32  1  0
 29 28  1  0
 30 29  2  0
 31 30  1  0
 31 26  2  0
 32 33  1  0
 33 38  2  0
 33 34  1  0
 34 35  2  0
 35 36  1  0
 36 40  1  0
 37 36  2  0
 38 37  1  0
 39 38  1  0
 41 42  1  0
 42 45  1  0
 42 44  1  0
 43 41  2  0
 46 47  1  0
 46 21  1  0
 48 46  1  0
 49 50  1  0
 49 51  1  0
 52 53  1  0
 52 49  1  0
 54 55  1  0
 54 53  1  0
 55 57  1  0
 56 67  2  0
 57 62  1  0
 58 66  1  0
 58 68  1  0
 59 65  1  0
 59 61  1  0
 60 66  1  0
 61 60  1  0
 62 61  2  0
 63 64  1  0
 63 57  2  0
 64 59  2  0
 65 58  1  0
 66 56  1  0
 68 70  2  0
 69 68  1  0
 71 69  1  0
 72 81  2  0
 72 77  1  0
 73 69  1  0
 73 77  1  0
 74 73  1  0
 75 76  1  0
 75 74  1  0
 76 72  1  0
 77 78  2  0
 78 79  1  0
 80 79  2  0
 81 80  1  0
 82 56  1  0
 82 83  1  0
 82 92  1  0
 83 86  1  0
 84 88  1  0
 84 83  1  0
 85 84  2  0
 88 87  1  0
 90 88  1  0
 90 91  1  0
 90 89  1  0
 92 95  1  1
 92 93  1  0
 94 92  1  0
M  ISO  4  11 100  19 100  54 101  55 101
M  END
>  <TORSDO>  (61) 
F 22

>  <SCORE>  (61) 
-11.101

>  <name>  (61) 
60

>  <ligand_id>  (61) 
60

>  <original_smiles>  (61) 
[H]c1c([H])c([H])c2c(c1[H])C([H])([H])C([H])([H])C([H])([H])C2([H])N([H])C(=O)C1([H])N(C(=O)C([H])(N([H])C(=O)C([H])(N([H])C([H])([H])[H])C([H])([H])[H])C(C([H])([H])[H])(C([H])([H])[H])C([H])([H])[H])C([H])([H])c2c([H])c(OC([H])([H])C([H])([H])C([H])([H])[N+]([H])([H])C([H])([H])c3c([H])c(C([H])([H])[H])c(C([H])([H])N([H])C(=O)N4C([H])([H])C([H])([H])C([H])([H])C([H])(n5nc(-c6c([H])c([H])c(Oc7c([H])c([H])c(F)c([H])c7F)c([H])c6[H])c(C(=O)N([H])[H])c5N([H])[H])C4([H])[H])c([H])c3C([H])([H])[H])c([H])c([H])c2C1([H])[H]

>  <smiles>  (61) 
[H]c1c([H])c([H])c2c(c1[H])C([H])([H])C([H])([H])C([H])([H])C2([H])N([H])C(=O)C1([H])N(C(=O)C([H])(N([H])C(=O)C([H])(N([H])C([H])([H])[H])C([H])([H])[H])C(C([H])([H])[H])(C([H])([H])[H])C([H])([H])[H])C([H])([H])c2c([H])c(OC([H])([H])C([H])([H])C([H])([H])[N+]([H])([H])C([H])([H])c3c([H])c(C([H])([H])[H])c(C([H])([H])N([H])C(=O)N4C([H])([H])C([H])([H])C([H])([H])C([H])(n5nc(-c6c([H])c([H])c(Oc7c([H])c([H])c(F)c([H])c7F)c([H])c6[H])c(C(=O)N([H])[H])c5N([H])[H])C4([H])[H])c([H])c3C([H])([H])[H])c([H])c([H])c2C1([H])[H]

$$$$
61:0:0
     RDKit          3D

 95103  0  0  1  0  0  0  0  0999 V2000
  -28.2760  -21.4960   21.6830 C   0  0  0  0  0  2  0  0  0  0  0  0
  -28.8770  -19.3070   20.5160 C   0  0  0  0  0  3  0  0  0  0  0  0
  -30.4630  -20.2750   22.0890 C   0  0  0  0  0  3  0  0  0  0  0  0
  -29.2380  -20.3510   21.4000 C   0  0  0  0  0  0  0  0  0  0  0  0
  -29.7160  -18.1860   20.3180 C   0  0  0  0  0  0  0  0  0  0  0  0
  -31.3220  -19.1770   21.8860 C   0  0  0  0  0  0  0  0  0  0  0  0
  -30.9610  -18.1320   21.0020 C   0  0  0  0  0  0  0  0  0  0  0  0
  -32.8260  -19.1540   22.7350 Cl  0  0  0  0  0  0  0  0  0  0  0  0
  -32.0690  -16.8260   20.7290 Cl  0  0  0  0  0  0  0  0  0  0  0  0
  -29.3020  -17.1180   19.2990 C   0  0  0  0  0  2  0  0  0  0  0  0
  -29.9050  -14.7100   19.4550 C   0  0  0  0  0  0  0  0  0  0  0  0
  -29.8000  -12.3690   18.6860 C   0  0  0  0  0  2  0  0  0  0  0  0
  -28.7280  -12.2270   17.5880 C   0  0  0  0  0  2  0  0  0  0  0  0
  -27.3480  -11.9460   18.2140 C   0  0  0  0  0  2  0  0  0  0  0  0
  -27.0030  -12.9270   19.3660 C   0  0  0  0  0  3  0  0  0  0  0  0
  -28.1810  -13.0920   20.3520 C   0  0  0  0  0  2  0  0  0  0  0  0
  -29.3780  -13.4610   19.5800 N   0  0  0  0  0  0  0  0  0  0  0  0
  -30.9580  -14.9220   18.8540 O   0  0  0  0  0  0  0  0  0  0  0  0
  -29.1090  -15.7380   19.8070 N   0  0  0  0  0  0  0  0  0  0  0  0
  -28.2150  -15.5020   20.2020 H   0  0  0  0  0  0  0  0  0  0  0  0
  -24.7390  -13.3320   20.5190 C   0  0  0  0  0  0  0  0  0  0  0  0
  -23.8000  -12.4710   21.0180 C   0  0  0  0  0  0  0  0  0  0  0  0
  -24.3230  -11.1550   20.8210 C   0  0  0  0  0  0  0  0  0  0  0  0
  -25.7740  -12.5370   20.0540 N   0  0  0  0  0  0  0  0  0  0  0  0
  -25.5390  -11.2210   20.2930 N   0  0  0  0  0  0  0  0  0  0  0  0
  -23.7120   -9.8390   21.0530 C   0  0  0  0  0  0  0  0  0  0  0  0
  -24.2320   -8.9430   22.0140 C   0  0  0  0  0  3  0  0  0  0  0  0
  -23.6160   -7.6910   22.2310 C   0  0  0  0  0  3  0  0  0  0  0  0
  -22.4700   -7.3260   21.4860 C   0  0  0  0  0  0  0  0  0  0  0  0
  -21.9700   -8.2110   20.5150 C   0  0  0  0  0  3  0  0  0  0  0  0
  -22.5870   -9.4530   20.2960 C   0  0  0  0  0  3  0  0  0  0  0  0
  -21.8210   -6.1200   21.6130 O   0  0  0  0  0  0  0  0  0  0  0  0
  -21.6950   -5.4910   22.8260 C   0  0  0  0  0  0  0  0  0  0  0  0
  -21.0350   -6.1010   23.9160 C   0  0  0  0  0  3  0  0  0  0  0  0
  -20.8680   -5.3930   25.1240 C   0  0  0  0  0  3  0  0  0  0  0  0
  -21.3530   -4.0760   25.2400 C   0  0  0  0  0  0  0  0  0  0  0  0
  -22.0020   -3.4650   24.1550 C   0  0  0  0  0  3  0  0  0  0  0  0
  -22.1740   -4.1700   22.9510 C   0  0  0  0  0  0  0  0  0  0  0  0
  -22.7830   -3.5690   21.9000 F   0  0  0  0  0  0  0  0  0  0  0  0
  -21.1860   -3.3940   26.3970 F   0  0  0  0  0  0  0  0  0  0  0  0
  -22.4450  -12.8360   21.5560 C   0  0  0  0  0  0  0  0  0  0  0  0
  -21.9300  -12.0630   22.5060 N   0  0  0  0  0  0  0  0  0  0  0  0
  -21.8570  -13.8450   21.1690 O   0  0  0  0  0  0  0  0  0  0  0  0
  -22.4230  -11.2490   22.8390 H   0  0  0  0  0  0  0  0  0  0  0  0
  -21.0250  -12.2870   22.9000 H   0  0  0  0  0  0  0  0  0  0  0  0
  -24.7970  -14.7190   20.4040 N   0  0  0  0  0  0  0  0  0  0  0  0
  -24.0230  -15.3180   20.6810 H   0  0  0  0  0  0  0  0  0  0  0  0
  -25.5510  -15.2240   19.9590 H   0  0  0  0  0  0  0  0  0  0  0  0
  -28.5820  -22.7580   20.9720 N   0  0  0  0  0  4  0  0  0  0  0  0
  -29.0910  -22.5590   20.1270 H   0  0  0  0  0  0  0  0  0  0  0  0
  -29.1910  -23.2980   21.5650 H   0  0  0  0  0  0  0  0  0  0  0  0
  -27.3550  -23.5340   20.6440 C   0  0  0  0  0  2  0  0  0  0  0  0
  -27.5230  -25.0690   20.6470 C   0  0  0  0  0  2  0  0  0  0  0  0
  -27.9890  -25.6830   19.3090 C   0  0  0  0  0  2  0  0  0  0  0  0
  -28.0270  -27.1150   19.3660 O   0  0  0  0  0  0  0  0  0  0  0  0
  -24.5200  -31.9210   23.2340 C   0  0  0  0  0  0  0  0  0  0  0  0
  -26.8480  -27.8180   19.5060 C   0  0  0  0  0  0  0  0  0  0  0  0
  -23.1650  -30.7130   21.5560 C   0  0  0  0  0  3  0  0  0  0  0  0
  -24.4770  -29.3190   19.8680 C   0  0  0  0  0  0  0  0  0  0  0  0
  -25.6670  -31.0750   21.1900 C   0  0  0  0  0  2  0  0  0  0  0  0
  -25.6810  -29.7750   20.4130 C   0  0  0  0  0  0  0  0  0  0  0  0
  -26.8670  -29.0320   20.2310 C   0  0  0  0  0  3  0  0  0  0  0  0
  -25.6210  -27.3800   18.9510 C   0  0  0  0  0  3  0  0  0  0  0  0
  -24.4370  -28.1190   19.1390 C   0  0  0  0  0  3  0  0  0  0  0  0
  -23.2530  -30.1790   20.1000 C   0  0  0  0  0  2  0  0  0  0  0  0
  -24.4750  -31.2420   22.0530 N   0  0  0  0  0  0  0  0  0  0  0  0
  -23.4900  -32.1430   23.8840 O   0  0  0  0  0  0  0  0  0  0  0  0
  -22.5700  -29.6040   22.4490 C   0  0  0  0  0  0  0  0  0  0  0  0
  -21.2560  -29.3640   22.3130 N   0  0  0  0  0  0  0  0  0  0  0  0
  -23.2870  -28.9620   23.2220 O   0  0  0  0  0  0  0  0  0  0  0  0
  -20.7370  -29.9400   21.6660 H   0  0  0  0  0  0  0  0  0  0  0  0
  -17.9730  -27.8960   22.6370 C   0  0  0  0  0  0  0  0  0  0  0  0
  -20.4890  -28.3420   23.0220 C   0  0  0  0  0  3  0  0  0  0  0  0
  -20.7260  -26.9410   22.4070 C   0  0  0  0  0  2  0  0  0  0  0  0
  -19.6930  -26.5670   21.3410 C   0  0  0  0  0  2  0  0  0  0  0  0
  -18.2800  -26.5860   21.9330 C   0  0  0  0  0  2  0  0  0  0  0  0
  -19.0100  -28.7280   23.1360 C   0  0  0  0  0  0  0  0  0  0  0  0
  -18.6710  -29.9530   23.7510 C   0  0  0  0  0  3  0  0  0  0  0  0
  -17.3270  -30.3470   23.8760 C   0  0  0  0  0  3  0  0  0  0  0  0
  -16.3010  -29.5100   23.3970 C   0  0  0  0  0  3  0  0  0  0  0  0
  -16.6250  -28.2890   22.7830 C   0  0  0  0  0  3  0  0  0  0  0  0
  -25.8600  -32.4670   23.8160 C   0  0  0  0  0  3  0  0  0  0  0  0
  -25.6300  -33.8550   24.2360 N   0  0  0  0  0  0  0  0  0  0  0  0
  -25.9680  -34.9340   23.5140 C   0  0  0  0  0  0  0  0  0  0  0  0
  -26.5840  -34.8570   22.4460 O   0  0  0  0  0  0  0  0  0  0  0  0
  -25.0870  -33.9920   25.0750 H   0  0  0  0  0  0  0  0  0  0  0  0
  -24.2950  -36.8000   23.3440 C   0  0  0  0  0  1  0  0  0  0  0  0
  -25.5620  -36.3120   24.0660 C   0  0  0  0  0  3  0  0  0  0  0  0
  -27.7660  -37.0790   24.8230 C   0  0  0  0  0  1  0  0  0  0  0  0
  -26.6250  -37.3320   23.9460 N   0  0  0  0  0  0  0  0  0  0  0  0
  -26.2640  -38.2570   24.1570 H   0  0  0  0  0  0  0  0  0  0  0  0
  -26.4160  -31.6070   25.0170 C   0  0  1  0  0  0  0  0  0  0  0  0
  -25.3700  -31.3210   26.1190 C   0  0  0  0  0  1  0  0  0  0  0  0
  -26.9500  -30.2480   24.5080 C   0  0  0  0  0  1  0  0  0  0  0  0
  -27.6160  -32.3340   25.6720 C   0  0  0  0  0  1  0  0  0  0  0  0
  2  4  1  0
  4  1  1  0
  4  3  2  0
  5  2  2  0
  5  7  1  0
  6  3  1  0
  6  8  1  0
  7  6  2  0
  9  7  1  0
 10 19  1  0
 10  5  1  0
 11 17  1  0
 11 19  1  0
 12 17  1  0
 13 14  1  0
 13 12  1  0
 15 14  1  0
 15 24  1  0
 15 16  1  0
 17 16  1  0
 18 11  2  0
 19 20  1  0
 21 22  2  0
 22 41  1  0
 23 22  1  0
 23 26  1  0
 24 25  1  0
 24 21  1  0
 25 23  2  0
 26 27  1  0
 27 28  2  0
 29 32  1  0
 29 28  1  0
 30 29  2  0
 31 30  1  0
 31 26  2  0
 32 33  1  0
 33 38  2  0
 33 34  1  0
 34 35  2  0
 35 36  1  0
 36 40  1  0
 37 36  2  0
 38 37  1  0
 39 38  1  0
 41 42  1  0
 42 44  1  0
 42 45  1  0
 43 41  2  0
 46 21  1  0
 46 47  1  0
 48 46  1  0
 49 51  1  0
 49  1  1  0
 50 49  1  0
 52 53  1  0
 52 49  1  0
 54 55  1  0
 54 53  1  0
 55 57  1  0
 56 67  2  0
 57 62  1  0
 58 66  1  0
 58 68  1  0
 59 65  1  0
 59 61  1  0
 60 66  1  0
 61 60  1  0
 62 61  2  0
 63 64  1  0
 63 57  2  0
 64 59  2  0
 65 58  1  0
 66 56  1  0
 68 70  2  0
 69 68  1  0
 71 69  1  0
 72 81  2  0
 72 77  1  0
 73 69  1  0
 73 77  1  0
 74 73  1  0
 75 76  1  0
 75 74  1  0
 76 72  1  0
 77 78  2  0
 78 79  1  0
 80 79  2  0
 81 80  1  0
 82 56  1  0
 82 83  1  0
 82 92  1  0
 83 86  1  0
 84 88  1  0
 84 83  1  0
 85 84  2  0
 88 87  1  0
 90 88  1  0
 90 91  1  0
 90 89  1  0
 92 95  1  1
 92 93  1  0
 94 92  1  0
M  ISO  4  11 100  19 100  54 101  55 101
M  END
>  <TORSDO>  (62) 
F 22

>  <SCORE>  (62) 
-10.623

>  <name>  (62) 
61

>  <ligand_id>  (62) 
61

>  <original_smiles>  (62) 
[H]c1c([H])c([H])c2c(c1[H])C([H])([H])C([H])([H])C([H])([H])C2([H])N([H])C(=O)C1([H])N(C(=O)C([H])(N([H])C(=O)C([H])(N([H])C([H])([H])[H])C([H])([H])[H])C(C([H])([H])[H])(C([H])([H])[H])C([H])([H])[H])C([H])([H])c2c([H])c(OC([H])([H])C([H])([H])C([H])([H])[N+]([H])([H])C([H])([H])c3c([H])c(Cl)c(Cl)c(C([H])([H])N([H])C(=O)N4C([H])([H])C([H])([H])C([H])([H])C([H])(n5nc(-c6c([H])c([H])c(Oc7c([H])c([H])c(F)c([H])c7F)c([H])c6[H])c(C(=O)N([H])[H])c5N([H])[H])C4([H])[H])c3[H])c([H])c([H])c2C1([H])[H]

>  <smiles>  (62) 
[H]c1c([H])c([H])c2c(c1[H])C([H])([H])C([H])([H])C([H])([H])C2([H])N([H])C(=O)C1([H])N(C(=O)C([H])(N([H])C(=O)C([H])(N([H])C([H])([H])[H])C([H])([H])[H])C(C([H])([H])[H])(C([H])([H])[H])C([H])([H])[H])C([H])([H])c2c([H])c(OC([H])([H])C([H])([H])C([H])([H])[N+]([H])([H])C([H])([H])c3c([H])c(Cl)c(Cl)c(C([H])([H])N([H])C(=O)N4C([H])([H])C([H])([H])C([H])([H])C([H])(n5nc(-c6c([H])c([H])c(Oc7c([H])c([H])c(F)c([H])c7F)c([H])c6[H])c(C(=O)N([H])[H])c5N([H])[H])C4([H])[H])c3[H])c([H])c([H])c2C1([H])[H]

$$$$
62:0:0
     RDKit          3D

 96104  0  0  1  0  0  0  0  0999 V2000
  -28.7410  -17.2220   20.3810 C   0  0  0  0  0  3  0  0  0  0  0  0
  -27.7210  -17.9820   19.7770 C   0  0  0  0  0  0  0  0  0  0  0  0
  -30.0860  -17.6420   20.3280 C   0  0  0  0  0  0  0  0  0  0  0  0
  -29.3930  -19.6010   18.9990 C   0  0  0  0  0  0  0  0  0  0  0  0
  -28.0360  -19.1820   19.0970 C   0  0  0  0  0  0  0  0  0  0  0  0
  -30.4040  -18.8350   19.6310 C   0  0  0  0  0  0  0  0  0  0  0  0
  -26.2810  -17.5060   19.8890 C   0  0  0  0  0  1  0  0  0  0  0  0
  -26.7370  -20.1320   18.4500 Cl  0  0  0  0  0  0  0  0  0  0  0  0
  -32.0460  -19.3920   19.5650 Cl  0  0  0  0  0  0  0  0  0  0  0  0
  -29.8010  -20.7780   18.3350 N   0  0  0  0  0  0  0  0  0  0  0  0
  -30.8060  -20.9110   18.3830 H   0  0  0  0  0  0  0  0  0  0  0  0
  -29.4380  -20.1860   15.9210 C   0  0  0  0  0  1  0  0  0  0  0  0
  -29.2140  -21.1970   17.0620 C   0  0  0  0  0  3  0  0  0  0  0  0
  -29.7930  -22.5650   16.6540 C   0  0  0  0  0  2  0  0  0  0  0  0
  -29.7630  -23.6120   17.7780 C   0  0  0  0  0  2  0  0  0  0  0  0
  -30.2140  -25.0000   17.2930 C   0  0  0  0  0  2  0  0  0  0  0  0
  -30.0430  -25.9830   18.3120 O   0  0  0  0  0  0  0  0  0  0  0  0
  -25.3970  -28.6500   22.9700 C   0  0  0  0  0  0  0  0  0  0  0  0
  -28.8040  -26.5740   18.4730 C   0  0  0  0  0  0  0  0  0  0  0  0
  -24.5650  -28.4190   20.6530 C   0  0  0  0  0  3  0  0  0  0  0  0
  -26.3250  -27.8720   18.8980 C   0  0  0  0  0  0  0  0  0  0  0  0
  -27.0560  -28.7500   21.1190 C   0  0  0  0  0  2  0  0  0  0  0  0
  -27.3340  -27.9540   19.8620 C   0  0  0  0  0  0  0  0  0  0  0  0
  -28.5730  -27.3110   19.6530 C   0  0  0  0  0  3  0  0  0  0  0  0
  -27.7650  -26.4870   17.5140 C   0  0  0  0  0  3  0  0  0  0  0  0
  -26.5310  -27.1290   17.7220 C   0  0  0  0  0  3  0  0  0  0  0  0
  -25.0360  -28.6070   19.1880 C   0  0  0  0  0  2  0  0  0  0  0  0
  -25.6790  -28.5840   21.6400 N   0  0  0  0  0  0  0  0  0  0  0  0
  -24.2280  -28.6130   23.3770 O   0  0  0  0  0  0  0  0  0  0  0  0
  -23.8420  -27.0600   20.7660 C   0  0  0  0  0  0  0  0  0  0  0  0
  -22.6320  -26.9720   20.1890 N   0  0  0  0  0  0  0  0  0  0  0  0
  -24.3750  -26.1050   21.3380 O   0  0  0  0  0  0  0  0  0  0  0  0
  -22.2500  -27.7990   19.7500 H   0  0  0  0  0  0  0  0  0  0  0  0
  -19.5370  -25.6610   18.8760 C   0  0  0  0  0  0  0  0  0  0  0  0
  -21.7870  -25.7800   20.1420 C   0  0  0  0  0  3  0  0  0  0  0  0
  -22.3090  -24.7610   19.1010 C   0  0  0  0  0  2  0  0  0  0  0  0
  -21.6660  -24.9220   17.7190 C   0  0  0  0  0  2  0  0  0  0  0  0
  -20.1460  -24.7590   17.8160 C   0  0  0  0  0  2  0  0  0  0  0  0
  -20.3110  -26.1520   19.9610 C   0  0  0  0  0  0  0  0  0  0  0  0
  -19.7060  -27.0170   20.9000 C   0  0  0  0  0  3  0  0  0  0  0  0
  -18.3540  -27.3840   20.7680 C   0  0  0  0  0  3  0  0  0  0  0  0
  -17.5850  -26.8770   19.7050 C   0  0  0  0  0  3  0  0  0  0  0  0
  -18.1760  -26.0150   18.7650 C   0  0  0  0  0  3  0  0  0  0  0  0
  -26.5230  -28.7950   24.0410 C   0  0  0  0  0  3  0  0  0  0  0  0
  -26.1150  -29.8600   24.9670 N   0  0  0  0  0  0  0  0  0  0  0  0
  -26.6720  -31.0760   25.0170 C   0  0  0  0  0  0  0  0  0  0  0  0
  -27.6430  -31.4000   24.3260 O   0  0  0  0  0  0  0  0  0  0  0  0
  -25.2900  -29.6850   25.5230 H   0  0  0  0  0  0  0  0  0  0  0  0
  -25.2010  -33.1090   25.2000 C   0  0  0  0  0  1  0  0  0  0  0  0
  -26.0530  -32.1010   25.9880 C   0  0  0  0  0  3  0  0  0  0  0  0
  -27.7280  -31.9720   27.7790 C   0  0  0  0  0  1  0  0  0  0  0  0
  -27.0580  -32.8250   26.8000 N   0  0  0  0  0  0  0  0  0  0  0  0
  -26.6280  -33.5980   27.2980 H   0  0  0  0  0  0  0  0  0  0  0  0
  -26.8160  -27.4560   24.8200 C   0  0  1  0  0  0  0  0  0  0  0  0
  -25.5520  -26.7920   25.4160 C   0  0  0  0  0  1  0  0  0  0  0  0
  -27.4970  -26.4220   23.8930 C   0  0  0  0  0  1  0  0  0  0  0  0
  -27.8040  -27.7260   25.9790 C   0  0  0  0  0  1  0  0  0  0  0  0
  -31.1750  -16.8490   21.0640 C   0  0  0  0  0  2  0  0  0  0  0  0
  -31.5330  -14.3930   21.1920 C   0  0  0  0  0  0  0  0  0  0  0  0
  -31.2570  -12.0790   20.3970 C   0  0  0  0  0  2  0  0  0  0  0  0
  -30.4260  -12.0950   19.0960 C   0  0  0  0  0  2  0  0  0  0  0  0
  -28.9200  -12.0860   19.4120 C   0  0  0  0  0  2  0  0  0  0  0  0
  -28.5180  -13.1500   20.4690 C   0  0  0  0  0  3  0  0  0  0  0  0
  -29.4510  -13.0790   21.6980 C   0  0  0  0  0  2  0  0  0  0  0  0
  -30.8370  -13.2260   21.2160 N   0  0  0  0  0  0  0  0  0  0  0  0
  -32.7050  -14.4840   20.8080 O   0  0  0  0  0  0  0  0  0  0  0  0
  -30.7940  -15.4840   21.4320 N   0  0  0  0  0  0  0  0  0  0  0  0
  -29.8320  -15.3290   21.6920 H   0  0  0  0  0  0  0  0  0  0  0  0
  -26.1530  -14.0020   21.0220 C   0  0  0  0  0  0  0  0  0  0  0  0
  -24.9890  -13.3420   21.3110 C   0  0  0  0  0  0  0  0  0  0  0  0
  -25.3090  -11.9510   21.2880 C   0  0  0  0  0  0  0  0  0  0  0  0
  -27.1140  -13.0190   20.8510 N   0  0  0  0  0  0  0  0  0  0  0  0
  -26.6040  -11.7790   21.0640 N   0  0  0  0  0  0  0  0  0  0  0  0
  -24.4490  -10.7670   21.4070 C   0  0  0  0  0  0  0  0  0  0  0  0
  -24.8110   -9.6680   22.2160 C   0  0  0  0  0  3  0  0  0  0  0  0
  -23.9600   -8.5490   22.3280 C   0  0  0  0  0  3  0  0  0  0  0  0
  -22.7300   -8.5200   21.6300 C   0  0  0  0  0  0  0  0  0  0  0  0
  -22.3850   -9.6050   20.8050 C   0  0  0  0  0  3  0  0  0  0  0  0
  -23.2360  -10.7170   20.6920 C   0  0  0  0  0  3  0  0  0  0  0  0
  -21.8490   -7.4650   21.6560 O   0  0  0  0  0  0  0  0  0  0  0  0
  -21.8830   -6.5270   22.6550 C   0  0  0  0  0  0  0  0  0  0  0  0
  -21.7760   -6.8850   24.0170 C   0  0  0  0  0  3  0  0  0  0  0  0
  -21.7460   -5.8830   25.0080 C   0  0  0  0  0  3  0  0  0  0  0  0
  -21.8110   -4.5250   24.6400 C   0  0  0  0  0  0  0  0  0  0  0  0
  -21.9130   -4.1680   23.2830 C   0  0  0  0  0  3  0  0  0  0  0  0
  -21.9440   -5.1670   22.2950 C   0  0  0  0  0  0  0  0  0  0  0  0
  -22.0210   -4.8160   20.9870 F   0  0  0  0  0  0  0  0  0  0  0  0
  -21.7740   -3.5620   25.5890 F   0  0  0  0  0  0  0  0  0  0  0  0
  -23.6330  -13.9570   21.5000 C   0  0  0  0  0  0  0  0  0  0  0  0
  -22.7990  -13.3510   22.3380 N   0  0  0  0  0  0  0  0  0  0  0  0
  -23.3230  -15.0070   20.9390 O   0  0  0  0  0  0  0  0  0  0  0  0
  -23.0640  -12.5000   22.8090 H   0  0  0  0  0  0  0  0  0  0  0  0
  -21.8860  -13.7450   22.5140 H   0  0  0  0  0  0  0  0  0  0  0  0
  -26.4750  -15.3470   20.8670 N   0  0  0  0  0  0  0  0  0  0  0  0
  -25.7650  -16.0700   20.8780 H   0  0  0  0  0  0  0  0  0  0  0  0
  -27.3700  -15.6800   20.5320 H   0  0  0  0  0  0  0  0  0  0  0  0
  2  7  1  0
  2  1  2  0
  3  1  1  0
  3 58  1  0
  4  5  2  0
  4  6  1  0
  5  2  1  0
  6  3  2  0
  8  5  1  0
  9  6  1  0
 10 11  1  0
 10  4  1  0
 13 12  1  0
 13 10  1  0
 14 13  1  0
 14 15  1  0
 16 15  1  0
 16 17  1  0
 17 19  1  0
 18 29  2  0
 19 24  1  0
 20 30  1  0
 20 28  1  0
 21 27  1  0
 21 23  1  0
 22 28  1  0
 23 22  1  0
 24 23  2  0
 25 26  1  0
 25 19  2  0
 26 21  2  0
 27 20  1  0
 28 18  1  0
 30 32  2  0
 31 30  1  0
 33 31  1  0
 34 39  1  0
 35 31  1  0
 36 35  1  0
 37 38  1  0
 37 36  1  0
 38 34  1  0
 39 35  1  0
 39 40  2  0
 41 40  1  0
 42 41  2  0
 43 34  2  0
 43 42  1  0
 44 18  1  0
 44 54  1  0
 44 45  1  0
 45 46  1  0
 45 48  1  0
 46 50  1  0
 47 46  2  0
 50 49  1  0
 50 52  1  0
 52 53  1  0
 52 51  1  0
 54 55  1  1
 54 57  1  0
 56 54  1  0
 58 67  1  0
 59 65  1  0
 59 67  1  0
 60 65  1  0
 61 62  1  0
 61 60  1  0
 63 62  1  0
 63 72  1  0
 63 64  1  0
 65 64  1  0
 66 59  2  0
 67 68  1  0
 69 70  2  0
 70 89  1  0
 71 70  1  0
 71 74  1  0
 72 69  1  0
 72 73  1  0
 73 71  2  0
 74 75  1  0
 75 76  2  0
 77 80  1  0
 77 76  1  0
 78 77  2  0
 79 78  1  0
 79 74  2  0
 80 81  1  0
 81 82  1  0
 82 83  2  0
 84 83  1  0
 84 88  1  0
 85 84  2  0
 86 81  2  0
 86 85  1  0
 87 86  1  0
 89 90  1  0
 90 93  1  0
 90 92  1  0
 91 89  2  0
 94 95  1  0
 94 69  1  0
 96 94  1  0
M  ISO  4  16 101  17 101  59 100  67 100
M  END
>  <TORSDO>  (63) 
F 22

>  <SCORE>  (63) 
-8.584

>  <name>  (63) 
62

>  <ligand_id>  (63) 
62

>  <original_smiles>  (63) 
[H]c1c([H])c([H])c2c(c1[H])C([H])([H])C([H])([H])C([H])([H])C2([H])N([H])C(=O)C1([H])N(C(=O)C([H])(N([H])C(=O)C([H])(N([H])C([H])([H])[H])C([H])([H])[H])C(C([H])([H])[H])(C([H])([H])[H])C([H])([H])[H])C([H])([H])c2c([H])c(OC([H])([H])C([H])([H])C([H])([H])C([H])(N([H])c3c(Cl)c(C([H])([H])[H])c([H])c(C([H])([H])N([H])C(=O)N4C([H])([H])C([H])([H])C([H])([H])C([H])(n5nc(-c6c([H])c([H])c(Oc7c([H])c([H])c(F)c([H])c7F)c([H])c6[H])c(C(=O)N([H])[H])c5N([H])[H])C4([H])[H])c3Cl)C([H])([H])[H])c([H])c([H])c2C1([H])[H]

>  <smiles>  (63) 
[H]c1c([H])c([H])c2c(c1[H])C([H])([H])C([H])([H])C([H])([H])C2([H])N([H])C(=O)C1([H])N(C(=O)C([H])(N([H])C(=O)C([H])(N([H])C([H])([H])[H])C([H])([H])[H])C(C([H])([H])[H])(C([H])([H])[H])C([H])([H])[H])C([H])([H])c2c([H])c(OC([H])([H])C([H])([H])C([H])([H])C([H])(N([H])c3c(Cl)c(C([H])([H])[H])c([H])c(C([H])([H])N([H])C(=O)N4C([H])([H])C([H])([H])C([H])([H])C([H])(n5nc(-c6c([H])c([H])c(Oc7c([H])c([H])c(F)c([H])c7F)c([H])c6[H])c(C(=O)N([H])[H])c5N([H])[H])C4([H])[H])c3Cl)C([H])([H])[H])c([H])c([H])c2C1([H])[H]

$$$$
63:0:0
     RDKit          3D

 98106  0  0  1  0  0  0  0  0999 V2000
  -29.5750  -21.0280   20.6160 C   0  0  0  0  0  0  0  0  0  0  0  0
  -30.1070  -20.0710   21.4950 C   0  0  0  0  0  0  0  0  0  0  0  0
  -30.1540  -22.3120   20.6860 C   0  0  0  0  0  0  0  0  0  0  0  0
  -31.5000  -21.6270   22.4100 C   0  0  0  0  0  0  0  0  0  0  0  0
  -32.5770  -21.9640   23.4230 C   0  0  0  0  0  1  0  0  0  0  0  0
  -31.0650  -20.3760   22.3900 N   0  0  0  0  0  0  0  0  0  0  0  0
  -31.1000  -22.6030   21.6020 N   0  0  0  0  0  0  0  0  0  0  0  0
  -29.7970  -23.3540   19.8050 N   0  0  0  0  0  0  0  0  0  0  0  0
  -28.2490  -20.6350   19.5630 Cl  0  0  0  0  0  0  0  0  0  0  0  0
  -29.6660  -18.7450   21.4310 N   0  0  0  0  0  0  0  0  0  0  0  0
  -28.8570  -18.5630   20.8460 H   0  0  0  0  0  0  0  0  0  0  0  0
  -30.0890  -17.7360   22.3980 C   0  0  0  0  0  2  0  0  0  0  0  0
  -29.9560  -16.3210   21.8280 C   0  0  0  0  0  2  0  0  0  0  0  0
  -31.1890  -15.8380   21.0330 C   0  0  0  0  0  2  0  0  0  0  0  0
  -31.3110  -13.7120   19.7090 C   0  0  0  0  0  0  0  0  0  0  0  0
  -30.7350  -11.6100   18.5460 C   0  0  0  0  0  2  0  0  0  0  0  0
  -29.7000  -11.8260   17.4260 C   0  0  0  0  0  2  0  0  0  0  0  0
  -28.2610  -11.8190   17.9790 C   0  0  0  0  0  2  0  0  0  0  0  0
  -28.0950  -12.7560   19.2000 C   0  0  0  0  0  3  0  0  0  0  0  0
  -29.2000  -12.4600   20.2390 C   0  0  0  0  0  2  0  0  0  0  0  0
  -30.5220  -12.6160   19.5910 N   0  0  0  0  0  0  0  0  0  0  0  0
  -32.2160  -14.0140   18.9200 O   0  0  0  0  0  0  0  0  0  0  0  0
  -31.0410  -14.4080   20.8150 N   0  0  0  0  0  0  0  0  0  0  0  0
  -30.4050  -13.9360   21.4430 H   0  0  0  0  0  0  0  0  0  0  0  0
  -25.8290  -13.6240   20.0810 C   0  0  0  0  0  0  0  0  0  0  0  0
  -24.7220  -12.9700   20.5490 C   0  0  0  0  0  0  0  0  0  0  0  0
  -25.0390  -11.5770   20.5050 C   0  0  0  0  0  0  0  0  0  0  0  0
  -26.7590  -12.6380   19.7860 N   0  0  0  0  0  0  0  0  0  0  0  0
  -26.2880  -11.4020   20.0940 N   0  0  0  0  0  0  0  0  0  0  0  0
  -24.2090  -10.3980   20.7740 C   0  0  0  0  0  0  0  0  0  0  0  0
  -24.5890   -9.4300   21.7300 C   0  0  0  0  0  3  0  0  0  0  0  0
  -23.7640   -8.3130   21.9820 C   0  0  0  0  0  3  0  0  0  0  0  0
  -22.5450   -8.1560   21.2810 C   0  0  0  0  0  0  0  0  0  0  0  0
  -22.1840   -9.1120   20.3130 C   0  0  0  0  0  3  0  0  0  0  0  0
  -23.0080  -10.2200   20.0580 C   0  0  0  0  0  3  0  0  0  0  0  0
  -21.6930   -7.0900   21.4440 O   0  0  0  0  0  0  0  0  0  0  0  0
  -21.5910   -6.4270   22.6410 C   0  0  0  0  0  0  0  0  0  0  0  0
  -21.2450   -7.0920   23.8380 C   0  0  0  0  0  3  0  0  0  0  0  0
  -21.0880   -6.3580   25.0330 C   0  0  0  0  0  3  0  0  0  0  0  0
  -21.2630   -4.9610   25.0280 C   0  0  0  0  0  0  0  0  0  0  0  0
  -21.6030   -4.2960   23.8360 C   0  0  0  0  0  3  0  0  0  0  0  0
  -21.7630   -5.0270   22.6460 C   0  0  0  0  0  0  0  0  0  0  0  0
  -22.0690   -4.3800   21.4960 F   0  0  0  0  0  0  0  0  0  0  0  0
  -21.1040   -4.2530   26.1710 F   0  0  0  0  0  0  0  0  0  0  0  0
  -23.4070  -13.5900   20.9280 C   0  0  0  0  0  0  0  0  0  0  0  0
  -22.7040  -12.9960   21.8860 N   0  0  0  0  0  0  0  0  0  0  0  0
  -23.0210  -14.6360   20.4080 O   0  0  0  0  0  0  0  0  0  0  0  0
  -23.0320  -12.1490   22.3290 H   0  0  0  0  0  0  0  0  0  0  0  0
  -21.8250  -13.3930   22.1840 H   0  0  0  0  0  0  0  0  0  0  0  0
  -26.1210  -14.9690   19.8670 N   0  0  0  0  0  0  0  0  0  0  0  0
  -25.4400  -15.7020   20.0260 H   0  0  0  0  0  0  0  0  0  0  0  0
  -26.9900  -15.3130   19.4790 H   0  0  0  0  0  0  0  0  0  0  0  0
  -29.9180  -23.1340   18.3580 C   0  0  0  0  0  2  0  0  0  0  0  0
  -32.4460  -22.7460   18.0310 C   0  0  0  0  0  1  0  0  0  0  0  0
  -31.2360  -23.6540   17.7570 C   0  0  0  0  0  2  0  0  0  0  0  0
  -29.6360  -24.7000   20.3580 C   0  0  0  0  0  2  0  0  0  0  0  0
  -28.2960  -25.3310   19.9530 C   0  0  0  0  0  2  0  0  0  0  0  0
  -28.3290  -26.7190   20.2720 O   0  0  0  0  0  0  0  0  0  0  0  0
  -24.5970  -31.9130   23.3280 C   0  0  0  0  0  0  0  0  0  0  0  0
  -27.1450  -27.4220   20.2550 C   0  0  0  0  0  0  0  0  0  0  0  0
  -23.3510  -30.5260   21.6980 C   0  0  0  0  0  3  0  0  0  0  0  0
  -24.7660  -28.9520   20.2820 C   0  0  0  0  0  0  0  0  0  0  0  0
  -25.8790  -30.8420   21.4830 C   0  0  0  0  0  2  0  0  0  0  0  0
  -25.9360  -29.4670   20.8540 C   0  0  0  0  0  0  0  0  0  0  0  0
  -27.1250  -28.7070   20.8390 C   0  0  0  0  0  3  0  0  0  0  0  0
  -25.9560  -26.9190   19.6750 C   0  0  0  0  0  3  0  0  0  0  0  0
  -24.7690  -27.6750   19.6950 C   0  0  0  0  0  3  0  0  0  0  0  0
  -23.5380  -29.8320   20.3230 C   0  0  0  0  0  2  0  0  0  0  0  0
  -24.6270  -31.1100   22.2270 N   0  0  0  0  0  0  0  0  0  0  0  0
  -23.5270  -32.2050   23.8780 O   0  0  0  0  0  0  0  0  0  0  0  0
  -22.6910  -29.5220   22.6710 C   0  0  0  0  0  0  0  0  0  0  0  0
  -21.3720  -29.3180   22.5170 N   0  0  0  0  0  0  0  0  0  0  0  0
  -23.3630  -28.9250   23.5160 O   0  0  0  0  0  0  0  0  0  0  0  0
  -20.8880  -29.8580   21.8120 H   0  0  0  0  0  0  0  0  0  0  0  0
  -18.0170  -28.0480   22.9220 C   0  0  0  0  0  0  0  0  0  0  0  0
  -20.5500  -28.3910   23.2960 C   0  0  0  0  0  3  0  0  0  0  0  0
  -20.7150  -26.9370   22.7910 C   0  0  0  0  0  2  0  0  0  0  0  0
  -19.6690  -26.5380   21.7450 C   0  0  0  0  0  2  0  0  0  0  0  0
  -18.2570  -26.6740   22.3200 C   0  0  0  0  0  2  0  0  0  0  0  0
  -19.0930  -28.8590   23.3670 C   0  0  0  0  0  0  0  0  0  0  0  0
  -18.8170  -30.1410   23.8880 C   0  0  0  0  0  3  0  0  0  0  0  0
  -17.4930  -30.6130   23.9710 C   0  0  0  0  0  3  0  0  0  0  0  0
  -16.4280  -29.8010   23.5430 C   0  0  0  0  0  3  0  0  0  0  0  0
  -16.6920  -28.5190   23.0240 C   0  0  0  0  0  3  0  0  0  0  0  0
  -25.9000  -32.5230   23.9330 C   0  0  0  0  0  3  0  0  0  0  0  0
  -25.6250  -33.9290   24.2490 N   0  0  0  0  0  0  0  0  0  0  0  0
  -25.9880  -34.9670   23.4830 C   0  0  0  0  0  0  0  0  0  0  0  0
  -26.6640  -34.8400   22.4570 O   0  0  0  0  0  0  0  0  0  0  0  0
  -25.0260  -34.1010   25.0420 H   0  0  0  0  0  0  0  0  0  0  0  0
  -24.3060  -36.7960   23.0980 C   0  0  0  0  0  1  0  0  0  0  0  0
  -25.5300  -36.3690   23.9230 C   0  0  0  0  0  3  0  0  0  0  0  0
  -27.6810  -37.2120   24.7570 C   0  0  0  0  0  1  0  0  0  0  0  0
  -26.5890  -37.3970   23.8050 N   0  0  0  0  0  0  0  0  0  0  0  0
  -26.2030  -38.3280   23.9410 H   0  0  0  0  0  0  0  0  0  0  0  0
  -26.4150  -31.7520   25.2110 C   0  0  1  0  0  0  0  0  0  0  0  0
  -25.3230  -31.5190   26.2820 C   0  0  0  0  0  1  0  0  0  0  0  0
  -26.9930  -30.3720   24.8210 C   0  0  0  0  0  1  0  0  0  0  0  0
  -27.5680  -32.5440   25.8740 C   0  0  0  0  0  1  0  0  0  0  0  0
  1  3  1  0
  1  2  2  0
  2  6  1  0
  3  7  2  0
  4  5  1  0
  6  4  2  0
  7  4  1  0
  8 56  1  0
  8  3  1  0
  9  1  1  0
 10  2  1  0
 10 12  1  0
 11 10  1  0
 13 12  1  0
 14 13  1  0
 15 23  1  0
 16 21  1  0
 17 18  1  0
 17 16  1  0
 19 18  1  0
 19 28  1  0
 19 20  1  0
 21 15  1  0
 21 20  1  0
 22 15  2  0
 23 14  1  0
 23 24  1  0
 25 26  2  0
 26 45  1  0
 27 26  1  0
 27 30  1  0
 28 25  1  0
 28 29  1  0
 29 27  2  0
 30 31  1  0
 31 32  2  0
 33 36  1  0
 33 32  1  0
 34 33  2  0
 35 34  1  0
 35 30  2  0
 36 37  1  0
 37 42  2  0
 37 38  1  0
 38 39  2  0
 40 39  1  0
 40 44  1  0
 41 40  2  0
 42 41  1  0
 43 42  1  0
 45 46  1  0
 46 49  1  0
 46 48  1  0
 47 45  2  0
 50 51  1  0
 50 25  1  0
 52 50  1  0
 53  8  1  0
 55 54  1  0
 55 53  1  0
 57 58  1  0
 57 56  1  0
 59 70  2  0
 60 58  1  0
 60 65  1  0
 61 69  1  0
 61 71  1  0
 62 68  1  0
 62 64  1  0
 63 69  1  0
 64 63  1  0
 65 64  2  0
 66 67  1  0
 66 60  2  0
 67 62  2  0
 68 61  1  0
 69 59  1  0
 71 73  2  0
 72 71  1  0
 74 72  1  0
 75 84  2  0
 75 80  1  0
 76 72  1  0
 76 80  1  0
 77 76  1  0
 78 79  1  0
 78 77  1  0
 79 75  1  0
 80 81  2  0
 81 82  1  0
 83 82  2  0
 84 83  1  0
 85 59  1  0
 85 86  1  0
 85 95  1  0
 86 89  1  0
 87 91  1  0
 87 86  1  0
 88 87  2  0
 91 90  1  0
 93 91  1  0
 93 94  1  0
 93 92  1  0
 95 98  1  1
 95 96  1  0
 97 95  1  0
M  ISO  4  15 100  23 100  57 101  58 101
M  END
>  <TORSDO>  (64) 
F 24

>  <SCORE>  (64) 
-10.311

>  <name>  (64) 
63

>  <ligand_id>  (64) 
63

>  <original_smiles>  (64) 
[H]c1c([H])c([H])c2c(c1[H])C([H])([H])C([H])([H])C([H])([H])C2([H])N([H])C(=O)C1([H])N(C(=O)C([H])(N([H])C(=O)C([H])(N([H])C([H])([H])[H])C([H])([H])[H])C(C([H])([H])[H])(C([H])([H])[H])C([H])([H])[H])C([H])([H])c2c([H])c(OC([H])([H])C([H])([H])N(c3nc(C([H])([H])[H])nc(N([H])C([H])([H])C([H])([H])C([H])([H])N([H])C(=O)N4C([H])([H])C([H])([H])C([H])([H])C([H])(n5nc(-c6c([H])c([H])c(Oc7c([H])c([H])c(F)c([H])c7F)c([H])c6[H])c(C(=O)N([H])[H])c5N([H])[H])C4([H])[H])c3Cl)C([H])([H])C([H])([H])C([H])([H])[H])c([H])c([H])c2C1([H])[H]

>  <smiles>  (64) 
[H]c1c([H])c([H])c2c(c1[H])C([H])([H])C([H])([H])C([H])([H])C2([H])N([H])C(=O)C1([H])N(C(=O)C([H])(N([H])C(=O)C([H])(N([H])C([H])([H])[H])C([H])([H])[H])C(C([H])([H])[H])(C([H])([H])[H])C([H])([H])[H])C([H])([H])c2c([H])c(OC([H])([H])C([H])([H])N(c3nc(C([H])([H])[H])nc(N([H])C([H])([H])C([H])([H])C([H])([H])N([H])C(=O)N4C([H])([H])C([H])([H])C([H])([H])C([H])(n5nc(-c6c([H])c([H])c(Oc7c([H])c([H])c(F)c([H])c7F)c([H])c6[H])c(C(=O)N([H])[H])c5N([H])[H])C4([H])[H])c3Cl)C([H])([H])C([H])([H])C([H])([H])[H])c([H])c([H])c2C1([H])[H]

$$$$
64:0:0
     RDKit          3D

103111  0  0  1  0  0  0  0  0999 V2000
  -31.3490  -23.0850   19.5520 C   0  0  0  0  0  2  0  0  0  0  0  0
  -31.4110  -21.6470   19.8990 N   0  0  0  0  0  4  0  0  0  0  0  0
  -32.3780  -21.4130   20.0740 H   0  0  0  0  0  0  0  0  0  0  0  0
  -30.8940  -21.4340   20.7340 H   0  0  0  0  0  0  0  0  0  0  0  0
  -30.9390  -20.7560   18.8180 C   0  0  0  0  0  2  0  0  0  0  0  0
  -31.9760  -17.2270   19.8150 C   0  0  0  0  0  3  0  0  0  0  0  0
  -29.5970  -18.7460   19.7430 C   0  0  0  0  0  0  0  0  0  0  0  0
  -30.8310  -19.3210   19.3220 C   0  0  0  0  0  0  0  0  0  0  0  0
  -30.7600  -16.6270   20.2180 C   0  0  0  0  0  0  0  0  0  0  0  0
  -32.0140  -18.5530   19.3710 C   0  0  0  0  0  0  0  0  0  0  0  0
  -29.5740  -17.3950   20.1830 C   0  0  0  0  0  0  0  0  0  0  0  0
  -28.3080  -19.5680   19.6990 C   0  0  0  0  0  1  0  0  0  0  0  0
  -33.5440  -19.2170   18.9130 Cl  0  0  0  0  0  0  0  0  0  0  0  0
  -28.0910  -16.6360   20.6700 Cl  0  0  0  0  0  0  0  0  0  0  0  0
  -31.2740  -14.2000   20.0860 C   0  0  0  0  0  0  0  0  0  0  0  0
  -30.8430  -12.0020   19.0940 C   0  0  0  0  0  2  0  0  0  0  0  0
  -29.9040  -12.1890   17.8870 C   0  0  0  0  0  2  0  0  0  0  0  0
  -28.4300  -12.1570   18.3360 C   0  0  0  0  0  2  0  0  0  0  0  0
  -28.1500  -13.0940   19.5420 C   0  0  0  0  0  3  0  0  0  0  0  0
  -29.2000  -12.8860   20.6560 C   0  0  0  0  0  2  0  0  0  0  0  0
  -30.5380  -13.0630   20.0630 N   0  0  0  0  0  0  0  0  0  0  0  0
  -32.3960  -14.2750   19.5790 O   0  0  0  0  0  0  0  0  0  0  0  0
  -30.6550  -15.2620   20.6170 N   0  0  0  0  0  0  0  0  0  0  0  0
  -29.8240  -15.0490   21.1510 H   0  0  0  0  0  0  0  0  0  0  0  0
  -25.8030  -13.8650   20.2700 C   0  0  0  0  0  0  0  0  0  0  0  0
  -24.6970  -13.1680   20.6770 C   0  0  0  0  0  0  0  0  0  0  0  0
  -25.0750  -11.7900   20.6720 C   0  0  0  0  0  0  0  0  0  0  0  0
  -26.7890  -12.9170   20.0470 N   0  0  0  0  0  0  0  0  0  0  0  0
  -26.3550  -11.6660   20.3420 N   0  0  0  0  0  0  0  0  0  0  0  0
  -24.2790  -10.5790   20.9070 C   0  0  0  0  0  0  0  0  0  0  0  0
  -24.6400   -9.6390   21.8970 C   0  0  0  0  0  3  0  0  0  0  0  0
  -23.8490   -8.4910   22.1160 C   0  0  0  0  0  3  0  0  0  0  0  0
  -22.6820   -8.2760   21.3440 C   0  0  0  0  0  0  0  0  0  0  0  0
  -22.3400   -9.2030   20.3440 C   0  0  0  0  0  3  0  0  0  0  0  0
  -23.1330  -10.3420   20.1240 C   0  0  0  0  0  3  0  0  0  0  0  0
  -21.8670   -7.1770   21.4690 O   0  0  0  0  0  0  0  0  0  0  0  0
  -21.7190   -6.5220   22.6660 C   0  0  0  0  0  0  0  0  0  0  0  0
  -21.2660   -7.1860   23.8270 C   0  0  0  0  0  3  0  0  0  0  0  0
  -21.0630   -6.4600   25.0180 C   0  0  0  0  0  3  0  0  0  0  0  0
  -21.3020   -5.0730   25.0480 C   0  0  0  0  0  0  0  0  0  0  0  0
  -21.7480   -4.4100   23.8910 C   0  0  0  0  0  3  0  0  0  0  0  0
  -21.9530   -5.1330   22.7030 C   0  0  0  0  0  0  0  0  0  0  0  0
  -22.3630   -4.4850   21.5850 F   0  0  0  0  0  0  0  0  0  0  0  0
  -21.0990   -4.3740   26.1890 F   0  0  0  0  0  0  0  0  0  0  0  0
  -23.3370  -13.7350   20.9640 C   0  0  0  0  0  0  0  0  0  0  0  0
  -22.6000  -13.1200   21.8840 N   0  0  0  0  0  0  0  0  0  0  0  0
  -22.9390  -14.7580   20.4090 O   0  0  0  0  0  0  0  0  0  0  0  0
  -22.9350  -12.2930   22.3540 H   0  0  0  0  0  0  0  0  0  0  0  0
  -21.6870  -13.4820   22.1200 H   0  0  0  0  0  0  0  0  0  0  0  0
  -26.0460  -15.2180   20.0530 N   0  0  0  0  0  0  0  0  0  0  0  0
  -25.3310  -15.9250   20.1790 H   0  0  0  0  0  0  0  0  0  0  0  0
  -26.9300  -15.5980   19.7400 H   0  0  0  0  0  0  0  0  0  0  0  0
  -31.8450  -25.4830   20.0610 C   0  0  0  0  0  1  0  0  0  0  0  0
  -33.2410  -23.7350   21.1080 C   0  0  0  0  0  1  0  0  0  0  0  0
  -31.7920  -24.0660   20.6780 C   0  0  2  0  0  0  0  0  0  0  0  0
  -30.8920  -24.0670   21.9680 C   0  0  0  0  0  2  0  0  0  0  0  0
  -29.4140  -24.1780   21.8030 N   0  0  0  0  0  4  0  0  0  0  0  0
  -29.0310  -23.9320   22.7050 H   0  0  0  0  0  0  0  0  0  0  0  0
  -29.0550  -23.4800   21.1740 H   0  0  0  0  0  0  0  0  0  0  0  0
  -28.1630  -26.1150   22.7110 C   0  0  0  0  0  1  0  0  0  0  0  0
  -28.8380  -25.5060   21.4680 C   0  0  0  0  0  3  0  0  0  0  0  0
  -27.8630  -25.3890   20.2680 C   0  0  0  0  0  2  0  0  0  0  0  0
  -27.8690  -26.5930   19.5090 O   0  0  0  0  0  0  0  0  0  0  0  0
  -24.3980  -31.6450   23.0420 C   0  0  0  0  0  0  0  0  0  0  0  0
  -26.7200  -27.3270   19.6100 C   0  0  0  0  0  0  0  0  0  0  0  0
  -23.0530  -30.3720   21.3980 C   0  0  0  0  0  3  0  0  0  0  0  0
  -24.3730  -28.8660   19.8230 C   0  0  0  0  0  0  0  0  0  0  0  0
  -25.5690  -30.6750   21.0720 C   0  0  0  0  0  2  0  0  0  0  0  0
  -25.5740  -29.3400   20.3640 C   0  0  0  0  0  0  0  0  0  0  0  0
  -26.7540  -28.5810   20.2480 C   0  0  0  0  0  3  0  0  0  0  0  0
  -25.5080  -26.8500   19.0660 C   0  0  0  0  0  3  0  0  0  0  0  0
  -24.3310  -27.6190   19.1700 C   0  0  0  0  0  3  0  0  0  0  0  0
  -23.1620  -29.7550   19.9770 C   0  0  0  0  0  2  0  0  0  0  0  0
  -24.3610  -30.9060   21.8960 N   0  0  0  0  0  0  0  0  0  0  0  0
  -23.3600  -31.9230   23.6570 O   0  0  0  0  0  0  0  0  0  0  0  0
  -22.4180  -29.3260   22.3410 C   0  0  0  0  0  0  0  0  0  0  0  0
  -21.0850  -29.1920   22.2700 N   0  0  0  0  0  0  0  0  0  0  0  0
  -23.1200  -28.6400   23.0890 O   0  0  0  0  0  0  0  0  0  0  0  0
  -20.5850  -29.7970   21.6350 H   0  0  0  0  0  0  0  0  0  0  0  0
  -17.6990  -28.0810   22.8580 C   0  0  0  0  0  0  0  0  0  0  0  0
  -20.2720  -28.2450   23.0310 C   0  0  0  0  0  3  0  0  0  0  0  0
  -20.3040  -26.8400   22.3850 C   0  0  0  0  0  2  0  0  0  0  0  0
  -19.1490  -26.6000   21.4080 C   0  0  0  0  0  2  0  0  0  0  0  0
  -17.8010  -26.7580   22.1170 C   0  0  0  0  0  2  0  0  0  0  0  0
  -18.8590  -28.7860   23.2730 C   0  0  0  0  0  0  0  0  0  0  0  0
  -18.7070  -30.0280   23.9270 C   0  0  0  0  0  3  0  0  0  0  0  0
  -17.4280  -30.5630   24.1700 C   0  0  0  0  0  3  0  0  0  0  0  0
  -16.2820  -29.8520   23.7720 C   0  0  0  0  0  3  0  0  0  0  0  0
  -16.4190  -28.6120   23.1220 C   0  0  0  0  0  3  0  0  0  0  0  0
  -25.7400  -32.1950   23.6210 C   0  0  0  0  0  3  0  0  0  0  0  0
  -25.5070  -33.5840   24.0360 N   0  0  0  0  0  0  0  0  0  0  0  0
  -25.8540  -34.6600   23.3170 C   0  0  0  0  0  0  0  0  0  0  0  0
  -26.4760  -34.5830   22.2540 O   0  0  0  0  0  0  0  0  0  0  0  0
  -24.9550  -33.7180   24.8710 H   0  0  0  0  0  0  0  0  0  0  0  0
  -24.1900  -36.5330   23.1260 C   0  0  0  0  0  1  0  0  0  0  0  0
  -25.4450  -36.0410   23.8630 C   0  0  0  0  0  3  0  0  0  0  0  0
  -27.6450  -36.7940   24.6480 C   0  0  0  0  0  1  0  0  0  0  0  0
  -26.5160  -37.0550   23.7590 N   0  0  0  0  0  0  0  0  0  0  0  0
  -26.1550  -37.9810   23.9700 H   0  0  0  0  0  0  0  0  0  0  0  0
  -26.2970  -31.3360   24.8220 C   0  0  1  0  0  0  0  0  0  0  0  0
  -25.2580  -31.0810   25.9390 C   0  0  0  0  0  1  0  0  0  0  0  0
  -26.8020  -29.9630   24.3190 C   0  0  0  0  0  1  0  0  0  0  0  0
  -27.5130  -32.0510   25.4570 C   0  0  0  0  0  1  0  0  0  0  0  0
  1  2  1  0
  1 55  1  0
  2  3  1  0
  2  4  1  0
  5  8  1  0
  5  2  1  0
  6  9  1  0
  7 11  1  0
  8 10  1  0
  8  7  2  0
  9 23  1  0
 10  6  2  0
 11  9  2  0
 11 14  1  0
 12  7  1  0
 13 10  1  0
 15 23  1  0
 16 21  1  0
 17 18  1  0
 17 16  1  0
 19 18  1  0
 19 28  1  0
 19 20  1  0
 21 15  1  0
 21 20  1  0
 22 15  2  0
 23 24  1  0
 25 26  2  0
 26 45  1  0
 27 26  1  0
 27 30  1  0
 28 25  1  0
 28 29  1  0
 29 27  2  0
 30 31  1  0
 31 32  2  0
 33 36  1  0
 33 32  1  0
 34 33  2  0
 35 34  1  0
 35 30  2  0
 36 37  1  0
 37 42  2  0
 37 38  1  0
 38 39  2  0
 39 40  1  0
 40 44  1  0
 41 40  2  0
 42 41  1  0
 43 42  1  0
 45 46  1  0
 46 49  1  0
 46 48  1  0
 47 45  2  0
 50 51  1  0
 50 25  1  0
 52 50  1  0
 55 53  1  6
 55 54  1  0
 55 56  1  0
 57 56  1  0
 57 58  1  0
 59 57  1  0
 61 57  1  0
 61 60  1  0
 62 61  1  0
 63 65  1  0
 63 62  1  0
 64 75  2  0
 65 70  1  0
 66 74  1  0
 66 76  1  0
 67 73  1  0
 67 69  1  0
 68 74  1  0
 69 68  1  0
 70 69  2  0
 71 72  1  0
 71 65  2  0
 72 67  2  0
 73 66  1  0
 74 64  1  0
 76 78  2  0
 77 76  1  0
 79 77  1  0
 80 89  2  0
 80 85  1  0
 81 77  1  0
 81 85  1  0
 82 81  1  0
 83 84  1  0
 83 82  1  0
 84 80  1  0
 85 86  2  0
 86 87  1  0
 88 87  2  0
 89 88  1  0
 90 64  1  0
 90 91  1  0
 90100  1  0
 91 94  1  0
 92 96  1  0
 92 91  1  0
 93 92  2  0
 96 95  1  0
 98 96  1  0
 98 99  1  0
 98 97  1  0
100103  1  1
100101  1  0
102100  1  0
M  ISO  4  15 100  23 100  62 101  63 101
M  END
>  <TORSDO>  (65) 
F 24

>  <SCORE>  (65) 
-10.285

>  <name>  (65) 
64

>  <ligand_id>  (65) 
64

>  <original_smiles>  (65) 
[H]c1c([H])c([H])c2c(c1[H])C([H])([H])C([H])([H])C([H])([H])C2([H])N([H])C(=O)C1([H])N(C(=O)C([H])(N([H])C(=O)C([H])(N([H])C([H])([H])[H])C([H])([H])[H])C(C([H])([H])[H])(C([H])([H])[H])C([H])([H])[H])C([H])([H])c2c([H])c(OC([H])([H])C([H])(C([H])([H])[H])[N+]([H])([H])C([H])([H])C(C([H])([H])[H])(C([H])([H])[H])C([H])([H])[N+]([H])([H])C([H])([H])c3c(Cl)c([H])c(N([H])C(=O)N4C([H])([H])C([H])([H])C([H])([H])C([H])(n5nc(-c6c([H])c([H])c(Oc7c([H])c([H])c(F)c([H])c7F)c([H])c6[H])c(C(=O)N([H])[H])c5N([H])[H])C4([H])[H])c(Cl)c3C([H])([H])[H])c([H])c([H])c2C1([H])[H]

>  <smiles>  (65) 
[H]c1c([H])c([H])c2c(c1[H])C([H])([H])C([H])([H])C([H])([H])C2([H])N([H])C(=O)C1([H])N(C(=O)C([H])(N([H])C(=O)C([H])(N([H])C([H])([H])[H])C([H])([H])[H])C(C([H])([H])[H])(C([H])([H])[H])C([H])([H])[H])C([H])([H])c2c([H])c(OC([H])([H])C([H])(C([H])([H])[H])[N+]([H])([H])C([H])([H])C(C([H])([H])[H])(C([H])([H])[H])C([H])([H])[N+]([H])([H])C([H])([H])c3c(Cl)c([H])c(N([H])C(=O)N4C([H])([H])C([H])([H])C([H])([H])C([H])(n5nc(-c6c([H])c([H])c(Oc7c([H])c([H])c(F)c([H])c7F)c([H])c6[H])c(C(=O)N([H])[H])c5N([H])[H])C4([H])[H])c(Cl)c3C([H])([H])[H])c([H])c([H])c2C1([H])[H]

$$$$
65:0:0
     RDKit          3D

 89 97  0  0  1  0  0  0  0  0999 V2000
  -29.2460  -19.6170   19.6420 C   0  0  0  0  0  0  0  0  0  0  0  0
  -28.0420  -19.0190   19.0610 C   0  0  0  0  0  0  0  0  0  0  0  0
  -28.9600  -21.1400   19.7180 C   0  0  0  0  0  0  0  0  0  0  0  0
  -27.0440  -19.8620   18.6890 C   0  0  0  0  0  0  0  0  0  0  0  0
  -27.3950  -21.4890   19.0000 S   0  0  0  0  0  0  0  0  0  0  0  0
  -27.7970  -17.3470   18.8400 Cl  0  0  0  0  0  0  0  0  0  0  0  0
  -25.5170  -19.4970   17.9770 Cl  0  0  0  0  0  0  0  0  0  0  0  0
  -30.4100  -18.3500   20.0230 C   0  0  0  0  0  2  0  0  0  0  0  0
  -30.9990  -15.4000   20.1670 C   0  0  0  0  0  0  0  0  0  0  0  0
  -30.9700  -12.8890   19.4810 C   0  0  0  0  0  2  0  0  0  0  0  0
  -30.0960  -12.6150   18.2300 C   0  0  0  0  0  2  0  0  0  0  0  0
  -28.6220  -12.4030   18.6280 C   0  0  0  0  0  2  0  0  0  0  0  0
  -28.1530  -13.4400   19.6830 C   0  0  0  0  0  3  0  0  0  0  0  0
  -29.1680  -13.6530   20.8310 C   0  0  0  0  0  2  0  0  0  0  0  0
  -30.4240  -14.0950   20.2080 N   0  0  0  0  0  0  0  0  0  0  0  0
  -32.2150  -15.3750   19.9180 O   0  0  0  0  0  0  0  0  0  0  0  0
  -30.2400  -16.6790   20.2220 N   0  0  0  0  0  0  0  0  0  0  0  0
  -29.2810  -16.4810   20.4730 H   0  0  0  0  0  0  0  0  0  0  0  0
  -25.7980  -14.0890   20.4240 C   0  0  0  0  0  0  0  0  0  0  0  0
  -24.7030  -13.3560   20.7850 C   0  0  0  0  0  0  0  0  0  0  0  0
  -25.1090  -11.9850   20.7350 C   0  0  0  0  0  0  0  0  0  0  0  0
  -26.8050  -13.1720   20.1760 N   0  0  0  0  0  0  0  0  0  0  0  0
  -26.3990  -11.8990   20.4250 N   0  0  0  0  0  0  0  0  0  0  0  0
  -24.3210  -10.7570   20.8980 C   0  0  0  0  0  0  0  0  0  0  0  0
  -24.6990   -9.7470   21.8080 C   0  0  0  0  0  3  0  0  0  0  0  0
  -23.9060   -8.5890   21.9630 C   0  0  0  0  0  3  0  0  0  0  0  0
  -22.7210   -8.4340   21.2040 C   0  0  0  0  0  0  0  0  0  0  0  0
  -22.3620   -9.4320   20.2790 C   0  0  0  0  0  3  0  0  0  0  0  0
  -23.1570  -10.5800   20.1240 C   0  0  0  0  0  3  0  0  0  0  0  0
  -21.9050   -7.3320   21.2680 O   0  0  0  0  0  0  0  0  0  0  0  0
  -21.7630   -6.6040   22.4240 C   0  0  0  0  0  0  0  0  0  0  0  0
  -21.2680   -7.1850   23.6120 C   0  0  0  0  0  3  0  0  0  0  0  0
  -21.0710   -6.3870   24.7560 C   0  0  0  0  0  3  0  0  0  0  0  0
  -21.3590   -5.0090   24.7130 C   0  0  0  0  0  0  0  0  0  0  0  0
  -21.8450   -4.4280   23.5290 C   0  0  0  0  0  3  0  0  0  0  0  0
  -22.0410   -5.2230   22.3860 C   0  0  0  0  0  0  0  0  0  0  0  0
  -22.4890   -4.6530   21.2420 F   0  0  0  0  0  0  0  0  0  0  0  0
  -21.1610   -4.2420   25.8100 F   0  0  0  0  0  0  0  0  0  0  0  0
  -23.3270  -13.8980   21.0520 C   0  0  0  0  0  0  0  0  0  0  0  0
  -22.5770  -13.2620   21.9450 N   0  0  0  0  0  0  0  0  0  0  0  0
  -22.9300  -14.9250   20.5050 O   0  0  0  0  0  0  0  0  0  0  0  0
  -22.9070  -12.4360   22.4160 H   0  0  0  0  0  0  0  0  0  0  0  0
  -21.6560  -13.6180   22.1670 H   0  0  0  0  0  0  0  0  0  0  0  0
  -26.0050  -15.4520   20.2520 N   0  0  0  0  0  0  0  0  0  0  0  0
  -25.2700  -16.1270   20.4280 H   0  0  0  0  0  0  0  0  0  0  0  0
  -26.8650  -15.8840   19.9440 H   0  0  0  0  0  0  0  0  0  0  0  0
  -29.3820  -22.7540   20.2010 C   0  0  0  0  0  3  0  0  0  0  0  0
  -28.4160  -24.2920   20.0730 C   0  0  0  0  0  3  0  0  0  0  0  0
  -28.6180  -25.9000   20.3860 O   0  0  0  0  0  0  0  0  0  0  0  0
  -24.6940  -31.6980   23.2080 C   0  0  0  0  0  0  0  0  0  0  0  0
  -27.5920  -26.9800   20.2870 C   0  0  0  0  0  0  0  0  0  0  0  0
  -23.6760  -30.3530   21.4140 C   0  0  0  0  0  3  0  0  0  0  0  0
  -25.2780  -28.8280   20.0750 C   0  0  0  0  0  0  0  0  0  0  0  0
  -26.2380  -30.6140   21.5090 C   0  0  0  0  0  2  0  0  0  0  0  0
  -26.3950  -29.2270   20.8210 C   0  0  0  0  0  0  0  0  0  0  0  0
  -27.5490  -28.3260   20.9040 C   0  0  0  0  0  3  0  0  0  0  0  0
  -26.4470  -26.7330   19.4970 C   0  0  0  0  0  3  0  0  0  0  0  0
  -25.3270  -27.6010   19.4010 C   0  0  0  0  0  3  0  0  0  0  0  0
  -24.0390  -29.7260   20.0410 C   0  0  0  0  0  2  0  0  0  0  0  0
  -24.8840  -30.9140   22.1000 N   0  0  0  0  0  0  0  0  0  0  0  0
  -23.5570  -31.9480   23.6410 O   0  0  0  0  0  0  0  0  0  0  0  0
  -22.9190  -29.3080   22.2750 C   0  0  0  0  0  0  0  0  0  0  0  0
  -21.5890  -29.2060   22.1060 N   0  0  0  0  0  0  0  0  0  0  0  0
  -23.5370  -28.5900   23.0640 O   0  0  0  0  0  0  0  0  0  0  0  0
  -21.1370  -29.8380   21.4610 H   0  0  0  0  0  0  0  0  0  0  0  0
  -18.1310  -28.2280   22.5970 C   0  0  0  0  0  0  0  0  0  0  0  0
  -20.7130  -28.2390   22.7790 C   0  0  0  0  0  3  0  0  0  0  0  0
  -20.6660  -26.8970   22.0110 C   0  0  0  0  0  2  0  0  0  0  0  0
  -19.5060  -26.8130   21.0110 C   0  0  0  0  0  2  0  0  0  0  0  0
  -18.1640  -26.9790   21.7320 C   0  0  0  0  0  2  0  0  0  0  0  0
  -19.3270  -28.8280   23.0770 C   0  0  0  0  0  0  0  0  0  0  0  0
  -19.2380  -30.0020   23.8550 C   0  0  0  0  0  3  0  0  0  0  0  0
  -17.9900  -30.5770   24.1550 C   0  0  0  0  0  3  0  0  0  0  0  0
  -16.8080  -29.9720   23.6910 C   0  0  0  0  0  3  0  0  0  0  0  0
  -16.8810  -28.7970   22.9180 C   0  0  0  0  0  3  0  0  0  0  0  0
  -25.8910  -32.3380   23.9740 C   0  0  0  0  0  3  0  0  0  0  0  0
  -26.2790  -31.5460   25.2870 C   0  0  1  0  0  0  0  0  0  0  0  0
  -25.0850  -31.2880   26.2350 C   0  0  0  0  0  1  0  0  0  0  0  0
  -26.9070  -30.1760   24.9430 C   0  0  0  0  0  1  0  0  0  0  0  0
  -27.3510  -32.3320   26.0780 C   0  0  0  0  0  1  0  0  0  0  0  0
  -25.5290  -33.7250   24.3080 N   0  0  0  0  0  0  0  0  0  0  0  0
  -25.8700  -34.8030   23.5880 C   0  0  0  0  0  0  0  0  0  0  0  0
  -26.5860  -34.7340   22.5850 O   0  0  0  0  0  0  0  0  0  0  0  0
  -24.8990  -33.8490   25.0870 H   0  0  0  0  0  0  0  0  0  0  0  0
  -24.1000  -36.5570   23.2290 C   0  0  0  0  0  1  0  0  0  0  0  0
  -25.3390  -36.1740   24.0540 C   0  0  0  0  0  3  0  0  0  0  0  0
  -27.4200  -37.1310   24.9420 C   0  0  0  0  0  1  0  0  0  0  0  0
  -26.3420  -37.2580   23.9660 N   0  0  0  0  0  0  0  0  0  0  0  0
  -25.9000  -38.1630   24.0990 H   0  0  0  0  0  0  0  0  0  0  0  0
  1  3  2  0
  1  8  1  0
  2  1  1  0
  3 47  1  0
  4  5  1  0
  4  2  2  0
  5  3  1  0
  6  2  1  0
  7  4  1  0
  8 17  1  0
  9 15  1  0
  9 17  1  0
 10 15  1  0
 11 12  1  0
 11 10  1  0
 13 12  1  0
 13 22  1  0
 13 14  1  0
 15 14  1  0
 16  9  2  0
 17 18  1  0
 19 20  2  0
 20 39  1  0
 21 20  1  0
 21 24  1  0
 22 19  1  0
 22 23  1  0
 23 21  2  0
 24 25  1  0
 25 26  2  0
 27 30  1  0
 27 26  1  0
 28 27  2  0
 29 28  1  0
 29 24  2  0
 30 31  1  0
 31 32  1  0
 32 33  2  0
 34 33  1  0
 34 38  1  0
 35 34  2  0
 36 31  2  0
 36 35  1  0
 37 36  1  0
 39 40  1  0
 40 43  1  0
 40 42  1  0
 41 39  2  0
 44 19  1  0
 44 45  1  0
 46 44  1  0
 48 47  2  0
 48 49  1  0
 50 61  2  0
 51 49  1  0
 51 56  1  0
 52 60  1  0
 52 62  1  0
 53 55  1  0
 54 60  1  0
 55 56  2  0
 55 54  1  0
 57 51  2  0
 58 57  1  0
 58 53  2  0
 59 53  1  0
 59 52  1  0
 60 50  1  0
 62 64  2  0
 63 62  1  0
 65 63  1  0
 66 75  2  0
 66 71  1  0
 67 63  1  0
 67 71  1  0
 68 67  1  0
 69 70  1  0
 69 68  1  0
 70 66  1  0
 71 72  2  0
 72 73  1  0
 74 73  2  0
 75 74  1  0
 76 50  1  0
 76 81  1  0
 76 77  1  0
 77 80  1  1
 77 78  1  0
 79 77  1  0
 81 84  1  0
 82 86  1  0
 82 81  1  0
 83 82  2  0
 86 85  1  0
 88 86  1  0
 88 89  1  0
 88 87  1  0
M  ISO  4   9 100  17 100  48 101  49 101
M  END
>  <TORSDO>  (66) 
F 19

>  <SCORE>  (66) 
-15.705

>  <name>  (66) 
65

>  <ligand_id>  (66) 
65

>  <original_smiles>  (66) 
[H]c1c([H])c([H])c2c(c1[H])C([H])([H])C([H])([H])C([H])([H])C2([H])N([H])C(=O)C1([H])N(C(=O)C([H])(N([H])C(=O)C([H])(N([H])C([H])([H])[H])C([H])([H])[H])C(C([H])([H])[H])(C([H])([H])[H])C([H])([H])[H])C([H])([H])c2c([H])c(OC([H])([H])C([H])([H])c3sc(Cl)c(Cl)c3C([H])([H])N([H])C(=O)N3C([H])([H])C([H])([H])C([H])([H])C([H])(n4nc(-c5c([H])c([H])c(Oc6c([H])c([H])c(F)c([H])c6F)c([H])c5[H])c(C(=O)N([H])[H])c4N([H])[H])C3([H])[H])c([H])c([H])c2C1([H])[H]

>  <smiles>  (66) 
[H]c1c([H])c([H])c2c(c1[H])C([H])([H])C([H])([H])C([H])([H])C2([H])N([H])C(=O)C1([H])N(C(=O)C([H])(N([H])C(=O)C([H])(N([H])C([H])([H])[H])C([H])([H])[H])C(C([H])([H])[H])(C([H])([H])[H])C([H])([H])[H])C([H])([H])c2c([H])c(OC([H])([H])C([H])([H])c3sc(Cl)c(Cl)c3C([H])([H])N([H])C(=O)N3C([H])([H])C([H])([H])C([H])([H])C([H])(n4nc(-c5c([H])c([H])c(Oc6c([H])c([H])c(F)c([H])c6F)c([H])c5[H])c(C(=O)N([H])[H])c4N([H])[H])C3([H])[H])c([H])c([H])c2C1([H])[H]

$$$$
66:0:0
     RDKit          3D

 91 99  0  0  1  0  0  0  0  0999 V2000
  -28.5700  -21.3860   18.4600 C   0  0  0  0  0  0  0  0  0  0  0  0
  -29.0440  -18.9610   18.7780 C   0  0  0  0  0  0  0  0  0  0  0  0
  -28.5960  -20.0460   17.9790 C   0  0  0  0  0  0  0  0  0  0  0  0
  -28.9120  -21.6800   19.8090 C   0  0  0  0  0  0  0  0  0  0  0  0
  -29.3980  -19.1760   20.1280 C   0  0  0  0  0  0  0  0  0  0  0  0
  -28.2520  -22.5120   17.4770 C   0  0  0  0  0  1  0  0  0  0  0  0
  -29.2240  -17.5720   18.1640 C   0  0  0  0  0  1  0  0  0  0  0  0
  -29.3180  -20.5400   20.5870 N   0  0  0  0  0  0  0  0  0  0  0  0
  -28.1030  -19.7290   16.3430 Cl  0  0  0  0  0  0  0  0  0  0  0  0
  -29.0230  -23.2920   20.3060 C   0  0  0  0  0  3  0  0  0  0  0  0
  -28.0150  -24.6520   19.9710 C   0  0  0  0  0  3  0  0  0  0  0  0
  -28.2470  -26.1930   20.2320 O   0  0  0  0  0  0  0  0  0  0  0  0
  -24.6020  -31.9110   23.2350 C   0  0  0  0  0  0  0  0  0  0  0  0
  -27.1890  -27.1880   20.1780 C   0  0  0  0  0  0  0  0  0  0  0  0
  -23.4030  -30.5060   21.6070 C   0  0  0  0  0  3  0  0  0  0  0  0
  -24.8500  -28.9440   20.1650 C   0  0  0  0  0  0  0  0  0  0  0  0
  -25.9570  -30.7790   21.4280 C   0  0  0  0  0  2  0  0  0  0  0  0
  -26.0340  -29.3860   20.7720 C   0  0  0  0  0  0  0  0  0  0  0  0
  -27.1990  -28.5260   20.7620 C   0  0  0  0  0  3  0  0  0  0  0  0
  -25.9750  -26.8540   19.5360 C   0  0  0  0  0  3  0  0  0  0  0  0
  -24.8370  -27.6910   19.5330 C   0  0  0  0  0  3  0  0  0  0  0  0
  -23.6170  -29.8350   20.2260 C   0  0  0  0  0  2  0  0  0  0  0  0
  -24.6740  -31.0900   22.1430 N   0  0  0  0  0  0  0  0  0  0  0  0
  -23.5180  -32.1880   23.7690 O   0  0  0  0  0  0  0  0  0  0  0  0
  -22.7400  -29.4940   22.5730 C   0  0  0  0  0  0  0  0  0  0  0  0
  -21.4120  -29.3040   22.4480 N   0  0  0  0  0  0  0  0  0  0  0  0
  -23.4210  -28.8810   23.4000 O   0  0  0  0  0  0  0  0  0  0  0  0
  -20.9190  -29.8500   21.7560 H   0  0  0  0  0  0  0  0  0  0  0  0
  -18.0480  -28.0600   22.9600 C   0  0  0  0  0  0  0  0  0  0  0  0
  -20.6050  -28.3600   23.2250 C   0  0  0  0  0  3  0  0  0  0  0  0
  -20.7250  -26.9260   22.6560 C   0  0  0  0  0  2  0  0  0  0  0  0
  -19.6260  -26.5840   21.6450 C   0  0  0  0  0  2  0  0  0  0  0  0
  -18.2430  -26.7120   22.2870 C   0  0  0  0  0  2  0  0  0  0  0  0
  -19.1570  -28.8400   23.3850 C   0  0  0  0  0  0  0  0  0  0  0  0
  -18.9190  -30.1010   23.9730 C   0  0  0  0  0  3  0  0  0  0  0  0
  -17.6050  -30.5810   24.1420 C   0  0  0  0  0  3  0  0  0  0  0  0
  -16.5130  -29.7990   23.7280 C   0  0  0  0  0  3  0  0  0  0  0  0
  -16.7360  -28.5410   23.1430 C   0  0  0  0  0  3  0  0  0  0  0  0
  -25.8770  -32.5560   23.8590 C   0  0  0  0  0  3  0  0  0  0  0  0
  -26.3850  -31.8030   25.1510 C   0  0  1  0  0  0  0  0  0  0  0  0
  -25.2840  -31.5810   26.2160 C   0  0  0  0  0  1  0  0  0  0  0  0
  -26.9770  -30.4220   24.7870 C   0  0  0  0  0  1  0  0  0  0  0  0
  -27.5290  -32.6110   25.8060 C   0  0  0  0  0  1  0  0  0  0  0  0
  -25.5600  -33.9570   24.1760 N   0  0  0  0  0  0  0  0  0  0  0  0
  -25.9030  -35.0100   23.4230 C   0  0  0  0  0  0  0  0  0  0  0  0
  -26.5850  -34.9030   22.4000 O   0  0  0  0  0  0  0  0  0  0  0  0
  -24.9540  -34.1140   24.9700 H   0  0  0  0  0  0  0  0  0  0  0  0
  -24.1950  -36.8180   23.0280 C   0  0  0  0  0  1  0  0  0  0  0  0
  -25.4120  -36.4020   23.8690 C   0  0  0  0  0  3  0  0  0  0  0  0
  -27.5280  -37.2760   24.7570 C   0  0  0  0  0  1  0  0  0  0  0  0
  -26.4530  -37.4470   23.7840 N   0  0  0  0  0  0  0  0  0  0  0  0
  -26.0480  -38.3710   23.9140 H   0  0  0  0  0  0  0  0  0  0  0  0
  -30.0130  -17.8820   21.0020 C   0  0  0  0  0  2  0  0  0  0  0  0
  -30.5540  -15.1230   20.8180 C   0  0  0  0  0  0  0  0  0  0  0  0
  -30.5490  -12.7260   19.9590 C   0  0  0  0  0  2  0  0  0  0  0  0
  -29.7160  -12.6260   18.6600 C   0  0  0  0  0  2  0  0  0  0  0  0
  -28.2230  -12.4050   18.9780 C   0  0  0  0  0  2  0  0  0  0  0  0
  -27.7140  -13.3390   20.1060 C   0  0  0  0  0  3  0  0  0  0  0  0
  -28.6870  -13.4060   21.3020 C   0  0  0  0  0  2  0  0  0  0  0  0
  -29.9840  -13.8440   20.7690 N   0  0  0  0  0  0  0  0  0  0  0  0
  -31.7760  -15.1880   20.6600 O   0  0  0  0  0  0  0  0  0  0  0  0
  -29.7450  -16.3040   20.8530 N   0  0  0  0  0  0  0  0  0  0  0  0
  -28.7630  -16.0830   20.9060 H   0  0  0  0  0  0  0  0  0  0  0  0
  -25.2790  -13.8810   20.6680 C   0  0  0  0  0  0  0  0  0  0  0  0
  -24.2050  -13.0930   20.9760 C   0  0  0  0  0  0  0  0  0  0  0  0
  -24.6900  -11.7500   20.9940 C   0  0  0  0  0  0  0  0  0  0  0  0
  -26.3500  -13.0190   20.5150 N   0  0  0  0  0  0  0  0  0  0  0  0
  -26.0010  -11.7310   20.7770 N   0  0  0  0  0  0  0  0  0  0  0  0
  -23.9680  -10.4770   21.1440 C   0  0  0  0  0  0  0  0  0  0  0  0
  -24.3410   -9.5270   22.1210 C   0  0  0  0  0  3  0  0  0  0  0  0
  -23.6190   -8.3230   22.2600 C   0  0  0  0  0  3  0  0  0  0  0  0
  -22.5100   -8.0590   21.4240 C   0  0  0  0  0  0  0  0  0  0  0  0
  -22.1570   -8.9970   20.4370 C   0  0  0  0  0  3  0  0  0  0  0  0
  -22.8810  -10.1920   20.2950 C   0  0  0  0  0  3  0  0  0  0  0  0
  -21.7640   -6.9060   21.4720 O   0  0  0  0  0  0  0  0  0  0  0  0
  -21.6260   -6.1860   22.6320 C   0  0  0  0  0  0  0  0  0  0  0  0
  -21.0640   -6.7510   23.7980 C   0  0  0  0  0  3  0  0  0  0  0  0
  -20.8780   -5.9560   24.9470 C   0  0  0  0  0  3  0  0  0  0  0  0
  -21.2410   -4.5950   24.9290 C   0  0  0  0  0  0  0  0  0  0  0  0
  -21.7900   -4.0280   23.7660 C   0  0  0  0  0  3  0  0  0  0  0  0
  -21.9790   -4.8200   22.6200 C   0  0  0  0  0  0  0  0  0  0  0  0
  -22.4920   -4.2630   21.4960 F   0  0  0  0  0  0  0  0  0  0  0  0
  -21.0540   -3.8290   26.0290 F   0  0  0  0  0  0  0  0  0  0  0  0
  -22.7850  -13.5510   21.1420 C   0  0  0  0  0  0  0  0  0  0  0  0
  -22.0030  -12.8460   21.9530 N   0  0  0  0  0  0  0  0  0  0  0  0
  -22.3730  -14.5680   20.5860 O   0  0  0  0  0  0  0  0  0  0  0  0
  -22.3470  -12.0260   22.4310 H   0  0  0  0  0  0  0  0  0  0  0  0
  -21.0450  -13.1310   22.1020 H   0  0  0  0  0  0  0  0  0  0  0  0
  -25.4330  -15.2530   20.4810 N   0  0  0  0  0  0  0  0  0  0  0  0
  -24.6470  -15.8950   20.5200 H   0  0  0  0  0  0  0  0  0  0  0  0
  -26.2850  -15.6940   20.1630 H   0  0  0  0  0  0  0  0  0  0  0  0
  1  4  1  0
  2  5  2  0
  3  1  2  0
  3  2  1  0
  4 10  1  0
  4  8  2  0
  5  8  1  0
  5 53  1  0
  6  1  1  0
  7  2  1  0
  9  3  1  0
 11 12  1  0
 11 10  2  0
 13 24  2  0
 14 12  1  0
 14 19  1  0
 15 23  1  0
 15 25  1  0
 16 22  1  0
 16 18  1  0
 17 23  1  0
 18 17  1  0
 19 18  2  0
 20 14  2  0
 21 20  1  0
 21 16  2  0
 22 15  1  0
 23 13  1  0
 25 27  2  0
 26 25  1  0
 28 26  1  0
 29 38  2  0
 29 34  1  0
 30 26  1  0
 30 34  1  0
 31 30  1  0
 32 33  1  0
 32 31  1  0
 33 29  1  0
 34 35  2  0
 35 36  1  0
 37 36  2  0
 38 37  1  0
 39 13  1  0
 39 44  1  0
 39 40  1  0
 40 43  1  1
 40 41  1  0
 42 40  1  0
 44 47  1  0
 45 49  1  0
 45 44  1  0
 46 45  2  0
 49 48  1  0
 51 49  1  0
 51 52  1  0
 51 50  1  0
 54 62  1  0
 55 60  1  0
 56 57  1  0
 56 55  1  0
 58 57  1  0
 58 67  1  0
 58 59  1  0
 60 54  1  0
 60 59  1  0
 61 54  2  0
 62 63  1  0
 62 53  1  0
 64 65  2  0
 65 66  1  0
 65 84  1  0
 66 69  1  0
 67 64  1  0
 67 68  1  0
 68 66  2  0
 69 70  1  0
 70 71  2  0
 72 75  1  0
 72 71  1  0
 73 72  2  0
 74 73  1  0
 74 69  2  0
 75 76  1  0
 76 77  1  0
 77 78  2  0
 79 78  1  0
 79 83  1  0
 80 79  2  0
 81 76  2  0
 81 80  1  0
 82 81  1  0
 84 85  1  0
 85 88  1  0
 85 87  1  0
 86 84  2  0
 89 90  1  0
 89 64  1  0
 91 89  1  0
M  ISO  4  11 101  12 101  54 100  62 100
M  END
>  <TORSDO>  (67) 
F 19

>  <SCORE>  (67) 
-14.710

>  <name>  (67) 
66

>  <ligand_id>  (67) 
66

>  <original_smiles>  (67) 
[H]c1c([H])c([H])c2c(c1[H])C([H])([H])C([H])([H])C([H])([H])C2([H])N([H])C(=O)C1([H])N(C(=O)C([H])(N([H])C(=O)C([H])(N([H])C([H])([H])[H])C([H])([H])[H])C(C([H])([H])[H])(C([H])([H])[H])C([H])([H])[H])C([H])([H])c2c([H])c(OC([H])([H])C([H])([H])c3nc(C([H])([H])N([H])C(=O)N4C([H])([H])C([H])([H])C([H])([H])C([H])(n5nc(-c6c([H])c([H])c(Oc7c([H])c([H])c(F)c([H])c7F)c([H])c6[H])c(C(=O)N([H])[H])c5N([H])[H])C4([H])[H])c(C([H])([H])[H])c(Cl)c3C([H])([H])[H])c([H])c([H])c2C1([H])[H]

>  <smiles>  (67) 
[H]c1c([H])c([H])c2c(c1[H])C([H])([H])C([H])([H])C([H])([H])C2([H])N([H])C(=O)C1([H])N(C(=O)C([H])(N([H])C(=O)C([H])(N([H])C([H])([H])[H])C([H])([H])[H])C(C([H])([H])[H])(C([H])([H])[H])C([H])([H])[H])C([H])([H])c2c([H])c(OC([H])([H])C([H])([H])c3nc(C([H])([H])N([H])C(=O)N4C([H])([H])C([H])([H])C([H])([H])C([H])(n5nc(-c6c([H])c([H])c(Oc7c([H])c([H])c(F)c([H])c7F)c([H])c6[H])c(C(=O)N([H])[H])c5N([H])[H])C4([H])[H])c(C([H])([H])[H])c(Cl)c3C([H])([H])[H])c([H])c([H])c2C1([H])[H]

$$$$
67:0:0
     RDKit          3D

101109  0  0  1  0  0  0  0  0999 V2000
  -27.7990  -23.4800   22.8450 C   0  0  0  0  0  3  0  0  0  0  0  0
  -29.0770  -25.7310   21.7600 C   0  0  0  0  0  3  0  0  0  0  0  0
  -29.0800  -23.3440   22.2630 C   0  0  0  0  0  0  0  0  0  0  0  0
  -27.7600  -25.8470   22.2440 C   0  0  0  0  0  0  0  0  0  0  0  0
  -27.1390  -24.7240   22.8470 C   0  0  0  0  0  0  0  0  0  0  0  0
  -29.7370  -24.4900   21.7600 C   0  0  0  0  0  0  0  0  0  0  0  0
  -25.5760  -24.8230   23.5810 Cl  0  0  0  0  0  0  0  0  0  0  0  0
  -31.3140  -24.3790   21.0630 Cl  0  0  0  0  0  0  0  0  0  0  0  0
  -29.7040  -21.9650   22.1210 C   0  0  0  0  0  2  0  0  0  0  0  0
  -30.0240  -21.7240   20.6990 N   0  0  0  0  0  4  0  0  0  0  0  0
  -30.3500  -22.5980   20.3160 H   0  0  0  0  0  0  0  0  0  0  0  0
  -29.1780  -21.4830   20.2100 H   0  0  0  0  0  0  0  0  0  0  0  0
  -31.0250  -20.6750   20.4190 C   0  0  0  0  0  2  0  0  0  0  0  0
  -30.3720  -19.3080   20.1310 C   0  0  0  0  0  2  0  0  0  0  0  0
  -31.4010  -18.1860   19.9510 C   0  0  0  0  0  2  0  0  0  0  0  0
  -30.7430  -16.8040   19.8740 C   0  0  0  0  0  2  0  0  0  0  0  0
  -31.7530  -15.6870   20.1550 C   0  0  0  0  0  2  0  0  0  0  0  0
  -31.5460  -13.2030   20.0430 C   0  0  0  0  0  0  0  0  0  0  0  0
  -31.3660  -10.8080   20.6000 C   0  0  0  0  0  2  0  0  0  0  0  0
  -30.5890  -10.0100   19.5400 C   0  0  0  0  0  2  0  0  0  0  0  0
  -29.0760  -10.0570   19.8200 C   0  0  0  0  0  2  0  0  0  0  0  0
  -28.5650  -11.5020   20.0490 C   0  0  0  0  0  3  0  0  0  0  0  0
  -29.4530  -12.2450   21.0720 C   0  0  0  0  0  2  0  0  0  0  0  0
  -30.8540  -12.1840   20.6100 N   0  0  0  0  0  0  0  0  0  0  0  0
  -32.5910  -13.0500   19.4040 O   0  0  0  0  0  0  0  0  0  0  0  0
  -31.0760  -14.4140   20.3550 N   0  0  0  0  0  0  0  0  0  0  0  0
  -30.2210  -14.4300   20.8930 H   0  0  0  0  0  0  0  0  0  0  0  0
  -26.2850  -12.5860   20.5680 C   0  0  0  0  0  0  0  0  0  0  0  0
  -25.0720  -12.0440   20.9050 C   0  0  0  0  0  0  0  0  0  0  0  0
  -25.2750  -10.6320   20.9680 C   0  0  0  0  0  0  0  0  0  0  0  0
  -27.1590  -11.5140   20.4480 N   0  0  0  0  0  0  0  0  0  0  0  0
  -26.5480  -10.3370   20.7430 N   0  0  0  0  0  0  0  0  0  0  0  0
  -24.3190   -9.5370   21.1740 C   0  0  0  0  0  0  0  0  0  0  0  0
  -24.3200   -8.7700   22.3610 C   0  0  0  0  0  3  0  0  0  0  0  0
  -23.3820   -7.7320   22.5440 C   0  0  0  0  0  3  0  0  0  0  0  0
  -22.4260   -7.4540   21.5380 C   0  0  0  0  0  0  0  0  0  0  0  0
  -22.4420   -8.2060   20.3490 C   0  0  0  0  0  3  0  0  0  0  0  0
  -23.3800   -9.2360   20.1670 C   0  0  0  0  0  3  0  0  0  0  0  0
  -21.4940   -6.4480   21.6160 O   0  0  0  0  0  0  0  0  0  0  0  0
  -20.7950   -6.2020   22.7710 C   0  0  0  0  0  0  0  0  0  0  0  0
  -19.9690   -7.1810   23.3650 C   0  0  0  0  0  3  0  0  0  0  0  0
  -19.2170   -6.8640   24.5140 C   0  0  0  0  0  3  0  0  0  0  0  0
  -19.2790   -5.5680   25.0610 C   0  0  0  0  0  0  0  0  0  0  0  0
  -20.0960   -4.5910   24.4660 C   0  0  0  0  0  3  0  0  0  0  0  0
  -20.8480   -4.9060   23.3220 C   0  0  0  0  0  0  0  0  0  0  0  0
  -21.6190   -3.9550   22.7400 F   0  0  0  0  0  0  0  0  0  0  0  0
  -18.5510   -5.2610   26.1590 F   0  0  0  0  0  0  0  0  0  0  0  0
  -23.7760  -12.7810   21.0670 C   0  0  0  0  0  0  0  0  0  0  0  0
  -22.9070  -12.3050   21.9530 N   0  0  0  0  0  0  0  0  0  0  0  0
  -23.5470  -13.8160   20.4450 O   0  0  0  0  0  0  0  0  0  0  0  0
  -23.1060  -11.4690   22.4800 H   0  0  0  0  0  0  0  0  0  0  0  0
  -22.0320  -12.7870   22.1030 H   0  0  0  0  0  0  0  0  0  0  0  0
  -26.7130  -13.8880   20.3380 N   0  0  0  0  0  0  0  0  0  0  0  0
  -26.0870  -14.6840   20.3750 H   0  0  0  0  0  0  0  0  0  0  0  0
  -27.6550  -14.1380   20.0590 H   0  0  0  0  0  0  0  0  0  0  0  0
  -27.1330  -27.0550   22.0490 O   0  0  0  0  0  0  0  0  0  0  0  0
  -26.4040  -27.1920   20.8220 C   0  0  0  0  0  2  0  0  0  0  0  0
  -27.2850  -26.9900   19.5680 C   0  0  0  0  0  0  0  0  0  0  0  0
  -28.5030  -27.1900   19.5830 O   0  0  0  0  0  0  0  0  0  0  0  0
  -26.5650  -26.5750   18.2680 C   0  0  0  0  0  2  0  0  0  0  0  0
  -26.1990  -27.7230   17.4920 O   0  0  0  0  0  0  0  0  0  0  0  0
  -25.6010  -31.3110   23.5370 C   0  0  0  0  0  0  0  0  0  0  0  0
  -25.4140  -28.5940   18.2000 C   0  0  0  0  0  0  0  0  0  0  0  0
  -23.5180  -31.0800   22.2190 C   0  0  0  0  0  3  0  0  0  0  0  0
  -23.8050  -30.2140   19.8400 C   0  0  0  0  0  0  0  0  0  0  0  0
  -25.8000  -31.1080   21.0650 C   0  0  0  0  0  2  0  0  0  0  0  0
  -25.1980  -30.2280   19.9920 C   0  0  0  0  0  0  0  0  0  0  0  0
  -26.0100  -29.4340   19.1600 C   0  0  0  0  0  3  0  0  0  0  0  0
  -24.0120  -28.5780   18.0510 C   0  0  0  0  0  3  0  0  0  0  0  0
  -23.2040  -29.3900   18.8700 C   0  0  0  0  0  3  0  0  0  0  0  0
  -23.0130  -31.1190   20.7510 C   0  0  0  0  0  2  0  0  0  0  0  0
  -25.0120  -31.1450   22.3190 N   0  0  0  0  0  0  0  0  0  0  0  0
  -24.9200  -31.4570   24.5620 O   0  0  0  0  0  0  0  0  0  0  0  0
  -22.9120  -29.8410   22.9120 C   0  0  0  0  0  0  0  0  0  0  0  0
  -21.5780  -29.7050   22.8280 N   0  0  0  0  0  0  0  0  0  0  0  0
  -23.6330  -29.0170   23.4780 O   0  0  0  0  0  0  0  0  0  0  0  0
  -21.0590  -30.4300   22.3510 H   0  0  0  0  0  0  0  0  0  0  0  0
  -18.3280  -28.1350   22.7350 C   0  0  0  0  0  0  0  0  0  0  0  0
  -20.7900  -28.6010   23.3700 C   0  0  0  0  0  3  0  0  0  0  0  0
  -21.1220  -27.2740   22.6470 C   0  0  0  0  0  2  0  0  0  0  0  0
  -20.1900  -26.9810   21.4670 C   0  0  0  0  0  2  0  0  0  0  0  0
  -18.7350  -26.9070   21.9370 C   0  0  0  0  0  2  0  0  0  0  0  0
  -19.2950  -28.9380   23.3960 C   0  0  0  0  0  0  0  0  0  0  0  0
  -18.8690  -30.0880   24.0940 C   0  0  0  0  0  3  0  0  0  0  0  0
  -17.5060  -30.4360   24.1440 C   0  0  0  0  0  3  0  0  0  0  0  0
  -16.5510  -29.6280   23.5030 C   0  0  0  0  0  3  0  0  0  0  0  0
  -16.9620  -28.4790   22.8030 C   0  0  0  0  0  3  0  0  0  0  0  0
  -27.1530  -31.3510   23.6990 C   0  0  0  0  0  3  0  0  0  0  0  0
  -27.4740  -32.4730   24.5910 N   0  0  0  0  0  0  0  0  0  0  0  0
  -27.9440  -33.6590   24.1810 C   0  0  0  0  0  0  0  0  0  0  0  0
  -28.2270  -33.8970   23.0040 O   0  0  0  0  0  0  0  0  0  0  0  0
  -27.2130  -32.3680   25.5610 H   0  0  0  0  0  0  0  0  0  0  0  0
  -26.9590  -35.7430   25.1870 C   0  0  0  0  0  1  0  0  0  0  0  0
  -28.1340  -34.7550   25.2470 C   0  0  0  0  0  3  0  0  0  0  0  0
  -30.5820  -34.6800   25.4280 C   0  0  0  0  0  1  0  0  0  0  0  0
  -29.4090  -35.4920   25.1130 N   0  0  0  0  0  0  0  0  0  0  0  0
  -29.4180  -36.3100   25.7170 H   0  0  0  0  0  0  0  0  0  0  0  0
  -27.7560  -30.0010   24.2550 C   0  0  1  0  0  0  0  0  0  0  0  0
  -27.0420  -29.4750   25.5200 C   0  0  0  0  0  1  0  0  0  0  0  0
  -27.6890  -28.8880   23.1820 C   0  0  0  0  0  1  0  0  0  0  0  0
  -29.2520  -30.1970   24.5980 C   0  0  0  0  0  1  0  0  0  0  0  0
  1  5  1  0
  2  4  1  0
  3  1  2  0
  4  5  2  0
  5  7  1  0
  6  2  2  0
  6  3  1  0
  8  6  1  0
  9  3  1  0
 10  9  1  0
 11 10  1  0
 12 10  1  0
 13 10  1  0
 14 13  1  0
 15 14  1  0
 16 15  1  0
 16 17  1  0
 17 26  1  0
 18 26  1  0
 18 24  1  0
 19 24  1  0
 20 21  1  0
 20 19  1  0
 22 21  1  0
 22 31  1  0
 22 23  1  0
 24 23  1  0
 25 18  2  0
 26 27  1  0
 28 29  2  0
 29 30  1  0
 29 48  1  0
 30 33  1  0
 31 28  1  0
 31 32  1  0
 32 30  2  0
 33 34  1  0
 34 35  2  0
 36 39  1  0
 36 35  1  0
 37 36  2  0
 38 37  1  0
 38 33  2  0
 39 40  1  0
 40 45  2  0
 40 41  1  0
 41 42  2  0
 42 43  1  0
 43 47  1  0
 44 43  2  0
 45 44  1  0
 46 45  1  0
 48 49  1  0
 49 52  1  0
 49 51  1  0
 50 48  2  0
 53 54  1  0
 53 28  1  0
 55 53  1  0
 56  4  1  0
 57 56  1  0
 58 59  2  0
 58 57  1  0
 60 58  1  0
 61 63  1  0
 61 60  1  0
 62 73  2  0
 63 68  1  0
 64 72  1  0
 64 74  1  0
 65 67  1  0
 65 71  1  0
 66 72  1  0
 67 66  1  0
 68 67  2  0
 69 63  2  0
 69 70  1  0
 70 65  2  0
 71 64  1  0
 72 62  1  0
 74 76  2  0
 75 74  1  0
 77 75  1  0
 78 87  2  0
 78 83  1  0
 79 75  1  0
 79 83  1  0
 80 79  1  0
 81 82  1  0
 81 80  1  0
 82 78  1  0
 83 84  2  0
 84 85  1  0
 86 85  2  0
 87 86  1  0
 88 62  1  0
 88 98  1  0
 88 89  1  0
 89 92  1  0
 90 89  1  0
 90 94  1  0
 91 90  2  0
 94 93  1  0
 96 94  1  0
 96 95  1  0
 96 97  1  0
 98101  1  1
 98 99  1  0
100 98  1  0
M  ISO  4  18 100  26 100  60 101  61 101
M  END
>  <TORSDO>  (68) 
F 27

>  <SCORE>  (68) 
-6.014

>  <name>  (68) 
67

>  <ligand_id>  (68) 
67

>  <original_smiles>  (68) 
[H]c1c([H])c([H])c2c(c1[H])C([H])([H])C([H])([H])C([H])([H])C2([H])N([H])C(=O)C1([H])N(C(=O)C([H])(N([H])C(=O)C([H])(N([H])C([H])([H])[H])C([H])([H])[H])C(C([H])([H])[H])(C([H])([H])[H])C([H])([H])[H])C([H])([H])c2c([H])c(OC([H])([H])C(=O)C([H])([H])Oc3c([H])c(Cl)c(C([H])([H])[N+]([H])([H])C([H])([H])C([H])([H])C([H])([H])C([H])([H])C([H])([H])N([H])C(=O)N4C([H])([H])C([H])([H])C([H])([H])C([H])(n5nc(-c6c([H])c([H])c(Oc7c([H])c([H])c(F)c([H])c7F)c([H])c6[H])c(C(=O)N([H])[H])c5N([H])[H])C4([H])[H])c([H])c3Cl)c([H])c([H])c2C1([H])[H]

>  <smiles>  (68) 
[H]c1c([H])c([H])c2c(c1[H])C([H])([H])C([H])([H])C([H])([H])C2([H])N([H])C(=O)C1([H])N(C(=O)C([H])(N([H])C(=O)C([H])(N([H])C([H])([H])[H])C([H])([H])[H])C(C([H])([H])[H])(C([H])([H])[H])C([H])([H])[H])C([H])([H])c2c([H])c(OC([H])([H])C(=O)C([H])([H])Oc3c([H])c(Cl)c(C([H])([H])[N+]([H])([H])C([H])([H])C([H])([H])C([H])([H])C([H])([H])C([H])([H])N([H])C(=O)N4C([H])([H])C([H])([H])C([H])([H])C([H])(n5nc(-c6c([H])c([H])c(Oc7c([H])c([H])c(F)c([H])c7F)c([H])c6[H])c(C(=O)N([H])[H])c5N([H])[H])C4([H])[H])c([H])c3Cl)c([H])c([H])c2C1([H])[H]

$$$$
68:0:0
     RDKit          3D

103113  0  0  1  0  0  0  0  0999 V2000
  -31.0700  -18.5480   20.9810 C   0  0  0  0  0  0  0  0  0  0  0  0
  -29.8150  -20.1820   19.6090 C   0  0  0  0  0  0  0  0  0  0  0  0
  -29.6360  -21.0050   20.7470 C   0  0  0  0  0  0  0  0  0  0  0  0
  -30.5240  -18.9600   19.7260 C   0  0  0  0  0  0  0  0  0  0  0  0
  -30.8480  -19.3700   22.1190 C   0  0  0  0  0  0  0  0  0  0  0  0
  -30.1280  -20.5790   22.0010 C   0  0  0  0  0  0  0  0  0  0  0  0
  -29.2360  -20.5880   18.2530 C   0  0  0  0  0  1  0  0  0  0  0  0
  -30.7020  -17.9870   18.2950 Cl  0  0  0  0  0  0  0  0  0  0  0  0
  -31.4490  -18.9330   23.6880 Cl  0  0  0  0  0  0  0  0  0  0  0  0
  -29.8480  -21.5630   23.4040 Cl  0  0  0  0  0  0  0  0  0  0  0  0
  -31.8170  -14.0460   18.8260 C   0  0  0  0  0  0  0  0  0  0  0  0
  -31.0520  -11.8070   18.1560 C   0  0  0  0  0  2  0  0  0  0  0  0
  -29.9220  -11.7600   17.1160 C   0  0  0  0  0  2  0  0  0  0  0  0
  -28.5540  -11.8100   17.8120 C   0  0  0  0  0  2  0  0  0  0  0  0
  -28.4510  -12.9940   18.7980 C   0  0  0  0  0  3  0  0  0  0  0  0
  -29.6700  -13.0630   19.7360 C   0  0  0  0  0  2  0  0  0  0  0  0
  -30.9440  -13.0160   18.9910 N   0  0  0  0  0  0  0  0  0  0  0  0
  -32.3980  -14.2230   17.7470 O   0  0  0  0  0  0  0  0  0  0  0  0
  -31.0290  -16.0200   21.5180 C   0  0  0  0  0  2  0  0  0  0  0  0
  -32.8360  -17.0230   19.9000 C   0  0  0  0  0  2  0  0  0  0  0  0
  -31.7830  -14.6850   21.3240 C   0  0  0  0  0  2  0  0  0  0  0  0
  -33.4280  -15.6070   19.8750 C   0  0  0  0  0  2  0  0  0  0  0  0
  -31.8910  -17.2500   21.1130 C   0  0  0  0  0  3  0  0  0  0  0  0
  -32.3130  -14.6490   19.9510 N   0  0  0  0  0  0  0  0  0  0  0  0
  -26.4690  -13.9900   20.1130 C   0  0  0  0  0  0  0  0  0  0  0  0
  -25.3540  -13.4130   20.6630 C   0  0  0  0  0  0  0  0  0  0  0  0
  -25.4710  -12.0120   20.4170 C   0  0  0  0  0  0  0  0  0  0  0  0
  -27.2040  -12.9490   19.5640 N   0  0  0  0  0  0  0  0  0  0  0  0
  -26.6200  -11.7460   19.8080 N   0  0  0  0  0  0  0  0  0  0  0  0
  -24.5290  -10.9140   20.6760 C   0  0  0  0  0  0  0  0  0  0  0  0
  -24.9480   -9.7070   21.2770 C   0  0  0  0  0  3  0  0  0  0  0  0
  -24.0210   -8.6720   21.5300 C   0  0  0  0  0  3  0  0  0  0  0  0
  -22.6600   -8.8400   21.1850 C   0  0  0  0  0  0  0  0  0  0  0  0
  -22.2510  -10.0350   20.5680 C   0  0  0  0  0  3  0  0  0  0  0  0
  -23.1760  -11.0610   20.3110 C   0  0  0  0  0  3  0  0  0  0  0  0
  -21.6930   -7.8790   21.3660 O   0  0  0  0  0  0  0  0  0  0  0  0
  -21.8820   -6.8190   22.2160 C   0  0  0  0  0  0  0  0  0  0  0  0
  -22.1240   -7.0040   23.5940 C   0  0  0  0  0  3  0  0  0  0  0  0
  -22.2420   -5.8870   24.4450 C   0  0  0  0  0  3  0  0  0  0  0  0
  -22.1130   -4.5860   23.9230 C   0  0  0  0  0  0  0  0  0  0  0  0
  -21.8670   -4.4000   22.5500 C   0  0  0  0  0  3  0  0  0  0  0  0
  -21.7500   -5.5140   21.7010 C   0  0  0  0  0  0  0  0  0  0  0  0
  -21.4910   -5.3280   20.3840 F   0  0  0  0  0  0  0  0  0  0  0  0
  -22.2200   -3.5130   24.7410 F   0  0  0  0  0  0  0  0  0  0  0  0
  -24.1940  -14.1320   21.2920 C   0  0  0  0  0  0  0  0  0  0  0  0
  -23.5650  -13.5240   22.2930 N   0  0  0  0  0  0  0  0  0  0  0  0
  -23.8660  -15.2600   20.9290 O   0  0  0  0  0  0  0  0  0  0  0  0
  -23.8450  -12.6060   22.6050 H   0  0  0  0  0  0  0  0  0  0  0  0
  -22.7930  -13.9840   22.7520 H   0  0  0  0  0  0  0  0  0  0  0  0
  -26.9080  -15.3060   20.0170 N   0  0  0  0  0  0  0  0  0  0  0  0
  -26.3810  -16.0870   20.3900 H   0  0  0  0  0  0  0  0  0  0  0  0
  -27.7680  -15.5930   19.5650 H   0  0  0  0  0  0  0  0  0  0  0  0
  -28.9520  -22.2310   20.6750 N   0  0  0  0  0  0  0  0  0  0  0  0
  -28.9080  -22.6540   21.5970 H   0  0  0  0  0  0  0  0  0  0  0  0
  -28.7170  -25.0640   18.0790 C   0  0  0  0  0  2  0  0  0  0  0  0
  -30.7790  -25.4160   19.5140 C   0  0  0  0  0  2  0  0  0  0  0  0
  -28.3060  -23.8680   18.9600 C   0  0  0  0  0  2  0  0  0  0  0  0
  -30.3760  -24.2190   20.3960 C   0  0  0  0  0  2  0  0  0  0  0  0
  -30.2280  -25.3850   18.0740 C   0  0  0  0  0  3  0  0  0  0  0  0
  -29.4710  -23.1860   19.7000 C   0  0  0  0  0  3  0  0  0  0  0  0
  -30.5280  -26.7280   17.3590 C   0  0  0  0  0  2  0  0  0  0  0  0
  -30.7210  -26.6310   15.8310 C   0  0  0  0  0  2  0  0  0  0  0  0
  -29.5990  -26.0770   15.1530 O   0  0  0  0  0  0  0  0  0  0  0  0
  -24.4550  -27.8100   19.8210 C   0  0  0  0  0  0  0  0  0  0  0  0
  -28.3340  -26.5550   15.4160 C   0  0  0  0  0  0  0  0  0  0  0  0
  -23.7810  -27.6640   17.4420 C   0  0  0  0  0  3  0  0  0  0  0  0
  -25.6900  -27.4850   15.7610 C   0  0  0  0  0  0  0  0  0  0  0  0
  -26.1730  -28.2800   18.0830 C   0  0  0  0  0  2  0  0  0  0  0  0
  -26.6210  -27.6260   16.7950 C   0  0  0  0  0  0  0  0  0  0  0  0
  -27.9420  -27.1640   16.6320 C   0  0  0  0  0  3  0  0  0  0  0  0
  -27.3840  -26.4210   14.3820 C   0  0  0  0  0  3  0  0  0  0  0  0
  -26.0620  -26.8760   14.5500 C   0  0  0  0  0  3  0  0  0  0  0  0
  -24.2990  -28.0150   16.0200 C   0  0  0  0  0  2  0  0  0  0  0  0
  -24.8110  -27.8910   18.5070 N   0  0  0  0  0  0  0  0  0  0  0  0
  -23.2820  -27.5930   20.1530 O   0  0  0  0  0  0  0  0  0  0  0  0
  -23.2350  -26.2200   17.4170 C   0  0  0  0  0  0  0  0  0  0  0  0
  -22.1110  -26.0200   16.7090 N   0  0  0  0  0  0  0  0  0  0  0  0
  -23.8300  -25.3080   17.9960 O   0  0  0  0  0  0  0  0  0  0  0  0
  -21.6860  -26.8210   16.2620 H   0  0  0  0  0  0  0  0  0  0  0  0
  -19.3970  -24.4030   14.9600 C   0  0  0  0  0  0  0  0  0  0  0  0
  -21.4350  -24.7390   16.5120 C   0  0  0  0  0  3  0  0  0  0  0  0
  -22.2150  -23.8490   15.5170 C   0  0  0  0  0  2  0  0  0  0  0  0
  -21.7340  -23.9980   14.0700 C   0  0  0  0  0  2  0  0  0  0  0  0
  -20.2490  -23.6400   13.9580 C   0  0  0  0  0  2  0  0  0  0  0  0
  -19.9590  -24.9330   16.1510 C   0  0  0  0  0  0  0  0  0  0  0  0
  -19.1330  -25.6650   17.0310 C   0  0  0  0  0  3  0  0  0  0  0  0
  -17.7720  -25.8700   16.7390 C   0  0  0  0  0  3  0  0  0  0  0  0
  -17.2160  -25.3270   15.5680 C   0  0  0  0  0  3  0  0  0  0  0  0
  -18.0260  -24.5900   14.6840 C   0  0  0  0  0  3  0  0  0  0  0  0
  -25.4980  -28.0100   20.9640 C   0  0  0  0  0  3  0  0  0  0  0  0
  -25.9440  -26.6550   21.6410 C   0  0  1  0  0  0  0  0  0  0  0  0
  -24.7610  -25.7740   22.1050 C   0  0  0  0  0  1  0  0  0  0  0  0
  -26.8050  -25.8190   20.6660 C   0  0  0  0  0  1  0  0  0  0  0  0
  -26.8330  -26.9500   22.8710 C   0  0  0  0  0  1  0  0  0  0  0  0
  -24.9040  -28.9170   21.9570 N   0  0  0  0  0  0  0  0  0  0  0  0
  -25.1860  -30.2230   22.0550 C   0  0  0  0  0  0  0  0  0  0  0  0
  -26.0400  -30.7780   21.3580 O   0  0  0  0  0  0  0  0  0  0  0  0
  -24.1600  -28.5400   22.5260 H   0  0  0  0  0  0  0  0  0  0  0  0
  -23.2630  -31.8090   22.3760 C   0  0  0  0  0  1  0  0  0  0  0  0
  -24.3930  -31.0460   23.0880 C   0  0  0  0  0  3  0  0  0  0  0  0
  -26.1510  -31.3260   24.7760 C   0  0  0  0  0  1  0  0  0  0  0  0
  -25.2310  -31.9920   23.8570 N   0  0  0  0  0  0  0  0  0  0  0  0
  -24.6540  -32.6280   24.4020 H   0  0  0  0  0  0  0  0  0  0  0  0
  1  5  1  0
  2  4  1  0
  2  3  2  0
  3  6  1  0
  4  1  2  0
  5  9  1  0
  6  5  2  0
  6 10  1  0
  7  2  1  0
  8  4  1  0
 11 17  1  0
 11 24  1  0
 12 17  1  0
 13 14  1  0
 13 12  1  0
 15 14  1  0
 15 28  1  0
 15 16  1  0
 17 16  1  0
 18 11  2  0
 20 23  1  0
 21 19  1  0
 22 20  1  0
 22 24  1  0
 23  1  1  0
 23 19  1  0
 24 21  1  0
 25 26  2  0
 26 45  1  0
 27 26  1  0
 27 30  1  0
 28 29  1  0
 28 25  1  0
 29 27  2  0
 30 31  1  0
 31 32  2  0
 33 36  1  0
 33 32  1  0
 34 33  2  0
 35 34  1  0
 35 30  2  0
 36 37  1  0
 37 38  1  0
 38 39  2  0
 40 39  1  0
 40 44  1  0
 41 40  2  0
 42 37  2  0
 42 41  1  0
 43 42  1  0
 45 46  1  0
 46 48  1  0
 46 49  1  0
 47 45  2  0
 50 25  1  0
 50 51  1  0
 52 50  1  0
 53  3  1  0
 53 54  1  0
 55 57  1  0
 56 58  1  0
 57 60  1  0
 59 61  1  0
 59 55  1  0
 59 56  1  0
 60 58  1  0
 60 53  1  0
 62 61  1  0
 63 65  1  0
 63 62  1  0
 64 75  2  0
 65 70  1  0
 66 76  1  0
 66 74  1  0
 67 73  1  0
 67 69  1  0
 68 74  1  0
 69 68  1  0
 70 69  2  0
 71 72  1  0
 71 65  2  0
 72 67  2  0
 73 66  1  0
 74 64  1  0
 76 78  2  0
 77 76  1  0
 79 77  1  0
 80 85  1  0
 81 77  1  0
 82 81  1  0
 83 82  1  0
 84 83  1  0
 84 80  1  0
 85 81  1  0
 85 86  2  0
 87 86  1  0
 88 87  2  0
 89 80  2  0
 89 88  1  0
 90 64  1  0
 90 91  1  0
 90 95  1  0
 91 92  1  1
 91 94  1  0
 93 91  1  0
 95 96  1  0
 95 98  1  0
 96100  1  0
 97 96  2  0
100 99  1  0
100102  1  0
102103  1  0
102101  1  0
M  ISO  4  11 100  24 100  62 101  63 101
M  END
>  <TORSDO>  (69) 
F 20

>  <SCORE>  (69) 
-8.126

>  <name>  (69) 
68

>  <ligand_id>  (69) 
68

>  <original_smiles>  (69) 
[H]c1c([H])c([H])c2c(c1[H])C([H])([H])C([H])([H])C([H])([H])C2([H])N([H])C(=O)C1([H])N(C(=O)C([H])(N([H])C(=O)C([H])(N([H])C([H])([H])[H])C([H])([H])[H])C(C([H])([H])[H])(C([H])([H])[H])C([H])([H])[H])C([H])([H])c2c([H])c(OC([H])([H])C([H])([H])C3([H])C([H])([H])C([H])([H])C([H])(N([H])c4c(Cl)c(Cl)c(C5([H])C([H])([H])C([H])([H])N(C(=O)N6C([H])([H])C([H])([H])C([H])([H])C([H])(n7nc(-c8c([H])c([H])c(Oc9c([H])c([H])c(F)c([H])c9F)c([H])c8[H])c(C(=O)N([H])[H])c7N([H])[H])C6([H])[H])C([H])([H])C5([H])[H])c(Cl)c4C([H])([H])[H])C([H])([H])C3([H])[H])c([H])c([H])c2C1([H])[H]

>  <smiles>  (69) 
[H]c1c([H])c([H])c2c(c1[H])C([H])([H])C([H])([H])C([H])([H])C2([H])N([H])C(=O)C1([H])N(C(=O)C([H])(N([H])C(=O)C([H])(N([H])C([H])([H])[H])C([H])([H])[H])C(C([H])([H])[H])(C([H])([H])[H])C([H])([H])[H])C([H])([H])c2c([H])c(OC([H])([H])C([H])([H])C3([H])C([H])([H])C([H])([H])C([H])(N([H])c4c(Cl)c(Cl)c(C5([H])C([H])([H])C([H])([H])N(C(=O)N6C([H])([H])C([H])([H])C([H])([H])C([H])(n7nc(-c8c([H])c([H])c(Oc9c([H])c([H])c(F)c([H])c9F)c([H])c8[H])c(C(=O)N([H])[H])c7N([H])[H])C6([H])[H])C([H])([H])C5([H])[H])c(Cl)c4C([H])([H])[H])C([H])([H])C3([H])[H])c([H])c([H])c2C1([H])[H]

$$$$
69:0:0
     RDKit          3D

104111  0  0  1  0  0  0  0  0999 V2000
  -28.2090  -22.1010   21.7210 C   0  0  0  0  0  3  0  0  0  0  0  0
  -27.1950  -22.1940   20.7470 C   0  0  0  0  0  0  0  0  0  0  0  0
  -26.2070  -24.0810   21.9920 C   0  0  0  0  0  0  0  0  0  0  0  0
  -28.2370  -22.9800   22.8170 C   0  0  0  0  0  0  0  0  0  0  0  0
  -26.2050  -23.2000   20.8790 C   0  0  0  0  0  3  0  0  0  0  0  0
  -27.2380  -23.9700   22.9630 C   0  0  0  0  0  0  0  0  0  0  0  0
  -29.5060  -22.8160   23.9800 Cl  0  0  0  0  0  0  0  0  0  0  0  0
  -24.9860  -23.3740   19.6640 Cl  0  0  0  0  0 15  0  0  0  0  0  0
  -27.2910  -25.0250   24.3360 Cl  0  0  0  0  0  0  0  0  0  0  0  0
  -27.2110  -21.2200   19.5680 C   0  0  0  0  0  2  0  0  0  0  0  0
  -26.6280  -21.8100   18.3410 N   0  0  0  0  0  4  0  0  0  0  0  0
  -25.7700  -22.2710   18.5880 H   0  0  0  0  0  0  0  0  0  0  0  0
  -26.3910  -21.0510   17.7210 H   0  0  0  0  0  0  0  0  0  0  0  0
  -27.5220  -22.7500   17.6270 C   0  0  0  0  0  2  0  0  0  0  0  0
  -26.9670  -24.1840   17.5450 C   0  0  0  0  0  2  0  0  0  0  0  0
  -28.1040  -25.2100   17.3800 C   0  0  0  0  0  2  0  0  0  0  0  0
  -27.9420  -26.4950   18.2120 C   0  0  0  0  0  2  0  0  0  0  0  0
  -27.5520  -27.5740   17.3710 O   0  0  0  0  0  0  0  0  0  0  0  0
  -21.4550  -23.9250   17.1080 C   0  0  0  0  0  0  0  0  0  0  0  0
  -26.2760  -27.4860   16.8860 C   0  0  0  0  0  0  0  0  0  0  0  0
  -21.6450  -25.8320   15.5420 C   0  0  0  0  0  3  0  0  0  0  0  0
  -23.6300  -27.3860   15.9260 C   0  0  0  0  0  0  0  0  0  0  0  0
  -22.9270  -25.8260   17.7530 C   0  0  0  0  0  2  0  0  0  0  0  0
  -23.9910  -26.6550   17.0660 C   0  0  0  0  0  0  0  0  0  0  0  0
  -25.3130  -26.7000   17.5490 C   0  0  0  0  0  3  0  0  0  0  0  0
  -25.9070  -28.2260   15.7460 C   0  0  0  0  0  3  0  0  0  0  0  0
  -24.5880  -28.1710   15.2560 C   0  0  0  0  0  3  0  0  0  0  0  0
  -22.1900  -27.2850   15.4810 C   0  0  0  0  0  2  0  0  0  0  0  0
  -22.0140  -25.1330   16.8160 N   0  0  0  0  0  0  0  0  0  0  0  0
  -20.6100  -23.4120   16.3600 O   0  0  0  0  0  0  0  0  0  0  0  0
  -22.1070  -25.0810   14.2740 C   0  0  0  0  0  0  0  0  0  0  0  0
  -21.8930  -25.7000   13.1020 N   0  0  0  0  0  0  0  0  0  0  0  0
  -22.6680  -23.9850   14.3560 O   0  0  0  0  0  0  0  0  0  0  0  0
  -21.4270  -26.5970   13.1200 H   0  0  0  0  0  0  0  0  0  0  0  0
  -22.2360  -26.6260    9.6270 C   0  0  0  0  0  0  0  0  0  0  0  0
  -22.2760  -25.1990   11.7830 C   0  0  0  0  0  3  0  0  0  0  0  0
  -23.8140  -25.1820   11.6200 C   0  0  0  0  0  2  0  0  0  0  0  0
  -24.3680  -26.4580   10.9810 C   0  0  0  0  0  2  0  0  0  0  0  0
  -23.7540  -26.6740    9.5940 C   0  0  0  0  0  2  0  0  0  0  0  0
  -21.5420  -25.9470   10.6640 C   0  0  0  0  0  0  0  0  0  0  0  0
  -20.1300  -25.9610   10.6680 C   0  0  0  0  0  3  0  0  0  0  0  0
  -19.4150  -26.6360    9.6610 C   0  0  0  0  0  3  0  0  0  0  0  0
  -20.1050  -27.2920    8.6280 C   0  0  0  0  0  3  0  0  0  0  0  0
  -21.5120  -27.2820    8.6090 C   0  0  0  0  0  3  0  0  0  0  0  0
  -21.8290  -23.1430   18.4060 C   0  0  0  0  0  3  0  0  0  0  0  0
  -22.5600  -21.7740   18.1180 C   0  0  1  0  0  0  0  0  0  0  0  0
  -21.6930  -20.7560   17.3420 C   0  0  0  0  0  1  0  0  0  0  0  0
  -23.8560  -22.0080   17.3050 C   0  0  0  0  0  1  0  0  0  0  0  0
  -22.9930  -21.1210   19.4520 C   0  0  0  0  0  1  0  0  0  0  0  0
  -20.5910  -22.9230   19.1620 N   0  0  0  0  0  0  0  0  0  0  0  0
  -20.2350  -23.6150   20.2540 C   0  0  0  0  0  0  0  0  0  0  0  0
  -20.9630  -24.4650   20.7760 O   0  0  0  0  0  0  0  0  0  0  0  0
  -19.9230  -22.2820   18.7590 H   0  0  0  0  0  0  0  0  0  0  0  0
  -17.8310  -24.3420   20.3490 C   0  0  0  0  0  1  0  0  0  0  0  0
  -18.8530  -23.3150   20.8630 C   0  0  0  0  0  3  0  0  0  0  0  0
  -19.5730  -22.1740   22.9140 C   0  0  0  0  0  1  0  0  0  0  0  0
  -18.8520  -23.3090   22.3420 N   0  0  0  0  0  0  0  0  0  0  0  0
  -17.9020  -23.2940   22.7030 H   0  0  0  0  0  0  0  0  0  0  0  0
  -25.0660  -25.0940   22.1520 C   0  0  0  0  0  2  0  0  0  0  0  0
  -25.5090  -26.3860   22.7330 N   0  0  0  0  0  4  0  0  0  0  0  0
  -26.4020  -26.5920   22.3070 H   0  0  0  0  0  0  0  0  0  0  0  0
  -25.6460  -26.2830   23.7250 H   0  0  0  0  0  0  0  0  0  0  0  0
  -23.6090  -27.2080   21.3290 C   0  0  0  0  0  1  0  0  0  0  0  0
  -24.6280  -27.5450   22.4340 C   0  0  0  0  0  3  0  0  0  0  0  0
  -23.4770  -29.5420   23.5790 C   0  0  0  0  0  1  0  0  0  0  0  0
  -23.9260  -28.0730   23.7120 C   0  0  0  0  0  3  0  0  0  0  0  0
  -24.4190  -27.1940   25.9990 C   0  0  0  0  0  0  0  0  0  0  0  0
  -25.1130  -26.5720   28.2830 C   0  0  0  0  0  2  0  0  0  0  0  0
  -24.7850  -27.6970   29.2850 C   0  0  0  0  0  2  0  0  0  0  0  0
  -25.9190  -28.7390   29.3320 C   0  0  0  0  0  2  0  0  0  0  0  0
  -26.3460  -29.2160   27.9190 C   0  0  0  0  0  3  0  0  0  0  0  0
  -26.5910  -28.0070   26.9910 C   0  0  0  0  0  2  0  0  0  0  0  0
  -25.3650  -27.1840   26.9730 N   0  0  0  0  0  0  0  0  0  0  0  0
  -23.3320  -26.6170   26.0990 O   0  0  0  0  0  0  0  0  0  0  0  0
  -24.7540  -27.8930   24.9070 N   0  0  0  0  0  0  0  0  0  0  0  0
  -25.6840  -28.2820   24.9250 H   0  0  0  0  0  0  0  0  0  0  0  0
  -28.5340  -30.2660   27.0580 C   0  0  0  0  0  0  0  0  0  0  0  0
  -29.3410  -31.2440   27.5720 C   0  0  0  0  0  0  0  0  0  0  0  0
  -28.7500  -31.6330   28.8140 C   0  0  0  0  0  0  0  0  0  0  0  0
  -27.5150  -30.0910   27.9820 N   0  0  0  0  0  0  0  0  0  0  0  0
  -27.6820  -30.8870   29.0670 N   0  0  0  0  0  0  0  0  0  0  0  0
  -29.1060  -32.7070   29.7490 C   0  0  0  0  0  0  0  0  0  0  0  0
  -30.0250  -32.4970   30.8000 C   0  0  0  0  0  3  0  0  0  0  0  0
  -30.3650  -33.5500   31.6750 C   0  0  0  0  0  3  0  0  0  0  0  0
  -29.7870  -34.8310   31.5030 C   0  0  0  0  0  0  0  0  0  0  0  0
  -28.8540  -35.0280   30.4690 C   0  0  0  0  0  3  0  0  0  0  0  0
  -28.5140  -33.9780   29.6010 C   0  0  0  0  0  3  0  0  0  0  0  0
  -30.0360  -35.9050   32.3220 O   0  0  0  0  0  0  0  0  0  0  0  0
  -31.2560  -36.5330   32.3340 C   0  0  0  0  0  0  0  0  0  0  0  0
  -31.7810  -37.1640   31.1860 C   0  0  0  0  0  3  0  0  0  0  0  0
  -33.0060  -37.8560   31.2620 C   0  0  0  0  0  3  0  0  0  0  0  0
  -33.7020  -37.9260   32.4850 C   0  0  0  0  0  0  0  0  0  0  0  0
  -33.1780  -37.3010   33.6300 C   0  0  0  0  0  3  0  0  0  0  0  0
  -31.9560  -36.6100   33.5550 C   0  0  0  0  0  0  0  0  0  0  0  0
  -31.4450  -36.0280   34.6670 F   0  0  0  0  0  0  0  0  0  0  0  0
  -34.8750  -38.5980   32.5590 F   0  0  0  0  0  0  0  0  0  0  0  0
  -30.5410  -31.8580   26.9070 C   0  0  0  0  0  0  0  0  0  0  0  0
  -31.5500  -32.2290   27.6860 N   0  0  0  0  0  0  0  0  0  0  0  0
  -30.6070  -31.9660   25.6820 O   0  0  0  0  0  0  0  0  0  0  0  0
  -31.5030  -32.1230   28.6880 H   0  0  0  0  0  0  0  0  0  0  0  0
  -32.3810  -32.6280   27.2720 H   0  0  0  0  0  0  0  0  0  0  0  0
  -28.5700  -29.5240   25.8810 N   0  0  0  0  0  0  0  0  0  0  0  0
  -29.2490  -29.7210   25.1540 H   0  0  0  0  0  0  0  0  0  0  0  0
  -27.8250  -28.9130   25.5740 H   0  0  0  0  0  0  0  0  0  0  0  0
  1  4  1  0
  2  5  1  0
  2  1  2  0
  3 59  1  0
  3  6  1  0
  4  6  2  0
  4  7  1  0
  5  3  2  0
  6  9  1  0
 10  2  1  0
 11 12  1  0
 11 10  1  0
 13 11  1  0
 14 11  1  0
 15 14  1  0
 16 15  1  0
 16 17  1  0
 18 17  1  0
 20 18  1  0
 20 25  1  0
 21 31  1  0
 21 29  1  0
 22 24  1  0
 24 25  2  0
 24 23  1  0
 26 20  2  0
 27 26  1  0
 27 22  2  0
 28 21  1  0
 28 22  1  0
 29 19  1  0
 29 23  1  0
 30 19  2  0
 31 33  2  0
 32 34  1  0
 32 31  1  0
 35 40  1  0
 36 32  1  0
 37 36  1  0
 38 37  1  0
 39 35  1  0
 39 38  1  0
 40 41  2  0
 40 36  1  0
 42 41  1  0
 43 42  2  0
 44 43  1  0
 44 35  2  0
 45 19  1  0
 45 50  1  0
 46 45  1  0
 46 49  1  1
 47 46  1  0
 48 46  1  0
 50 51  1  0
 51 52  2  0
 51 55  1  0
 53 50  1  0
 55 54  1  0
 55 57  1  0
 57 58  1  0
 57 56  1  0
 59 60  1  0
 60 62  1  0
 61 60  1  0
 64 63  1  0
 64 60  1  0
 64 66  1  0
 66 65  1  0
 66 75  1  0
 67 74  2  0
 67 73  1  0
 68 69  1  0
 69 70  1  0
 71 72  1  0
 71 80  1  0
 71 70  1  0
 73 72  1  0
 73 68  1  0
 75 76  1  0
 75 67  1  0
 77 78  2  0
 77 80  1  0
 78 79  1  0
 79 81  2  0
 79 82  1  0
 80 81  1  0
 82 83  1  0
 83 84  2  0
 85 84  1  0
 85 88  1  0
 86 85  2  0
 87 82  2  0
 87 86  1  0
 88 89  1  0
 89 94  1  0
 90 91  1  0
 90 89  2  0
 91 92  2  0
 92 96  1  0
 92 93  1  0
 94 93  2  0
 94 95  1  0
 97 78  1  0
 97 98  1  0
 98100  1  0
 99 97  2  0
101 98  1  0
102 77  1  0
103102  1  0
104102  1  0
M  ISO  4  17 101  18 101  67 100  75 100
M  END
>  <TORSDO>  (70) 
F 26

>  <SCORE>  (70) 
5.859

>  <name>  (70) 
69

>  <ligand_id>  (70) 
69

>  <original_smiles>  (70) 
[H]c1c([H])c([H])c2c(c1[H])C([H])([H])C([H])([H])C([H])([H])C2([H])N([H])C(=O)C1([H])N(C(=O)C([H])(N([H])C(=O)C([H])(N([H])C([H])([H])[H])C([H])([H])[H])C(C([H])([H])[H])(C([H])([H])[H])C([H])([H])[H])C([H])([H])c2c([H])c(OC([H])([H])C([H])([H])C([H])([H])C([H])([H])[N+]([H])([H])C([H])([H])c3c([H])c(Cl)c(Cl)c(C([H])([H])[N+]([H])([H])C([H])(C([H])([H])[H])C([H])(N([H])C(=O)N4C([H])([H])C([H])([H])C([H])([H])C([H])(n5nc(-c6c([H])c([H])c(Oc7c([H])c([H])c(F)c([H])c7F)c([H])c6[H])c(C(=O)N([H])[H])c5N([H])[H])C4([H])[H])C([H])([H])[H])c3Cl)c([H])c([H])c2C1([H])[H]

>  <smiles>  (70) 
[H]c1c([H])c([H])c2c(c1[H])C([H])([H])C([H])([H])C([H])([H])C2([H])N([H])C(=O)C1([H])N(C(=O)C([H])(N([H])C(=O)C([H])(N([H])C([H])([H])[H])C([H])([H])[H])C(C([H])([H])[H])(C([H])([H])[H])C([H])([H])[H])C([H])([H])c2c([H])c(OC([H])([H])C([H])([H])C([H])([H])C([H])([H])[N+]([H])([H])C([H])([H])c3c([H])c(Cl)c(Cl)c(C([H])([H])[N+]([H])([H])C([H])(C([H])([H])[H])C([H])(N([H])C(=O)N4C([H])([H])C([H])([H])C([H])([H])C([H])(n5nc(-c6c([H])c([H])c(Oc7c([H])c([H])c(F)c([H])c7F)c([H])c6[H])c(C(=O)N([H])[H])c5N([H])[H])C4([H])[H])C([H])([H])[H])c3Cl)c([H])c([H])c2C1([H])[H]

$$$$
70:0:0
     RDKit          3D

 90 98  0  0  1  0  0  0  0  0999 V2000
  -30.0060  -18.9150   19.2730 C   0  0  0  0  0  3  0  0  0  0  0  0
  -29.3570  -17.7520   19.8000 C   0  0  0  0  0  0  0  0  0  0  0  0
  -28.2290  -18.4100   20.3980 C   0  0  0  0  0  0  0  0  0  0  0  0
  -28.2160  -19.7610   20.2640 N   0  0  0  0  0  0  0  0  0  0  0  0
  -29.2940  -20.1780   19.5420 N   0  0  0  0  0  0  0  0  0  0  0  0
  -30.3730  -15.0980   19.5180 C   0  0  0  0  0  0  0  0  0  0  0  0
  -30.3600  -12.6690   18.7050 C   0  0  0  0  0  2  0  0  0  0  0  0
  -29.3050  -12.4690   17.5890 C   0  0  0  0  0  2  0  0  0  0  0  0
  -27.9130  -12.1900   18.1890 C   0  0  0  0  0  2  0  0  0  0  0  0
  -27.5680  -13.1610   19.3470 C   0  0  0  0  0  3  0  0  0  0  0  0
  -28.7320  -13.3040   20.3510 C   0  0  0  0  0  2  0  0  0  0  0  0
  -29.8940  -13.7820   19.5870 N   0  0  0  0  0  0  0  0  0  0  0  0
  -31.5410  -15.2390   19.1340 O   0  0  0  0  0  0  0  0  0  0  0  0
  -29.4480  -16.1930   19.6540 N   0  0  0  0  0  0  0  0  0  0  0  0
  -28.5650  -15.7760   19.9080 H   0  0  0  0  0  0  0  0  0  0  0  0
  -25.3570  -13.6820   20.5200 C   0  0  0  0  0  0  0  0  0  0  0  0
  -24.3270  -12.8920   20.9420 C   0  0  0  0  0  0  0  0  0  0  0  0
  -24.7100  -11.5490   20.6370 C   0  0  0  0  0  0  0  0  0  0  0  0
  -26.3090  -12.8230   19.9980 N   0  0  0  0  0  0  0  0  0  0  0  0
  -25.9370  -11.5240   20.1280 N   0  0  0  0  0  0  0  0  0  0  0  0
  -23.9510  -10.2960   20.7420 C   0  0  0  0  0  0  0  0  0  0  0  0
  -24.4290   -9.2030   21.4970 C   0  0  0  0  0  3  0  0  0  0  0  0
  -23.6710   -8.0170   21.6000 C   0  0  0  0  0  3  0  0  0  0  0  0
  -22.4210   -7.9160   20.9460 C   0  0  0  0  0  0  0  0  0  0  0  0
  -21.9590   -8.9980   20.1760 C   0  0  0  0  0  3  0  0  0  0  0  0
  -22.7170  -10.1760   20.0710 C   0  0  0  0  0  3  0  0  0  0  0  0
  -21.6280   -6.7940   20.9700 O   0  0  0  0  0  0  0  0  0  0  0  0
  -21.6040   -5.9520   22.0540 C   0  0  0  0  0  0  0  0  0  0  0  0
  -21.2330   -6.4040   23.3390 C   0  0  0  0  0  3  0  0  0  0  0  0
  -21.1550   -5.4900   24.4110 C   0  0  0  0  0  3  0  0  0  0  0  0
  -21.4360   -4.1280   24.1970 C   0  0  0  0  0  0  0  0  0  0  0  0
  -21.8000   -3.6750   22.9160 C   0  0  0  0  0  3  0  0  0  0  0  0
  -21.8800   -4.5850   21.8470 C   0  0  0  0  0  0  0  0  0  0  0  0
  -22.2100   -4.1410   20.6100 F   0  0  0  0  0  0  0  0  0  0  0  0
  -21.3530   -3.2490   25.2230 F   0  0  0  0  0  0  0  0  0  0  0  0
  -23.0130  -13.3630   21.4930 C   0  0  0  0  0  0  0  0  0  0  0  0
  -22.3870  -12.5670   22.3520 N   0  0  0  0  0  0  0  0  0  0  0  0
  -22.5580  -14.4690   21.2010 O   0  0  0  0  0  0  0  0  0  0  0  0
  -22.7720  -11.6690   22.6060 H   0  0  0  0  0  0  0  0  0  0  0  0
  -21.5130  -12.8600   22.7630 H   0  0  0  0  0  0  0  0  0  0  0  0
  -25.5490  -15.0590   20.5000 N   0  0  0  0  0  0  0  0  0  0  0  0
  -24.8090  -15.6940   20.7790 H   0  0  0  0  0  0  0  0  0  0  0  0
  -26.2910  -15.5220   19.9910 H   0  0  0  0  0  0  0  0  0  0  0  0
  -27.0940  -17.7620   21.1520 C   0  0  0  0  0  2  0  0  0  0  0  0
  -25.4350  -17.8550   19.1620 C   0  0  0  0  0  1  0  0  0  0  0  0
  -26.0980  -17.0060   20.2570 C   0  0  0  0  0  2  0  0  0  0  0  0
  -29.6200  -21.7630   19.4800 C   0  0  0  0  0  2  0  0  0  0  0  0
  -28.6520  -23.1170   19.0480 C   0  0  0  0  0  2  0  0  0  0  0  0
  -28.4530  -24.6390   19.8450 C   0  0  0  0  0  2  0  0  0  0  0  0
  -28.4050  -26.1630   19.4230 O   0  0  0  0  0  0  0  0  0  0  0  0
  -24.5950  -31.5190   22.9470 C   0  0  0  0  0  0  0  0  0  0  0  0
  -27.2890  -27.0820   19.5670 C   0  0  0  0  0  0  0  0  0  0  0  0
  -23.4170  -30.1940   21.2340 C   0  0  0  0  0  3  0  0  0  0  0  0
  -24.8970  -28.7580   19.6910 C   0  0  0  0  0  0  0  0  0  0  0  0
  -25.9590  -30.5550   21.0480 C   0  0  0  0  0  2  0  0  0  0  0  0
  -26.0730  -29.2060   20.3050 C   0  0  0  0  0  0  0  0  0  0  0  0
  -27.2700  -28.3900   20.2160 C   0  0  0  0  0  3  0  0  0  0  0  0
  -26.0760  -26.7360   18.9380 C   0  0  0  0  0  3  0  0  0  0  0  0
  -24.9110  -27.5390   18.9930 C   0  0  0  0  0  3  0  0  0  0  0  0
  -23.6420  -29.6140   19.8120 C   0  0  0  0  0  2  0  0  0  0  0  0
  -24.6780  -30.7770   21.7990 N   0  0  0  0  0  0  0  0  0  0  0  0
  -23.5090  -31.7250   23.5100 O   0  0  0  0  0  0  0  0  0  0  0  0
  -22.7890  -29.1030   22.1370 C   0  0  0  0  0  0  0  0  0  0  0  0
  -21.4590  -28.9230   22.0530 N   0  0  0  0  0  0  0  0  0  0  0  0
  -23.5020  -28.4200   22.8780 O   0  0  0  0  0  0  0  0  0  0  0  0
  -20.9400  -29.5300   21.4330 H   0  0  0  0  0  0  0  0  0  0  0  0
  -18.1110  -27.6560   22.6220 C   0  0  0  0  0  0  0  0  0  0  0  0
  -20.6820  -27.9120   22.7730 C   0  0  0  0  0  3  0  0  0  0  0  0
  -20.7540  -26.5410   22.0600 C   0  0  0  0  0  2  0  0  0  0  0  0
  -19.5990  -26.3080   21.0800 C   0  0  0  0  0  2  0  0  0  0  0  0
  -18.2540  -26.3790   21.8090 C   0  0  0  0  0  2  0  0  0  0  0  0
  -19.2500  -28.3830   23.0590 C   0  0  0  0  0  0  0  0  0  0  0  0
  -19.0600  -29.5790   23.7850 C   0  0  0  0  0  3  0  0  0  0  0  0
  -17.7650  -30.0490   24.0730 C   0  0  0  0  0  3  0  0  0  0  0  0
  -16.6420  -29.3170   23.6480 C   0  0  0  0  0  3  0  0  0  0  0  0
  -16.8170  -28.1230   22.9280 C   0  0  0  0  0  3  0  0  0  0  0  0
  -25.8580  -32.1580   23.5990 C   0  0  0  0  0  3  0  0  0  0  0  0
  -25.5130  -33.5350   23.9930 N   0  0  0  0  0  0  0  0  0  0  0  0
  -25.8440  -34.6340   23.3010 C   0  0  0  0  0  0  0  0  0  0  0  0
  -26.5360  -34.5960   22.2810 O   0  0  0  0  0  0  0  0  0  0  0  0
  -24.8990  -33.6350   24.7870 H   0  0  0  0  0  0  0  0  0  0  0  0
  -24.0970  -36.4240   23.0120 C   0  0  0  0  0  1  0  0  0  0  0  0
  -25.3280  -35.9900   23.8240 C   0  0  0  0  0  3  0  0  0  0  0  0
  -27.4280  -36.8650   24.7500 C   0  0  0  0  0  1  0  0  0  0  0  0
  -26.3460  -37.0620   23.7880 N   0  0  0  0  0  0  0  0  0  0  0  0
  -25.9230  -37.9680   23.9710 H   0  0  0  0  0  0  0  0  0  0  0  0
  -26.3880  -31.3500   24.8490 C   0  0  1  0  0  0  0  0  0  0  0  0
  -25.3020  -31.0680   25.9150 C   0  0  0  0  0  1  0  0  0  0  0  0
  -26.9810  -29.9920   24.4130 C   0  0  0  0  0  1  0  0  0  0  0  0
  -27.5350  -32.1330   25.5300 C   0  0  0  0  0  1  0  0  0  0  0  0
  1  5  1  0
  1  2  2  0
  2  3  1  0
  3 44  1  0
  4  3  2  0
  5  4  1  0
  6 12  1  0
  6 14  1  0
  7 12  1  0
  8  9  1  0
  8  7  1  0
 10  9  1  0
 10 19  1  0
 10 11  1  0
 12 11  1  0
 13  6  2  0
 14  2  1  0
 14 15  1  0
 16 17  2  0
 17 36  1  0
 18 21  1  0
 18 17  1  0
 19 20  1  0
 19 16  1  0
 20 18  2  0
 21 22  1  0
 22 23  2  0
 24 27  1  0
 24 23  1  0
 25 24  2  0
 26 25  1  0
 26 21  2  0
 27 28  1  0
 28 29  1  0
 29 30  2  0
 31 30  1  0
 31 35  1  0
 32 31  2  0
 33 28  2  0
 33 32  1  0
 34 33  1  0
 36 37  1  0
 37 39  1  0
 37 40  1  0
 38 36  2  0
 41 16  1  0
 41 42  1  0
 43 41  1  0
 45 46  1  0
 46 44  1  0
 47  5  1  0
 48 47  1  0
 48 49  1  0
 50 52  1  0
 50 49  1  0
 51 62  2  0
 52 57  1  0
 53 61  1  0
 53 63  1  0
 54 60  1  0
 54 56  1  0
 55 61  1  0
 56 55  1  0
 57 56  2  0
 58 59  1  0
 58 52  2  0
 59 54  2  0
 60 53  1  0
 61 51  1  0
 63 65  2  0
 64 63  1  0
 66 64  1  0
 67 76  2  0
 67 72  1  0
 68 64  1  0
 68 72  1  0
 69 68  1  0
 70 71  1  0
 70 69  1  0
 71 67  1  0
 72 73  2  0
 73 74  1  0
 75 74  2  0
 76 75  1  0
 77 51  1  0
 77 78  1  0
 77 87  1  0
 78 81  1  0
 79 83  1  0
 79 78  1  0
 80 79  2  0
 83 82  1  0
 85 83  1  0
 85 86  1  0
 85 84  1  0
 87 90  1  1
 87 88  1  0
 89 87  1  0
M  ISO  4   6 100  14 100  49 101  50 101
M  END
>  <TORSDO>  (71) 
F 21

>  <SCORE>  (71) 
-10.393

>  <name>  (71) 
70

>  <ligand_id>  (71) 
70

>  <original_smiles>  (71) 
[H]c1c([H])c([H])c2c(c1[H])C([H])([H])C([H])([H])C([H])([H])C2([H])N([H])C(=O)C1([H])N(C(=O)C([H])(N([H])C(=O)C([H])(N([H])C([H])([H])[H])C([H])([H])[H])C(C([H])([H])[H])(C([H])([H])[H])C([H])([H])[H])C([H])([H])c2c([H])c(OC([H])([H])C([H])([H])C([H])([H])n3nc(C([H])([H])C([H])([H])C([H])([H])[H])c(N([H])C(=O)N4C([H])([H])C([H])([H])C([H])([H])C([H])(n5nc(-c6c([H])c([H])c(Oc7c([H])c([H])c(F)c([H])c7F)c([H])c6[H])c(C(=O)N([H])[H])c5N([H])[H])C4([H])[H])c3[H])c([H])c([H])c2C1([H])[H]

>  <smiles>  (71) 
[H]c1c([H])c([H])c2c(c1[H])C([H])([H])C([H])([H])C([H])([H])C2([H])N([H])C(=O)C1([H])N(C(=O)C([H])(N([H])C(=O)C([H])(N([H])C([H])([H])[H])C([H])([H])[H])C(C([H])([H])[H])(C([H])([H])[H])C([H])([H])[H])C([H])([H])c2c([H])c(OC([H])([H])C([H])([H])C([H])([H])n3nc(C([H])([H])C([H])([H])C([H])([H])[H])c(N([H])C(=O)N4C([H])([H])C([H])([H])C([H])([H])C([H])(n5nc(-c6c([H])c([H])c(Oc7c([H])c([H])c(F)c([H])c7F)c([H])c6[H])c(C(=O)N([H])[H])c5N([H])[H])C4([H])[H])c3[H])c([H])c([H])c2C1([H])[H]

$$$$
71:0:0
     RDKit          3D

 92100  0  0  1  0  0  0  0  0999 V2000
  -30.0320  -18.8170   20.6510 C   0  0  0  0  0  0  0  0  0  0  0  0
  -30.7670  -18.9660   21.8620 C   0  0  0  0  0  0  0  0  0  0  0  0
  -29.4810  -20.0560   20.1090 C   0  0  0  0  0  0  0  0  0  0  0  0
  -30.7310  -20.2130   22.5430 C   0  0  0  0  0  0  0  0  0  0  0  0
  -29.6110  -21.3260   20.8040 C   0  0  0  0  0  0  0  0  0  0  0  0
  -31.6770  -17.8560   22.3890 C   0  0  0  0  0  1  0  0  0  0  0  0
  -31.3290  -20.3830   23.9390 C   0  0  0  0  0  1  0  0  0  0  0  0
  -30.1830  -21.3410   22.0300 N   0  0  0  0  0  0  0  0  0  0  0  0
  -28.7180  -20.0360   18.5580 Cl  0  0  0  0  0  0  0  0  0  0  0  0
  -29.9720  -17.4170   19.8730 C   0  0  0  0  0  2  0  0  0  0  0  0
  -30.5960  -14.9090   20.2330 C   0  0  0  0  0  0  0  0  0  0  0  0
  -30.3890  -12.6320   19.2320 C   0  0  0  0  0  2  0  0  0  0  0  0
  -29.4280  -12.7310   18.0250 C   0  0  0  0  0  2  0  0  0  0  0  0
  -27.9600  -12.5690   18.4660 C   0  0  0  0  0  2  0  0  0  0  0  0
  -27.6130  -13.4070   19.7240 C   0  0  0  0  0  3  0  0  0  0  0  0
  -28.7010  -13.3050   20.8210 C   0  0  0  0  0  2  0  0  0  0  0  0
  -29.9840  -13.6730   20.2090 N   0  0  0  0  0  0  0  0  0  0  0  0
  -31.7440  -15.0300   19.7970 O   0  0  0  0  0  0  0  0  0  0  0  0
  -29.8400  -16.0320   20.5130 N   0  0  0  0  0  0  0  0  0  0  0  0
  -28.9470  -15.8510   20.9460 H   0  0  0  0  0  0  0  0  0  0  0  0
  -25.2300  -13.9500   20.5080 C   0  0  0  0  0  0  0  0  0  0  0  0
  -24.1820  -13.1540   20.8890 C   0  0  0  0  0  0  0  0  0  0  0  0
  -24.6610  -11.8100   20.8200 C   0  0  0  0  0  0  0  0  0  0  0  0
  -26.2810  -13.0900   20.2330 N   0  0  0  0  0  0  0  0  0  0  0  0
  -25.9450  -11.7960   20.4780 N   0  0  0  0  0  0  0  0  0  0  0  0
  -23.9500  -10.5370   20.9960 C   0  0  0  0  0  0  0  0  0  0  0  0
  -24.3920   -9.5650   21.9210 C   0  0  0  0  0  3  0  0  0  0  0  0
  -23.6800   -8.3570   22.0860 C   0  0  0  0  0  3  0  0  0  0  0  0
  -22.5090   -8.1140   21.3300 C   0  0  0  0  0  0  0  0  0  0  0  0
  -22.0830   -9.0750   20.3950 C   0  0  0  0  0  3  0  0  0  0  0  0
  -22.7970  -10.2740   20.2270 C   0  0  0  0  0  3  0  0  0  0  0  0
  -21.7620   -6.9630   21.4120 O   0  0  0  0  0  0  0  0  0  0  0  0
  -21.7070   -6.2190   22.5630 C   0  0  0  0  0  0  0  0  0  0  0  0
  -21.2180   -6.7570   23.7740 C   0  0  0  0  0  3  0  0  0  0  0  0
  -21.1110   -5.9390   24.9150 C   0  0  0  0  0  3  0  0  0  0  0  0
  -21.4870   -4.5830   24.8480 C   0  0  0  0  0  0  0  0  0  0  0  0
  -21.9690   -4.0420   23.6420 C   0  0  0  0  0  3  0  0  0  0  0  0
  -22.0760   -4.8590   22.5010 C   0  0  0  0  0  0  0  0  0  0  0  0
  -22.5230   -4.3280   21.3380 F   0  0  0  0  0  0  0  0  0  0  0  0
  -21.3740   -3.7950   25.9420 F   0  0  0  0  0  0  0  0  0  0  0  0
  -22.7860  -13.6110   21.2000 C   0  0  0  0  0  0  0  0  0  0  0  0
  -22.0810  -12.8910   22.0670 N   0  0  0  0  0  0  0  0  0  0  0  0
  -22.3290  -14.6440   20.7150 O   0  0  0  0  0  0  0  0  0  0  0  0
  -22.4550  -12.0550   22.4900 H   0  0  0  0  0  0  0  0  0  0  0  0
  -21.1490  -13.1870   22.3180 H   0  0  0  0  0  0  0  0  0  0  0  0
  -25.3660  -15.3270   20.3530 N   0  0  0  0  0  0  0  0  0  0  0  0
  -24.5860  -15.9570   20.5030 H   0  0  0  0  0  0  0  0  0  0  0  0
  -26.1720  -15.7910   19.9600 H   0  0  0  0  0  0  0  0  0  0  0  0
  -29.3970  -22.7870   20.1800 C   0  0  0  0  0  2  0  0  0  0  0  0
  -28.2040  -23.7990   20.5860 C   0  0  0  0  0  2  0  0  0  0  0  0
  -28.4240  -25.3230   21.1150 C   0  0  0  0  0  2  0  0  0  0  0  0
  -28.4060  -26.5830   20.3060 O   0  0  0  0  0  0  0  0  0  0  0  0
  -24.6130  -31.9890   23.3590 C   0  0  0  0  0  0  0  0  0  0  0  0
  -27.2770  -27.4270   20.3300 C   0  0  0  0  0  0  0  0  0  0  0  0
  -23.4260  -30.5780   21.7180 C   0  0  0  0  0  3  0  0  0  0  0  0
  -24.8950  -29.0240   20.3040 C   0  0  0  0  0  0  0  0  0  0  0  0
  -25.9630  -30.9120   21.5410 C   0  0  0  0  0  2  0  0  0  0  0  0
  -26.0570  -29.5290   20.8990 C   0  0  0  0  0  0  0  0  0  0  0  0
  -27.2540  -28.7440   20.8960 C   0  0  0  0  0  3  0  0  0  0  0  0
  -26.0940  -26.9790   19.7090 C   0  0  0  0  0  3  0  0  0  0  0  0
  -24.9160  -27.7550   19.7000 C   0  0  0  0  0  3  0  0  0  0  0  0
  -23.6480  -29.8870   20.3450 C   0  0  0  0  0  2  0  0  0  0  0  0
  -24.6850  -31.1830   22.2600 N   0  0  0  0  0  0  0  0  0  0  0  0
  -23.5250  -32.2520   23.8940 O   0  0  0  0  0  0  0  0  0  0  0  0
  -22.7720  -29.5700   22.6920 C   0  0  0  0  0  0  0  0  0  0  0  0
  -21.4480  -29.3780   22.5640 N   0  0  0  0  0  0  0  0  0  0  0  0
  -23.4560  -28.9560   23.5150 O   0  0  0  0  0  0  0  0  0  0  0  0
  -20.9510  -29.9390   21.8870 H   0  0  0  0  0  0  0  0  0  0  0  0
  -18.0890  -28.0360   22.9580 C   0  0  0  0  0  0  0  0  0  0  0  0
  -20.6540  -28.3900   23.2910 C   0  0  0  0  0  0  0  0  0  0  0  0
  -20.9140  -26.9810   22.6920 C   0  0  0  0  0  3  0  0  0  0  0  0
  -19.7330  -26.3500   21.9290 C   0  0  0  0  0  3  0  0  0  0  0  0
  -18.2650  -26.7290   22.2010 C   0  0  0  0  0  3  0  0  0  0  0  0
  -19.1830  -28.8260   23.4120 C   0  0  0  0  0  0  0  0  0  0  0  0
  -18.9080  -30.0860   23.9940 C   0  0  0  0  0  3  0  0  0  0  0  0
  -17.5860  -30.5530   24.1230 C   0  0  0  0  0  3  0  0  0  0  0  0
  -16.5140  -29.7550   23.6960 C   0  0  0  0  0  3  0  0  0  0  0  0
  -16.7680  -28.5000   23.1210 C   0  0  0  0  0  3  0  0  0  0  0  0
  -25.8870  -32.6370   23.9850 C   0  0  0  0  0  3  0  0  0  0  0  0
  -26.3990  -31.8830   25.2720 C   0  0  1  0  0  0  0  0  0  0  0  0
  -25.3010  -31.6450   26.3350 C   0  0  0  0  0  1  0  0  0  0  0  0
  -26.9920  -30.5040   24.9020 C   0  0  0  0  0  1  0  0  0  0  0  0
  -27.5410  -32.6910   25.9300 C   0  0  0  0  0  1  0  0  0  0  0  0
  -25.5630  -34.0360   24.2980 N   0  0  0  0  0  0  0  0  0  0  0  0
  -25.8840  -35.0840   23.5270 C   0  0  0  0  0  0  0  0  0  0  0  0
  -26.5480  -34.9750   22.4930 O   0  0  0  0  0  0  0  0  0  0  0  0
  -24.9730  -34.1920   25.1010 H   0  0  0  0  0  0  0  0  0  0  0  0
  -24.1460  -36.8640   23.1550 C   0  0  0  0  0  1  0  0  0  0  0  0
  -25.3870  -36.4730   23.9720 C   0  0  0  0  0  3  0  0  0  0  0  0
  -27.5110  -37.3850   24.8040 C   0  0  0  0  0  1  0  0  0  0  0  0
  -26.4140  -37.5310   23.8500 N   0  0  0  0  0  0  0  0  0  0  0  0
  -26.0020  -38.4510   23.9760 H   0  0  0  0  0  0  0  0  0  0  0  0
  1  2  1  0
  2  6  1  0
  2  4  2  0
  3  1  2  0
  3  5  1  0
  4  7  1  0
  5  8  2  0
  8  4  1  0
  9  3  1  0
 10 19  1  0
 10  1  1  0
 11 19  1  0
 12 17  1  0
 13 14  1  0
 13 12  1  0
 15 14  1  0
 15 24  1  0
 15 16  1  0
 17 11  1  0
 17 16  1  0
 18 11  2  0
 19 20  1  0
 21 22  2  0
 22 41  1  0
 23 22  1  0
 23 26  1  0
 24 25  1  0
 24 21  1  0
 25 23  2  0
 26 27  1  0
 27 28  2  0
 29 32  1  0
 29 28  1  0
 30 29  2  0
 31 30  1  0
 31 26  2  0
 32 33  1  0
 33 34  1  0
 34 35  2  0
 36 35  1  0
 36 40  1  0
 37 36  2  0
 38 33  2  0
 38 37  1  0
 39 38  1  0
 41 42  1  0
 42 45  1  0
 42 44  1  0
 43 41  2  0
 46 47  1  0
 46 21  1  0
 48 46  1  0
 49 50  1  0
 49  5  1  0
 50 51  1  0
 52 54  1  0
 52 51  1  0
 53 64  2  0
 54 59  1  0
 55 63  1  0
 55 65  1  0
 56 62  1  0
 56 58  1  0
 57 63  1  0
 58 57  1  0
 59 58  2  0
 60 54  2  0
 61 60  1  0
 61 56  2  0
 62 55  1  0
 63 53  1  0
 65 67  2  0
 66 65  1  0
 66 70  1  0
 68 66  1  0
 69 78  2  0
 69 74  1  0
 70 74  1  0
 71 70  2  0
 72 73  2  0
 72 71  1  0
 73 69  1  0
 74 75  2  0
 75 76  1  0
 77 76  2  0
 78 77  1  0
 79 53  1  0
 79 84  1  0
 79 80  1  0
 80 83  1  1
 80 81  1  0
 82 80  1  0
 84 87  1  0
 85 89  1  0
 85 84  1  0
 86 85  2  0
 89 88  1  0
 91 89  1  0
 91 92  1  0
 91 90  1  0
M  ISO  4  11 100  19 100  51 101  52 101
M  END
>  <TORSDO>  (72) 
F 20

>  <SCORE>  (72) 
-13.603

>  <name>  (72) 
71

>  <ligand_id>  (72) 
71

>  <original_smiles>  (72) 
[H]c1c([H])c([H])c2c(c1[H])C([H])([H])C([H])([H])C([H])([H])C2([H])N([H])C(=O)C1([H])N(C(=O)C([H])(N([H])C(=O)C([H])(N([H])C([H])([H])[H])C([H])([H])[H])C(C([H])([H])[H])(C([H])([H])[H])C([H])([H])[H])C([H])([H])c2c([H])c(OC([H])([H])C([H])([H])C([H])([H])c3nc(C([H])([H])[H])c(C([H])([H])[H])c(C([H])([H])N([H])C(=O)N4C([H])([H])C([H])([H])C([H])([H])C([H])(n5nc(-c6c([H])c([H])c(Oc7c([H])c([H])c(F)c([H])c7F)c([H])c6[H])c(C(=O)N([H])[H])c5N([H])[H])C4([H])[H])c3Cl)c([H])c([H])c2C1([H])[H]

>  <smiles>  (72) 
[H]c1c([H])c([H])c2c(c1[H])C([H])([H])C([H])([H])C([H])([H])C2([H])N([H])C(=O)C1([H])N(C(=O)C([H])(N([H])C(=O)C([H])(N([H])C([H])([H])[H])C([H])([H])[H])C(C([H])([H])[H])(C([H])([H])[H])C([H])([H])[H])C([H])([H])c2c([H])c(OC([H])([H])C([H])([H])C([H])([H])c3nc(C([H])([H])[H])c(C([H])([H])[H])c(C([H])([H])N([H])C(=O)N4C([H])([H])C([H])([H])C([H])([H])C([H])(n5nc(-c6c([H])c([H])c(Oc7c([H])c([H])c(F)c([H])c7F)c([H])c6[H])c(C(=O)N([H])[H])c5N([H])[H])C4([H])[H])c3Cl)c([H])c([H])c2C1([H])[H]

$$$$
72:0:0
     RDKit          3D

 98106  0  0  1  0  0  0  0  0999 V2000
  -27.3620  -20.6540   18.1310 C   0  0  0  0  0  1  0  0  0  0  0  0
  -28.1660  -21.8540   18.7110 C   0  0  0  0  0  3  0  0  0  0  0  0
  -27.0220  -23.4010   17.0590 C   0  0  0  0  0  1  0  0  0  0  0  0
  -27.4100  -23.2500   18.5640 C   0  0  2  0  0  0  0  0  0  0  0  0
  -29.7540  -24.4200   18.2740 C   0  0  0  0  0  1  0  0  0  0  0  0
  -28.3260  -24.5350   18.8510 C   0  0  0  0  0  3  0  0  0  0  0  0
  -28.4210  -25.1700   20.2830 C   0  0  0  0  0  2  0  0  0  0  0  0
  -28.5490  -26.6090   20.2500 O   0  0  0  0  0  0  0  0  0  0  0  0
  -24.8660  -31.8440   23.3950 C   0  0  0  0  0  0  0  0  0  0  0  0
  -27.3960  -27.3750   20.2540 C   0  0  0  0  0  0  0  0  0  0  0  0
  -23.6410  -30.5450   21.6860 C   0  0  0  0  0  3  0  0  0  0  0  0
  -25.0620  -28.9900   20.2540 C   0  0  0  0  0  0  0  0  0  0  0  0
  -26.1840  -30.8020   21.5500 C   0  0  0  0  0  2  0  0  0  0  0  0
  -26.2290  -29.4450   20.8800 C   0  0  0  0  0  0  0  0  0  0  0  0
  -27.3990  -28.6500   20.8720 C   0  0  0  0  0  3  0  0  0  0  0  0
  -26.2040  -26.9410   19.6330 C   0  0  0  0  0  3  0  0  0  0  0  0
  -25.0460  -27.7360   19.6230 C   0  0  0  0  0  3  0  0  0  0  0  0
  -23.8590  -29.9040   20.2900 C   0  0  0  0  0  2  0  0  0  0  0  0
  -24.9160  -31.0760   22.2700 N   0  0  0  0  0  0  0  0  0  0  0  0
  -23.7830  -32.1430   23.9190 O   0  0  0  0  0  0  0  0  0  0  0  0
  -22.9270  -29.5220   22.6000 C   0  0  0  0  0  0  0  0  0  0  0  0
  -21.5980  -29.4050   22.4420 N   0  0  0  0  0  0  0  0  0  0  0  0
  -23.5660  -28.8450   23.4080 O   0  0  0  0  0  0  0  0  0  0  0  0
  -21.1470  -30.0050   21.7650 H   0  0  0  0  0  0  0  0  0  0  0  0
  -18.1660  -28.3400   22.8030 C   0  0  0  0  0  0  0  0  0  0  0  0
  -20.7230  -28.4800   23.1590 C   0  0  0  0  0  3  0  0  0  0  0  0
  -20.7850  -27.0610   22.5470 C   0  0  0  0  0  2  0  0  0  0  0  0
  -19.7020  -26.8080   21.4930 C   0  0  0  0  0  2  0  0  0  0  0  0
  -18.3070  -27.0010   22.0980 C   0  0  0  0  0  2  0  0  0  0  0  0
  -19.3020  -29.0400   23.2880 C   0  0  0  0  0  0  0  0  0  0  0  0
  -19.1170  -30.2930   23.9140 C   0  0  0  0  0  3  0  0  0  0  0  0
  -17.8310  -30.8450   24.0550 C   0  0  0  0  0  3  0  0  0  0  0  0
  -16.7080  -30.1410   23.5880 C   0  0  0  0  0  3  0  0  0  0  0  0
  -16.8760  -28.8900   22.9660 C   0  0  0  0  0  3  0  0  0  0  0  0
  -26.1620  -32.4020   24.0620 C   0  0  0  0  0  3  0  0  0  0  0  0
  -25.8870  -33.7850   24.4750 N   0  0  0  0  0  0  0  0  0  0  0  0
  -26.2510  -34.8730   23.7820 C   0  0  0  0  0  0  0  0  0  0  0  0
  -26.9290  -34.8110   22.7520 O   0  0  0  0  0  0  0  0  0  0  0  0
  -25.2830  -33.9060   25.2750 H   0  0  0  0  0  0  0  0  0  0  0  0
  -24.5670  -36.7240   23.5240 C   0  0  0  0  0  1  0  0  0  0  0  0
  -25.7930  -36.2440   24.3160 C   0  0  0  0  0  3  0  0  0  0  0  0
  -27.9510  -37.0230   25.1920 C   0  0  0  0  0  1  0  0  0  0  0  0
  -26.8510  -37.2770   24.2650 N   0  0  0  0  0  0  0  0  0  0  0  0
  -26.4700  -38.1970   24.4700 H   0  0  0  0  0  0  0  0  0  0  0  0
  -26.6420  -31.5410   25.2930 C   0  0  1  0  0  0  0  0  0  0  0  0
  -25.5350  -31.2710   26.3370 C   0  0  0  0  0  1  0  0  0  0  0  0
  -27.1840  -30.1730   24.8180 C   0  0  0  0  0  1  0  0  0  0  0  0
  -27.8110  -32.2570   26.0100 C   0  0  0  0  0  1  0  0  0  0  0  0
  -24.7300  -23.4370   18.7260 C   0  0  0  0  0  1  0  0  0  0  0  0
  -26.0870  -23.2160   19.4270 C   0  0  0  0  0  2  0  0  0  0  0  0
  -28.7480  -21.5450   20.1330 C   0  0  0  0  0  2  0  0  0  0  0  0
  -27.3630  -19.8020   21.3410 C   0  0  0  0  0  3  0  0  0  0  0  0
  -29.5450  -19.1090   20.5240 C   0  0  0  0  0  3  0  0  0  0  0  0
  -28.5580  -20.1170   20.6720 C   0  0  0  0  0  0  0  0  0  0  0  0
  -27.1560  -18.5190   21.8790 C   0  0  0  0  0  0  0  0  0  0  0  0
  -29.3600  -17.8020   21.0560 C   0  0  0  0  0  0  0  0  0  0  0  0
  -28.1580  -17.5240   21.7670 C   0  0  0  0  0  0  0  0  0  0  0  0
  -25.8440  -18.2250   22.5890 C   0  0  0  0  0  1  0  0  0  0  0  0
  -27.8880  -16.0050   22.5600 Cl  0  0  0  0  0  0  0  0  0  0  0  0
  -30.5080  -16.7790   20.8930 C   0  0  0  0  0  2  0  0  0  0  0  0
  -30.8700  -14.3880   20.1890 C   0  0  0  0  0  0  0  0  0  0  0  0
  -30.6200  -12.2630   18.9650 C   0  0  0  0  0  2  0  0  0  0  0  0
  -29.6600  -12.4960   17.7820 C   0  0  0  0  0  2  0  0  0  0  0  0
  -28.1940  -12.3060   18.2220 C   0  0  0  0  0  2  0  0  0  0  0  0
  -27.8530  -13.0810   19.5230 C   0  0  0  0  0  3  0  0  0  0  0  0
  -28.9270  -12.8350   20.6060 C   0  0  0  0  0  2  0  0  0  0  0  0
  -30.2360  -13.1950   20.0340 N   0  0  0  0  0  0  0  0  0  0  0  0
  -31.9890  -14.6220   19.7240 O   0  0  0  0  0  0  0  0  0  0  0  0
  -30.1350  -15.3610   20.7550 N   0  0  0  0  0  0  0  0  0  0  0  0
  -29.2300  -15.0990   21.1180 H   0  0  0  0  0  0  0  0  0  0  0  0
  -25.4570  -13.6120   20.3000 C   0  0  0  0  0  0  0  0  0  0  0  0
  -24.4050  -12.8020   20.6430 C   0  0  0  0  0  0  0  0  0  0  0  0
  -24.8860  -11.4620   20.5240 C   0  0  0  0  0  0  0  0  0  0  0  0
  -26.5110  -12.7610   20.0050 N   0  0  0  0  0  0  0  0  0  0  0  0
  -26.1700  -11.4610   20.1940 N   0  0  0  0  0  0  0  0  0  0  0  0
  -24.1810  -10.1800   20.6520 C   0  0  0  0  0  0  0  0  0  0  0  0
  -24.6810   -9.1400   21.4660 C   0  0  0  0  0  3  0  0  0  0  0  0
  -23.9780   -7.9220   21.5840 C   0  0  0  0  0  3  0  0  0  0  0  0
  -22.7610   -7.7350   20.8850 C   0  0  0  0  0  0  0  0  0  0  0  0
  -22.2800   -8.7640   20.0560 C   0  0  0  0  0  3  0  0  0  0  0  0
  -22.9840   -9.9740   19.9380 C   0  0  0  0  0  3  0  0  0  0  0  0
  -22.0210   -6.5790   20.9200 O   0  0  0  0  0  0  0  0  0  0  0  0
  -22.0880   -5.7130   21.9810 C   0  0  0  0  0  0  0  0  0  0  0  0
  -21.8300   -6.1350   23.3040 C   0  0  0  0  0  3  0  0  0  0  0  0
  -21.8430   -5.1970   24.3560 C   0  0  0  0  0  3  0  0  0  0  0  0
  -22.1020   -3.8390   24.0870 C   0  0  0  0  0  0  0  0  0  0  0  0
  -22.3540   -3.4170   22.7700 C   0  0  0  0  0  3  0  0  0  0  0  0
  -22.3450   -4.3520   21.7190 C   0  0  0  0  0  0  0  0  0  0  0  0
  -22.5680   -3.9370   20.4490 F   0  0  0  0  0  0  0  0  0  0  0  0
  -22.1040   -2.9370   25.0950 F   0  0  0  0  0  0  0  0  0  0  0  0
  -23.0080  -13.2420   20.9690 C   0  0  0  0  0  0  0  0  0  0  0  0
  -22.3090  -12.4870   21.8110 N   0  0  0  0  0  0  0  0  0  0  0  0
  -22.5420  -14.2870   20.5190 O   0  0  0  0  0  0  0  0  0  0  0  0
  -22.6980  -11.6390   22.1980 H   0  0  0  0  0  0  0  0  0  0  0  0
  -21.3730  -12.7640   22.0680 H   0  0  0  0  0  0  0  0  0  0  0  0
  -25.5970  -14.9900   20.1930 N   0  0  0  0  0  0  0  0  0  0  0  0
  -24.8310  -15.6280   20.3780 H   0  0  0  0  0  0  0  0  0  0  0  0
  -26.4460  -15.4640   19.9100 H   0  0  0  0  0  0  0  0  0  0  0  0
  2  1  1  0
  2 51  1  0
  4  3  1  6
  4  2  1  0
  4  6  1  0
  4 50  1  0
  6  5  1  0
  6  7  1  0
  8 10  1  0
  8  7  1  0
  9 20  2  0
 10 15  1  0
 11 19  1  0
 11 21  1  0
 12 18  1  0
 12 14  1  0
 13 19  1  0
 14 13  1  0
 15 14  2  0
 16 10  2  0
 17 16  1  0
 17 12  2  0
 18 11  1  0
 19  9  1  0
 21 23  2  0
 22 21  1  0
 24 22  1  0
 25 34  2  0
 25 30  1  0
 26 22  1  0
 26 30  1  0
 27 26  1  0
 28 29  1  0
 28 27  1  0
 29 25  1  0
 30 31  2  0
 31 32  1  0
 33 32  2  0
 34 33  1  0
 35  9  1  0
 35 36  1  0
 35 45  1  0
 36 39  1  0
 37 41  1  0
 37 36  1  0
 38 37  2  0
 41 40  1  0
 43 41  1  0
 43 44  1  0
 43 42  1  0
 45 48  1  1
 45 46  1  0
 47 45  1  0
 49 50  1  0
 51 54  1  0
 52 55  1  0
 53 54  1  0
 53 56  2  0
 54 52  2  0
 55 58  1  0
 56 57  1  0
 57 55  2  0
 57 59  1  0
 60 56  1  0
 61 69  1  0
 62 67  1  0
 63 64  1  0
 63 62  1  0
 65 64  1  0
 65 74  1  0
 65 66  1  0
 67 61  1  0
 67 66  1  0
 68 61  2  0
 69 60  1  0
 69 70  1  0
 71 72  2  0
 72 91  1  0
 73 72  1  0
 73 76  1  0
 74 75  1  0
 74 71  1  0
 75 73  2  0
 76 77  1  0
 77 78  2  0
 79 82  1  0
 79 78  1  0
 80 79  2  0
 81 80  1  0
 81 76  2  0
 82 83  1  0
 83 84  1  0
 84 85  2  0
 86 85  1  0
 86 90  1  0
 87 86  2  0
 88 83  2  0
 88 87  1  0
 89 88  1  0
 91 92  1  0
 92 95  1  0
 92 94  1  0
 93 91  2  0
 96 71  1  0
 96 97  1  0
 98 96  1  0
M  ISO  4   7 101   8 101  61 100  69 100
M  END
>  <TORSDO>  (73) 
F 23

>  <SCORE>  (73) 
8.661

>  <name>  (73) 
72

>  <ligand_id>  (73) 
72

>  <original_smiles>  (73) 
[H]c1c([H])c([H])c2c(c1[H])C([H])([H])C([H])([H])C([H])([H])C2([H])N([H])C(=O)C1([H])N(C(=O)C([H])(N([H])C(=O)C([H])(N([H])C([H])([H])[H])C([H])([H])[H])C(C([H])([H])[H])(C([H])([H])[H])C([H])([H])[H])C([H])([H])c2c([H])c(OC([H])([H])C([H])(C([H])([H])[H])C(C([H])([H])[H])(C([H])([H])C([H])([H])[H])C([H])(C([H])([H])[H])C([H])([H])c3c([H])c(C([H])([H])[H])c(Cl)c(C([H])([H])N([H])C(=O)N4C([H])([H])C([H])([H])C([H])([H])C([H])(n5nc(-c6c([H])c([H])c(Oc7c([H])c([H])c(F)c([H])c7F)c([H])c6[H])c(C(=O)N([H])[H])c5N([H])[H])C4([H])[H])c3[H])c([H])c([H])c2C1([H])[H]

>  <smiles>  (73) 
[H]c1c([H])c([H])c2c(c1[H])C([H])([H])C([H])([H])C([H])([H])C2([H])N([H])C(=O)C1([H])N(C(=O)C([H])(N([H])C(=O)C([H])(N([H])C([H])([H])[H])C([H])([H])[H])C(C([H])([H])[H])(C([H])([H])[H])C([H])([H])[H])C([H])([H])c2c([H])c(OC([H])([H])C([H])(C([H])([H])[H])C(C([H])([H])[H])(C([H])([H])C([H])([H])[H])C([H])(C([H])([H])[H])C([H])([H])c3c([H])c(C([H])([H])[H])c(Cl)c(C([H])([H])N([H])C(=O)N4C([H])([H])C([H])([H])C([H])([H])C([H])(n5nc(-c6c([H])c([H])c(Oc7c([H])c([H])c(F)c([H])c7F)c([H])c6[H])c(C(=O)N([H])[H])c5N([H])[H])C4([H])[H])c3[H])c([H])c([H])c2C1([H])[H]

$$$$
73:0:0
     RDKit          3D

 91 99  0  0  1  0  0  0  0  0999 V2000
  -28.2460  -19.9230   20.3430 C   0  0  0  0  0  3  0  0  0  0  0  0
  -30.4090  -20.9510   20.1250 C   0  0  0  0  0  3  0  0  0  0  0  0
  -29.0120  -21.1110   20.2130 C   0  0  0  0  0  0  0  0  0  0  0  0
  -30.2380  -18.4730   20.4400 C   0  0  0  0  0  0  0  0  0  0  0  0
  -28.8360  -18.6340   20.4620 C   0  0  0  0  0  0  0  0  0  0  0  0
  -31.0060  -19.6640   20.2470 C   0  0  0  0  0  0  0  0  0  0  0  0
  -28.0390  -17.5520   20.6280 F   0  0  0  0  0  0  0  0  0  0  0  0
  -32.7320  -19.5900   20.2100 Cl  0  0  0  0  0  0  0  0  0  0  0  0
  -28.2760  -22.4830   20.1600 C   0  0  0  0  0  2  0  0  0  0  0  0
  -29.0110  -23.8770   20.2980 C   0  0  0  0  0  2  0  0  0  0  0  0
  -28.0400  -25.0770   19.9530 C   0  0  0  0  0  2  0  0  0  0  0  0
  -28.3250  -26.4970   20.2560 O   0  0  0  0  0  0  0  0  0  0  0  0
  -24.6260  -31.9470   23.2430 C   0  0  0  0  0  0  0  0  0  0  0  0
  -27.2240  -27.3720   20.2020 C   0  0  0  0  0  0  0  0  0  0  0  0
  -23.4240  -30.5480   21.6090 C   0  0  0  0  0  3  0  0  0  0  0  0
  -24.8680  -29.0020   20.1860 C   0  0  0  0  0  0  0  0  0  0  0  0
  -25.9670  -30.8600   21.4330 C   0  0  0  0  0  2  0  0  0  0  0  0
  -26.0390  -29.4790   20.7900 C   0  0  0  0  0  0  0  0  0  0  0  0
  -27.2180  -28.6700   20.7930 C   0  0  0  0  0  3  0  0  0  0  0  0
  -26.0250  -26.9650   19.5620 C   0  0  0  0  0  3  0  0  0  0  0  0
  -24.8690  -27.7550   19.5540 C   0  0  0  0  0  3  0  0  0  0  0  0
  -23.6400  -29.8820   20.2230 C   0  0  0  0  0  2  0  0  0  0  0  0
  -24.6900  -31.1370   22.1500 N   0  0  0  0  0  0  0  0  0  0  0  0
  -23.5430  -32.2260   23.7760 O   0  0  0  0  0  0  0  0  0  0  0  0
  -22.7630  -29.5290   22.5710 C   0  0  0  0  0  0  0  0  0  0  0  0
  -21.4380  -29.3460   22.4460 N   0  0  0  0  0  0  0  0  0  0  0  0
  -23.4360  -28.9080   23.3980 O   0  0  0  0  0  0  0  0  0  0  0  0
  -20.9520  -29.9040   21.7610 H   0  0  0  0  0  0  0  0  0  0  0  0
  -18.0530  -28.1720   22.9600 C   0  0  0  0  0  0  0  0  0  0  0  0
  -20.6140  -28.4180   23.2210 C   0  0  0  0  0  3  0  0  0  0  0  0
  -20.7060  -26.9870   22.6440 C   0  0  0  0  0  2  0  0  0  0  0  0
  -19.5950  -26.6660   21.6390 C   0  0  0  0  0  2  0  0  0  0  0  0
  -18.2150  -26.8200   22.2890 C   0  0  0  0  0  2  0  0  0  0  0  0
  -19.1770  -28.9300   23.3830 C   0  0  0  0  0  0  0  0  0  0  0  0
  -18.9660  -30.1970   23.9730 C   0  0  0  0  0  3  0  0  0  0  0  0
  -17.6630  -30.7000   24.1510 C   0  0  0  0  0  3  0  0  0  0  0  0
  -16.5550  -29.9420   23.7360 C   0  0  0  0  0  3  0  0  0  0  0  0
  -16.7490  -28.6830   23.1440 C   0  0  0  0  0  3  0  0  0  0  0  0
  -25.9090  -32.5790   23.8660 C   0  0  0  0  0  3  0  0  0  0  0  0
  -26.4200  -31.8130   25.1420 C   0  0  1  0  0  0  0  0  0  0  0  0
  -25.3260  -31.5740   26.2070 C   0  0  0  0  0  1  0  0  0  0  0  0
  -27.0110  -30.4360   24.7580 C   0  0  0  0  0  1  0  0  0  0  0  0
  -27.5610  -32.6190   25.8070 C   0  0  0  0  0  1  0  0  0  0  0  0
  -25.5980  -33.9780   24.1890 N   0  0  0  0  0  0  0  0  0  0  0  0
  -25.9130  -35.0300   23.4180 C   0  0  0  0  0  0  0  0  0  0  0  0
  -26.5680  -34.9250   22.3760 O   0  0  0  0  0  0  0  0  0  0  0  0
  -25.0230  -34.1390   25.0020 H   0  0  0  0  0  0  0  0  0  0  0  0
  -24.1780  -36.8190   23.0780 C   0  0  0  0  0  1  0  0  0  0  0  0
  -25.4280  -36.4190   23.8790 C   0  0  0  0  0  3  0  0  0  0  0  0
  -27.5620  -37.3200   24.6940 C   0  0  0  0  0  1  0  0  0  0  0  0
  -26.4540  -37.4760   23.7570 N   0  0  0  0  0  0  0  0  0  0  0  0
  -26.0440  -38.3950   23.8900 H   0  0  0  0  0  0  0  0  0  0  0  0
  -30.9380  -17.0980   20.7020 C   0  0  0  0  0  2  0  0  0  0  0  0
  -30.7700  -14.6040   20.2800 C   0  0  0  0  0  0  0  0  0  0  0  0
  -30.3410  -12.4070   19.2230 C   0  0  0  0  0  2  0  0  0  0  0  0
  -29.3930  -12.5960   18.0270 C   0  0  0  0  0  2  0  0  0  0  0  0
  -27.9270  -12.4760   18.4940 C   0  0  0  0  0  2  0  0  0  0  0  0
  -27.6170  -13.3310   19.7590 C   0  0  0  0  0  3  0  0  0  0  0  0
  -28.7160  -13.1910   20.8410 C   0  0  0  0  0  2  0  0  0  0  0  0
  -30.0120  -13.4660   20.2000 N   0  0  0  0  0  0  0  0  0  0  0  0
  -31.9370  -14.6090   19.8970 O   0  0  0  0  0  0  0  0  0  0  0  0
  -30.1890  -15.7950   20.6000 N   0  0  0  0  0  0  0  0  0  0  0  0
  -29.1940  -15.8220   20.7570 H   0  0  0  0  0  0  0  0  0  0  0  0
  -25.2470  -13.9270   20.5490 C   0  0  0  0  0  0  0  0  0  0  0  0
  -24.1830  -13.1500   20.9350 C   0  0  0  0  0  0  0  0  0  0  0  0
  -24.6380  -11.7980   20.8660 C   0  0  0  0  0  0  0  0  0  0  0  0
  -26.2790  -13.0450   20.2790 N   0  0  0  0  0  0  0  0  0  0  0  0
  -25.9220  -11.7570   20.5300 N   0  0  0  0  0  0  0  0  0  0  0  0
  -23.9020  -10.5370   21.0480 C   0  0  0  0  0  0  0  0  0  0  0  0
  -24.3280   -9.5570   21.9720 C   0  0  0  0  0  3  0  0  0  0  0  0
  -23.5930   -8.3630   22.1380 C   0  0  0  0  0  3  0  0  0  0  0  0
  -22.4150   -8.1420   21.3870 C   0  0  0  0  0  0  0  0  0  0  0  0
  -22.0110   -9.1100   20.4520 C   0  0  0  0  0  3  0  0  0  0  0  0
  -22.7450  -10.2950   20.2810 C   0  0  0  0  0  3  0  0  0  0  0  0
  -21.6500   -7.0040   21.4660 O   0  0  0  0  0  0  0  0  0  0  0  0
  -21.5690   -6.2710   22.6220 C   0  0  0  0  0  0  0  0  0  0  0  0
  -21.0550   -6.8160   23.8200 C   0  0  0  0  0  3  0  0  0  0  0  0
  -20.9270   -6.0070   24.9670 C   0  0  0  0  0  3  0  0  0  0  0  0
  -21.3030   -4.6510   24.9160 C   0  0  0  0  0  0  0  0  0  0  0  0
  -21.8120   -4.1060   23.7240 C   0  0  0  0  0  3  0  0  0  0  0  0
  -21.9400   -4.9130   22.5810 C   0  0  0  0  0  0  0  0  0  0  0  0
  -22.4090   -4.3740   21.4300 F   0  0  0  0  0  0  0  0  0  0  0  0
  -21.1750   -3.8700   26.0150 F   0  0  0  0  0  0  0  0  0  0  0  0
  -22.7990  -13.6360   21.2480 C   0  0  0  0  0  0  0  0  0  0  0  0
  -22.0830  -12.9290   22.1160 N   0  0  0  0  0  0  0  0  0  0  0  0
  -22.3570  -14.6740   20.7610 O   0  0  0  0  0  0  0  0  0  0  0  0
  -22.4420  -12.0830   22.5300 H   0  0  0  0  0  0  0  0  0  0  0  0
  -21.1570  -13.2450   22.3690 H   0  0  0  0  0  0  0  0  0  0  0  0
  -25.4030  -15.2990   20.3910 N   0  0  0  0  0  0  0  0  0  0  0  0
  -24.6320  -15.9410   20.5460 H   0  0  0  0  0  0  0  0  0  0  0  0
  -26.2440  -15.7680   20.0700 H   0  0  0  0  0  0  0  0  0  0  0  0
  1  5  1  0
  2  3  1  0
  2  6  2  0
  3  1  2  0
  4  5  2  0
  4 53  1  0
  5  7  1  0
  6  4  1  0
  8  6  1  0
  9  3  1  0
  9 10  1  0
 11 12  1  0
 11 10  1  0
 13 24  2  0
 14 12  1  0
 14 19  1  0
 15 23  1  0
 15 25  1  0
 16 22  1  0
 16 18  1  0
 17 23  1  0
 18 19  2  0
 18 17  1  0
 20 14  2  0
 21 20  1  0
 21 16  2  0
 22 15  1  0
 23 13  1  0
 25 27  2  0
 26 25  1  0
 28 26  1  0
 29 38  2  0
 29 34  1  0
 30 26  1  0
 30 34  1  0
 31 30  1  0
 32 33  1  0
 32 31  1  0
 33 29  1  0
 34 35  2  0
 35 36  1  0
 37 36  2  0
 38 37  1  0
 39 13  1  0
 39 44  1  0
 39 40  1  0
 40 43  1  1
 40 41  1  0
 42 40  1  0
 44 47  1  0
 45 49  1  0
 45 44  1  0
 46 45  2  0
 49 48  1  0
 51 49  1  0
 51 52  1  0
 51 50  1  0
 54 62  1  0
 55 60  1  0
 56 57  1  0
 56 55  1  0
 58 57  1  0
 58 67  1  0
 58 59  1  0
 60 54  1  0
 60 59  1  0
 61 54  2  0
 62 53  1  0
 62 63  1  0
 64 65  2  0
 65 84  1  0
 66 65  1  0
 66 69  1  0
 67 68  1  0
 67 64  1  0
 68 66  2  0
 69 70  1  0
 70 71  2  0
 72 75  1  0
 72 71  1  0
 73 72  2  0
 74 73  1  0
 74 69  2  0
 75 76  1  0
 76 77  1  0
 77 78  2  0
 79 78  1  0
 79 83  1  0
 80 79  2  0
 81 76  2  0
 81 80  1  0
 82 81  1  0
 84 85  1  0
 85 88  1  0
 85 87  1  0
 86 84  2  0
 89 90  1  0
 89 64  1  0
 91 89  1  0
M  ISO  4  11 101  12 101  54 100  62 100
M  END
>  <TORSDO>  (74) 
F 20

>  <SCORE>  (74) 
-14.072

>  <name>  (74) 
73

>  <ligand_id>  (74) 
73

>  <original_smiles>  (74) 
[H]c1c([H])c([H])c2c(c1[H])C([H])([H])C([H])([H])C([H])([H])C2([H])N([H])C(=O)C1([H])N(C(=O)C([H])(N([H])C(=O)C([H])(N([H])C([H])([H])[H])C([H])([H])[H])C(C([H])([H])[H])(C([H])([H])[H])C([H])([H])[H])C([H])([H])c2c([H])c(OC([H])([H])C([H])([H])C([H])([H])c3c([H])c(F)c(C([H])([H])N([H])C(=O)N4C([H])([H])C([H])([H])C([H])([H])C([H])(n5nc(-c6c([H])c([H])c(Oc7c([H])c([H])c(F)c([H])c7F)c([H])c6[H])c(C(=O)N([H])[H])c5N([H])[H])C4([H])[H])c(Cl)c3[H])c([H])c([H])c2C1([H])[H]

>  <smiles>  (74) 
[H]c1c([H])c([H])c2c(c1[H])C([H])([H])C([H])([H])C([H])([H])C2([H])N([H])C(=O)C1([H])N(C(=O)C([H])(N([H])C(=O)C([H])(N([H])C([H])([H])[H])C([H])([H])[H])C(C([H])([H])[H])(C([H])([H])[H])C([H])([H])[H])C([H])([H])c2c([H])c(OC([H])([H])C([H])([H])C([H])([H])c3c([H])c(F)c(C([H])([H])N([H])C(=O)N4C([H])([H])C([H])([H])C([H])([H])C([H])(n5nc(-c6c([H])c([H])c(Oc7c([H])c([H])c(F)c([H])c7F)c([H])c6[H])c(C(=O)N([H])[H])c5N([H])[H])C4([H])[H])c(Cl)c3[H])c([H])c([H])c2C1([H])[H]

$$$$
74:0:0
     RDKit          3D

 93101  0  0  1  0  0  0  0  0999 V2000
  -30.3520  -20.1300   22.0050 C   0  0  0  0  0  3  0  0  0  0  0  0
  -28.5660  -20.3410   20.3960 C   0  0  0  0  0  3  0  0  0  0  0  0
  -30.6000  -18.8050   21.5820 C   0  0  0  0  0  0  0  0  0  0  0  0
  -28.7830  -19.0090   19.9720 C   0  0  0  0  0  0  0  0  0  0  0  0
  -29.8480  -18.2470   20.5180 C   0  0  0  0  0  0  0  0  0  0  0  0
  -29.3640  -20.9460   21.3990 C   0  0  0  0  0  0  0  0  0  0  0  0
  -31.7280  -18.0310   22.2480 C   0  0  0  0  0  1  0  0  0  0  0  0
  -27.8770  -18.4460   18.8870 C   0  0  0  0  0  1  0  0  0  0  0  0
  -30.2010  -22.9030   22.6780 C   0  0  0  0  0  1  0  0  0  0  0  0
  -29.2110  -22.3110   21.7770 N   0  0  0  0  0  0  0  0  0  0  0  0
  -28.0330  -23.1200   21.4220 C   0  0  0  0  0  2  0  0  0  0  0  0
  -28.3250  -24.2950   20.4450 C   0  0  0  0  0  2  0  0  0  0  0  0
  -28.3490  -25.6920   21.1130 C   0  0  0  0  0  2  0  0  0  0  0  0
  -28.3660  -26.7740   20.1670 O   0  0  0  0  0  0  0  0  0  0  0  0
  -24.5780  -31.9440   23.2490 C   0  0  0  0  0  0  0  0  0  0  0  0
  -27.2110  -27.5200   20.1580 C   0  0  0  0  0  0  0  0  0  0  0  0
  -23.3630  -30.5380   21.6140 C   0  0  0  0  0  3  0  0  0  0  0  0
  -24.8120  -29.0070   20.1790 C   0  0  0  0  0  0  0  0  0  0  0  0
  -25.8830  -30.9130   21.3940 C   0  0  0  0  0  2  0  0  0  0  0  0
  -25.9720  -29.5420   20.7560 C   0  0  0  0  0  0  0  0  0  0  0  0
  -27.1780  -28.8060   20.7420 C   0  0  0  0  0  3  0  0  0  0  0  0
  -26.0410  -26.9950   19.5740 C   0  0  0  0  0  3  0  0  0  0  0  0
  -24.8420  -27.7330   19.5830 C   0  0  0  0  0  3  0  0  0  0  0  0
  -23.5640  -29.8580   20.2340 C   0  0  0  0  0  2  0  0  0  0  0  0
  -24.6280  -31.1460   22.1440 N   0  0  0  0  0  0  0  0  0  0  0  0
  -23.5000  -32.2110   23.7980 O   0  0  0  0  0  0  0  0  0  0  0  0
  -22.7230  -29.5160   22.5790 C   0  0  0  0  0  0  0  0  0  0  0  0
  -21.4000  -29.3230   22.4560 N   0  0  0  0  0  0  0  0  0  0  0  0
  -23.4130  -28.8960   23.3940 O   0  0  0  0  0  0  0  0  0  0  0  0
  -20.9040  -29.8760   21.7690 H   0  0  0  0  0  0  0  0  0  0  0  0
  -18.0350  -28.1100   22.9570 C   0  0  0  0  0  0  0  0  0  0  0  0
  -20.5910  -28.3830   23.2280 C   0  0  0  0  0  3  0  0  0  0  0  0
  -20.7020  -26.9510   22.6550 C   0  0  0  0  0  2  0  0  0  0  0  0
  -19.6020  -26.6200   21.6410 C   0  0  0  0  0  2  0  0  0  0  0  0
  -18.2190  -26.7590   22.2850 C   0  0  0  0  0  2  0  0  0  0  0  0
  -19.1490  -28.8790   23.3840 C   0  0  0  0  0  0  0  0  0  0  0  0
  -18.9230  -30.1430   23.9700 C   0  0  0  0  0  3  0  0  0  0  0  0
  -17.6160  -30.6390   24.1330 C   0  0  0  0  0  3  0  0  0  0  0  0
  -16.5160  -29.8660   23.7230 C   0  0  0  0  0  3  0  0  0  0  0  0
  -16.7260  -28.6030   23.1400 C   0  0  0  0  0  3  0  0  0  0  0  0
  -25.8670  -32.5760   23.8600 C   0  0  0  0  0  3  0  0  0  0  0  0
  -25.5620  -33.9760   24.1850 N   0  0  0  0  0  0  0  0  0  0  0  0
  -25.8990  -35.0250   23.4220 C   0  0  0  0  0  0  0  0  0  0  0  0
  -26.5730  -34.9160   22.3940 O   0  0  0  0  0  0  0  0  0  0  0  0
  -24.9670  -34.1350   24.9850 H   0  0  0  0  0  0  0  0  0  0  0  0
  -24.1830  -36.8220   23.0470 C   0  0  0  0  0  1  0  0  0  0  0  0
  -25.4120  -36.4150   23.8740 C   0  0  0  0  0  3  0  0  0  0  0  0
  -27.5410  -37.2910   24.7270 C   0  0  0  0  0  1  0  0  0  0  0  0
  -26.4500  -37.4640   23.7710 N   0  0  0  0  0  0  0  0  0  0  0  0
  -26.0460  -38.3860   23.9140 H   0  0  0  0  0  0  0  0  0  0  0  0
  -26.3940  -31.8090   25.1340 C   0  0  1  0  0  0  0  0  0  0  0  0
  -25.3090  -31.5740   26.2090 C   0  0  0  0  0  1  0  0  0  0  0  0
  -26.9740  -30.4310   24.7380 C   0  0  0  0  0  1  0  0  0  0  0  0
  -27.5470  -32.6060   25.7880 C   0  0  0  0  0  1  0  0  0  0  0  0
  -30.3080  -16.9410   19.8560 C   0  0  0  0  0  2  0  0  0  0  0  0
  -30.6890  -14.5600   20.2490 C   0  0  0  0  0  0  0  0  0  0  0  0
  -30.3380  -12.4080   19.1320 C   0  0  0  0  0  2  0  0  0  0  0  0
  -29.3900  -12.6480   17.9400 C   0  0  0  0  0  2  0  0  0  0  0  0
  -27.9230  -12.5090   18.3900 C   0  0  0  0  0  2  0  0  0  0  0  0
  -27.6060  -13.3280   19.6720 C   0  0  0  0  0  3  0  0  0  0  0  0
  -28.6810  -13.1190   20.7630 C   0  0  0  0  0  2  0  0  0  0  0  0
  -29.9960  -13.3950   20.1680 N   0  0  0  0  0  0  0  0  0  0  0  0
  -31.8470  -14.6680   19.8400 O   0  0  0  0  0  0  0  0  0  0  0  0
  -29.9600  -15.6630   20.5000 N   0  0  0  0  0  0  0  0  0  0  0  0
  -29.0120  -15.5400   20.8200 H   0  0  0  0  0  0  0  0  0  0  0  0
  -25.2110  -13.9050   20.4160 C   0  0  0  0  0  0  0  0  0  0  0  0
  -24.1580  -13.1190   20.8010 C   0  0  0  0  0  0  0  0  0  0  0  0
  -24.6370  -11.7740   20.7680 C   0  0  0  0  0  0  0  0  0  0  0  0
  -26.2650  -13.0370   20.1730 N   0  0  0  0  0  0  0  0  0  0  0  0
  -25.9230  -11.7510   20.4440 N   0  0  0  0  0  0  0  0  0  0  0  0
  -23.9300  -10.5030   20.9720 C   0  0  0  0  0  0  0  0  0  0  0  0
  -24.3770   -9.5510   21.9140 C   0  0  0  0  0  3  0  0  0  0  0  0
  -23.6690   -8.3450   22.1040 C   0  0  0  0  0  3  0  0  0  0  0  0
  -22.4990   -8.0810   21.3510 C   0  0  0  0  0  0  0  0  0  0  0  0
  -22.0710   -9.0240   20.3990 C   0  0  0  0  0  3  0  0  0  0  0  0
  -22.7800  -10.2210   20.2070 C   0  0  0  0  0  3  0  0  0  0  0  0
  -21.7610   -6.9270   21.4520 O   0  0  0  0  0  0  0  0  0  0  0  0
  -21.7150   -6.2000   22.6140 C   0  0  0  0  0  0  0  0  0  0  0  0
  -21.2680   -6.7640   23.8290 C   0  0  0  0  0  3  0  0  0  0  0  0
  -21.1690   -5.9640   24.9840 C   0  0  0  0  0  3  0  0  0  0  0  0
  -21.5080   -4.5980   24.9250 C   0  0  0  0  0  0  0  0  0  0  0  0
  -21.9490   -4.0320   23.7160 C   0  0  0  0  0  3  0  0  0  0  0  0
  -22.0490   -4.8320   22.5620 C   0  0  0  0  0  0  0  0  0  0  0  0
  -22.4530   -4.2770   21.3940 F   0  0  0  0  0  0  0  0  0  0  0  0
  -21.4060   -3.8260   26.0320 F   0  0  0  0  0  0  0  0  0  0  0  0
  -22.7590  -13.5800   21.0890 C   0  0  0  0  0  0  0  0  0  0  0  0
  -22.0490  -12.8760   21.9630 N   0  0  0  0  0  0  0  0  0  0  0  0
  -22.3030  -14.6000   20.5730 O   0  0  0  0  0  0  0  0  0  0  0  0
  -22.4320  -12.0530   22.4040 H   0  0  0  0  0  0  0  0  0  0  0  0
  -21.1090  -13.1650   22.1950 H   0  0  0  0  0  0  0  0  0  0  0  0
  -25.3560  -15.2770   20.2320 N   0  0  0  0  0  0  0  0  0  0  0  0
  -24.5790  -15.9180   20.3480 H   0  0  0  0  0  0  0  0  0  0  0  0
  -26.1950  -15.7290   19.8960 H   0  0  0  0  0  0  0  0  0  0  0  0
  2  6  1  0
  3  1  1  0
  3  7  1  0
  4  2  2  0
  4  5  1  0
  5  3  2  0
  6 10  1  0
  6  1  2  0
  8  4  1  0
 10  9  1  0
 11 10  1  0
 12 13  1  0
 12 11  1  0
 14 13  1  0
 15 26  2  0
 16 14  1  0
 16 21  1  0
 17 25  1  0
 17 27  1  0
 18 24  1  0
 18 20  1  0
 19 25  1  0
 20 19  1  0
 21 20  2  0
 22 23  1  0
 22 16  2  0
 23 18  2  0
 24 17  1  0
 25 15  1  0
 27 29  2  0
 28 27  1  0
 30 28  1  0
 31 40  2  0
 31 36  1  0
 32 28  1  0
 32 36  1  0
 33 32  1  0
 34 35  1  0
 34 33  1  0
 35 31  1  0
 36 37  2  0
 37 38  1  0
 39 38  2  0
 40 39  1  0
 41 15  1  0
 41 42  1  0
 41 51  1  0
 42 45  1  0
 43 47  1  0
 43 42  1  0
 44 43  2  0
 47 46  1  0
 49 47  1  0
 49 50  1  0
 49 48  1  0
 51 54  1  1
 51 52  1  0
 53 51  1  0
 55 64  1  0
 55  5  1  0
 56 64  1  0
 57 62  1  0
 58 59  1  0
 58 57  1  0
 60 59  1  0
 60 69  1  0
 60 61  1  0
 62 56  1  0
 62 61  1  0
 63 56  2  0
 64 65  1  0
 66 67  2  0
 67 86  1  0
 68 67  1  0
 68 71  1  0
 69 66  1  0
 69 70  1  0
 70 68  2  0
 71 72  1  0
 72 73  2  0
 74 77  1  0
 74 73  1  0
 75 74  2  0
 76 75  1  0
 76 71  2  0
 77 78  1  0
 78 79  1  0
 79 80  2  0
 81 80  1  0
 81 85  1  0
 82 81  2  0
 83 78  2  0
 83 82  1  0
 84 83  1  0
 86 87  1  0
 87 90  1  0
 87 89  1  0
 88 86  2  0
 91 92  1  0
 91 66  1  0
 93 91  1  0
M  ISO  4  13 101  14 101  56 100  64 100
M  END
>  <TORSDO>  (75) 
F 21

>  <SCORE>  (75) 
-13.472

>  <name>  (75) 
74

>  <ligand_id>  (75) 
74

>  <original_smiles>  (75) 
[H]c1c([H])c([H])c2c(c1[H])C([H])([H])C([H])([H])C([H])([H])C2([H])N([H])C(=O)C1([H])N(C(=O)C([H])(N([H])C(=O)C([H])(N([H])C([H])([H])[H])C([H])([H])[H])C(C([H])([H])[H])(C([H])([H])[H])C([H])([H])[H])C([H])([H])c2c([H])c(OC([H])([H])C([H])([H])C([H])([H])N(c3c([H])c(C([H])([H])[H])c(C([H])([H])N([H])C(=O)N4C([H])([H])C([H])([H])C([H])([H])C([H])(n5nc(-c6c([H])c([H])c(Oc7c([H])c([H])c(F)c([H])c7F)c([H])c6[H])c(C(=O)N([H])[H])c5N([H])[H])C4([H])[H])c(C([H])([H])[H])c3[H])C([H])([H])[H])c([H])c([H])c2C1([H])[H]

>  <smiles>  (75) 
[H]c1c([H])c([H])c2c(c1[H])C([H])([H])C([H])([H])C([H])([H])C2([H])N([H])C(=O)C1([H])N(C(=O)C([H])(N([H])C(=O)C([H])(N([H])C([H])([H])[H])C([H])([H])[H])C(C([H])([H])[H])(C([H])([H])[H])C([H])([H])[H])C([H])([H])c2c([H])c(OC([H])([H])C([H])([H])C([H])([H])N(c3c([H])c(C([H])([H])[H])c(C([H])([H])N([H])C(=O)N4C([H])([H])C([H])([H])C([H])([H])C([H])(n5nc(-c6c([H])c([H])c(Oc7c([H])c([H])c(F)c([H])c7F)c([H])c6[H])c(C(=O)N([H])[H])c5N([H])[H])C4([H])[H])c(C([H])([H])[H])c3[H])C([H])([H])[H])c([H])c([H])c2C1([H])[H]

$$$$
75:0:0
     RDKit          3D

 99107  0  0  1  0  0  0  0  0999 V2000
  -29.6380  -23.7780   20.6550 C   0  0  0  0  0  0  0  0  0  0  0  0
  -30.5940  -22.7250   20.7340 C   0  0  0  0  0  0  0  0  0  0  0  0
  -28.4890  -23.6410   19.8200 C   0  0  0  0  0  0  0  0  0  0  0  0
  -29.2370  -21.3150   19.2450 C   0  0  0  0  0  0  0  0  0  0  0  0
  -30.3850  -21.5090   20.0400 C   0  0  0  0  0  0  0  0  0  0  0  0
  -28.2870  -22.3820   19.1510 C   0  0  0  0  0  0  0  0  0  0  0  0
  -31.5510  -20.2270   20.1670 Cl  0  0  0  0  0  0  0  0  0  0  0  0
  -26.8520  -22.1160   18.2150 Cl  0  0  0  0  0  0  0  0  0  0  0  0
  -30.7750  -26.0730   20.8600 C   0  0  0  0  0  1  0  0  0  0  0  0
  -29.8360  -25.0350   21.5060 C   0  0  0  0  0  2  0  0  0  0  0  0
  -31.9970  -21.7540   22.6240 C   0  0  0  0  0  1  0  0  0  0  0  0
  -31.8770  -22.8510   21.5570 C   0  0  0  0  0  2  0  0  0  0  0  0
  -29.1400  -19.9920   18.4320 C   0  0  0  0  0  2  0  0  0  0  0  0
  -28.9770  -18.6500   19.2260 C   0  0  0  0  0  2  0  0  0  0  0  0
  -29.6240  -17.4850   18.5220 N   0  0  0  0  0  4  0  0  0  0  0  0
  -30.6210  -17.6220   18.6030 H   0  0  0  0  0  0  0  0  0  0  0  0
  -29.4020  -17.5650   17.5400 H   0  0  0  0  0  0  0  0  0  0  0  0
  -28.0260  -15.8260   19.6670 C   0  0  0  0  0  1  0  0  0  0  0  0
  -29.3540  -16.0510   18.9120 C   0  0  0  0  0  3  0  0  0  0  0  0
  -31.7810  -16.2470   19.8110 C   0  0  0  0  0  1  0  0  0  0  0  0
  -30.5270  -15.3470   19.6990 C   0  0  0  0  0  3  0  0  0  0  0  0
  -30.9340  -13.9190   19.2280 C   0  0  0  0  0  0  0  0  0  0  0  0
  -30.7590  -11.4430   19.2810 C   0  0  0  0  0  2  0  0  0  0  0  0
  -29.8000  -10.9470   18.1830 C   0  0  0  0  0  2  0  0  0  0  0  0
  -28.3490  -10.9310   18.6990 C   0  0  0  0  0  2  0  0  0  0  0  0
  -27.9510  -12.2640   19.3870 C   0  0  0  0  0  3  0  0  0  0  0  0
  -29.0270  -12.7270   20.3940 C   0  0  0  0  0  2  0  0  0  0  0  0
  -30.3210  -12.7920   19.6950 N   0  0  0  0  0  0  0  0  0  0  0  0
  -31.8990  -13.8480   18.4610 O   0  0  0  0  0  0  0  0  0  0  0  0
  -25.7850  -13.1830   20.4290 C   0  0  0  0  0  0  0  0  0  0  0  0
  -24.6450  -12.5610   20.8670 C   0  0  0  0  0  0  0  0  0  0  0  0
  -24.8570  -11.1620   20.6740 C   0  0  0  0  0  0  0  0  0  0  0  0
  -26.6280  -12.1690   20.0050 N   0  0  0  0  0  0  0  0  0  0  0  0
  -26.0790  -10.9430   20.2060 N   0  0  0  0  0  0  0  0  0  0  0  0
  -23.9470  -10.0240   20.8590 C   0  0  0  0  0  0  0  0  0  0  0  0
  -24.1900   -9.0370   21.8400 C   0  0  0  0  0  3  0  0  0  0  0  0
  -23.2910   -7.9630   22.0110 C   0  0  0  0  0  3  0  0  0  0  0  0
  -22.1330   -7.8700   21.2040 C   0  0  0  0  0  0  0  0  0  0  0  0
  -21.9080   -8.8420   20.2140 C   0  0  0  0  0  3  0  0  0  0  0  0
  -22.8070   -9.9080   20.0410 C   0  0  0  0  0  3  0  0  0  0  0  0
  -21.2180   -6.8480   21.2810 O   0  0  0  0  0  0  0  0  0  0  0  0
  -20.9210   -6.2380   22.4740 C   0  0  0  0  0  0  0  0  0  0  0  0
  -20.3590   -6.9490   23.5560 C   0  0  0  0  0  3  0  0  0  0  0  0
  -20.0030   -6.2690   24.7380 C   0  0  0  0  0  3  0  0  0  0  0  0
  -20.1980   -4.8790   24.8370 C   0  0  0  0  0  0  0  0  0  0  0  0
  -20.7510   -4.1680   23.7570 C   0  0  0  0  0  3  0  0  0  0  0  0
  -21.1070   -4.8460   22.5780 C   0  0  0  0  0  0  0  0  0  0  0  0
  -21.6200   -4.1500   21.5350 F   0  0  0  0  0  0  0  0  0  0  0  0
  -19.8490   -4.2250   25.9690 F   0  0  0  0  0  0  0  0  0  0  0  0
  -23.3910  -13.2350   21.3460 C   0  0  0  0  0  0  0  0  0  0  0  0
  -22.6700  -12.6010   22.2670 N   0  0  0  0  0  0  0  0  0  0  0  0
  -23.0680  -14.3500   20.9410 O   0  0  0  0  0  0  0  0  0  0  0  0
  -22.9400  -11.6930   22.6100 H   0  0  0  0  0  0  0  0  0  0  0  0
  -21.8310  -13.0340   22.6300 H   0  0  0  0  0  0  0  0  0  0  0  0
  -26.1630  -14.5180   20.3410 N   0  0  0  0  0  0  0  0  0  0  0  0
  -25.5360  -15.2700   20.6100 H   0  0  0  0  0  0  0  0  0  0  0  0
  -27.0270  -14.8530   19.9350 H   0  0  0  0  0  0  0  0  0  0  0  0
  -27.4180  -24.7750   19.6950 C   0  0  0  0  0  2  0  0  0  0  0  0
  -27.8560  -26.1730   19.6720 O   0  0  0  0  0  0  0  0  0  0  0  0
  -24.8440  -31.5000   23.4000 C   0  0  0  0  0  0  0  0  0  0  0  0
  -26.8330  -27.1120   19.7500 C   0  0  0  0  0  0  0  0  0  0  0  0
  -23.4310  -30.4220   21.6850 C   0  0  0  0  0  3  0  0  0  0  0  0
  -24.6520  -28.9110   20.0320 C   0  0  0  0  0  0  0  0  0  0  0  0
  -25.9800  -30.5110   21.4090 C   0  0  0  0  0  2  0  0  0  0  0  0
  -25.8850  -29.2150   20.6210 C   0  0  0  0  0  0  0  0  0  0  0  0
  -26.9840  -28.3260   20.4750 C   0  0  0  0  0  3  0  0  0  0  0  0
  -25.5940  -26.8670   19.1180 C   0  0  0  0  0  3  0  0  0  0  0  0
  -24.5080  -27.7480   19.2650 C   0  0  0  0  0  3  0  0  0  0  0  0
  -23.5150  -29.8890   20.2330 C   0  0  0  0  0  2  0  0  0  0  0  0
  -24.7730  -30.8180   22.2220 N   0  0  0  0  0  0  0  0  0  0  0  0
  -23.8200  -31.8240   24.0190 O   0  0  0  0  0  0  0  0  0  0  0  0
  -22.7100  -29.3720   22.5630 C   0  0  0  0  0  0  0  0  0  0  0  0
  -21.3830  -29.2500   22.3880 N   0  0  0  0  0  0  0  0  0  0  0  0
  -23.3450  -28.6780   23.3630 O   0  0  0  0  0  0  0  0  0  0  0  0
  -20.9370  -29.8670   21.7230 H   0  0  0  0  0  0  0  0  0  0  0  0
  -17.9610  -28.1160   22.6620 C   0  0  0  0  0  0  0  0  0  0  0  0
  -20.5050  -28.3050   23.0790 C   0  0  0  0  0  3  0  0  0  0  0  0
  -20.6090  -26.8900   22.4620 C   0  0  0  0  0  2  0  0  0  0  0  0
  -19.5560  -26.6280   21.3790 C   0  0  0  0  0  2  0  0  0  0  0  0
  -18.1430  -26.7860   21.9510 C   0  0  0  0  0  2  0  0  0  0  0  0
  -19.0710  -28.8370   23.1780 C   0  0  0  0  0  0  0  0  0  0  0  0
  -18.8500  -30.0860   23.8010 C   0  0  0  0  0  3  0  0  0  0  0  0
  -17.5500  -30.6120   23.9110 C   0  0  0  0  0  3  0  0  0  0  0  0
  -16.4510  -29.8870   23.4150 C   0  0  0  0  0  3  0  0  0  0  0  0
  -16.6570  -28.6420   22.7960 C   0  0  0  0  0  3  0  0  0  0  0  0
  -26.2130  -31.9300   24.0160 C   0  0  0  0  0  3  0  0  0  0  0  0
  -26.0830  -33.3240   24.4580 N   0  0  0  0  0  0  0  0  0  0  0  0
  -26.4990  -34.3870   23.7550 C   0  0  0  0  0  0  0  0  0  0  0  0
  -27.1040  -34.2870   22.6850 O   0  0  0  0  0  0  0  0  0  0  0  0
  -25.5630  -33.4850   25.3070 H   0  0  0  0  0  0  0  0  0  0  0  0
  -24.9790  -36.3810   23.6080 C   0  0  0  0  0  1  0  0  0  0  0  0
  -26.1920  -35.7800   24.3360 C   0  0  0  0  0  3  0  0  0  0  0  0
  -28.4360  -36.3450   25.1540 C   0  0  0  0  0  1  0  0  0  0  0  0
  -27.3370  -36.7150   24.2680 N   0  0  0  0  0  0  0  0  0  0  0  0
  -27.0400  -37.6540   24.5180 H   0  0  0  0  0  0  0  0  0  0  0  0
  -26.6750  -31.0080   25.2100 C   0  0  1  0  0  0  0  0  0  0  0  0
  -25.5840  -30.7940   26.2860 C   0  0  0  0  0  1  0  0  0  0  0  0
  -27.1070  -29.6210   24.6850 C   0  0  0  0  0  1  0  0  0  0  0  0
  -27.9120  -31.6300   25.9020 C   0  0  0  0  0  1  0  0  0  0  0  0
  1  2  1  0
  1 10  1  0
  2 12  1  0
  3  1  2  0
  4  5  1  0
  5  7  1  0
  5  2  2  0
  6  4  2  0
  6  3  1  0
  8  6  1  0
  9 10  1  0
 12 11  1  0
 13 14  1  0
 13  4  1  0
 15 16  1  0
 15 19  1  0
 15 14  1  0
 17 15  1  0
 19 18  1  0
 19 21  1  0
 21 20  1  0
 22 28  1  0
 22 21  1  0
 23 28  1  0
 24 25  1  0
 24 23  1  0
 26 25  1  0
 26 33  1  0
 26 27  1  0
 28 27  1  0
 29 22  2  0
 30 31  2  0
 31 50  1  0
 32 35  1  0
 32 31  1  0
 33 34  1  0
 33 30  1  0
 34 32  2  0
 35 36  1  0
 36 37  2  0
 38 41  1  0
 38 37  1  0
 39 38  2  0
 40 39  1  0
 40 35  2  0
 41 42  1  0
 42 47  2  0
 42 43  1  0
 43 44  2  0
 44 45  1  0
 45 49  1  0
 46 45  2  0
 47 46  1  0
 48 47  1  0
 50 51  1  0
 51 53  1  0
 51 54  1  0
 52 50  2  0
 55 30  1  0
 55 56  1  0
 57 55  1  0
 58  3  1  0
 59 58  1  0
 59 61  1  0
 60 71  2  0
 61 66  1  0
 62 70  1  0
 62 72  1  0
 63 69  1  0
 63 65  1  0
 64 70  1  0
 65 64  1  0
 66 65  2  0
 67 68  1  0
 67 61  2  0
 68 63  2  0
 69 62  1  0
 70 60  1  0
 72 74  2  0
 73 72  1  0
 75 73  1  0
 76 85  2  0
 76 81  1  0
 77 73  1  0
 77 81  1  0
 78 77  1  0
 79 80  1  0
 79 78  1  0
 80 76  1  0
 81 82  2  0
 82 83  1  0
 84 83  2  0
 85 84  1  0
 86 60  1  0
 86 87  1  0
 86 96  1  0
 87 90  1  0
 88 92  1  0
 88 87  1  0
 89 88  2  0
 92 91  1  0
 94 92  1  0
 94 95  1  0
 94 93  1  0
 96 99  1  1
 96 97  1  0
 98 96  1  0
M  ISO  4  21 100  22 100  58 101  59 101
M  END
>  <TORSDO>  (76) 
F 24

>  <SCORE>  (76) 
-9.741

>  <name>  (76) 
75

>  <ligand_id>  (76) 
75

>  <original_smiles>  (76) 
[H]c1c([H])c([H])c2c(c1[H])C([H])([H])C([H])([H])C([H])([H])C2([H])N([H])C(=O)C1([H])N(C(=O)C([H])(N([H])C(=O)C([H])(N([H])C([H])([H])[H])C([H])([H])[H])C(C([H])([H])[H])(C([H])([H])[H])C([H])([H])[H])C([H])([H])c2c([H])c(OC([H])([H])c3c(Cl)c(C([H])([H])C([H])([H])[N+]([H])([H])C([H])(C([H])([H])[H])C([H])(C(=O)N4C([H])([H])C([H])([H])C([H])([H])C([H])(n5nc(-c6c([H])c([H])c(Oc7c([H])c([H])c(F)c([H])c7F)c([H])c6[H])c(C(=O)N([H])[H])c5N([H])[H])C4([H])[H])C([H])([H])[H])c(Cl)c(C([H])([H])C([H])([H])[H])c3C([H])([H])C([H])([H])[H])c([H])c([H])c2C1([H])[H]

>  <smiles>  (76) 
[H]c1c([H])c([H])c2c(c1[H])C([H])([H])C([H])([H])C([H])([H])C2([H])N([H])C(=O)C1([H])N(C(=O)C([H])(N([H])C(=O)C([H])(N([H])C([H])([H])[H])C([H])([H])[H])C(C([H])([H])[H])(C([H])([H])[H])C([H])([H])[H])C([H])([H])c2c([H])c(OC([H])([H])c3c(Cl)c(C([H])([H])C([H])([H])[N+]([H])([H])C([H])(C([H])([H])[H])C([H])(C(=O)N4C([H])([H])C([H])([H])C([H])([H])C([H])(n5nc(-c6c([H])c([H])c(Oc7c([H])c([H])c(F)c([H])c7F)c([H])c6[H])c(C(=O)N([H])[H])c5N([H])[H])C4([H])[H])C([H])([H])[H])c(Cl)c(C([H])([H])C([H])([H])[H])c3C([H])([H])C([H])([H])[H])c([H])c([H])c2C1([H])[H]

$$$$
76:0:0
     RDKit          3D

104103  0  0  1  0  0  0  0  0999 V2000
  -19.5190  -26.1200   23.1620 C   0  0  0  0  0  2  0  0  0  0  0  0
  -21.1050  -26.3510   21.5920 C   0  0  0  0  0  1  0  0  0  0  0  0
  -18.8580  -24.0360   21.5170 C   0  0  0  0  0  0  0  0  0  0  0  0
  -19.9570  -24.3100   20.3990 C   0  0  0  0  0  0  0  0  0  0  0  0
  -18.5600  -24.8720   22.8350 C   0  0  0  0  0  3  0  0  0  0  0  0
  -20.8940  -25.5000   20.3840 C   0  0  0  0  0  3  0  0  0  0  0  0
  -18.0250  -22.7610   21.4300 C   0  0  0  0  0  1  0  0  0  0  0  0
  -17.3720  -24.3680   23.9840 Cl  0  0  0  0  0  0  0  0  0  0  0  0
  -21.5880  -26.2250   18.9750 Cl  0  0  0  0  0  0  0  0  0  0  0  0
  -22.9690  -25.3050   21.5180 C   0  0  0  0  0 15  0  0  0  0  0  0
  -23.7520  -23.5680   21.2030 N   0  0  0  0  0  2  0  0  0  0  0  0
  -23.8790  -23.6230   20.2060 H   0  0  0  0  0  0  0  0  0  0  0  0
  -22.9450  -22.9940   21.4040 H   0  0  0  0  0  0  0  0  0  0  0  0
  -25.1420  -22.2790   21.5620 C   0  0  0  0  0 15  0  0  0  0  0  0
  -26.3280  -20.6520   20.7610 C   0  0  0  0  0 15  0  0  0  0  0  0
  -27.7060  -19.0250   21.0750 C   0  0  0  0  0 15  0  0  0  0  0  0
  -29.7050  -16.2180   20.3570 C   0  0  0  0  0  0  0  0  0  0  0  0
  -30.5170  -13.7060   19.4240 C   0  0  0  0  0  2  0  0  0  0  0  0
  -29.7920  -13.1400   18.1570 C   0  0  0  0  0  2  0  0  0  0  0  0
  -28.3630  -12.6700   18.4860 C   0  0  0  0  0  2  0  0  0  0  0  0
  -27.7450  -13.5910   19.5550 C   0  0  0  0  0  3  0  0  0  0  0  0
  -28.6390  -13.8560   20.7560 C   0  0  0  0  0  2  0  0  0  0  0  0
  -29.6250  -14.7430   20.1750 N   0  0  0  0  0  0  0  0  0  0  0  0
  -30.9580  -16.3870   20.2540 O   0  0  0  0  0  0  0  0  0  0  0  0
  -28.5220  -17.3970   20.4060 N   0  0  0  0  0  2  0  0  0  0  0  0
  -28.0570  -17.2400   19.5130 H   0  0  0  0  0  0  0  0  0  0  0  0
  -25.4300  -14.0860   20.3450 C   0  0  0  0  0  0  0  0  0  0  0  0
  -24.3900  -13.2890   20.6870 C   0  0  0  0  0  0  0  0  0  0  0  0
  -24.8730  -11.9440   20.5980 C   0  0  0  0  0  0  0  0  0  0  0  0
  -26.4520  -13.2220   20.0230 N   0  0  0  0  0  0  0  0  0  0  0  0
  -26.1540  -11.9280   20.2580 N   0  0  0  0  0  0  0  0  0  0  0  0
  -24.1720  -10.6720   20.7400 C   0  0  0  0  0  0  0  0  0  0  0  0
  -24.6530   -9.6520   21.5900 C   0  0  0  0  0  3  0  0  0  0  0  0
  -23.9390   -8.4420   21.7180 C   0  0  0  0  0  3  0  0  0  0  0  0
  -22.7370   -8.2480   20.9950 C   0  0  0  0  0  0  0  0  0  0  0  0
  -22.2840   -9.2570   20.1280 C   0  0  0  0  0  3  0  0  0  0  0  0
  -22.9970  -10.4580   19.9960 C   0  0  0  0  0  3  0  0  0  0  0  0
  -21.9900   -7.1010   21.0370 O   0  0  0  0  0  0  0  0  0  0  0  0
  -22.0180   -6.2680   22.1260 C   0  0  0  0  0  0  0  0  0  0  0  0
  -21.7240   -6.7310   23.4280 C   0  0  0  0  0  3  0  0  0  0  0  0
  -21.6950   -5.8250   24.5060 C   0  0  0  0  0  3  0  0  0  0  0  0
  -21.9490   -4.4580   24.2850 C   0  0  0  0  0  0  0  0  0  0  0  0
  -22.2380   -3.9950   22.9900 C   0  0  0  0  0  3  0  0  0  0  0  0
  -22.2700   -4.8980   21.9130 C   0  0  0  0  0  0  0  0  0  0  0  0
  -22.5260   -4.4450   20.6630 F   0  0  0  0  0  0  0  0  0  0  0  0
  -21.9140   -3.5850   25.3200 F   0  0  0  0  0  0  0  0  0  0  0  0
  -22.9960  -13.7420   20.9840 C   0  0  0  0  0  0  0  0  0  0  0  0
  -22.2840  -13.0160   21.8330 N   0  0  0  0  0  0  0  0  0  0  0  0
  -22.5530  -14.7870   20.5010 O   0  0  0  0  0  0  0  0  0  0  0  0
  -22.6650  -12.1730   22.2450 H   0  0  0  0  0  0  0  0  0  0  0  0
  -21.3450  -13.3010   22.0770 H   0  0  0  0  0  0  0  0  0  0  0  0
  -25.5910  -15.4720   20.2540 N   0  0  0  0  0  0  0  0  0  0  0  0
  -24.8370  -16.1130   20.4600 H   0  0  0  0  0  0  0  0  0  0  0  0
  -26.4600  -15.9420   20.0570 H   0  0  0  0  0  0  0  0  0  0  0  0
  -20.3460  -23.2750   19.2440 C   0  0  0  0  0  2  0  0  0  0  0  0
  -21.0780  -23.8730   16.8940 C   0  0  0  0  0  1  0  0  0  0  0  0
  -21.5490  -23.5670   18.2800 N   0  0  2  0  0  4  0  0  0  0  0  0
  -21.8730  -24.4870   18.5660 H   0  0  0  0  0  0  0  0  0  0  0  0
  -22.7660  -22.6370   18.2610 C   0  0  0  0  0  2  0  0  0  0  0  0
  -24.3640  -23.0450   18.2130 C   0  0  0  0  0  2  0  0  0  0  0  0
  -25.3000  -24.0430   17.3670 C   0  0  0  0  0  2  0  0  0  0  0  0
  -26.0530  -25.3500   17.9250 C   0  0  0  0  0  3  0  0  0  0  0  0
  -27.2870  -25.4520   19.0490 C   0  0  0  0  0  3  0  0  0  0  0  0
  -27.9660  -26.7580   19.5630 O   0  0  0  0  0  0  0  0  0  0  0  0
  -24.9290  -32.3950   23.2540 C   0  0  0  0  0  0  0  0  0  0  0  0
  -27.1090  -27.8090   19.9330 C   0  0  0  0  0  0  0  0  0  0  0  0
  -23.6490  -30.9910   21.7300 C   0  0  0  0  0  3  0  0  0  0  0  0
  -24.9410  -29.5950   20.1320 C   0  0  0  0  0  0  0  0  0  0  0  0
  -26.1950  -31.3380   21.3580 C   0  0  0  0  0  2  0  0  0  0  0  0
  -26.1970  -29.9990   20.6180 C   0  0  0  0  0  0  0  0  0  0  0  0
  -27.3480  -29.1460   20.4220 C   0  0  0  0  0  3  0  0  0  0  0  0
  -25.7830  -27.4510   19.8230 C   0  0  0  0  0  3  0  0  0  0  0  0
  -24.7410  -28.3170   19.6870 C   0  0  0  0  0  3  0  0  0  0  0  0
  -23.7250  -30.4550   20.2990 C   0  0  0  0  0  2  0  0  0  0  0  0
  -24.9450  -31.6170   22.1390 N   0  0  0  0  0  0  0  0  0  0  0  0
  -23.8700  -32.6540   23.8540 O   0  0  0  0  0  0  0  0  0  0  0  0
  -23.2360  -29.8440   22.6900 C   0  0  0  0  0  0  0  0  0  0  0  0
  -21.9970  -29.3850   22.6460 N   0  0  0  0  0  0  0  0  0  0  0  0
  -24.0330  -29.3480   23.4800 O   0  0  0  0  0  0  0  0  0  0  0  0
  -21.3750  -29.7230   21.9300 H   0  0  0  0  0  0  0  0  0  0  0  0
  -18.7090  -28.4490   22.5160 C   0  0  0  0  0  0  0  0  0  0  0  0
  -21.3910  -28.5110   23.6640 C   0  0  0  0  0  2  0  0  0  0  0  0
  -22.1100  -26.6800   23.9990 C   0  0  0  0  0 15  0  0  0  0  0  0
  -21.2070  -24.9690   23.1080 C   0  0  0  0  0 15  0  0  0  0  0  0
  -19.0280  -26.8960   21.5570 C   0  0  0  0  0  2  0  0  0  0  0  0
  -19.7930  -29.0940   23.3810 C   0  0  0  0  0  0  0  0  0  0  0  0
  -19.4570  -30.2760   24.1350 C   0  0  0  0  0  3  0  0  0  0  0  0
  -18.1420  -30.7670   24.3070 C   0  0  0  0  0  3  0  0  0  0  0  0
  -17.0940  -30.0150   23.7560 C   0  0  0  0  0  3  0  0  0  0  0  0
  -17.3760  -28.8940   22.9110 C   0  0  0  0  0  3  0  0  0  0  0  0
  -26.2340  -33.0160   23.8200 C   0  0  0  0  0  3  0  0  0  0  0  0
  -25.9250  -34.3920   24.2250 N   0  0  0  0  0  0  0  0  0  0  0  0
  -26.1640  -35.4810   23.4760 C   0  0  0  0  0  0  0  0  0  0  0  0
  -26.7600  -35.4330   22.3940 O   0  0  0  0  0  0  0  0  0  0  0  0
  -25.4000  -34.4930   25.0830 H   0  0  0  0  0  0  0  0  0  0  0  0
  -24.3700  -37.2330   23.3330 C   0  0  0  0  0  1  0  0  0  0  0  0
  -25.6810  -36.8330   24.0290 C   0  0  0  0  0  3  0  0  0  0  0  0
  -27.8520  -37.7360   24.7290 C   0  0  0  0  0  1  0  0  0  0  0  0
  -26.6750  -37.9170   23.8810 N   0  0  0  0  0  0  0  0  0  0  0  0
  -26.2600  -38.8150   24.1100 H   0  0  0  0  0  0  0  0  0  0  0  0
  -26.8510  -32.1980   25.0220 C   0  0  1  0  0  0  0  0  0  0  0  0
  -25.8410  -31.8910   26.1490 C   0  0  0  0  0  1  0  0  0  0  0  0
  -27.4280  -30.8490   24.5370 C   0  0  0  0  0  1  0  0  0  0  0  0
  -28.0350  -32.9830   25.6340 C   0  0  0  0  0  1  0  0  0  0  0  0
  3  5  1  0
  4  3  2  0
  5  1  1  0
  5  8  1  0
  6  4  1  0
  6  2  1  0
  7  3  1  0
  9  6  1  0
 11 13  1  0
 12 11  1  0
 17 25  1  0
 18 23  1  0
 19 20  1  0
 19 18  1  0
 21 20  1  0
 21 30  1  0
 21 22  1  0
 23 17  1  0
 23 22  1  0
 24 17  2  0
 26 25  1  0
 27 28  2  0
 28 47  1  0
 29 28  1  0
 29 32  1  0
 30 31  1  0
 30 27  1  0
 31 29  2  0
 32 33  1  0
 33 34  2  0
 35 38  1  0
 35 34  1  0
 36 35  2  0
 37 36  1  0
 37 32  2  0
 38 39  1  0
 39 40  1  0
 40 41  2  0
 42 41  1  0
 42 46  1  0
 43 42  2  0
 44 39  2  0
 44 43  1  0
 45 44  1  0
 47 48  1  0
 48 51  1  0
 48 50  1  0
 49 47  2  0
 52 27  1  0
 52 53  1  0
 54 52  1  0
 55  4  1  0
 56 57  1  0
 57 58  1  1
 57 55  1  0
 59 57  1  0
 60 59  1  0
 61 62  1  0
 61 60  1  0
 62 63  2  0
 63 64  1  0
 64 66  1  0
 65 76  2  0
 66 71  1  0
 67 74  1  0
 67 75  1  0
 67 77  1  0
 68 74  1  0
 68 70  1  0
 69 75  1  0
 70 69  1  0
 71 70  2  0
 72 66  2  0
 73 72  1  0
 73 68  2  0
 75 65  1  0
 77 79  2  0
 78 77  1  0
 78 82  1  0
 80 78  1  0
 81 90  2  0
 81 86  1  0
 85 81  1  0
 85  1  1  0
 86 82  1  0
 86 87  2  0
 87 88  1  0
 89 88  2  0
 90 89  1  0
 91 65  1  0
 91 92  1  0
 91101  1  0
 92 95  1  0
 93 97  1  0
 93 92  1  0
 94 93  2  0
 97 96  1  0
 99 97  1  0
 99100  1  0
 99 98  1  0
101104  1  1
101102  1  0
103101  1  0
M  ISO  4  17 100  25 100  63 101  64 101
M  END
>  <TORSDO>  (77) 
F 28

>  <SCORE>  (77) 
-2.005

>  <name>  (77) 
76

>  <ligand_id>  (77) 
76

>  <original_smiles>  (77) 
[H]c1c([H])c([H])c2c(c1[H])C([H])([H])C([H])([H])C([H])([H])C2([H])N([H])C(=O)C1([H])N(C(=O)C([H])(N([H])C(=O)C([H])(N([H])C([H])([H])[H])C([H])([H])[H])C(C([H])([H])[H])(C([H])([H])[H])C([H])([H])[H])C([H])([H])c2c([H])c(OC([H])([H])C([H])([H])C([H])([H])C([H])([H])C([H])([H])[N+]([H])(C([H])([H])[H])C([H])([H])c3c(Cl)c(C([H])([H])[N+]([H])([H])C([H])([H])C([H])([H])C([H])([H])N([H])C(=O)N4C([H])([H])C([H])([H])C([H])([H])C([H])(n5nc(-c6c([H])c([H])c(Oc7c([H])c([H])c(F)c([H])c7F)c([H])c6[H])c(C(=O)N([H])[H])c5N([H])[H])C4([H])[H])c([H])c(Cl)c3C([H])([H])[H])c([H])c([H])c2C1([H])[H]

>  <smiles>  (77) 
[H]c1c([H])c([H])c2c(c1[H])C([H])([H])C([H])([H])C([H])([H])C2([H])N([H])C(=O)C1([H])N(C(=O)C([H])(N([H])C(=O)C([H])(N([H])C([H])([H])[H])C([H])([H])[H])C(C([H])([H])[H])(C([H])([H])[H])C([H])([H])[H])C([H])([H])c2c([H])c(OC([H])([H])C([H])([H])C([H])([H])C([H])([H])C([H])([H])[N+]([H])(C([H])([H])[H])C([H])([H])c3c(Cl)c(C([H])([H])[N+]([H])([H])C([H])([H])C([H])([H])C([H])([H])N([H])C(=O)N4C([H])([H])C([H])([H])C([H])([H])C([H])(n5nc(-c6c([H])c([H])c(Oc7c([H])c([H])c(F)c([H])c7F)c([H])c6[H])c(C(=O)N([H])[H])c5N([H])[H])C4([H])[H])c([H])c(Cl)c3C([H])([H])[H])c([H])c([H])c2C1([H])[H]

$$$$
77:0:0
     RDKit          3D

 96104  0  0  1  0  0  0  0  0999 V2000
  -29.8310  -19.1330   19.1760 C   0  0  0  0  0  3  0  0  0  0  0  0
  -30.5970  -19.9340   20.0430 C   0  0  0  0  0  0  0  0  0  0  0  0
  -31.2170  -19.3190   21.1650 C   0  0  0  0  0  0  0  0  0  0  0  0
  -30.1210  -17.1680   20.6160 C   0  0  0  0  0  0  0  0  0  0  0  0
  -29.5970  -17.7750   19.4440 C   0  0  0  0  0  0  0  0  0  0  0  0
  -31.0040  -17.9350   21.4260 C   0  0  0  0  0  0  0  0  0  0  0  0
  -32.1330  -20.1140   22.0920 C   0  0  0  0  0  1  0  0  0  0  0  0
  -28.6540  -16.9090   18.2800 Cl  0  0  0  0  0  0  0  0  0  0  0  0
  -31.8760  -17.2010   22.7330 Cl  0  0  0  0  0  0  0  0  0  0  0  0
  -29.6650  -15.7390   21.0070 C   0  0  1  0  0  0  0  0  0  0  0  0
  -29.9400  -15.4110   22.2690 F   0  0  0  0  0  0  0  0  0  0  0  0
  -28.3350  -15.7790   20.9470 F   0  0  0  0  0  0  0  0  0  0  0  0
  -30.2560  -14.6260   20.0850 C   0  0  0  0  0  0  0  0  0  0  0  0
  -29.9770  -12.4890   18.8600 C   0  0  0  0  0  2  0  0  0  0  0  0
  -28.9110  -12.6700   17.7600 C   0  0  0  0  0  2  0  0  0  0  0  0
  -27.4910  -12.4410   18.3170 C   0  0  0  0  0  2  0  0  0  0  0  0
  -27.2360  -13.2200   19.6330 C   0  0  0  0  0  3  0  0  0  0  0  0
  -28.4030  -12.9870   20.6230 C   0  0  0  0  0  2  0  0  0  0  0  0
  -29.6450  -13.4120   19.9570 N   0  0  0  0  0  0  0  0  0  0  0  0
  -31.2770  -14.8920   19.4370 O   0  0  0  0  0  0  0  0  0  0  0  0
  -24.8930  -13.7200   20.5830 C   0  0  0  0  0  0  0  0  0  0  0  0
  -23.8860  -12.8940   21.0060 C   0  0  0  0  0  0  0  0  0  0  0  0
  -24.3830  -11.5620   20.8620 C   0  0  0  0  0  0  0  0  0  0  0  0
  -25.9390  -12.8850   20.2160 N   0  0  0  0  0  0  0  0  0  0  0  0
  -25.6380  -11.5810   20.4360 N   0  0  0  0  0  0  0  0  0  0  0  0
  -23.7180  -10.2670   21.0490 C   0  0  0  0  0  0  0  0  0  0  0  0
  -24.2300   -9.2950   21.9350 C   0  0  0  0  0  3  0  0  0  0  0  0
  -23.5620   -8.0650   22.1120 C   0  0  0  0  0  3  0  0  0  0  0  0
  -22.3680   -7.7980   21.4010 C   0  0  0  0  0  0  0  0  0  0  0  0
  -21.8760   -8.7600   20.5000 C   0  0  0  0  0  3  0  0  0  0  0  0
  -22.5450   -9.9830   20.3220 C   0  0  0  0  0  3  0  0  0  0  0  0
  -21.6670   -6.6210   21.4900 O   0  0  0  0  0  0  0  0  0  0  0  0
  -21.6740   -5.8630   22.6330 C   0  0  0  0  0  0  0  0  0  0  0  0
  -21.2050   -6.3710   23.8640 C   0  0  0  0  0  3  0  0  0  0  0  0
  -21.1640   -5.5380   25.0000 C   0  0  0  0  0  3  0  0  0  0  0  0
  -21.5810   -4.1960   24.9040 C   0  0  0  0  0  0  0  0  0  0  0  0
  -22.0440   -3.6870   23.6780 C   0  0  0  0  0  3  0  0  0  0  0  0
  -22.0870   -4.5180   22.5450 C   0  0  0  0  0  0  0  0  0  0  0  0
  -22.5130   -4.0180   21.3610 F   0  0  0  0  0  0  0  0  0  0  0  0
  -21.5350   -3.3910   25.9910 F   0  0  0  0  0  0  0  0  0  0  0  0
  -22.5070  -13.3070   21.4330 C   0  0  0  0  0  0  0  0  0  0  0  0
  -21.8880  -12.5400   22.3270 N   0  0  0  0  0  0  0  0  0  0  0  0
  -21.9880  -14.3390   21.0120 O   0  0  0  0  0  0  0  0  0  0  0  0
  -22.3230  -11.7030   22.6830 H   0  0  0  0  0  0  0  0  0  0  0  0
  -20.9700  -12.7980   22.6580 H   0  0  0  0  0  0  0  0  0  0  0  0
  -25.0010  -15.1010   20.4640 N   0  0  0  0  0  0  0  0  0  0  0  0
  -24.2290  -15.7260   20.6720 H   0  0  0  0  0  0  0  0  0  0  0  0
  -25.8100  -15.5850   20.0970 H   0  0  0  0  0  0  0  0  0  0  0  0
  -30.7740  -21.4140   19.6750 C   0  0  0  0  0  2  0  0  0  0  0  0
  -28.4340  -22.1070   20.1910 C   0  0  0  0  0  1  0  0  0  0  0  0
  -29.8810  -22.3700   20.3980 N   0  0  2  0  0  4  0  0  0  0  0  0
  -30.0530  -22.2230   21.3820 H   0  0  0  0  0  0  0  0  0  0  0  0
  -30.2770  -23.7780   20.0900 C   0  0  0  0  0  2  0  0  0  0  0  0
  -29.4350  -24.9180   20.7260 C   0  0  0  0  0  2  0  0  0  0  0  0
  -28.3400  -25.5570   19.8340 C   0  0  0  0  0  2  0  0  0  0  0  0
  -28.2970  -26.9570   20.1470 O   0  0  0  0  0  0  0  0  0  0  0  0
  -24.6240  -32.1010   23.3600 C   0  0  0  0  0  0  0  0  0  0  0  0
  -27.1070  -27.6540   20.1530 C   0  0  0  0  0  0  0  0  0  0  0  0
  -23.3500  -30.7450   21.7300 C   0  0  0  0  0  3  0  0  0  0  0  0
  -24.7360  -29.2020   20.2440 C   0  0  0  0  0  0  0  0  0  0  0  0
  -25.8750  -31.0620   21.4700 C   0  0  0  0  0  2  0  0  0  0  0  0
  -25.9160  -29.6990   20.8080 C   0  0  0  0  0  0  0  0  0  0  0  0
  -27.1010  -28.9330   20.7560 C   0  0  0  0  0  3  0  0  0  0  0  0
  -25.9070  -27.1690   19.5820 C   0  0  0  0  0  3  0  0  0  0  0  0
  -24.7270  -27.9390   19.6260 C   0  0  0  0  0  3  0  0  0  0  0  0
  -23.5100  -30.0850   20.3340 C   0  0  0  0  0  2  0  0  0  0  0  0
  -24.6360  -31.3150   22.2450 N   0  0  0  0  0  0  0  0  0  0  0  0
  -23.5630  -32.3860   23.9330 O   0  0  0  0  0  0  0  0  0  0  0  0
  -22.7050  -29.7200   22.6910 C   0  0  0  0  0  0  0  0  0  0  0  0
  -21.3840  -29.5240   22.5550 N   0  0  0  0  0  0  0  0  0  0  0  0
  -23.3900  -29.1050   23.5130 O   0  0  0  0  0  0  0  0  0  0  0  0
  -20.8930  -30.0690   21.8600 H   0  0  0  0  0  0  0  0  0  0  0  0
  -18.0240  -28.2740   23.0020 C   0  0  0  0  0  0  0  0  0  0  0  0
  -20.5700  -28.5830   23.3240 C   0  0  0  0  0  3  0  0  0  0  0  0
  -20.7130  -27.1470   22.7700 C   0  0  0  0  0  2  0  0  0  0  0  0
  -19.6370  -26.7890   21.7390 C   0  0  0  0  0  2  0  0  0  0  0  0
  -18.2400  -26.9180   22.3510 C   0  0  0  0  0  2  0  0  0  0  0  0
  -19.1180  -29.0620   23.4450 C   0  0  0  0  0  0  0  0  0  0  0  0
  -18.8650  -30.3300   24.0100 C   0  0  0  0  0  3  0  0  0  0  0  0
  -17.5480  -30.8110   24.1390 C   0  0  0  0  0  3  0  0  0  0  0  0
  -16.4670  -30.0200   23.7150 C   0  0  0  0  0  3  0  0  0  0  0  0
  -16.7060  -28.7530   23.1520 C   0  0  0  0  0  3  0  0  0  0  0  0
  -25.9370  -32.6970   23.9560 C   0  0  0  0  0  3  0  0  0  0  0  0
  -25.6720  -34.1000   24.2970 N   0  0  0  0  0  0  0  0  0  0  0  0
  -26.0050  -35.1480   23.5310 C   0  0  0  0  0  0  0  0  0  0  0  0
  -26.6460  -35.0310   22.4820 O   0  0  0  0  0  0  0  0  0  0  0  0
  -25.1010  -34.2670   25.1140 H   0  0  0  0  0  0  0  0  0  0  0  0
  -24.3040  -36.9740   23.2280 C   0  0  0  0  0  1  0  0  0  0  0  0
  -25.5590  -36.5430   24.0030 C   0  0  0  0  0  3  0  0  0  0  0  0
  -27.7330  -37.3840   24.7770 C   0  0  0  0  0  1  0  0  0  0  0  0
  -26.6060  -37.5780   23.8680 N   0  0  0  0  0  0  0  0  0  0  0  0
  -26.2200  -38.5020   24.0400 H   0  0  0  0  0  0  0  0  0  0  0  0
  -26.4650  -31.9060   25.2160 C   0  0  1  0  0  0  0  0  0  0  0  0
  -25.3820  -31.6630   26.2920 C   0  0  0  0  0  1  0  0  0  0  0  0
  -27.0300  -30.5280   24.7990 C   0  0  0  0  0  1  0  0  0  0  0  0
  -27.6260  -32.6850   25.8780 C   0  0  0  0  0  1  0  0  0  0  0  0
  1  5  2  0
  1  2  1  0
  2  3  2  0
  3  6  1  0
  3  7  1  0
  4 10  1  0
  4  6  2  0
  5  4  1  0
  6  9  1  0
  8  5  1  0
 10 11  1  1
 12 10  1  0
 13 10  1  0
 14 19  1  0
 15 16  1  0
 15 14  1  0
 17 16  1  0
 17 24  1  0
 17 18  1  0
 19 13  1  0
 19 18  1  0
 20 13  2  0
 21 22  2  0
 22 41  1  0
 23 22  1  0
 23 26  1  0
 24 25  1  0
 24 21  1  0
 25 23  2  0
 26 27  1  0
 27 28  2  0
 29 32  1  0
 29 28  1  0
 30 29  2  0
 31 30  1  0
 31 26  2  0
 32 33  1  0
 33 34  1  0
 34 35  2  0
 36 35  1  0
 36 40  1  0
 37 36  2  0
 38 33  2  0
 38 37  1  0
 39 38  1  0
 41 42  1  0
 42 45  1  0
 42 44  1  0
 43 41  2  0
 46 21  1  0
 46 47  1  0
 48 46  1  0
 49  2  1  0
 49 51  1  0
 50 51  1  0
 51 52  1  1
 53 51  1  0
 53 54  1  0
 55 56  1  0
 55 54  1  0
 56 58  1  0
 57 68  2  0
 58 63  1  0
 59 67  1  0
 59 69  1  0
 60 66  1  0
 60 62  1  0
 61 67  1  0
 62 61  1  0
 63 62  2  0
 64 65  1  0
 64 58  2  0
 65 60  2  0
 66 59  1  0
 67 57  1  0
 69 71  2  0
 70 69  1  0
 72 70  1  0
 73 82  2  0
 73 78  1  0
 74 70  1  0
 74 78  1  0
 75 74  1  0
 76 77  1  0
 76 75  1  0
 77 73  1  0
 78 79  2  0
 79 80  1  0
 81 80  2  0
 82 81  1  0
 83 57  1  0
 83 84  1  0
 83 93  1  0
 84 87  1  0
 85 89  1  0
 85 84  1  0
 86 85  2  0
 89 88  1  0
 91 89  1  0
 91 92  1  0
 91 90  1  0
 93 96  1  1
 93 94  1  0
 95 93  1  0
M  ISO  4  10 100  13 100  55 101  56 101
M  END
>  <TORSDO>  (78) 
F 22

>  <SCORE>  (78) 
-11.442

>  <name>  (78) 
77

>  <ligand_id>  (78) 
77

>  <original_smiles>  (78) 
[H]c1c([H])c([H])c2c(c1[H])C([H])([H])C([H])([H])C([H])([H])C2([H])N([H])C(=O)C1([H])N(C(=O)C([H])(N([H])C(=O)C([H])(N([H])C([H])([H])[H])C([H])([H])[H])C(C([H])([H])[H])(C([H])([H])[H])C([H])([H])[H])C([H])([H])c2c([H])c(OC([H])([H])C([H])([H])C([H])([H])[N+]([H])(C([H])([H])[H])C([H])([H])c3c([H])c(Cl)c(C(F)(F)C(=O)N4C([H])([H])C([H])([H])C([H])([H])C([H])(n5nc(-c6c([H])c([H])c(Oc7c([H])c([H])c(F)c([H])c7F)c([H])c6[H])c(C(=O)N([H])[H])c5N([H])[H])C4([H])[H])c(Cl)c3C([H])([H])[H])c([H])c([H])c2C1([H])[H]

>  <smiles>  (78) 
[H]c1c([H])c([H])c2c(c1[H])C([H])([H])C([H])([H])C([H])([H])C2([H])N([H])C(=O)C1([H])N(C(=O)C([H])(N([H])C(=O)C([H])(N([H])C([H])([H])[H])C([H])([H])[H])C(C([H])([H])[H])(C([H])([H])[H])C([H])([H])[H])C([H])([H])c2c([H])c(OC([H])([H])C([H])([H])C([H])([H])[N+]([H])(C([H])([H])[H])C([H])([H])c3c([H])c(Cl)c(C(F)(F)C(=O)N4C([H])([H])C([H])([H])C([H])([H])C([H])(n5nc(-c6c([H])c([H])c(Oc7c([H])c([H])c(F)c([H])c7F)c([H])c6[H])c(C(=O)N([H])[H])c5N([H])[H])C4([H])[H])c(Cl)c3C([H])([H])[H])c([H])c([H])c2C1([H])[H]

$$$$
78:0:0
     RDKit          3D

 94102  0  0  1  0  0  0  0  0999 V2000
  -29.2180  -21.9830   21.5290 C   0  0  0  0  0  2  0  0  0  0  0  0
  -29.1760  -18.5170   19.8780 C   0  0  0  0  0  0  0  0  0  0  0  0
  -28.7710  -19.8880   20.0350 C   0  0  0  0  0  0  0  0  0  0  0  0
  -30.1410  -18.1580   20.7960 C   0  0  0  0  0  0  0  0  0  0  0  0
  -29.4330  -20.5770   21.0200 C   0  0  0  0  0  0  0  0  0  0  0  0
  -28.6120  -17.6070   18.8220 C   0  0  0  0  0  1  0  0  0  0  0  0
  -30.5730  -19.5200   21.8070 S   0  0  0  0  0  0  0  0  0  0  0  0
  -27.5510  -20.5390   19.0410 Cl  0  0  0  0  0  0  0  0  0  0  0  0
  -30.9080  -16.8740   20.9780 C   0  0  0  0  0  2  0  0  0  0  0  0
  -30.7580  -14.5070   20.2940 C   0  0  0  0  0  0  0  0  0  0  0  0
  -30.3450  -12.3700   19.1620 C   0  0  0  0  0  2  0  0  0  0  0  0
  -29.4060  -12.6070   17.9640 C   0  0  0  0  0  2  0  0  0  0  0  0
  -27.9380  -12.4780   18.4120 C   0  0  0  0  0  2  0  0  0  0  0  0
  -27.6180  -13.3140   19.6830 C   0  0  0  0  0  3  0  0  0  0  0  0
  -28.6900  -13.1250   20.7810 C   0  0  0  0  0  2  0  0  0  0  0  0
  -30.0090  -13.3790   20.1810 N   0  0  0  0  0  0  0  0  0  0  0  0
  -31.8950  -14.5870   19.8260 O   0  0  0  0  0  0  0  0  0  0  0  0
  -30.1750  -15.6040   20.8120 N   0  0  0  0  0  0  0  0  0  0  0  0
  -29.2180  -15.5440   21.1300 H   0  0  0  0  0  0  0  0  0  0  0  0
  -25.2270  -13.9060   20.4260 C   0  0  0  0  0  0  0  0  0  0  0  0
  -24.1670  -13.1250   20.8070 C   0  0  0  0  0  0  0  0  0  0  0  0
  -24.6340  -11.7760   20.7740 C   0  0  0  0  0  0  0  0  0  0  0  0
  -26.2740  -13.0310   20.1840 N   0  0  0  0  0  0  0  0  0  0  0  0
  -25.9210  -11.7450   20.4500 N   0  0  0  0  0  0  0  0  0  0  0  0
  -23.9150  -10.5110   20.9760 C   0  0  0  0  0  0  0  0  0  0  0  0
  -24.3530   -9.5500   21.9150 C   0  0  0  0  0  3  0  0  0  0  0  0
  -23.6320   -8.3520   22.1040 C   0  0  0  0  0  3  0  0  0  0  0  0
  -22.4580   -8.1040   21.3540 C   0  0  0  0  0  0  0  0  0  0  0  0
  -22.0370   -9.0520   20.4050 C   0  0  0  0  0  3  0  0  0  0  0  0
  -22.7600  -10.2410   20.2150 C   0  0  0  0  0  3  0  0  0  0  0  0
  -21.7070   -6.9550   21.4530 O   0  0  0  0  0  0  0  0  0  0  0  0
  -21.6580   -6.2250   22.6130 C   0  0  0  0  0  0  0  0  0  0  0  0
  -21.2090   -6.7890   23.8270 C   0  0  0  0  0  3  0  0  0  0  0  0
  -21.1100   -5.9860   24.9810 C   0  0  0  0  0  3  0  0  0  0  0  0
  -21.4450   -4.6210   24.9200 C   0  0  0  0  0  0  0  0  0  0  0  0
  -21.8870   -4.0560   23.7100 C   0  0  0  0  0  3  0  0  0  0  0  0
  -21.9900   -4.8560   22.5590 C   0  0  0  0  0  0  0  0  0  0  0  0
  -22.3960   -4.3040   21.3900 F   0  0  0  0  0  0  0  0  0  0  0  0
  -21.3410   -3.8460   26.0250 F   0  0  0  0  0  0  0  0  0  0  0  0
  -22.7720  -13.5990   21.0960 C   0  0  0  0  0  0  0  0  0  0  0  0
  -22.0610  -12.8980   21.9740 N   0  0  0  0  0  0  0  0  0  0  0  0
  -22.3220  -14.6200   20.5800 O   0  0  0  0  0  0  0  0  0  0  0  0
  -22.4420  -12.0700   22.4080 H   0  0  0  0  0  0  0  0  0  0  0  0
  -21.1230  -13.1910   22.2150 H   0  0  0  0  0  0  0  0  0  0  0  0
  -25.3850  -15.2760   20.2530 N   0  0  0  0  0  0  0  0  0  0  0  0
  -24.6280  -15.9370   20.3920 H   0  0  0  0  0  0  0  0  0  0  0  0
  -26.2460  -15.7130   19.9540 H   0  0  0  0  0  0  0  0  0  0  0  0
  -29.0890  -23.0320   20.4810 N   0  0  0  0  0  4  0  0  0  0  0  0
  -28.3600  -22.7270   19.8510 H   0  0  0  0  0  0  0  0  0  0  0  0
  -29.9490  -23.0360   19.9510 H   0  0  0  0  0  0  0  0  0  0  0  0
  -27.6300  -24.4800   21.9630 C   0  0  0  0  0  1  0  0  0  0  0  0
  -28.8020  -24.4280   20.9570 C   0  0  0  0  0  3  0  0  0  0  0  0
  -28.5620  -25.3960   19.7640 C   0  0  0  0  0  2  0  0  0  0  0  0
  -28.4780  -26.7790   20.1800 O   0  0  0  0  0  0  0  0  0  0  0  0
  -24.5960  -31.9190   23.2540 C   0  0  0  0  0  0  0  0  0  0  0  0
  -27.2780  -27.4760   20.1690 C   0  0  0  0  0  0  0  0  0  0  0  0
  -23.4070  -30.5210   21.5980 C   0  0  0  0  0  3  0  0  0  0  0  0
  -24.8780  -28.9980   20.1820 C   0  0  0  0  0  0  0  0  0  0  0  0
  -25.9410  -30.8850   21.4240 C   0  0  0  0  0  2  0  0  0  0  0  0
  -26.0320  -29.5120   20.7850 C   0  0  0  0  0  0  0  0  0  0  0  0
  -27.2300  -28.7560   20.7780 C   0  0  0  0  0  3  0  0  0  0  0  0
  -26.0960  -26.9890   19.5580 C   0  0  0  0  0  3  0  0  0  0  0  0
  -24.9090  -27.7390   19.5680 C   0  0  0  0  0  3  0  0  0  0  0  0
  -23.6330  -29.8560   20.2150 C   0  0  0  0  0  2  0  0  0  0  0  0
  -24.6670  -31.1250   22.1500 N   0  0  0  0  0  0  0  0  0  0  0  0
  -23.5110  -32.1820   23.7880 O   0  0  0  0  0  0  0  0  0  0  0  0
  -22.7580  -29.4870   22.5490 C   0  0  0  0  0  0  0  0  0  0  0  0
  -21.4350  -29.2960   22.4150 N   0  0  0  0  0  0  0  0  0  0  0  0
  -23.4410  -28.8630   23.3660 O   0  0  0  0  0  0  0  0  0  0  0  0
  -20.9450  -29.8480   21.7260 H   0  0  0  0  0  0  0  0  0  0  0  0
  -18.0630  -28.0910   22.9050 C   0  0  0  0  0  0  0  0  0  0  0  0
  -20.6210  -28.3540   23.1820 C   0  0  0  0  0  3  0  0  0  0  0  0
  -20.7290  -26.9260   22.5950 C   0  0  0  0  0  2  0  0  0  0  0  0
  -19.6270  -26.6070   21.5810 C   0  0  0  0  0  2  0  0  0  0  0  0
  -18.2460  -26.7420   22.2320 C   0  0  0  0  0  2  0  0  0  0  0  0
  -19.1790  -28.8540   23.3410 C   0  0  0  0  0  0  0  0  0  0  0  0
  -18.9550  -30.1170   23.9280 C   0  0  0  0  0  3  0  0  0  0  0  0
  -17.6470  -30.6160   24.0900 C   0  0  0  0  0  3  0  0  0  0  0  0
  -16.5460  -29.8450   23.6750 C   0  0  0  0  0  3  0  0  0  0  0  0
  -16.7560  -28.5850   23.0860 C   0  0  0  0  0  3  0  0  0  0  0  0
  -25.8740  -32.5560   23.8820 C   0  0  0  0  0  3  0  0  0  0  0  0
  -25.5630  -33.9570   24.1890 N   0  0  0  0  0  0  0  0  0  0  0  0
  -25.9020  -34.9990   23.4200 C   0  0  0  0  0  0  0  0  0  0  0  0
  -26.5830  -34.8820   22.3970 O   0  0  0  0  0  0  0  0  0  0  0  0
  -24.9640  -34.1250   24.9840 H   0  0  0  0  0  0  0  0  0  0  0  0
  -24.1820  -36.7910   23.0150 C   0  0  0  0  0  1  0  0  0  0  0  0
  -25.4080  -36.3930   23.8540 C   0  0  0  0  0  3  0  0  0  0  0  0
  -27.5270  -37.2880   24.7150 C   0  0  0  0  0  1  0  0  0  0  0  0
  -26.4440  -37.4440   23.7480 N   0  0  0  0  0  0  0  0  0  0  0  0
  -26.0370  -38.3680   23.8710 H   0  0  0  0  0  0  0  0  0  0  0  0
  -26.3760  -31.7990   25.1700 C   0  0  1  0  0  0  0  0  0  0  0  0
  -25.2680  -31.5700   26.2250 C   0  0  0  0  0  1  0  0  0  0  0  0
  -26.9650  -30.4190   24.7950 C   0  0  0  0  0  1  0  0  0  0  0  0
  -27.5180  -32.6010   25.8380 C   0  0  0  0  0  1  0  0  0  0  0  0
  2  3  1  0
  2  4  2  0
  3  5  2  0
  4  9  1  0
  4  7  1  0
  5  1  1  0
  5  7  1  0
  6  2  1  0
  8  3  1  0
 10 18  1  0
 11 16  1  0
 12 13  1  0
 12 11  1  0
 14 13  1  0
 14 23  1  0
 14 15  1  0
 16 10  1  0
 16 15  1  0
 17 10  2  0
 18  9  1  0
 18 19  1  0
 20 21  2  0
 21 40  1  0
 22 21  1  0
 22 25  1  0
 23 20  1  0
 23 24  1  0
 24 22  2  0
 25 26  1  0
 26 27  2  0
 28 31  1  0
 28 27  1  0
 29 28  2  0
 30 29  1  0
 30 25  2  0
 31 32  1  0
 32 33  1  0
 33 34  2  0
 35 34  1  0
 35 39  1  0
 36 35  2  0
 37 32  2  0
 37 36  1  0
 38 37  1  0
 40 41  1  0
 41 44  1  0
 41 43  1  0
 42 40  2  0
 45 46  1  0
 45 20  1  0
 47 45  1  0
 48 52  1  0
 48  1  1  0
 49 48  1  0
 50 48  1  0
 52 51  1  0
 53 54  1  0
 53 52  1  0
 55 66  2  0
 56 54  1  0
 56 61  1  0
 57 65  1  0
 57 67  1  0
 58 64  1  0
 58 60  1  0
 59 65  1  0
 60 59  1  0
 61 60  2  0
 62 63  1  0
 62 56  2  0
 63 58  2  0
 64 57  1  0
 65 55  1  0
 67 69  2  0
 68 67  1  0
 70 68  1  0
 71 80  2  0
 71 76  1  0
 72 68  1  0
 72 76  1  0
 73 72  1  0
 74 75  1  0
 74 73  1  0
 75 71  1  0
 76 77  2  0
 77 78  1  0
 79 78  2  0
 80 79  1  0
 81 55  1  0
 81 82  1  0
 81 91  1  0
 82 85  1  0
 83 87  1  0
 83 82  1  0
 84 83  2  0
 87 86  1  0
 89 87  1  0
 89 90  1  0
 89 88  1  0
 91 94  1  1
 91 92  1  0
 93 91  1  0
M  ISO  4  10 100  18 100  53 101  54 101
M  END
>  <TORSDO>  (79) 
F 21

>  <SCORE>  (79) 
-13.734

>  <name>  (79) 
78

>  <ligand_id>  (79) 
78

>  <original_smiles>  (79) 
[H]c1c([H])c([H])c2c(c1[H])C([H])([H])C([H])([H])C([H])([H])C2([H])N([H])C(=O)C1([H])N(C(=O)C([H])(N([H])C(=O)C([H])(N([H])C([H])([H])[H])C([H])([H])[H])C(C([H])([H])[H])(C([H])([H])[H])C([H])([H])[H])C([H])([H])c2c([H])c(OC([H])([H])C([H])(C([H])([H])[H])[N+]([H])([H])C([H])([H])c3sc(C([H])([H])N([H])C(=O)N4C([H])([H])C([H])([H])C([H])([H])C([H])(n5nc(-c6c([H])c([H])c(Oc7c([H])c([H])c(F)c([H])c7F)c([H])c6[H])c(C(=O)N([H])[H])c5N([H])[H])C4([H])[H])c(C([H])([H])[H])c3Cl)c([H])c([H])c2C1([H])[H]

>  <smiles>  (79) 
[H]c1c([H])c([H])c2c(c1[H])C([H])([H])C([H])([H])C([H])([H])C2([H])N([H])C(=O)C1([H])N(C(=O)C([H])(N([H])C(=O)C([H])(N([H])C([H])([H])[H])C([H])([H])[H])C(C([H])([H])[H])(C([H])([H])[H])C([H])([H])[H])C([H])([H])c2c([H])c(OC([H])([H])C([H])(C([H])([H])[H])[N+]([H])([H])C([H])([H])c3sc(C([H])([H])N([H])C(=O)N4C([H])([H])C([H])([H])C([H])([H])C([H])(n5nc(-c6c([H])c([H])c(Oc7c([H])c([H])c(F)c([H])c7F)c([H])c6[H])c(C(=O)N([H])[H])c5N([H])[H])C4([H])[H])c(C([H])([H])[H])c3Cl)c([H])c([H])c2C1([H])[H]

$$$$
79:0:0
     RDKit          3D

 97105  0  0  1  0  0  0  0  0999 V2000
  -31.0780  -21.1450   19.1600 N   0  0  0  0  0  4  0  0  0  0  0  0
  -30.1670  -20.7190   19.0820 H   0  0  0  0  0  0  0  0  0  0  0  0
  -31.6330  -20.7900   18.3980 H   0  0  0  0  0  0  0  0  0  0  0  0
  -30.9900  -22.9560   17.4820 C   0  0  0  0  0  1  0  0  0  0  0  0
  -30.9820  -22.6190   18.9860 C   0  0  0  0  0  3  0  0  0  0  0  0
  -29.7330  -23.2250   19.6810 C   0  0  0  0  0  2  0  0  0  0  0  0
  -29.7800  -24.7640   19.8630 C   0  0  0  0  0  2  0  0  0  0  0  0
  -28.3810  -25.3840   20.0230 C   0  0  0  0  0  2  0  0  0  0  0  0
  -28.4320  -26.7760   20.3690 O   0  0  0  0  0  0  0  0  0  0  0  0
  -24.6090  -32.0370   23.3320 C   0  0  0  0  0  0  0  0  0  0  0  0
  -27.2420  -27.4880   20.3670 C   0  0  0  0  0  0  0  0  0  0  0  0
  -23.4080  -30.6110   21.7120 C   0  0  0  0  0  3  0  0  0  0  0  0
  -24.8570  -29.0250   20.3440 C   0  0  0  0  0  0  0  0  0  0  0  0
  -25.9410  -30.9340   21.5320 C   0  0  0  0  0  2  0  0  0  0  0  0
  -26.0190  -29.5470   20.9240 C   0  0  0  0  0  0  0  0  0  0  0  0
  -27.2120  -28.7870   20.9310 C   0  0  0  0  0  3  0  0  0  0  0  0
  -26.0460  -26.9760   19.8050 C   0  0  0  0  0  3  0  0  0  0  0  0
  -24.8640  -27.7370   19.7870 C   0  0  0  0  0  3  0  0  0  0  0  0
  -23.6230  -29.8980   20.3520 C   0  0  0  0  0  2  0  0  0  0  0  0
  -24.6720  -31.2080   22.2520 N   0  0  0  0  0  0  0  0  0  0  0  0
  -23.5250  -32.3370   23.8470 O   0  0  0  0  0  0  0  0  0  0  0  0
  -22.7330  -29.6180   22.6860 C   0  0  0  0  0  0  0  0  0  0  0  0
  -21.4150  -29.4220   22.5230 N   0  0  0  0  0  0  0  0  0  0  0  0
  -23.3950  -29.0230   23.5410 O   0  0  0  0  0  0  0  0  0  0  0  0
  -20.9430  -29.9560   21.8060 H   0  0  0  0  0  0  0  0  0  0  0  0
  -18.0380  -28.2090   22.9390 C   0  0  0  0  0  0  0  0  0  0  0  0
  -20.5780  -28.5080   23.3020 C   0  0  0  0  0  3  0  0  0  0  0  0
  -20.7180  -27.0550   22.7890 C   0  0  0  0  0  2  0  0  0  0  0  0
  -19.6600  -26.6790   21.7470 C   0  0  0  0  0  2  0  0  0  0  0  0
  -18.2540  -26.8340   22.3290 C   0  0  0  0  0  2  0  0  0  0  0  0
  -19.1300  -29.0010   23.3800 C   0  0  0  0  0  0  0  0  0  0  0  0
  -18.8760  -30.2870   23.9030 C   0  0  0  0  0  3  0  0  0  0  0  0
  -17.5600  -30.7790   23.9970 C   0  0  0  0  0  3  0  0  0  0  0  0
  -16.4810  -29.9850   23.5710 C   0  0  0  0  0  3  0  0  0  0  0  0
  -16.7210  -28.7030   23.0470 C   0  0  0  0  0  3  0  0  0  0  0  0
  -25.8950  -32.6660   23.9520 C   0  0  0  0  0  3  0  0  0  0  0  0
  -25.5920  -34.0690   24.2650 N   0  0  0  0  0  0  0  0  0  0  0  0
  -25.9260  -35.1080   23.4900 C   0  0  0  0  0  0  0  0  0  0  0  0
  -26.5930  -34.9880   22.4600 O   0  0  0  0  0  0  0  0  0  0  0  0
  -24.9960  -34.2350   25.0630 H   0  0  0  0  0  0  0  0  0  0  0  0
  -24.1960  -36.8960   23.1180 C   0  0  0  0  0  1  0  0  0  0  0  0
  -25.4420  -36.5050   23.9280 C   0  0  0  0  0  3  0  0  0  0  0  0
  -27.5850  -37.3990   24.7260 C   0  0  0  0  0  1  0  0  0  0  0  0
  -26.4740  -37.5550   23.7910 N   0  0  0  0  0  0  0  0  0  0  0  0
  -26.0700  -38.4780   23.9290 H   0  0  0  0  0  0  0  0  0  0  0  0
  -26.4020  -31.9030   25.2380 C   0  0  1  0  0  0  0  0  0  0  0  0
  -25.2980  -31.6640   26.2950 C   0  0  0  0  0  1  0  0  0  0  0  0
  -26.9970  -30.5260   24.8560 C   0  0  0  0  0  1  0  0  0  0  0  0
  -27.5430  -32.7060   25.9060 C   0  0  0  0  0  1  0  0  0  0  0  0
  -31.7430  -20.6910   20.4030 C   0  0  0  0  0  2  0  0  0  0  0  0
  -33.2250  -16.6110   20.1890 C   0  0  0  0  0  3  0  0  0  0  0  0
  -33.3990  -18.9640   19.6010 C   0  0  0  0  0  3  0  0  0  0  0  0
  -32.0290  -16.8590   20.8960 C   0  0  0  0  0  0  0  0  0  0  0  0
  -32.2100  -19.2420   20.3110 C   0  0  0  0  0  0  0  0  0  0  0  0
  -33.9000  -17.6530   19.5330 C   0  0  0  0  0  0  0  0  0  0  0  0
  -31.5110  -18.1810   20.9480 C   0  0  0  0  0  0  0  0  0  0  0  0
  -35.3540  -17.3250   18.6630 Cl  0  0  0  0  0  0  0  0  0  0  0  0
  -30.0370  -18.5030   21.7960 Cl  0  0  0  0  0  0  0  0  0  0  0  0
  -31.3820  -15.6940   21.6430 C   0  0  0  0  0  2  0  0  0  0  0  0
  -30.8020  -14.0710   19.7820 C   0  0  0  0  0  0  0  0  0  0  0  0
  -30.2010  -12.0620   18.4770 C   0  0  0  0  0  2  0  0  0  0  0  0
  -29.1430  -12.3560   17.3980 C   0  0  0  0  0  2  0  0  0  0  0  0
  -27.7240  -12.2510   17.9870 C   0  0  0  0  0  2  0  0  0  0  0  0
  -27.5650  -13.0640   19.3000 C   0  0  0  0  0  3  0  0  0  0  0  0
  -28.7120  -12.7440   20.2790 C   0  0  0  0  0  2  0  0  0  0  0  0
  -29.9920  -12.9960   19.5920 N   0  0  0  0  0  0  0  0  0  0  0  0
  -31.7580  -14.3260   19.0460 O   0  0  0  0  0  0  0  0  0  0  0  0
  -30.5220  -14.7850   20.8820 N   0  0  0  0  0  0  0  0  0  0  0  0
  -29.6890  -14.4850   21.3670 H   0  0  0  0  0  0  0  0  0  0  0  0
  -25.2680  -13.7530   20.2380 C   0  0  0  0  0  0  0  0  0  0  0  0
  -24.2210  -13.0170   20.7270 C   0  0  0  0  0  0  0  0  0  0  0  0
  -24.6400  -11.6520   20.6680 C   0  0  0  0  0  0  0  0  0  0  0  0
  -26.2580  -12.8370   19.9130 N   0  0  0  0  0  0  0  0  0  0  0  0
  -25.8890  -11.5710   20.2290 N   0  0  0  0  0  0  0  0  0  0  0  0
  -23.9030  -10.4150   20.9530 C   0  0  0  0  0  0  0  0  0  0  0  0
  -24.3900   -9.4620   21.8750 C   0  0  0  0  0  3  0  0  0  0  0  0
  -23.6570   -8.2860   22.1440 C   0  0  0  0  0  3  0  0  0  0  0  0
  -22.4210   -8.0560   21.4920 C   0  0  0  0  0  0  0  0  0  0  0  0
  -21.9520   -8.9970   20.5590 C   0  0  0  0  0  3  0  0  0  0  0  0
  -22.6850  -10.1640   20.2890 C   0  0  0  0  0  3  0  0  0  0  0  0
  -21.6530   -6.9320   21.6750 O   0  0  0  0  0  0  0  0  0  0  0  0
  -21.6750   -6.2240   22.8500 C   0  0  0  0  0  0  0  0  0  0  0  0
  -21.3690   -6.8280   24.0900 C   0  0  0  0  0  3  0  0  0  0  0  0
  -21.3360   -6.0480   25.2620 C   0  0  0  0  0  3  0  0  0  0  0  0
  -21.6010   -4.6660   25.1990 C   0  0  0  0  0  0  0  0  0  0  0  0
  -21.9020   -4.0630   23.9650 C   0  0  0  0  0  3  0  0  0  0  0  0
  -21.9370   -4.8410   22.7940 C   0  0  0  0  0  0  0  0  0  0  0  0
  -22.2070   -4.2510   21.6050 F   0  0  0  0  0  0  0  0  0  0  0  0
  -21.5620   -3.9150   26.3250 F   0  0  0  0  0  0  0  0  0  0  0  0
  -22.8740  -13.5370   21.1340 C   0  0  0  0  0  0  0  0  0  0  0  0
  -22.2230  -12.8810   22.0890 N   0  0  0  0  0  0  0  0  0  0  0  0
  -22.4090  -14.5610   20.6360 O   0  0  0  0  0  0  0  0  0  0  0  0
  -22.6090  -12.0530   22.5170 H   0  0  0  0  0  0  0  0  0  0  0  0
  -21.3210  -13.2150   22.3960 H   0  0  0  0  0  0  0  0  0  0  0  0
  -25.4510  -15.1170   20.0270 N   0  0  0  0  0  0  0  0  0  0  0  0
  -24.7230  -15.7960   20.2190 H   0  0  0  0  0  0  0  0  0  0  0  0
  -26.2750  -15.5300   19.6080 H   0  0  0  0  0  0  0  0  0  0  0  0
  1 50  1  0
  2  1  1  0
  3  1  1  0
  5  4  1  0
  5  1  1  0
  5  6  1  0
  6  7  1  0
  7  8  1  0
  8  9  1  0
 10 21  2  0
 11  9  1  0
 11 16  1  0
 12 20  1  0
 12 22  1  0
 13 19  1  0
 13 15  1  0
 14 20  1  0
 15 16  2  0
 15 14  1  0
 17 11  2  0
 18 17  1  0
 18 13  2  0
 19 12  1  0
 20 10  1  0
 22 24  2  0
 23 22  1  0
 25 23  1  0
 26 35  2  0
 26 31  1  0
 27 23  1  0
 27 31  1  0
 28 27  1  0
 29 30  1  0
 29 28  1  0
 30 26  1  0
 31 32  2  0
 32 33  1  0
 34 33  2  0
 35 34  1  0
 36 10  1  0
 36 37  1  0
 36 46  1  0
 37 40  1  0
 38 42  1  0
 38 37  1  0
 39 38  2  0
 42 41  1  0
 44 42  1  0
 44 45  1  0
 44 43  1  0
 46 49  1  1
 46 47  1  0
 48 46  1  0
 51 53  1  0
 52 54  2  0
 53 56  2  0
 53 59  1  0
 54 50  1  0
 54 56  1  0
 55 52  1  0
 55 51  2  0
 56 58  1  0
 57 55  1  0
 60 68  1  0
 61 66  1  0
 62 63  1  0
 62 61  1  0
 64 63  1  0
 64 73  1  0
 64 65  1  0
 66 60  1  0
 66 65  1  0
 67 60  2  0
 68 69  1  0
 68 59  1  0
 70 71  2  0
 71 90  1  0
 72 71  1  0
 72 75  1  0
 73 74  1  0
 73 70  1  0
 74 72  2  0
 75 76  1  0
 76 77  2  0
 78 81  1  0
 78 77  1  0
 79 78  2  0
 80 79  1  0
 80 75  2  0
 81 82  1  0
 82 83  1  0
 83 84  2  0
 85 84  1  0
 85 89  1  0
 86 85  2  0
 87 82  2  0
 87 86  1  0
 88 87  1  0
 90 91  1  0
 91 94  1  0
 91 93  1  0
 92 90  2  0
 95 96  1  0
 95 70  1  0
 97 95  1  0
M  ISO  4   8 101   9 101  60 100  68 100
M  END
>  <TORSDO>  (80) 
F 23

>  <SCORE>  (80) 
-11.195

>  <name>  (80) 
79

>  <ligand_id>  (80) 
79

>  <original_smiles>  (80) 
[H]c1c([H])c([H])c2c(c1[H])C([H])([H])C([H])([H])C([H])([H])C2([H])N([H])C(=O)C1([H])N(C(=O)C([H])(N([H])C(=O)C([H])(N([H])C([H])([H])[H])C([H])([H])[H])C(C([H])([H])[H])(C([H])([H])[H])C([H])([H])[H])C([H])([H])c2c([H])c(OC([H])([H])C([H])([H])C([H])([H])C([H])(C([H])([H])[H])[N+]([H])([H])C([H])([H])c3c([H])c(Cl)c([H])c(C([H])([H])N([H])C(=O)N4C([H])([H])C([H])([H])C([H])([H])C([H])(n5nc(-c6c([H])c([H])c(Oc7c([H])c([H])c(F)c([H])c7F)c([H])c6[H])c(C(=O)N([H])[H])c5N([H])[H])C4([H])[H])c3Cl)c([H])c([H])c2C1([H])[H]

>  <smiles>  (80) 
[H]c1c([H])c([H])c2c(c1[H])C([H])([H])C([H])([H])C([H])([H])C2([H])N([H])C(=O)C1([H])N(C(=O)C([H])(N([H])C(=O)C([H])(N([H])C([H])([H])[H])C([H])([H])[H])C(C([H])([H])[H])(C([H])([H])[H])C([H])([H])[H])C([H])([H])c2c([H])c(OC([H])([H])C([H])([H])C([H])([H])C([H])(C([H])([H])[H])[N+]([H])([H])C([H])([H])c3c([H])c(Cl)c([H])c(C([H])([H])N([H])C(=O)N4C([H])([H])C([H])([H])C([H])([H])C([H])(n5nc(-c6c([H])c([H])c(Oc7c([H])c([H])c(F)c([H])c7F)c([H])c6[H])c(C(=O)N([H])[H])c5N([H])[H])C4([H])[H])c3Cl)c([H])c([H])c2C1([H])[H]

$$$$
80:0:0
     RDKit          3D

 90 98  0  0  1  0  0  0  0  0999 V2000
  -27.4340  -19.9720   18.5280 C   0  0  0  0  0  3  0  0  0  0  0  0
  -27.6700  -21.3160   18.8870 C   0  0  0  0  0  0  0  0  0  0  0  0
  -28.1530  -18.8920   19.0810 C   0  0  0  0  0  0  0  0  0  0  0  0
  -28.6320  -21.6380   19.8830 C   0  0  0  0  0  0  0  0  0  0  0  0
  -29.1540  -19.1270   20.0520 C   0  0  0  0  0  0  0  0  0  0  0  0
  -26.8700  -22.3600   18.1180 C   0  0  0  0  0  1  0  0  0  0  0  0
  -27.8370  -17.5070   18.5450 C   0  0  0  0  0  1  0  0  0  0  0  0
  -29.3500  -20.5060   20.4130 N   0  0  0  0  0  0  0  0  0  0  0  0
  -28.9240  -23.2400   20.3050 C   0  0  0  0  0  3  0  0  0  0  0  0
  -27.9680  -24.6390   20.0120 C   0  0  0  0  0  3  0  0  0  0  0  0
  -28.2240  -26.1680   20.2970 O   0  0  0  0  0  0  0  0  0  0  0  0
  -24.6050  -31.9280   23.2430 C   0  0  0  0  0  0  0  0  0  0  0  0
  -27.1770  -27.1730   20.2250 C   0  0  0  0  0  0  0  0  0  0  0  0
  -23.4050  -30.5210   21.6140 C   0  0  0  0  0  3  0  0  0  0  0  0
  -24.8490  -28.9340   20.1980 C   0  0  0  0  0  0  0  0  0  0  0  0
  -25.9610  -30.7800   21.4440 C   0  0  0  0  0  2  0  0  0  0  0  0
  -26.0320  -29.3790   20.8030 C   0  0  0  0  0  0  0  0  0  0  0  0
  -27.1940  -28.5150   20.7980 C   0  0  0  0  0  3  0  0  0  0  0  0
  -25.9650  -26.8410   19.5780 C   0  0  0  0  0  3  0  0  0  0  0  0
  -24.8300  -27.6800   19.5720 C   0  0  0  0  0  3  0  0  0  0  0  0
  -23.6250  -29.8360   20.2390 C   0  0  0  0  0  2  0  0  0  0  0  0
  -24.6780  -31.1000   22.1560 N   0  0  0  0  0  0  0  0  0  0  0  0
  -23.5180  -32.2160   23.7700 O   0  0  0  0  0  0  0  0  0  0  0  0
  -22.7260  -29.5220   22.5850 C   0  0  0  0  0  0  0  0  0  0  0  0
  -21.3990  -29.3370   22.4540 N   0  0  0  0  0  0  0  0  0  0  0  0
  -23.3960  -28.9140   23.4240 O   0  0  0  0  0  0  0  0  0  0  0  0
  -20.9130  -29.8880   21.7590 H   0  0  0  0  0  0  0  0  0  0  0  0
  -18.0270  -28.1000   22.9410 C   0  0  0  0  0  0  0  0  0  0  0  0
  -20.5790  -28.4010   23.2310 C   0  0  0  0  0  3  0  0  0  0  0  0
  -20.7050  -26.9600   22.6820 C   0  0  0  0  0  2  0  0  0  0  0  0
  -19.6190  -26.6050   21.6610 C   0  0  0  0  0  2  0  0  0  0  0  0
  -18.2300  -26.7420   22.2880 C   0  0  0  0  0  2  0  0  0  0  0  0
  -19.1300  -28.8840   23.3690 C   0  0  0  0  0  0  0  0  0  0  0  0
  -18.8860  -30.1510   23.9410 C   0  0  0  0  0  3  0  0  0  0  0  0
  -17.5710  -30.6350   24.0880 C   0  0  0  0  0  3  0  0  0  0  0  0
  -16.4840  -29.8480   23.6740 C   0  0  0  0  0  3  0  0  0  0  0  0
  -16.7120  -28.5820   23.1080 C   0  0  0  0  0  3  0  0  0  0  0  0
  -25.8810  -32.5720   23.8650 C   0  0  0  0  0  3  0  0  0  0  0  0
  -26.3900  -31.8190   25.1560 C   0  0  1  0  0  0  0  0  0  0  0  0
  -25.2930  -31.5930   26.2220 C   0  0  0  0  0  1  0  0  0  0  0  0
  -26.9750  -30.4380   24.7870 C   0  0  0  0  0  1  0  0  0  0  0  0
  -27.5410  -32.6190   25.8110 C   0  0  0  0  0  1  0  0  0  0  0  0
  -25.5690  -33.9740   24.1840 N   0  0  0  0  0  0  0  0  0  0  0  0
  -25.9040  -35.0260   23.4220 C   0  0  0  0  0  0  0  0  0  0  0  0
  -26.5720  -34.9160   22.3930 O   0  0  0  0  0  0  0  0  0  0  0  0
  -24.9800  -34.1340   24.9870 H   0  0  0  0  0  0  0  0  0  0  0  0
  -24.1900  -36.8330   23.0520 C   0  0  0  0  0  1  0  0  0  0  0  0
  -25.4200  -36.4190   23.8750 C   0  0  0  0  0  3  0  0  0  0  0  0
  -27.5500  -37.2950   24.7290 C   0  0  0  0  0  1  0  0  0  0  0  0
  -26.4600  -37.4670   23.7720 N   0  0  0  0  0  0  0  0  0  0  0  0
  -26.0580  -38.3900   23.9080 H   0  0  0  0  0  0  0  0  0  0  0  0
  -30.0770  -17.8430   20.5960 C   0  0  0  0  0  2  0  0  0  0  0  0
  -30.5330  -15.0910   20.5330 C   0  0  0  0  0  0  0  0  0  0  0  0
  -30.4850  -12.7160   19.6310 C   0  0  0  0  0  2  0  0  0  0  0  0
  -29.5930  -12.6310   18.3700 C   0  0  0  0  0  2  0  0  0  0  0  0
  -28.1200  -12.4000   18.7590 C   0  0  0  0  0  2  0  0  0  0  0  0
  -27.6560  -13.3260   19.9110 C   0  0  0  0  0  3  0  0  0  0  0  0
  -28.6780  -13.3880   21.0660 C   0  0  0  0  0  2  0  0  0  0  0  0
  -29.9530  -13.8200   20.4820 N   0  0  0  0  0  0  0  0  0  0  0  0
  -31.7510  -15.1500   20.3340 O   0  0  0  0  0  0  0  0  0  0  0  0
  -29.7410  -16.2800   20.5990 N   0  0  0  0  0  0  0  0  0  0  0  0
  -28.7570  -16.0970   20.7050 H   0  0  0  0  0  0  0  0  0  0  0  0
  -25.2490  -13.8730   20.5810 C   0  0  0  0  0  0  0  0  0  0  0  0
  -24.1840  -13.0860   20.9190 C   0  0  0  0  0  0  0  0  0  0  0  0
  -24.6680  -11.7420   20.9110 C   0  0  0  0  0  0  0  0  0  0  0  0
  -26.3100  -13.0090   20.3740 N   0  0  0  0  0  0  0  0  0  0  0  0
  -25.9670  -11.7210   20.6400 N   0  0  0  0  0  0  0  0  0  0  0  0
  -23.9500  -10.4730   21.0850 C   0  0  0  0  0  0  0  0  0  0  0  0
  -24.3640   -9.5140   22.0350 C   0  0  0  0  0  3  0  0  0  0  0  0
  -23.6450   -8.3100   22.1960 C   0  0  0  0  0  3  0  0  0  0  0  0
  -22.4990   -8.0540   21.4040 C   0  0  0  0  0  0  0  0  0  0  0  0
  -22.1080   -9.0020   20.4430 C   0  0  0  0  0  3  0  0  0  0  0  0
  -22.8260  -10.1980   20.2810 C   0  0  0  0  0  3  0  0  0  0  0  0
  -21.7550   -6.9010   21.4710 O   0  0  0  0  0  0  0  0  0  0  0  0
  -21.6690   -6.1690   22.6280 C   0  0  0  0  0  0  0  0  0  0  0  0
  -21.1640   -6.7220   23.8240 C   0  0  0  0  0  3  0  0  0  0  0  0
  -21.0260   -5.9140   24.9700 C   0  0  0  0  0  3  0  0  0  0  0  0
  -21.3830   -4.5520   24.9220 C   0  0  0  0  0  0  0  0  0  0  0  0
  -21.8820   -3.9990   23.7280 C   0  0  0  0  0  3  0  0  0  0  0  0
  -22.0200   -4.8050   22.5850 C   0  0  0  0  0  0  0  0  0  0  0  0
  -22.4790   -4.2600   21.4330 F   0  0  0  0  0  0  0  0  0  0  0  0
  -21.2450   -3.7750   26.0210 F   0  0  0  0  0  0  0  0  0  0  0  0
  -22.7730  -13.5450   21.1400 C   0  0  0  0  0  0  0  0  0  0  0  0
  -22.0240  -12.8410   21.9810 N   0  0  0  0  0  0  0  0  0  0  0  0
  -22.3430  -14.5660   20.6030 O   0  0  0  0  0  0  0  0  0  0  0  0
  -22.3860  -12.0210   22.4460 H   0  0  0  0  0  0  0  0  0  0  0  0
  -21.0760  -13.1320   22.1710 H   0  0  0  0  0  0  0  0  0  0  0  0
  -25.3990  -15.2440   20.4080 N   0  0  0  0  0  0  0  0  0  0  0  0
  -24.6210  -15.8890   20.4950 H   0  0  0  0  0  0  0  0  0  0  0  0
  -26.2440  -15.6900   20.0860 H   0  0  0  0  0  0  0  0  0  0  0  0
  1  2  2  0
  1  3  1  0
  2  4  1  0
  3  5  2  0
  4  9  1  0
  4  8  2  0
  5  8  1  0
  5 52  1  0
  6  2  1  0
  7  3  1  0
 10 11  1  0
 10  9  2  0
 12 23  2  0
 13 11  1  0
 13 18  1  0
 14 22  1  0
 14 24  1  0
 15 21  1  0
 15 17  1  0
 16 22  1  0
 17 16  1  0
 18 17  2  0
 19 13  2  0
 20 19  1  0
 20 15  2  0
 21 14  1  0
 22 12  1  0
 24 26  2  0
 25 24  1  0
 27 25  1  0
 28 37  2  0
 28 33  1  0
 29 25  1  0
 29 33  1  0
 30 29  1  0
 31 32  1  0
 31 30  1  0
 32 28  1  0
 33 34  2  0
 34 35  1  0
 36 35  2  0
 37 36  1  0
 38 12  1  0
 38 43  1  0
 38 39  1  0
 39 42  1  1
 39 40  1  0
 41 39  1  0
 43 46  1  0
 44 48  1  0
 44 43  1  0
 45 44  2  0
 48 47  1  0
 50 48  1  0
 50 51  1  0
 50 49  1  0
 52 61  1  0
 53 61  1  0
 54 59  1  0
 55 56  1  0
 55 54  1  0
 57 56  1  0
 57 66  1  0
 57 58  1  0
 59 53  1  0
 59 58  1  0
 60 53  2  0
 61 62  1  0
 63 64  2  0
 64 83  1  0
 65 64  1  0
 65 68  1  0
 66 63  1  0
 66 67  1  0
 67 65  2  0
 68 69  1  0
 69 70  2  0
 71 74  1  0
 71 70  1  0
 72 71  2  0
 73 72  1  0
 73 68  2  0
 74 75  1  0
 75 76  1  0
 76 77  2  0
 78 77  1  0
 78 82  1  0
 79 78  2  0
 80 75  2  0
 80 79  1  0
 81 80  1  0
 83 84  1  0
 84 87  1  0
 84 86  1  0
 85 83  2  0
 88 89  1  0
 88 63  1  0
 90 88  1  0
M  ISO  4  10 101  11 101  53 100  61 100
M  END
>  <TORSDO>  (81) 
F 19

>  <SCORE>  (81) 
-15.234

>  <name>  (81) 
80

>  <ligand_id>  (81) 
80

>  <original_smiles>  (81) 
[H]c1c([H])c([H])c2c(c1[H])C([H])([H])C([H])([H])C([H])([H])C2([H])N([H])C(=O)C1([H])N(C(=O)C([H])(N([H])C(=O)C([H])(N([H])C([H])([H])[H])C([H])([H])[H])C(C([H])([H])[H])(C([H])([H])[H])C([H])([H])[H])C([H])([H])c2c([H])c(OC([H])([H])C([H])([H])c3nc(C([H])([H])N([H])C(=O)N4C([H])([H])C([H])([H])C([H])([H])C([H])(n5nc(-c6c([H])c([H])c(Oc7c([H])c([H])c(F)c([H])c7F)c([H])c6[H])c(C(=O)N([H])[H])c5N([H])[H])C4([H])[H])c(C([H])([H])[H])c([H])c3C([H])([H])[H])c([H])c([H])c2C1([H])[H]

>  <smiles>  (81) 
[H]c1c([H])c([H])c2c(c1[H])C([H])([H])C([H])([H])C([H])([H])C2([H])N([H])C(=O)C1([H])N(C(=O)C([H])(N([H])C(=O)C([H])(N([H])C([H])([H])[H])C([H])([H])[H])C(C([H])([H])[H])(C([H])([H])[H])C([H])([H])[H])C([H])([H])c2c([H])c(OC([H])([H])C([H])([H])c3nc(C([H])([H])N([H])C(=O)N4C([H])([H])C([H])([H])C([H])([H])C([H])(n5nc(-c6c([H])c([H])c(Oc7c([H])c([H])c(F)c([H])c7F)c([H])c6[H])c(C(=O)N([H])[H])c5N([H])[H])C4([H])[H])c(C([H])([H])[H])c([H])c3C([H])([H])[H])c([H])c([H])c2C1([H])[H]

$$$$
81:0:0
     RDKit          3D

 95103  0  0  1  0  0  0  0  0999 V2000
  -28.0120  -21.0670   19.8150 C   0  0  0  0  0  2  0  0  0  0  0  0
  -30.5230  -21.0210   20.1840 C   0  0  0  0  0  1  0  0  0  0  0  0
  -29.6230  -20.9070   17.8700 C   0  0  0  0  0  1  0  0  0  0  0  0
  -29.3630  -20.4530   19.3320 C   0  0  2  0  0  0  0  0  0  0  0  0
  -29.8470  -18.1960   20.5780 C   0  0  0  0  0  3  0  0  0  0  0  0
  -29.2300  -16.7090   19.0070 C   0  0  0  0  0  3  0  0  0  0  0  0
  -29.7820  -16.8140   20.2460 C   0  0  0  0  0  0  0  0  0  0  0  0
  -29.3720  -18.9260   19.5080 C   0  0  0  0  0  0  0  0  0  0  0  0
  -28.1700  -18.1810   17.3380 C   0  0  0  0  0  1  0  0  0  0  0  0
  -28.8930  -17.9790   18.5820 N   0  0  0  0  0  0  0  0  0  0  0  0
  -30.8950  -14.6790   20.5740 C   0  0  0  0  0  0  0  0  0  0  0  0
  -30.5550  -12.5850   19.3190 C   0  0  0  0  0  2  0  0  0  0  0  0
  -29.6300  -12.8440   18.1140 C   0  0  0  0  0  2  0  0  0  0  0  0
  -28.1500  -12.7090   18.5290 C   0  0  0  0  0  2  0  0  0  0  0  0
  -27.8050  -13.4910   19.8280 C   0  0  0  0  0  3  0  0  0  0  0  0
  -28.8510  -13.2340   20.9320 C   0  0  0  0  0  2  0  0  0  0  0  0
  -30.1760  -13.5410   20.3700 N   0  0  0  0  0  0  0  0  0  0  0  0
  -32.0580  -14.8180   20.1830 O   0  0  0  0  0  0  0  0  0  0  0  0
  -30.2340  -15.7400   21.0730 N   0  0  0  0  0  0  0  0  0  0  0  0
  -30.6540  -16.0680   21.9310 H   0  0  0  0  0  0  0  0  0  0  0  0
  -25.4110  -14.1190   20.5150 C   0  0  0  0  0  0  0  0  0  0  0  0
  -24.3250  -13.3500   20.8430 C   0  0  0  0  0  0  0  0  0  0  0  0
  -24.7740  -11.9950   20.7960 C   0  0  0  0  0  0  0  0  0  0  0  0
  -26.4470  -13.2260   20.2870 N   0  0  0  0  0  0  0  0  0  0  0  0
  -26.0670  -11.9450   20.5120 N   0  0  0  0  0  0  0  0  0  0  0  0
  -24.0370  -10.7330   20.9480 C   0  0  0  0  0  0  0  0  0  0  0  0
  -24.4370   -9.7520   21.8840 C   0  0  0  0  0  3  0  0  0  0  0  0
  -23.7000   -8.5540   22.0230 C   0  0  0  0  0  3  0  0  0  0  0  0
  -22.5520   -8.3350   21.2250 C   0  0  0  0  0  0  0  0  0  0  0  0
  -22.1730   -9.3030   20.2800 C   0  0  0  0  0  3  0  0  0  0  0  0
  -22.9080  -10.4900   20.1380 C   0  0  0  0  0  3  0  0  0  0  0  0
  -21.7870   -7.1950   21.2770 O   0  0  0  0  0  0  0  0  0  0  0  0
  -21.6750   -6.4570   22.4260 C   0  0  0  0  0  0  0  0  0  0  0  0
  -21.1290   -6.9970   23.6110 C   0  0  0  0  0  3  0  0  0  0  0  0
  -20.9730   -6.1820   24.7500 C   0  0  0  0  0  3  0  0  0  0  0  0
  -21.3530   -4.8260   24.7020 C   0  0  0  0  0  0  0  0  0  0  0  0
  -21.8930   -4.2870   23.5220 C   0  0  0  0  0  3  0  0  0  0  0  0
  -22.0520   -5.1000   22.3870 C   0  0  0  0  0  0  0  0  0  0  0  0
  -22.5580   -4.5720   21.2450 F   0  0  0  0  0  0  0  0  0  0  0  0
  -21.1930   -4.0380   25.7910 F   0  0  0  0  0  0  0  0  0  0  0  0
  -22.9270  -13.8350   21.1000 C   0  0  0  0  0  0  0  0  0  0  0  0
  -22.1810  -13.1250   21.9420 N   0  0  0  0  0  0  0  0  0  0  0  0
  -22.5050  -14.8720   20.5900 O   0  0  0  0  0  0  0  0  0  0  0  0
  -22.5330  -12.2830   22.3730 H   0  0  0  0  0  0  0  0  0  0  0  0
  -21.2430  -13.4280   22.1580 H   0  0  0  0  0  0  0  0  0  0  0  0
  -25.6000  -15.4900   20.3850 N   0  0  0  0  0  0  0  0  0  0  0  0
  -24.8680  -16.1630   20.5770 H   0  0  0  0  0  0  0  0  0  0  0  0
  -26.4960  -15.9210   20.1950 H   0  0  0  0  0  0  0  0  0  0  0  0
  -26.6560  -22.8110   18.6950 C   0  0  0  0  0  1  0  0  0  0  0  0
  -27.8780  -22.5280   19.4890 N   0  0  1  0  0  4  0  0  0  0  0  0
  -28.6510  -22.6980   18.8630 H   0  0  0  0  0  0  0  0  0  0  0  0
  -28.0520  -23.4820   20.6320 C   0  0  0  0  0  2  0  0  0  0  0  0
  -29.1860  -24.5220   20.4170 C   0  0  0  0  0  2  0  0  0  0  0  0
  -28.8820  -25.7760   19.5630 C   0  0  0  0  0  2  0  0  0  0  0  0
  -28.6270  -26.9240   20.3890 O   0  0  0  0  0  0  0  0  0  0  0  0
  -24.6280  -32.0190   23.3380 C   0  0  0  0  0  0  0  0  0  0  0  0
  -27.4200  -27.5920   20.3440 C   0  0  0  0  0  0  0  0  0  0  0  0
  -23.4860  -30.5730   21.6890 C   0  0  0  0  0  3  0  0  0  0  0  0
  -24.9950  -29.0530   20.3070 C   0  0  0  0  0  0  0  0  0  0  0  0
  -26.0080  -30.9810   21.5390 C   0  0  0  0  0  2  0  0  0  0  0  0
  -26.1320  -29.6080   20.9060 C   0  0  0  0  0  0  0  0  0  0  0  0
  -27.3440  -28.8810   20.9220 C   0  0  0  0  0  3  0  0  0  0  0  0
  -26.2480  -27.0410   19.7750 C   0  0  0  0  0  3  0  0  0  0  0  0
  -25.0470  -27.7670   19.7460 C   0  0  0  0  0  3  0  0  0  0  0  0
  -23.7360  -29.8900   20.3220 C   0  0  0  0  0  2  0  0  0  0  0  0
  -24.7240  -31.2060   22.2470 N   0  0  0  0  0  0  0  0  0  0  0  0
  -23.5310  -32.2770   23.8510 O   0  0  0  0  0  0  0  0  0  0  0  0
  -22.8390  -29.5450   22.6480 C   0  0  0  0  0  0  0  0  0  0  0  0
  -21.5250  -29.3230   22.4900 N   0  0  0  0  0  0  0  0  0  0  0  0
  -23.5190  -28.9560   23.4920 O   0  0  0  0  0  0  0  0  0  0  0  0
  -21.0350  -29.8590   21.7870 H   0  0  0  0  0  0  0  0  0  0  0  0
  -18.1600  -28.0830   22.9300 C   0  0  0  0  0  0  0  0  0  0  0  0
  -20.7100  -28.3720   23.2500 C   0  0  0  0  0  3  0  0  0  0  0  0
  -20.8410  -26.9400   22.6810 C   0  0  0  0  0  2  0  0  0  0  0  0
  -19.7690  -26.6150   21.6350 C   0  0  0  0  0  2  0  0  0  0  0  0
  -18.3690  -26.7370   22.2530 C   0  0  0  0  0  2  0  0  0  0  0  0
  -19.2630  -28.8560   23.3830 C   0  0  0  0  0  0  0  0  0  0  0  0
  -19.0190  -30.1210   23.9620 C   0  0  0  0  0  3  0  0  0  0  0  0
  -17.7040  -30.6070   24.1090 C   0  0  0  0  0  3  0  0  0  0  0  0
  -16.6170  -29.8280   23.6770 C   0  0  0  0  0  3  0  0  0  0  0  0
  -16.8470  -28.5690   23.0940 C   0  0  0  0  0  3  0  0  0  0  0  0
  -25.8900  -32.6820   23.9740 C   0  0  0  0  0  3  0  0  0  0  0  0
  -25.5580  -34.0860   24.2450 N   0  0  0  0  0  0  0  0  0  0  0  0
  -25.9010  -35.1140   23.4620 C   0  0  0  0  0  0  0  0  0  0  0  0
  -26.6110  -34.9840   22.4590 O   0  0  0  0  0  0  0  0  0  0  0  0
  -24.9370  -34.2560   25.0220 H   0  0  0  0  0  0  0  0  0  0  0  0
  -24.1830  -36.8850   22.9750 C   0  0  0  0  0  1  0  0  0  0  0  0
  -25.3850  -36.5110   23.8540 C   0  0  0  0  0  3  0  0  0  0  0  0
  -27.4660  -37.4500   24.7620 C   0  0  0  0  0  1  0  0  0  0  0  0
  -26.4150  -37.5680   23.7560 N   0  0  0  0  0  0  0  0  0  0  0  0
  -25.9930  -38.4880   23.8470 H   0  0  0  0  0  0  0  0  0  0  0  0
  -26.3720  -31.9570   25.2900 C   0  0  1  0  0  0  0  0  0  0  0  0
  -25.2380  -31.7090   26.3130 C   0  0  0  0  0  1  0  0  0  0  0  0
  -27.0220  -30.5940   24.9560 C   0  0  0  0  0  1  0  0  0  0  0  0
  -27.4610  -32.8070   25.9860 C   0  0  0  0  0  1  0  0  0  0  0  0
  4  3  1  6
  4  8  1  0
  4  1  1  0
  4  2  1  0
  6  7  2  0
  7  5  1  0
  7 19  1  0
  8  5  2  0
  9 10  1  0
 10  6  1  0
 10  8  1  0
 11 19  1  0
 12 17  1  0
 13 14  1  0
 13 12  1  0
 15 14  1  0
 15 24  1  0
 15 16  1  0
 17 11  1  0
 17 16  1  0
 18 11  2  0
 19 20  1  0
 21 22  2  0
 22 41  1  0
 23 22  1  0
 23 26  1  0
 24 25  1  0
 24 21  1  0
 25 23  2  0
 26 27  1  0
 27 28  2  0
 29 32  1  0
 29 28  1  0
 30 29  2  0
 31 30  1  0
 31 26  2  0
 32 33  1  0
 33 34  1  0
 34 35  2  0
 36 35  1  0
 36 40  1  0
 37 36  2  0
 38 33  2  0
 38 37  1  0
 39 38  1  0
 41 42  1  0
 42 45  1  0
 42 44  1  0
 43 41  2  0
 46 21  1  0
 46 47  1  0
 48 46  1  0
 49 50  1  0
 50  1  1  0
 50 52  1  0
 50 51  1  6
 53 52  1  0
 54 55  1  0
 54 53  1  0
 56 67  2  0
 57 55  1  0
 57 62  1  0
 58 66  1  0
 58 68  1  0
 59 65  1  0
 59 61  1  0
 60 66  1  0
 61 62  2  0
 61 60  1  0
 63 57  2  0
 64 63  1  0
 64 59  2  0
 65 58  1  0
 66 56  1  0
 68 70  2  0
 69 68  1  0
 71 69  1  0
 72 81  2  0
 72 77  1  0
 73 69  1  0
 73 77  1  0
 74 73  1  0
 75 76  1  0
 75 74  1  0
 76 72  1  0
 77 78  2  0
 78 79  1  0
 80 79  2  0
 81 80  1  0
 82 56  1  0
 82 83  1  0
 82 92  1  0
 83 86  1  0
 84 88  1  0
 84 83  1  0
 85 84  2  0
 88 87  1  0
 90 91  1  0
 90 88  1  0
 90 89  1  0
 92 95  1  1
 92 93  1  0
 94 92  1  0
M  ISO  4  11 100  19 100  54 101  55 101
M  END
>  <TORSDO>  (82) 
F 22

>  <SCORE>  (82) 
-13.107

>  <name>  (82) 
81

>  <ligand_id>  (82) 
81

>  <original_smiles>  (82) 
[H]c1c([H])c([H])c2c(c1[H])C([H])([H])C([H])([H])C([H])([H])C2([H])N([H])C(=O)C1([H])N(C(=O)C([H])(N([H])C(=O)C([H])(N([H])C([H])([H])[H])C([H])([H])[H])C(C([H])([H])[H])(C([H])([H])[H])C([H])([H])[H])C([H])([H])c2c([H])c(OC([H])([H])C([H])([H])C([H])([H])[N+]([H])(C([H])([H])[H])C([H])([H])C(c3c([H])c(N([H])C(=O)N4C([H])([H])C([H])([H])C([H])([H])C([H])(n5nc(-c6c([H])c([H])c(Oc7c([H])c([H])c(F)c([H])c7F)c([H])c6[H])c(C(=O)N([H])[H])c5N([H])[H])C4([H])[H])c([H])n3C([H])([H])[H])(C([H])([H])[H])C([H])([H])[H])c([H])c([H])c2C1([H])[H]

>  <smiles>  (82) 
[H]c1c([H])c([H])c2c(c1[H])C([H])([H])C([H])([H])C([H])([H])C2([H])N([H])C(=O)C1([H])N(C(=O)C([H])(N([H])C(=O)C([H])(N([H])C([H])([H])[H])C([H])([H])[H])C(C([H])([H])[H])(C([H])([H])[H])C([H])([H])[H])C([H])([H])c2c([H])c(OC([H])([H])C([H])([H])C([H])([H])[N+]([H])(C([H])([H])[H])C([H])([H])C(c3c([H])c(N([H])C(=O)N4C([H])([H])C([H])([H])C([H])([H])C([H])(n5nc(-c6c([H])c([H])c(Oc7c([H])c([H])c(F)c([H])c7F)c([H])c6[H])c(C(=O)N([H])[H])c5N([H])[H])C4([H])[H])c([H])n3C([H])([H])[H])(C([H])([H])[H])C([H])([H])[H])c([H])c([H])c2C1([H])[H]

$$$$
82:0:0
     RDKit          3D

 91 99  0  0  1  0  0  0  0  0999 V2000
  -31.2750  -18.0510   21.2000 C   0  0  0  0  0  3  0  0  0  0  0  0
  -31.6730  -19.3650   21.5200 C   0  0  0  0  0  0  0  0  0  0  0  0
  -30.8470  -20.5050   21.2710 C   0  0  0  0  0  0  0  0  0  0  0  0
  -29.5690  -20.3780   20.6360 C   0  0  0  0  0  0  0  0  0  0  0  0
  -29.1990  -18.9520   20.3450 C   0  0  0  0  0  0  0  0  0  0  0  0
  -30.0350  -17.7440   20.6220 C   0  0  0  0  0  0  0  0  0  0  0  0
  -33.0430  -19.5000   22.1730 C   0  0  0  0  0  1  0  0  0  0  0  0
  -31.3430  -21.8700   21.7390 C   0  0  0  0  0  1  0  0  0  0  0  0
  -27.8470  -18.6880   19.7020 C   0  0  0  0  0  1  0  0  0  0  0  0
  -30.5040  -15.0600   20.3520 C   0  0  0  0  0  0  0  0  0  0  0  0
  -30.3920  -12.7160   19.3870 C   0  0  0  0  0  2  0  0  0  0  0  0
  -29.4510  -12.6590   18.1630 C   0  0  0  0  0  2  0  0  0  0  0  0
  -27.9960  -12.4270   18.6110 C   0  0  0  0  0  2  0  0  0  0  0  0
  -27.5850  -13.3470   19.7890 C   0  0  0  0  0  3  0  0  0  0  0  0
  -28.6480  -13.3760   20.9080 C   0  0  0  0  0  2  0  0  0  0  0  0
  -29.9040  -13.8040   20.2820 N   0  0  0  0  0  0  0  0  0  0  0  0
  -31.7130  -15.1080   20.1010 O   0  0  0  0  0  0  0  0  0  0  0  0
  -29.7140  -16.2490   20.4370 N   0  0  0  0  0  0  0  0  0  0  0  0
  -28.7270  -16.0470   20.4100 H   0  0  0  0  0  0  0  0  0  0  0  0
  -25.2050  -13.8960   20.5490 C   0  0  0  0  0  0  0  0  0  0  0  0
  -24.1510  -13.1070   20.9210 C   0  0  0  0  0  0  0  0  0  0  0  0
  -24.6300  -11.7620   20.8780 C   0  0  0  0  0  0  0  0  0  0  0  0
  -26.2550  -13.0310   20.2970 N   0  0  0  0  0  0  0  0  0  0  0  0
  -25.9200  -11.7420   20.5630 N   0  0  0  0  0  0  0  0  0  0  0  0
  -23.9180  -10.4910   21.0620 C   0  0  0  0  0  0  0  0  0  0  0  0
  -24.3580   -9.5250   21.9940 C   0  0  0  0  0  3  0  0  0  0  0  0
  -23.6430   -8.3200   22.1670 C   0  0  0  0  0  3  0  0  0  0  0  0
  -22.4740   -8.0720   21.4070 C   0  0  0  0  0  0  0  0  0  0  0  0
  -22.0530   -9.0270   20.4660 C   0  0  0  0  0  3  0  0  0  0  0  0
  -22.7680  -10.2240   20.2910 C   0  0  0  0  0  3  0  0  0  0  0  0
  -21.7320   -6.9190   21.4910 O   0  0  0  0  0  0  0  0  0  0  0  0
  -21.6800   -6.1780   22.6430 C   0  0  0  0  0  0  0  0  0  0  0  0
  -21.2100   -6.7210   23.8580 C   0  0  0  0  0  3  0  0  0  0  0  0
  -21.1060   -5.9060   25.0020 C   0  0  0  0  0  3  0  0  0  0  0  0
  -21.4630   -4.5450   24.9320 C   0  0  0  0  0  0  0  0  0  0  0  0
  -21.9270   -4.0000   23.7210 C   0  0  0  0  0  3  0  0  0  0  0  0
  -22.0310   -4.8140   22.5800 C   0  0  0  0  0  0  0  0  0  0  0  0
  -22.4580   -4.2790   21.4110 F   0  0  0  0  0  0  0  0  0  0  0  0
  -21.3580   -3.7590   26.0290 F   0  0  0  0  0  0  0  0  0  0  0  0
  -22.7510  -13.5690   21.1970 C   0  0  0  0  0  0  0  0  0  0  0  0
  -22.0300  -12.8580   22.0580 N   0  0  0  0  0  0  0  0  0  0  0  0
  -22.3030  -14.5950   20.6870 O   0  0  0  0  0  0  0  0  0  0  0  0
  -22.4070  -12.0280   22.4910 H   0  0  0  0  0  0  0  0  0  0  0  0
  -21.0900  -13.1480   22.2860 H   0  0  0  0  0  0  0  0  0  0  0  0
  -25.3500  -15.2690   20.3770 N   0  0  0  0  0  0  0  0  0  0  0  0
  -24.5700  -15.9060   20.4890 H   0  0  0  0  0  0  0  0  0  0  0  0
  -26.1740  -15.7140   19.9980 H   0  0  0  0  0  0  0  0  0  0  0  0
  -28.6210  -21.7320   20.3300 C   0  0  0  0  0  2  0  0  0  0  0  0
  -28.9700  -23.4010   20.4490 C   0  0  0  0  0  3  0  0  0  0  0  0
  -27.9230  -24.6990   20.1500 C   0  0  0  0  0  3  0  0  0  0  0  0
  -28.1930  -26.2330   20.3110 O   0  0  0  0  0  0  0  0  0  0  0  0
  -24.5810  -31.9720   23.2350 C   0  0  0  0  0  0  0  0  0  0  0  0
  -27.1400  -27.2220   20.2350 C   0  0  0  0  0  0  0  0  0  0  0  0
  -23.3780  -30.5750   21.6010 C   0  0  0  0  0  3  0  0  0  0  0  0
  -24.8200  -28.9840   20.1870 C   0  0  0  0  0  0  0  0  0  0  0  0
  -25.9330  -30.8240   21.4380 C   0  0  0  0  0  2  0  0  0  0  0  0
  -26.0020  -29.4280   20.7930 C   0  0  0  0  0  0  0  0  0  0  0  0
  -27.1630  -28.5640   20.7970 C   0  0  0  0  0  3  0  0  0  0  0  0
  -25.9280  -26.8780   19.5960 C   0  0  0  0  0  3  0  0  0  0  0  0
  -24.7950  -27.7240   19.5730 C   0  0  0  0  0  3  0  0  0  0  0  0
  -23.5980  -29.8900   20.2270 C   0  0  0  0  0  2  0  0  0  0  0  0
  -24.6510  -31.1450   22.1480 N   0  0  0  0  0  0  0  0  0  0  0  0
  -23.4960  -32.2670   23.7580 O   0  0  0  0  0  0  0  0  0  0  0  0
  -22.6900  -29.5770   22.5680 C   0  0  0  0  0  0  0  0  0  0  0  0
  -21.3620  -29.4100   22.4320 N   0  0  0  0  0  0  0  0  0  0  0  0
  -23.3520  -28.9550   23.4000 O   0  0  0  0  0  0  0  0  0  0  0  0
  -20.8840  -29.9610   21.7340 H   0  0  0  0  0  0  0  0  0  0  0  0
  -17.9710  -28.2370   22.9350 C   0  0  0  0  0  0  0  0  0  0  0  0
  -20.5310  -28.4820   23.2050 C   0  0  0  0  0  3  0  0  0  0  0  0
  -20.6250  -27.0470   22.6370 C   0  0  0  0  0  2  0  0  0  0  0  0
  -19.5230  -26.7280   21.6210 C   0  0  0  0  0  2  0  0  0  0  0  0
  -18.1400  -26.8850   22.2620 C   0  0  0  0  0  2  0  0  0  0  0  0
  -19.0950  -28.9940   23.3620 C   0  0  0  0  0  0  0  0  0  0  0  0
  -18.8820  -30.2580   23.9530 C   0  0  0  0  0  3  0  0  0  0  0  0
  -17.5810  -30.7680   24.1180 C   0  0  0  0  0  3  0  0  0  0  0  0
  -16.4720  -30.0090   23.7060 C   0  0  0  0  0  3  0  0  0  0  0  0
  -16.6680  -28.7450   23.1210 C   0  0  0  0  0  3  0  0  0  0  0  0
  -25.8610  -32.6060   23.8620 C   0  0  0  0  0  3  0  0  0  0  0  0
  -26.3710  -31.8330   25.1410 C   0  0  1  0  0  0  0  0  0  0  0  0
  -25.2720  -31.5940   26.2030 C   0  0  0  0  0  1  0  0  0  0  0  0
  -26.9560  -30.4550   24.7540 C   0  0  0  0  0  1  0  0  0  0  0  0
  -27.5190  -32.6260   25.8100 C   0  0  0  0  0  1  0  0  0  0  0  0
  -25.5530  -34.0040   24.1980 N   0  0  0  0  0  0  0  0  0  0  0  0
  -25.8820  -35.0620   23.4450 C   0  0  0  0  0  0  0  0  0  0  0  0
  -26.5450  -34.9630   22.4090 O   0  0  0  0  0  0  0  0  0  0  0  0
  -24.9650  -34.1550   25.0030 H   0  0  0  0  0  0  0  0  0  0  0  0
  -24.1600  -36.8670   23.1090 C   0  0  0  0  0  1  0  0  0  0  0  0
  -25.4010  -36.4510   23.9140 C   0  0  0  0  0  3  0  0  0  0  0  0
  -27.5370  -37.3250   24.7520 C   0  0  0  0  0  1  0  0  0  0  0  0
  -26.4380  -37.5010   23.8070 N   0  0  0  0  0  0  0  0  0  0  0  0
  -26.0350  -38.4220   23.9600 H   0  0  0  0  0  0  0  0  0  0  0  0
  1  2  1  0
  2  7  1  0
  3  2  2  0
  3  8  1  0
  4  3  1  0
  5  6  1  0
  5  4  2  0
  6  1  2  0
  9  5  1  0
 10 18  1  0
 11 16  1  0
 12 13  1  0
 12 11  1  0
 14 13  1  0
 14 23  1  0
 14 15  1  0
 16 10  1  0
 16 15  1  0
 17 10  2  0
 18  6  1  0
 19 18  1  0
 20 21  2  0
 21 40  1  0
 22 21  1  0
 22 25  1  0
 23 20  1  0
 23 24  1  0
 24 22  2  0
 25 26  1  0
 26 27  2  0
 28 31  1  0
 28 27  1  0
 29 28  2  0
 30 29  1  0
 30 25  2  0
 31 32  1  0
 32 33  1  0
 33 34  2  0
 35 34  1  0
 35 39  1  0
 36 35  2  0
 37 32  2  0
 37 36  1  0
 38 37  1  0
 40 41  1  0
 41 44  1  0
 41 43  1  0
 42 40  2  0
 45 46  1  0
 45 20  1  0
 47 45  1  0
 48 49  1  0
 48  4  1  0
 50 51  1  0
 50 49  2  0
 52 63  2  0
 53 51  1  0
 53 58  1  0
 54 62  1  0
 54 64  1  0
 55 61  1  0
 55 57  1  0
 56 62  1  0
 57 58  2  0
 57 56  1  0
 59 53  2  0
 60 59  1  0
 60 55  2  0
 61 54  1  0
 62 52  1  0
 64 66  2  0
 65 64  1  0
 67 65  1  0
 68 77  2  0
 68 73  1  0
 69 65  1  0
 69 73  1  0
 70 69  1  0
 71 72  1  0
 71 70  1  0
 72 68  1  0
 73 74  2  0
 74 75  1  0
 76 75  2  0
 77 76  1  0
 78 52  1  0
 78 83  1  0
 78 79  1  0
 79 82  1  1
 79 80  1  0
 81 79  1  0
 83 86  1  0
 84 88  1  0
 84 83  1  0
 85 84  2  0
 88 87  1  0
 90 88  1  0
 90 91  1  0
 90 89  1  0
M  ISO  4  10 100  18 100  50 101  51 101
M  END
>  <TORSDO>  (83) 
F 19

>  <SCORE>  (83) 
-15.415

>  <name>  (83) 
82

>  <ligand_id>  (83) 
82

>  <original_smiles>  (83) 
[H]c1c([H])c([H])c2c(c1[H])C([H])([H])C([H])([H])C([H])([H])C2([H])N([H])C(=O)C1([H])N(C(=O)C([H])(N([H])C(=O)C([H])(N([H])C([H])([H])[H])C([H])([H])[H])C(C([H])([H])[H])(C([H])([H])[H])C([H])([H])[H])C([H])([H])c2c([H])c(OC([H])([H])C([H])([H])C([H])([H])c3c(C([H])([H])[H])c(N([H])C(=O)N4C([H])([H])C([H])([H])C([H])([H])C([H])(n5nc(-c6c([H])c([H])c(Oc7c([H])c([H])c(F)c([H])c7F)c([H])c6[H])c(C(=O)N([H])[H])c5N([H])[H])C4([H])[H])c([H])c(C([H])([H])[H])c3C([H])([H])[H])c([H])c([H])c2C1([H])[H]

>  <smiles>  (83) 
[H]c1c([H])c([H])c2c(c1[H])C([H])([H])C([H])([H])C([H])([H])C2([H])N([H])C(=O)C1([H])N(C(=O)C([H])(N([H])C(=O)C([H])(N([H])C([H])([H])[H])C([H])([H])[H])C(C([H])([H])[H])(C([H])([H])[H])C([H])([H])[H])C([H])([H])c2c([H])c(OC([H])([H])C([H])([H])C([H])([H])c3c(C([H])([H])[H])c(N([H])C(=O)N4C([H])([H])C([H])([H])C([H])([H])C([H])(n5nc(-c6c([H])c([H])c(Oc7c([H])c([H])c(F)c([H])c7F)c([H])c6[H])c(C(=O)N([H])[H])c5N([H])[H])C4([H])[H])c([H])c(C([H])([H])[H])c3C([H])([H])[H])c([H])c([H])c2C1([H])[H]

$$$$
83:0:0
     RDKit          3D

 85 93  0  0  1  0  0  0  0  0999 V2000
  -28.9430  -22.3540   20.2860 C   0  0  0  0  0  0  0  0  0  0  0  0
  -30.0620  -22.6320   20.7280 O   0  0  0  0  0  0  0  0  0  0  0  0
  -29.1090  -19.6180   21.2440 C   0  0  0  0  0  2  0  0  0  0  0  0
  -28.7550  -20.4970   20.0570 C   0  0  0  0  0  3  0  0  0  0  0  0
  -29.7230  -18.8290   20.1000 C   0  0  0  0  0  3  0  0  0  0  0  0
  -30.3110  -15.7390   19.9890 C   0  0  0  0  0  0  0  0  0  0  0  0
  -30.3840  -13.2140   19.1230 C   0  0  0  0  0  2  0  0  0  0  0  0
  -29.4350  -12.8370   17.9500 C   0  0  0  0  0  2  0  0  0  0  0  0
  -28.0360  -12.4710   18.4680 C   0  0  0  0  0  2  0  0  0  0  0  0
  -27.5760  -13.4450   19.5750 C   0  0  0  0  0  3  0  0  0  0  0  0
  -28.6580  -13.7370   20.6410 C   0  0  0  0  0  2  0  0  0  0  0  0
  -29.7960  -14.3720   19.9360 N   0  0  0  0  0  0  0  0  0  0  0  0
  -31.5310  -15.6980   19.7390 O   0  0  0  0  0  0  0  0  0  0  0  0
  -29.5360  -17.0800   20.1440 N   0  0  0  0  0  0  0  0  0  0  0  0
  -28.5650  -16.8490   20.3020 H   0  0  0  0  0  0  0  0  0  0  0  0
  -25.2560  -13.9380   20.4850 C   0  0  0  0  0  0  0  0  0  0  0  0
  -24.2220  -13.1390   20.8830 C   0  0  0  0  0  0  0  0  0  0  0  0
  -24.6970  -11.7950   20.7790 C   0  0  0  0  0  0  0  0  0  0  0  0
  -26.2890  -13.0830   20.1540 N   0  0  0  0  0  0  0  0  0  0  0  0
  -25.9720  -11.7840   20.3970 N   0  0  0  0  0  0  0  0  0  0  0  0
  -23.9860  -10.5220   20.9620 C   0  0  0  0  0  0  0  0  0  0  0  0
  -24.4300   -9.5530   21.8880 C   0  0  0  0  0  3  0  0  0  0  0  0
  -23.7140   -8.3480   22.0620 C   0  0  0  0  0  3  0  0  0  0  0  0
  -22.5400   -8.1040   21.3110 C   0  0  0  0  0  0  0  0  0  0  0  0
  -22.1150   -9.0620   20.3730 C   0  0  0  0  0  3  0  0  0  0  0  0
  -22.8320  -10.2570   20.1970 C   0  0  0  0  0  3  0  0  0  0  0  0
  -21.7960   -6.9520   21.3950 O   0  0  0  0  0  0  0  0  0  0  0  0
  -21.7070   -6.2350   22.5620 C   0  0  0  0  0  0  0  0  0  0  0  0
  -21.1810   -6.7990   23.7440 C   0  0  0  0  0  3  0  0  0  0  0  0
  -21.0430   -6.0060   24.9010 C   0  0  0  0  0  3  0  0  0  0  0  0
  -21.4220   -4.6510   24.8760 C   0  0  0  0  0  0  0  0  0  0  0  0
  -21.9410   -4.0870   23.6980 C   0  0  0  0  0  3  0  0  0  0  0  0
  -22.0800   -4.8760   22.5430 C   0  0  0  0  0  0  0  0  0  0  0  0
  -22.5610   -4.3210   21.4050 F   0  0  0  0  0  0  0  0  0  0  0  0
  -21.2830   -3.8880   25.9860 F   0  0  0  0  0  0  0  0  0  0  0  0
  -22.8380  -13.5980   21.2350 C   0  0  0  0  0  0  0  0  0  0  0  0
  -22.1600  -12.8750   22.1190 N   0  0  0  0  0  0  0  0  0  0  0  0
  -22.3690  -14.6320   20.7620 O   0  0  0  0  0  0  0  0  0  0  0  0
  -22.5560  -12.0390   22.5230 H   0  0  0  0  0  0  0  0  0  0  0  0
  -21.2340  -13.1640   22.3990 H   0  0  0  0  0  0  0  0  0  0  0  0
  -25.3970  -15.3160   20.3450 N   0  0  0  0  0  0  0  0  0  0  0  0
  -24.6260  -15.9540   20.5110 H   0  0  0  0  0  0  0  0  0  0  0  0
  -26.2070  -15.7700   19.9460 H   0  0  0  0  0  0  0  0  0  0  0  0
  -27.9180  -23.8960   20.0520 C   0  0  0  0  0  2  0  0  0  0  0  0
  -28.1540  -25.6200   20.3040 O   0  0  0  0  0  0  0  0  0  0  0  0
  -24.6650  -31.8770   23.2830 C   0  0  0  0  0  0  0  0  0  0  0  0
  -27.1900  -26.8360   20.2480 C   0  0  0  0  0  0  0  0  0  0  0  0
  -23.4780  -30.5010   21.6290 C   0  0  0  0  0  3  0  0  0  0  0  0
  -24.9250  -28.8660   20.2030 C   0  0  0  0  0  0  0  0  0  0  0  0
  -26.0570  -30.6410   21.5150 C   0  0  0  0  0  2  0  0  0  0  0  0
  -26.1190  -29.2160   20.8440 C   0  0  0  0  0  0  0  0  0  0  0  0
  -27.2370  -28.2290   20.8350 C   0  0  0  0  0  3  0  0  0  0  0  0
  -25.9630  -26.6940   19.5520 C   0  0  0  0  0  3  0  0  0  0  0  0
  -24.8850  -27.6310   19.5330 C   0  0  0  0  0  3  0  0  0  0  0  0
  -23.7200  -29.8170   20.2520 C   0  0  0  0  0  2  0  0  0  0  0  0
  -24.7570  -31.0380   22.1950 N   0  0  0  0  0  0  0  0  0  0  0  0
  -23.5710  -32.1750   23.7940 O   0  0  0  0  0  0  0  0  0  0  0  0
  -22.7560  -29.5160   22.5870 C   0  0  0  0  0  0  0  0  0  0  0  0
  -21.4270  -29.3490   22.4410 N   0  0  0  0  0  0  0  0  0  0  0  0
  -23.4040  -28.8980   23.4350 O   0  0  0  0  0  0  0  0  0  0  0  0
  -20.9540  -29.8970   21.7370 H   0  0  0  0  0  0  0  0  0  0  0  0
  -18.0450  -28.1000   22.8950 C   0  0  0  0  0  0  0  0  0  0  0  0
  -20.5970  -28.4050   23.2000 C   0  0  0  0  0  3  0  0  0  0  0  0
  -20.7260  -26.9710   22.6330 C   0  0  0  0  0  2  0  0  0  0  0  0
  -19.6470  -26.6320   21.6000 C   0  0  0  0  0  2  0  0  0  0  0  0
  -18.2520  -26.7560   22.2190 C   0  0  0  0  0  2  0  0  0  0  0  0
  -19.1440  -28.8810   23.3400 C   0  0  0  0  0  0  0  0  0  0  0  0
  -18.8930  -30.1360   23.9370 C   0  0  0  0  0  3  0  0  0  0  0  0
  -17.5770  -30.6120   24.0880 C   0  0  0  0  0  3  0  0  0  0  0  0
  -16.4920  -29.8300   23.6550 C   0  0  0  0  0  3  0  0  0  0  0  0
  -16.7270  -28.5760   23.0650 C   0  0  0  0  0  3  0  0  0  0  0  0
  -25.9290  -32.5180   23.9340 C   0  0  0  0  0  3  0  0  0  0  0  0
  -25.6180  -33.9240   24.2570 N   0  0  0  0  0  0  0  0  0  0  0  0
  -25.9300  -34.9800   23.4920 C   0  0  0  0  0  0  0  0  0  0  0  0
  -26.5660  -34.8710   22.4410 O   0  0  0  0  0  0  0  0  0  0  0  0
  -25.0470  -34.0810   25.0740 H   0  0  0  0  0  0  0  0  0  0  0  0
  -24.1740  -36.7690   23.2300 C   0  0  0  0  0  1  0  0  0  0  0  0
  -25.4670  -36.3750   23.9630 C   0  0  0  0  0  3  0  0  0  0  0  0
  -27.6380  -37.2940   24.6540 C   0  0  0  0  0  1  0  0  0  0  0  0
  -26.4840  -37.4330   23.7710 N   0  0  0  0  0  0  0  0  0  0  0  0
  -26.0800  -38.3530   23.9190 H   0  0  0  0  0  0  0  0  0  0  0  0
  -26.4000  -31.7620   25.2400 C   0  0  1  0  0  0  0  0  0  0  0  0
  -25.2760  -31.5560   26.2830 C   0  0  0  0  0  1  0  0  0  0  0  0
  -26.9780  -30.3700   24.8980 C   0  0  0  0  0  1  0  0  0  0  0  0
  -27.5420  -32.5550   25.9180 C   0  0  0  0  0  1  0  0  0  0  0  0
  1  2  2  0
  4  5  1  0
  4  1  1  0
  4  3  1  0
  5 14  1  0
  5  3  1  0
  6 14  1  0
  7 12  1  0
  8  9  1  0
  8  7  1  0
 10  9  1  0
 10 19  1  0
 10 11  1  0
 12  6  1  0
 12 11  1  0
 13  6  2  0
 14 15  1  0
 16 17  2  0
 17 36  1  0
 18 17  1  0
 18 21  1  0
 19 20  1  0
 19 16  1  0
 20 18  2  0
 21 22  1  0
 22 23  2  0
 24 27  1  0
 24 23  1  0
 25 24  2  0
 26 25  1  0
 26 21  2  0
 27 28  1  0
 28 29  1  0
 29 30  2  0
 31 30  1  0
 31 35  1  0
 32 31  2  0
 33 28  2  0
 33 32  1  0
 34 33  1  0
 36 37  1  0
 37 40  1  0
 37 39  1  0
 38 36  2  0
 41 16  1  0
 41 42  1  0
 43 41  1  0
 44  1  1  0
 44 45  1  0
 46 57  2  0
 47 45  1  0
 47 52  1  0
 48 56  1  0
 48 58  1  0
 49 55  1  0
 49 51  1  0
 50 56  1  0
 51 50  1  0
 52 51  2  0
 53 47  2  0
 54 53  1  0
 54 49  2  0
 55 48  1  0
 56 46  1  0
 58 60  2  0
 59 58  1  0
 61 59  1  0
 62 71  2  0
 62 67  1  0
 63 59  1  0
 63 67  1  0
 64 63  1  0
 65 66  1  0
 65 64  1  0
 66 62  1  0
 67 68  2  0
 68 69  1  0
 70 69  2  0
 71 70  1  0
 72 46  1  0
 72 73  1  0
 72 82  1  0
 73 76  1  0
 74 78  1  0
 74 73  1  0
 75 74  2  0
 78 77  1  0
 80 81  1  0
 80 78  1  0
 80 79  1  0
 82 85  1  1
 82 83  1  0
 84 82  1  0
M  ISO  4   6 100  14 100  44 101  45 101
M  END
>  <TORSDO>  (84) 
F 18

>  <SCORE>  (84) 
-15.992

>  <name>  (84) 
83

>  <ligand_id>  (84) 
83

>  <original_smiles>  (84) 
[H]c1c([H])c([H])c2c(c1[H])C([H])([H])C([H])([H])C([H])([H])C2([H])N([H])C(=O)C1([H])N(C(=O)C([H])(N([H])C(=O)C([H])(N([H])C([H])([H])[H])C([H])([H])[H])C(C([H])([H])[H])(C([H])([H])[H])C([H])([H])[H])C([H])([H])c2c([H])c(OC([H])([H])C(=O)C3([H])C([H])([H])C3([H])N([H])C(=O)N3C([H])([H])C([H])([H])C([H])([H])C([H])(n4nc(-c5c([H])c([H])c(Oc6c([H])c([H])c(F)c([H])c6F)c([H])c5[H])c(C(=O)N([H])[H])c4N([H])[H])C3([H])[H])c([H])c([H])c2C1([H])[H]

>  <smiles>  (84) 
[H]c1c([H])c([H])c2c(c1[H])C([H])([H])C([H])([H])C([H])([H])C2([H])N([H])C(=O)C1([H])N(C(=O)C([H])(N([H])C(=O)C([H])(N([H])C([H])([H])[H])C([H])([H])[H])C(C([H])([H])[H])(C([H])([H])[H])C([H])([H])[H])C([H])([H])c2c([H])c(OC([H])([H])C(=O)C3([H])C([H])([H])C3([H])N([H])C(=O)N3C([H])([H])C([H])([H])C([H])([H])C([H])(n4nc(-c5c([H])c([H])c(Oc6c([H])c([H])c(F)c([H])c6F)c([H])c5[H])c(C(=O)N([H])[H])c4N([H])[H])C3([H])[H])c([H])c([H])c2C1([H])[H]

$$$$
84:0:0
     RDKit          3D

 98 97  0  0  1  0  0  0  0  0999 V2000
  -27.8510  -14.2190   21.9590 C   0  0  0  0  0 15  0  0  0  0  0  0
  -27.4330  -14.2530   18.2670 C   0  0  0  0  0  1  0  0  0  0  0  0
  -27.7120  -16.2620   21.4420 C   0  0  0  0  0  1  0  0  0  0  0  0
  -27.4700  -16.3030   18.6450 C   0  0  0  0  0  1  0  0  0  0  0  0
  -28.2250  -12.5870   20.1110 C   0  0  0  0  0  2  0  0  0  0  0  0
  -27.7770  -17.4540   20.0230 N   0  0  0  0  0  0  0  0  0  0  0  0
  -28.7810  -17.4730   19.9240 H   0  0  0  0  0  0  0  0  0  0  0  0
  -31.2360  -12.8150   18.9520 C   0  0  0  0  0  1  0  0  0  0  0  0
  -31.3080   -9.8370   20.4180 C   0  0  0  0  0  3  0  0  0  0  0  0
  -29.7110  -12.1430   20.1350 C   0  0  0  0  0  2  0  0  0  0  0  0
  -32.5310  -11.8710   18.8370 C   0  0  0  0  0  3  0  0  0  0  0  0
  -29.9520  -10.6270   20.7740 C   0  0  0  0  0  3  0  0  0  0  0  0
  -32.4980  -10.4030   19.5020 C   0  0  0  0  0  0  0  0  0  0  0  0
  -29.0010   -9.9750   21.7750 C   0  0  0  0  0  1  0  0  0  0  0  0
  -33.6540   -9.4520   19.2440 C   0  0  0  0  0  1  0  0  0  0  0  0
  -34.1740  -13.3770   17.6490 C   0  0  0  0  0  1  0  0  0  0  0  0
  -33.7940  -12.7030   18.9810 C   0  0  0  0  0  3  0  0  0  0  0  0
  -32.6780  -14.3060   20.7680 C   0  0  0  0  0  0  0  0  0  0  0  0
  -31.8690  -11.9490   21.0980 C   0  0  0  0  0  1  0  0  0  0  0  0
  -30.3540  -10.8830   18.4780 C   0  0  0  0  0  1  0  0  0  0  0  0
  -29.2500  -12.3470   18.0230 C   0  0  0  0  0  1  0  0  0  0  0  0
  -28.8690  -14.1560   19.2930 C   0  0  0  0  0  2  0  0  0  0  0  0
  -30.3440  -14.4140   20.6740 C   0  0  0  0  0  1  0  0  0  0  0  0
  -31.6340  -13.5930   21.2800 N   0  0  0  0  0  0  0  0  0  0  0  0
  -32.6600  -15.4940   20.5610 O   0  0  0  0  0  0  0  0  0  0  0  0
  -33.7330  -13.6340   20.1860 N   0  0  0  0  0  0  0  0  0  0  0  0
  -34.5400  -14.2280   20.2060 H   0  0  0  0  0  0  0  0  0  0  0  0
  -25.3400  -14.2540   20.4450 C   0  0  0  0  0  0  0  0  0  0  0  0
  -24.3780  -13.2760   20.6220 C   0  0  0  0  0  0  0  0  0  0  0  0
  -24.8740  -11.9710   20.7360 C   0  0  0  0  0  3  0  0  0  0  0  0
  -26.5350  -13.7590   20.3390 N   0  0  0  0  0  2  0  0  0  0  0  0
  -26.0700  -12.4250   21.0130 N   0  0  0  0  0  2  0  0  0  0  0  0
  -24.2120  -10.5700   20.9120 C   0  0  0  0  0  0  0  0  0  0  0  0
  -24.5650   -9.5310   21.8350 C   0  0  0  0  0  3  0  0  0  0  0  0
  -23.7490   -8.3620   22.0250 C   0  0  0  0  0  3  0  0  0  0  0  0
  -22.5460   -8.1790   21.2930 C   0  0  0  0  0  0  0  0  0  0  0  0
  -22.2390   -9.1490   20.3250 C   0  0  0  0  0  3  0  0  0  0  0  0
  -23.0500  -10.2940   20.1410 C   0  0  0  0  0  3  0  0  0  0  0  0
  -21.6870   -7.0930   21.4000 O   0  0  0  0  0  0  0  0  0  0  0  0
  -21.5010   -6.3810   22.5670 C   0  0  0  0  0  0  0  0  0  0  0  0
  -21.0870   -7.0050   23.7650 C   0  0  0  0  0  3  0  0  0  0  0  0
  -20.8570   -6.2380   24.9260 C   0  0  0  0  0  3  0  0  0  0  0  0
  -21.0250   -4.8400   24.8940 C   0  0  0  0  0  0  0  0  0  0  0  0
  -21.4040   -4.2080   23.7000 C   0  0  0  0  0  3  0  0  0  0  0  0
  -21.6420   -4.9750   22.5390 C   0  0  0  0  0  0  0  0  0  0  0  0
  -21.9870   -4.3420   21.3930 F   0  0  0  0  0  0  0  0  0  0  0  0
  -20.8100   -4.1100   26.0130 F   0  0  0  0  0  0  0  0  0  0  0  0
  -22.9930  -13.6430   20.7950 C   0  0  0  0  0  0  0  0  0  0  0  0
  -22.3170  -12.9910   21.7200 N   0  0  0  0  0  0  0  0  0  0  0  0
  -22.5660  -14.5930   20.1610 O   0  0  0  0  0  0  0  0  0  0  0  0
  -22.7410  -12.2440   22.2450 H   0  0  0  0  0  0  0  0  0  0  0  0
  -21.3680  -13.2820   21.9160 H   0  0  0  0  0  0  0  0  0  0  0  0
  -25.3740  -15.5930   20.3950 N   0  0  0  0  0  0  0  0  0  0  0  0
  -26.0540  -15.9700   21.0390 H   0  0  0  0  0  0  0  0  0  0  0  0
  -24.4810  -16.0590   20.5130 H   0  0  0  0  0  0  0  0  0  0  0  0
  -27.6710  -19.5600   20.1810 C   0  0  0  0  0 15  0  0  0  0  0  0
  -27.7830  -21.8580   19.4940 C   0  0  0  0  0 15  0  0  0  0  0  0
  -28.0150  -23.9910   19.7070 O   0  0  0  0  0  1  0  0  0  0  0  0
  -24.9360  -31.2640   22.6210 C   0  0  0  0  0  0  0  0  0  0  0  0
  -27.3550  -25.6170   19.6400 C   0  0  0  0  0  0  0  0  0  0  0  0
  -23.8570  -29.8410   20.9570 C   0  0  0  0  0  3  0  0  0  0  0  0
  -25.3390  -28.1540   19.5370 C   0  0  0  0  0  0  0  0  0  0  0  0
  -26.4500  -29.8140   20.9800 C   0  0  0  0  0  2  0  0  0  0  0  0
  -26.5050  -28.3260   20.2820 C   0  0  0  0  0  0  0  0  0  0  0  0
  -27.4850  -27.0990   20.2920 C   0  0  0  0  0  3  0  0  0  0  0  0
  -26.2450  -25.8900   18.7770 C   0  0  0  0  0  3  0  0  0  0  0  0
  -25.3010  -26.9890   18.7490 C   0  0  0  0  0  3  0  0  0  0  0  0
  -24.1670  -29.1740   19.5790 C   0  0  0  0  0  2  0  0  0  0  0  0
  -25.1190  -30.3680   21.5670 N   0  0  0  0  0  0  0  0  0  0  0  0
  -23.8050  -31.5320   23.0770 O   0  0  0  0  0  0  0  0  0  0  0  0
  -23.1290  -28.8460   21.9030 C   0  0  0  0  0  0  0  0  0  0  0  0
  -21.7860  -28.7480   21.8370 N   0  0  0  0  0  0  0  0  0  0  0  0
  -23.7940  -28.1580   22.6790 O   0  0  0  0  0  0  0  0  0  0  0  0
  -21.2940  -29.3450   21.1890 H   0  0  0  0  0  0  0  0  0  0  0  0
  -18.3900  -27.6570   22.5610 C   0  0  0  0  0  0  0  0  0  0  0  0
  -20.9750  -27.7790   22.5890 C   0  0  0  0  0  3  0  0  0  0  0  0
  -20.9420  -26.4150   21.8620 C   0  0  0  0  0  2  0  0  0  0  0  0
  -19.7340  -26.2620   20.9320 C   0  0  0  0  0  2  0  0  0  0  0  0
  -18.4260  -26.3940   21.7190 C   0  0  0  0  0  2  0  0  0  0  0  0
  -19.5850  -28.3180   22.9540 C   0  0  0  0  0  0  0  0  0  0  0  0
  -19.4890  -29.5040   23.7130 C   0  0  0  0  0  3  0  0  0  0  0  0
  -18.2320  -30.0240   24.0820 C   0  0  0  0  0  3  0  0  0  0  0  0
  -17.0550  -29.3580   23.6990 C   0  0  0  0  0  3  0  0  0  0  0  0
  -17.1340  -28.1770   22.9410 C   0  0  0  0  0  3  0  0  0  0  0  0
  -26.1140  -32.0120   23.3200 C   0  0  0  0  0  3  0  0  0  0  0  0
  -26.7210  -31.2000   24.5310 C   0  0  1  0  0  0  0  0  0  0  0  0
  -25.6700  -30.7560   25.5790 C   0  0  0  0  0  1  0  0  0  0  0  0
  -27.4490  -29.9330   24.0460 C   0  0  0  0  0  1  0  0  0  0  0  0
  -27.7900  -32.0570   25.2500 C   0  0  0  0  0  1  0  0  0  0  0  0
  -25.6230  -33.3200   23.8240 N   0  0  0  0  0  0  0  0  0  0  0  0
  -25.8720  -34.5200   23.2810 C   0  0  0  0  0  0  0  0  0  0  0  0
  -26.5730  -34.6550   22.2780 O   0  0  0  0  0  0  0  0  0  0  0  0
  -24.9920  -33.2800   24.6100 H   0  0  0  0  0  0  0  0  0  0  0  0
  -23.9760  -36.1910   23.1970 C   0  0  0  0  0  1  0  0  0  0  0  0
  -25.2510  -35.7720   23.9490 C   0  0  0  0  0  3  0  0  0  0  0  0
  -27.2820  -36.7350   24.9570 C   0  0  0  0  0  1  0  0  0  0  0  0
  -26.1740  -36.9310   24.0240 N   0  0  0  0  0  0  0  0  0  0  0  0
  -25.6740  -37.7730   24.2970 H   0  0  0  0  0  0  0  0  0  0  0  0
  2 22  1  0
  4  6  1  0
  5 10  1  0
  6  3  1  0
  7  6  1  0
  9 12  1  0
 10 12  1  0
 11  8  1  0
 11 17  1  0
 11 13  1  0
 12 14  1  0
 13  9  2  0
 15 13  1  0
 17 16  1  0
 17 26  1  0
 18 24  1  0
 19 24  1  0
 21 20  1  0
 22  5  1  0
 23 24  1  0
 25 18  2  0
 26 27  1  0
 26 18  1  0
 28 29  2  0
 29 30  1  0
 29 48  1  0
 30 33  1  0
 30 32  1  0
 31 28  1  0
 31 32  1  0
 33 34  1  0
 34 35  2  0
 36 39  1  0
 36 35  1  0
 37 36  2  0
 38 37  1  0
 38 33  2  0
 39 40  1  0
 40 41  1  0
 41 42  2  0
 43 42  1  0
 43 47  1  0
 44 43  2  0
 45 40  2  0
 45 44  1  0
 46 45  1  0
 48 49  1  0
 49 52  1  0
 49 51  1  0
 50 48  2  0
 53 28  1  0
 53 55  1  0
 53 54  1  0
 59 70  2  0
 60 58  1  0
 60 65  1  0
 61 69  1  0
 61 71  1  0
 62 68  1  0
 62 64  1  0
 63 69  1  0
 64 65  2  0
 64 63  1  0
 66 60  2  0
 67 66  1  0
 67 62  2  0
 68 61  1  0
 69 59  1  0
 71 73  2  0
 72 71  1  0
 74 72  1  0
 75 84  2  0
 75 80  1  0
 76 72  1  0
 76 80  1  0
 77 76  1  0
 78 79  1  0
 78 77  1  0
 79 75  1  0
 80 81  2  0
 81 82  1  0
 83 82  2  0
 84 83  1  0
 85 59  1  0
 85 90  1  0
 85 86  1  0
 86 89  1  1
 86 87  1  0
 88 86  1  0
 90 93  1  0
 91 90  1  0
 91 95  1  0
 92 91  2  0
 95 94  1  0
 95 97  1  0
 97 98  1  0
 97 96  1  0
M  ISO  4  18 100  26 100  57 101  58 101
M  END
>  <TORSDO>  (85) 
F 20

>  <SCORE>  (85) 
-10.421

>  <name>  (85) 
84

>  <ligand_id>  (85) 
84

>  <original_smiles>  (85) 
[H]c1c([H])c([H])c2c(c1[H])C([H])([H])C([H])([H])C([H])([H])C2([H])N([H])C(=O)C1([H])N(C(=O)C([H])(N([H])C(=O)C([H])(N([H])C([H])([H])[H])C([H])([H])[H])C(C([H])([H])[H])(C([H])([H])[H])C([H])([H])[H])C([H])([H])c2c([H])c(OC([H])([H])C([H])([H])[N+]3([H])C([H])([H])C([H])([H])C([H])(c4c([H])c(C([H])(N([H])C(=O)N5C([H])([H])C([H])([H])C([H])([H])C([H])(n6nc(-c7c([H])c([H])c(Oc8c([H])c([H])c(F)c([H])c8F)c([H])c7[H])c(C(=O)N([H])[H])c6N([H])[H])C5([H])[H])C([H])([H])[H])c(C([H])([H])[H])c([H])c4C([H])([H])[H])C([H])([H])C3([H])[H])c([H])c([H])c2C1([H])[H]

>  <smiles>  (85) 
[H]c1c([H])c([H])c2c(c1[H])C([H])([H])C([H])([H])C([H])([H])C2([H])N([H])C(=O)C1([H])N(C(=O)C([H])(N([H])C(=O)C([H])(N([H])C([H])([H])[H])C([H])([H])[H])C(C([H])([H])[H])(C([H])([H])[H])C([H])([H])[H])C([H])([H])c2c([H])c(OC([H])([H])C([H])([H])[N+]3([H])C([H])([H])C([H])([H])C([H])(c4c([H])c(C([H])(N([H])C(=O)N5C([H])([H])C([H])([H])C([H])([H])C([H])(n6nc(-c7c([H])c([H])c(Oc8c([H])c([H])c(F)c([H])c8F)c([H])c7[H])c(C(=O)N([H])[H])c6N([H])[H])C5([H])[H])C([H])([H])[H])c(C([H])([H])[H])c([H])c4C([H])([H])[H])C([H])([H])C3([H])[H])c([H])c([H])c2C1([H])[H]

$$$$
85:0:0
     RDKit          3D

 96105  0  0  1  0  0  0  0  0999 V2000
  -29.9470  -23.9000   19.2210 C   0  0  0  0  0  2  0  0  0  0  0  0
  -27.4760  -23.2960   19.2020 C   0  0  0  0  0  2  0  0  0  0  0  0
  -30.0460  -22.4580   19.7840 C   0  0  0  0  0  2  0  0  0  0  0  0
  -27.9720  -22.0910   18.3740 C   0  0  0  0  0  2  0  0  0  0  0  0
  -28.4990  -24.4630   19.2530 C   0  0  0  0  0  3  0  0  0  0  0  0
  -29.2370  -21.3920   18.9690 C   0  0  1  0  0  0  0  0  0  0  0  0
  -30.1020  -20.8870   17.7940 C   0  0  0  0  0  1  0  0  0  0  0  0
  -28.2220  -25.4240   20.4480 C   0  0  0  0  0  2  0  0  0  0  0  0
  -28.3720  -26.8300   20.1560 O   0  0  0  0  0  0  0  0  0  0  0  0
  -24.5190  -31.9690   23.3000 C   0  0  0  0  0  0  0  0  0  0  0  0
  -27.2080  -27.5740   20.1590 C   0  0  0  0  0  0  0  0  0  0  0  0
  -23.3340  -30.5900   21.6250 C   0  0  0  0  0  3  0  0  0  0  0  0
  -24.8010  -29.0730   20.1920 C   0  0  0  0  0  0  0  0  0  0  0  0
  -25.8630  -30.9490   21.4610 C   0  0  0  0  0  2  0  0  0  0  0  0
  -25.9570  -29.5890   20.7980 C   0  0  0  0  0  0  0  0  0  0  0  0
  -27.1630  -28.8490   20.7760 C   0  0  0  0  0  3  0  0  0  0  0  0
  -26.0390  -27.0830   19.5390 C   0  0  0  0  0  3  0  0  0  0  0  0
  -24.8410  -27.8190   19.5560 C   0  0  0  0  0  3  0  0  0  0  0  0
  -23.5550  -29.9270   20.2390 C   0  0  0  0  0  2  0  0  0  0  0  0
  -24.5890  -31.1840   22.1860 N   0  0  0  0  0  0  0  0  0  0  0  0
  -23.4310  -32.2320   23.8320 O   0  0  0  0  0  0  0  0  0  0  0  0
  -22.6750  -29.5560   22.5630 C   0  0  0  0  0  0  0  0  0  0  0  0
  -21.3610  -29.3410   22.3920 N   0  0  0  0  0  0  0  0  0  0  0  0
  -23.3440  -28.9480   23.4030 O   0  0  0  0  0  0  0  0  0  0  0  0
  -20.8800  -29.8860   21.6890 H   0  0  0  0  0  0  0  0  0  0  0  0
  -18.0050  -28.0480   22.7530 C   0  0  0  0  0  0  0  0  0  0  0  0
  -20.5400  -28.3830   23.1310 C   0  0  0  0  0  3  0  0  0  0  0  0
  -20.7080  -26.9520   22.5700 C   0  0  0  0  0  2  0  0  0  0  0  0
  -19.6600  -26.5920   21.5110 C   0  0  0  0  0  2  0  0  0  0  0  0
  -18.2490  -26.7000   22.0960 C   0  0  0  0  0  2  0  0  0  0  0  0
  -19.0820  -28.8440   23.2260 C   0  0  0  0  0  0  0  0  0  0  0  0
  -18.8020  -30.1040   23.7990 C   0  0  0  0  0  3  0  0  0  0  0  0
  -17.4780  -30.5690   23.9040 C   0  0  0  0  0  3  0  0  0  0  0  0
  -16.4150  -29.7700   23.4490 C   0  0  0  0  0  3  0  0  0  0  0  0
  -16.6790  -28.5100   22.8820 C   0  0  0  0  0  3  0  0  0  0  0  0
  -25.7970  -32.5930   23.9440 C   0  0  0  0  0  3  0  0  0  0  0  0
  -25.5010  -34.0020   24.2390 N   0  0  0  0  0  0  0  0  0  0  0  0
  -25.8700  -35.0340   23.4710 C   0  0  0  0  0  0  0  0  0  0  0  0
  -26.5680  -34.9010   22.4620 O   0  0  0  0  0  0  0  0  0  0  0  0
  -24.8910  -34.1800   25.0240 H   0  0  0  0  0  0  0  0  0  0  0  0
  -24.1870  -36.8470   23.0180 C   0  0  0  0  0  1  0  0  0  0  0  0
  -25.3890  -36.4380   23.8850 C   0  0  0  0  0  3  0  0  0  0  0  0
  -27.5010  -37.3090   24.7850 C   0  0  0  0  0  1  0  0  0  0  0  0
  -26.4420  -37.4700   23.7930 N   0  0  0  0  0  0  0  0  0  0  0  0
  -26.0470  -38.4000   23.8970 H   0  0  0  0  0  0  0  0  0  0  0  0
  -26.2700  -31.8390   25.2480 C   0  0  1  0  0  0  0  0  0  0  0  0
  -25.1450  -31.6280   26.2880 C   0  0  0  0  0  1  0  0  0  0  0  0
  -26.8490  -30.4490   24.8950 C   0  0  0  0  0  1  0  0  0  0  0  0
  -27.4070  -32.6330   25.9320 C   0  0  0  0  0  1  0  0  0  0  0  0
  -28.8000  -20.1530   19.8420 C   0  0  0  0  0  2  0  0  0  0  0  0
  -31.2880  -18.0260   21.5230 C   0  0  0  0  0  3  0  0  0  0  0  0
  -31.3780  -19.3250   22.0810 C   0  0  0  0  0  0  0  0  0  0  0  0
  -30.3040  -18.1180   20.5820 C   0  0  0  0  0  0  0  0  0  0  0  0
  -30.5020  -20.1540   21.5510 N   0  0  0  0  0  0  0  0  0  0  0  0
  -29.8580  -19.4500   20.5920 N   0  0  0  0  0  0  0  0  0  0  0  0
  -33.3740  -20.7710   22.5350 C   0  0  0  0  0  1  0  0  0  0  0  0
  -32.3300  -19.8130   23.1250 C   0  0  0  0  0  2  0  0  0  0  0  0
  -29.8300  -17.0050   19.6790 C   0  0  0  0  0  2  0  0  0  0  0  0
  -30.5450  -14.6220   20.0170 C   0  0  0  0  0  0  0  0  0  0  0  0
  -30.2420  -12.4200   18.9790 C   0  0  0  0  0  2  0  0  0  0  0  0
  -29.2300  -12.5990   17.8270 C   0  0  0  0  0  2  0  0  0  0  0  0
  -27.7800  -12.4680   18.3260 C   0  0  0  0  0  2  0  0  0  0  0  0
  -27.5040  -13.3090   19.6010 C   0  0  0  0  0  3  0  0  0  0  0  0
  -28.6230  -13.1160   20.6540 C   0  0  0  0  0  2  0  0  0  0  0  0
  -29.9130  -13.4160   20.0110 N   0  0  0  0  0  0  0  0  0  0  0  0
  -31.6640  -14.7970   19.5380 O   0  0  0  0  0  0  0  0  0  0  0  0
  -29.7480  -15.6680   20.3100 N   0  0  0  0  0  0  0  0  0  0  0  0
  -28.8760  -15.4330   20.7550 H   0  0  0  0  0  0  0  0  0  0  0  0
  -25.1510  -13.8950   20.4600 C   0  0  0  0  0  0  0  0  0  0  0  0
  -24.1080  -13.1140   20.8740 C   0  0  0  0  0  0  0  0  0  0  0  0
  -24.5680  -11.7630   20.7870 C   0  0  0  0  0  0  0  0  0  0  0  0
  -26.1830  -13.0230   20.1510 N   0  0  0  0  0  0  0  0  0  0  0  0
  -25.8400  -11.7360   20.4040 N   0  0  0  0  0  0  0  0  0  0  0  0
  -23.8570  -10.4920   20.9860 C   0  0  0  0  0  0  0  0  0  0  0  0
  -24.3190   -9.5220   21.9020 C   0  0  0  0  0  3  0  0  0  0  0  0
  -23.6080   -8.3170   22.0900 C   0  0  0  0  0  3  0  0  0  0  0  0
  -22.4170   -8.0740   21.3640 C   0  0  0  0  0  0  0  0  0  0  0  0
  -21.9730   -9.0330   20.4360 C   0  0  0  0  0  3  0  0  0  0  0  0
  -22.6870  -10.2290   20.2450 C   0  0  0  0  0  3  0  0  0  0  0  0
  -21.6750   -6.9230   21.4660 O   0  0  0  0  0  0  0  0  0  0  0  0
  -21.6440   -6.1840   22.6210 C   0  0  0  0  0  0  0  0  0  0  0  0
  -21.1840   -6.7270   23.8400 C   0  0  0  0  0  3  0  0  0  0  0  0
  -21.1000   -5.9130   24.9860 C   0  0  0  0  0  3  0  0  0  0  0  0
  -21.4700   -4.5570   24.9180 C   0  0  0  0  0  0  0  0  0  0  0  0
  -21.9260   -4.0130   23.7040 C   0  0  0  0  0  3  0  0  0  0  0  0
  -22.0100   -4.8240   22.5590 C   0  0  0  0  0  0  0  0  0  0  0  0
  -22.4290   -4.2880   21.3860 F   0  0  0  0  0  0  0  0  0  0  0  0
  -21.3830   -3.7730   26.0180 F   0  0  0  0  0  0  0  0  0  0  0  0
  -22.7240  -13.5760   21.2370 C   0  0  0  0  0  0  0  0  0  0  0  0
  -22.0460  -12.8560   22.1230 N   0  0  0  0  0  0  0  0  0  0  0  0
  -22.2560  -14.6150   20.7690 O   0  0  0  0  0  0  0  0  0  0  0  0
  -22.4410  -12.0190   22.5260 H   0  0  0  0  0  0  0  0  0  0  0  0
  -21.1170  -13.1410   22.4000 H   0  0  0  0  0  0  0  0  0  0  0  0
  -25.3090  -15.2680   20.2970 N   0  0  0  0  0  0  0  0  0  0  0  0
  -24.5630  -15.9320   20.4610 H   0  0  0  0  0  0  0  0  0  0  0  0
  -26.1340  -15.6940   19.8970 H   0  0  0  0  0  0  0  0  0  0  0  0
  1  5  1  0
  1  3  1  0
  2  5  1  0
  4  6  1  0
  4  2  1  0
  5  8  1  0
  6  7  1  6
  6  3  1  0
  6 50  1  0
  9 11  1  0
  9  8  1  0
 10 21  2  0
 11 16  1  0
 12 20  1  0
 12 22  1  0
 13 19  1  0
 13 15  1  0
 14 20  1  0
 15 14  1  0
 16 15  2  0
 17 18  1  0
 17 11  2  0
 18 13  2  0
 19 12  1  0
 20 10  1  0
 22 24  2  0
 23 22  1  0
 25 23  1  0
 26 35  2  0
 26 31  1  0
 27 23  1  0
 27 31  1  0
 28 27  1  0
 29 30  1  0
 29 28  1  0
 30 26  1  0
 31 32  2  0
 32 33  1  0
 34 33  2  0
 35 34  1  0
 36 10  1  0
 36 37  1  0
 36 46  1  0
 37 40  1  0
 38 42  1  0
 38 37  1  0
 39 38  2  0
 42 41  1  0
 44 42  1  0
 44 45  1  0
 44 43  1  0
 46 49  1  1
 46 47  1  0
 48 46  1  0
 50 55  1  0
 51 52  1  0
 52 57  1  0
 53 55  1  0
 53 51  2  0
 54 52  2  0
 55 54  1  0
 56 57  1  0
 58 67  1  0
 58 53  1  0
 59 67  1  0
 60 65  1  0
 61 62  1  0
 61 60  1  0
 63 62  1  0
 63 72  1  0
 63 64  1  0
 65 59  1  0
 65 64  1  0
 66 59  2  0
 67 68  1  0
 69 70  2  0
 70 89  1  0
 71 70  1  0
 71 74  1  0
 72 73  1  0
 72 69  1  0
 73 71  2  0
 74 75  1  0
 75 76  2  0
 77 80  1  0
 77 76  1  0
 78 77  2  0
 79 78  1  0
 79 74  2  0
 80 81  1  0
 81 82  1  0
 82 83  2  0
 84 83  1  0
 84 88  1  0
 85 84  2  0
 86 81  2  0
 86 85  1  0
 87 86  1  0
 89 90  1  0
 90 93  1  0
 90 92  1  0
 91 89  2  0
 94 69  1  0
 94 95  1  0
 96 94  1  0
M  ISO  4   8 101   9 101  59 100  67 100
M  END
>  <TORSDO>  (86) 
F 21

>  <SCORE>  (86) 
-13.810

>  <name>  (86) 
85

>  <ligand_id>  (86) 
85

>  <original_smiles>  (86) 
[H]c1c([H])c([H])c2c(c1[H])C([H])([H])C([H])([H])C([H])([H])C2([H])N([H])C(=O)C1([H])N(C(=O)C([H])(N([H])C(=O)C([H])(N([H])C([H])([H])[H])C([H])([H])[H])C(C([H])([H])[H])(C([H])([H])[H])C([H])([H])[H])C([H])([H])c2c([H])c(OC([H])([H])C3([H])C([H])([H])C([H])([H])C(C([H])([H])[H])(C([H])([H])n4nc(C([H])([H])C([H])([H])[H])c([H])c4C([H])([H])N([H])C(=O)N4C([H])([H])C([H])([H])C([H])([H])C([H])(n5nc(-c6c([H])c([H])c(Oc7c([H])c([H])c(F)c([H])c7F)c([H])c6[H])c(C(=O)N([H])[H])c5N([H])[H])C4([H])[H])C([H])([H])C3([H])[H])c([H])c([H])c2C1([H])[H]

>  <smiles>  (86) 
[H]c1c([H])c([H])c2c(c1[H])C([H])([H])C([H])([H])C([H])([H])C2([H])N([H])C(=O)C1([H])N(C(=O)C([H])(N([H])C(=O)C([H])(N([H])C([H])([H])[H])C([H])([H])[H])C(C([H])([H])[H])(C([H])([H])[H])C([H])([H])[H])C([H])([H])c2c([H])c(OC([H])([H])C3([H])C([H])([H])C([H])([H])C(C([H])([H])[H])(C([H])([H])n4nc(C([H])([H])C([H])([H])[H])c([H])c4C([H])([H])N([H])C(=O)N4C([H])([H])C([H])([H])C([H])([H])C([H])(n5nc(-c6c([H])c([H])c(Oc7c([H])c([H])c(F)c([H])c7F)c([H])c6[H])c(C(=O)N([H])[H])c5N([H])[H])C4([H])[H])C([H])([H])C3([H])[H])c([H])c([H])c2C1([H])[H]

$$$$
86:0:0
     RDKit          3D

 98107  0  0  1  0  0  0  0  0999 V2000
  -30.7970  -14.1850   20.1230 C   0  0  0  0  0  0  0  0  0  0  0  0
  -30.5900  -11.7670   19.6060 C   0  0  0  0  0  2  0  0  0  0  0  0
  -29.7010  -11.5560   18.3630 C   0  0  0  0  0  2  0  0  0  0  0  0
  -28.2110  -11.4930   18.7550 C   0  0  0  0  0  2  0  0  0  0  0  0
  -27.7920  -12.6750   19.6670 C   0  0  0  0  0  3  0  0  0  0  0  0
  -28.7860  -12.8330   20.8420 C   0  0  0  0  0  2  0  0  0  0  0  0
  -30.1510  -12.9950   20.2930 N   0  0  0  0  0  0  0  0  0  0  0  0
  -31.8280  -14.2960   19.4400 O   0  0  0  0  0  0  0  0  0  0  0  0
  -30.8410  -17.2840   19.4960 C   0  0  0  0  0  3  0  0  0  0  0  0
  -28.3500  -18.2850   20.2080 C   0  0  0  0  0  2  0  0  0  0  0  0
  -29.1640  -19.0560   19.3550 C   0  0  0  0  0  0  0  0  0  0  0  0
  -30.4470  -18.5630   19.0250 C   0  0  0  0  0  0  0  0  0  0  0  0
  -29.9660  -16.5190   20.3150 C   0  0  0  0  0  0  0  0  0  0  0  0
  -28.5570  -20.3330   18.7630 C   0  0  0  0  0  2  0  0  0  0  0  0
  -31.7560  -20.5930   18.7910 C   0  0  0  0  0  2  0  0  0  0  0  0
  -30.6400  -21.6170   19.1430 C   0  0  0  0  0  3  0  0  0  0  0  0
  -28.7750  -17.0820   20.6540 N   0  0  0  0  0  0  0  0  0  0  0  0
  -31.3090  -19.3190   18.2160 N   0  0  0  0  0  0  0  0  0  0  0  0
  -30.2570  -15.2100   20.8090 N   0  0  0  0  0  0  0  0  0  0  0  0
  -29.4640  -21.4050   18.2420 N   0  0  2  0  0  4  0  0  0  0  0  0
  -28.1220  -16.5670   21.2550 H   0  0  0  0  0  0  0  0  0  0  0  0
  -32.0840  -18.7710   17.8560 H   0  0  0  0  0  0  0  0  0  0  0  0
  -29.6260  -14.8700   21.5100 H   0  0  0  0  0  0  0  0  0  0  0  0
  -29.8630  -21.0250   17.3930 H   0  0  0  0  0  0  0  0  0  0  0  0
  -25.4480  -13.4990   20.3530 C   0  0  0  0  0  0  0  0  0  0  0  0
  -24.3170  -12.8250   20.7310 C   0  0  0  0  0  0  0  0  0  0  0  0
  -24.6620  -11.4380   20.7190 C   0  0  0  0  0  0  0  0  0  0  0  0
  -26.4160  -12.5280   20.1390 N   0  0  0  0  0  0  0  0  0  0  0  0
  -25.9440  -11.2860   20.4130 N   0  0  0  0  0  0  0  0  0  0  0  0
  -23.8310  -10.2450   20.9250 C   0  0  0  0  0  0  0  0  0  0  0  0
  -24.1770   -9.2600   21.8760 C   0  0  0  0  0  3  0  0  0  0  0  0
  -23.3540   -8.1310   22.0690 C   0  0  0  0  0  3  0  0  0  0  0  0
  -22.1680   -7.9780   21.3100 C   0  0  0  0  0  0  0  0  0  0  0  0
  -21.8390   -8.9510   20.3490 C   0  0  0  0  0  3  0  0  0  0  0  0
  -22.6630  -10.0730   20.1550 C   0  0  0  0  0  3  0  0  0  0  0  0
  -21.3200   -6.9020   21.4110 O   0  0  0  0  0  0  0  0  0  0  0  0
  -21.1560   -6.2240   22.5920 C   0  0  0  0  0  0  0  0  0  0  0  0
  -20.6800   -6.8640   23.7580 C   0  0  0  0  0  3  0  0  0  0  0  0
  -20.4570   -6.1160   24.9310 C   0  0  0  0  0  3  0  0  0  0  0  0
  -20.7010   -4.7290   24.9390 C   0  0  0  0  0  0  0  0  0  0  0  0
  -21.1690   -4.0890   23.7780 C   0  0  0  0  0  3  0  0  0  0  0  0
  -21.3930   -4.8350   22.6080 C   0  0  0  0  0  0  0  0  0  0  0  0
  -21.8240   -4.2100   21.4850 F   0  0  0  0  0  0  0  0  0  0  0  0
  -20.4800   -4.0080   26.0630 F   0  0  0  0  0  0  0  0  0  0  0  0
  -22.9660  -13.4230   21.0010 C   0  0  0  0  0  0  0  0  0  0  0  0
  -22.1930  -12.8160   21.8930 N   0  0  0  0  0  0  0  0  0  0  0  0
  -22.6080  -14.4640   20.4520 O   0  0  0  0  0  0  0  0  0  0  0  0
  -22.4950  -11.9730   22.3590 H   0  0  0  0  0  0  0  0  0  0  0  0
  -21.2860  -13.2010   22.1160 H   0  0  0  0  0  0  0  0  0  0  0  0
  -25.7270  -14.8490   20.1620 N   0  0  0  0  0  0  0  0  0  0  0  0
  -25.0050  -15.5570   20.2370 H   0  0  0  0  0  0  0  0  0  0  0  0
  -26.6050  -15.2170   19.8150 H   0  0  0  0  0  0  0  0  0  0  0  0
  -32.1960  -23.2970   20.3410 C   0  0  0  0  0  1  0  0  0  0  0  0
  -31.2190  -23.0560   19.1780 C   0  0  0  0  0  2  0  0  0  0  0  0
  -28.6190  -22.5920   17.8780 C   0  0  0  0  0  2  0  0  0  0  0  0
  -29.2410  -23.7210   17.0050 C   0  0  0  0  0  2  0  0  0  0  0  0
  -28.1780  -24.8160   16.7660 C   0  0  0  0  0  2  0  0  0  0  0  0
  -28.5690  -26.1720   17.0450 O   0  0  0  0  0  0  0  0  0  0  0  0
  -25.4670  -28.6750   22.9420 C   0  0  0  0  0  0  0  0  0  0  0  0
  -27.5440  -26.9410   17.5680 C   0  0  0  0  0  0  0  0  0  0  0  0
  -24.1300  -28.8310   20.8690 C   0  0  0  0  0  3  0  0  0  0  0  0
  -25.3960  -28.3980   18.7010 C   0  0  0  0  0  0  0  0  0  0  0  0
  -26.6880  -28.8930   20.7800 C   0  0  0  0  0  2  0  0  0  0  0  0
  -26.5980  -28.2600   19.4070 C   0  0  0  0  0  0  0  0  0  0  0  0
  -27.6780  -27.5420   18.8410 C   0  0  0  0  0  3  0  0  0  0  0  0
  -26.3270  -27.1150   16.8650 C   0  0  0  0  0  3  0  0  0  0  0  0
  -25.2550  -27.8290   17.4260 C   0  0  0  0  0  3  0  0  0  0  0  0
  -24.2870  -29.1800   19.3660 C   0  0  0  0  0  2  0  0  0  0  0  0
  -25.4460  -28.7710   21.5830 N   0  0  0  0  0  0  0  0  0  0  0  0
  -24.4180  -28.6770   23.6010 O   0  0  0  0  0  0  0  0  0  0  0  0
  -23.3040  -27.5300   20.9920 C   0  0  0  0  0  0  0  0  0  0  0  0
  -21.9730  -27.6500   20.8410 N   0  0  0  0  0  0  0  0  0  0  0  0
  -23.8580  -26.4460   21.1930 O   0  0  0  0  0  0  0  0  0  0  0  0
  -21.5960  -28.5730   20.6870 H   0  0  0  0  0  0  0  0  0  0  0  0
  -18.4540  -26.8730   20.5880 C   0  0  0  0  0  0  0  0  0  0  0  0
  -21.0030  -26.5560   20.8830 C   0  0  0  0  0  3  0  0  0  0  0  0
  -20.9620  -25.7980   19.5370 C   0  0  0  0  0  2  0  0  0  0  0  0
  -19.8920  -26.3270   18.5770 C   0  0  0  0  0  2  0  0  0  0  0  0
  -18.5020  -26.2270   19.2130 C   0  0  0  0  0  2  0  0  0  0  0  0
  -19.6310  -27.0410   21.3660 C   0  0  0  0  0  0  0  0  0  0  0  0
  -19.5370  -27.6790   22.6210 C   0  0  0  0  0  3  0  0  0  0  0  0
  -18.2980  -28.1410   23.1040 C   0  0  0  0  0  3  0  0  0  0  0  0
  -17.1340  -27.9570   22.3380 C   0  0  0  0  0  3  0  0  0  0  0  0
  -17.2120  -27.3210   21.0860 C   0  0  0  0  0  3  0  0  0  0  0  0
  -26.8080  -28.5800   23.7340 C   0  0  0  0  0  3  0  0  0  0  0  0
  -27.2280  -27.0960   24.0710 C   0  0  1  0  0  0  0  0  0  0  0  0
  -26.1120  -26.2750   24.7560 C   0  0  0  0  0  1  0  0  0  0  0  0
  -27.6500  -26.3440   22.7870 C   0  0  0  0  0  1  0  0  0  0  0  0
  -28.4600  -27.1010   25.0070 C   0  0  0  0  0  1  0  0  0  0  0  0
  -26.6510  -29.3690   24.9630 N   0  0  0  0  0  0  0  0  0  0  0  0
  -27.1360  -30.6050   25.1390 C   0  0  0  0  0  0  0  0  0  0  0  0
  -27.8360  -31.1760   24.2970 O   0  0  0  0  0  0  0  0  0  0  0  0
  -26.0460  -28.9840   25.6730 H   0  0  0  0  0  0  0  0  0  0  0  0
  -25.6580  -32.3280   26.2190 C   0  0  0  0  0  1  0  0  0  0  0  0
  -26.7940  -31.3200   26.4590 C   0  0  0  0  0  3  0  0  0  0  0  0
  -28.9660  -31.0920   27.5810 C   0  0  0  0  0  1  0  0  0  0  0  0
  -27.9510  -32.0100   27.0710 N   0  0  0  0  0  0  0  0  0  0  0  0
  -27.6510  -32.6070   27.8380 H   0  0  0  0  0  0  0  0  0  0  0  0
  1  7  1  0
  1 19  1  0
  2  7  1  0
  3  4  1  0
  3  2  1  0
  5  4  1  0
  5 28  1  0
  5  6  1  0
  7  6  1  0
  8  1  2  0
  9 13  2  0
 10 17  1  0
 11 10  1  0
 12 11  2  0
 12  9  1  0
 13 17  1  0
 13 19  1  0
 14 11  1  0
 15 16  1  0
 16 54  1  0
 17 21  1  0
 18 15  1  0
 18 12  1  0
 19 23  1  0
 20 14  1  0
 20 16  1  0
 22 18  1  0
 20 24  1  6
 25 26  2  0
 26 45  1  0
 27 26  1  0
 27 30  1  0
 28 25  1  0
 28 29  1  0
 29 27  2  0
 30 31  1  0
 31 32  2  0
 33 36  1  0
 33 32  1  0
 34 33  2  0
 35 34  1  0
 35 30  2  0
 36 37  1  0
 37 42  2  0
 37 38  1  0
 38 39  2  0
 39 40  1  0
 40 44  1  0
 41 40  2  0
 42 41  1  0
 43 42  1  0
 45 46  1  0
 46 49  1  0
 46 48  1  0
 47 45  2  0
 50 51  1  0
 50 25  1  0
 52 50  1  0
 54 53  1  0
 55 20  1  0
 56 55  1  0
 57 56  1  0
 57 58  1  0
 58 60  1  0
 59 70  2  0
 60 65  1  0
 61 71  1  0
 61 69  1  0
 62 68  1  0
 62 64  1  0
 63 69  1  0
 64 63  1  0
 65 64  2  0
 66 67  1  0
 66 60  2  0
 67 62  2  0
 68 61  1  0
 69 59  1  0
 71 73  2  0
 72 71  1  0
 74 72  1  0
 75 84  2  0
 75 80  1  0
 76 72  1  0
 76 80  1  0
 77 76  1  0
 78 79  1  0
 78 77  1  0
 79 75  1  0
 80 81  2  0
 81 82  1  0
 83 82  2  0
 84 83  1  0
 85 59  1  0
 85 86  1  0
 85 90  1  0
 86 87  1  1
 86 89  1  0
 88 86  1  0
 90 91  1  0
 90 93  1  0
 91 95  1  0
 92 91  2  0
 95 94  1  0
 95 97  1  0
 97 96  1  0
 97 98  1  0
M  ISO  4   1 100  19 100  57 101  58 101
M  END
>  <TORSDO>  (87) 
F 19

>  <SCORE>  (87) 
-10.631

>  <name>  (87) 
86

>  <ligand_id>  (87) 
86

>  <original_smiles>  (87) 
[H]c1c([H])c([H])c2c(c1[H])C([H])([H])C([H])([H])C([H])([H])C2([H])N([H])C(=O)C1([H])N(C(=O)C([H])(N([H])C(=O)C([H])(N([H])C([H])([H])[H])C([H])([H])[H])C(C([H])([H])[H])(C([H])([H])[H])C([H])([H])[H])C([H])([H])c2c([H])c(OC([H])([H])C([H])([H])C([H])([H])[N+]3([H])C([H])([H])c4c(c([H])c(N([H])C(=O)N5C([H])([H])C([H])([H])C([H])([H])C([H])(n6nc(-c7c([H])c([H])c(Oc8c([H])c([H])c(F)c([H])c8F)c([H])c7[H])c(C(=O)N([H])[H])c6N([H])[H])C5([H])[H])[n+]([H])c4[H])N([H])C([H])([H])C3([H])C([H])([H])C([H])([H])[H])c([H])c([H])c2C1([H])[H]

>  <smiles>  (87) 
[H]c1c([H])c([H])c2c(c1[H])C([H])([H])C([H])([H])C([H])([H])C2([H])N([H])C(=O)C1([H])N(C(=O)C([H])(N([H])C(=O)C([H])(N([H])C([H])([H])[H])C([H])([H])[H])C(C([H])([H])[H])(C([H])([H])[H])C([H])([H])[H])C([H])([H])c2c([H])c(OC([H])([H])C([H])([H])C([H])([H])[N+]3([H])C([H])([H])c4c(c([H])c(N([H])C(=O)N5C([H])([H])C([H])([H])C([H])([H])C([H])(n6nc(-c7c([H])c([H])c(Oc8c([H])c([H])c(F)c([H])c8F)c([H])c7[H])c(C(=O)N([H])[H])c6N([H])[H])C5([H])[H])[n+]([H])c4[H])N([H])C([H])([H])C3([H])C([H])([H])C([H])([H])[H])c([H])c([H])c2C1([H])[H]

$$$$
87:0:0
     RDKit          3D

 95103  0  0  1  0  0  0  0  0999 V2000
  -29.4060  -21.0420   18.9640 C   0  0  0  0  0  2  0  0  0  0  0  0
  -30.0140  -18.3840   18.7890 C   0  0  0  0  0  2  0  0  0  0  0  0
  -29.3290  -21.2070   20.5000 C   0  0  0  0  0  3  0  0  0  0  0  0
  -29.0830  -19.6060   18.3770 C   0  0  0  0  0  3  0  0  0  0  0  0
  -30.0700  -17.9550   20.2890 C   0  0  1  0  0  0  0  0  0  0  0  0
  -30.2550  -19.6740   20.9680 C   0  0  1  0  0  0  0  0  0  0  0  0
  -28.6670  -17.5590   20.7610 C   0  0  0  0  0  1  0  0  0  0  0  0
  -31.7430  -20.0390   20.7880 C   0  0  0  0  0  1  0  0  0  0  0  0
  -30.0400  -19.5660   22.4910 C   0  0  0  0  0  1  0  0  0  0  0  0
  -30.9720  -16.3300   20.2930 C   0  0  0  0  0  0  0  0  0  0  0  0
  -31.1460  -13.8320   19.4100 C   0  0  0  0  0  2  0  0  0  0  0  0
  -30.2590  -13.5160   18.1700 C   0  0  0  0  0  2  0  0  0  0  0  0
  -28.8310  -13.1210   18.5860 C   0  0  0  0  0  2  0  0  0  0  0  0
  -28.2970  -14.0480   19.7010 C   0  0  0  0  0  3  0  0  0  0  0  0
  -29.3250  -14.2890   20.8330 C   0  0  0  0  0  2  0  0  0  0  0  0
  -30.5120  -14.9480   20.2370 N   0  0  0  0  0  0  0  0  0  0  0  0
  -32.2020  -16.3300   20.1190 O   0  0  0  0  0  0  0  0  0  0  0  0
  -25.8960  -14.4640   20.4620 C   0  0  0  0  0  0  0  0  0  0  0  0
  -24.8720  -13.6310   20.8000 C   0  0  0  0  0  0  0  0  0  0  0  0
  -25.4000  -12.3070   20.7270 C   0  0  0  0  0  0  0  0  0  0  0  0
  -26.9850  -13.6500   20.1970 N   0  0  0  0  0  0  0  0  0  0  0  0
  -26.6950  -12.3400   20.4260 N   0  0  0  0  0  0  0  0  0  0  0  0
  -24.7210  -11.0140   20.8680 C   0  0  0  0  0  0  0  0  0  0  0  0
  -25.0780  -10.0980   21.8820 C   0  0  0  0  0  3  0  0  0  0  0  0
  -24.3920   -8.8720   22.0130 C   0  0  0  0  0  3  0  0  0  0  0  0
  -23.3350   -8.5530   21.1290 C   0  0  0  0  0  0  0  0  0  0  0  0
  -22.9980   -9.4580   20.1060 C   0  0  0  0  0  3  0  0  0  0  0  0
  -23.6860  -10.6750   19.9740 C   0  0  0  0  0  3  0  0  0  0  0  0
  -22.6290   -7.3740   21.1630 O   0  0  0  0  0  0  0  0  0  0  0  0
  -22.3140   -6.7580   22.3470 C   0  0  0  0  0  0  0  0  0  0  0  0
  -21.5650   -7.4100   23.3510 C   0  0  0  0  0  3  0  0  0  0  0  0
  -21.2050   -6.7160   24.5230 C   0  0  0  0  0  3  0  0  0  0  0  0
  -21.5840   -5.3700   24.6900 C   0  0  0  0  0  0  0  0  0  0  0  0
  -22.3250   -4.7180   23.6880 C   0  0  0  0  0  3  0  0  0  0  0  0
  -22.6870   -5.4090   22.5190 C   0  0  0  0  0  0  0  0  0  0  0  0
  -23.3820   -4.7700   21.5490 F   0  0  0  0  0  0  0  0  0  0  0  0
  -21.2330   -4.7000   25.8120 F   0  0  0  0  0  0  0  0  0  0  0  0
  -23.4560  -14.0460   21.0710 C   0  0  0  0  0  0  0  0  0  0  0  0
  -22.7580  -13.3130   21.9310 N   0  0  0  0  0  0  0  0  0  0  0  0
  -22.9770  -15.0570   20.5580 O   0  0  0  0  0  0  0  0  0  0  0  0
  -23.1600  -12.4970   22.3680 H   0  0  0  0  0  0  0  0  0  0  0  0
  -21.8090  -13.5730   22.1560 H   0  0  0  0  0  0  0  0  0  0  0  0
  -25.9700  -15.8420   20.3310 N   0  0  0  0  0  0  0  0  0  0  0  0
  -25.1630  -16.4380   20.4810 H   0  0  0  0  0  0  0  0  0  0  0  0
  -26.8040  -16.3560   20.0910 H   0  0  0  0  0  0  0  0  0  0  0  0
  -30.2400  -19.8070   16.1570 C   0  0  0  0  0  1  0  0  0  0  0  0
  -28.9390  -19.7080   16.8790 N   0  0  1  0  0  4  0  0  0  0  0  0
  -28.5460  -20.6330   16.7790 H   0  0  0  0  0  0  0  0  0  0  0  0
  -27.1210  -19.7750   15.2010 C   0  0  0  0  0  1  0  0  0  0  0  0
  -28.5230  -17.7090   15.3320 C   0  0  0  0  0  1  0  0  0  0  0  0
  -26.8550  -18.2290   17.1190 C   0  0  0  0  0  1  0  0  0  0  0  0
  -27.9010  -18.8600   16.1690 C   0  0  1  0  0  0  0  0  0  0  0  0
  -29.3690  -23.0470   20.9640 C   0  0  0  0  0  3  0  0  0  0  0  0
  -28.3960  -24.6510   20.6850 C   0  0  0  0  0  3  0  0  0  0  0  0
  -28.5160  -26.3410   20.9930 O   0  0  0  0  0  0  0  0  0  0  0  0
  -24.8050  -32.4060   23.8960 C   0  0  0  0  0  0  0  0  0  0  0  0
  -27.5090  -27.4910   20.9050 C   0  0  0  0  0  0  0  0  0  0  0  0
  -23.6890  -31.0280   22.1920 C   0  0  0  0  0  3  0  0  0  0  0  0
  -25.2050  -29.4350   20.8000 C   0  0  0  0  0  0  0  0  0  0  0  0
  -26.2630  -31.2270   22.1550 C   0  0  0  0  0  2  0  0  0  0  0  0
  -26.3690  -29.8160   21.4770 C   0  0  0  0  0  0  0  0  0  0  0  0
  -27.5100  -28.8690   21.4980 C   0  0  0  0  0  3  0  0  0  0  0  0
  -26.3090  -27.2960   20.1770 C   0  0  0  0  0  3  0  0  0  0  0  0
  -25.2080  -28.2010   20.1290 C   0  0  0  0  0  3  0  0  0  0  0  0
  -23.9800  -30.3600   20.8170 C   0  0  0  0  0  2  0  0  0  0  0  0
  -24.9400  -31.5830   22.8010 N   0  0  0  0  0  0  0  0  0  0  0  0
  -23.6940  -32.6830   24.3760 O   0  0  0  0  0  0  0  0  0  0  0  0
  -22.9560  -30.0210   23.1180 C   0  0  0  0  0  0  0  0  0  0  0  0
  -21.6570  -29.7650   22.8670 N   0  0  0  0  0  0  0  0  0  0  0  0
  -23.5690  -29.4670   24.0330 O   0  0  0  0  0  0  0  0  0  0  0  0
  -21.2120  -30.2670   22.1120 H   0  0  0  0  0  0  0  0  0  0  0  0
  -18.3390  -28.3010   23.0560 C   0  0  0  0  0  0  0  0  0  0  0  0
  -20.8240  -28.7920   23.5840 C   0  0  0  0  0  3  0  0  0  0  0  0
  -21.1010  -27.3530   23.0900 C   0  0  0  0  0  2  0  0  0  0  0  0
  -20.1500  -26.9040   21.9750 C   0  0  0  0  0  2  0  0  0  0  0  0
  -18.6980  -26.9510   22.4580 C   0  0  0  0  0  2  0  0  0  0  0  0
  -19.3380  -29.1720   23.5690 C   0  0  0  0  0  0  0  0  0  0  0  0
  -18.9480  -30.4260   24.0880 C   0  0  0  0  0  3  0  0  0  0  0  0
  -17.5950  -30.8150   24.0950 C   0  0  0  0  0  3  0  0  0  0  0  0
  -16.6110  -29.9450   23.5960 C   0  0  0  0  0  3  0  0  0  0  0  0
  -16.9820  -28.6900   23.0830 C   0  0  0  0  0  3  0  0  0  0  0  0
  -26.0420  -33.0530   24.5910 C   0  0  0  0  0  3  0  0  0  0  0  0
  -26.4320  -32.3420   25.9460 C   0  0  1  0  0  0  0  0  0  0  0  0
  -25.2410  -32.1460   26.9140 C   0  0  0  0  0  1  0  0  0  0  0  0
  -27.0510  -30.9510   25.6840 C   0  0  0  0  0  1  0  0  0  0  0  0
  -27.5140  -33.1710   26.6800 C   0  0  0  0  0  1  0  0  0  0  0  0
  -25.7350  -34.4750   24.8400 N   0  0  0  0  0  0  0  0  0  0  0  0
  -26.1330  -35.4960   24.0690 C   0  0  0  0  0  0  0  0  0  0  0  0
  -26.8530  -35.3400   23.0800 O   0  0  0  0  0  0  0  0  0  0  0  0
  -25.1000  -34.6700   25.6000 H   0  0  0  0  0  0  0  0  0  0  0  0
  -24.4590  -37.3160   23.5770 C   0  0  0  0  0  1  0  0  0  0  0  0
  -25.6580  -36.9150   24.4530 C   0  0  0  0  0  3  0  0  0  0  0  0
  -27.7770  -37.7950   25.3330 C   0  0  0  0  0  1  0  0  0  0  0  0
  -26.7170  -37.9420   24.3390 N   0  0  0  0  0  0  0  0  0  0  0  0
  -26.3250  -38.8760   24.4320 H   0  0  0  0  0  0  0  0  0  0  0  0
  1  3  1  0
  2  5  1  0
  3 53  1  0
  3  6  1  0
  4 47  1  0
  4  2  1  0
  4  1  1  0
  5 10  1  0
  5  7  1  1
  5  6  1  0
  6  9  1  1
  8  6  1  0
 11 16  1  0
 12 13  1  0
 12 11  1  0
 14 13  1  0
 14 21  1  0
 14 15  1  0
 16 10  1  0
 16 15  1  0
 17 10  2  0
 18 19  2  0
 19 38  1  0
 20 19  1  0
 20 23  1  0
 21 22  1  0
 21 18  1  0
 22 20  2  0
 23 24  1  0
 24 25  2  0
 26 29  1  0
 26 25  1  0
 27 26  2  0
 28 27  1  0
 28 23  2  0
 29 30  1  0
 30 35  2  0
 30 31  1  0
 31 32  2  0
 32 33  1  0
 33 37  1  0
 34 33  2  0
 35 34  1  0
 36 35  1  0
 38 39  1  0
 39 42  1  0
 39 41  1  0
 40 38  2  0
 43 18  1  0
 43 44  1  0
 45 43  1  0
 46 47  1  0
 47 48  1  1
 52 49  1  6
 50 52  1  0
 52 47  1  0
 52 51  1  0
 54 53  2  0
 54 55  1  0
 56 67  2  0
 57 55  1  0
 57 62  1  0
 58 66  1  0
 58 68  1  0
 59 65  1  0
 59 61  1  0
 60 66  1  0
 61 62  2  0
 61 60  1  0
 63 57  2  0
 64 63  1  0
 64 59  2  0
 65 58  1  0
 66 56  1  0
 68 70  2  0
 69 68  1  0
 71 69  1  0
 72 81  2  0
 72 77  1  0
 73 69  1  0
 74 73  1  0
 75 76  1  0
 75 74  1  0
 76 72  1  0
 77 73  1  0
 77 78  2  0
 78 79  1  0
 80 79  2  0
 81 80  1  0
 82 56  1  0
 82 87  1  0
 82 83  1  0
 83 86  1  1
 83 84  1  0
 85 83  1  0
 87 90  1  0
 88 92  1  0
 88 87  1  0
 89 88  2  0
 92 91  1  0
 94 95  1  0
 94 92  1  0
 94 93  1  0
M  ISO  4   5 100  10 100  54 101  55 101
M  END
>  <TORSDO>  (88) 
F 20

>  <SCORE>  (88) 
-6.106

>  <name>  (88) 
87

>  <ligand_id>  (88) 
87

>  <original_smiles>  (88) 
[H]c1c([H])c([H])c2c(c1[H])C([H])([H])C([H])([H])C([H])([H])C2([H])N([H])C(=O)C1([H])N(C(=O)C([H])(N([H])C(=O)C([H])(N([H])C([H])([H])[H])C([H])([H])[H])C(C([H])([H])[H])(C([H])([H])[H])C([H])([H])[H])C([H])([H])c2c([H])c(OC([H])([H])C([H])([H])C3([H])C([H])([H])C([H])([N+]([H])(C([H])([H])[H])C(C([H])([H])[H])(C([H])([H])[H])C([H])([H])[H])C([H])([H])C(C(=O)N4C([H])([H])C([H])([H])C([H])([H])C([H])(n5nc(-c6c([H])c([H])c(Oc7c([H])c([H])c(F)c([H])c7F)c([H])c6[H])c(C(=O)N([H])[H])c5N([H])[H])C4([H])[H])(C([H])([H])[H])C3(C([H])([H])[H])C([H])([H])[H])c([H])c([H])c2C1([H])[H]

>  <smiles>  (88) 
[H]c1c([H])c([H])c2c(c1[H])C([H])([H])C([H])([H])C([H])([H])C2([H])N([H])C(=O)C1([H])N(C(=O)C([H])(N([H])C(=O)C([H])(N([H])C([H])([H])[H])C([H])([H])[H])C(C([H])([H])[H])(C([H])([H])[H])C([H])([H])[H])C([H])([H])c2c([H])c(OC([H])([H])C([H])([H])C3([H])C([H])([H])C([H])([N+]([H])(C([H])([H])[H])C(C([H])([H])[H])(C([H])([H])[H])C([H])([H])[H])C([H])([H])C(C(=O)N4C([H])([H])C([H])([H])C([H])([H])C([H])(n5nc(-c6c([H])c([H])c(Oc7c([H])c([H])c(F)c([H])c7F)c([H])c6[H])c(C(=O)N([H])[H])c5N([H])[H])C4([H])[H])(C([H])([H])[H])C3(C([H])([H])[H])C([H])([H])[H])c([H])c([H])c2C1([H])[H]

$$$$
88:0:0
     RDKit          3D

 98106  0  0  1  0  0  0  0  0999 V2000
  -28.4660  -20.2010   19.4910 C   0  0  0  0  0  0  0  0  0  0  0  0
  -28.9980  -20.9970   18.4240 C   0  0  0  0  0  0  0  0  0  0  0  0
  -27.5620  -19.4230   18.8300 C   0  0  0  0  0  0  0  0  0  0  0  0
  -26.7920  -19.1120   16.4170 C   0  0  0  0  0  1  0  0  0  0  0  0
  -28.4880  -20.6640   17.2340 N   0  0  0  0  0  0  0  0  0  0  0  0
  -27.5840  -19.6880   17.4860 N   0  0  0  0  0  0  0  0  0  0  0  0
  -26.4840  -18.2620   19.5020 Cl  0  0  0  0  0  0  0  0  0  0  0  0
  -28.7640  -20.2670   20.9740 C   0  0  0  0  0  2  0  0  0  0  0  0
  -29.8480  -19.3510   21.4050 N   0  0  0  0  0  4  0  0  0  0  0  0
  -30.1500  -19.6800   22.3100 H   0  0  0  0  0  0  0  0  0  0  0  0
  -30.6340  -19.4430   20.7830 H   0  0  0  0  0  0  0  0  0  0  0  0
  -29.4640  -17.9280   21.5670 C   0  0  0  0  0  2  0  0  0  0  0  0
  -30.5590  -17.0870   22.2620 C   0  0  0  0  0  2  0  0  0  0  0  0
  -31.4250  -16.2350   21.3130 C   0  0  0  0  0  2  0  0  0  0  0  0
  -31.2040  -14.0890   20.0670 C   0  0  0  0  0  0  0  0  0  0  0  0
  -30.7420  -11.9300   18.9610 C   0  0  0  0  0  2  0  0  0  0  0  0
  -29.7810  -12.1120   17.7700 C   0  0  0  0  0  2  0  0  0  0  0  0
  -28.3130  -12.0720   18.2360 C   0  0  0  0  0  2  0  0  0  0  0  0
  -28.0470  -13.0010   19.4490 C   0  0  0  0  0  3  0  0  0  0  0  0
  -29.1060  -12.7740   20.5500 C   0  0  0  0  0  2  0  0  0  0  0  0
  -30.4420  -12.9710   19.9550 N   0  0  0  0  0  0  0  0  0  0  0  0
  -32.2380  -14.2780   19.4190 O   0  0  0  0  0  0  0  0  0  0  0  0
  -30.7550  -14.9900   20.9470 N   0  0  0  0  0  0  0  0  0  0  0  0
  -29.9150  -14.7380   21.4470 H   0  0  0  0  0  0  0  0  0  0  0  0
  -25.7120  -13.7830   20.2080 C   0  0  0  0  0  0  0  0  0  0  0  0
  -24.6040  -13.0950   20.6160 C   0  0  0  0  0  0  0  0  0  0  0  0
  -24.9680  -11.7140   20.5890 C   0  0  0  0  0  0  0  0  0  0  0  0
  -26.6890  -12.8300   19.9630 N   0  0  0  0  0  0  0  0  0  0  0  0
  -26.2430  -11.5800   20.2470 N   0  0  0  0  0  0  0  0  0  0  0  0
  -24.1620  -10.5090   20.8160 C   0  0  0  0  0  0  0  0  0  0  0  0
  -24.5400   -9.5350   21.7660 C   0  0  0  0  0  3  0  0  0  0  0  0
  -23.7380   -8.3920   21.9780 C   0  0  0  0  0  3  0  0  0  0  0  0
  -22.5430   -8.2170   21.2410 C   0  0  0  0  0  0  0  0  0  0  0  0
  -22.1840   -9.1780   20.2800 C   0  0  0  0  0  3  0  0  0  0  0  0
  -22.9850  -10.3110   20.0650 C   0  0  0  0  0  3  0  0  0  0  0  0
  -21.7170   -7.1270   21.3610 O   0  0  0  0  0  0  0  0  0  0  0  0
  -21.6140   -6.4280   22.5380 C   0  0  0  0  0  0  0  0  0  0  0  0
  -21.2330   -7.0540   23.7440 C   0  0  0  0  0  3  0  0  0  0  0  0
  -21.0720   -6.2860   24.9140 C   0  0  0  0  0  3  0  0  0  0  0  0
  -21.2820   -4.8940   24.8800 C   0  0  0  0  0  0  0  0  0  0  0  0
  -21.6560   -4.2690   23.6760 C   0  0  0  0  0  3  0  0  0  0  0  0
  -21.8190   -5.0340   22.5090 C   0  0  0  0  0  0  0  0  0  0  0  0
  -22.1590   -4.4240   21.3480 F   0  0  0  0  0  0  0  0  0  0  0  0
  -21.1190   -4.1550   26.0010 F   0  0  0  0  0  0  0  0  0  0  0  0
  -23.2510  -13.6730   20.9190 C   0  0  0  0  0  0  0  0  0  0  0  0
  -22.5090  -13.0500   21.8280 N   0  0  0  0  0  0  0  0  0  0  0  0
  -22.8650  -14.7120   20.3850 O   0  0  0  0  0  0  0  0  0  0  0  0
  -22.8340  -12.2100   22.2810 H   0  0  0  0  0  0  0  0  0  0  0  0
  -21.6020  -13.4210   22.0750 H   0  0  0  0  0  0  0  0  0  0  0  0
  -25.9680  -15.1360   20.0100 N   0  0  0  0  0  0  0  0  0  0  0  0
  -25.2470  -15.8410   20.1150 H   0  0  0  0  0  0  0  0  0  0  0  0
  -26.8310  -15.5100   19.6380 H   0  0  0  0  0  0  0  0  0  0  0  0
  -29.9770  -22.1510   18.5070 C   0  0  0  0  0  2  0  0  0  0  0  0
  -29.6600  -23.9520   16.7260 C   0  0  0  0  0  1  0  0  0  0  0  0
  -29.3030  -23.5070   18.1570 C   0  0  0  0  0  3  0  0  0  0  0  0
  -29.5420  -24.6540   19.1870 C   0  0  0  0  0  2  0  0  0  0  0  0
  -28.2910  -25.5450   19.2760 C   0  0  0  0  0  2  0  0  0  0  0  0
  -28.3640  -26.7470   20.0670 O   0  0  0  0  0  0  0  0  0  0  0  0
  -24.6310  -31.9470   23.3100 C   0  0  0  0  0  0  0  0  0  0  0  0
  -27.1950  -27.4960   20.1230 C   0  0  0  0  0  0  0  0  0  0  0  0
  -23.4010  -30.5880   21.6560 C   0  0  0  0  0  3  0  0  0  0  0  0
  -24.8240  -29.0540   20.2110 C   0  0  0  0  0  0  0  0  0  0  0  0
  -25.9410  -30.8970   21.4630 C   0  0  0  0  0  2  0  0  0  0  0  0
  -26.0010  -29.5360   20.7980 C   0  0  0  0  0  0  0  0  0  0  0  0
  -27.1890  -28.7640   20.7580 C   0  0  0  0  0  3  0  0  0  0  0  0
  -25.9820  -27.0330   19.5500 C   0  0  0  0  0  3  0  0  0  0  0  0
  -24.8100  -27.7970   19.5930 C   0  0  0  0  0  3  0  0  0  0  0  0
  -23.5980  -29.9360   20.2670 C   0  0  0  0  0  2  0  0  0  0  0  0
  -24.6770  -31.1600   22.1980 N   0  0  0  0  0  0  0  0  0  0  0  0
  -23.5520  -32.2260   23.8530 O   0  0  0  0  0  0  0  0  0  0  0  0
  -22.7430  -29.5550   22.6000 C   0  0  0  0  0  0  0  0  0  0  0  0
  -21.4230  -29.3590   22.4460 N   0  0  0  0  0  0  0  0  0  0  0  0
  -23.4170  -28.9310   23.4240 O   0  0  0  0  0  0  0  0  0  0  0  0
  -20.9380  -29.9190   21.7570 H   0  0  0  0  0  0  0  0  0  0  0  0
  -18.0560  -28.1060   22.8530 C   0  0  0  0  0  0  0  0  0  0  0  0
  -20.5990  -28.4150   23.2030 C   0  0  0  0  0  3  0  0  0  0  0  0
  -20.7450  -26.9780   22.6490 C   0  0  0  0  0  2  0  0  0  0  0  0
  -19.6790  -26.6210   21.6060 C   0  0  0  0  0  2  0  0  0  0  0  0
  -18.2760  -26.7510   22.2040 C   0  0  0  0  0  2  0  0  0  0  0  0
  -19.1460  -28.8930   23.3090 C   0  0  0  0  0  0  0  0  0  0  0  0
  -18.8860  -30.1600   23.8750 C   0  0  0  0  0  3  0  0  0  0  0  0
  -17.5670  -30.6400   23.9910 C   0  0  0  0  0  3  0  0  0  0  0  0
  -16.4910  -29.8510   23.5520 C   0  0  0  0  0  3  0  0  0  0  0  0
  -16.7360  -28.5850   22.9900 C   0  0  0  0  0  3  0  0  0  0  0  0
  -25.9250  -32.5570   23.9330 C   0  0  0  0  0  3  0  0  0  0  0  0
  -26.4310  -31.7660   25.2000 C   0  0  1  0  0  0  0  0  0  0  0  0
  -25.3380  -31.5340   26.2690 C   0  0  0  0  0  1  0  0  0  0  0  0
  -26.9980  -30.3850   24.7980 C   0  0  0  0  0  1  0  0  0  0  0  0
  -27.5930  -32.5410   25.8670 C   0  0  0  0  0  1  0  0  0  0  0  0
  -25.6330  -33.9550   24.2720 N   0  0  0  0  0  0  0  0  0  0  0  0
  -25.9650  -35.0060   23.5120 C   0  0  0  0  0  0  0  0  0  0  0  0
  -26.6220  -34.9010   22.4740 O   0  0  0  0  0  0  0  0  0  0  0  0
  -25.0540  -34.1120   25.0840 H   0  0  0  0  0  0  0  0  0  0  0  0
  -24.2440  -36.8090   23.1850 C   0  0  0  0  0  1  0  0  0  0  0  0
  -25.4940  -36.3950   23.9790 C   0  0  0  0  0  3  0  0  0  0  0  0
  -27.6490  -37.2600   24.7800 C   0  0  0  0  0  1  0  0  0  0  0  0
  -26.5320  -37.4410   23.8550 N   0  0  0  0  0  0  0  0  0  0  0  0
  -26.1350  -38.3640   24.0120 H   0  0  0  0  0  0  0  0  0  0  0  0
  1  8  1  0
  2 53  1  0
  2  1  1  0
  3  1  2  0
  3  7  1  0
  4  6  1  0
  5  6  1  0
  5  2  2  0
  6  3  1  0
  8  9  1  0
  9 12  1  0
  9 10  1  0
 11  9  1  0
 12 13  1  0
 14 13  1  0
 15 23  1  0
 16 21  1  0
 17 18  1  0
 17 16  1  0
 19 18  1  0
 19 28  1  0
 19 20  1  0
 21 15  1  0
 21 20  1  0
 22 15  2  0
 23 14  1  0
 23 24  1  0
 25 26  2  0
 26 45  1  0
 27 26  1  0
 27 30  1  0
 28 25  1  0
 28 29  1  0
 29 27  2  0
 30 31  1  0
 31 32  2  0
 33 36  1  0
 33 32  1  0
 34 33  2  0
 35 34  1  0
 35 30  2  0
 36 37  1  0
 37 38  1  0
 38 39  2  0
 40 39  1  0
 40 44  1  0
 41 40  2  0
 42 37  2  0
 42 41  1  0
 43 42  1  0
 45 46  1  0
 46 49  1  0
 46 48  1  0
 47 45  2  0
 50 51  1  0
 50 25  1  0
 52 50  1  0
 55 54  1  0
 55 53  1  0
 55 56  1  0
 56 57  1  0
 57 58  1  0
 58 60  1  0
 59 70  2  0
 60 65  1  0
 61 69  1  0
 61 71  1  0
 62 68  1  0
 62 64  1  0
 63 69  1  0
 64 63  1  0
 65 64  2  0
 66 67  1  0
 66 60  2  0
 67 62  2  0
 68 61  1  0
 69 59  1  0
 71 73  2  0
 72 71  1  0
 74 72  1  0
 75 84  2  0
 75 80  1  0
 76 72  1  0
 76 80  1  0
 77 76  1  0
 78 79  1  0
 78 77  1  0
 79 75  1  0
 80 81  2  0
 81 82  1  0
 83 82  2  0
 84 83  1  0
 85 59  1  0
 85 90  1  0
 85 86  1  0
 86 89  1  1
 86 87  1  0
 88 86  1  0
 90 93  1  0
 91 95  1  0
 91 90  1  0
 92 91  2  0
 95 94  1  0
 97 95  1  0
 97 98  1  0
 97 96  1  0
M  ISO  4  15 100  23 100  57 101  58 101
M  END
>  <TORSDO>  (89) 
F 25

>  <SCORE>  (89) 
-11.513

>  <name>  (89) 
88

>  <ligand_id>  (89) 
88

>  <original_smiles>  (89) 
[H]c1c([H])c([H])c2c(c1[H])C([H])([H])C([H])([H])C([H])([H])C2([H])N([H])C(=O)C1([H])N(C(=O)C([H])(N([H])C(=O)C([H])(N([H])C([H])([H])[H])C([H])([H])[H])C(C([H])([H])[H])(C([H])([H])[H])C([H])([H])[H])C([H])([H])c2c([H])c(OC([H])([H])C([H])([H])C([H])(C([H])([H])[H])C([H])([H])c3nn(C([H])([H])[H])c(Cl)c3C([H])([H])[N+]([H])([H])C([H])([H])C([H])([H])C([H])([H])N([H])C(=O)N3C([H])([H])C([H])([H])C([H])([H])C([H])(n4nc(-c5c([H])c([H])c(Oc6c([H])c([H])c(F)c([H])c6F)c([H])c5[H])c(C(=O)N([H])[H])c4N([H])[H])C3([H])[H])c([H])c([H])c2C1([H])[H]

>  <smiles>  (89) 
[H]c1c([H])c([H])c2c(c1[H])C([H])([H])C([H])([H])C([H])([H])C2([H])N([H])C(=O)C1([H])N(C(=O)C([H])(N([H])C(=O)C([H])(N([H])C([H])([H])[H])C([H])([H])[H])C(C([H])([H])[H])(C([H])([H])[H])C([H])([H])[H])C([H])([H])c2c([H])c(OC([H])([H])C([H])([H])C([H])(C([H])([H])[H])C([H])([H])c3nn(C([H])([H])[H])c(Cl)c3C([H])([H])[N+]([H])([H])C([H])([H])C([H])([H])C([H])([H])N([H])C(=O)N3C([H])([H])C([H])([H])C([H])([H])C([H])(n4nc(-c5c([H])c([H])c(Oc6c([H])c([H])c(F)c([H])c6F)c([H])c5[H])c(C(=O)N([H])[H])c4N([H])[H])C3([H])[H])c([H])c([H])c2C1([H])[H]

$$$$
89:0:0
     RDKit          3D

 91 99  0  0  1  0  0  0  0  0999 V2000
  -28.7190  -19.6560   20.7910 C   0  0  0  0  0  3  0  0  0  0  0  0
  -30.8320  -18.4510   19.4580 C   0  0  0  0  0  3  0  0  0  0  0  0
  -29.6230  -20.5870   20.1970 C   0  0  0  0  0  0  0  0  0  0  0  0
  -28.8560  -18.2190   20.7510 C   0  0  0  0  0  0  0  0  0  0  0  0
  -30.6960  -19.9050   19.5140 C   0  0  0  0  0  0  0  0  0  0  0  0
  -29.9240  -17.5300   20.0830 C   0  0  0  0  0  0  0  0  0  0  0  0
  -27.8090  -17.4090   21.5000 C   0  0  0  0  0  1  0  0  0  0  0  0
  -31.7710  -20.7440   18.8510 C   0  0  0  0  0  1  0  0  0  0  0  0
  -30.7200  -14.9460   19.5750 C   0  0  0  0  0  0  0  0  0  0  0  0
  -30.4530  -12.6740   18.5050 C   0  0  0  0  0  2  0  0  0  0  0  0
  -29.3560  -12.7550   17.4170 C   0  0  0  0  0  2  0  0  0  0  0  0
  -27.9550  -12.5510   18.0280 C   0  0  0  0  0  2  0  0  0  0  0  0
  -27.7410  -13.3930   19.3140 C   0  0  0  0  0  3  0  0  0  0  0  0
  -28.9380  -13.2640   20.2830 C   0  0  0  0  0  2  0  0  0  0  0  0
  -30.1400  -13.6850   19.5480 N   0  0  0  0  0  0  0  0  0  0  0  0
  -31.8370  -15.0980   19.0690 O   0  0  0  0  0  0  0  0  0  0  0  0
  -29.9340  -16.0100   20.0530 N   0  0  0  0  0  0  0  0  0  0  0  0
  -29.1110  -15.6280   20.4910 H   0  0  0  0  0  0  0  0  0  0  0  0
  -25.4760  -13.9630   20.3710 C   0  0  0  0  0  0  0  0  0  0  0  0
  -24.4610  -13.1820   20.8520 C   0  0  0  0  0  0  0  0  0  0  0  0
  -24.8980  -11.8310   20.7000 C   0  0  0  0  0  0  0  0  0  0  0  0
  -26.4700  -13.0890   19.9640 N   0  0  0  0  0  0  0  0  0  0  0  0
  -26.1370  -11.7970   20.2220 N   0  0  0  0  0  0  0  0  0  0  0  0
  -24.1840  -10.5680   20.9270 C   0  0  0  0  0  0  0  0  0  0  0  0
  -24.6510   -9.6110   21.8550 C   0  0  0  0  0  3  0  0  0  0  0  0
  -23.9360   -8.4140   22.0700 C   0  0  0  0  0  3  0  0  0  0  0  0
  -22.7390   -8.1650   21.3560 C   0  0  0  0  0  0  0  0  0  0  0  0
  -22.2910   -9.1090   20.4160 C   0  0  0  0  0  3  0  0  0  0  0  0
  -23.0070  -10.2990   20.2000 C   0  0  0  0  0  3  0  0  0  0  0  0
  -21.9910   -7.0180   21.4800 O   0  0  0  0  0  0  0  0  0  0  0  0
  -21.8790   -6.3600   22.6790 C   0  0  0  0  0  0  0  0  0  0  0  0
  -21.3530   -6.9890   23.8280 C   0  0  0  0  0  3  0  0  0  0  0  0
  -21.1900   -6.2540   25.0200 C   0  0  0  0  0  3  0  0  0  0  0  0
  -21.5420   -4.8930   25.0630 C   0  0  0  0  0  0  0  0  0  0  0  0
  -22.0620   -4.2630   23.9180 C   0  0  0  0  0  3  0  0  0  0  0  0
  -22.2260   -4.9940   22.7280 C   0  0  0  0  0  0  0  0  0  0  0  0
  -22.7070   -4.3780   21.6210 F   0  0  0  0  0  0  0  0  0  0  0  0
  -21.3800   -4.1850   26.2050 F   0  0  0  0  0  0  0  0  0  0  0  0
  -23.1190  -13.6600   21.3260 C   0  0  0  0  0  0  0  0  0  0  0  0
  -22.5040  -12.9360   22.2550 N   0  0  0  0  0  0  0  0  0  0  0  0
  -22.6290  -14.7080   20.9080 O   0  0  0  0  0  0  0  0  0  0  0  0
  -22.9150  -12.0870   22.6130 H   0  0  0  0  0  0  0  0  0  0  0  0
  -21.6090  -13.2370   22.6140 H   0  0  0  0  0  0  0  0  0  0  0  0
  -25.6220  -15.3360   20.2180 N   0  0  0  0  0  0  0  0  0  0  0  0
  -24.8630  -15.9760   20.4260 H   0  0  0  0  0  0  0  0  0  0  0  0
  -26.3810  -15.7770   19.7150 H   0  0  0  0  0  0  0  0  0  0  0  0
  -29.5550  -22.1820   20.5820 C   0  0  0  0  0  3  0  0  0  0  0  0
  -28.9670  -23.4990   19.7530 C   0  0  0  0  0  3  0  0  0  0  0  0
  -27.5120  -24.7310   21.5590 C   0  0  0  0  0  1  0  0  0  0  0  0
  -28.6560  -24.9370   20.5490 C   0  0  0  0  0  3  0  0  0  0  0  0
  -28.5960  -26.3640   19.9670 O   0  0  0  0  0  0  0  0  0  0  0  0
  -24.5100  -31.6390   23.0410 C   0  0  0  0  0  0  0  0  0  0  0  0
  -27.4430  -27.2100   19.9760 C   0  0  0  0  0  0  0  0  0  0  0  0
  -23.4300  -30.2150   21.3410 C   0  0  0  0  0  3  0  0  0  0  0  0
  -25.0030  -28.7610   19.9230 C   0  0  0  0  0  0  0  0  0  0  0  0
  -25.9610  -30.6520   21.2380 C   0  0  0  0  0  2  0  0  0  0  0  0
  -26.1350  -29.2830   20.5650 C   0  0  0  0  0  0  0  0  0  0  0  0
  -27.3570  -28.5240   20.5720 C   0  0  0  0  0  3  0  0  0  0  0  0
  -26.2850  -26.7680   19.3060 C   0  0  0  0  0  3  0  0  0  0  0  0
  -25.0860  -27.5150   19.2800 C   0  0  0  0  0  3  0  0  0  0  0  0
  -23.7220  -29.5790   19.9550 C   0  0  0  0  0  2  0  0  0  0  0  0
  -24.6510  -30.8560   21.9300 N   0  0  0  0  0  0  0  0  0  0  0  0
  -23.3980  -31.8450   23.5510 O   0  0  0  0  0  0  0  0  0  0  0  0
  -22.7940  -29.1470   22.2640 C   0  0  0  0  0  0  0  0  0  0  0  0
  -21.4780  -28.9150   22.1130 N   0  0  0  0  0  0  0  0  0  0  0  0
  -23.4860  -28.5290   23.0770 O   0  0  0  0  0  0  0  0  0  0  0  0
  -20.9750  -29.4690   21.4340 H   0  0  0  0  0  0  0  0  0  0  0  0
  -18.1470  -27.5670   22.5530 C   0  0  0  0  0  0  0  0  0  0  0  0
  -20.6930  -27.9180   22.8450 C   0  0  0  0  0  3  0  0  0  0  0  0
  -20.8540  -26.5140   22.2160 C   0  0  0  0  0  2  0  0  0  0  0  0
  -19.7690  -26.1880   21.1850 C   0  0  0  0  0  2  0  0  0  0  0  0
  -18.3800  -26.2530   21.8260 C   0  0  0  0  0  2  0  0  0  0  0  0
  -19.2330  -28.3570   23.0170 C   0  0  0  0  0  0  0  0  0  0  0  0
  -18.9610  -29.5850   23.6570 C   0  0  0  0  0  3  0  0  0  0  0  0
  -17.6360  -30.0250   23.8370 C   0  0  0  0  0  3  0  0  0  0  0  0
  -16.5650  -29.2330   23.3890 C   0  0  0  0  0  3  0  0  0  0  0  0
  -16.8220  -28.0060   22.7520 C   0  0  0  0  0  3  0  0  0  0  0  0
  -25.7350  -32.3310   23.7140 C   0  0  0  0  0  3  0  0  0  0  0  0
  -26.2560  -31.5650   24.9920 C   0  0  1  0  0  0  0  0  0  0  0  0
  -25.1450  -31.2410   26.0190 C   0  0  0  0  0  1  0  0  0  0  0  0
  -26.9330  -30.2320   24.5950 C   0  0  0  0  0  1  0  0  0  0  0  0
  -27.3340  -32.4120   25.7080 C   0  0  0  0  0  1  0  0  0  0  0  0
  -25.3380  -33.7030   24.0640 N   0  0  0  0  0  0  0  0  0  0  0  0
  -25.6230  -34.7910   23.3360 C   0  0  0  0  0  0  0  0  0  0  0  0
  -26.3140  -34.7480   22.3150 O   0  0  0  0  0  0  0  0  0  0  0  0
  -24.7220  -33.8050   24.8580 H   0  0  0  0  0  0  0  0  0  0  0  0
  -23.7930  -36.4860   23.0020 C   0  0  0  0  0  1  0  0  0  0  0  0
  -25.0510  -36.1400   23.8150 C   0  0  0  0  0  3  0  0  0  0  0  0
  -27.1190  -37.1420   24.6820 C   0  0  0  0  0  1  0  0  0  0  0  0
  -26.0190  -37.2550   23.7270 N   0  0  0  0  0  0  0  0  0  0  0  0
  -25.5560  -38.1470   23.8790 H   0  0  0  0  0  0  0  0  0  0  0  0
  2  5  2  0
  2  6  1  0
  3 47  1  0
  3  1  2  0
  4  1  1  0
  4  7  1  0
  5  3  1  0
  6  4  2  0
  8  5  1  0
  9 17  1  0
 10 15  1  0
 11 12  1  0
 11 10  1  0
 13 12  1  0
 13 22  1  0
 13 14  1  0
 15  9  1  0
 15 14  1  0
 16  9  2  0
 17  6  1  0
 17 18  1  0
 19 20  2  0
 20 39  1  0
 21 20  1  0
 21 24  1  0
 22 23  1  0
 22 19  1  0
 23 21  2  0
 24 25  1  0
 25 26  2  0
 27 30  1  0
 27 26  1  0
 28 27  2  0
 29 28  1  0
 29 24  2  0
 30 31  1  0
 31 36  2  0
 31 32  1  0
 32 33  2  0
 33 34  1  0
 34 38  1  0
 35 34  2  0
 36 35  1  0
 37 36  1  0
 39 40  1  0
 40 42  1  0
 40 43  1  0
 41 39  2  0
 44 19  1  0
 44 45  1  0
 46 44  1  0
 48 50  1  0
 48 47  2  0
 50 49  1  0
 51 53  1  0
 51 50  1  0
 52 63  2  0
 53 58  1  0
 54 62  1  0
 54 64  1  0
 55 61  1  0
 55 57  1  0
 56 62  1  0
 57 58  2  0
 57 56  1  0
 59 53  2  0
 60 59  1  0
 60 55  2  0
 61 54  1  0
 62 52  1  0
 64 66  2  0
 65 64  1  0
 67 65  1  0
 68 77  2  0
 68 73  1  0
 69 65  1  0
 69 73  1  0
 70 69  1  0
 71 72  1  0
 71 70  1  0
 72 68  1  0
 73 74  2  0
 74 75  1  0
 76 75  2  0
 77 76  1  0
 78 52  1  0
 78 83  1  0
 78 79  1  0
 79 82  1  1
 79 80  1  0
 81 79  1  0
 83 86  1  0
 84 88  1  0
 84 83  1  0
 85 84  2  0
 88 87  1  0
 90 88  1  0
 90 91  1  0
 90 89  1  0
M  ISO  4   9 100  17 100  50 101  51 101
M  END
>  <TORSDO>  (90) 
F 19

>  <SCORE>  (90) 
-10.886

>  <name>  (90) 
89

>  <ligand_id>  (90) 
89

>  <original_smiles>  (90) 
[H]c1c([H])c([H])c2c(c1[H])C([H])([H])C([H])([H])C([H])([H])C2([H])N([H])C(=O)C1([H])N(C(=O)C([H])(N([H])C(=O)C([H])(N([H])C([H])([H])[H])C([H])([H])[H])C(C([H])([H])[H])(C([H])([H])[H])C([H])([H])[H])C([H])([H])c2c([H])c(OC([H])(C([H])([H])[H])C([H])([H])C([H])([H])c3c([H])c(C([H])([H])[H])c(N([H])C(=O)N4C([H])([H])C([H])([H])C([H])([H])C([H])(n5nc(-c6c([H])c([H])c(Oc7c([H])c([H])c(F)c([H])c7F)c([H])c6[H])c(C(=O)N([H])[H])c5N([H])[H])C4([H])[H])c([H])c3C([H])([H])[H])c([H])c([H])c2C1([H])[H]

>  <smiles>  (90) 
[H]c1c([H])c([H])c2c(c1[H])C([H])([H])C([H])([H])C([H])([H])C2([H])N([H])C(=O)C1([H])N(C(=O)C([H])(N([H])C(=O)C([H])(N([H])C([H])([H])[H])C([H])([H])[H])C(C([H])([H])[H])(C([H])([H])[H])C([H])([H])[H])C([H])([H])c2c([H])c(OC([H])(C([H])([H])[H])C([H])([H])C([H])([H])c3c([H])c(C([H])([H])[H])c(N([H])C(=O)N4C([H])([H])C([H])([H])C([H])([H])C([H])(n5nc(-c6c([H])c([H])c(Oc7c([H])c([H])c(F)c([H])c7F)c([H])c6[H])c(C(=O)N([H])[H])c5N([H])[H])C4([H])[H])c([H])c3C([H])([H])[H])c([H])c([H])c2C1([H])[H]

$$$$
90:0:0
     RDKit          3D

 90 98  0  0  1  0  0  0  0  0999 V2000
  -28.5320  -18.1520   19.8620 C   0  0  0  0  0  3  0  0  0  0  0  0
  -30.5370  -18.3960   21.0900 C   0  0  0  0  0  3  0  0  0  0  0  0
  -28.3000  -19.5780   19.9050 C   0  0  0  0  0  0  0  0  0  0  0  0
  -29.1540  -20.4970   20.6030 C   0  0  0  0  0  0  0  0  0  0  0  0
  -29.6350  -17.4730   20.4700 C   0  0  0  0  0  0  0  0  0  0  0  0
  -30.3050  -19.8300   21.1640 C   0  0  0  0  0  0  0  0  0  0  0  0
  -27.0430  -20.1030   19.2340 C   0  0  0  0  0  1  0  0  0  0  0  0
  -31.4490  -20.7720   22.0520 Cl  0  0  0  0  0  0  0  0  0  0  0  0
  -30.5150  -14.8780   20.3840 C   0  0  0  0  0  0  0  0  0  0  0  0
  -30.4070  -12.5690   19.3740 C   0  0  0  0  0  2  0  0  0  0  0  0
  -29.4700  -12.6030   18.1430 C   0  0  0  0  0  2  0  0  0  0  0  0
  -27.9990  -12.4060   18.5620 C   0  0  0  0  0  2  0  0  0  0  0  0
  -27.6040  -13.2930   19.7720 C   0  0  0  0  0  3  0  0  0  0  0  0
  -28.6550  -13.2160   20.9000 C   0  0  0  0  0  2  0  0  0  0  0  0
  -29.9460  -13.6160   20.3190 N   0  0  0  0  0  0  0  0  0  0  0  0
  -31.7100  -15.0140   20.1020 O   0  0  0  0  0  0  0  0  0  0  0  0
  -29.6340  -15.9570   20.5500 N   0  0  0  0  0  0  0  0  0  0  0  0
  -28.6990  -15.5900   20.6460 H   0  0  0  0  0  0  0  0  0  0  0  0
  -25.2090  -13.8830   20.4710 C   0  0  0  0  0  0  0  0  0  0  0  0
  -24.1410  -13.1090   20.8350 C   0  0  0  0  0  0  0  0  0  0  0  0
  -24.6080  -11.7590   20.8200 C   0  0  0  0  0  0  0  0  0  0  0  0
  -26.2570  -13.0040   20.2510 N   0  0  0  0  0  0  0  0  0  0  0  0
  -25.9030  -11.7220   20.5250 N   0  0  0  0  0  0  0  0  0  0  0  0
  -23.8820  -10.4970   21.0100 C   0  0  0  0  0  0  0  0  0  0  0  0
  -24.2990   -9.5400   21.9620 C   0  0  0  0  0  3  0  0  0  0  0  0
  -23.5740   -8.3430   22.1400 C   0  0  0  0  0  3  0  0  0  0  0  0
  -22.4150   -8.0940   21.3640 C   0  0  0  0  0  0  0  0  0  0  0  0
  -22.0170   -9.0390   20.4030 C   0  0  0  0  0  3  0  0  0  0  0  0
  -22.7440  -10.2280   20.2240 C   0  0  0  0  0  3  0  0  0  0  0  0
  -21.6620   -6.9480   21.4510 O   0  0  0  0  0  0  0  0  0  0  0  0
  -21.5870   -6.2210   22.6120 C   0  0  0  0  0  0  0  0  0  0  0  0
  -21.1260   -6.7890   23.8190 C   0  0  0  0  0  3  0  0  0  0  0  0
  -21.0000   -5.9880   24.9710 C   0  0  0  0  0  3  0  0  0  0  0  0
  -21.3250   -4.6200   24.9170 C   0  0  0  0  0  0  0  0  0  0  0  0
  -21.7800   -4.0510   23.7140 C   0  0  0  0  0  3  0  0  0  0  0  0
  -21.9080   -4.8500   22.5640 C   0  0  0  0  0  0  0  0  0  0  0  0
  -22.3260   -4.2910   21.4030 F   0  0  0  0  0  0  0  0  0  0  0  0
  -21.1980   -3.8480   26.0220 F   0  0  0  0  0  0  0  0  0  0  0  0
  -22.7400  -13.5850   21.0850 C   0  0  0  0  0  0  0  0  0  0  0  0
  -22.0020  -12.8920   21.9460 N   0  0  0  0  0  0  0  0  0  0  0  0
  -22.3070  -14.6070   20.5540 O   0  0  0  0  0  0  0  0  0  0  0  0
  -22.3640  -12.0660   22.3970 H   0  0  0  0  0  0  0  0  0  0  0  0
  -21.0610  -13.1930   22.1570 H   0  0  0  0  0  0  0  0  0  0  0  0
  -25.3690  -15.2520   20.2820 N   0  0  0  0  0  0  0  0  0  0  0  0
  -24.5900  -15.8960   20.3720 H   0  0  0  0  0  0  0  0  0  0  0  0
  -26.2000  -15.6910   19.9120 H   0  0  0  0  0  0  0  0  0  0  0  0
  -28.6840  -22.0220   20.9900 C   0  0  0  0  0  2  0  0  0  0  0  0
  -28.9160  -23.4630   20.2100 C   0  0  0  0  0  3  0  0  0  0  0  0
  -28.0990  -24.8240   20.7100 C   0  0  0  0  0  3  0  0  0  0  0  0
  -28.3330  -26.2860   20.3020 O   0  0  0  0  0  0  0  0  0  0  0  0
  -24.6120  -31.8890   23.2440 C   0  0  0  0  0  0  0  0  0  0  0  0
  -27.2490  -27.2170   20.2690 C   0  0  0  0  0  0  0  0  0  0  0  0
  -23.4300  -30.4750   21.6040 C   0  0  0  0  0  3  0  0  0  0  0  0
  -24.8990  -28.9020   20.2060 C   0  0  0  0  0  0  0  0  0  0  0  0
  -25.9800  -30.7700   21.4520 C   0  0  0  0  0  2  0  0  0  0  0  0
  -26.0680  -29.3760   20.8160 C   0  0  0  0  0  0  0  0  0  0  0  0
  -27.2470  -28.5490   20.8290 C   0  0  0  0  0  3  0  0  0  0  0  0
  -26.0570  -26.8290   19.6220 C   0  0  0  0  0  3  0  0  0  0  0  0
  -24.9020  -27.6390   19.5950 C   0  0  0  0  0  3  0  0  0  0  0  0
  -23.6640  -29.7870   20.2330 C   0  0  0  0  0  2  0  0  0  0  0  0
  -24.6940  -31.0650   22.1560 N   0  0  0  0  0  0  0  0  0  0  0  0
  -23.5210  -32.1700   23.7620 O   0  0  0  0  0  0  0  0  0  0  0  0
  -22.7510  -29.4710   22.5670 C   0  0  0  0  0  0  0  0  0  0  0  0
  -21.4240  -29.3020   22.4390 N   0  0  0  0  0  0  0  0  0  0  0  0
  -23.4210  -28.8450   23.3930 O   0  0  0  0  0  0  0  0  0  0  0  0
  -20.9400  -29.8580   21.7470 H   0  0  0  0  0  0  0  0  0  0  0  0
  -18.0360  -28.1310   22.9520 C   0  0  0  0  0  0  0  0  0  0  0  0
  -20.5980  -28.3710   23.2110 C   0  0  0  0  0  3  0  0  0  0  0  0
  -20.6860  -26.9400   22.6340 C   0  0  0  0  0  2  0  0  0  0  0  0
  -19.5780  -26.6280   21.6220 C   0  0  0  0  0  2  0  0  0  0  0  0
  -18.1990  -26.7820   22.2720 C   0  0  0  0  0  2  0  0  0  0  0  0
  -19.1630  -28.8840   23.3780 C   0  0  0  0  0  0  0  0  0  0  0  0
  -18.9540  -30.1470   23.9750 C   0  0  0  0  0  3  0  0  0  0  0  0
  -17.6530  -30.6560   24.1480 C   0  0  0  0  0  3  0  0  0  0  0  0
  -16.5420  -29.9010   23.7360 C   0  0  0  0  0  3  0  0  0  0  0  0
  -16.7350  -28.6400   23.1440 C   0  0  0  0  0  3  0  0  0  0  0  0
  -25.8840  -32.5330   23.8760 C   0  0  0  0  0  3  0  0  0  0  0  0
  -26.3820  -31.7790   25.1700 C   0  0  1  0  0  0  0  0  0  0  0  0
  -25.2750  -31.5550   26.2270 C   0  0  0  0  0  1  0  0  0  0  0  0
  -26.9700  -30.3960   24.8070 C   0  0  0  0  0  1  0  0  0  0  0  0
  -27.5240  -32.5820   25.8360 C   0  0  0  0  0  1  0  0  0  0  0  0
  -25.5670  -33.9340   24.1880 N   0  0  0  0  0  0  0  0  0  0  0  0
  -25.9080  -34.9830   23.4270 C   0  0  0  0  0  0  0  0  0  0  0  0
  -26.5890  -34.8720   22.4060 O   0  0  0  0  0  0  0  0  0  0  0  0
  -24.9630  -34.0950   24.9820 H   0  0  0  0  0  0  0  0  0  0  0  0
  -24.1880  -36.7790   23.0360 C   0  0  0  0  0  1  0  0  0  0  0  0
  -25.4160  -36.3760   23.8690 C   0  0  0  0  0  3  0  0  0  0  0  0
  -27.5380  -37.2640   24.7290 C   0  0  0  0  0  1  0  0  0  0  0  0
  -26.4520  -37.4260   23.7660 N   0  0  0  0  0  0  0  0  0  0  0  0
  -26.0450  -38.3480   23.9000 H   0  0  0  0  0  0  0  0  0  0  0  0
  1  3  2  0
  1  5  1  0
  2  6  1  0
  3  4  1  0
  4 47  1  0
  4  6  2  0
  5 17  1  0
  5  2  2  0
  6  8  1  0
  7  3  1  0
  9 17  1  0
 10 15  1  0
 11 12  1  0
 11 10  1  0
 13 12  1  0
 13 22  1  0
 13 14  1  0
 15  9  1  0
 15 14  1  0
 16  9  2  0
 17 18  1  0
 19 20  2  0
 20 39  1  0
 21 20  1  0
 21 24  1  0
 22 19  1  0
 22 23  1  0
 23 21  2  0
 24 25  1  0
 25 26  2  0
 27 30  1  0
 27 26  1  0
 28 27  2  0
 29 28  1  0
 29 24  2  0
 30 31  1  0
 31 32  1  0
 32 33  2  0
 34 33  1  0
 34 38  1  0
 35 34  2  0
 36 31  2  0
 36 35  1  0
 37 36  1  0
 39 40  1  0
 40 43  1  0
 40 42  1  0
 41 39  2  0
 44 45  1  0
 44 19  1  0
 46 44  1  0
 48 49  2  0
 48 47  1  0
 50 49  1  0
 51 62  2  0
 52 50  1  0
 52 57  1  0
 53 61  1  0
 53 63  1  0
 54 60  1  0
 54 56  1  0
 55 61  1  0
 56 57  2  0
 56 55  1  0
 58 52  2  0
 59 58  1  0
 59 54  2  0
 60 53  1  0
 61 51  1  0
 63 65  2  0
 64 63  1  0
 66 64  1  0
 67 76  2  0
 67 72  1  0
 68 64  1  0
 68 72  1  0
 69 68  1  0
 70 71  1  0
 70 69  1  0
 71 67  1  0
 72 73  2  0
 73 74  1  0
 75 74  2  0
 76 75  1  0
 77 51  1  0
 77 82  1  0
 77 78  1  0
 78 81  1  1
 78 79  1  0
 80 78  1  0
 82 85  1  0
 83 87  1  0
 83 82  1  0
 84 83  2  0
 87 86  1  0
 89 87  1  0
 89 90  1  0
 89 88  1  0
M  ISO  4   9 100  17 100  49 101  50 101
M  END
>  <TORSDO>  (91) 
F 19

>  <SCORE>  (91) 
-14.360

>  <name>  (91) 
90

>  <ligand_id>  (91) 
90

>  <original_smiles>  (91) 
[H]c1c([H])c([H])c2c(c1[H])C([H])([H])C([H])([H])C([H])([H])C2([H])N([H])C(=O)C1([H])N(C(=O)C([H])(N([H])C(=O)C([H])(N([H])C([H])([H])[H])C([H])([H])[H])C(C([H])([H])[H])(C([H])([H])[H])C([H])([H])[H])C([H])([H])c2c([H])c(OC([H])([H])C([H])([H])C([H])([H])c3c(Cl)c([H])c(N([H])C(=O)N4C([H])([H])C([H])([H])C([H])([H])C([H])(n5nc(-c6c([H])c([H])c(Oc7c([H])c([H])c(F)c([H])c7F)c([H])c6[H])c(C(=O)N([H])[H])c5N([H])[H])C4([H])[H])c([H])c3C([H])([H])[H])c([H])c([H])c2C1([H])[H]

>  <smiles>  (91) 
[H]c1c([H])c([H])c2c(c1[H])C([H])([H])C([H])([H])C([H])([H])C2([H])N([H])C(=O)C1([H])N(C(=O)C([H])(N([H])C(=O)C([H])(N([H])C([H])([H])[H])C([H])([H])[H])C(C([H])([H])[H])(C([H])([H])[H])C([H])([H])[H])C([H])([H])c2c([H])c(OC([H])([H])C([H])([H])C([H])([H])c3c(Cl)c([H])c(N([H])C(=O)N4C([H])([H])C([H])([H])C([H])([H])C([H])(n5nc(-c6c([H])c([H])c(Oc7c([H])c([H])c(F)c([H])c7F)c([H])c6[H])c(C(=O)N([H])[H])c5N([H])[H])C4([H])[H])c([H])c3C([H])([H])[H])c([H])c([H])c2C1([H])[H]

$$$$
91:0:0
     RDKit          3D

100109  0  0  1  0  0  0  0  0999 V2000
  -29.2380  -22.5300   17.9250 C   0  0  0  0  0  2  0  0  0  0  0  0
  -29.6700  -21.2000   18.5280 C   0  0  0  0  0  2  0  0  0  0  0  0
  -30.6130  -22.9550   19.8600 C   0  0  0  0  0  2  0  0  0  0  0  0
  -30.2570  -23.5450   18.4690 C   0  0  0  0  0  3  0  0  0  0  0  0
  -30.2220  -21.5200   19.8690 N   0  0  2  0  0  4  0  0  0  0  0  0
  -29.4240  -21.4890   20.4860 H   0  0  0  0  0  0  0  0  0  0  0  0
  -29.4630  -25.3730   17.1110 C   0  0  0  0  0  1  0  0  0  0  0  0
  -29.6600  -24.8940   18.4840 N   0  0  0  0  0  0  0  0  0  0  0  0
  -30.4530  -25.8970   19.2200 C   0  0  0  0  0  2  0  0  0  0  0  0
  -29.6100  -27.1530   19.5470 C   0  0  0  0  0  2  0  0  0  0  0  0
  -28.4060  -26.6600   20.1070 O   0  0  0  0  0  0  0  0  0  0  0  0
  -24.6140  -31.8170   23.2090 C   0  0  0  0  0  0  0  0  0  0  0  0
  -27.2980  -27.4630   20.0800 C   0  0  0  0  0  0  0  0  0  0  0  0
  -23.4200  -30.4250   21.5480 C   0  0  0  0  0  3  0  0  0  0  0  0
  -24.8910  -28.9240   20.1030 C   0  0  0  0  0  0  0  0  0  0  0  0
  -25.9420  -30.8190   21.3540 C   0  0  0  0  0  2  0  0  0  0  0  0
  -26.0430  -29.4620   20.6920 C   0  0  0  0  0  0  0  0  0  0  0  0
  -27.2580  -28.7420   20.6760 C   0  0  0  0  0  3  0  0  0  0  0  0
  -26.1330  -26.9250   19.5020 C   0  0  0  0  0  3  0  0  0  0  0  0
  -24.9280  -27.6530   19.5020 C   0  0  0  0  0  3  0  0  0  0  0  0
  -23.6370  -29.7670   20.1590 C   0  0  0  0  0  2  0  0  0  0  0  0
  -24.6760  -31.0330   22.0960 N   0  0  0  0  0  0  0  0  0  0  0  0
  -23.5300  -32.0700   23.7530 O   0  0  0  0  0  0  0  0  0  0  0  0
  -22.7770  -29.3860   22.4930 C   0  0  0  0  0  0  0  0  0  0  0  0
  -21.4540  -29.1970   22.3630 N   0  0  0  0  0  0  0  0  0  0  0  0
  -23.4640  -28.7530   23.2990 O   0  0  0  0  0  0  0  0  0  0  0  0
  -20.9590  -29.7600   21.6850 H   0  0  0  0  0  0  0  0  0  0  0  0
  -18.0870  -27.9740   22.8370 C   0  0  0  0  0  0  0  0  0  0  0  0
  -20.6420  -28.2460   23.1210 C   0  0  0  0  0  3  0  0  0  0  0  0
  -20.7570  -26.8210   22.5310 C   0  0  0  0  0  2  0  0  0  0  0  0
  -19.6610  -26.5020   21.5100 C   0  0  0  0  0  2  0  0  0  0  0  0
  -18.2760  -26.6320   22.1490 C   0  0  0  0  0  2  0  0  0  0  0  0
  -19.1990  -28.7380   23.2800 C   0  0  0  0  0  0  0  0  0  0  0  0
  -18.9700  -29.9950   23.8820 C   0  0  0  0  0  3  0  0  0  0  0  0
  -17.6610  -30.4850   24.0480 C   0  0  0  0  0  3  0  0  0  0  0  0
  -16.5640  -29.7180   23.6210 C   0  0  0  0  0  3  0  0  0  0  0  0
  -16.7780  -28.4640   23.0220 C   0  0  0  0  0  3  0  0  0  0  0  0
  -25.8950  -32.4490   23.8380 C   0  0  0  0  0  3  0  0  0  0  0  0
  -25.5760  -33.8380   24.1860 N   0  0  0  0  0  0  0  0  0  0  0  0
  -25.9110  -34.9020   23.4450 C   0  0  0  0  0  0  0  0  0  0  0  0
  -26.5920  -34.8180   22.4190 O   0  0  0  0  0  0  0  0  0  0  0  0
  -24.9740  -33.9780   24.9850 H   0  0  0  0  0  0  0  0  0  0  0  0
  -24.1870  -36.6960   23.0860 C   0  0  0  0  0  1  0  0  0  0  0  0
  -25.4110  -36.2820   23.9170 C   0  0  0  0  0  3  0  0  0  0  0  0
  -27.5240  -37.1540   24.8110 C   0  0  0  0  0  1  0  0  0  0  0  0
  -26.4430  -37.3370   23.8450 N   0  0  0  0  0  0  0  0  0  0  0  0
  -26.0340  -38.2550   24.0010 H   0  0  0  0  0  0  0  0  0  0  0  0
  -26.4220  -31.6620   25.0990 C   0  0  1  0  0  0  0  0  0  0  0  0
  -25.3340  -31.3920   26.1640 C   0  0  0  0  0  1  0  0  0  0  0  0
  -27.0200  -30.2980   24.6790 C   0  0  0  0  0  1  0  0  0  0  0  0
  -27.5650  -32.4560   25.7730 C   0  0  0  0  0  1  0  0  0  0  0  0
  -31.2210  -20.5800   20.4820 C   0  0  0  0  0  2  0  0  0  0  0  0
  -32.4410  -18.0260   17.8760 C   0  0  0  0  0  0  0  0  0  0  0  0
  -31.4300  -19.2410   19.7550 C   0  0  0  0  0  0  0  0  0  0  0  0
  -30.9250  -16.8540   19.4210 C   0  0  0  0  0  0  0  0  0  0  0  0
  -32.3510  -19.1800   18.6820 C   0  0  0  0  0  0  0  0  0  0  0  0
  -31.6880  -16.8760   18.2160 C   0  0  0  0  0  0  0  0  0  0  0  0
  -30.7430  -18.0590   20.1440 C   0  0  0  0  0  0  0  0  0  0  0  0
  -33.3480  -18.0550   16.6490 C   0  0  0  0  0  1  0  0  0  0  0  0
  -33.3310  -20.5620   18.2930 Cl  0  0  0  0  0  0  0  0  0  0  0  0
  -31.6820  -15.5240   17.1240 Cl  0  0  0  0  0  0  0  0  0  0  0  0
  -29.6890  -18.0600   21.5200 Cl  0  0  0  0  0  0  0  0  0  0  0  0
  -31.0290  -14.5020   20.0750 C   0  0  0  0  0  0  0  0  0  0  0  0
  -30.6070  -12.3490   19.0270 C   0  0  0  0  0  2  0  0  0  0  0  0
  -29.6480  -12.5760   17.8410 C   0  0  0  0  0  2  0  0  0  0  0  0
  -28.1850  -12.4860   18.3070 C   0  0  0  0  0  2  0  0  0  0  0  0
  -27.8910  -13.3450   19.5660 C   0  0  0  0  0  3  0  0  0  0  0  0
  -28.9750  -13.1540   20.6520 C   0  0  0  0  0  2  0  0  0  0  0  0
  -30.2880  -13.3690   20.0320 N   0  0  0  0  0  0  0  0  0  0  0  0
  -32.2480  -14.5130   19.9140 O   0  0  0  0  0  0  0  0  0  0  0  0
  -30.3390  -15.6440   19.9230 N   0  0  0  0  0  0  0  0  0  0  0  0
  -29.3580  -15.6510   20.1550 H   0  0  0  0  0  0  0  0  0  0  0  0
  -25.5130  -13.9820   20.3130 C   0  0  0  0  0  0  0  0  0  0  0  0
  -24.4430  -13.2220   20.7050 C   0  0  0  0  0  0  0  0  0  0  0  0
  -24.8940  -11.8670   20.6870 C   0  0  0  0  0  0  0  0  0  0  0  0
  -26.5480  -13.0900   20.0810 N   0  0  0  0  0  0  0  0  0  0  0  0
  -26.1800  -11.8140   20.3660 N   0  0  0  0  0  0  0  0  0  0  0  0
  -24.1610  -10.6120   20.8980 C   0  0  0  0  0  0  0  0  0  0  0  0
  -24.5810   -9.6630   21.8550 C   0  0  0  0  0  3  0  0  0  0  0  0
  -23.8480   -8.4740   22.0530 C   0  0  0  0  0  3  0  0  0  0  0  0
  -22.6800   -8.2250   21.2930 C   0  0  0  0  0  0  0  0  0  0  0  0
  -22.2790   -9.1630   20.3260 C   0  0  0  0  0  3  0  0  0  0  0  0
  -23.0120  -10.3440   20.1260 C   0  0  0  0  0  3  0  0  0  0  0  0
  -21.9190   -7.0860   21.4010 O   0  0  0  0  0  0  0  0  0  0  0  0
  -21.8320   -6.3850   22.5780 C   0  0  0  0  0  0  0  0  0  0  0  0
  -21.3660   -6.9830   23.7690 C   0  0  0  0  0  3  0  0  0  0  0  0
  -21.2290   -6.2090   24.9380 C   0  0  0  0  0  3  0  0  0  0  0  0
  -21.5470   -4.8370   24.9160 C   0  0  0  0  0  0  0  0  0  0  0  0
  -22.0060   -4.2390   23.7300 C   0  0  0  0  0  3  0  0  0  0  0  0
  -22.1450   -5.0110   22.5620 C   0  0  0  0  0  0  0  0  0  0  0  0
  -22.5680   -4.4240   21.4170 F   0  0  0  0  0  0  0  0  0  0  0  0
  -21.4070   -4.0920   26.0370 F   0  0  0  0  0  0  0  0  0  0  0  0
  -23.0520  -13.7130   20.9850 C   0  0  0  0  0  0  0  0  0  0  0  0
  -22.3280  -13.0330   21.8670 N   0  0  0  0  0  0  0  0  0  0  0  0
  -22.6170  -14.7340   20.4560 O   0  0  0  0  0  0  0  0  0  0  0  0
  -22.6930  -12.2060   22.3160 H   0  0  0  0  0  0  0  0  0  0  0  0
  -21.3970  -13.3460   22.0980 H   0  0  0  0  0  0  0  0  0  0  0  0
  -25.6830  -15.3490   20.1130 N   0  0  0  0  0  0  0  0  0  0  0  0
  -24.9210  -16.0080   20.2240 H   0  0  0  0  0  0  0  0  0  0  0  0
  -26.5280  -15.7800   19.7620 H   0  0  0  0  0  0  0  0  0  0  0  0
  1  4  1  0
  1  2  1  0
  2  5  1  0
  3  5  1  0
  4  8  1  0
  4  3  1  0
  5 52  1  0
  5  6  1  1
  7  8  1  0
  8  9  1  0
  9 10  1  0
 10 11  1  0
 12 23  2  0
 13 11  1  0
 13 18  1  0
 14 22  1  0
 14 24  1  0
 15 21  1  0
 15 17  1  0
 16 22  1  0
 17 16  1  0
 18 17  2  0
 19 20  1  0
 19 13  2  0
 20 15  2  0
 21 14  1  0
 22 12  1  0
 24 26  2  0
 25 24  1  0
 27 25  1  0
 28 37  2  0
 28 33  1  0
 29 25  1  0
 29 33  1  0
 30 29  1  0
 31 32  1  0
 31 30  1  0
 32 28  1  0
 33 34  2  0
 34 35  1  0
 36 35  2  0
 37 36  1  0
 38 12  1  0
 38 39  1  0
 38 48  1  0
 39 42  1  0
 40 44  1  0
 40 39  1  0
 41 40  2  0
 44 43  1  0
 46 44  1  0
 46 47  1  0
 46 45  1  0
 48 51  1  1
 48 49  1  0
 50 48  1  0
 53 57  2  0
 53 56  1  0
 54 58  1  0
 54 52  1  0
 55 71  1  0
 55 58  2  0
 56 54  2  0
 57 55  1  0
 58 62  1  0
 59 53  1  0
 60 56  1  0
 61 57  1  0
 64 69  1  0
 65 66  1  0
 65 64  1  0
 67 66  1  0
 67 76  1  0
 67 68  1  0
 69 63  1  0
 69 68  1  0
 70 63  2  0
 71 63  1  0
 71 72  1  0
 73 74  2  0
 74 93  1  0
 75 74  1  0
 75 78  1  0
 76 73  1  0
 76 77  1  0
 77 75  2  0
 78 79  1  0
 79 80  2  0
 81 84  1  0
 81 80  1  0
 82 81  2  0
 83 82  1  0
 83 78  2  0
 84 85  1  0
 85 86  1  0
 86 87  2  0
 88 87  1  0
 88 92  1  0
 89 88  2  0
 90 85  2  0
 90 89  1  0
 91 90  1  0
 93 94  1  0
 94 97  1  0
 94 96  1  0
 95 93  2  0
 98 99  1  0
 98 73  1  0
100 98  1  0
M  ISO  4  10 101  11 101  63 100  71 100
M  END
>  <TORSDO>  (92) 
F 21

>  <SCORE>  (92) 
-13.143

>  <name>  (92) 
91

>  <ligand_id>  (92) 
91

>  <original_smiles>  (92) 
[H]c1c([H])c([H])c2c(c1[H])C([H])([H])C([H])([H])C([H])([H])C2([H])N([H])C(=O)C1([H])N(C(=O)C([H])(N([H])C(=O)C([H])(N([H])C([H])([H])[H])C([H])([H])[H])C(C([H])([H])[H])(C([H])([H])[H])C([H])([H])[H])C([H])([H])c2c([H])c(OC([H])([H])C([H])([H])N(C([H])([H])[H])C3([H])C([H])([H])C([H])([H])[N+]([H])(C([H])([H])c4c(Cl)c(N([H])C(=O)N5C([H])([H])C([H])([H])C([H])([H])C([H])(n6nc(-c7c([H])c([H])c(Oc8c([H])c([H])c(F)c([H])c8F)c([H])c7[H])c(C(=O)N([H])[H])c6N([H])[H])C5([H])[H])c(Cl)c(C([H])([H])[H])c4Cl)C3([H])[H])c([H])c([H])c2C1([H])[H]

>  <smiles>  (92) 
[H]c1c([H])c([H])c2c(c1[H])C([H])([H])C([H])([H])C([H])([H])C2([H])N([H])C(=O)C1([H])N(C(=O)C([H])(N([H])C(=O)C([H])(N([H])C([H])([H])[H])C([H])([H])[H])C(C([H])([H])[H])(C([H])([H])[H])C([H])([H])[H])C([H])([H])c2c([H])c(OC([H])([H])C([H])([H])N(C([H])([H])[H])C3([H])C([H])([H])C([H])([H])[N+]([H])(C([H])([H])c4c(Cl)c(N([H])C(=O)N5C([H])([H])C([H])([H])C([H])([H])C([H])(n6nc(-c7c([H])c([H])c(Oc8c([H])c([H])c(F)c([H])c8F)c([H])c7[H])c(C(=O)N([H])[H])c6N([H])[H])C5([H])[H])c(Cl)c(C([H])([H])[H])c4Cl)C3([H])[H])c([H])c([H])c2C1([H])[H]

$$$$
92:0:0
     RDKit          3D

 99108  0  0  1  0  0  0  0  0999 V2000
  -27.1830  -22.0450   21.9640 C   0  0  0  0  0  2  0  0  0  0  0  0
  -25.8660  -22.8480   21.9550 C   0  0  0  0  0  2  0  0  0  0  0  0
  -27.0190  -24.7320   20.8500 C   0  0  0  0  0  2  0  0  0  0  0  0
  -28.2330  -22.4680   20.8910 C   0  0  0  0  0  3  0  0  0  0  0  0
  -28.4120  -24.0300   21.0490 C   0  0  0  0  0  3  0  0  0  0  0  0
  -25.8380  -23.8430   20.8700 N   0  0  0  0  0  4  0  0  0  0  0  0
  -25.0030  -24.4050   20.9490 H   0  0  0  0  0  0  0  0  0  0  0  0
  -25.7700  -23.3650   19.9840 H   0  0  0  0  0  0  0  0  0  0  0  0
  -31.0990  -20.0100   22.0470 C   0  0  0  0  0  3  0  0  0  0  0  0
  -29.3470  -21.3740   20.9530 C   0  0  0  0  0  0  0  0  0  0  0  0
  -30.9080  -18.9110   21.1630 C   0  0  0  0  0  0  0  0  0  0  0  0
  -30.3210  -21.2000   21.9790 C   0  0  0  0  0  0  0  0  0  0  0  0
  -29.2300  -20.3140   20.0020 C   0  0  0  0  0  0  0  0  0  0  0  0
  -29.9540  -19.1040   20.1390 C   0  0  0  0  0  0  0  0  0  0  0  0
  -30.5400  -22.3690   23.2280 Cl  0  0  0  0  0  0  0  0  0  0  0  0
  -28.0950  -20.4340   18.6870 Cl  0  0  0  0  0  0  0  0  0  0  0  0
  -29.5660  -17.8220   19.0690 Cl  0  0  0  0  0  0  0  0  0  0  0  0
  -31.6850  -17.5780   21.4350 C   0  0  0  0  0  2  0  0  0  0  0  0
  -31.6370  -15.1790   20.5270 C   0  0  0  0  0  0  0  0  0  0  0  0
  -31.2500  -13.0210   19.3690 C   0  0  0  0  0  2  0  0  0  0  0  0
  -30.3400  -13.1920   18.1370 C   0  0  0  0  0  2  0  0  0  0  0  0
  -28.8580  -13.0850   18.5380 C   0  0  0  0  0  2  0  0  0  0  0  0
  -28.4980  -13.9730   19.7570 C   0  0  0  0  0  3  0  0  0  0  0  0
  -29.5280  -13.7970   20.8980 C   0  0  0  0  0  2  0  0  0  0  0  0
  -30.8790  -14.0500   20.3600 N   0  0  0  0  0  0  0  0  0  0  0  0
  -32.7620  -15.2890   20.0330 O   0  0  0  0  0  0  0  0  0  0  0  0
  -31.0830  -16.2350   21.1690 N   0  0  0  0  0  0  0  0  0  0  0  0
  -30.1280  -16.1180   21.4780 H   0  0  0  0  0  0  0  0  0  0  0  0
  -26.0780  -14.5940   20.4070 C   0  0  0  0  0  0  0  0  0  0  0  0
  -24.9930  -13.8420   20.7590 C   0  0  0  0  0  0  0  0  0  0  0  0
  -25.4350  -12.4890   20.7200 C   0  0  0  0  0  0  0  0  0  0  0  0
  -27.1270  -13.7110   20.2140 N   0  0  0  0  0  0  0  0  0  0  0  0
  -26.7390  -12.4310   20.4620 N   0  0  0  0  0  0  0  0  0  0  0  0
  -24.6690  -11.2420   20.8550 C   0  0  0  0  0  0  0  0  0  0  0  0
  -25.0040  -10.2760   21.8250 C   0  0  0  0  0  3  0  0  0  0  0  0
  -24.2350   -9.1000   21.9450 C   0  0  0  0  0  3  0  0  0  0  0  0
  -23.1240   -8.8860   21.0980 C   0  0  0  0  0  0  0  0  0  0  0  0
  -22.8070   -9.8470   20.1240 C   0  0  0  0  0  3  0  0  0  0  0  0
  -23.5740  -11.0140   20.0000 C   0  0  0  0  0  3  0  0  0  0  0  0
  -22.3400   -7.7610   21.1300 O   0  0  0  0  0  0  0  0  0  0  0  0
  -22.0880   -7.0980   22.3030 C   0  0  0  0  0  0  0  0  0  0  0  0
  -21.4750   -7.7360   23.4050 C   0  0  0  0  0  3  0  0  0  0  0  0
  -21.1790   -6.9990   24.5680 C   0  0  0  0  0  3  0  0  0  0  0  0
  -21.4800   -5.6240   24.6220 C   0  0  0  0  0  0  0  0  0  0  0  0
  -22.0840   -4.9850   23.5260 C   0  0  0  0  0  3  0  0  0  0  0  0
  -22.3830   -5.7210   22.3660 C   0  0  0  0  0  0  0  0  0  0  0  0
  -22.9510   -5.1040   21.3020 F   0  0  0  0  0  0  0  0  0  0  0  0
  -21.1830   -4.9090   25.7340 F   0  0  0  0  0  0  0  0  0  0  0  0
  -23.6060  -14.3580   21.0170 C   0  0  0  0  0  0  0  0  0  0  0  0
  -22.8630  -13.6830   21.8880 N   0  0  0  0  0  0  0  0  0  0  0  0
  -23.1970  -15.3950   20.5040 O   0  0  0  0  0  0  0  0  0  0  0  0
  -23.2150  -12.8450   22.3250 H   0  0  0  0  0  0  0  0  0  0  0  0
  -21.9380  -14.0120   22.1200 H   0  0  0  0  0  0  0  0  0  0  0  0
  -26.2220  -15.9440   20.2050 N   0  0  0  0  0  0  0  0  0  0  0  0
  -25.4540  -16.5930   20.3060 H   0  0  0  0  0  0  0  0  0  0  0  0
  -27.1230  -16.3990   20.1030 H   0  0  0  0  0  0  0  0  0  0  0  0
  -29.4430  -24.8480   20.2070 C   0  0  0  0  0  2  0  0  0  0  0  0
  -29.6540  -26.2950   20.7980 C   0  0  0  0  0  2  0  0  0  0  0  0
  -29.3040  -27.4100   19.9550 O   0  0  0  0  0  0  0  0  0  0  0  0
  -24.8070  -31.9150   23.3270 C   0  0  0  0  0  0  0  0  0  0  0  0
  -28.0510  -27.9860   20.0810 C   0  0  0  0  0  0  0  0  0  0  0  0
  -23.8360  -30.5350   21.5150 C   0  0  0  0  0  3  0  0  0  0  0  0
  -25.5110  -29.2440   20.0910 C   0  0  0  0  0  0  0  0  0  0  0  0
  -26.3210  -31.1470   21.4960 C   0  0  0  0  0  2  0  0  0  0  0  0
  -26.5800  -29.8290   20.7840 C   0  0  0  0  0  0  0  0  0  0  0  0
  -27.8560  -29.2040   20.7810 C   0  0  0  0  0  3  0  0  0  0  0  0
  -26.9670  -27.4290   19.3730 C   0  0  0  0  0  3  0  0  0  0  0  0
  -25.6960  -28.0410   19.3860 C   0  0  0  0  0  3  0  0  0  0  0  0
  -24.1940  -29.9810   20.1110 C   0  0  0  0  0  2  0  0  0  0  0  0
  -25.0020  -31.2140   22.1740 N   0  0  0  0  0  0  0  0  0  0  0  0
  -23.6790  -32.0390   23.8200 O   0  0  0  0  0  0  0  0  0  0  0  0
  -23.2340  -29.3940   22.3670 C   0  0  0  0  0  0  0  0  0  0  0  0
  -21.9370  -29.1010   22.1710 N   0  0  0  0  0  0  0  0  0  0  0  0
  -23.9340  -28.7650   23.1660 O   0  0  0  0  0  0  0  0  0  0  0  0
  -21.4260  -29.6330   21.4850 H   0  0  0  0  0  0  0  0  0  0  0  0
  -18.6420  -27.6340   22.4500 C   0  0  0  0  0  0  0  0  0  0  0  0
  -21.1670  -28.0500   22.8380 C   0  0  0  0  0  3  0  0  0  0  0  0
  -21.3850  -26.6910   22.1420 C   0  0  0  0  0  2  0  0  0  0  0  0
  -20.3540  -26.3920   21.0490 C   0  0  0  0  0  2  0  0  0  0  0  0
  -18.9350  -26.3820   21.6370 C   0  0  0  0  0  2  0  0  0  0  0  0
  -19.6880  -28.4280   22.9900 C   0  0  0  0  0  0  0  0  0  0  0  0
  -19.3640  -29.6030   23.7020 C   0  0  0  0  0  3  0  0  0  0  0  0
  -18.0270  -29.9970   23.8740 C   0  0  0  0  0  3  0  0  0  0  0  0
  -16.9930  -29.2080   23.3440 C   0  0  0  0  0  3  0  0  0  0  0  0
  -17.2990  -28.0160   22.6570 C   0  0  0  0  0  3  0  0  0  0  0  0
  -25.9890  -32.6160   24.0670 C   0  0  0  0  0  3  0  0  0  0  0  0
  -26.4130  -31.8830   25.3960 C   0  0  1  0  0  0  0  0  0  0  0  0
  -25.2280  -31.5870   26.3470 C   0  0  0  0  0  1  0  0  0  0  0  0
  -27.1180  -30.5440   25.0770 C   0  0  0  0  0  1  0  0  0  0  0  0
  -27.4420  -32.7480   26.1610 C   0  0  0  0  0  1  0  0  0  0  0  0
  -25.5900  -34.0030   24.3390 N   0  0  0  0  0  0  0  0  0  0  0  0
  -25.9580  -35.0620   23.6010 C   0  0  0  0  0  0  0  0  0  0  0  0
  -26.7320  -34.9730   22.6460 O   0  0  0  0  0  0  0  0  0  0  0  0
  -24.9140  -34.1450   25.0730 H   0  0  0  0  0  0  0  0  0  0  0  0
  -24.1920  -36.7690   23.0430 C   0  0  0  0  0  1  0  0  0  0  0  0
  -25.3650  -36.4320   23.9790 C   0  0  0  0  0  3  0  0  0  0  0  0
  -27.3630  -37.4310   25.0010 C   0  0  0  0  0  1  0  0  0  0  0  0
  -26.3570  -37.5290   23.9510 N   0  0  0  0  0  0  0  0  0  0  0  0
  -25.8980  -38.4310   24.0360 H   0  0  0  0  0  0  0  0  0  0  0  0
  2  1  1  0
  3  6  1  0
  3  5  1  0
  4 10  1  0
  4  5  1  0
  4  1  1  0
  5 57  1  0
  6  7  1  0
  6  2  1  0
  8  6  1  0
 10 12  2  0
 11 18  1  0
 11  9  2  0
 12  9  1  0
 12 15  1  0
 13 14  2  0
 13 10  1  0
 14 11  1  0
 16 13  1  0
 17 14  1  0
 19 27  1  0
 20 25  1  0
 21 22  1  0
 21 20  1  0
 23 22  1  0
 23 32  1  0
 23 24  1  0
 25 19  1  0
 25 24  1  0
 26 19  2  0
 27 18  1  0
 27 28  1  0
 29 30  2  0
 30 49  1  0
 31 30  1  0
 31 34  1  0
 32 29  1  0
 32 33  1  0
 33 31  2  0
 34 35  1  0
 35 36  2  0
 37 40  1  0
 37 36  1  0
 38 37  2  0
 39 38  1  0
 39 34  2  0
 40 41  1  0
 41 46  2  0
 41 42  1  0
 42 43  2  0
 43 44  1  0
 44 48  1  0
 45 44  2  0
 46 45  1  0
 47 46  1  0
 49 50  1  0
 50 53  1  0
 50 52  1  0
 51 49  2  0
 54 55  1  0
 54 29  1  0
 56 54  1  0
 57 58  1  0
 59 61  1  0
 59 58  1  0
 60 71  2  0
 61 66  1  0
 62 70  1  0
 62 72  1  0
 63 69  1  0
 63 65  1  0
 64 70  1  0
 65 64  1  0
 66 65  2  0
 67 68  1  0
 67 61  2  0
 68 63  2  0
 69 62  1  0
 70 60  1  0
 72 74  2  0
 73 72  1  0
 75 73  1  0
 76 85  2  0
 76 81  1  0
 77 73  1  0
 77 81  1  0
 78 77  1  0
 79 80  1  0
 79 78  1  0
 80 76  1  0
 81 82  2  0
 82 83  1  0
 84 83  2  0
 85 84  1  0
 86 60  1  0
 86 91  1  0
 86 87  1  0
 87 90  1  1
 87 88  1  0
 89 87  1  0
 91 94  1  0
 92 96  1  0
 92 91  1  0
 93 92  2  0
 96 95  1  0
 98 96  1  0
 98 99  1  0
 98 97  1  0
M  ISO  4  19 100  27 100  58 101  59 101
M  END
>  <TORSDO>  (93) 
F 20

>  <SCORE>  (93) 
-10.722

>  <name>  (93) 
92

>  <ligand_id>  (93) 
92

>  <original_smiles>  (93) 
[H]c1c([H])c([H])c2c(c1[H])C([H])([H])C([H])([H])C([H])([H])C2([H])N([H])C(=O)C1([H])N(C(=O)C([H])(N([H])C(=O)C([H])(N([H])C([H])([H])[H])C([H])([H])[H])C(C([H])([H])[H])(C([H])([H])[H])C([H])([H])[H])C([H])([H])c2c([H])c(OC([H])([H])C([H])([H])C3([H])C([H])(c4c(Cl)c([H])c(C([H])([H])N([H])C(=O)N5C([H])([H])C([H])([H])C([H])([H])C([H])(n6nc(-c7c([H])c([H])c(Oc8c([H])c([H])c(F)c([H])c8F)c([H])c7[H])c(C(=O)N([H])[H])c6N([H])[H])C5([H])[H])c(Cl)c4Cl)C([H])([H])C([H])([H])[N+]([H])([H])C3([H])[H])c([H])c([H])c2C1([H])[H]

>  <smiles>  (93) 
[H]c1c([H])c([H])c2c(c1[H])C([H])([H])C([H])([H])C([H])([H])C2([H])N([H])C(=O)C1([H])N(C(=O)C([H])(N([H])C(=O)C([H])(N([H])C([H])([H])[H])C([H])([H])[H])C(C([H])([H])[H])(C([H])([H])[H])C([H])([H])[H])C([H])([H])c2c([H])c(OC([H])([H])C([H])([H])C3([H])C([H])(c4c(Cl)c([H])c(C([H])([H])N([H])C(=O)N5C([H])([H])C([H])([H])C([H])([H])C([H])(n6nc(-c7c([H])c([H])c(Oc8c([H])c([H])c(F)c([H])c8F)c([H])c7[H])c(C(=O)N([H])[H])c6N([H])[H])C5([H])[H])c(Cl)c4Cl)C([H])([H])C([H])([H])[N+]([H])([H])C3([H])[H])c([H])c([H])c2C1([H])[H]

$$$$
93:0:0
     RDKit          3D

106117  0  0  1  0  0  0  0  0999 V2000
  -31.2100  -18.3400   18.8870 C   0  0  0  0  0  0  0  0  0  0  0  0
  -30.0090  -17.7460   19.1760 C   0  0  0  0  0  0  0  0  0  0  0  0
  -29.5320  -19.8380   18.8200 C   0  0  0  0  0  0  0  0  0  0  0  0
  -31.7310  -20.7450   18.3330 C   0  0  0  0  0  3  0  0  0  0  0  0
  -28.9640  -21.0980   18.5000 C   0  0  0  0  0  0  0  0  0  0  0  0
  -31.1810  -21.9630   17.9950 C   0  0  0  0  0  0  0  0  0  0  0  0
  -29.7610  -22.1230   18.0330 C   0  0  0  0  0  0  0  0  0  0  0  0
  -28.9850  -18.6800   19.2100 N   0  0  0  0  0  0  0  0  0  0  0  0
  -30.9330  -19.6920   18.6730 N   0  0  0  0  0  0  0  0  0  0  0  0
  -27.2490  -21.3150   18.6480 Cl  0  0  0  0  0  0  0  0  0  0  0  0
  -29.0080  -23.5900   17.5030 Cl  0  0  0  0  0  0  0  0  0  0  0  0
  -34.6570  -17.8850   18.3420 C   0  0  0  0  0  2  0  0  0  0  0  0
  -33.4100  -17.9150   17.4520 C   0  0  0  0  0  2  0  0  0  0  0  0
  -33.7550  -18.1210   19.5570 C   0  0  0  0  0  2  0  0  0  0  0  0
  -32.5540  -17.6910   18.7100 C   0  0  0  0  0  3  0  0  0  0  0  0
  -29.6690  -16.2840   19.2320 C   0  0  0  0  0  2  0  0  0  0  0  0
  -30.6540  -14.5410   20.5650 C   0  0  0  0  0  0  0  0  0  0  0  0
  -30.4270  -12.3100   19.5980 C   0  0  0  0  0  2  0  0  0  0  0  0
  -29.5420  -12.4660   18.3410 C   0  0  0  0  0  2  0  0  0  0  0  0
  -28.0450  -12.3560   18.7000 C   0  0  0  0  0  2  0  0  0  0  0  0
  -27.6450  -13.2350   19.9180 C   0  0  0  0  0  3  0  0  0  0  0  0
  -28.6630  -13.0860   21.0800 C   0  0  0  0  0  2  0  0  0  0  0  0
  -30.0130  -13.3440   20.5580 N   0  0  0  0  0  0  0  0  0  0  0  0
  -31.8350  -14.6770   20.2550 O   0  0  0  0  0  0  0  0  0  0  0  0
  -29.8220  -15.5910   20.5150 N   0  0  0  0  0  0  0  0  0  0  0  0
  -28.9490  -15.4550   21.0010 H   0  0  0  0  0  0  0  0  0  0  0  0
  -25.2240  -13.8570   20.5310 C   0  0  0  0  0  0  0  0  0  0  0  0
  -24.1420  -13.0890   20.8720 C   0  0  0  0  0  0  0  0  0  0  0  0
  -24.6070  -11.7370   20.8810 C   0  0  0  0  0  0  0  0  0  0  0  0
  -26.2770  -12.9700   20.3540 N   0  0  0  0  0  0  0  0  0  0  0  0
  -25.9070  -11.6930   20.6240 N   0  0  0  0  0  0  0  0  0  0  0  0
  -23.8750  -10.4770   21.0640 C   0  0  0  0  0  0  0  0  0  0  0  0
  -24.2840   -9.5190   22.0170 C   0  0  0  0  0  3  0  0  0  0  0  0
  -23.5560   -8.3220   22.1870 C   0  0  0  0  0  3  0  0  0  0  0  0
  -22.4040   -8.0760   21.4040 C   0  0  0  0  0  0  0  0  0  0  0  0
  -22.0140   -9.0240   20.4430 C   0  0  0  0  0  3  0  0  0  0  0  0
  -22.7430  -10.2120   20.2710 C   0  0  0  0  0  3  0  0  0  0  0  0
  -21.6470   -6.9320   21.4820 O   0  0  0  0  0  0  0  0  0  0  0  0
  -21.5770   -6.1950   22.6380 C   0  0  0  0  0  0  0  0  0  0  0  0
  -21.1260   -6.7560   23.8520 C   0  0  0  0  0  3  0  0  0  0  0  0
  -21.0010   -5.9450   24.9980 C   0  0  0  0  0  3  0  0  0  0  0  0
  -21.3160   -4.5740   24.9300 C   0  0  0  0  0  0  0  0  0  0  0  0
  -21.7610   -4.0140   23.7190 C   0  0  0  0  0  3  0  0  0  0  0  0
  -21.8870   -4.8220   22.5760 C   0  0  0  0  0  0  0  0  0  0  0  0
  -22.2930   -4.2710   21.4060 F   0  0  0  0  0  0  0  0  0  0  0  0
  -21.1900   -3.7930   26.0280 F   0  0  0  0  0  0  0  0  0  0  0  0
  -22.7360  -13.5680   21.0810 C   0  0  0  0  0  0  0  0  0  0  0  0
  -21.9710  -12.8900   21.9300 N   0  0  0  0  0  0  0  0  0  0  0  0
  -22.3180  -14.5830   20.5260 O   0  0  0  0  0  0  0  0  0  0  0  0
  -22.3160  -12.0680   22.4020 H   0  0  0  0  0  0  0  0  0  0  0  0
  -21.0270  -13.2040   22.1100 H   0  0  0  0  0  0  0  0  0  0  0  0
  -25.3940  -15.2250   20.3370 N   0  0  0  0  0  0  0  0  0  0  0  0
  -24.6190  -15.8750   20.4090 H   0  0  0  0  0  0  0  0  0  0  0  0
  -26.2490  -15.6670   20.0210 H   0  0  0  0  0  0  0  0  0  0  0  0
  -32.1360  -23.0750   17.5330 C   0  0  0  0  0  2  0  0  0  0  0  0
  -33.0890  -26.6900   18.7300 C   0  0  0  0  0  2  0  0  0  0  0  0
  -33.2950  -25.3110   18.0740 C   0  0  0  0  0  2  0  0  0  0  0  0
  -32.6450  -26.5720   20.2010 C   0  0  0  0  0  2  0  0  0  0  0  0
  -31.7460  -24.3350   19.7750 C   0  0  0  0  0  2  0  0  0  0  0  0
  -32.0420  -24.4370   18.2650 C   0  0  0  0  0  3  0  0  0  0  0  0
  -31.4610  -25.6830   20.3310 N   0  0  1  0  0  4  0  0  0  0  0  0
  -30.7390  -26.1030   19.7610 H   0  0  0  0  0  0  0  0  0  0  0  0
  -30.9170  -25.6240   21.7080 C   0  0  0  0  0  2  0  0  0  0  0  0
  -29.4420  -25.1730   21.7460 C   0  0  0  0  0  2  0  0  0  0  0  0
  -28.4450  -26.3160   21.5490 C   0  0  0  0  0  2  0  0  0  0  0  0
  -28.2830  -26.7060   20.1780 O   0  0  0  0  0  0  0  0  0  0  0  0
  -24.5460  -31.8650   23.1980 C   0  0  0  0  0  0  0  0  0  0  0  0
  -27.1630  -27.4900   20.0660 C   0  0  0  0  0  0  0  0  0  0  0  0
  -23.3170  -30.4740   21.5590 C   0  0  0  0  0  3  0  0  0  0  0  0
  -24.7580  -28.9590   20.0940 C   0  0  0  0  0  0  0  0  0  0  0  0
  -25.8310  -30.8570   21.3230 C   0  0  0  0  0  2  0  0  0  0  0  0
  -25.9150  -29.4970   20.6710 C   0  0  0  0  0  0  0  0  0  0  0  0
  -27.1200  -28.7710   20.6540 C   0  0  0  0  0  3  0  0  0  0  0  0
  -26.0050  -26.9620   19.4610 C   0  0  0  0  0  3  0  0  0  0  0  0
  -24.7980  -27.6900   19.4780 C   0  0  0  0  0  3  0  0  0  0  0  0
  -23.5060  -29.8030   20.1700 C   0  0  0  0  0  2  0  0  0  0  0  0
  -24.5830  -31.0770   22.0860 N   0  0  0  0  0  0  0  0  0  0  0  0
  -23.4730  -32.1350   23.7560 O   0  0  0  0  0  0  0  0  0  0  0  0
  -22.6800  -29.4470   22.5200 C   0  0  0  0  0  0  0  0  0  0  0  0
  -21.3550  -29.2690   22.4100 N   0  0  0  0  0  0  0  0  0  0  0  0
  -23.3750  -28.8140   23.3190 O   0  0  0  0  0  0  0  0  0  0  0  0
  -20.8550  -29.8310   21.7360 H   0  0  0  0  0  0  0  0  0  0  0  0
  -17.9850  -28.0880   22.9400 C   0  0  0  0  0  0  0  0  0  0  0  0
  -20.5450  -28.3290   23.1860 C   0  0  0  0  0  3  0  0  0  0  0  0
  -20.6350  -26.9030   22.5960 C   0  0  0  0  0  2  0  0  0  0  0  0
  -19.5210  -26.5940   21.5930 C   0  0  0  0  0  2  0  0  0  0  0  0
  -18.1470  -26.7420   22.2530 C   0  0  0  0  0  2  0  0  0  0  0  0
  -19.1120  -28.8410   23.3630 C   0  0  0  0  0  0  0  0  0  0  0  0
  -18.9060  -30.1020   23.9620 C   0  0  0  0  0  3  0  0  0  0  0  0
  -17.6060  -30.6100   24.1460 C   0  0  0  0  0  3  0  0  0  0  0  0
  -16.4940  -29.8530   23.7380 C   0  0  0  0  0  3  0  0  0  0  0  0
  -16.6840  -28.5950   23.1410 C   0  0  0  0  0  3  0  0  0  0  0  0
  -25.8440  -32.4870   23.8030 C   0  0  0  0  0  3  0  0  0  0  0  0
  -25.5430  -33.8820   24.1520 N   0  0  0  0  0  0  0  0  0  0  0  0
  -25.8770  -34.9410   23.4010 C   0  0  0  0  0  0  0  0  0  0  0  0
  -26.5400  -34.8450   22.3640 O   0  0  0  0  0  0  0  0  0  0  0  0
  -24.9540  -34.0300   24.9580 H   0  0  0  0  0  0  0  0  0  0  0  0
  -24.1590  -36.7460   23.0630 C   0  0  0  0  0  1  0  0  0  0  0  0
  -25.3950  -36.3250   23.8740 C   0  0  0  0  0  3  0  0  0  0  0  0
  -27.5320  -37.1880   24.7220 C   0  0  0  0  0  1  0  0  0  0  0  0
  -26.4340  -37.3740   23.7770 N   0  0  0  0  0  0  0  0  0  0  0  0
  -26.0320  -38.2940   23.9350 H   0  0  0  0  0  0  0  0  0  0  0  0
  -26.3850  -31.7000   25.0590 C   0  0  1  0  0  0  0  0  0  0  0  0
  -25.3120  -31.4530   26.1440 C   0  0  0  0  0  1  0  0  0  0  0  0
  -26.9570  -30.3250   24.6350 C   0  0  0  0  0  1  0  0  0  0  0  0
  -27.5500  -32.4840   25.7090 C   0  0  0  0  0  1  0  0  0  0  0  0
  1  2  2  0
  2  8  1  0
  2 16  1  0
  3  8  2  0
  4  9  1  0
  5 10  1  0
  5  3  1  0
  6  7  1  0
  6  4  2  0
  7  5  2  0
  9  3  1  0
  9  1  1  0
 11  7  1  0
 12 14  1  0
 13 12  1  0
 13 15  1  0
 15  1  1  0
 15 14  1  0
 16 25  1  0
 18 23  1  0
 19 20  1  0
 19 18  1  0
 21 20  1  0
 21 30  1  0
 21 22  1  0
 23 17  1  0
 23 22  1  0
 24 17  2  0
 25 17  1  0
 25 26  1  0
 27 28  2  0
 28 29  1  0
 28 47  1  0
 29 32  1  0
 30 27  1  0
 30 31  1  0
 31 29  2  0
 32 33  1  0
 33 34  2  0
 35 38  1  0
 35 34  1  0
 36 35  2  0
 37 36  1  0
 37 32  2  0
 38 39  1  0
 39 40  1  0
 40 41  2  0
 42 41  1  0
 42 46  1  0
 43 42  2  0
 44 39  2  0
 44 43  1  0
 45 44  1  0
 47 48  1  0
 48 51  1  0
 48 50  1  0
 49 47  2  0
 52 53  1  0
 52 27  1  0
 54 52  1  0
 55  6  1  0
 56 58  1  0
 57 60  1  0
 57 56  1  0
 58 61  1  0
 59 61  1  0
 60 55  1  0
 60 59  1  0
 61 63  1  0
 61 62  1  6
 63 64  1  0
 65 64  1  0
 66 65  1  0
 67 78  2  0
 68 66  1  0
 68 73  1  0
 69 77  1  0
 69 79  1  0
 70 76  1  0
 70 72  1  0
 71 77  1  0
 72 71  1  0
 73 72  2  0
 74 75  1  0
 74 68  2  0
 75 70  2  0
 76 69  1  0
 77 67  1  0
 79 81  2  0
 80 79  1  0
 82 80  1  0
 83 92  2  0
 83 88  1  0
 84 80  1  0
 84 88  1  0
 85 84  1  0
 86 87  1  0
 86 85  1  0
 87 83  1  0
 88 89  2  0
 89 90  1  0
 91 90  2  0
 92 91  1  0
 93 67  1  0
 93 94  1  0
 93103  1  0
 94 97  1  0
 95 99  1  0
 95 94  1  0
 96 95  2  0
 99 98  1  0
101 99  1  0
101102  1  0
101100  1  0
103106  1  1
103104  1  0
105103  1  0
M  ISO  4  17 100  25 100  65 101  66 101
M  END
>  <TORSDO>  (94) 
F 23

>  <SCORE>  (94) 
-12.989

>  <name>  (94) 
93

>  <ligand_id>  (94) 
93

>  <original_smiles>  (94) 
[H]c1c([H])c([H])c2c(c1[H])C([H])([H])C([H])([H])C([H])([H])C2([H])N([H])C(=O)C1([H])N(C(=O)C([H])(N([H])C(=O)C([H])(N([H])C([H])([H])[H])C([H])([H])[H])C(C([H])([H])[H])(C([H])([H])[H])C([H])([H])[H])C([H])([H])c2c([H])c(OC([H])([H])C([H])([H])C([H])([H])[N+]3([H])C([H])([H])C([H])([H])C([H])([H])C([H])(C([H])([H])c4c(Cl)c(Cl)c5nc(C([H])([H])N([H])C(=O)N6C([H])([H])C([H])([H])C([H])([H])C([H])(n7nc(-c8c([H])c([H])c(Oc9c([H])c([H])c(F)c([H])c9F)c([H])c8[H])c(C(=O)N([H])[H])c7N([H])[H])C6([H])[H])c(C6([H])C([H])([H])C([H])([H])C6([H])[H])n5c4[H])C3([H])[H])c([H])c([H])c2C1([H])[H]

>  <smiles>  (94) 
[H]c1c([H])c([H])c2c(c1[H])C([H])([H])C([H])([H])C([H])([H])C2([H])N([H])C(=O)C1([H])N(C(=O)C([H])(N([H])C(=O)C([H])(N([H])C([H])([H])[H])C([H])([H])[H])C(C([H])([H])[H])(C([H])([H])[H])C([H])([H])[H])C([H])([H])c2c([H])c(OC([H])([H])C([H])([H])C([H])([H])[N+]3([H])C([H])([H])C([H])([H])C([H])([H])C([H])(C([H])([H])c4c(Cl)c(Cl)c5nc(C([H])([H])N([H])C(=O)N6C([H])([H])C([H])([H])C([H])([H])C([H])(n7nc(-c8c([H])c([H])c(Oc9c([H])c([H])c(F)c([H])c9F)c([H])c8[H])c(C(=O)N([H])[H])c7N([H])[H])C6([H])[H])c(C6([H])C([H])([H])C([H])([H])C6([H])[H])n5c4[H])C3([H])[H])c([H])c([H])c2C1([H])[H]

$$$$
94:0:0
     RDKit          3D

 90 98  0  0  1  0  0  0  0  0999 V2000
  -29.3990  -20.5010   21.1170 C   0  0  0  0  0  3  0  0  0  0  0  0
  -29.0140  -21.7160   20.3280 C   0  0  0  0  0  0  0  0  0  0  0  0
  -29.5970  -19.2980   20.3830 C   0  0  0  0  0  0  0  0  0  0  0  0
  -28.9930  -21.1010   19.0840 C   0  0  0  0  0  0  0  0  0  0  0  0
  -28.7200  -21.6110   17.7050 C   0  0  0  0  0  1  0  0  0  0  0  0
  -29.3390  -19.7320   19.1080 O   0  0  0  0  0  0  0  0  0  0  0  0
  -27.5670  -23.1920   21.8370 C   0  0  0  0  0  1  0  0  0  0  0  0
  -29.9840  -23.7110   21.6560 C   0  0  0  0  0  1  0  0  0  0  0  0
  -28.7360  -23.3140   20.8430 C   0  0  1  0  0  0  0  0  0  0  0  0
  -28.3710  -24.7040   19.9030 C   0  0  0  0  0  2  0  0  0  0  0  0
  -28.3340  -26.2240   20.3640 O   0  0  0  0  0  0  0  0  0  0  0  0
  -24.6200  -31.9220   23.2440 C   0  0  0  0  0  0  0  0  0  0  0  0
  -27.2560  -27.1930   20.2420 C   0  0  0  0  0  0  0  0  0  0  0  0
  -23.4420  -30.5140   21.5990 C   0  0  0  0  0  3  0  0  0  0  0  0
  -24.9120  -28.9430   20.1820 C   0  0  0  0  0  0  0  0  0  0  0  0
  -25.9930  -30.7980   21.4420 C   0  0  0  0  0  2  0  0  0  0  0  0
  -26.0810  -29.3960   20.8000 C   0  0  0  0  0  0  0  0  0  0  0  0
  -27.2460  -28.5340   20.8180 C   0  0  0  0  0  3  0  0  0  0  0  0
  -26.0600  -26.8570   19.5640 C   0  0  0  0  0  3  0  0  0  0  0  0
  -24.9170  -27.6900   19.5470 C   0  0  0  0  0  3  0  0  0  0  0  0
  -23.6790  -29.8350   20.2220 C   0  0  0  0  0  2  0  0  0  0  0  0
  -24.7070  -31.1000   22.1520 N   0  0  0  0  0  0  0  0  0  0  0  0
  -23.5280  -32.2000   23.7660 O   0  0  0  0  0  0  0  0  0  0  0  0
  -22.7610  -29.5050   22.5630 C   0  0  0  0  0  0  0  0  0  0  0  0
  -21.4320  -29.3330   22.4370 N   0  0  0  0  0  0  0  0  0  0  0  0
  -23.4320  -28.8810   23.3870 O   0  0  0  0  0  0  0  0  0  0  0  0
  -20.9450  -29.8930   21.7510 H   0  0  0  0  0  0  0  0  0  0  0  0
  -18.0530  -28.1200   22.9350 C   0  0  0  0  0  0  0  0  0  0  0  0
  -20.6110  -28.3890   23.2020 C   0  0  0  0  0  3  0  0  0  0  0  0
  -20.7160  -26.9580   22.6210 C   0  0  0  0  0  2  0  0  0  0  0  0
  -19.6170  -26.6370   21.6050 C   0  0  0  0  0  2  0  0  0  0  0  0
  -18.2340  -26.7740   22.2500 C   0  0  0  0  0  2  0  0  0  0  0  0
  -19.1700  -28.8820   23.3690 C   0  0  0  0  0  0  0  0  0  0  0  0
  -18.9500  -30.1370   23.9780 C   0  0  0  0  0  3  0  0  0  0  0  0
  -17.6440  -30.6340   24.1490 C   0  0  0  0  0  3  0  0  0  0  0  0
  -16.5400  -29.8710   23.7310 C   0  0  0  0  0  3  0  0  0  0  0  0
  -16.7450  -28.6130   23.1350 C   0  0  0  0  0  3  0  0  0  0  0  0
  -25.8860  -32.5730   23.8830 C   0  0  0  0  0  3  0  0  0  0  0  0
  -26.3790  -31.8220   25.1820 C   0  0  1  0  0  0  0  0  0  0  0  0
  -25.2650  -31.5920   26.2310 C   0  0  0  0  0  1  0  0  0  0  0  0
  -26.9730  -30.4450   24.8140 C   0  0  0  0  0  1  0  0  0  0  0  0
  -27.5220  -32.6230   25.8520 C   0  0  0  0  0  1  0  0  0  0  0  0
  -25.5680  -33.9760   24.2000 N   0  0  0  0  0  0  0  0  0  0  0  0
  -25.9030  -35.0250   23.4370 C   0  0  0  0  0  0  0  0  0  0  0  0
  -26.5780  -34.9110   22.4100 O   0  0  0  0  0  0  0  0  0  0  0  0
  -24.9750  -34.1350   25.0020 H   0  0  0  0  0  0  0  0  0  0  0  0
  -24.1830  -36.8200   23.0470 C   0  0  0  0  0  1  0  0  0  0  0  0
  -25.4120  -36.4200   23.8780 C   0  0  0  0  0  3  0  0  0  0  0  0
  -27.5300  -37.3110   24.7420 C   0  0  0  0  0  1  0  0  0  0  0  0
  -26.4500  -37.4700   23.7730 N   0  0  0  0  0  0  0  0  0  0  0  0
  -26.0450  -38.3940   23.9030 H   0  0  0  0  0  0  0  0  0  0  0  0
  -30.3400  -17.8200   20.6070 C   0  0  0  0  0  2  0  0  0  0  0  0
  -30.5520  -15.0990   20.2550 C   0  0  0  0  0  0  0  0  0  0  0  0
  -30.3910  -12.7550   19.2610 C   0  0  0  0  0  2  0  0  0  0  0  0
  -29.4400  -12.7370   18.0410 C   0  0  0  0  0  2  0  0  0  0  0  0
  -27.9840  -12.5160   18.4920 C   0  0  0  0  0  2  0  0  0  0  0  0
  -27.6020  -13.4040   19.7070 C   0  0  0  0  0  3  0  0  0  0  0  0
  -28.6840  -13.4060   20.8080 C   0  0  0  0  0  2  0  0  0  0  0  0
  -29.9330  -13.8470   20.1750 N   0  0  0  0  0  0  0  0  0  0  0  0
  -31.7530  -15.1300   19.9600 O   0  0  0  0  0  0  0  0  0  0  0  0
  -29.8310  -16.3180   20.4690 N   0  0  0  0  0  0  0  0  0  0  0  0
  -28.8520  -16.1880   20.6740 H   0  0  0  0  0  0  0  0  0  0  0  0
  -25.2280  -13.9440   20.4860 C   0  0  0  0  0  0  0  0  0  0  0  0
  -24.1760  -13.1530   20.8630 C   0  0  0  0  0  0  0  0  0  0  0  0
  -24.6560  -11.8090   20.8160 C   0  0  0  0  0  0  0  0  0  0  0  0
  -26.2780  -13.0810   20.2280 N   0  0  0  0  0  0  0  0  0  0  0  0
  -25.9450  -11.7910   20.4910 N   0  0  0  0  0  0  0  0  0  0  0  0
  -23.9450  -10.5360   21.0080 C   0  0  0  0  0  0  0  0  0  0  0  0
  -24.3780   -9.5810   21.9540 C   0  0  0  0  0  3  0  0  0  0  0  0
  -23.6620   -8.3760   22.1330 C   0  0  0  0  0  3  0  0  0  0  0  0
  -22.5020   -8.1190   21.3660 C   0  0  0  0  0  0  0  0  0  0  0  0
  -22.0880   -9.0640   20.4110 C   0  0  0  0  0  3  0  0  0  0  0  0
  -22.8040  -10.2590   20.2310 C   0  0  0  0  0  3  0  0  0  0  0  0
  -21.7570   -6.9680   21.4560 O   0  0  0  0  0  0  0  0  0  0  0  0
  -21.6800   -6.2460   22.6200 C   0  0  0  0  0  0  0  0  0  0  0  0
  -21.1550   -6.8020   23.8060 C   0  0  0  0  0  3  0  0  0  0  0  0
  -21.0300   -6.0060   24.9620 C   0  0  0  0  0  3  0  0  0  0  0  0
  -21.4170   -4.6530   24.9300 C   0  0  0  0  0  0  0  0  0  0  0  0
  -21.9290   -4.0940   23.7480 C   0  0  0  0  0  3  0  0  0  0  0  0
  -22.0560   -4.8870   22.5930 C   0  0  0  0  0  0  0  0  0  0  0  0
  -22.5330   -4.3380   21.4510 F   0  0  0  0  0  0  0  0  0  0  0  0
  -21.2850   -3.8850   26.0370 F   0  0  0  0  0  0  0  0  0  0  0  0
  -22.7790  -13.6130   21.1510 C   0  0  0  0  0  0  0  0  0  0  0  0
  -22.0660  -12.8960   22.0130 N   0  0  0  0  0  0  0  0  0  0  0  0
  -22.3320  -14.6420   20.6500 O   0  0  0  0  0  0  0  0  0  0  0  0
  -22.4490  -12.0640   22.4340 H   0  0  0  0  0  0  0  0  0  0  0  0
  -21.1290  -13.1870   22.2560 H   0  0  0  0  0  0  0  0  0  0  0  0
  -25.3680  -15.3170   20.3150 N   0  0  0  0  0  0  0  0  0  0  0  0
  -24.5860  -15.9530   20.4350 H   0  0  0  0  0  0  0  0  0  0  0  0
  -26.1920  -15.7740   19.9440 H   0  0  0  0  0  0  0  0  0  0  0  0
  2  9  1  0
  2  1  1  0
  3 52  1  0
  3  1  2  0
  4  6  1  0
  4  2  2  0
  5  4  1  0
  6  3  1  0
  9  8  1  1
  9  7  1  0
 10 11  1  0
 10  9  1  0
 12 23  2  0
 13 11  1  0
 13 18  1  0
 14 22  1  0
 14 24  1  0
 15 21  1  0
 15 17  1  0
 16 22  1  0
 17 18  2  0
 17 16  1  0
 19 13  2  0
 20 19  1  0
 20 15  2  0
 21 14  1  0
 22 12  1  0
 24 26  2  0
 25 24  1  0
 27 25  1  0
 28 37  2  0
 28 33  1  0
 29 25  1  0
 29 33  1  0
 30 29  1  0
 31 32  1  0
 31 30  1  0
 32 28  1  0
 33 34  2  0
 34 35  1  0
 36 35  2  0
 37 36  1  0
 38 12  1  0
 38 43  1  0
 38 39  1  0
 39 42  1  1
 39 40  1  0
 41 39  1  0
 43 46  1  0
 44 48  1  0
 44 43  1  0
 45 44  2  0
 48 47  1  0
 50 48  1  0
 50 51  1  0
 50 49  1  0
 53 61  1  0
 54 59  1  0
 55 56  1  0
 55 54  1  0
 57 56  1  0
 57 66  1  0
 57 58  1  0
 59 53  1  0
 59 58  1  0
 60 53  2  0
 61 52  1  0
 61 62  1  0
 63 64  2  0
 64 83  1  0
 65 64  1  0
 65 68  1  0
 66 63  1  0
 66 67  1  0
 67 65  2  0
 68 69  1  0
 69 70  2  0
 71 74  1  0
 71 70  1  0
 72 71  2  0
 73 72  1  0
 73 68  2  0
 74 75  1  0
 75 76  1  0
 76 77  2  0
 78 77  1  0
 78 82  1  0
 79 78  2  0
 80 75  2  0
 80 79  1  0
 81 80  1  0
 83 84  1  0
 84 87  1  0
 84 86  1  0
 85 83  2  0
 88 89  1  0
 88 63  1  0
 90 88  1  0
M  ISO  4  10 101  11 101  53 100  61 100
M  END
>  <TORSDO>  (95) 
F 19

>  <SCORE>  (95) 
-15.359

>  <name>  (95) 
94

>  <ligand_id>  (95) 
94

>  <original_smiles>  (95) 
[H]c1c([H])c([H])c2c(c1[H])C([H])([H])C([H])([H])C([H])([H])C2([H])N([H])C(=O)C1([H])N(C(=O)C([H])(N([H])C(=O)C([H])(N([H])C([H])([H])[H])C([H])([H])[H])C(C([H])([H])[H])(C([H])([H])[H])C([H])([H])[H])C([H])([H])c2c([H])c(OC([H])([H])C(c3c(C([H])([H])[H])oc(C([H])([H])N([H])C(=O)N4C([H])([H])C([H])([H])C([H])([H])C([H])(n5nc(-c6c([H])c([H])c(Oc7c([H])c([H])c(F)c([H])c7F)c([H])c6[H])c(C(=O)N([H])[H])c5N([H])[H])C4([H])[H])c3[H])(C([H])([H])[H])C([H])([H])[H])c([H])c([H])c2C1([H])[H]

>  <smiles>  (95) 
[H]c1c([H])c([H])c2c(c1[H])C([H])([H])C([H])([H])C([H])([H])C2([H])N([H])C(=O)C1([H])N(C(=O)C([H])(N([H])C(=O)C([H])(N([H])C([H])([H])[H])C([H])([H])[H])C(C([H])([H])[H])(C([H])([H])[H])C([H])([H])[H])C([H])([H])c2c([H])c(OC([H])([H])C(c3c(C([H])([H])[H])oc(C([H])([H])N([H])C(=O)N4C([H])([H])C([H])([H])C([H])([H])C([H])(n5nc(-c6c([H])c([H])c(Oc7c([H])c([H])c(F)c([H])c7F)c([H])c6[H])c(C(=O)N([H])[H])c5N([H])[H])C4([H])[H])c3[H])(C([H])([H])[H])C([H])([H])[H])c([H])c([H])c2C1([H])[H]

$$$$
95:0:0
     RDKit          3D

 86 94  0  0  1  0  0  0  0  0999 V2000
  -29.0460  -21.1480   19.5170 C   0  0  0  0  0  2  0  0  0  0  0  0
  -30.5960  -15.2180   19.4770 C   0  0  0  0  0  0  0  0  0  0  0  0
  -30.4130  -12.8300   18.4900 C   0  0  0  0  0  2  0  0  0  0  0  0
  -29.3060  -12.7100   17.4100 C   0  0  0  0  0  2  0  0  0  0  0  0
  -27.9220  -12.4670   18.0390 C   0  0  0  0  0  2  0  0  0  0  0  0
  -27.6890  -13.3450   19.2950 C   0  0  0  0  0  3  0  0  0  0  0  0
  -28.9050  -13.3310   20.2410 C   0  0  0  0  0  2  0  0  0  0  0  0
  -30.0290  -13.9080   19.4760 N   0  0  0  0  0  0  0  0  0  0  0  0
  -31.7080  -15.2510   18.9270 O   0  0  0  0  0  0  0  0  0  0  0  0
  -28.9530  -17.7820   21.8760 C   0  0  0  0  0  2  0  0  0  0  0  0
  -28.4460  -19.0240   21.1080 C   0  0  0  0  0  2  0  0  0  0  0  0
  -29.0690  -16.4610   21.0650 C   0  0  0  0  0  2  0  0  0  0  0  0
  -29.9220  -18.0250   19.2780 C   0  0  0  0  0  2  0  0  0  0  0  0
  -29.4970  -19.5220   20.1100 C   0  0  0  0  0  3  0  0  0  0  0  0
  -29.8980  -16.4800   19.8440 N   0  0  0  0  0  0  0  0  0  0  0  0
  -25.4890  -13.8950   20.4660 C   0  0  0  0  0  0  0  0  0  0  0  0
  -24.4750  -13.1140   20.9410 C   0  0  0  0  0  0  0  0  0  0  0  0
  -24.8750  -11.7610   20.7110 C   0  0  0  0  0  0  0  0  0  0  0  0
  -26.4450  -13.0200   19.9800 N   0  0  0  0  0  0  0  0  0  0  0  0
  -26.0960  -11.7240   20.1860 N   0  0  0  0  0  0  0  0  0  0  0  0
  -24.1380  -10.5060   20.9060 C   0  0  0  0  0  0  0  0  0  0  0  0
  -24.6220   -9.4890   21.7570 C   0  0  0  0  0  3  0  0  0  0  0  0
  -23.8820   -8.3010   21.9450 C   0  0  0  0  0  3  0  0  0  0  0  0
  -22.6440   -8.1230   21.2800 C   0  0  0  0  0  0  0  0  0  0  0  0
  -22.1790   -9.1300   20.4160 C   0  0  0  0  0  3  0  0  0  0  0  0
  -22.9190  -10.3080   20.2260 C   0  0  0  0  0  3  0  0  0  0  0  0
  -21.8720   -6.9910   21.3790 O   0  0  0  0  0  0  0  0  0  0  0  0
  -21.8100   -6.2590   22.5380 C   0  0  0  0  0  0  0  0  0  0  0  0
  -21.3980   -6.8350   23.7600 C   0  0  0  0  0  3  0  0  0  0  0  0
  -21.2840   -6.0330   24.9130 C   0  0  0  0  0  3  0  0  0  0  0  0
  -21.5700   -4.6570   24.8460 C   0  0  0  0  0  0  0  0  0  0  0  0
  -21.9720   -4.0810   23.6270 C   0  0  0  0  0  3  0  0  0  0  0  0
  -22.0920   -4.8800   22.4770 C   0  0  0  0  0  0  0  0  0  0  0  0
  -22.4610   -4.3160   21.3020 F   0  0  0  0  0  0  0  0  0  0  0  0
  -21.4530   -3.8830   25.9500 F   0  0  0  0  0  0  0  0  0  0  0  0
  -23.1620  -13.5980   21.4800 C   0  0  0  0  0  0  0  0  0  0  0  0
  -22.5680  -12.8520   22.4050 N   0  0  0  0  0  0  0  0  0  0  0  0
  -22.6790  -14.6720   21.1180 O   0  0  0  0  0  0  0  0  0  0  0  0
  -22.9820  -11.9860   22.7190 H   0  0  0  0  0  0  0  0  0  0  0  0
  -21.6870  -13.1490   22.7990 H   0  0  0  0  0  0  0  0  0  0  0  0
  -25.6600  -15.2730   20.3760 N   0  0  0  0  0  0  0  0  0  0  0  0
  -24.9400  -15.9210   20.6800 H   0  0  0  0  0  0  0  0  0  0  0  0
  -26.4260  -15.7320   19.9010 H   0  0  0  0  0  0  0  0  0  0  0  0
  -28.8850  -22.7560   20.2800 C   0  0  0  0  0  3  0  0  0  0  0  0
  -28.1390  -24.2990   19.7640 C   0  0  0  0  0  3  0  0  0  0  0  0
  -28.2010  -25.8500   20.2780 O   0  0  0  0  0  0  0  0  0  0  0  0
  -24.5260  -31.7180   23.1840 C   0  0  0  0  0  0  0  0  0  0  0  0
  -27.1730  -26.9150   20.1670 C   0  0  0  0  0  0  0  0  0  0  0  0
  -23.3620  -30.3100   21.5320 C   0  0  0  0  0  3  0  0  0  0  0  0
  -24.8440  -28.7380   20.1110 C   0  0  0  0  0  0  0  0  0  0  0  0
  -25.9230  -30.5640   21.4050 C   0  0  0  0  0  2  0  0  0  0  0  0
  -26.0160  -29.1600   20.7480 C   0  0  0  0  0  0  0  0  0  0  0  0
  -27.1720  -28.2650   20.7610 C   0  0  0  0  0  3  0  0  0  0  0  0
  -25.9760  -26.6400   19.4680 C   0  0  0  0  0  3  0  0  0  0  0  0
  -24.8460  -27.4970   19.4530 C   0  0  0  0  0  3  0  0  0  0  0  0
  -23.6080  -29.6340   20.1560 C   0  0  0  0  0  2  0  0  0  0  0  0
  -24.6240  -30.8900   22.0930 N   0  0  0  0  0  0  0  0  0  0  0  0
  -23.4310  -31.9890   23.7000 O   0  0  0  0  0  0  0  0  0  0  0  0
  -22.6810  -29.2990   22.4900 C   0  0  0  0  0  0  0  0  0  0  0  0
  -21.3590  -29.0910   22.3350 N   0  0  0  0  0  0  0  0  0  0  0  0
  -23.3460  -28.7010   23.3390 O   0  0  0  0  0  0  0  0  0  0  0  0
  -20.8740  -29.6240   21.6280 H   0  0  0  0  0  0  0  0  0  0  0  0
  -18.0130  -27.7640   22.7610 C   0  0  0  0  0  0  0  0  0  0  0  0
  -20.5490  -28.1350   23.0980 C   0  0  0  0  0  3  0  0  0  0  0  0
  -20.7270  -26.6990   22.5550 C   0  0  0  0  0  2  0  0  0  0  0  0
  -19.6730  -26.3150   21.5120 C   0  0  0  0  0  2  0  0  0  0  0  0
  -18.2660  -26.4130   22.1100 C   0  0  0  0  0  2  0  0  0  0  0  0
  -19.0870  -28.5790   23.2100 C   0  0  0  0  0  0  0  0  0  0  0  0
  -18.7970  -29.8370   23.7790 C   0  0  0  0  0  3  0  0  0  0  0  0
  -17.4670  -30.2840   23.9020 C   0  0  0  0  0  3  0  0  0  0  0  0
  -16.4090  -29.4680   23.4670 C   0  0  0  0  0  3  0  0  0  0  0  0
  -16.6820  -28.2090   22.9040 C   0  0  0  0  0  3  0  0  0  0  0  0
  -25.7850  -32.3790   23.8240 C   0  0  0  0  0  3  0  0  0  0  0  0
  -25.4640  -33.7900   24.0990 N   0  0  0  0  0  0  0  0  0  0  0  0
  -25.8050  -34.8220   23.3170 C   0  0  0  0  0  0  0  0  0  0  0  0
  -26.4840  -34.6860   22.2950 O   0  0  0  0  0  0  0  0  0  0  0  0
  -24.8600  -33.9670   24.8880 H   0  0  0  0  0  0  0  0  0  0  0  0
  -24.0770  -36.6090   22.9040 C   0  0  0  0  0  1  0  0  0  0  0  0
  -25.3170  -36.2280   23.7290 C   0  0  0  0  0  3  0  0  0  0  0  0
  -27.4490  -37.1460   24.5340 C   0  0  0  0  0  1  0  0  0  0  0  0
  -26.3510  -37.2770   23.5820 N   0  0  0  0  0  0  0  0  0  0  0  0
  -25.9430  -38.2010   23.6940 H   0  0  0  0  0  0  0  0  0  0  0  0
  -26.2560  -31.6590   25.1480 C   0  0  1  0  0  0  0  0  0  0  0  0
  -25.1260  -31.4600   26.1850 C   0  0  0  0  0  1  0  0  0  0  0  0
  -26.8530  -30.2680   24.8390 C   0  0  0  0  0  1  0  0  0  0  0  0
  -27.3840  -32.4780   25.8190 C   0  0  0  0  0  1  0  0  0  0  0  0
  1 44  1  0
  2 15  1  0
  3  8  1  0
  4  5  1  0
  4  3  1  0
  6  5  1  0
  6 19  1  0
  6  7  1  0
  8  2  1  0
  8  7  1  0
  9  2  2  0
 11 10  1  0
 12 10  1  0
 13 15  1  0
 13 14  1  0
 14  1  1  0
 14 11  1  0
 15 12  1  0
 16 17  2  0
 17 36  1  0
 18 21  1  0
 18 17  1  0
 19 20  1  0
 19 16  1  0
 20 18  2  0
 21 22  1  0
 22 23  2  0
 24 27  1  0
 24 23  1  0
 25 24  2  0
 26 25  1  0
 26 21  2  0
 27 28  1  0
 28 29  1  0
 29 30  2  0
 31 30  1  0
 31 35  1  0
 32 31  2  0
 33 28  2  0
 33 32  1  0
 34 33  1  0
 36 37  1  0
 37 39  1  0
 37 40  1  0
 38 36  2  0
 41 16  1  0
 41 42  1  0
 43 41  1  0
 45 46  1  0
 45 44  2  0
 47 58  2  0
 48 46  1  0
 48 53  1  0
 49 57  1  0
 49 59  1  0
 50 56  1  0
 50 52  1  0
 51 57  1  0
 52 53  2  0
 52 51  1  0
 54 48  2  0
 55 54  1  0
 55 50  2  0
 56 49  1  0
 57 47  1  0
 59 61  2  0
 60 59  1  0
 62 60  1  0
 63 72  2  0
 63 68  1  0
 64 60  1  0
 64 68  1  0
 65 64  1  0
 66 67  1  0
 66 65  1  0
 67 63  1  0
 68 69  2  0
 69 70  1  0
 71 70  2  0
 72 71  1  0
 73 47  1  0
 73 74  1  0
 73 83  1  0
 74 77  1  0
 75 79  1  0
 75 74  1  0
 76 75  2  0
 79 78  1  0
 81 82  1  0
 81 79  1  0
 81 80  1  0
 83 86  1  1
 83 84  1  0
 85 83  1  0
M  ISO  4   2 100  15 100  45 101  46 101
M  END
>  <TORSDO>  (96) 
F 18

>  <SCORE>  (96) 
-12.370

>  <name>  (96) 
95

>  <ligand_id>  (96) 
95

>  <original_smiles>  (96) 
[H]c1c([H])c([H])c2c(c1[H])C([H])([H])C([H])([H])C([H])([H])C2([H])N([H])C(=O)C1([H])N(C(=O)C([H])(N([H])C(=O)C([H])(N([H])C([H])([H])[H])C([H])([H])[H])C(C([H])([H])[H])(C([H])([H])[H])C([H])([H])[H])C([H])([H])c2c([H])c(OC([H])([H])C([H])([H])C([H])([H])C3([H])C([H])([H])N(C(=O)N4C([H])([H])C([H])([H])C([H])([H])C([H])(n5nc(-c6c([H])c([H])c(Oc7c([H])c([H])c(F)c([H])c7F)c([H])c6[H])c(C(=O)N([H])[H])c5N([H])[H])C4([H])[H])C([H])([H])C([H])([H])C3([H])[H])c([H])c([H])c2C1([H])[H]

>  <smiles>  (96) 
[H]c1c([H])c([H])c2c(c1[H])C([H])([H])C([H])([H])C([H])([H])C2([H])N([H])C(=O)C1([H])N(C(=O)C([H])(N([H])C(=O)C([H])(N([H])C([H])([H])[H])C([H])([H])[H])C(C([H])([H])[H])(C([H])([H])[H])C([H])([H])[H])C([H])([H])c2c([H])c(OC([H])([H])C([H])([H])C([H])([H])C3([H])C([H])([H])N(C(=O)N4C([H])([H])C([H])([H])C([H])([H])C([H])(n5nc(-c6c([H])c([H])c(Oc7c([H])c([H])c(F)c([H])c7F)c([H])c6[H])c(C(=O)N([H])[H])c5N([H])[H])C4([H])[H])C([H])([H])C([H])([H])C3([H])[H])c([H])c([H])c2C1([H])[H]

$$$$
96:0:0
     RDKit          3D

 97105  0  0  1  0  0  0  0  0999 V2000
  -31.4440  -20.4900   20.3430 C   0  0  0  0  0  0  0  0  0  0  0  0
  -30.6960  -19.9310   21.4210 C   0  0  0  0  0  0  0  0  0  0  0  0
  -31.6700  -17.7030   20.9350 C   0  0  0  0  0  0  0  0  0  0  0  0
  -32.2680  -19.6510   19.5530 C   0  0  0  0  0  0  0  0  0  0  0  0
  -30.7730  -18.5280   21.6690 C   0  0  0  0  0  0  0  0  0  0  0  0
  -32.4330  -18.2890   19.8870 C   0  0  0  0  0  0  0  0  0  0  0  0
  -31.4070  -21.9930   20.0550 C   0  0  0  0  0  1  0  0  0  0  0  0
  -33.1460  -20.2890   18.1990 Cl  0  0  0  0  0  0  0  0  0  0  0  0
  -29.8280  -17.8200   22.9410 Cl  0  0  0  0  0  0  0  0  0  0  0  0
  -33.6580  -17.3980   19.0420 Cl  0  0  0  0  0  0  0  0  0  0  0  0
  -31.9180  -16.2450   21.3720 C   0  0  0  0  0  2  0  0  0  0  0  0
  -31.3020  -14.3040   19.9380 C   0  0  0  0  0  0  0  0  0  0  0  0
  -30.7380  -12.1910   18.8000 C   0  0  0  0  0  2  0  0  0  0  0  0
  -29.7520  -12.4250   17.6420 C   0  0  0  0  0  2  0  0  0  0  0  0
  -28.3030  -12.3640   18.1550 C   0  0  0  0  0  2  0  0  0  0  0  0
  -28.0760  -13.2590   19.4030 C   0  0  0  0  0  3  0  0  0  0  0  0
  -29.1770  -13.0280   20.4630 C   0  0  0  0  0  2  0  0  0  0  0  0
  -30.4900  -13.2190   19.8270 N   0  0  0  0  0  0  0  0  0  0  0  0
  -32.3090  -14.4370   19.2480 O   0  0  0  0  0  0  0  0  0  0  0  0
  -30.9910  -15.2110   20.8770 N   0  0  0  0  0  0  0  0  0  0  0  0
  -30.1450  -15.0520   21.4050 H   0  0  0  0  0  0  0  0  0  0  0  0
  -25.7560  -13.9960   20.2420 C   0  0  0  0  0  0  0  0  0  0  0  0
  -24.6690  -13.2830   20.6740 C   0  0  0  0  0  0  0  0  0  0  0  0
  -25.0520  -11.9080   20.6220 C   0  0  0  0  0  0  0  0  0  0  0  0
  -26.7380  -13.0600   19.9600 N   0  0  0  0  0  0  0  0  0  0  0  0
  -26.3190  -11.7980   20.2430 N   0  0  0  0  0  0  0  0  0  0  0  0
  -24.2670  -10.6870   20.8530 C   0  0  0  0  0  0  0  0  0  0  0  0
  -24.6780   -9.7110   21.7890 C   0  0  0  0  0  3  0  0  0  0  0  0
  -23.8960   -8.5570   22.0060 C   0  0  0  0  0  3  0  0  0  0  0  0
  -22.6880   -8.3720   21.2910 C   0  0  0  0  0  0  0  0  0  0  0  0
  -22.3000   -9.3350   20.3420 C   0  0  0  0  0  3  0  0  0  0  0  0
  -23.0820  -10.4810   20.1220 C   0  0  0  0  0  3  0  0  0  0  0  0
  -21.8780   -7.2710   21.4190 O   0  0  0  0  0  0  0  0  0  0  0  0
  -21.7700   -6.5910   22.6070 C   0  0  0  0  0  0  0  0  0  0  0  0
  -21.3320   -7.2230   23.7910 C   0  0  0  0  0  3  0  0  0  0  0  0
  -21.1690   -6.4710   24.9730 C   0  0  0  0  0  3  0  0  0  0  0  0
  -21.4330   -5.0890   24.9700 C   0  0  0  0  0  0  0  0  0  0  0  0
  -21.8640   -4.4570   23.7900 C   0  0  0  0  0  3  0  0  0  0  0  0
  -22.0270   -5.2050   22.6110 C   0  0  0  0  0  0  0  0  0  0  0  0
  -22.4230   -4.5860   21.4720 F   0  0  0  0  0  0  0  0  0  0  0  0
  -21.2680   -4.3650   26.1020 F   0  0  0  0  0  0  0  0  0  0  0  0
  -23.3170  -13.8380   21.0210 C   0  0  0  0  0  0  0  0  0  0  0  0
  -22.6060  -13.1930   21.9380 N   0  0  0  0  0  0  0  0  0  0  0  0
  -22.9030  -14.8790   20.5130 O   0  0  0  0  0  0  0  0  0  0  0  0
  -22.9520  -12.3500   22.3730 H   0  0  0  0  0  0  0  0  0  0  0  0
  -21.7000  -13.5490   22.2110 H   0  0  0  0  0  0  0  0  0  0  0  0
  -25.9830  -15.3550   20.0500 N   0  0  0  0  0  0  0  0  0  0  0  0
  -25.2580  -16.0500   20.1880 H   0  0  0  0  0  0  0  0  0  0  0  0
  -26.8410  -15.7460   19.6800 H   0  0  0  0  0  0  0  0  0  0  0  0
  -29.9280  -20.8520   22.3930 C   0  0  0  0  0  2  0  0  0  0  0  0
  -28.8950  -21.7060   21.7530 N   0  0  0  0  0  4  0  0  0  0  0  0
  -27.9900  -21.2940   21.9160 H   0  0  0  0  0  0  0  0  0  0  0  0
  -29.0720  -21.6800   20.7620 H   0  0  0  0  0  0  0  0  0  0  0  0
  -28.9030  -23.1240   22.2030 C   0  0  0  0  0  2  0  0  0  0  0  0
  -28.5750  -24.1390   21.0830 C   0  0  0  0  0  2  0  0  0  0  0  0
  -28.8370  -25.5880   21.5420 C   0  0  0  0  0  2  0  0  0  0  0  0
  -28.7300  -26.5170   20.4650 O   0  0  0  0  0  0  0  0  0  0  0  0
  -24.8230  -31.7300   23.3600 C   0  0  0  0  0  0  0  0  0  0  0  0
  -27.5660  -27.2420   20.4520 C   0  0  0  0  0  0  0  0  0  0  0  0
  -23.6790  -30.3100   21.6860 C   0  0  0  0  0  3  0  0  0  0  0  0
  -25.1820  -28.7400   20.3480 C   0  0  0  0  0  0  0  0  0  0  0  0
  -26.2100  -30.6550   21.5890 C   0  0  0  0  0  2  0  0  0  0  0  0
  -26.3150  -29.2710   20.9830 C   0  0  0  0  0  0  0  0  0  0  0  0
  -27.5090  -28.5230   21.0420 C   0  0  0  0  0  3  0  0  0  0  0  0
  -26.4260  -26.7180   19.8120 C   0  0  0  0  0  3  0  0  0  0  0  0
  -25.2310  -27.4630   19.7630 C   0  0  0  0  0  3  0  0  0  0  0  0
  -23.9440  -29.6090   20.3270 C   0  0  0  0  0  2  0  0  0  0  0  0
  -24.9190  -30.9130   22.2720 N   0  0  0  0  0  0  0  0  0  0  0  0
  -23.7220  -32.0150   23.8540 O   0  0  0  0  0  0  0  0  0  0  0  0
  -22.9840  -29.3060   22.6360 C   0  0  0  0  0  0  0  0  0  0  0  0
  -21.6650  -29.1330   22.4580 N   0  0  0  0  0  0  0  0  0  0  0  0
  -23.6270  -28.6900   23.4890 O   0  0  0  0  0  0  0  0  0  0  0  0
  -21.2100  -29.6820   21.7430 H   0  0  0  0  0  0  0  0  0  0  0  0
  -18.2640  -27.9630   22.8110 C   0  0  0  0  0  0  0  0  0  0  0  0
  -20.8070  -28.2120   23.2050 C   0  0  0  0  0  3  0  0  0  0  0  0
  -20.9320  -26.7710   22.6580 C   0  0  0  0  0  2  0  0  0  0  0  0
  -19.8780  -26.4390   21.5990 C   0  0  0  0  0  2  0  0  0  0  0  0
  -18.4650  -26.6000   22.1730 C   0  0  0  0  0  2  0  0  0  0  0  0
  -19.3640  -28.7270   23.2810 C   0  0  0  0  0  0  0  0  0  0  0  0
  -19.1250  -30.0040   23.8350 C   0  0  0  0  0  3  0  0  0  0  0  0
  -17.8160  -30.5120   23.9290 C   0  0  0  0  0  3  0  0  0  0  0  0
  -16.7280  -29.7430   23.4790 C   0  0  0  0  0  3  0  0  0  0  0  0
  -16.9540  -28.4720   22.9220 C   0  0  0  0  0  3  0  0  0  0  0  0
  -26.0870  -32.3620   24.0180 C   0  0  0  0  0  3  0  0  0  0  0  0
  -25.7620  -33.7520   24.3600 N   0  0  0  0  0  0  0  0  0  0  0  0
  -26.1000  -34.8170   23.6200 C   0  0  0  0  0  0  0  0  0  0  0  0
  -26.7860  -34.7280   22.5980 O   0  0  0  0  0  0  0  0  0  0  0  0
  -25.1480  -33.8920   25.1480 H   0  0  0  0  0  0  0  0  0  0  0  0
  -24.3490  -36.5900   23.2640 C   0  0  0  0  0  1  0  0  0  0  0  0
  -25.5920  -36.1970   24.0800 C   0  0  0  0  0  3  0  0  0  0  0  0
  -27.7050  -37.1060   24.9330 C   0  0  0  0  0  1  0  0  0  0  0  0
  -26.6120  -37.2630   23.9780 N   0  0  0  0  0  0  0  0  0  0  0  0
  -26.1920  -38.1770   24.1230 H   0  0  0  0  0  0  0  0  0  0  0  0
  -26.5780  -31.5740   25.2930 C   0  0  1  0  0  0  0  0  0  0  0  0
  -25.4590  -31.3030   26.3280 C   0  0  0  0  0  1  0  0  0  0  0  0
  -27.1860  -30.2110   24.8870 C   0  0  0  0  0  1  0  0  0  0  0  0
  -27.7040  -32.3650   26.0010 C   0  0  0  0  0  1  0  0  0  0  0  0
  1  2  1  0
  2  5  2  0
  2 50  1  0
  3 11  1  0
  3  5  1  0
  4  6  1  0
  4  1  2  0
  5  9  1  0
  6  3  2  0
  7  1  1  0
  8  4  1  0
 10  6  1  0
 12 20  1  0
 13 18  1  0
 14 15  1  0
 14 13  1  0
 16 15  1  0
 16 25  1  0
 16 17  1  0
 18 12  1  0
 18 17  1  0
 19 12  2  0
 20 11  1  0
 20 21  1  0
 22 23  2  0
 23 42  1  0
 24 23  1  0
 24 27  1  0
 25 22  1  0
 25 26  1  0
 26 24  2  0
 27 28  1  0
 28 29  2  0
 30 33  1  0
 30 29  1  0
 31 30  2  0
 32 31  1  0
 32 27  2  0
 33 34  1  0
 34 39  2  0
 34 35  1  0
 35 36  2  0
 37 36  1  0
 37 41  1  0
 38 37  2  0
 39 38  1  0
 40 39  1  0
 42 43  1  0
 43 46  1  0
 43 45  1  0
 44 42  2  0
 47 48  1  0
 47 22  1  0
 49 47  1  0
 51 52  1  0
 51 54  1  0
 51 50  1  0
 53 51  1  0
 55 56  1  0
 55 54  1  0
 57 56  1  0
 58 69  2  0
 59 57  1  0
 59 64  1  0
 60 68  1  0
 60 70  1  0
 61 63  1  0
 62 68  1  0
 63 64  2  0
 63 62  1  0
 65 59  2  0
 66 65  1  0
 66 61  2  0
 67 61  1  0
 67 60  1  0
 68 58  1  0
 70 72  2  0
 71 70  1  0
 73 71  1  0
 74 83  2  0
 74 79  1  0
 75 71  1  0
 75 79  1  0
 76 75  1  0
 77 78  1  0
 77 76  1  0
 78 74  1  0
 79 80  2  0
 80 81  1  0
 82 81  2  0
 83 82  1  0
 84 58  1  0
 84 85  1  0
 84 94  1  0
 85 88  1  0
 86 90  1  0
 86 85  1  0
 87 86  2  0
 90 89  1  0
 92 90  1  0
 92 93  1  0
 92 91  1  0
 94 97  1  1
 94 95  1  0
 96 94  1  0
M  ISO  4  12 100  20 100  56 101  57 101
M  END
>  <TORSDO>  (97) 
F 22

>  <SCORE>  (97) 
-11.355

>  <name>  (97) 
96

>  <ligand_id>  (97) 
96

>  <original_smiles>  (97) 
[H]c1c([H])c([H])c2c(c1[H])C([H])([H])C([H])([H])C([H])([H])C2([H])N([H])C(=O)C1([H])N(C(=O)C([H])(N([H])C(=O)C([H])(N([H])C([H])([H])[H])C([H])([H])[H])C(C([H])([H])[H])(C([H])([H])[H])C([H])([H])[H])C([H])([H])c2c([H])c(OC([H])([H])C([H])([H])C([H])([H])[N+]([H])([H])C([H])([H])c3c(Cl)c(C([H])([H])N([H])C(=O)N4C([H])([H])C([H])([H])C([H])([H])C([H])(n5nc(-c6c([H])c([H])c(Oc7c([H])c([H])c(F)c([H])c7F)c([H])c6[H])c(C(=O)N([H])[H])c5N([H])[H])C4([H])[H])c(Cl)c(Cl)c3C([H])([H])[H])c([H])c([H])c2C1([H])[H]

>  <smiles>  (97) 
[H]c1c([H])c([H])c2c(c1[H])C([H])([H])C([H])([H])C([H])([H])C2([H])N([H])C(=O)C1([H])N(C(=O)C([H])(N([H])C(=O)C([H])(N([H])C([H])([H])[H])C([H])([H])[H])C(C([H])([H])[H])(C([H])([H])[H])C([H])([H])[H])C([H])([H])c2c([H])c(OC([H])([H])C([H])([H])C([H])([H])[N+]([H])([H])C([H])([H])c3c(Cl)c(C([H])([H])N([H])C(=O)N4C([H])([H])C([H])([H])C([H])([H])C([H])(n5nc(-c6c([H])c([H])c(Oc7c([H])c([H])c(F)c([H])c7F)c([H])c6[H])c(C(=O)N([H])[H])c5N([H])[H])C4([H])[H])c(Cl)c(Cl)c3C([H])([H])[H])c([H])c([H])c2C1([H])[H]

$$$$
97:0:0
     RDKit          3D

 95103  0  0  1  0  0  0  0  0999 V2000
  -28.6510  -18.1850   19.7010 C   0  0  0  0  0  3  0  0  0  0  0  0
  -29.5180  -17.8930   20.7780 C   0  0  0  0  0  0  0  0  0  0  0  0
  -28.6870  -20.5930   20.2420 C   0  0  0  0  0  0  0  0  0  0  0  0
  -29.9820  -18.9670   21.5690 C   0  0  0  0  0  0  0  0  0  0  0  0
  -28.2360  -19.5110   19.4340 C   0  0  0  0  0  0  0  0  0  0  0  0
  -29.5760  -20.2960   21.3060 C   0  0  0  0  0  0  0  0  0  0  0  0
  -30.8120  -18.7200   22.6110 F   0  0  0  0  0  0  0  0  0  0  0  0
  -27.1250  -19.7620   18.1320 Cl  0  0  0  0  0  0  0  0  0  0  0  0
  -30.1530  -21.5560   22.3420 Cl  0  0  0  0  0  0  0  0  0  0  0  0
  -29.9090  -16.4470   21.1240 C   0  0  0  0  0  2  0  0  0  0  0  0
  -31.1800  -14.5750   20.0670 C   0  0  0  0  0  0  0  0  0  0  0  0
  -30.7670  -12.4290   18.9560 C   0  0  0  0  0  2  0  0  0  0  0  0
  -29.8030  -12.6920   17.7810 C   0  0  0  0  0  2  0  0  0  0  0  0
  -28.3330  -12.6230   18.2450 C   0  0  0  0  0  2  0  0  0  0  0  0
  -28.0640  -13.4520   19.5320 C   0  0  0  0  0  3  0  0  0  0  0  0
  -29.1460  -13.1820   20.6040 C   0  0  0  0  0  2  0  0  0  0  0  0
  -30.4550  -13.4280   19.9870 N   0  0  0  0  0  0  0  0  0  0  0  0
  -32.3520  -14.6540   19.7040 O   0  0  0  0  0  0  0  0  0  0  0  0
  -30.4550  -15.7020   19.9890 N   0  0  0  0  0  0  0  0  0  0  0  0
  -30.9080  -16.3350   19.3480 H   0  0  0  0  0  0  0  0  0  0  0  0
  -25.7120  -14.1370   20.3130 C   0  0  0  0  0  0  0  0  0  0  0  0
  -24.6270  -13.4030   20.7060 C   0  0  0  0  0  0  0  0  0  0  0  0
  -25.0380  -12.0340   20.6530 C   0  0  0  0  0  0  0  0  0  0  0  0
  -26.7170  -13.2210   20.0490 N   0  0  0  0  0  0  0  0  0  0  0  0
  -26.3180  -11.9500   20.3150 N   0  0  0  0  0  0  0  0  0  0  0  0
  -24.2700  -10.7980   20.8540 C   0  0  0  0  0  0  0  0  0  0  0  0
  -24.6660   -9.8300   21.8030 C   0  0  0  0  0  3  0  0  0  0  0  0
  -23.9060   -8.6560   21.9910 C   0  0  0  0  0  3  0  0  0  0  0  0
  -22.7330   -8.4420   21.2300 C   0  0  0  0  0  0  0  0  0  0  0  0
  -22.3550   -9.3980   20.2690 C   0  0  0  0  0  3  0  0  0  0  0  0
  -23.1160  -10.5630   20.0800 C   0  0  0  0  0  3  0  0  0  0  0  0
  -21.9430   -7.3220   21.3280 O   0  0  0  0  0  0  0  0  0  0  0  0
  -21.8190   -6.6280   22.5060 C   0  0  0  0  0  0  0  0  0  0  0  0
  -21.3620   -7.2460   23.6910 C   0  0  0  0  0  3  0  0  0  0  0  0
  -21.1810   -6.4800   24.8600 C   0  0  0  0  0  3  0  0  0  0  0  0
  -21.4480   -5.0980   24.8460 C   0  0  0  0  0  0  0  0  0  0  0  0
  -21.9010   -4.4810   23.6670 C   0  0  0  0  0  3  0  0  0  0  0  0
  -22.0810   -5.2440   22.4990 C   0  0  0  0  0  0  0  0  0  0  0  0
  -22.4960   -4.6380   21.3600 F   0  0  0  0  0  0  0  0  0  0  0  0
  -21.2680   -4.3600   25.9670 F   0  0  0  0  0  0  0  0  0  0  0  0
  -23.2540  -13.9250   21.0160 C   0  0  0  0  0  0  0  0  0  0  0  0
  -22.5290  -13.2570   21.9060 N   0  0  0  0  0  0  0  0  0  0  0  0
  -22.8340  -14.9610   20.5010 O   0  0  0  0  0  0  0  0  0  0  0  0
  -22.8820  -12.4170   22.3410 H   0  0  0  0  0  0  0  0  0  0  0  0
  -21.6080  -13.5860   22.1550 H   0  0  0  0  0  0  0  0  0  0  0  0
  -25.9260  -15.5010   20.1360 N   0  0  0  0  0  0  0  0  0  0  0  0
  -25.1890  -16.1880   20.2500 H   0  0  0  0  0  0  0  0  0  0  0  0
  -26.7770  -15.8930   19.7570 H   0  0  0  0  0  0  0  0  0  0  0  0
  -28.1350  -22.0260   20.0760 C   0  0  0  0  0  2  0  0  0  0  0  0
  -29.1560  -23.0950   19.9060 N   0  0  0  0  0  4  0  0  0  0  0  0
  -29.5140  -23.0850   18.9610 H   0  0  0  0  0  0  0  0  0  0  0  0
  -29.9210  -22.8620   20.5230 H   0  0  0  0  0  0  0  0  0  0  0  0
  -28.7170  -24.4710   20.2900 C   0  0  0  0  0  2  0  0  0  0  0  0
  -28.7730  -25.5050   19.1420 C   0  0  0  0  0  2  0  0  0  0  0  0
  -28.5980  -26.8380   19.6500 O   0  0  0  0  0  0  0  0  0  0  0  0
  -24.6380  -31.6720   23.0530 C   0  0  0  0  0  0  0  0  0  0  0  0
  -27.3580  -27.4490   19.7130 C   0  0  0  0  0  0  0  0  0  0  0  0
  -23.4400  -30.3180   21.3660 C   0  0  0  0  0  3  0  0  0  0  0  0
  -24.9070  -28.8720   19.8540 C   0  0  0  0  0  0  0  0  0  0  0  0
  -25.9500  -30.7430   21.1460 C   0  0  0  0  0  2  0  0  0  0  0  0
  -26.0560  -29.4010   20.4480 C   0  0  0  0  0  0  0  0  0  0  0  0
  -27.2760  -28.6930   20.3820 C   0  0  0  0  0  3  0  0  0  0  0  0
  -26.1830  -26.9230   19.1250 C   0  0  0  0  0  3  0  0  0  0  0  0
  -24.9660  -27.6310   19.1920 C   0  0  0  0  0  3  0  0  0  0  0  0
  -23.6420  -29.6950   19.9560 C   0  0  0  0  0  2  0  0  0  0  0  0
  -24.6930  -30.9260   21.9130 N   0  0  0  0  0  0  0  0  0  0  0  0
  -23.5600  -31.8890   23.6260 O   0  0  0  0  0  0  0  0  0  0  0  0
  -22.8270  -29.2430   22.2940 C   0  0  0  0  0  0  0  0  0  0  0  0
  -21.5030  -29.0460   22.1910 N   0  0  0  0  0  0  0  0  0  0  0  0
  -23.5420  -28.5880   23.0560 O   0  0  0  0  0  0  0  0  0  0  0  0
  -20.9800  -29.6390   21.5590 H   0  0  0  0  0  0  0  0  0  0  0  0
  -18.1750  -27.7260   22.6840 C   0  0  0  0  0  0  0  0  0  0  0  0
  -20.7280  -28.0380   22.9120 C   0  0  0  0  0  3  0  0  0  0  0  0
  -20.8640  -26.6490   22.2450 C   0  0  0  0  0  2  0  0  0  0  0  0
  -19.7370  -26.3200   21.2630 C   0  0  0  0  0  2  0  0  0  0  0  0
  -18.3700  -26.4130   21.9430 C   0  0  0  0  0  2  0  0  0  0  0  0
  -19.2820  -28.4950   23.1270 C   0  0  0  0  0  0  0  0  0  0  0  0
  -19.0450  -29.7270   23.7780 C   0  0  0  0  0  3  0  0  0  0  0  0
  -17.7320  -30.1860   23.9990 C   0  0  0  0  0  3  0  0  0  0  0  0
  -16.6410  -29.4100   23.5730 C   0  0  0  0  0  3  0  0  0  0  0  0
  -16.8630  -28.1870   22.9160 C   0  0  0  0  0  3  0  0  0  0  0  0
  -25.9180  -32.3100   23.6770 C   0  0  0  0  0  3  0  0  0  0  0  0
  -25.5770  -33.6810   24.0850 N   0  0  0  0  0  0  0  0  0  0  0  0
  -25.8610  -34.7790   23.3700 C   0  0  0  0  0  0  0  0  0  0  0  0
  -26.5100  -34.7470   22.3220 O   0  0  0  0  0  0  0  0  0  0  0  0
  -24.9980  -33.7790   24.9050 H   0  0  0  0  0  0  0  0  0  0  0  0
  -24.0720  -36.5320   23.1390 C   0  0  0  0  0  1  0  0  0  0  0  0
  -25.3430  -36.1280   23.9050 C   0  0  0  0  0  3  0  0  0  0  0  0
  -27.4680  -37.0380   24.7300 C   0  0  0  0  0  1  0  0  0  0  0  0
  -26.3400  -37.2180   23.8200 N   0  0  0  0  0  0  0  0  0  0  0  0
  -25.9100  -38.1170   24.0210 H   0  0  0  0  0  0  0  0  0  0  0  0
  -26.4880  -31.4910   24.8990 C   0  0  1  0  0  0  0  0  0  0  0  0
  -25.4360  -31.1720   25.9860 C   0  0  0  0  0  1  0  0  0  0  0  0
  -27.0930  -30.1510   24.4230 C   0  0  0  0  0  1  0  0  0  0  0  0
  -27.6380  -32.2780   25.5700 C   0  0  0  0  0  1  0  0  0  0  0  0
  1  2  1  0
  2 10  1  0
  2  4  2  0
  3  6  2  0
  4  7  1  0
  5  1  2  0
  5  3  1  0
  6  4  1  0
  6  9  1  0
  8  5  1  0
 12 17  1  0
 13 14  1  0
 13 12  1  0
 15 14  1  0
 15 24  1  0
 15 16  1  0
 17 11  1  0
 17 16  1  0
 18 11  2  0
 19 11  1  0
 19 10  1  0
 20 19  1  0
 21 22  2  0
 22 41  1  0
 23 22  1  0
 23 26  1  0
 24 21  1  0
 24 25  1  0
 25 23  2  0
 26 27  1  0
 27 28  2  0
 29 32  1  0
 29 28  1  0
 30 29  2  0
 31 30  1  0
 31 26  2  0
 32 33  1  0
 33 34  1  0
 34 35  2  0
 36 35  1  0
 36 40  1  0
 37 36  2  0
 38 33  2  0
 38 37  1  0
 39 38  1  0
 41 42  1  0
 42 45  1  0
 42 44  1  0
 43 41  2  0
 46 47  1  0
 46 21  1  0
 48 46  1  0
 49  3  1  0
 50 49  1  0
 50 53  1  0
 50 52  1  0
 51 50  1  0
 54 55  1  0
 54 53  1  0
 55 57  1  0
 56 67  2  0
 57 62  1  0
 58 66  1  0
 58 68  1  0
 59 65  1  0
 59 61  1  0
 60 66  1  0
 61 60  1  0
 62 61  2  0
 63 64  1  0
 63 57  2  0
 64 59  2  0
 65 58  1  0
 66 56  1  0
 68 70  2  0
 69 68  1  0
 71 69  1  0
 72 81  2  0
 72 77  1  0
 73 69  1  0
 73 77  1  0
 74 73  1  0
 75 76  1  0
 75 74  1  0
 76 72  1  0
 77 78  2  0
 78 79  1  0
 80 79  2  0
 81 80  1  0
 82 56  1  0
 82 83  1  0
 82 92  1  0
 83 86  1  0
 84 88  1  0
 84 83  1  0
 85 84  2  0
 88 87  1  0
 90 88  1  0
 90 91  1  0
 90 89  1  0
 92 95  1  1
 92 93  1  0
 94 92  1  0
M  ISO  4  11 100  19 100  54 101  55 101
M  END
>  <TORSDO>  (98) 
F 21

>  <SCORE>  (98) 
-12.869

>  <name>  (98) 
97

>  <ligand_id>  (98) 
97

>  <original_smiles>  (98) 
[H]c1c([H])c([H])c2c(c1[H])C([H])([H])C([H])([H])C([H])([H])C2([H])N([H])C(=O)C1([H])N(C(=O)C([H])(N([H])C(=O)C([H])(N([H])C([H])([H])[H])C([H])([H])[H])C(C([H])([H])[H])(C([H])([H])[H])C([H])([H])[H])C([H])([H])c2c([H])c(OC([H])([H])C([H])([H])[N+]([H])([H])C([H])([H])c3c(Cl)c([H])c(C([H])([H])N([H])C(=O)N4C([H])([H])C([H])([H])C([H])([H])C([H])(n5nc(-c6c([H])c([H])c(Oc7c([H])c([H])c(F)c([H])c7F)c([H])c6[H])c(C(=O)N([H])[H])c5N([H])[H])C4([H])[H])c(F)c3Cl)c([H])c([H])c2C1([H])[H]

>  <smiles>  (98) 
[H]c1c([H])c([H])c2c(c1[H])C([H])([H])C([H])([H])C([H])([H])C2([H])N([H])C(=O)C1([H])N(C(=O)C([H])(N([H])C(=O)C([H])(N([H])C([H])([H])[H])C([H])([H])[H])C(C([H])([H])[H])(C([H])([H])[H])C([H])([H])[H])C([H])([H])c2c([H])c(OC([H])([H])C([H])([H])[N+]([H])([H])C([H])([H])c3c(Cl)c([H])c(C([H])([H])N([H])C(=O)N4C([H])([H])C([H])([H])C([H])([H])C([H])(n5nc(-c6c([H])c([H])c(Oc7c([H])c([H])c(F)c([H])c7F)c([H])c6[H])c(C(=O)N([H])[H])c5N([H])[H])C4([H])[H])c(F)c3Cl)c([H])c([H])c2C1([H])[H]

$$$$
