0:0:0
     RDKit          3D

 93101  0  0  1  0  0  0  0  0999 V2000
  -28.7990  -22.6560   21.4460 C   0  0  0  0  0  3  0  0  0  0  0  0
  -27.7140  -22.2450   19.3130 C   0  0  0  0  0  3  0  0  0  0  0  0
  -28.1720  -21.7650   20.5550 C   0  0  0  0  0  0  0  0  0  0  0  0
  -29.0170  -24.0040   21.0870 C   0  0  0  0  0  0  0  0  0  0  0  0
  -28.5770  -24.4890   19.8250 C   0  0  0  0  0  0  0  0  0  0  0  0
  -27.9170  -23.5900   18.9420 C   0  0  0  0  0  0  0  0  0  0  0  0
  -29.7700  -24.8870   22.0680 C   0  0  0  0  0  1  0  0  0  0  0  0
  -27.3780  -24.0710   17.3710 Cl  0  0  0  0  0  0  0  0  0  0  0  0
  -28.0730  -20.2880   20.9060 C   0  0  0  0  0  2  0  0  0  0  0  0
  -29.4050  -19.5790   20.6010 C   0  0  0  0  0  2  0  0  0  0  0  0
  -29.5320  -18.1340   21.1190 C   0  0  0  0  0  2  0  0  0  0  0  0
  -30.9800  -17.6370   20.9530 C   0  0  0  0  0  2  0  0  0  0  0  0
  -31.3170  -16.3300   21.6890 C   0  0  0  0  0  2  0  0  0  0  0  0
  -31.0150  -14.3740   20.1650 C   0  0  0  0  0  0  0  0  0  0  0  0
  -30.6000  -12.2520   18.9710 C   0  0  0  0  0  2  0  0  0  0  0  0
  -29.6230  -12.4320   17.7950 C   0  0  0  0  0  2  0  0  0  0  0  0
  -28.1610  -12.3400   18.2720 C   0  0  0  0  0  2  0  0  0  0  0  0
  -27.8800  -13.2330   19.5090 C   0  0  0  0  0  3  0  0  0  0  0  0
  -28.9470  -12.9980   20.5970 C   0  0  0  0  0  2  0  0  0  0  0  0
  -30.2750  -13.2480   20.0020 N   0  0  0  0  0  0  0  0  0  0  0  0
  -32.0230  -14.6290   19.4990 O   0  0  0  0  0  0  0  0  0  0  0  0
  -30.6020  -15.1730   21.1590 N   0  0  0  0  0  0  0  0  0  0  0  0
  -29.7700  -14.8800   21.6510 H   0  0  0  0  0  0  0  0  0  0  0  0
  -25.5320  -13.9400   20.2930 C   0  0  0  0  0  0  0  0  0  0  0  0
  -24.4440  -13.2110   20.6960 C   0  0  0  0  0  0  0  0  0  0  0  0
  -24.8470  -11.8410   20.6430 C   0  0  0  0  0  0  0  0  0  0  0  0
  -26.5300  -13.0170   20.0260 N   0  0  0  0  0  0  0  0  0  0  0  0
  -26.1220  -11.7490   20.2890 N   0  0  0  0  0  0  0  0  0  0  0  0
  -24.0770  -10.6080   20.8510 C   0  0  0  0  0  0  0  0  0  0  0  0
  -24.4810   -9.6350   21.7910 C   0  0  0  0  0  3  0  0  0  0  0  0
  -23.7140   -8.4670   21.9860 C   0  0  0  0  0  3  0  0  0  0  0  0
  -22.5290   -8.2620   21.2400 C   0  0  0  0  0  0  0  0  0  0  0  0
  -22.1440   -9.2240   20.2900 C   0  0  0  0  0  3  0  0  0  0  0  0
  -22.9100  -10.3850   20.0930 C   0  0  0  0  0  3  0  0  0  0  0  0
  -21.7350   -7.1450   21.3450 O   0  0  0  0  0  0  0  0  0  0  0  0
  -21.6460   -6.4330   22.5130 C   0  0  0  0  0  0  0  0  0  0  0  0
  -21.2300   -7.0320   23.7220 C   0  0  0  0  0  3  0  0  0  0  0  0
  -21.0860   -6.2470   24.8830 C   0  0  0  0  0  3  0  0  0  0  0  0
  -21.3450   -4.8640   24.8360 C   0  0  0  0  0  0  0  0  0  0  0  0
  -21.7530   -4.2650   23.6310 C   0  0  0  0  0  3  0  0  0  0  0  0
  -21.8990   -5.0470   22.4720 C   0  0  0  0  0  0  0  0  0  0  0  0
  -22.2720   -4.4600   21.3090 F   0  0  0  0  0  0  0  0  0  0  0  0
  -21.1990   -4.1080   25.9500 F   0  0  0  0  0  0  0  0  0  0  0  0
  -23.0790  -13.7440   21.0190 C   0  0  0  0  0  0  0  0  0  0  0  0
  -22.3550  -13.0760   21.9120 N   0  0  0  0  0  0  0  0  0  0  0  0
  -22.6640  -14.7870   20.5160 O   0  0  0  0  0  0  0  0  0  0  0  0
  -22.7030  -12.2330   22.3420 H   0  0  0  0  0  0  0  0  0  0  0  0
  -21.4400  -13.4170   22.1690 H   0  0  0  0  0  0  0  0  0  0  0  0
  -25.7490  -15.3030   20.1160 N   0  0  0  0  0  0  0  0  0  0  0  0
  -25.0160  -15.9920   20.2530 H   0  0  0  0  0  0  0  0  0  0  0  0
  -26.6120  -15.7050   19.7720 H   0  0  0  0  0  0  0  0  0  0  0  0
  -28.9220  -25.9170   19.3750 C   0  0  0  0  0  2  0  0  0  0  0  0
  -28.6230  -26.9440   20.3280 O   0  0  0  0  0  0  0  0  0  0  0  0
  -24.5520  -31.9610   23.2790 C   0  0  0  0  0  0  0  0  0  0  0  0
  -27.4020  -27.5830   20.2940 C   0  0  0  0  0  0  0  0  0  0  0  0
  -23.4350  -30.5390   21.5880 C   0  0  0  0  0  3  0  0  0  0  0  0
  -24.9710  -29.0280   20.2260 C   0  0  0  0  0  0  0  0  0  0  0  0
  -25.9590  -30.9460   21.4920 C   0  0  0  0  0  2  0  0  0  0  0  0
  -26.0920  -29.5770   20.8590 C   0  0  0  0  0  0  0  0  0  0  0  0
  -27.3060  -28.8590   20.8960 C   0  0  0  0  0  3  0  0  0  0  0  0
  -26.2550  -27.0350   19.6780 C   0  0  0  0  0  3  0  0  0  0  0  0
  -25.0450  -27.7530   19.6390 C   0  0  0  0  0  3  0  0  0  0  0  0
  -23.7110  -29.8640   20.2180 C   0  0  0  0  0  2  0  0  0  0  0  0
  -24.6630  -31.1650   22.1780 N   0  0  0  0  0  0  0  0  0  0  0  0
  -23.4460  -32.2160   23.7770 O   0  0  0  0  0  0  0  0  0  0  0  0
  -22.7650  -29.5060   22.5230 C   0  0  0  0  0  0  0  0  0  0  0  0
  -21.4510  -29.3000   22.3410 N   0  0  0  0  0  0  0  0  0  0  0  0
  -23.4260  -28.8940   23.3650 O   0  0  0  0  0  0  0  0  0  0  0  0
  -20.9790  -29.8540   21.6400 H   0  0  0  0  0  0  0  0  0  0  0  0
  -18.0780  -28.0540   22.7000 C   0  0  0  0  0  0  0  0  0  0  0  0
  -20.6180  -28.3490   23.0770 C   0  0  0  0  0  3  0  0  0  0  0  0
  -20.7630  -26.9190   22.5090 C   0  0  0  0  0  2  0  0  0  0  0  0
  -19.7100  -26.5820   21.4470 C   0  0  0  0  0  2  0  0  0  0  0  0
  -18.3000  -26.7080   22.0290 C   0  0  0  0  0  2  0  0  0  0  0  0
  -19.1670  -28.8320   23.1750 C   0  0  0  0  0  0  0  0  0  0  0  0
  -18.9060  -30.0920   23.7560 C   0  0  0  0  0  3  0  0  0  0  0  0
  -17.5890  -30.5740   23.8700 C   0  0  0  0  0  3  0  0  0  0  0  0
  -16.5150  -29.7920   23.4130 C   0  0  0  0  0  3  0  0  0  0  0  0
  -16.7590  -28.5350   22.8330 C   0  0  0  0  0  3  0  0  0  0  0  0
  -25.8030  -32.6120   23.9480 C   0  0  0  0  0  3  0  0  0  0  0  0
  -25.4720  -34.0140   24.2340 N   0  0  0  0  0  0  0  0  0  0  0  0
  -25.8330  -35.0530   23.4690 C   0  0  0  0  0  0  0  0  0  0  0  0
  -26.5530  -34.9340   22.4740 O   0  0  0  0  0  0  0  0  0  0  0  0
  -24.8400  -34.1810   25.0040 H   0  0  0  0  0  0  0  0  0  0  0  0
  -24.1060  -36.8190   22.9940 C   0  0  0  0  0  1  0  0  0  0  0  0
  -25.3110  -36.4440   23.8730 C   0  0  0  0  0  3  0  0  0  0  0  0
  -27.3970  -37.3610   24.7850 C   0  0  0  0  0  1  0  0  0  0  0  0
  -26.3360  -37.5060   23.7920 N   0  0  0  0  0  0  0  0  0  0  0  0
  -25.9150  -38.4230   23.9130 H   0  0  0  0  0  0  0  0  0  0  0  0
  -26.2660  -31.8700   25.2620 C   0  0  1  0  0  0  0  0  0  0  0  0
  -25.1220  -31.6250   26.2730 C   0  0  0  0  0  1  0  0  0  0  0  0
  -26.8960  -30.4990   24.9230 C   0  0  0  0  0  1  0  0  0  0  0  0
  -27.3610  -32.6990   25.9740 C   0  0  0  0  0  1  0  0  0  0  0  0
  2  3  1  0
  3  9  1  0
  3  1  2  0
  4  1  1  0
  4  7  1  0
  5  4  2  0
  6  2  2  0
  6  5  1  0
  8  6  1  0
 10  9  1  0
 10 11  1  0
 12 11  1  0
 12 13  1  0
 14 22  1  0
 15 20  1  0
 16 17  1  0
 16 15  1  0
 18 17  1  0
 18 27  1  0
 18 19  1  0
 20 14  1  0
 20 19  1  0
 21 14  2  0
 22 23  1  0
 22 13  1  0
 24 25  2  0
 25 44  1  0
 26 25  1  0
 26 29  1  0
 27 28  1  0
 27 24  1  0
 28 26  2  0
 29 30  1  0
 30 31  2  0
 32 35  1  0
 32 31  1  0
 33 32  2  0
 34 33  1  0
 34 29  2  0
 35 36  1  0
 36 37  1  0
 37 38  2  0
 39 38  1  0
 39 43  1  0
 40 39  2  0
 41 36  2  0
 41 40  1  0
 42 41  1  0
 44 45  1  0
 45 48  1  0
 45 47  1  0
 46 44  2  0
 49 50  1  0
 49 24  1  0
 51 49  1  0
 52  5  1  0
 52 53  1  0
 54 65  2  0
 55 53  1  0
 55 60  1  0
 56 64  1  0
 56 66  1  0
 57 59  1  0
 58 64  1  0
 59 60  2  0
 59 58  1  0
 61 55  2  0
 62 61  1  0
 62 57  2  0
 63 57  1  0
 63 56  1  0
 64 54  1  0
 66 68  2  0
 67 66  1  0
 69 67  1  0
 70 79  2  0
 70 75  1  0
 71 67  1  0
 71 75  1  0
 72 71  1  0
 73 74  1  0
 73 72  1  0
 74 70  1  0
 75 76  2  0
 76 77  1  0
 78 77  2  0
 79 78  1  0
 80 54  1  0
 80 81  1  0
 80 90  1  0
 81 84  1  0
 82 86  1  0
 82 81  1  0
 83 82  2  0
 86 85  1  0
 88 86  1  0
 88 89  1  0
 88 87  1  0
 90 93  1  1
 90 91  1  0
 92 90  1  0
M  ISO  4  14 100  22 100  52 101  53 101
M  END
>  <TORSDO>  (1) 
F 22

>  <SCORE>  (1) 
-12.699

>  <name>  (1) 
0

>  <ligand_id>  (1) 
0

>  <original_smiles>  (1) 
[H]c1c([H])c([H])c2c(c1[H])C([H])([H])C([H])([H])C([H])([H])C2([H])N([H])C(=O)C1([H])N(C(=O)C([H])(N([H])C(=O)C([H])(N([H])C([H])([H])[H])C([H])([H])[H])C(C([H])([H])[H])(C([H])([H])[H])C([H])([H])[H])C([H])([H])c2c([H])c(OC([H])([H])c3c(Cl)c([H])c(C([H])([H])C([H])([H])C([H])([H])C([H])([H])C([H])([H])N([H])C(=O)N4C([H])([H])C([H])([H])C([H])([H])C([H])(n5nc(-c6c([H])c([H])c(Oc7c([H])c([H])c(F)c([H])c7F)c([H])c6[H])c(C(=O)N([H])[H])c5N([H])[H])C4([H])[H])c([H])c3C([H])([H])[H])c([H])c([H])c2C1([H])[H]

>  <smiles>  (1) 
[H]c1c([H])c([H])c2c(c1[H])C([H])([H])C([H])([H])C([H])([H])C2([H])N([H])C(=O)C1([H])N(C(=O)C([H])(N([H])C(=O)C([H])(N([H])C([H])([H])[H])C([H])([H])[H])C(C([H])([H])[H])(C([H])([H])[H])C([H])([H])[H])C([H])([H])c2c([H])c(OC([H])([H])c3c(Cl)c([H])c(C([H])([H])C([H])([H])C([H])([H])C([H])([H])C([H])([H])N([H])C(=O)N4C([H])([H])C([H])([H])C([H])([H])C([H])(n5nc(-c6c([H])c([H])c(Oc7c([H])c([H])c(F)c([H])c7F)c([H])c6[H])c(C(=O)N([H])[H])c5N([H])[H])C4([H])[H])c([H])c3C([H])([H])[H])c([H])c([H])c2C1([H])[H]

$$$$
1:0:0
     RDKit          3D

 95103  0  0  1  0  0  0  0  0999 V2000
  -29.6020  -23.0170   21.7270 C   0  0  0  0  0  3  0  0  0  0  0  0
  -29.0050  -20.7900   20.1440 C   0  0  0  0  0  3  0  0  0  0  0  0
  -28.9950  -23.2250   20.4660 C   0  0  0  0  0  0  0  0  0  0  0  0
  -29.9060  -21.7220   22.1970 C   0  0  0  0  0  0  0  0  0  0  0  0
  -28.6920  -22.0840   19.6760 C   0  0  0  0  0  0  0  0  0  0  0  0
  -29.6090  -20.5870   21.4060 C   0  0  0  0  0  0  0  0  0  0  0  0
  -26.4560  -22.2090   18.5100 C   0  0  0  0  0  1  0  0  0  0  0  0
  -27.9790  -22.1920   18.3350 C   0  0  0  0  0  2  0  0  0  0  0  0
  -32.0660  -21.8770   23.5270 C   0  0  0  0  0  1  0  0  0  0  0  0
  -30.5590  -21.5860   23.5660 C   0  0  0  0  0  2  0  0  0  0  0  0
  -28.6770  -24.6390   19.9560 C   0  0  0  0  0  2  0  0  0  0  0  0
  -28.9910  -25.8180   20.9090 C   0  0  0  0  0  2  0  0  0  0  0  0
  -28.8850  -27.0960   20.2810 O   0  0  0  0  0  0  0  0  0  0  0  0
  -24.5490  -31.8670   23.3210 C   0  0  0  0  0  0  0  0  0  0  0  0
  -27.6520  -27.6990   20.3070 C   0  0  0  0  0  0  0  0  0  0  0  0
  -23.5360  -30.4360   21.5770 C   0  0  0  0  0  3  0  0  0  0  0  0
  -25.1640  -29.0270   20.2140 C   0  0  0  0  0  0  0  0  0  0  0  0
  -26.0360  -30.9610   21.5420 C   0  0  0  0  0  2  0  0  0  0  0  0
  -26.2470  -29.6150   20.8820 C   0  0  0  0  0  0  0  0  0  0  0  0
  -27.4950  -28.9550   20.9300 C   0  0  0  0  0  3  0  0  0  0  0  0
  -26.5580  -27.1230   19.6320 C   0  0  0  0  0  3  0  0  0  0  0  0
  -25.3130  -27.7770   19.5910 C   0  0  0  0  0  3  0  0  0  0  0  0
  -23.8670  -29.8040   20.1990 C   0  0  0  0  0  2  0  0  0  0  0  0
  -24.7200  -31.1020   22.2070 N   0  0  0  0  0  0  0  0  0  0  0  0
  -23.4240  -32.0570   23.8020 O   0  0  0  0  0  0  0  0  0  0  0  0
  -22.8970  -29.3510   22.4720 C   0  0  0  0  0  0  0  0  0  0  0  0
  -21.5940  -29.1000   22.2670 N   0  0  0  0  0  0  0  0  0  0  0  0
  -23.5710  -28.7390   23.3040 O   0  0  0  0  0  0  0  0  0  0  0  0
  -21.1120  -29.6510   21.5720 H   0  0  0  0  0  0  0  0  0  0  0  0
  -18.2600  -27.7420   22.5750 C   0  0  0  0  0  0  0  0  0  0  0  0
  -20.7920  -28.0940   22.9620 C   0  0  0  0  0  3  0  0  0  0  0  0
  -20.9800  -26.6960   22.3290 C   0  0  0  0  0  2  0  0  0  0  0  0
  -19.9330  -26.3730   21.2600 C   0  0  0  0  0  2  0  0  0  0  0  0
  -18.5210  -26.4310   21.8530 C   0  0  0  0  0  2  0  0  0  0  0  0
  -19.3270  -28.5290   23.0820 C   0  0  0  0  0  0  0  0  0  0  0  0
  -19.0330  -29.7570   23.7150 C   0  0  0  0  0  3  0  0  0  0  0  0
  -17.7030  -30.1960   23.8490 C   0  0  0  0  0  3  0  0  0  0  0  0
  -16.6480  -29.4040   23.3620 C   0  0  0  0  0  3  0  0  0  0  0  0
  -16.9280  -28.1790   22.7300 C   0  0  0  0  0  3  0  0  0  0  0  0
  -25.7560  -32.5580   24.0310 C   0  0  0  0  0  3  0  0  0  0  0  0
  -25.3710  -33.9490   24.3040 N   0  0  0  0  0  0  0  0  0  0  0  0
  -25.7160  -34.9960   23.5440 C   0  0  0  0  0  0  0  0  0  0  0  0
  -26.4660  -34.8990   22.5680 O   0  0  0  0  0  0  0  0  0  0  0  0
  -24.7110  -34.0940   25.0540 H   0  0  0  0  0  0  0  0  0  0  0  0
  -23.9460  -36.7030   23.0210 C   0  0  0  0  0  1  0  0  0  0  0  0
  -25.1410  -36.3720   23.9290 C   0  0  0  0  0  3  0  0  0  0  0  0
  -27.1720  -37.3660   24.8830 C   0  0  0  0  0  1  0  0  0  0  0  0
  -26.1350  -37.4660   23.8600 N   0  0  0  0  0  0  0  0  0  0  0  0
  -25.6820  -38.3720   23.9560 H   0  0  0  0  0  0  0  0  0  0  0  0
  -26.1950  -31.8280   25.3590 C   0  0  1  0  0  0  0  0  0  0  0  0
  -25.0220  -31.5400   26.3250 C   0  0  0  0  0  1  0  0  0  0  0  0
  -26.8880  -30.4840   25.0420 C   0  0  0  0  0  1  0  0  0  0  0  0
  -27.2350  -32.6910   26.1130 C   0  0  0  0  0  1  0  0  0  0  0  0
  -29.8750  -19.3390   21.9350 O   0  0  0  0  0  0  0  0  0  0  0  0
  -29.8440  -18.1670   21.1150 C   0  0  0  0  0  2  0  0  0  0  0  0
  -31.2420  -17.8820   20.5280 C   0  0  0  0  0  2  0  0  0  0  0  0
  -31.8970  -16.5720   21.0260 C   0  0  0  0  0  2  0  0  0  0  0  0
  -31.4910  -14.4240   19.8100 C   0  0  0  0  0  0  0  0  0  0  0  0
  -30.9850  -12.2180   18.8200 C   0  0  0  0  0  2  0  0  0  0  0  0
  -29.9790  -12.3400   17.6610 C   0  0  0  0  0  2  0  0  0  0  0  0
  -28.5340  -12.3000   18.1900 C   0  0  0  0  0  2  0  0  0  0  0  0
  -28.3050  -13.2840   19.3690 C   0  0  0  0  0  3  0  0  0  0  0  0
  -29.4110  -13.1340   20.4370 C   0  0  0  0  0  2  0  0  0  0  0  0
  -30.7200  -13.3050   19.7780 N   0  0  0  0  0  0  0  0  0  0  0  0
  -32.4830  -14.5760   19.0910 O   0  0  0  0  0  0  0  0  0  0  0  0
  -31.1310  -15.3590   20.7050 N   0  0  0  0  0  0  0  0  0  0  0  0
  -30.3170  -15.1580   21.2660 H   0  0  0  0  0  0  0  0  0  0  0  0
  -26.0470  -14.0880   20.3110 C   0  0  0  0  0  0  0  0  0  0  0  0
  -24.9370  -13.4050   20.7320 C   0  0  0  0  0  0  0  0  0  0  0  0
  -25.2500  -12.0190   20.5940 C   0  0  0  0  0  0  0  0  0  0  0  0
  -26.9720  -13.1220   19.9460 N   0  0  0  0  0  0  0  0  0  0  0  0
  -26.4980  -11.8690   20.1710 N   0  0  0  0  0  0  0  0  0  0  0  0
  -24.4140  -10.8270   20.7830 C   0  0  0  0  0  0  0  0  0  0  0  0
  -24.7890   -9.7940   21.6710 C   0  0  0  0  0  3  0  0  0  0  0  0
  -23.9590   -8.6660   21.8490 C   0  0  0  0  0  3  0  0  0  0  0  0
  -22.7380   -8.5640   21.1400 C   0  0  0  0  0  0  0  0  0  0  0  0
  -22.3810   -9.5830   20.2390 C   0  0  0  0  0  3  0  0  0  0  0  0
  -23.2110  -10.7030   20.0590 C   0  0  0  0  0  3  0  0  0  0  0  0
  -21.8810   -7.4940   21.2300 O   0  0  0  0  0  0  0  0  0  0  0  0
  -21.7670   -6.7570   22.3810 C   0  0  0  0  0  0  0  0  0  0  0  0
  -21.3990   -7.3480   23.6110 C   0  0  0  0  0  3  0  0  0  0  0  0
  -21.2260   -6.5450   24.7540 C   0  0  0  0  0  3  0  0  0  0  0  0
  -21.4120   -5.1510   24.6710 C   0  0  0  0  0  0  0  0  0  0  0  0
  -21.7720   -4.5600   23.4480 C   0  0  0  0  0  3  0  0  0  0  0  0
  -21.9470   -5.3620   22.3060 C   0  0  0  0  0  0  0  0  0  0  0  0
  -22.2750   -4.7850   21.1250 F   0  0  0  0  0  0  0  0  0  0  0  0
  -21.2380   -4.3770   25.7680 F   0  0  0  0  0  0  0  0  0  0  0  0
  -23.6250  -14.0040   21.1530 C   0  0  0  0  0  0  0  0  0  0  0  0
  -22.9120  -13.3420   22.0570 N   0  0  0  0  0  0  0  0  0  0  0  0
  -23.2480  -15.0900   20.7140 O   0  0  0  0  0  0  0  0  0  0  0  0
  -23.2300  -12.4610   22.4320 H   0  0  0  0  0  0  0  0  0  0  0  0
  -22.0320  -13.7240   22.3790 H   0  0  0  0  0  0  0  0  0  0  0  0
  -26.3400  -15.4420   20.1890 N   0  0  0  0  0  0  0  0  0  0  0  0
  -25.6600  -16.1650   20.3990 H   0  0  0  0  0  0  0  0  0  0  0  0
  -27.2060  -15.8110   19.8150 H   0  0  0  0  0  0  0  0  0  0  0  0
  1  4  1  0
  2  6  1  0
  3  1  2  0
  4 10  1  0
  5  2  2  0
  5  3  1  0
  6 54  1  0
  6  4  2  0
  8  7  1  0
  8  5  1  0
  9 10  1  0
 11  3  1  0
 11 12  1  0
 13 15  1  0
 13 12  1  0
 14 25  2  0
 15 20  1  0
 16 24  1  0
 16 26  1  0
 17 19  1  0
 18 24  1  0
 19 20  2  0
 19 18  1  0
 21 15  2  0
 22 21  1  0
 22 17  2  0
 23 17  1  0
 23 16  1  0
 24 14  1  0
 26 28  2  0
 27 26  1  0
 29 27  1  0
 30 39  2  0
 30 35  1  0
 31 27  1  0
 31 35  1  0
 32 31  1  0
 33 34  1  0
 33 32  1  0
 34 30  1  0
 35 36  2  0
 36 37  1  0
 38 37  2  0
 39 38  1  0
 40 14  1  0
 40 41  1  0
 40 50  1  0
 41 44  1  0
 42 46  1  0
 42 41  1  0
 43 42  2  0
 46 45  1  0
 48 46  1  0
 48 49  1  0
 48 47  1  0
 50 53  1  1
 50 51  1  0
 52 50  1  0
 55 54  1  0
 56 57  1  0
 56 55  1  0
 58 66  1  0
 59 64  1  0
 60 61  1  0
 60 59  1  0
 62 61  1  0
 62 71  1  0
 62 63  1  0
 64 58  1  0
 64 63  1  0
 65 58  2  0
 66 57  1  0
 66 67  1  0
 68 69  2  0
 69 88  1  0
 70 69  1  0
 70 73  1  0
 71 72  1  0
 71 68  1  0
 72 70  2  0
 73 74  1  0
 74 75  2  0
 76 79  1  0
 76 75  1  0
 77 76  2  0
 78 77  1  0
 78 73  2  0
 79 80  1  0
 80 81  1  0
 81 82  2  0
 83 82  1  0
 83 87  1  0
 84 83  2  0
 85 80  2  0
 85 84  1  0
 86 85  1  0
 88 89  1  0
 89 92  1  0
 89 91  1  0
 90 88  2  0
 93 68  1  0
 93 94  1  0
 95 93  1  0
M  ISO  4  12 101  13 101  58 100  66 100
M  END
>  <TORSDO>  (2) 
F 24

>  <SCORE>  (2) 
-11.055

>  <name>  (2) 
1

>  <ligand_id>  (2) 
1

>  <original_smiles>  (2) 
[H]c1c([H])c([H])c2c(c1[H])C([H])([H])C([H])([H])C([H])([H])C2([H])N([H])C(=O)C1([H])N(C(=O)C([H])(N([H])C(=O)C([H])(N([H])C([H])([H])[H])C([H])([H])[H])C(C([H])([H])[H])(C([H])([H])[H])C([H])([H])[H])C([H])([H])c2c([H])c(OC([H])([H])C([H])([H])c3c([H])c(C([H])([H])C([H])([H])[H])c(OC([H])([H])C([H])([H])C([H])([H])N([H])C(=O)N4C([H])([H])C([H])([H])C([H])([H])C([H])(n5nc(-c6c([H])c([H])c(Oc7c([H])c([H])c(F)c([H])c7F)c([H])c6[H])c(C(=O)N([H])[H])c5N([H])[H])C4([H])[H])c([H])c3C([H])([H])C([H])([H])[H])c([H])c([H])c2C1([H])[H]

>  <smiles>  (2) 
[H]c1c([H])c([H])c2c(c1[H])C([H])([H])C([H])([H])C([H])([H])C2([H])N([H])C(=O)C1([H])N(C(=O)C([H])(N([H])C(=O)C([H])(N([H])C([H])([H])[H])C([H])([H])[H])C(C([H])([H])[H])(C([H])([H])[H])C([H])([H])[H])C([H])([H])c2c([H])c(OC([H])([H])C([H])([H])c3c([H])c(C([H])([H])C([H])([H])[H])c(OC([H])([H])C([H])([H])C([H])([H])N([H])C(=O)N4C([H])([H])C([H])([H])C([H])([H])C([H])(n5nc(-c6c([H])c([H])c(Oc7c([H])c([H])c(F)c([H])c7F)c([H])c6[H])c(C(=O)N([H])[H])c5N([H])[H])C4([H])[H])c([H])c3C([H])([H])C([H])([H])[H])c([H])c([H])c2C1([H])[H]

$$$$
2:0:0
     RDKit          3D

 96104  0  0  1  0  0  0  0  0999 V2000
  -26.6300  -23.8210   23.0190 C   0  0  0  0  0  3  0  0  0  0  0  0
  -27.2250  -23.0420   22.0130 C   0  0  0  0  0  3  0  0  0  0  0  0
  -27.4100  -25.8310   21.8960 C   0  0  0  0  0  3  0  0  0  0  0  0
  -26.7330  -25.2210   22.9700 C   0  0  0  0  0  0  0  0  0  0  0  0
  -27.9000  -23.6400   20.9230 C   0  0  0  0  0  0  0  0  0  0  0  0
  -27.9740  -25.0610   20.8470 C   0  0  0  0  0  0  0  0  0  0  0  0
  -26.1230  -26.0640   24.0720 C   0  0  0  0  0  1  0  0  0  0  0  0
  -28.6310  -22.7330   19.9280 C   0  0  0  0  0  2  0  0  0  0  0  0
  -27.7470  -21.8300   19.1520 N   0  0  0  0  0  4  0  0  0  0  0  0
  -28.0350  -21.8730   18.1890 H   0  0  0  0  0  0  0  0  0  0  0  0
  -26.8080  -22.1900   19.1900 H   0  0  0  0  0  0  0  0  0  0  0  0
  -27.7440  -20.4050   19.5700 C   0  0  0  0  0  2  0  0  0  0  0  0
  -29.0910  -19.6840   19.3200 C   0  0  0  0  0  2  0  0  0  0  0  0
  -29.3520  -18.5140   20.2900 C   0  0  0  0  0  2  0  0  0  0  0  0
  -30.8430  -18.1420   20.3420 C   0  0  0  0  0  2  0  0  0  0  0  0
  -31.2050  -17.1590   21.4700 C   0  0  0  0  0  2  0  0  0  0  0  0
  -31.3170  -14.8570   20.5360 C   0  0  0  0  0  0  0  0  0  0  0  0
  -30.9910  -12.7120   19.3740 C   0  0  0  0  0  2  0  0  0  0  0  0
  -30.0810  -12.9200   18.1500 C   0  0  0  0  0  2  0  0  0  0  0  0
  -28.5960  -12.8220   18.5510 C   0  0  0  0  0  2  0  0  0  0  0  0
  -28.2490  -13.6870   19.7930 C   0  0  0  0  0  3  0  0  0  0  0  0
  -29.2690  -13.4420   20.9260 C   0  0  0  0  0  2  0  0  0  0  0  0
  -30.6160  -13.7070   20.3880 N   0  0  0  0  0  0  0  0  0  0  0  0
  -32.4180  -15.0570   20.0140 O   0  0  0  0  0  0  0  0  0  0  0  0
  -30.6900  -15.8130   21.2320 N   0  0  0  0  0  0  0  0  0  0  0  0
  -29.7830  -15.5840   21.6090 H   0  0  0  0  0  0  0  0  0  0  0  0
  -25.8560  -14.3640   20.4580 C   0  0  0  0  0  0  0  0  0  0  0  0
  -24.7560  -13.6190   20.7970 C   0  0  0  0  0  0  0  0  0  0  0  0
  -25.1750  -12.2550   20.7550 C   0  0  0  0  0  0  0  0  0  0  0  0
  -26.8770  -13.4530   20.2390 N   0  0  0  0  0  0  0  0  0  0  0  0
  -26.4690  -12.1790   20.4700 N   0  0  0  0  0  0  0  0  0  0  0  0
  -24.4090  -11.0120   20.9100 C   0  0  0  0  0  0  0  0  0  0  0  0
  -24.7680  -10.0400   21.8670 C   0  0  0  0  0  3  0  0  0  0  0  0
  -24.0050   -8.8600   22.0100 C   0  0  0  0  0  3  0  0  0  0  0  0
  -22.8690   -8.6470   21.1950 C   0  0  0  0  0  0  0  0  0  0  0  0
  -22.5300   -9.6090   20.2280 C   0  0  0  0  0  3  0  0  0  0  0  0
  -23.2920  -10.7800   20.0830 C   0  0  0  0  0  3  0  0  0  0  0  0
  -22.0820   -7.5210   21.2460 O   0  0  0  0  0  0  0  0  0  0  0  0
  -21.9020   -6.8220   22.4140 C   0  0  0  0  0  0  0  0  0  0  0  0
  -21.3570   -7.4250   23.5680 C   0  0  0  0  0  3  0  0  0  0  0  0
  -21.1240   -6.6540   24.7230 C   0  0  0  0  0  3  0  0  0  0  0  0
  -21.4250   -5.2780   24.7250 C   0  0  0  0  0  0  0  0  0  0  0  0
  -21.9610   -4.6740   23.5740 C   0  0  0  0  0  3  0  0  0  0  0  0
  -22.1960   -5.4430   22.4210 C   0  0  0  0  0  0  0  0  0  0  0  0
  -22.6930   -4.8500   21.3080 F   0  0  0  0  0  0  0  0  0  0  0  0
  -21.1950   -4.5350   25.8320 F   0  0  0  0  0  0  0  0  0  0  0  0
  -23.3700  -14.1370   21.0530 C   0  0  0  0  0  0  0  0  0  0  0  0
  -22.6070  -13.4560   21.9030 N   0  0  0  0  0  0  0  0  0  0  0  0
  -22.9710  -15.1780   20.5350 O   0  0  0  0  0  0  0  0  0  0  0  0
  -22.9410  -12.6070   22.3350 H   0  0  0  0  0  0  0  0  0  0  0  0
  -21.6760  -13.7850   22.1160 H   0  0  0  0  0  0  0  0  0  0  0  0
  -26.0680  -15.7300   20.2970 N   0  0  0  0  0  0  0  0  0  0  0  0
  -25.3160  -16.4060   20.3750 H   0  0  0  0  0  0  0  0  0  0  0  0
  -26.9280  -16.1330   19.9510 H   0  0  0  0  0  0  0  0  0  0  0  0
  -28.7080  -25.7630   19.6930 C   0  0  0  0  0  2  0  0  0  0  0  0
  -28.6540  -27.1910   19.6900 O   0  0  0  0  0  0  0  0  0  0  0  0
  -24.5420  -31.8400   23.0710 C   0  0  0  0  0  0  0  0  0  0  0  0
  -27.4250  -27.8120   19.6810 C   0  0  0  0  0  0  0  0  0  0  0  0
  -23.4080  -30.4920   21.3330 C   0  0  0  0  0  3  0  0  0  0  0  0
  -24.9390  -29.1490   19.7980 C   0  0  0  0  0  0  0  0  0  0  0  0
  -25.9050  -31.0180   21.1560 C   0  0  0  0  0  2  0  0  0  0  0  0
  -26.0660  -29.7050   20.4190 C   0  0  0  0  0  0  0  0  0  0  0  0
  -27.3080  -29.0440   20.3570 C   0  0  0  0  0  3  0  0  0  0  0  0
  -26.2840  -27.2650   19.0520 C   0  0  0  0  0  3  0  0  0  0  0  0
  -25.0440  -27.9270   19.1120 C   0  0  0  0  0  3  0  0  0  0  0  0
  -23.6450  -29.9200   19.9090 C   0  0  0  0  0  2  0  0  0  0  0  0
  -24.6360  -31.1280   21.9130 N   0  0  0  0  0  0  0  0  0  0  0  0
  -23.4510  -32.0110   23.6310 O   0  0  0  0  0  0  0  0  0  0  0  0
  -22.8260  -29.3700   22.2200 C   0  0  0  0  0  0  0  0  0  0  0  0
  -21.5110  -29.1320   22.0910 N   0  0  0  0  0  0  0  0  0  0  0  0
  -23.5510  -28.7200   22.9780 O   0  0  0  0  0  0  0  0  0  0  0  0
  -20.9840  -29.7130   21.4530 H   0  0  0  0  0  0  0  0  0  0  0  0
  -18.1960  -27.7750   22.5610 C   0  0  0  0  0  0  0  0  0  0  0  0
  -20.7500  -28.0990   22.7940 C   0  0  0  0  0  3  0  0  0  0  0  0
  -20.8870  -26.7320   22.0860 C   0  0  0  0  0  2  0  0  0  0  0  0
  -19.7680  -26.4630   21.0750 C   0  0  0  0  0  2  0  0  0  0  0  0
  -18.4010  -26.4980   21.7640 C   0  0  0  0  0  2  0  0  0  0  0  0
  -19.3000  -28.5350   23.0310 C   0  0  0  0  0  0  0  0  0  0  0  0
  -19.0560  -29.7320   23.7370 C   0  0  0  0  0  3  0  0  0  0  0  0
  -17.7400  -30.1700   23.9810 C   0  0  0  0  0  3  0  0  0  0  0  0
  -16.6520  -29.4050   23.5290 C   0  0  0  0  0  3  0  0  0  0  0  0
  -16.8800  -28.2100   22.8240 C   0  0  0  0  0  3  0  0  0  0  0  0
  -25.7960  -32.4950   23.7340 C   0  0  0  0  0  3  0  0  0  0  0  0
  -25.4430  -33.8810   24.0720 N   0  0  0  0  0  0  0  0  0  0  0  0
  -25.7670  -34.9500   23.3330 C   0  0  0  0  0  0  0  0  0  0  0  0
  -26.4670  -34.8750   22.3190 O   0  0  0  0  0  0  0  0  0  0  0  0
  -24.8240  -34.0110   24.8600 H   0  0  0  0  0  0  0  0  0  0  0  0
  -23.9950  -36.6950   22.9530 C   0  0  0  0  0  1  0  0  0  0  0  0
  -25.2270  -36.3190   23.7900 C   0  0  0  0  0  3  0  0  0  0  0  0
  -27.3120  -37.2600   24.6840 C   0  0  0  0  0  1  0  0  0  0  0  0
  -26.2320  -37.4040   23.7120 N   0  0  0  0  0  0  0  0  0  0  0  0
  -25.7940  -38.3100   23.8540 H   0  0  0  0  0  0  0  0  0  0  0  0
  -26.3020  -31.7190   25.0120 C   0  0  1  0  0  0  0  0  0  0  0  0
  -25.1870  -31.4290   26.0420 C   0  0  0  0  0  1  0  0  0  0  0  0
  -26.9420  -30.3700   24.6140 C   0  0  0  0  0  1  0  0  0  0  0  0
  -27.4030  -32.5420   25.7210 C   0  0  0  0  0  1  0  0  0  0  0  0
  2  1  2  0
  3  4  2  0
  4  1  1  0
  4  7  1  0
  5  2  1  0
  6  5  2  0
  6  3  1  0
  8  5  1  0
  9 11  1  0
  9 12  1  0
  9  8  1  0
 10  9  1  0
 13 12  1  0
 13 14  1  0
 14 15  1  0
 15 16  1  0
 17 25  1  0
 18 23  1  0
 19 20  1  0
 19 18  1  0
 21 20  1  0
 21 30  1  0
 21 22  1  0
 23 17  1  0
 23 22  1  0
 24 17  2  0
 25 16  1  0
 25 26  1  0
 27 28  2  0
 28 47  1  0
 29 28  1  0
 29 32  1  0
 30 27  1  0
 30 31  1  0
 31 29  2  0
 32 33  1  0
 33 34  2  0
 35 38  1  0
 35 34  1  0
 36 35  2  0
 37 36  1  0
 37 32  2  0
 38 39  1  0
 39 44  2  0
 39 40  1  0
 40 41  2  0
 41 42  1  0
 42 46  1  0
 43 42  2  0
 44 43  1  0
 45 44  1  0
 47 48  1  0
 48 51  1  0
 48 50  1  0
 49 47  2  0
 52 53  1  0
 52 27  1  0
 54 52  1  0
 55  6  1  0
 56 55  1  0
 57 68  2  0
 58 56  1  0
 58 63  1  0
 59 67  1  0
 59 69  1  0
 60 66  1  0
 60 62  1  0
 61 67  1  0
 62 61  1  0
 63 62  2  0
 64 65  1  0
 64 58  2  0
 65 60  2  0
 66 59  1  0
 67 57  1  0
 69 71  2  0
 70 69  1  0
 72 70  1  0
 73 82  2  0
 73 78  1  0
 74 70  1  0
 74 78  1  0
 75 74  1  0
 76 77  1  0
 76 75  1  0
 77 73  1  0
 78 79  2  0
 79 80  1  0
 81 80  2  0
 82 81  1  0
 83 57  1  0
 83 84  1  0
 83 93  1  0
 84 87  1  0
 85 89  1  0
 85 84  1  0
 86 85  2  0
 89 88  1  0
 91 89  1  0
 91 92  1  0
 91 90  1  0
 93 96  1  1
 93 94  1  0
 95 93  1  0
M  ISO  4  17 100  25 100  55 101  56 101
M  END
>  <TORSDO>  (3) 
F 24

>  <SCORE>  (3) 
-10.122

>  <name>  (3) 
2

>  <ligand_id>  (3) 
2

>  <original_smiles>  (3) 
[H]c1c([H])c([H])c2c(c1[H])C([H])([H])C([H])([H])C([H])([H])C2([H])N([H])C(=O)C1([H])N(C(=O)C([H])(N([H])C(=O)C([H])(N([H])C([H])([H])[H])C([H])([H])[H])C(C([H])([H])[H])(C([H])([H])[H])C([H])([H])[H])C([H])([H])c2c([H])c(OC([H])([H])c3c([H])c(C([H])([H])[H])c([H])c([H])c3C([H])([H])[N+]([H])([H])C([H])([H])C([H])([H])C([H])([H])C([H])([H])C([H])([H])N([H])C(=O)N3C([H])([H])C([H])([H])C([H])([H])C([H])(n4nc(-c5c([H])c([H])c(Oc6c([H])c([H])c(F)c([H])c6F)c([H])c5[H])c(C(=O)N([H])[H])c4N([H])[H])C3([H])[H])c([H])c([H])c2C1([H])[H]

>  <smiles>  (3) 
[H]c1c([H])c([H])c2c(c1[H])C([H])([H])C([H])([H])C([H])([H])C2([H])N([H])C(=O)C1([H])N(C(=O)C([H])(N([H])C(=O)C([H])(N([H])C([H])([H])[H])C([H])([H])[H])C(C([H])([H])[H])(C([H])([H])[H])C([H])([H])[H])C([H])([H])c2c([H])c(OC([H])([H])c3c([H])c(C([H])([H])[H])c([H])c([H])c3C([H])([H])[N+]([H])([H])C([H])([H])C([H])([H])C([H])([H])C([H])([H])C([H])([H])N([H])C(=O)N3C([H])([H])C([H])([H])C([H])([H])C([H])(n4nc(-c5c([H])c([H])c(Oc6c([H])c([H])c(F)c([H])c6F)c([H])c5[H])c(C(=O)N([H])[H])c4N([H])[H])C3([H])[H])c([H])c([H])c2C1([H])[H]

$$$$
3:0:0
     RDKit          3D

 93101  0  0  1  0  0  0  0  0999 V2000
  -30.6200  -24.6700   19.9100 C   0  0  0  0  0  3  0  0  0  0  0  0
  -28.7350  -23.1860   19.5260 C   0  0  0  0  0  3  0  0  0  0  0  0
  -29.2450  -24.4040   20.0280 C   0  0  0  0  0  0  0  0  0  0  0  0
  -31.4700  -23.7550   19.2560 C   0  0  0  0  0  0  0  0  0  0  0  0
  -29.5660  -22.2530   18.8580 C   0  0  0  0  0  0  0  0  0  0  0  0
  -30.9470  -22.5570   18.7070 C   0  0  0  0  0  0  0  0  0  0  0  0
  -32.9470  -24.0880   19.1210 C   0  0  0  0  0  1  0  0  0  0  0  0
  -32.0080  -21.5260   17.8100 Cl  0  0  0  0  0  0  0  0  0  0  0  0
  -28.8810  -21.0440   18.2030 C   0  0  0  0  0  2  0  0  0  0  0  0
  -29.4550  -19.6120   18.3690 C   0  0  0  0  0  2  0  0  0  0  0  0
  -29.6880  -19.0740   19.7970 C   0  0  0  0  0  2  0  0  0  0  0  0
  -29.7910  -17.5290   19.7850 C   0  0  0  0  0  2  0  0  0  0  0  0
  -30.2110  -16.8740   21.1200 C   0  0  0  0  0  2  0  0  0  0  0  0
  -30.6460  -14.4620   20.5240 C   0  0  0  0  0  0  0  0  0  0  0  0
  -30.3540  -12.3180   19.3420 C   0  0  0  0  0  2  0  0  0  0  0  0
  -29.4000  -12.5400   18.1490 C   0  0  0  0  0  2  0  0  0  0  0  0
  -27.9270  -12.4020   18.5860 C   0  0  0  0  0  2  0  0  0  0  0  0
  -27.6020  -13.2230   19.8610 C   0  0  0  0  0  3  0  0  0  0  0  0
  -28.6620  -12.9700   20.9580 C   0  0  0  0  0  2  0  0  0  0  0  0
  -29.9870  -13.2800   20.3910 N   0  0  0  0  0  0  0  0  0  0  0  0
  -31.7470  -14.6860   20.0150 O   0  0  0  0  0  0  0  0  0  0  0  0
  -29.9360  -15.4320   21.1220 N   0  0  0  0  0  0  0  0  0  0  0  0
  -29.0520  -15.1440   21.5150 H   0  0  0  0  0  0  0  0  0  0  0  0
  -25.2040  -13.8360   20.5730 C   0  0  0  0  0  0  0  0  0  0  0  0
  -24.1360  -13.0640   20.9470 C   0  0  0  0  0  0  0  0  0  0  0  0
  -24.5960  -11.7130   20.9160 C   0  0  0  0  0  0  0  0  0  0  0  0
  -26.2480  -12.9540   20.3420 N   0  0  0  0  0  0  0  0  0  0  0  0
  -25.8850  -11.6720   20.6020 N   0  0  0  0  0  0  0  0  0  0  0  0
  -23.8700  -10.4510   21.1100 C   0  0  0  0  0  0  0  0  0  0  0  0
  -24.3280   -9.4680   22.0150 C   0  0  0  0  0  3  0  0  0  0  0  0
  -23.6040   -8.2700   22.1970 C   0  0  0  0  0  3  0  0  0  0  0  0
  -22.4080   -8.0470   21.4740 C   0  0  0  0  0  0  0  0  0  0  0  0
  -21.9690   -9.0190   20.5580 C   0  0  0  0  0  3  0  0  0  0  0  0
  -22.6940  -10.2080   20.3730 C   0  0  0  0  0  3  0  0  0  0  0  0
  -21.6530   -6.9030   21.5680 O   0  0  0  0  0  0  0  0  0  0  0  0
  -21.6600   -6.1260   22.6980 C   0  0  0  0  0  0  0  0  0  0  0  0
  -21.3220   -6.6510   23.9650 C   0  0  0  0  0  3  0  0  0  0  0  0
  -21.2750   -5.8020   25.0890 C   0  0  0  0  0  3  0  0  0  0  0  0
  -21.5540   -4.4290   24.9480 C   0  0  0  0  0  0  0  0  0  0  0  0
  -21.8850   -3.9040   23.6860 C   0  0  0  0  0  3  0  0  0  0  0  0
  -21.9340   -4.7500   22.5640 C   0  0  0  0  0  0  0  0  0  0  0  0
  -22.2330   -4.2350   21.3470 F   0  0  0  0  0  0  0  0  0  0  0  0
  -21.5010   -3.6120   26.0250 F   0  0  0  0  0  0  0  0  0  0  0  0
  -22.7390  -13.5420   21.2260 C   0  0  0  0  0  0  0  0  0  0  0  0
  -22.0170  -12.8480   22.1000 N   0  0  0  0  0  0  0  0  0  0  0  0
  -22.2980  -14.5660   20.7070 O   0  0  0  0  0  0  0  0  0  0  0  0
  -22.3880  -12.0190   22.5420 H   0  0  0  0  0  0  0  0  0  0  0  0
  -21.0810  -13.1500   22.3290 H   0  0  0  0  0  0  0  0  0  0  0  0
  -25.3690  -15.2060   20.3940 N   0  0  0  0  0  0  0  0  0  0  0  0
  -24.6040  -15.8630   20.5040 H   0  0  0  0  0  0  0  0  0  0  0  0
  -26.2200  -15.6430   20.0630 H   0  0  0  0  0  0  0  0  0  0  0  0
  -28.3230  -25.4150   20.7020 C   0  0  0  0  0  2  0  0  0  0  0  0
  -28.3990  -26.7230   20.1150 O   0  0  0  0  0  0  0  0  0  0  0  0
  -24.6080  -31.8900   23.2280 C   0  0  0  0  0  0  0  0  0  0  0  0
  -27.2290  -27.4500   20.1400 C   0  0  0  0  0  0  0  0  0  0  0  0
  -23.3880  -30.4850   21.5960 C   0  0  0  0  0  3  0  0  0  0  0  0
  -24.8320  -28.9460   20.1650 C   0  0  0  0  0  0  0  0  0  0  0  0
  -25.9110  -30.8470   21.3770 C   0  0  0  0  0  2  0  0  0  0  0  0
  -25.9940  -29.4760   20.7410 C   0  0  0  0  0  0  0  0  0  0  0  0
  -27.1980  -28.7350   20.7230 C   0  0  0  0  0  3  0  0  0  0  0  0
  -26.0530  -26.9340   19.5510 C   0  0  0  0  0  3  0  0  0  0  0  0
  -24.8560  -27.6740   19.5670 C   0  0  0  0  0  3  0  0  0  0  0  0
  -23.5880  -29.8020   20.2170 C   0  0  0  0  0  2  0  0  0  0  0  0
  -24.6540  -31.0890   22.1250 N   0  0  0  0  0  0  0  0  0  0  0  0
  -23.5310  -32.1620   23.7760 O   0  0  0  0  0  0  0  0  0  0  0  0
  -22.7440  -29.4660   22.5640 C   0  0  0  0  0  0  0  0  0  0  0  0
  -21.4200  -29.2810   22.4420 N   0  0  0  0  0  0  0  0  0  0  0  0
  -23.4330  -28.8430   23.3760 O   0  0  0  0  0  0  0  0  0  0  0  0
  -20.9260  -29.8350   21.7570 H   0  0  0  0  0  0  0  0  0  0  0  0
  -18.0530  -28.0720   22.9440 C   0  0  0  0  0  0  0  0  0  0  0  0
  -20.6080  -28.3440   23.2190 C   0  0  0  0  0  3  0  0  0  0  0  0
  -20.7190  -26.9100   22.6530 C   0  0  0  0  0  2  0  0  0  0  0  0
  -19.6200  -26.5750   21.6390 C   0  0  0  0  0  2  0  0  0  0  0  0
  -18.2370  -26.7180   22.2810 C   0  0  0  0  0  2  0  0  0  0  0  0
  -19.1670  -28.8420   23.3710 C   0  0  0  0  0  0  0  0  0  0  0  0
  -18.9410  -30.1100   23.9510 C   0  0  0  0  0  3  0  0  0  0  0  0
  -17.6340  -30.6060   24.1100 C   0  0  0  0  0  3  0  0  0  0  0  0
  -16.5340  -29.8330   23.7010 C   0  0  0  0  0  3  0  0  0  0  0  0
  -16.7440  -28.5680   23.1240 C   0  0  0  0  0  3  0  0  0  0  0  0
  -25.8990  -32.5200   23.8370 C   0  0  0  0  0  3  0  0  0  0  0  0
  -25.5910  -33.9140   24.1800 N   0  0  0  0  0  0  0  0  0  0  0  0
  -25.9130  -34.9720   23.4230 C   0  0  0  0  0  0  0  0  0  0  0  0
  -26.5720  -34.8770   22.3850 O   0  0  0  0  0  0  0  0  0  0  0  0
  -25.0050  -34.0620   24.9880 H   0  0  0  0  0  0  0  0  0  0  0  0
  -24.1740  -36.7590   23.1000 C   0  0  0  0  0  1  0  0  0  0  0  0
  -25.4260  -36.3560   23.8940 C   0  0  0  0  0  3  0  0  0  0  0  0
  -27.5690  -37.2400   24.7010 C   0  0  0  0  0  1  0  0  0  0  0  0
  -26.4530  -37.4130   23.7750 N   0  0  0  0  0  0  0  0  0  0  0  0
  -26.0460  -38.3300   23.9360 H   0  0  0  0  0  0  0  0  0  0  0  0
  -26.4380  -31.7390   25.0980 C   0  0  1  0  0  0  0  0  0  0  0  0
  -25.3620  -31.4900   26.1800 C   0  0  0  0  0  1  0  0  0  0  0  0
  -27.0180  -30.3670   24.6830 C   0  0  0  0  0  1  0  0  0  0  0  0
  -27.5970  -32.5310   25.7490 C   0  0  0  0  0  1  0  0  0  0  0  0
  1  3  1  0
  2  3  2  0
  3 52  1  0
  4  1  2  0
  5  2  1  0
  6  5  2  0
  6  4  1  0
  7  4  1  0
  8  6  1  0
  9 10  1  0
  9  5  1  0
 10 11  1  0
 12 11  1  0
 12 13  1  0
 13 22  1  0
 14 22  1  0
 15 20  1  0
 16 17  1  0
 16 15  1  0
 18 17  1  0
 18 27  1  0
 18 19  1  0
 20 14  1  0
 20 19  1  0
 21 14  2  0
 22 23  1  0
 24 25  2  0
 25 44  1  0
 26 25  1  0
 26 29  1  0
 27 24  1  0
 27 28  1  0
 28 26  2  0
 29 30  1  0
 30 31  2  0
 32 35  1  0
 32 31  1  0
 33 32  2  0
 34 33  1  0
 34 29  2  0
 35 36  1  0
 36 37  1  0
 37 38  2  0
 39 38  1  0
 39 43  1  0
 40 39  2  0
 41 36  2  0
 41 40  1  0
 42 41  1  0
 44 45  1  0
 45 48  1  0
 45 47  1  0
 46 44  2  0
 49 50  1  0
 49 24  1  0
 51 49  1  0
 53 55  1  0
 53 52  1  0
 54 65  2  0
 55 60  1  0
 56 64  1  0
 56 66  1  0
 57 63  1  0
 57 59  1  0
 58 64  1  0
 59 58  1  0
 60 59  2  0
 61 62  1  0
 61 55  2  0
 62 57  2  0
 63 56  1  0
 64 54  1  0
 66 68  2  0
 67 66  1  0
 69 67  1  0
 70 79  2  0
 70 75  1  0
 71 67  1  0
 71 75  1  0
 72 71  1  0
 73 74  1  0
 73 72  1  0
 74 70  1  0
 75 76  2  0
 76 77  1  0
 78 77  2  0
 79 78  1  0
 80 54  1  0
 80 81  1  0
 80 90  1  0
 81 84  1  0
 82 86  1  0
 82 81  1  0
 83 82  2  0
 86 85  1  0
 88 86  1  0
 88 89  1  0
 88 87  1  0
 90 93  1  1
 90 91  1  0
 92 90  1  0
M  ISO  4  14 100  22 100  52 101  53 101
M  END
>  <TORSDO>  (4) 
F 22

>  <SCORE>  (4) 
-13.054

>  <name>  (4) 
3

>  <ligand_id>  (4) 
3

>  <original_smiles>  (4) 
[H]c1c([H])c([H])c2c(c1[H])C([H])([H])C([H])([H])C([H])([H])C2([H])N([H])C(=O)C1([H])N(C(=O)C([H])(N([H])C(=O)C([H])(N([H])C([H])([H])[H])C([H])([H])[H])C(C([H])([H])[H])(C([H])([H])[H])C([H])([H])[H])C([H])([H])c2c([H])c(OC([H])([H])c3c([H])c(C([H])([H])[H])c(Cl)c(C([H])([H])C([H])([H])C([H])([H])C([H])([H])C([H])([H])N([H])C(=O)N4C([H])([H])C([H])([H])C([H])([H])C([H])(n5nc(-c6c([H])c([H])c(Oc7c([H])c([H])c(F)c([H])c7F)c([H])c6[H])c(C(=O)N([H])[H])c5N([H])[H])C4([H])[H])c3[H])c([H])c([H])c2C1([H])[H]

>  <smiles>  (4) 
[H]c1c([H])c([H])c2c(c1[H])C([H])([H])C([H])([H])C([H])([H])C2([H])N([H])C(=O)C1([H])N(C(=O)C([H])(N([H])C(=O)C([H])(N([H])C([H])([H])[H])C([H])([H])[H])C(C([H])([H])[H])(C([H])([H])[H])C([H])([H])[H])C([H])([H])c2c([H])c(OC([H])([H])c3c([H])c(C([H])([H])[H])c(Cl)c(C([H])([H])C([H])([H])C([H])([H])C([H])([H])C([H])([H])N([H])C(=O)N4C([H])([H])C([H])([H])C([H])([H])C([H])(n5nc(-c6c([H])c([H])c(Oc7c([H])c([H])c(F)c([H])c7F)c([H])c6[H])c(C(=O)N([H])[H])c5N([H])[H])C4([H])[H])c3[H])c([H])c([H])c2C1([H])[H]

$$$$
4:0:0
     RDKit          3D

 96102  0  0  1  0  0  0  0  0999 V2000
  -26.9090  -27.8980   18.7090 C   0  0  0  0  0  2  0  0  0  0  0  0
  -28.1580  -26.4290   18.1540 C   0  0  0  0  0  1  0  0  0  0  0  0
  -26.2580  -27.1870   21.5450 C   0  0  0  0  0  2  0  0  0  0  0  0
  -28.9770  -25.1320   19.3770 C   0  0  0  0  0  3  0  0  0  0  0  0
  -27.6250  -25.9940   22.2550 C   0  0  0  0  0  3  0  0  0  0  0  0
  -28.8040  -25.0800   21.1880 N   0  0  0  0  0  2  0  0  0  0  0  0
  -25.0510  -26.4030   22.1750 C   0  0  0  0  0  2  0  0  0  0  0  0
  -24.7810  -25.0230   21.4080 C   0  0  0  0  0  2  0  0  0  0  0  0
  -25.0960  -24.9650   19.8440 C   0  0  0  0  0  1  0  0  0  0  0  0
  -25.4000  -26.5570   19.2700 O   0  0  0  0  0  0  0  0  0  0  0  0
  -24.2490  -32.1980   23.4900 C   0  0  0  0  0  0  0  0  0  0  0  0
  -26.5390  -27.8180   19.4180 C   0  0  0  0  0  0  0  0  0  0  0  0
  -22.6860  -31.1720   21.8830 C   0  0  0  0  0  3  0  0  0  0  0  0
  -23.7180  -29.6880   20.0380 C   0  0  0  0  0  0  0  0  0  0  0  0
  -25.1650  -31.4950   21.2310 C   0  0  0  0  0  2  0  0  0  0  0  0
  -25.1850  -30.2440   20.3500 C   0  0  0  0  0  0  0  0  0  0  0  0
  -26.6070  -29.4530   20.0400 C   0  0  0  0  0  2  0  0  0  0  0  0
  -24.5030  -27.1220   19.0480 C   0  0  0  0  0  2  0  0  0  0  0  0
  -23.3410  -28.2540   19.4240 C   0  0  0  0  0  2  0  0  0  0  0  0
  -22.6050  -30.6640   20.4190 C   0  0  0  0  0  2  0  0  0  0  0  0
  -24.0750  -31.5960   22.2690 N   0  0  0  0  0  0  0  0  0  0  0  0
  -23.2840  -32.4550   24.2340 O   0  0  0  0  0  0  0  0  0  0  0  0
  -22.0440  -30.1230   22.8230 C   0  0  0  0  0  0  0  0  0  0  0  0
  -20.7170  -29.9120   22.7210 N   0  0  0  0  0  0  0  0  0  0  0  0
  -22.7420  -29.4880   23.6180 O   0  0  0  0  0  0  0  0  0  0  0  0
  -20.1910  -30.5050   22.0920 H   0  0  0  0  0  0  0  0  0  0  0  0
  -17.4470  -28.3770   23.0560 C   0  0  0  0  0  0  0  0  0  0  0  0
  -19.9490  -28.9010   23.4520 C   0  0  0  0  0  3  0  0  0  0  0  0
  -20.2220  -27.4840   22.8940 C   0  0  0  0  0  2  0  0  0  0  0  0
  -19.2170  -27.0520   21.8240 C   0  0  0  0  0  2  0  0  0  0  0  0
  -17.7940  -27.0560   22.3890 C   0  0  0  0  0  2  0  0  0  0  0  0
  -18.4580  -29.2500   23.5400 C   0  0  0  0  0  0  0  0  0  0  0  0
  -18.0800  -30.4790   24.1280 C   0  0  0  0  0  3  0  0  0  0  0  0
  -16.7250  -30.8450   24.2190 C   0  0  0  0  0  3  0  0  0  0  0  0
  -15.7290  -29.9720   23.7440 C   0  0  0  0  0  3  0  0  0  0  0  0
  -16.0890  -28.7370   23.1740 C   0  0  0  0  0  3  0  0  0  0  0  0
  -25.6620  -32.6240   24.0090 C   0  0  0  0  0  3  0  0  0  0  0  0
  -26.2090  -31.6840   25.1520 C   0  0  1  0  0  0  0  0  0  0  0  0
  -25.2590  -31.5200   26.3610 C   0  0  0  0  0  1  0  0  0  0  0  0
  -26.4970  -30.2820   24.5730 C   0  0  0  0  0  1  0  0  0  0  0  0
  -27.5540  -32.2230   25.6910 C   0  0  0  0  0  1  0  0  0  0  0  0
  -25.5890  -34.0180   24.4780 N   0  0  0  0  0  0  0  0  0  0  0  0
  -26.0220  -35.0750   23.7790 C   0  0  0  0  0  0  0  0  0  0  0  0
  -26.5960  -34.9690   22.6930 O   0  0  0  0  0  0  0  0  0  0  0  0
  -25.1110  -34.1850   25.3500 H   0  0  0  0  0  0  0  0  0  0  0  0
  -24.5890  -37.1330   23.6890 C   0  0  0  0  0  1  0  0  0  0  0  0
  -25.7910  -36.4730   24.3820 C   0  0  0  0  0  3  0  0  0  0  0  0
  -28.0830  -36.9300   25.1300 C   0  0  0  0  0  1  0  0  0  0  0  0
  -26.9690  -37.3620   24.2890 N   0  0  0  0  0  0  0  0  0  0  0  0
  -26.7180  -38.3080   24.5640 H   0  0  0  0  0  0  0  0  0  0  0  0
  -28.2380  -26.1880   23.6360 C   0  0  0  0  0  2  0  0  0  0  0  0
  -29.8510  -28.2480   23.8770 C   0  0  0  0  0  1  0  0  0  0  0  0
  -29.7030  -26.7570   23.5570 C   0  0  0  0  0  2  0  0  0  0  0  0
  -29.6380  -23.6750   18.9430 C   0  0  0  0  0  3  0  0  0  0  0  0
  -29.2040  -22.1310   19.5580 C   0  0  0  0  0  3  0  0  0  0  0  0
  -30.0270  -20.6370   19.3890 C   0  0  0  0  0  2  0  0  0  0  0  0
  -29.5630  -19.0910   19.9600 C   0  0  0  0  0  3  0  0  0  0  0  0
  -30.4570  -17.6340   19.8670 C   0  0  0  0  0  3  0  0  0  0  0  0
  -30.7110  -14.9070   20.3090 C   0  0  0  0  0  0  0  0  0  0  0  0
  -30.5930  -12.5130   19.4940 C   0  0  0  0  0  2  0  0  0  0  0  0
  -29.6910  -12.4240   18.2430 C   0  0  0  0  0  2  0  0  0  0  0  0
  -28.2180  -12.2060   18.6430 C   0  0  0  0  0  2  0  0  0  0  0  0
  -27.7740  -13.1290   19.8090 C   0  0  0  0  0  3  0  0  0  0  0  0
  -28.8220  -13.2340   20.9400 C   0  0  0  0  0  2  0  0  0  0  0  0
  -30.0900  -13.6490   20.3180 N   0  0  0  0  0  0  0  0  0  0  0  0
  -31.9320  -14.9070   20.1140 O   0  0  0  0  0  0  0  0  0  0  0  0
  -29.9990  -16.1490   20.2640 N   0  0  0  0  0  0  0  0  0  0  0  0
  -29.0050  -16.0520   20.4290 H   0  0  0  0  0  0  0  0  0  0  0  0
  -25.3690  -13.6420   20.5100 C   0  0  0  0  0  0  0  0  0  0  0  0
  -24.3170  -12.8450   20.8670 C   0  0  0  0  0  0  0  0  0  0  0  0
  -24.8140  -11.5060   20.8590 C   0  0  0  0  0  0  0  0  0  0  0  0
  -26.4400  -12.7910   20.2970 N   0  0  0  0  0  0  0  0  0  0  0  0
  -26.1140  -11.5000   20.5760 N   0  0  0  0  0  0  0  0  0  0  0  0
  -24.1080  -10.2300   21.0470 C   0  0  0  0  0  0  0  0  0  0  0  0
  -24.5190   -9.2940   22.0200 C   0  0  0  0  0  3  0  0  0  0  0  0
  -23.8080   -8.0860   22.1960 C   0  0  0  0  0  3  0  0  0  0  0  0
  -22.6710   -7.8080   21.4000 C   0  0  0  0  0  0  0  0  0  0  0  0
  -22.2820   -8.7330   20.4160 C   0  0  0  0  0  3  0  0  0  0  0  0
  -22.9940   -9.9310   20.2380 C   0  0  0  0  0  3  0  0  0  0  0  0
  -21.9340   -6.6500   21.4840 O   0  0  0  0  0  0  0  0  0  0  0  0
  -21.8340   -5.9430   22.6550 C   0  0  0  0  0  0  0  0  0  0  0  0
  -21.3240   -6.5260   23.8360 C   0  0  0  0  0  3  0  0  0  0  0  0
  -21.1740   -5.7440   24.9990 C   0  0  0  0  0  3  0  0  0  0  0  0
  -21.5220   -4.3800   24.9810 C   0  0  0  0  0  0  0  0  0  0  0  0
  -22.0250   -3.7970   23.8050 C   0  0  0  0  0  3  0  0  0  0  0  0
  -22.1770   -4.5760   22.6440 C   0  0  0  0  0  0  0  0  0  0  0  0
  -22.6420   -4.0030   21.5080 F   0  0  0  0  0  0  0  0  0  0  0  0
  -21.3720   -3.6270   26.0950 F   0  0  0  0  0  0  0  0  0  0  0  0
  -22.9040  -13.2950   21.1020 C   0  0  0  0  0  0  0  0  0  0  0  0
  -22.1760  -12.5980   21.9660 N   0  0  0  0  0  0  0  0  0  0  0  0
  -22.4550  -14.2980   20.5510 O   0  0  0  0  0  0  0  0  0  0  0  0
  -22.5550  -11.7870   22.4330 H   0  0  0  0  0  0  0  0  0  0  0  0
  -21.2270  -12.8790   22.1660 H   0  0  0  0  0  0  0  0  0  0  0  0
  -25.4960  -15.0160   20.3180 N   0  0  0  0  0  0  0  0  0  0  0  0
  -24.6950  -15.6360   20.3810 H   0  0  0  0  0  0  0  0  0  0  0  0
  -26.3260  -15.4790   19.9720 H   0  0  0  0  0  0  0  0  0  0  0  0
  1 12  2  0
  3  7  1  0
  4  2  1  0
  4  6  1  0
  5  3  1  0
  5 51  1  0
  6  5  1  0
  8  7  1  0
  9  8  1  0
 10 12  1  0
 11 22  2  0
 12 17  1  0
 13 21  1  0
 13 23  1  0
 14 16  2  0
 14 20  1  0
 15 21  1  0
 16 15  1  0
 17 16  1  0
 18 10  1  0
 18 19  1  0
 19 14  1  0
 20 13  1  0
 21 11  1  0
 23 25  2  0
 24 23  1  0
 26 24  1  0
 27 36  2  0
 27 32  1  0
 28 24  1  0
 28 32  1  0
 29 28  1  0
 30 31  1  0
 30 29  1  0
 31 27  1  0
 32 33  2  0
 33 34  1  0
 35 34  2  0
 36 35  1  0
 37 11  1  0
 37 42  1  0
 37 38  1  0
 38 41  1  1
 38 39  1  0
 40 38  1  0
 42 45  1  0
 43 47  1  0
 43 42  1  0
 44 43  2  0
 47 46  1  0
 49 47  1  0
 49 50  1  0
 49 48  1  0
 53 51  1  0
 53 52  1  0
 54  4  1  0
 54 55  2  0
 56 55  1  0
 56 57  1  0
 58 57  2  0
 58 67  1  0
 59 65  1  0
 60 65  1  0
 61 62  1  0
 61 60  1  0
 63 62  1  0
 63 72  1  0
 63 64  1  0
 65 64  1  0
 66 59  2  0
 67 59  1  0
 67 68  1  0
 69 70  2  0
 70 89  1  0
 71 70  1  0
 71 74  1  0
 72 69  1  0
 72 73  1  0
 73 71  2  0
 74 75  1  0
 75 76  2  0
 77 80  1  0
 77 76  1  0
 78 77  2  0
 79 78  1  0
 79 74  2  0
 80 81  1  0
 81 82  1  0
 82 83  2  0
 84 83  1  0
 84 88  1  0
 85 84  2  0
 86 81  2  0
 86 85  1  0
 87 86  1  0
 89 90  1  0
 90 93  1  0
 90 92  1  0
 91 89  2  0
 94 95  1  0
 94 69  1  0
 96 94  1  0
M  ISO  4   9 101  10 101  59 100  67 100
M  END
>  <TORSDO>  (5) 
F 26

>  <SCORE>  (5) 
-11.725

>  <name>  (5) 
4

>  <ligand_id>  (5) 
4

>  <original_smiles>  (5) 
[H]c1c(C([H])([H])C([H])([H])C([H])([H])C([H])([H])C([H])([H])N([H])C(=O)N2C([H])([H])C([H])([H])C([H])([H])C([H])(n3nc(-c4c([H])c([H])c(Oc5c([H])c([H])c(F)c([H])c5F)c([H])c4[H])c(C(=O)N([H])[H])c3N([H])[H])C2([H])[H])nc(C([H])([H])C([H])([H])C([H])([H])[H])c(C([H])([H])C([H])([H])C([H])([H])Oc2c([H])c([H])c3c(c2[H])C([H])([H])N(C(=O)C([H])(N([H])C(=O)C([H])(N([H])C([H])([H])[H])C([H])([H])[H])C(C([H])([H])[H])(C([H])([H])[H])C([H])([H])[H])C([H])(C(=O)N([H])C2([H])c4c([H])c([H])c([H])c([H])c4C([H])([H])C([H])([H])C2([H])[H])C3([H])[H])c1[H]

>  <smiles>  (5) 
[H]c1c(C([H])([H])C([H])([H])C([H])([H])C([H])([H])C([H])([H])N([H])C(=O)N2C([H])([H])C([H])([H])C([H])([H])C([H])(n3nc(-c4c([H])c([H])c(Oc5c([H])c([H])c(F)c([H])c5F)c([H])c4[H])c(C(=O)N([H])[H])c3N([H])[H])C2([H])[H])nc(C([H])([H])C([H])([H])C([H])([H])[H])c(C([H])([H])C([H])([H])C([H])([H])Oc2c([H])c([H])c3c(c2[H])C([H])([H])N(C(=O)C([H])(N([H])C(=O)C([H])(N([H])C([H])([H])[H])C([H])([H])[H])C(C([H])([H])[H])(C([H])([H])[H])C([H])([H])[H])C([H])(C(=O)N([H])C2([H])c4c([H])c([H])c([H])c([H])c4C([H])([H])C([H])([H])C2([H])[H])C3([H])[H])c1[H]

$$$$
5:0:0
     RDKit          3D

 92 85  0  0  1  0  0  0  0  0999 V2000
  -28.2440  -12.7210   21.6970 C   0  0  0  0  0 15  0  0  0  0  0  0
  -25.5800  -14.0630   18.4990 C   0  0  0  0  0 15  0  0  0  0  0  0
  -27.8030  -14.8760   21.3880 C   0  0  0  0  0  1  0  0  0  0  0  0
  -26.5400  -15.6490   19.7270 C   0  0  0  0  0 15  0  0  0  0  0  0
  -27.3190  -11.1730   20.2190 C   0  0  0  0  0  1  0  0  0  0  0  0
  -27.4740   -9.6490   20.4130 C   0  0  0  0  0  1  0  0  0  0  0  0
  -25.9910  -11.9870   18.7480 N   0  0  0  0  0 15  0  0  0  0  0  0
  -28.8250  -15.8160   21.9840 C   0  0  0  0  0  1  0  0  0  0  0  0
  -29.7800  -16.3780   20.8830 C   0  0  0  0  0  2  0  0  0  0  0  0
  -31.1290  -15.6140   20.6310 C   0  0  0  0  0  2  0  0  0  0  0  0
  -31.7170  -13.6070   19.0760 C   0  0  0  0  0  0  0  0  0  0  0  0
  -31.2500  -11.1210   19.0080 C   0  0  0  0  0  2  0  0  0  0  0  0
  -29.9840  -10.8860   18.1310 C   0  0  0  0  0  2  0  0  0  0  0  0
  -28.6690  -11.3300   18.7510 C   0  0  0  0  0  2  0  0  0  0  0  0
  -28.9410  -12.5710   19.6350 C   0  0  0  0  0  2  0  0  0  0  0  0
  -30.1800  -12.4350   20.5550 C   0  0  0  0  0  2  0  0  0  0  0  0
  -31.2350  -12.4560   19.6300 N   0  0  0  0  0  0  0  0  0  0  0  0
  -32.4410  -13.5460   18.0900 O   0  0  0  0  0  0  0  0  0  0  0  0
  -31.1430  -14.8100   19.3820 N   0  0  0  0  0  0  0  0  0  0  0  0
  -31.2190  -15.4250   18.5840 H   0  0  0  0  0  0  0  0  0  0  0  0
  -25.9170  -13.7640   20.8900 C   0  0  0  0  0  2  0  0  0  0  0  0
  -24.6820  -13.0810   21.3970 C   0  0  0  0  0  0  0  0  0  0  0  0
  -24.9890  -11.8140   21.4490 C   0  0  0  0  0  2  0  0  0  0  0  0
  -27.3780  -13.6460   20.2590 N   0  0  0  0  0  2  0  0  0  0  0  0
  -25.6210  -13.1330   20.9840 N   0  0  0  0  0  0  0  0  0  0  0  0
  -24.1780  -10.4840   21.0890 C   0  0  0  0  0  3  0  0  0  0  0  0
  -24.5110   -9.2240   21.7060 C   0  0  0  0  0  3  0  0  0  0  0  0
  -23.6690   -8.0650   21.6890 C   0  0  0  0  0  3  0  0  0  0  0  0
  -22.4120   -8.0950   21.0390 C   0  0  0  0  0  0  0  0  0  0  0  0
  -22.1090   -9.2840   20.3340 C   0  0  0  0  0  3  0  0  0  0  0  0
  -22.9680  -10.4260   20.3380 C   0  0  0  0  0  3  0  0  0  0  0  0
  -21.4970   -7.0430   21.0170 O   0  0  0  0  0  0  0  0  0  0  0  0
  -21.5150   -5.9870   21.9160 C   0  0  0  0  0  0  0  0  0  0  0  0
  -21.3240   -6.1710   23.3040 C   0  0  0  0  0  3  0  0  0  0  0  0
  -21.3040   -5.0610   24.1780 C   0  0  0  0  0  3  0  0  0  0  0  0
  -21.4550   -3.7550   23.6730 C   0  0  0  0  0  0  0  0  0  0  0  0
  -21.6170   -3.5630   22.2910 C   0  0  0  0  0  3  0  0  0  0  0  0
  -21.6370   -4.6700   21.4180 C   0  0  0  0  0  0  0  0  0  0  0  0
  -21.7730   -4.4550   20.0880 F   0  0  0  0  0  0  0  0  0  0  0  0
  -21.4420   -2.6880   24.5070 F   0  0  0  0  0  0  0  0  0  0  0  0
  -23.2800  -13.6120   21.6390 C   0  0  0  0  0  0  0  0  0  0  0  0
  -22.5040  -12.8440   22.3970 N   0  0  0  0  0  0  0  0  0  0  0  0
  -22.9690  -14.6900   21.1530 O   0  0  0  0  0  0  0  0  0  0  0  0
  -22.8430  -11.9810   22.7940 H   0  0  0  0  0  0  0  0  0  0  0  0
  -21.5550  -13.1210   22.5950 H   0  0  0  0  0  0  0  0  0  0  0  0
  -27.5460  -14.0820   20.2110 N   0  0  0  0  0  1  0  0  0  0  0  0
  -28.2240  -13.6180   20.8420 H   0  0  0  0  0  0  0  0  0  0  0  0
  -27.4710  -15.0650   20.5290 H   0  0  0  0  0  0  0  0  0  0  0  0
  -26.5030  -17.6230   19.0940 C   0  0  0  0  0 15  0  0  0  0  0  0
  -27.4220  -19.4850   18.4220 C   0  0  0  0  0 15  0  0  0  0  0  0
  -27.4290  -21.6680   18.2810 C   0  0  0  0  0 15  0  0  0  0  0  0
  -28.3260  -23.4170   18.2530 O   0  0  0  0  0  1  0  0  0  0  0  0
  -26.5260  -29.3610   23.2850 C   0  0  0  0  0  0  0  0  0  0  0  0
  -28.0230  -24.9680   18.6640 C   0  0  0  0  0  0  0  0  0  0  0  0
  -25.2590  -28.7770   21.2830 C   0  0  0  0  0  3  0  0  0  0  0  0
  -26.4850  -27.5430   19.3390 C   0  0  0  0  0  0  0  0  0  0  0  0
  -27.8190  -28.4370   21.2130 C   0  0  0  0  0  2  0  0  0  0  0  0
  -27.6450  -27.3120   20.0780 C   0  0  0  0  0  0  0  0  0  0  0  0
  -28.4270  -26.0530   19.7170 C   0  0  0  0  0  3  0  0  0  0  0  0
  -27.0260  -25.5820   17.8930 C   0  0  0  0  0  3  0  0  0  0  0  0
  -26.2650  -26.7370   18.2180 C   0  0  0  0  0  3  0  0  0  0  0  0
  -25.4780  -28.6270   19.7510 C   0  0  0  0  0  2  0  0  0  0  0  0
  -26.5730  -28.8870   21.9870 N   0  0  0  0  0  0  0  0  0  0  0  0
  -25.4500  -29.6180   23.8570 O   0  0  0  0  0  0  0  0  0  0  0  0
  -24.3940  -27.6110   21.8380 C   0  0  0  0  0  0  0  0  0  0  0  0
  -23.0600  -27.6590   21.6530 N   0  0  0  0  0  0  0  0  0  0  0  0
  -24.9350  -26.6700   22.4260 O   0  0  0  0  0  0  0  0  0  0  0  0
  -22.6730  -28.4660   21.1820 H   0  0  0  0  0  0  0  0  0  0  0  0
  -19.5620  -26.6720   21.5930 C   0  0  0  0  0  0  0  0  0  0  0  0
  -22.1080  -26.6140   22.0550 C   0  0  0  0  0  3  0  0  0  0  0  0
  -22.1490  -25.4220   21.0710 C   0  0  0  0  0  2  0  0  0  0  0  0
  -21.1110  -25.5290   19.9500 C   0  0  0  0  0  2  0  0  0  0  0  0
  -19.6970  -25.5920   20.5340 C   0  0  0  0  0  2  0  0  0  0  0  0
  -20.6950  -27.1640   22.2950 C   0  0  0  0  0  0  0  0  0  0  0  0
  -20.5150  -28.1880   23.2510 C   0  0  0  0  0  3  0  0  0  0  0  0
  -19.2370  -28.7180   23.5060 C   0  0  0  0  0  3  0  0  0  0  0  0
  -18.1170  -28.2190   22.8150 C   0  0  0  0  0  3  0  0  0  0  0  0
  -18.2810  -27.1960   21.8640 C   0  0  0  0  0  3  0  0  0  0  0  0
  -27.8130  -29.6190   24.1250 C   0  0  0  0  0  3  0  0  0  0  0  0
  -27.6020  -30.8360   24.9430 N   0  0  0  0  0  0  0  0  0  0  0  0
  -28.2640  -31.9940   24.8110 C   0  0  0  0  0  0  0  0  0  0  0  0
  -29.1730  -32.1430   23.9910 O   0  0  0  0  0  0  0  0  0  0  0  0
  -26.8310  -30.8030   25.5950 H   0  0  0  0  0  0  0  0  0  0  0  0
  -27.1460  -34.2560   24.9050 C   0  0  0  0  0  1  0  0  0  0  0  0
  -27.8630  -33.1730   25.7280 C   0  0  0  0  0  3  0  0  0  0  0  0
  -29.5630  -32.9140   27.4850 C   0  0  0  0  0  1  0  0  0  0  0  0
  -29.0060  -33.7800   26.4500 N   0  0  0  0  0  0  0  0  0  0  0  0
  -28.7320  -34.6570   26.8840 H   0  0  0  0  0  0  0  0  0  0  0  0
  -28.1790  -28.4140   25.0810 C   0  0  1  0  0  0  0  0  0  0  0  0
  -26.9970  -27.9250   25.9530 C   0  0  0  0  0  1  0  0  0  0  0  0
  -28.6920  -27.1980   24.2830 C   0  0  0  0  0  1  0  0  0  0  0  0
  -29.3320  -28.8280   26.0260 C   0  0  0  0  0  1  0  0  0  0  0  0
  5  6  1  0
  9  8  1  0
 10  9  1  0
 11 19  1  0
 11 17  1  0
 12 17  1  0
 13 14  1  0
 13 12  1  0
 14 15  1  0
 15 16  1  0
 17 16  1  0
 18 11  2  0
 19 10  1  0
 20 19  1  0
 21 25  2  0
 22 23  2  0
 22 41  1  0
 24 47  1  0
 25 22  1  0
 26 27  1  0
 28 27  2  0
 29 28  1  0
 30 31  1  0
 30 29  2  0
 31 26  2  0
 32 29  1  0
 32 33  1  0
 33 34  1  0
 34 35  2  0
 36 35  1  0
 36 40  1  0
 37 36  2  0
 38 33  2  0
 38 37  1  0
 39 38  1  0
 41 42  1  0
 42 45  1  0
 42 44  1  0
 43 41  2  0
 46 24  1  0
 48  3  1  0
 52 54  1  0
 53 64  2  0
 54 59  1  0
 55 65  1  0
 55 63  1  0
 56 62  1  0
 56 58  1  0
 57 63  1  0
 58 57  1  0
 59 58  2  0
 60 61  1  0
 60 54  2  0
 61 56  2  0
 62 55  1  0
 63 53  1  0
 65 67  2  0
 66 65  1  0
 68 66  1  0
 69 78  2  0
 69 74  1  0
 70 66  1  0
 70 74  1  0
 71 70  1  0
 72 73  1  0
 72 71  1  0
 73 69  1  0
 74 75  2  0
 75 76  1  0
 77 76  2  0
 78 77  1  0
 79 53  1  0
 79 80  1  0
 79 89  1  0
 80 83  1  0
 81 80  1  0
 81 85  1  0
 82 81  2  0
 85 84  1  0
 85 87  1  0
 87 88  1  0
 87 86  1  0
 89 90  1  1
 89 92  1  0
 91 89  1  0
M  ISO  4  11 100  19 100  51 101  52 101
M  END
>  <TORSDO>  (6) 
F 22

>  <SCORE>  (6) 
-5.066

>  <name>  (6) 
5

>  <ligand_id>  (6) 
5

>  <original_smiles>  (6) 
[H]c1nc(C([H])([H])[H])c([H])c(C([H])([H])C([H])([H])C([H])([H])N([H])C(=O)N2C([H])([H])C([H])([H])C([H])([H])C([H])(n3nc(-c4c([H])c([H])c(Oc5c([H])c([H])c(F)c([H])c5F)c([H])c4[H])c(C(=O)N([H])[H])c3N([H])[H])C2([H])[H])c1C([H])([H])C([H])([H])C([H])([H])Oc1c([H])c([H])c2c(c1[H])C([H])([H])N(C(=O)C([H])(N([H])C(=O)C([H])(N([H])C([H])([H])[H])C([H])([H])[H])C(C([H])([H])[H])(C([H])([H])[H])C([H])([H])[H])C([H])(C(=O)N([H])C1([H])c3c([H])c([H])c([H])c([H])c3C([H])([H])C([H])([H])C1([H])[H])C2([H])[H]

>  <smiles>  (6) 
[H]c1nc(C([H])([H])[H])c([H])c(C([H])([H])C([H])([H])C([H])([H])N([H])C(=O)N2C([H])([H])C([H])([H])C([H])([H])C([H])(n3nc(-c4c([H])c([H])c(Oc5c([H])c([H])c(F)c([H])c5F)c([H])c4[H])c(C(=O)N([H])[H])c3N([H])[H])C2([H])[H])c1C([H])([H])C([H])([H])C([H])([H])Oc1c([H])c([H])c2c(c1[H])C([H])([H])N(C(=O)C([H])(N([H])C(=O)C([H])(N([H])C([H])([H])[H])C([H])([H])[H])C(C([H])([H])[H])(C([H])([H])[H])C([H])([H])[H])C([H])(C(=O)N([H])C1([H])c3c([H])c([H])c([H])c([H])c3C([H])([H])C([H])([H])C1([H])[H])C2([H])[H]

$$$$
6:0:0
     RDKit          3D

 92100  0  0  1  0  0  0  0  0999 V2000
  -31.5210  -21.3670   21.4120 C   0  0  0  0  0  3  0  0  0  0  0  0
  -29.1560  -21.3630   20.9090 C   0  0  0  0  0  3  0  0  0  0  0  0
  -30.2630  -20.7420   21.5200 C   0  0  0  0  0  0  0  0  0  0  0  0
  -31.6220  -22.5790   20.7090 C   0  0  0  0  0  0  0  0  0  0  0  0
  -29.3520  -22.5680   20.2060 C   0  0  0  0  0  0  0  0  0  0  0  0
  -32.9600  -23.2630   20.5260 C   0  0  0  0  0  1  0  0  0  0  0  0
  -30.5600  -23.1720   20.1260 N   0  0  0  0  0  0  0  0  0  0  0  0
  -30.1340  -19.3840   22.1910 C   0  0  0  0  0  2  0  0  0  0  0  0
  -30.6170  -18.2830   21.2350 C   0  0  0  0  0  2  0  0  0  0  0  0
  -30.4670  -16.8340   21.7340 C   0  0  0  0  0  2  0  0  0  0  0  0
  -31.0920  -15.8940   20.6890 C   0  0  0  0  0  2  0  0  0  0  0  0
  -31.0160  -13.6030   19.8380 C   0  0  0  0  0  0  0  0  0  0  0  0
  -30.3550  -11.6390   18.5130 C   0  0  0  0  0  2  0  0  0  0  0  0
  -29.2980  -12.0640   17.4760 C   0  0  0  0  0  2  0  0  0  0  0  0
  -27.8810  -12.0110   18.0840 C   0  0  0  0  0  2  0  0  0  0  0  0
  -27.7910  -12.7310   19.4560 C   0  0  0  0  0  3  0  0  0  0  0  0
  -28.9420  -12.2790   20.3840 C   0  0  0  0  0  2  0  0  0  0  0  0
  -30.2160  -12.5190   19.6850 N   0  0  0  0  0  0  0  0  0  0  0  0
  -32.0240  -13.8010   19.1530 O   0  0  0  0  0  0  0  0  0  0  0  0
  -30.5830  -14.5260   20.7090 N   0  0  0  0  0  0  0  0  0  0  0  0
  -29.7630  -14.3110   21.2580 H   0  0  0  0  0  0  0  0  0  0  0  0
  -25.5310  -13.4630   20.4560 C   0  0  0  0  0  0  0  0  0  0  0  0
  -24.4690  -12.7440   20.9360 C   0  0  0  0  0  0  0  0  0  0  0  0
  -24.8380  -11.3690   20.8190 C   0  0  0  0  0  0  0  0  0  0  0  0
  -26.4860  -12.5280   20.0820 N   0  0  0  0  0  0  0  0  0  0  0  0
  -26.0770  -11.2620   20.3560 N   0  0  0  0  0  0  0  0  0  0  0  0
  -24.0640  -10.1450   21.0700 C   0  0  0  0  0  0  0  0  0  0  0  0
  -24.5020   -9.1720   21.9950 C   0  0  0  0  0  3  0  0  0  0  0  0
  -23.7310   -8.0130   22.2310 C   0  0  0  0  0  3  0  0  0  0  0  0
  -22.5100   -7.8200   21.5430 C   0  0  0  0  0  0  0  0  0  0  0  0
  -22.0910   -8.7810   20.6050 C   0  0  0  0  0  3  0  0  0  0  0  0
  -22.8620   -9.9310   20.3660 C   0  0  0  0  0  3  0  0  0  0  0  0
  -21.7080   -6.7140   21.6890 O   0  0  0  0  0  0  0  0  0  0  0  0
  -21.6250   -6.0370   22.8800 C   0  0  0  0  0  0  0  0  0  0  0  0
  -21.1390   -6.6510   24.0550 C   0  0  0  0  0  3  0  0  0  0  0  0
  -21.0080   -5.8990   25.2400 C   0  0  0  0  0  3  0  0  0  0  0  0
  -21.3500   -4.5340   25.2490 C   0  0  0  0  0  0  0  0  0  0  0  0
  -21.8290   -3.9200   24.0790 C   0  0  0  0  0  3  0  0  0  0  0  0
  -21.9640   -4.6680   22.8970 C   0  0  0  0  0  0  0  0  0  0  0  0
  -22.4060   -4.0670   21.7660 F   0  0  0  0  0  0  0  0  0  0  0  0
  -21.2140   -3.8090   26.3840 F   0  0  0  0  0  0  0  0  0  0  0  0
  -23.1470  -13.2950   21.3870 C   0  0  0  0  0  0  0  0  0  0  0  0
  -22.4860  -12.6170   22.3200 N   0  0  0  0  0  0  0  0  0  0  0  0
  -22.7130  -14.3580   20.9460 O   0  0  0  0  0  0  0  0  0  0  0  0
  -22.8540  -11.7580   22.7010 H   0  0  0  0  0  0  0  0  0  0  0  0
  -21.6020  -12.9670   22.6600 H   0  0  0  0  0  0  0  0  0  0  0  0
  -25.7600  -14.8270   20.2900 N   0  0  0  0  0  0  0  0  0  0  0  0
  -25.0550  -15.5260   20.5020 H   0  0  0  0  0  0  0  0  0  0  0  0
  -26.5970  -15.2190   19.8750 H   0  0  0  0  0  0  0  0  0  0  0  0
  -28.2240  -23.2330   19.4360 C   0  0  0  0  0  2  0  0  0  0  0  0
  -27.5230  -24.3680   20.1970 C   0  0  0  0  0  2  0  0  0  0  0  0
  -27.5260  -25.5360   19.3800 O   0  0  0  0  0  0  0  0  0  0  0  0
  -24.9420  -30.7690   23.4520 C   0  0  0  0  0  0  0  0  0  0  0  0
  -26.5150  -26.4310   19.6210 C   0  0  0  0  0  0  0  0  0  0  0  0
  -23.4180  -29.9050   21.7080 C   0  0  0  0  0  3  0  0  0  0  0  0
  -24.4730  -28.3360   19.9970 C   0  0  0  0  0  0  0  0  0  0  0  0
  -25.9530  -29.7870   21.3970 C   0  0  0  0  0  2  0  0  0  0  0  0
  -25.7340  -28.5370   20.5750 C   0  0  0  0  0  0  0  0  0  0  0  0
  -26.7630  -27.5890   20.3840 C   0  0  0  0  0  3  0  0  0  0  0  0
  -25.2430  -26.2340   19.0480 C   0  0  0  0  0  3  0  0  0  0  0  0
  -24.2190  -27.1810   19.2350 C   0  0  0  0  0  3  0  0  0  0  0  0
  -23.4340  -29.4070   20.2380 C   0  0  0  0  0  2  0  0  0  0  0  0
  -24.7950  -30.1540   22.2460 N   0  0  0  0  0  0  0  0  0  0  0  0
  -23.9600  -31.1680   24.0920 O   0  0  0  0  0  0  0  0  0  0  0  0
  -22.6020  -28.8990   22.5520 C   0  0  0  0  0  0  0  0  0  0  0  0
  -21.2670  -28.9480   22.4110 N   0  0  0  0  0  0  0  0  0  0  0  0
  -23.1660  -28.0830   23.2850 O   0  0  0  0  0  0  0  0  0  0  0  0
  -20.8800  -29.6480   21.7930 H   0  0  0  0  0  0  0  0  0  0  0  0
  -17.7470  -28.1980   22.6960 C   0  0  0  0  0  0  0  0  0  0  0  0
  -20.3000  -28.0760   23.0750 C   0  0  0  0  0  3  0  0  0  0  0  0
  -20.2360  -26.6930   22.3870 C   0  0  0  0  0  2  0  0  0  0  0  0
  -19.1460  -26.6050   21.3150 C   0  0  0  0  0  2  0  0  0  0  0  0
  -17.7690  -26.8910   21.9220 C   0  0  0  0  0  2  0  0  0  0  0  0
  -18.9370  -28.7620   23.2240 C   0  0  0  0  0  0  0  0  0  0  0  0
  -18.8670  -29.9970   23.9060 C   0  0  0  0  0  3  0  0  0  0  0  0
  -17.6360  -30.6600   24.0680 C   0  0  0  0  0  3  0  0  0  0  0  0
  -16.4580  -30.0880   23.5560 C   0  0  0  0  0  3  0  0  0  0  0  0
  -16.5140  -28.8590   22.8760 C   0  0  0  0  0  3  0  0  0  0  0  0
  -26.3490  -31.0250   24.0760 C   0  0  0  0  0  3  0  0  0  0  0  0
  -26.3640  -32.4050   24.5780 N   0  0  0  0  0  0  0  0  0  0  0  0
  -26.9580  -33.4330   23.9570 C   0  0  0  0  0  0  0  0  0  0  0  0
  -27.6230  -33.3000   22.9250 O   0  0  0  0  0  0  0  0  0  0  0  0
  -25.7860  -32.5980   25.3850 H   0  0  0  0  0  0  0  0  0  0  0  0
  -25.7120  -35.6140   23.8180 C   0  0  0  0  0  1  0  0  0  0  0  0
  -26.7920  -34.8310   24.5820 C   0  0  0  0  0  3  0  0  0  0  0  0
  -29.0330  -35.0880   25.5530 C   0  0  0  0  0  1  0  0  0  0  0  0
  -28.0470  -35.6150   24.6120 N   0  0  0  0  0  0  0  0  0  0  0  0
  -27.8590  -36.5840   24.8570 H   0  0  0  0  0  0  0  0  0  0  0  0
  -26.7170  -30.0060   25.2240 C   0  0  1  0  0  0  0  0  0  0  0  0
  -25.6240  -29.8760   26.3100 C   0  0  0  0  0  1  0  0  0  0  0  0
  -26.9750  -28.5970   24.6390 C   0  0  0  0  0  1  0  0  0  0  0  0
  -28.0330  -30.4440   25.9090 C   0  0  0  0  0  1  0  0  0  0  0  0
  1  3  1  0
  2  3  2  0
  3  8  1  0
  4  1  2  0
  5  2  1  0
  6  4  1  0
  7  5  2  0
  7  4  1  0
  9 10  1  0
  9  8  1  0
 11 20  1  0
 11 10  1  0
 12 20  1  0
 13 18  1  0
 14 15  1  0
 14 13  1  0
 16 15  1  0
 16 25  1  0
 16 17  1  0
 18 12  1  0
 18 17  1  0
 19 12  2  0
 20 21  1  0
 22 23  2  0
 23 42  1  0
 24 23  1  0
 24 27  1  0
 25 26  1  0
 25 22  1  0
 26 24  2  0
 27 28  1  0
 28 29  2  0
 30 33  1  0
 30 29  1  0
 31 30  2  0
 32 31  1  0
 32 27  2  0
 33 34  1  0
 34 39  2  0
 34 35  1  0
 35 36  2  0
 36 37  1  0
 37 41  1  0
 38 37  2  0
 39 38  1  0
 40 39  1  0
 42 43  1  0
 43 46  1  0
 43 45  1  0
 44 42  2  0
 47 22  1  0
 47 48  1  0
 49 47  1  0
 50 51  1  0
 50  5  1  0
 52 54  1  0
 52 51  1  0
 53 64  2  0
 54 59  1  0
 55 63  1  0
 55 65  1  0
 56 62  1  0
 56 58  1  0
 57 63  1  0
 58 57  1  0
 59 58  2  0
 60 61  1  0
 60 54  2  0
 61 56  2  0
 62 55  1  0
 63 53  1  0
 65 67  2  0
 66 65  1  0
 68 66  1  0
 69 78  2  0
 69 74  1  0
 70 66  1  0
 70 74  1  0
 71 70  1  0
 72 73  1  0
 72 71  1  0
 73 69  1  0
 74 75  2  0
 75 76  1  0
 77 76  2  0
 78 77  1  0
 79 53  1  0
 79 80  1  0
 79 89  1  0
 80 83  1  0
 81 80  1  0
 81 85  1  0
 82 81  2  0
 85 84  1  0
 85 87  1  0
 87 88  1  0
 87 86  1  0
 89 92  1  1
 89 90  1  0
 91 89  1  0
M  ISO  4  12 100  20 100  51 101  52 101
M  END
>  <TORSDO>  (7) 
F 22

>  <SCORE>  (7) 
-10.066

>  <name>  (7) 
6

>  <ligand_id>  (7) 
6

>  <original_smiles>  (7) 
[H]c1c([H])c([H])c2c(c1[H])C([H])([H])C([H])([H])C([H])([H])C2([H])N([H])C(=O)C1([H])N(C(=O)C([H])(N([H])C(=O)C([H])(N([H])C([H])([H])[H])C([H])([H])[H])C(C([H])([H])[H])(C([H])([H])[H])C([H])([H])[H])C([H])([H])c2c([H])c(OC([H])([H])C([H])([H])c3nc(C([H])([H])[H])c([H])c(C([H])([H])C([H])([H])C([H])([H])C([H])([H])N([H])C(=O)N4C([H])([H])C([H])([H])C([H])([H])C([H])(n5nc(-c6c([H])c([H])c(Oc7c([H])c([H])c(F)c([H])c7F)c([H])c6[H])c(C(=O)N([H])[H])c5N([H])[H])C4([H])[H])c3[H])c([H])c([H])c2C1([H])[H]

>  <smiles>  (7) 
[H]c1c([H])c([H])c2c(c1[H])C([H])([H])C([H])([H])C([H])([H])C2([H])N([H])C(=O)C1([H])N(C(=O)C([H])(N([H])C(=O)C([H])(N([H])C([H])([H])[H])C([H])([H])[H])C(C([H])([H])[H])(C([H])([H])[H])C([H])([H])[H])C([H])([H])c2c([H])c(OC([H])([H])C([H])([H])c3nc(C([H])([H])[H])c([H])c(C([H])([H])C([H])([H])C([H])([H])C([H])([H])N([H])C(=O)N4C([H])([H])C([H])([H])C([H])([H])C([H])(n5nc(-c6c([H])c([H])c(Oc7c([H])c([H])c(F)c([H])c7F)c([H])c6[H])c(C(=O)N([H])[H])c5N([H])[H])C4([H])[H])c3[H])c([H])c([H])c2C1([H])[H]

$$$$
7:0:0
     RDKit          3D

 93102  0  0  1  0  0  0  0  0999 V2000
  -29.5670  -23.0130   20.6110 C   0  0  0  0  0  2  0  0  0  0  0  0
  -27.4980  -23.1150   19.1800 C   0  0  0  0  0  2  0  0  0  0  0  0
  -29.1810  -24.4860   20.9740 C   0  0  0  0  0  2  0  0  0  0  0  0
  -27.6020  -24.6160   19.0490 C   0  0  0  0  0  2  0  0  0  0  0  0
  -28.8080  -22.3870   19.4060 C   0  0  0  0  0  3  0  0  0  0  0  0
  -28.7560  -25.3390   19.7660 C   0  0  0  0  0  3  0  0  0  0  0  0
  -29.3900  -20.0090   20.2460 C   0  0  0  0  0  3  0  0  0  0  0  0
  -28.6040  -20.8870   19.5430 C   0  0  0  0  0  0  0  0  0  0  0  0
  -28.7220  -18.7550   20.1310 C   0  0  0  0  0  0  0  0  0  0  0  0
  -26.3900  -20.4250   18.1720 C   0  0  0  0  0  1  0  0  0  0  0  0
  -27.6680  -18.8340   19.3470 N   0  0  0  0  0  0  0  0  0  0  0  0
  -27.5650  -20.1180   18.9860 N   0  0  0  0  0  0  0  0  0  0  0  0
  -28.9850  -17.4120   20.7310 C   0  0  0  0  0  2  0  0  0  0  0  0
  -30.2540  -16.7110   20.2430 C   0  0  0  0  0  2  0  0  0  0  0  0
  -30.9390  -14.3630   20.3310 C   0  0  0  0  0  0  0  0  0  0  0  0
  -30.6140  -12.1450   19.3490 C   0  0  0  0  0  2  0  0  0  0  0  0
  -29.6830  -12.2760   18.1290 C   0  0  0  0  0  2  0  0  0  0  0  0
  -28.2030  -12.2200   18.5520 C   0  0  0  0  0  2  0  0  0  0  0  0
  -27.8740  -13.1660   19.7400 C   0  0  0  0  0  3  0  0  0  0  0  0
  -28.9130  -12.9730   20.8770 C   0  0  0  0  0  2  0  0  0  0  0  0
  -30.2590  -13.1930   20.3120 N   0  0  0  0  0  0  0  0  0  0  0  0
  -32.0270  -14.5500   19.7780 O   0  0  0  0  0  0  0  0  0  0  0  0
  -30.2390  -15.3760   20.8240 N   0  0  0  0  0  0  0  0  0  0  0  0
  -29.4040  -15.1020   21.3230 H   0  0  0  0  0  0  0  0  0  0  0  0
  -25.4780  -13.8870   20.4040 C   0  0  0  0  0  0  0  0  0  0  0  0
  -24.3740  -13.1670   20.7630 C   0  0  0  0  0  0  0  0  0  0  0  0
  -24.7840  -11.7960   20.7600 C   0  0  0  0  0  0  0  0  0  0  0  0
  -26.4980  -12.9650   20.2060 N   0  0  0  0  0  0  0  0  0  0  0  0
  -26.0770  -11.7040   20.4750 N   0  0  0  0  0  0  0  0  0  0  0  0
  -24.0090  -10.5650   20.9490 C   0  0  0  0  0  0  0  0  0  0  0  0
  -24.3880   -9.6020   21.9080 C   0  0  0  0  0  3  0  0  0  0  0  0
  -23.6190   -8.4330   22.0930 C   0  0  0  0  0  3  0  0  0  0  0  0
  -22.4560   -8.2200   21.3140 C   0  0  0  0  0  0  0  0  0  0  0  0
  -22.0960   -9.1730   20.3420 C   0  0  0  0  0  3  0  0  0  0  0  0
  -22.8660  -10.3320   20.1560 C   0  0  0  0  0  3  0  0  0  0  0  0
  -21.6610   -7.1040   21.4030 O   0  0  0  0  0  0  0  0  0  0  0  0
  -21.5500   -6.3890   22.5680 C   0  0  0  0  0  0  0  0  0  0  0  0
  -21.1060   -6.9860   23.7690 C   0  0  0  0  0  3  0  0  0  0  0  0
  -20.9410   -6.2000   24.9260 C   0  0  0  0  0  3  0  0  0  0  0  0
  -21.2080   -4.8190   24.8850 C   0  0  0  0  0  0  0  0  0  0  0  0
  -21.6460   -4.2230   23.6900 C   0  0  0  0  0  3  0  0  0  0  0  0
  -21.8130   -5.0040   22.5330 C   0  0  0  0  0  0  0  0  0  0  0  0
  -22.2130   -4.4190   21.3780 F   0  0  0  0  0  0  0  0  0  0  0  0
  -21.0420   -4.0620   25.9950 F   0  0  0  0  0  0  0  0  0  0  0  0
  -22.9890  -13.6990   21.0160 C   0  0  0  0  0  0  0  0  0  0  0  0
  -22.2290  -13.0490   21.8870 N   0  0  0  0  0  0  0  0  0  0  0  0
  -22.5900  -14.7240   20.4640 O   0  0  0  0  0  0  0  0  0  0  0  0
  -22.5680  -12.2220   22.3560 H   0  0  0  0  0  0  0  0  0  0  0  0
  -21.2970  -13.3850   22.0940 H   0  0  0  0  0  0  0  0  0  0  0  0
  -25.6920  -15.2520   20.2130 N   0  0  0  0  0  0  0  0  0  0  0  0
  -24.9530  -15.9330   20.3360 H   0  0  0  0  0  0  0  0  0  0  0  0
  -26.5690  -15.6810   19.9530 H   0  0  0  0  0  0  0  0  0  0  0  0
  -28.5880  -26.7360   20.1660 O   0  0  0  0  0  0  0  0  0  0  0  0
  -24.4880  -31.7640   23.1290 C   0  0  0  0  0  0  0  0  0  0  0  0
  -27.3990  -27.4540   20.0760 C   0  0  0  0  0  0  0  0  0  0  0  0
  -23.4040  -30.3460   21.4350 C   0  0  0  0  0  3  0  0  0  0  0  0
  -24.9610  -28.9130   20.0430 C   0  0  0  0  0  0  0  0  0  0  0  0
  -25.9280  -30.7790   21.3670 C   0  0  0  0  0  2  0  0  0  0  0  0
  -26.0790  -29.4270   20.7080 C   0  0  0  0  0  0  0  0  0  0  0  0
  -27.2880  -28.6890   20.7650 C   0  0  0  0  0  3  0  0  0  0  0  0
  -26.2910  -27.0680   19.2830 C   0  0  0  0  0  3  0  0  0  0  0  0
  -25.0570  -27.7170   19.3410 C   0  0  0  0  0  3  0  0  0  0  0  0
  -23.6860  -29.7140   20.0540 C   0  0  0  0  0  2  0  0  0  0  0  0
  -24.6220  -30.9770   22.0310 N   0  0  0  0  0  0  0  0  0  0  0  0
  -23.3760  -31.9920   23.6250 O   0  0  0  0  0  0  0  0  0  0  0  0
  -22.7520  -29.2810   22.3450 C   0  0  0  0  0  0  0  0  0  0  0  0
  -21.4280  -29.0940   22.2040 N   0  0  0  0  0  0  0  0  0  0  0  0
  -23.4380  -28.6170   23.1250 O   0  0  0  0  0  0  0  0  0  0  0  0
  -20.9290  -29.6750   21.5420 H   0  0  0  0  0  0  0  0  0  0  0  0
  -18.0490  -27.9260   22.6800 C   0  0  0  0  0  0  0  0  0  0  0  0
  -20.6180  -28.1190   22.9320 C   0  0  0  0  0  3  0  0  0  0  0  0
  -20.6820  -26.7240   22.2770 C   0  0  0  0  0  2  0  0  0  0  0  0
  -19.5680  -26.5010   21.2490 C   0  0  0  0  0  2  0  0  0  0  0  0
  -18.1940  -26.6140   21.9190 C   0  0  0  0  0  2  0  0  0  0  0  0
  -19.1890  -28.6450   23.1410 C   0  0  0  0  0  0  0  0  0  0  0  0
  -19.0030  -29.8760   23.8090 C   0  0  0  0  0  3  0  0  0  0  0  0
  -17.7080  -30.3800   24.0230 C   0  0  0  0  0  3  0  0  0  0  0  0
  -16.5840  -29.6640   23.5840 C   0  0  0  0  0  3  0  0  0  0  0  0
  -16.7540  -28.4320   22.9180 C   0  0  0  0  0  3  0  0  0  0  0  0
  -25.7290  -32.4290   23.8050 C   0  0  0  0  0  3  0  0  0  0  0  0
  -26.2220  -31.6570   25.0880 C   0  0  1  0  0  0  0  0  0  0  0  0
  -25.0930  -31.3620   26.1050 C   0  0  0  0  0  1  0  0  0  0  0  0
  -26.8770  -30.3090   24.7050 C   0  0  0  0  0  1  0  0  0  0  0  0
  -27.3130  -32.4880   25.8040 C   0  0  0  0  0  1  0  0  0  0  0  0
  -25.3570  -33.8120   24.1330 N   0  0  0  0  0  0  0  0  0  0  0  0
  -25.6910  -34.8810   23.3980 C   0  0  0  0  0  0  0  0  0  0  0  0
  -26.4190  -34.8140   22.4040 O   0  0  0  0  0  0  0  0  0  0  0  0
  -24.7020  -33.9360   24.8920 H   0  0  0  0  0  0  0  0  0  0  0  0
  -23.9260  -36.6180   22.9690 C   0  0  0  0  0  1  0  0  0  0  0  0
  -25.1370  -36.2490   23.8390 C   0  0  0  0  0  3  0  0  0  0  0  0
  -27.1940  -37.1890   24.7870 C   0  0  0  0  0  1  0  0  0  0  0  0
  -26.1390  -37.3360   23.7870 N   0  0  0  0  0  0  0  0  0  0  0  0
  -25.6970  -38.2410   23.9280 H   0  0  0  0  0  0  0  0  0  0  0  0
  1  3  1  0
  2  5  1  0
  4  2  1  0
  4  6  1  0
  5  8  1  0
  5  1  1  0
  6 53  1  0
  6  3  1  0
  8  7  2  0
  9  7  1  0
  9 13  1  0
 10 12  1  0
 11  9  2  0
 12 11  1  0
 12  8  1  0
 14 13  1  0
 14 23  1  0
 15 23  1  0
 16 21  1  0
 17 18  1  0
 17 16  1  0
 19 18  1  0
 19 28  1  0
 19 20  1  0
 21 15  1  0
 21 20  1  0
 22 15  2  0
 23 24  1  0
 25 26  2  0
 26 45  1  0
 27 26  1  0
 27 30  1  0
 28 25  1  0
 28 29  1  0
 29 27  2  0
 30 31  1  0
 31 32  2  0
 33 36  1  0
 33 32  1  0
 34 33  2  0
 35 34  1  0
 35 30  2  0
 36 37  1  0
 37 38  1  0
 38 39  2  0
 40 39  1  0
 40 44  1  0
 41 40  2  0
 42 37  2  0
 42 41  1  0
 43 42  1  0
 45 46  1  0
 46 49  1  0
 46 48  1  0
 47 45  2  0
 50 51  1  0
 50 25  1  0
 52 50  1  0
 54 65  2  0
 55 53  1  0
 55 60  1  0
 56 64  1  0
 56 66  1  0
 57 63  1  0
 57 59  1  0
 58 64  1  0
 59 60  2  0
 59 58  1  0
 61 62  1  0
 61 55  2  0
 62 57  2  0
 63 56  1  0
 64 54  1  0
 66 68  2  0
 67 66  1  0
 69 67  1  0
 70 79  2  0
 70 75  1  0
 71 67  1  0
 71 75  1  0
 72 71  1  0
 73 74  1  0
 73 72  1  0
 74 70  1  0
 75 76  2  0
 76 77  1  0
 78 77  2  0
 79 78  1  0
 80 54  1  0
 80 85  1  0
 80 81  1  0
 81 84  1  1
 81 82  1  0
 83 81  1  0
 85 88  1  0
 86 90  1  0
 86 85  1  0
 87 86  2  0
 90 89  1  0
 92 90  1  0
 92 93  1  0
 92 91  1  0
M  ISO  4   6 101  15 100  23 100  53 101
M  END
>  <TORSDO>  (8) 
F 19

>  <SCORE>  (8) 
-14.388

>  <name>  (8) 
7

>  <ligand_id>  (8) 
7

>  <original_smiles>  (8) 
[H]c1c([H])c([H])c2c(c1[H])C([H])([H])C([H])([H])C([H])([H])C2([H])N([H])C(=O)C1([H])N(C(=O)C([H])(N([H])C(=O)C([H])(N([H])C([H])([H])[H])C([H])([H])[H])C(C([H])([H])[H])(C([H])([H])[H])C([H])([H])[H])C([H])([H])c2c([H])c(OC3([H])C([H])([H])C([H])([H])C([H])(c4c([H])c(C([H])([H])C([H])([H])N([H])C(=O)N5C([H])([H])C([H])([H])C([H])([H])C([H])(n6nc(-c7c([H])c([H])c(Oc8c([H])c([H])c(F)c([H])c8F)c([H])c7[H])c(C(=O)N([H])[H])c6N([H])[H])C5([H])[H])nn4C([H])([H])[H])C([H])([H])C3([H])[H])c([H])c([H])c2C1([H])[H]

>  <smiles>  (8) 
[H]c1c([H])c([H])c2c(c1[H])C([H])([H])C([H])([H])C([H])([H])C2([H])N([H])C(=O)C1([H])N(C(=O)C([H])(N([H])C(=O)C([H])(N([H])C([H])([H])[H])C([H])([H])[H])C(C([H])([H])[H])(C([H])([H])[H])C([H])([H])[H])C([H])([H])c2c([H])c(OC3([H])C([H])([H])C([H])([H])C([H])(c4c([H])c(C([H])([H])C([H])([H])N([H])C(=O)N5C([H])([H])C([H])([H])C([H])([H])C([H])(n6nc(-c7c([H])c([H])c(Oc8c([H])c([H])c(F)c([H])c8F)c([H])c7[H])c(C(=O)N([H])[H])c6N([H])[H])C5([H])[H])nn4C([H])([H])[H])C([H])([H])C3([H])[H])c([H])c([H])c2C1([H])[H]

$$$$
8:0:0
     RDKit          3D

 96104  0  0  1  0  0  0  0  0999 V2000
  -29.7350  -18.1810   20.7580 C   0  0  0  0  0  3  0  0  0  0  0  0
  -30.4690  -20.6320   21.8840 C   0  0  0  0  0  3  0  0  0  0  0  0
  -29.0490  -19.3500   20.3780 C   0  0  0  0  0  0  0  0  0  0  0  0
  -31.1830  -19.4650   22.2380 C   0  0  0  0  0  0  0  0  0  0  0  0
  -30.7810  -18.2100   21.7060 C   0  0  0  0  0  0  0  0  0  0  0  0
  -29.3830  -20.5900   20.9810 C   0  0  0  0  0  0  0  0  0  0  0  0
  -27.9480  -19.2160   19.3370 C   0  0  0  0  0  1  0  0  0  0  0  0
  -33.6610  -19.9670   22.4110 C   0  0  0  0  0  1  0  0  0  0  0  0
  -32.3780  -19.6120   23.1740 C   0  0  0  0  0  2  0  0  0  0  0  0
  -31.4620  -16.8980   22.1200 C   0  0  0  0  0  2  0  0  0  0  0  0
  -31.2090  -14.8860   20.6420 C   0  0  0  0  0  0  0  0  0  0  0  0
  -31.0810  -12.5630   19.8170 C   0  0  0  0  0  2  0  0  0  0  0  0
  -30.2390  -12.3940   18.5430 C   0  0  0  0  0  2  0  0  0  0  0  0
  -28.7530  -12.2080   18.8950 C   0  0  0  0  0  2  0  0  0  0  0  0
  -28.2400  -13.2980   19.8690 C   0  0  0  0  0  3  0  0  0  0  0  0
  -29.1880  -13.4440   21.0800 C   0  0  0  0  0  2  0  0  0  0  0  0
  -30.5580  -13.6970   20.5900 N   0  0  0  0  0  0  0  0  0  0  0  0
  -32.1900  -15.1570   19.9420 O   0  0  0  0  0  0  0  0  0  0  0  0
  -30.8010  -15.6860   21.6350 N   0  0  0  0  0  0  0  0  0  0  0  0
  -30.0220  -15.3530   22.1820 H   0  0  0  0  0  0  0  0  0  0  0  0
  -25.8130  -13.9160   20.4770 C   0  0  0  0  0  0  0  0  0  0  0  0
  -24.7300  -13.1480   20.8040 C   0  0  0  0  0  0  0  0  0  0  0  0
  -25.1870  -11.7940   20.7910 C   0  0  0  0  0  0  0  0  0  0  0  0
  -26.8660  -13.0320   20.2900 N   0  0  0  0  0  0  0  0  0  0  0  0
  -26.4870  -11.7500   20.5320 N   0  0  0  0  0  0  0  0  0  0  0  0
  -24.4510  -10.5340   20.9530 C   0  0  0  0  0  0  0  0  0  0  0  0
  -24.8400   -9.5670   21.9080 C   0  0  0  0  0  3  0  0  0  0  0  0
  -24.1050   -8.3710   22.0550 C   0  0  0  0  0  3  0  0  0  0  0  0
  -22.9670   -8.1330   21.2480 C   0  0  0  0  0  0  0  0  0  0  0  0
  -22.5980   -9.0880   20.2850 C   0  0  0  0  0  3  0  0  0  0  0  0
  -23.3330  -10.2760   20.1350 C   0  0  0  0  0  3  0  0  0  0  0  0
  -22.2090   -6.9890   21.3030 O   0  0  0  0  0  0  0  0  0  0  0  0
  -22.0920   -6.2600   22.4590 C   0  0  0  0  0  0  0  0  0  0  0  0
  -21.5850   -6.8250   23.6500 C   0  0  0  0  0  3  0  0  0  0  0  0
  -21.4150   -6.0210   24.7950 C   0  0  0  0  0  3  0  0  0  0  0  0
  -21.7400   -4.6520   24.7500 C   0  0  0  0  0  0  0  0  0  0  0  0
  -22.2420   -4.0870   23.5640 C   0  0  0  0  0  3  0  0  0  0  0  0
  -22.4120   -4.8880   22.4210 C   0  0  0  0  0  0  0  0  0  0  0  0
  -22.8730   -4.3320   21.2740 F   0  0  0  0  0  0  0  0  0  0  0  0
  -21.5720   -3.8790   25.8480 F   0  0  0  0  0  0  0  0  0  0  0  0
  -23.3240  -13.6280   21.0240 C   0  0  0  0  0  0  0  0  0  0  0  0
  -22.5660  -12.9410   21.8700 N   0  0  0  0  0  0  0  0  0  0  0  0
  -22.9050  -14.6490   20.4790 O   0  0  0  0  0  0  0  0  0  0  0  0
  -22.9170  -12.1130   22.3310 H   0  0  0  0  0  0  0  0  0  0  0  0
  -21.6220  -13.2440   22.0600 H   0  0  0  0  0  0  0  0  0  0  0  0
  -25.9920  -15.2860   20.3080 N   0  0  0  0  0  0  0  0  0  0  0  0
  -25.2290  -15.9480   20.3920 H   0  0  0  0  0  0  0  0  0  0  0  0
  -26.8650  -15.7190   20.0320 H   0  0  0  0  0  0  0  0  0  0  0  0
  -28.5590  -21.8570   20.7420 C   0  0  0  0  0  2  0  0  0  0  0  0
  -29.1390  -22.7630   19.7240 N   0  0  0  0  0  4  0  0  0  0  0  0
  -29.6140  -22.2010   19.0380 H   0  0  0  0  0  0  0  0  0  0  0  0
  -29.8230  -23.3380   20.1840 H   0  0  0  0  0  0  0  0  0  0  0  0
  -28.1280  -23.6150   19.0480 C   0  0  0  0  0  2  0  0  0  0  0  0
  -28.6690  -24.9400   18.4540 C   0  0  0  0  0  2  0  0  0  0  0  0
  -27.5360  -25.7120   17.7420 C   0  0  0  0  0  2  0  0  0  0  0  0
  -27.6850  -27.1410   17.8040 O   0  0  0  0  0  0  0  0  0  0  0  0
  -24.6130  -31.1870   22.7650 C   0  0  0  0  0  0  0  0  0  0  0  0
  -26.5560  -27.8590   18.1490 C   0  0  0  0  0  0  0  0  0  0  0  0
  -23.1070  -30.3100   21.0100 C   0  0  0  0  0  3  0  0  0  0  0  0
  -24.2550  -29.2810   18.9790 C   0  0  0  0  0  0  0  0  0  0  0  0
  -25.5800  -30.7380   20.5150 C   0  0  0  0  0  2  0  0  0  0  0  0
  -25.5120  -29.6200   19.4980 C   0  0  0  0  0  0  0  0  0  0  0  0
  -26.6640  -28.9160   19.0820 C   0  0  0  0  0  3  0  0  0  0  0  0
  -25.2810  -27.5640   17.6070 C   0  0  0  0  0  3  0  0  0  0  0  0
  -24.1340  -28.2530   18.0300 C   0  0  0  0  0  3  0  0  0  0  0  0
  -23.0680  -30.0730   19.4780 C   0  0  0  0  0  2  0  0  0  0  0  0
  -24.4610  -30.7400   21.4870 N   0  0  0  0  0  0  0  0  0  0  0  0
  -23.6420  -31.2800   23.5290 O   0  0  0  0  0  0  0  0  0  0  0  0
  -22.5810  -29.0440   21.7230 C   0  0  0  0  0  0  0  0  0  0  0  0
  -21.2520  -28.8510   21.6900 N   0  0  0  0  0  0  0  0  0  0  0  0
  -23.3580  -28.2520   22.2650 O   0  0  0  0  0  0  0  0  0  0  0  0
  -20.6870  -29.5500   21.2290 H   0  0  0  0  0  0  0  0  0  0  0  0
  -17.9740  -27.3800   22.0910 C   0  0  0  0  0  0  0  0  0  0  0  0
  -20.5310  -27.7140   22.2620 C   0  0  0  0  0  3  0  0  0  0  0  0
  -20.6540  -26.4650   21.3590 C   0  0  0  0  0  2  0  0  0  0  0  0
  -19.4960  -26.3260   20.3660 C   0  0  0  0  0  2  0  0  0  0  0  0
  -18.1590  -26.2360   21.1060 C   0  0  0  0  0  2  0  0  0  0  0  0
  -19.0870  -28.0830   22.6210 C   0  0  0  0  0  0  0  0  0  0  0  0
  -18.8620  -29.1600   23.5050 C   0  0  0  0  0  3  0  0  0  0  0  0
  -17.5530  -29.5380   23.8600 C   0  0  0  0  0  3  0  0  0  0  0  0
  -16.4560  -28.8260   23.3480 C   0  0  0  0  0  3  0  0  0  0  0  0
  -16.6650  -27.7480   22.4690 C   0  0  0  0  0  3  0  0  0  0  0  0
  -26.0060  -31.6230   23.3170 C   0  0  0  0  0  3  0  0  0  0  0  0
  -25.8130  -32.8730   24.0630 N   0  0  0  0  0  0  0  0  0  0  0  0
  -26.1220  -34.0920   23.5980 C   0  0  0  0  0  0  0  0  0  0  0  0
  -26.6740  -34.2730   22.5110 O   0  0  0  0  0  0  0  0  0  0  0  0
  -25.3190  -32.8050   24.9400 H   0  0  0  0  0  0  0  0  0  0  0  0
  -24.4760  -35.9570   23.9560 C   0  0  0  0  0  1  0  0  0  0  0  0
  -25.7620  -35.3010   24.4830 C   0  0  0  0  0  3  0  0  0  0  0  0
  -28.0110  -35.8410   25.3070 C   0  0  0  0  0  1  0  0  0  0  0  0
  -26.8420  -36.3090   24.5670 N   0  0  0  0  0  0  0  0  0  0  0  0
  -26.5060  -37.1580   25.0140 H   0  0  0  0  0  0  0  0  0  0  0  0
  -26.6830  -30.5260   24.2280 C   0  0  1  0  0  0  0  0  0  0  0  0
  -25.7610  -30.0010   25.3520 C   0  0  0  0  0  1  0  0  0  0  0  0
  -27.1320  -29.3140   23.3770 C   0  0  0  0  0  1  0  0  0  0  0  0
  -27.9570  -31.1070   24.8880 C   0  0  0  0  0  1  0  0  0  0  0  0
  1  5  1  0
  2  4  1  0
  3  1  2  0
  3  6  1  0
  4  9  1  0
  5 10  1  0
  5  4  2  0
  6  2  2  0
  7  3  1  0
  8  9  1  0
 11 19  1  0
 12 17  1  0
 13 14  1  0
 13 12  1  0
 15 14  1  0
 15 24  1  0
 15 16  1  0
 17 11  1  0
 17 16  1  0
 18 11  2  0
 19 10  1  0
 19 20  1  0
 21 22  2  0
 22 41  1  0
 23 22  1  0
 23 26  1  0
 24 21  1  0
 24 25  1  0
 25 23  2  0
 26 27  1  0
 27 28  2  0
 29 32  1  0
 29 28  1  0
 30 29  2  0
 31 30  1  0
 31 26  2  0
 32 33  1  0
 33 34  1  0
 34 35  2  0
 36 35  1  0
 36 40  1  0
 37 36  2  0
 38 33  2  0
 38 37  1  0
 39 38  1  0
 41 42  1  0
 42 45  1  0
 42 44  1  0
 43 41  2  0
 46 47  1  0
 46 21  1  0
 48 46  1  0
 49  6  1  0
 50 52  1  0
 50 49  1  0
 51 50  1  0
 53 50  1  0
 54 53  1  0
 55 56  1  0
 55 54  1  0
 56 58  1  0
 57 68  2  0
 58 63  1  0
 59 67  1  0
 59 69  1  0
 60 66  1  0
 60 62  1  0
 61 67  1  0
 62 61  1  0
 63 62  2  0
 64 65  1  0
 64 58  2  0
 65 60  2  0
 66 59  1  0
 67 57  1  0
 69 71  2  0
 70 69  1  0
 72 70  1  0
 73 82  2  0
 73 78  1  0
 74 70  1  0
 74 78  1  0
 75 74  1  0
 76 77  1  0
 76 75  1  0
 77 73  1  0
 78 79  2  0
 79 80  1  0
 81 80  2  0
 82 81  1  0
 83 57  1  0
 83 84  1  0
 83 93  1  0
 84 87  1  0
 85 84  1  0
 85 89  1  0
 86 85  2  0
 89 88  1  0
 89 91  1  0
 91 92  1  0
 91 90  1  0
 93 96  1  1
 93 94  1  0
 95 93  1  0
M  ISO  4  11 100  19 100  55 101  56 101
M  END
>  <TORSDO>  (9) 
F 23

>  <SCORE>  (9) 
-9.296

>  <name>  (9) 
8

>  <ligand_id>  (9) 
8

>  <original_smiles>  (9) 
[H]c1c([H])c([H])c2c(c1[H])C([H])([H])C([H])([H])C([H])([H])C2([H])N([H])C(=O)C1([H])N(C(=O)C([H])(N([H])C(=O)C([H])(N([H])C([H])([H])[H])C([H])([H])[H])C(C([H])([H])[H])(C([H])([H])[H])C([H])([H])[H])C([H])([H])c2c([H])c(OC([H])([H])C([H])([H])C([H])([H])[N+]([H])([H])C([H])([H])c3c([H])c(C([H])([H])C([H])([H])[H])c(C([H])([H])N([H])C(=O)N4C([H])([H])C([H])([H])C([H])([H])C([H])(n5nc(-c6c([H])c([H])c(Oc7c([H])c([H])c(F)c([H])c7F)c([H])c6[H])c(C(=O)N([H])[H])c5N([H])[H])C4([H])[H])c([H])c3C([H])([H])[H])c([H])c([H])c2C1([H])[H]

>  <smiles>  (9) 
[H]c1c([H])c([H])c2c(c1[H])C([H])([H])C([H])([H])C([H])([H])C2([H])N([H])C(=O)C1([H])N(C(=O)C([H])(N([H])C(=O)C([H])(N([H])C([H])([H])[H])C([H])([H])[H])C(C([H])([H])[H])(C([H])([H])[H])C([H])([H])[H])C([H])([H])c2c([H])c(OC([H])([H])C([H])([H])C([H])([H])[N+]([H])([H])C([H])([H])c3c([H])c(C([H])([H])C([H])([H])[H])c(C([H])([H])N([H])C(=O)N4C([H])([H])C([H])([H])C([H])([H])C([H])(n5nc(-c6c([H])c([H])c(Oc7c([H])c([H])c(F)c([H])c7F)c([H])c6[H])c(C(=O)N([H])[H])c5N([H])[H])C4([H])[H])c([H])c3C([H])([H])[H])c([H])c([H])c2C1([H])[H]

$$$$
9:0:0
     RDKit          3D

 94103  0  0  1  0  0  0  0  0999 V2000
  -29.3170  -20.3470   19.1110 C   0  0  0  0  0  3  0  0  0  0  0  0
  -27.5700  -21.9300   18.3710 C   0  0  0  0  0  0  0  0  0  0  0  0
  -26.5970  -20.9560   18.7040 C   0  0  0  0  0  0  0  0  0  0  0  0
  -28.9440  -21.6460   18.5790 C   0  0  0  0  0  0  0  0  0  0  0  0
  -28.3810  -19.3030   19.4910 C   0  0  0  0  0  0  0  0  0  0  0  0
  -27.0030  -19.6580   19.1930 C   0  0  0  0  0  0  0  0  0  0  0  0
  -27.1620  -23.3040   17.7830 C   0  0  0  0  0  2  0  0  0  0  0  0
  -25.0920  -21.3070   18.5500 C   0  0  0  0  0  2  0  0  0  0  0  0
  -25.6800  -23.4850   17.4980 C   0  0  0  0  0  2  0  0  0  0  0  0
  -24.7840  -22.8070   18.5170 C   0  0  0  0  0  2  0  0  0  0  0  0
  -25.8540  -18.6760   19.3780 C   0  0  0  0  0  1  0  0  0  0  0  0
  -29.9980  -22.6950   17.9810 C   0  0  0  0  0  2  0  0  0  0  0  0
  -30.4280  -24.1910   18.5160 C   0  0  0  0  0  2  0  0  0  0  0  0
  -29.8160  -25.3280   19.5430 C   0  0  0  0  0  2  0  0  0  0  0  0
  -29.4640  -26.7640   19.1810 O   0  0  0  0  0  0  0  0  0  0  0  0
  -24.8030  -30.8850   23.0060 C   0  0  0  0  0  0  0  0  0  0  0  0
  -28.1850  -27.3310   19.3680 C   0  0  0  0  0  0  0  0  0  0  0  0
  -23.8620  -29.4890   21.2060 C   0  0  0  0  0  3  0  0  0  0  0  0
  -25.5350  -28.4250   19.5950 C   0  0  0  0  0  0  0  0  0  0  0  0
  -26.2750  -30.3200   21.0550 C   0  0  0  0  0  2  0  0  0  0  0  0
  -26.6110  -29.0720   20.2250 C   0  0  0  0  0  0  0  0  0  0  0  0
  -27.9390  -28.5570   20.0800 C   0  0  0  0  0  3  0  0  0  0  0  0
  -27.0710  -26.6900   18.7850 C   0  0  0  0  0  3  0  0  0  0  0  0
  -25.7730  -27.2340   18.8910 C   0  0  0  0  0  3  0  0  0  0  0  0
  -24.1610  -29.0350   19.7480 C   0  0  0  0  0  2  0  0  0  0  0  0
  -25.0090  -30.2290   21.8190 N   0  0  0  0  0  0  0  0  0  0  0  0
  -23.6930  -30.8520   23.5620 O   0  0  0  0  0  0  0  0  0  0  0  0
  -23.4300  -28.2300   22.0310 C   0  0  0  0  0  0  0  0  0  0  0  0
  -22.1630  -27.7890   21.8490 N   0  0  0  0  0  0  0  0  0  0  0  0
  -24.2450  -27.6680   22.8040 O   0  0  0  0  0  0  0  0  0  0  0  0
  -21.4940  -28.3980   21.3530 H   0  0  0  0  0  0  0  0  0  0  0  0
  -19.2220  -25.6650   21.8460 C   0  0  0  0  0  0  0  0  0  0  0  0
  -21.5830  -26.5590   22.3850 C   0  0  0  0  0  3  0  0  0  0  0  0
  -22.1190  -25.2380   21.7980 C   0  0  0  0  0  2  0  0  0  0  0  0
  -21.2800  -24.6970   20.6220 C   0  0  0  0  0  2  0  0  0  0  0  0
  -19.8420  -24.4790   21.0660 C   0  0  0  0  0  2  0  0  0  0  0  0
  -20.0450  -26.6450   22.4390 C   0  0  0  0  0  0  0  0  0  0  0  0
  -19.4480  -27.7370   23.0990 C   0  0  0  0  0  3  0  0  0  0  0  0
  -18.0570  -27.8550   23.2150 C   0  0  0  0  0  3  0  0  0  0  0  0
  -17.2400  -26.8680   22.6370 C   0  0  0  0  0  3  0  0  0  0  0  0
  -17.7990  -25.7570   21.9750 C   0  0  0  0  0  3  0  0  0  0  0  0
  -25.9650  -31.6610   23.7230 C   0  0  0  0  0  3  0  0  0  0  0  0
  -26.5760  -30.8790   24.9610 C   0  0  1  0  0  0  0  0  0  0  0  0
  -25.4920  -30.4120   25.9540 C   0  0  0  0  0  1  0  0  0  0  0  0
  -27.3660  -29.6380   24.4830 C   0  0  0  0  0  1  0  0  0  0  0  0
  -27.5730  -31.7830   25.7120 C   0  0  0  0  0  1  0  0  0  0  0  0
  -25.4270  -32.9580   24.1350 N   0  0  0  0  0  0  0  0  0  0  0  0
  -25.6410  -34.1170   23.4980 C   0  0  0  0  0  0  0  0  0  0  0  0
  -26.3730  -34.2080   22.5080 O   0  0  0  0  0  0  0  0  0  0  0  0
  -24.7880  -32.9590   24.9150 H   0  0  0  0  0  0  0  0  0  0  0  0
  -23.6890  -35.6570   23.1660 C   0  0  0  0  0  1  0  0  0  0  0  0
  -24.9280  -35.3620   24.0260 C   0  0  0  0  0  3  0  0  0  0  0  0
  -26.8490  -36.4660   25.0710 C   0  0  0  0  0  1  0  0  0  0  0  0
  -25.7840  -36.5620   24.0750 N   0  0  0  0  0  0  0  0  0  0  0  0
  -25.2360  -37.3910   24.2890 H   0  0  0  0  0  0  0  0  0  0  0  0
  -28.7860  -17.9940   20.4350 C   0  0  0  0  0  2  0  0  0  0  0  0
  -29.9860  -15.5600   20.0340 C   0  0  0  0  0  0  0  0  0  0  0  0
  -30.3340  -13.1490   19.3640 C   0  0  0  0  0  2  0  0  0  0  0  0
  -29.4120  -12.8260   18.1620 C   0  0  0  0  0  2  0  0  0  0  0  0
  -27.9730  -12.5060   18.6250 C   0  0  0  0  0  2  0  0  0  0  0  0
  -27.4570  -13.5260   19.6800 C   0  0  0  0  0  3  0  0  0  0  0  0
  -28.4830  -13.7140   20.8050 C   0  0  0  0  0  2  0  0  0  0  0  0
  -29.6730  -14.2280   20.1410 N   0  0  0  0  0  0  0  0  0  0  0  0
  -31.1650  -15.8740   19.7640 O   0  0  0  0  0  0  0  0  0  0  0  0
  -28.9030  -16.4860   20.0720 N   0  0  0  0  0  0  0  0  0  0  0  0
  -28.0110  -16.0270   20.0650 H   0  0  0  0  0  0  0  0  0  0  0  0
  -25.1300  -14.0230   20.5940 C   0  0  0  0  0  0  0  0  0  0  0  0
  -24.1040  -13.1880   20.9770 C   0  0  0  0  0  0  0  0  0  0  0  0
  -24.5860  -11.8620   20.7920 C   0  0  0  0  0  0  0  0  0  0  0  0
  -26.1540  -13.1730   20.2170 N   0  0  0  0  0  0  0  0  0  0  0  0
  -25.8510  -11.8670   20.4030 N   0  0  0  0  0  0  0  0  0  0  0  0
  -23.8980  -10.5690   20.9050 C   0  0  0  0  0  0  0  0  0  0  0  0
  -24.3810   -9.5510   21.7540 C   0  0  0  0  0  3  0  0  0  0  0  0
  -23.6890   -8.3250   21.8550 C   0  0  0  0  0  3  0  0  0  0  0  0
  -22.5050   -8.1160   21.1120 C   0  0  0  0  0  0  0  0  0  0  0  0
  -22.0450   -9.1270   20.2500 C   0  0  0  0  0  3  0  0  0  0  0  0
  -22.7350  -10.3450   20.1450 C   0  0  0  0  0  3  0  0  0  0  0  0
  -21.7800   -6.9510   21.1320 O   0  0  0  0  0  0  0  0  0  0  0  0
  -21.7710   -6.1280   22.2290 C   0  0  0  0  0  0  0  0  0  0  0  0
  -21.3700   -6.5870   23.5020 C   0  0  0  0  0  3  0  0  0  0  0  0
  -21.3100   -5.6910   24.5860 C   0  0  0  0  0  3  0  0  0  0  0  0
  -21.6440   -4.3360   24.4010 C   0  0  0  0  0  0  0  0  0  0  0  0
  -22.0400   -3.8750   23.1320 C   0  0  0  0  0  3  0  0  0  0  0  0
  -22.1010   -4.7700   22.0490 C   0  0  0  0  0  0  0  0  0  0  0  0
  -22.4630   -4.3180   20.8230 F   0  0  0  0  0  0  0  0  0  0  0  0
  -21.5790   -3.4710   25.4400 F   0  0  0  0  0  0  0  0  0  0  0  0
  -22.7220  -13.6260   21.3530 C   0  0  0  0  0  0  0  0  0  0  0  0
  -22.0710  -12.8560   22.2290 N   0  0  0  0  0  0  0  0  0  0  0  0
  -22.2220  -14.6580   20.9240 O   0  0  0  0  0  0  0  0  0  0  0  0
  -22.4890  -12.0170   22.5970 H   0  0  0  0  0  0  0  0  0  0  0  0
  -21.1450  -13.1150   22.5350 H   0  0  0  0  0  0  0  0  0  0  0  0
  -25.2610  -15.3970   20.5140 N   0  0  0  0  0  0  0  0  0  0  0  0
  -24.4350  -15.9690   20.6470 H   0  0  0  0  0  0  0  0  0  0  0  0
  -25.8850  -15.7940   19.8200 H   0  0  0  0  0  0  0  0  0  0  0  0
  1  5  1  0
  2  4  1  0
  2  3  2  0
  3  6  1  0
  4  1  2  0
  5 56  1  0
  6 11  1  0
  6  5  2  0
  7  2  1  0
  8  3  1  0
  9  7  1  0
  9 10  1  0
 10  8  1  0
 12 13  1  0
 12  4  1  0
 13 14  1  0
 15 17  1  0
 15 14  1  0
 16 27  2  0
 17 22  1  0
 18 26  1  0
 18 28  1  0
 19 25  1  0
 19 21  1  0
 20 26  1  0
 21 20  1  0
 22 21  2  0
 23 24  1  0
 23 17  2  0
 24 19  2  0
 25 18  1  0
 26 16  1  0
 28 30  2  0
 29 28  1  0
 31 29  1  0
 32 41  2  0
 32 37  1  0
 33 29  1  0
 33 37  1  0
 34 33  1  0
 35 36  1  0
 35 34  1  0
 36 32  1  0
 37 38  2  0
 38 39  1  0
 40 39  2  0
 41 40  1  0
 42 16  1  0
 42 47  1  0
 42 43  1  0
 43 46  1  1
 43 44  1  0
 45 43  1  0
 47 50  1  0
 48 52  1  0
 48 47  1  0
 49 48  2  0
 52 51  1  0
 52 54  1  0
 54 55  1  0
 54 53  1  0
 57 65  1  0
 57 63  1  0
 58 63  1  0
 59 60  1  0
 59 58  1  0
 61 60  1  0
 61 70  1  0
 61 62  1  0
 63 62  1  0
 64 57  2  0
 65 56  1  0
 66 65  1  0
 67 68  2  0
 68 87  1  0
 69 72  1  0
 69 68  1  0
 70 71  1  0
 70 67  1  0
 71 69  2  0
 72 73  1  0
 73 74  2  0
 75 78  1  0
 75 74  1  0
 76 75  2  0
 77 76  1  0
 77 72  2  0
 78 79  1  0
 79 80  1  0
 80 81  2  0
 82 81  1  0
 82 86  1  0
 83 82  2  0
 84 79  2  0
 84 83  1  0
 85 84  1  0
 87 88  1  0
 88 91  1  0
 88 90  1  0
 89 87  2  0
 92 67  1  0
 92 93  1  0
 94 92  1  0
M  ISO  4  14 101  15 101  57 100  65 100
M  END
>  <TORSDO>  (10) 
F 20

>  <SCORE>  (10) 
-10.076

>  <name>  (10) 
9

>  <ligand_id>  (10) 
9

>  <original_smiles>  (10) 
[H]c1c([H])c([H])c2c(c1[H])C([H])([H])C([H])([H])C([H])([H])C2([H])N([H])C(=O)C1([H])N(C(=O)C([H])(N([H])C(=O)C([H])(N([H])C([H])([H])[H])C([H])([H])[H])C(C([H])([H])[H])(C([H])([H])[H])C([H])([H])[H])C([H])([H])c2c([H])c(OC([H])([H])C([H])([H])C([H])([H])c3c([H])c(C([H])([H])N([H])C(=O)N4C([H])([H])C([H])([H])C([H])([H])C([H])(n5nc(-c6c([H])c([H])c(Oc7c([H])c([H])c(F)c([H])c7F)c([H])c6[H])c(C(=O)N([H])[H])c5N([H])[H])C4([H])[H])c(C([H])([H])[H])c4c3C([H])([H])C([H])([H])C([H])([H])C4([H])[H])c([H])c([H])c2C1([H])[H]

>  <smiles>  (10) 
[H]c1c([H])c([H])c2c(c1[H])C([H])([H])C([H])([H])C([H])([H])C2([H])N([H])C(=O)C1([H])N(C(=O)C([H])(N([H])C(=O)C([H])(N([H])C([H])([H])[H])C([H])([H])[H])C(C([H])([H])[H])(C([H])([H])[H])C([H])([H])[H])C([H])([H])c2c([H])c(OC([H])([H])C([H])([H])C([H])([H])c3c([H])c(C([H])([H])N([H])C(=O)N4C([H])([H])C([H])([H])C([H])([H])C([H])(n5nc(-c6c([H])c([H])c(Oc7c([H])c([H])c(F)c([H])c7F)c([H])c6[H])c(C(=O)N([H])[H])c5N([H])[H])C4([H])[H])c(C([H])([H])[H])c4c3C([H])([H])C([H])([H])C([H])([H])C4([H])[H])c([H])c([H])c2C1([H])[H]

$$$$
10:0:0
     RDKit          3D

 89 97  0  0  1  0  0  0  0  0999 V2000
  -29.9440  -20.9370   22.2520 C   0  0  0  0  0  3  0  0  0  0  0  0
  -30.6230  -18.9110   22.1960 C   0  0  0  0  0  0  0  0  0  0  0  0
  -30.0130  -19.1100   20.9650 C   0  0  0  0  0  0  0  0  0  0  0  0
  -31.3360  -17.7040   22.7320 C   0  0  0  0  0  1  0  0  0  0  0  0
  -30.5510  -20.0340   22.9950 N   0  0  0  0  0  0  0  0  0  0  0  0
  -29.5970  -20.5800   21.0020 N   0  0  0  0  0  0  0  0  0  0  0  0
  -30.0280  -17.8430   19.9240 C   0  0  0  0  0  2  0  0  0  0  0  0
  -30.6430  -15.1070   20.0770 C   0  0  0  0  0  0  0  0  0  0  0  0
  -30.4700  -12.7610   19.1220 C   0  0  0  0  0  2  0  0  0  0  0  0
  -29.5050  -12.7510   17.9140 C   0  0  0  0  0  2  0  0  0  0  0  0
  -28.0520  -12.5370   18.3800 C   0  0  0  0  0  2  0  0  0  0  0  0
  -27.6840  -13.4240   19.6000 C   0  0  0  0  0  3  0  0  0  0  0  0
  -28.7780  -13.4270   20.6920 C   0  0  0  0  0  2  0  0  0  0  0  0
  -30.0360  -13.8470   20.0510 N   0  0  0  0  0  0  0  0  0  0  0  0
  -31.8180  -15.1680   19.6970 O   0  0  0  0  0  0  0  0  0  0  0  0
  -29.8940  -16.2970   20.3220 N   0  0  0  0  0  0  0  0  0  0  0  0
  -28.9630  -16.0730   20.6390 H   0  0  0  0  0  0  0  0  0  0  0  0
  -25.3190  -13.9780   20.4030 C   0  0  0  0  0  0  0  0  0  0  0  0
  -24.2710  -13.1950   20.8010 C   0  0  0  0  0  0  0  0  0  0  0  0
  -24.7450  -11.8470   20.7540 C   0  0  0  0  0  0  0  0  0  0  0  0
  -26.3620  -13.1080   20.1320 N   0  0  0  0  0  0  0  0  0  0  0  0
  -26.0270  -11.8210   20.4060 N   0  0  0  0  0  0  0  0  0  0  0  0
  -24.0300  -10.5800   20.9590 C   0  0  0  0  0  0  0  0  0  0  0  0
  -24.4620   -9.6310   21.9120 C   0  0  0  0  0  3  0  0  0  0  0  0
  -23.7420   -8.4330   22.1100 C   0  0  0  0  0  3  0  0  0  0  0  0
  -22.5770   -8.1720   21.3530 C   0  0  0  0  0  0  0  0  0  0  0  0
  -22.1620   -9.1100   20.3900 C   0  0  0  0  0  3  0  0  0  0  0  0
  -22.8840  -10.2990   20.1900 C   0  0  0  0  0  3  0  0  0  0  0  0
  -21.8320   -7.0210   21.4540 O   0  0  0  0  0  0  0  0  0  0  0  0
  -21.7500   -6.3170   22.6280 C   0  0  0  0  0  0  0  0  0  0  0  0
  -21.2550   -6.9030   23.8150 C   0  0  0  0  0  3  0  0  0  0  0  0
  -21.1240   -6.1240   24.9820 C   0  0  0  0  0  3  0  0  0  0  0  0
  -21.4760   -4.7610   24.9630 C   0  0  0  0  0  0  0  0  0  0  0  0
  -21.9650   -4.1750   23.7820 C   0  0  0  0  0  3  0  0  0  0  0  0
  -22.0990   -4.9520   22.6170 C   0  0  0  0  0  0  0  0  0  0  0  0
  -22.5480   -4.3770   21.4760 F   0  0  0  0  0  0  0  0  0  0  0  0
  -21.3460   -4.0110   26.0820 F   0  0  0  0  0  0  0  0  0  0  0  0
  -22.8790  -13.6630   21.1100 C   0  0  0  0  0  0  0  0  0  0  0  0
  -22.1800  -12.9620   21.9960 N   0  0  0  0  0  0  0  0  0  0  0  0
  -22.4200  -14.6870   20.6060 O   0  0  0  0  0  0  0  0  0  0  0  0
  -22.5650  -12.1380   22.4340 H   0  0  0  0  0  0  0  0  0  0  0  0
  -21.2460  -13.2560   22.2440 H   0  0  0  0  0  0  0  0  0  0  0  0
  -25.4610  -15.3500   20.2180 N   0  0  0  0  0  0  0  0  0  0  0  0
  -24.6780  -15.9820   20.3360 H   0  0  0  0  0  0  0  0  0  0  0  0
  -26.2720  -15.8020   19.8210 H   0  0  0  0  0  0  0  0  0  0  0  0
  -28.9100  -21.7360   20.1480 C   0  0  0  0  0  2  0  0  0  0  0  0
  -28.9510  -23.3970   20.5990 C   0  0  0  0  0  3  0  0  0  0  0  0
  -28.0880  -24.7110   19.9540 C   0  0  0  0  0  3  0  0  0  0  0  0
  -28.2430  -26.2410   20.2730 O   0  0  0  0  0  0  0  0  0  0  0  0
  -24.6140  -31.9340   23.2440 C   0  0  0  0  0  0  0  0  0  0  0  0
  -27.1770  -27.2190   20.1850 C   0  0  0  0  0  0  0  0  0  0  0  0
  -23.3970  -30.5360   21.6170 C   0  0  0  0  0  3  0  0  0  0  0  0
  -24.8370  -28.9620   20.1760 C   0  0  0  0  0  0  0  0  0  0  0  0
  -25.9500  -30.8030   21.4280 C   0  0  0  0  0  2  0  0  0  0  0  0
  -26.0200  -29.4100   20.7760 C   0  0  0  0  0  0  0  0  0  0  0  0
  -27.1860  -28.5510   20.7690 C   0  0  0  0  0  3  0  0  0  0  0  0
  -25.9740  -26.8850   19.5220 C   0  0  0  0  0  3  0  0  0  0  0  0
  -24.8280  -27.7140   19.5320 C   0  0  0  0  0  3  0  0  0  0  0  0
  -23.6050  -29.8560   20.2390 C   0  0  0  0  0  2  0  0  0  0  0  0
  -24.6740  -31.1140   22.1510 N   0  0  0  0  0  0  0  0  0  0  0  0
  -23.5330  -32.2170   23.7840 O   0  0  0  0  0  0  0  0  0  0  0  0
  -22.7290  -29.5290   22.5870 C   0  0  0  0  0  0  0  0  0  0  0  0
  -21.4070  -29.3270   22.4480 N   0  0  0  0  0  0  0  0  0  0  0  0
  -23.4040  -28.9330   23.4310 O   0  0  0  0  0  0  0  0  0  0  0  0
  -20.9170  -29.8670   21.7480 H   0  0  0  0  0  0  0  0  0  0  0  0
  -18.0560  -28.0230   22.8950 C   0  0  0  0  0  0  0  0  0  0  0  0
  -20.5960  -28.3830   23.2220 C   0  0  0  0  0  3  0  0  0  0  0  0
  -20.7640  -26.9400   22.6930 C   0  0  0  0  0  2  0  0  0  0  0  0
  -19.7030  -26.5500   21.6590 C   0  0  0  0  0  2  0  0  0  0  0  0
  -18.2990  -26.6630   22.2610 C   0  0  0  0  0  2  0  0  0  0  0  0
  -19.1350  -28.8350   23.3320 C   0  0  0  0  0  0  0  0  0  0  0  0
  -18.8560  -30.1040   23.8840 C   0  0  0  0  0  3  0  0  0  0  0  0
  -17.5290  -30.5620   24.0050 C   0  0  0  0  0  3  0  0  0  0  0  0
  -16.4650  -29.7470   23.5840 C   0  0  0  0  0  3  0  0  0  0  0  0
  -16.7270  -28.4790   23.0330 C   0  0  0  0  0  3  0  0  0  0  0  0
  -25.8990  -32.5690   23.8580 C   0  0  0  0  0  3  0  0  0  0  0  0
  -26.4240  -31.7980   25.1310 C   0  0  1  0  0  0  0  0  0  0  0  0
  -25.3340  -31.5510   26.2000 C   0  0  0  0  0  1  0  0  0  0  0  0
  -27.0180  -30.4250   24.7380 C   0  0  0  0  0  1  0  0  0  0  0  0
  -27.5700  -32.6000   25.7930 C   0  0  0  0  0  1  0  0  0  0  0  0
  -25.5900  -33.9660   24.1980 N   0  0  0  0  0  0  0  0  0  0  0  0
  -25.9120  -35.0270   23.4460 C   0  0  0  0  0  0  0  0  0  0  0  0
  -26.5650  -34.9330   22.4040 O   0  0  0  0  0  0  0  0  0  0  0  0
  -25.0030  -34.1120   25.0050 H   0  0  0  0  0  0  0  0  0  0  0  0
  -24.1760  -36.8270   23.1430 C   0  0  0  0  0  1  0  0  0  0  0  0
  -25.4330  -36.4130   23.9250 C   0  0  0  0  0  3  0  0  0  0  0  0
  -27.5780  -37.2990   24.7270 C   0  0  0  0  0  1  0  0  0  0  0  0
  -26.4620  -37.4690   23.8000 N   0  0  0  0  0  0  0  0  0  0  0  0
  -26.0550  -38.3880   23.9570 H   0  0  0  0  0  0  0  0  0  0  0  0
  1  5  2  0
  2  4  1  0
  2  5  1  0
  3  6  1  0
  3  2  2  0
  6  1  1  0
  7 16  1  0
  7  3  1  0
  8 16  1  0
  9 14  1  0
 10 11  1  0
 10  9  1  0
 12 11  1  0
 12 21  1  0
 12 13  1  0
 14  8  1  0
 14 13  1  0
 15  8  2  0
 16 17  1  0
 18 19  2  0
 19 38  1  0
 20 19  1  0
 20 23  1  0
 21 18  1  0
 21 22  1  0
 22 20  2  0
 23 24  1  0
 24 25  2  0
 26 29  1  0
 26 25  1  0
 27 26  2  0
 28 27  1  0
 28 23  2  0
 29 30  1  0
 30 31  1  0
 31 32  2  0
 33 32  1  0
 33 37  1  0
 34 33  2  0
 35 30  2  0
 35 34  1  0
 36 35  1  0
 38 39  1  0
 39 42  1  0
 39 41  1  0
 40 38  2  0
 43 44  1  0
 43 18  1  0
 45 43  1  0
 46 47  1  0
 46  6  1  0
 48 49  1  0
 48 47  2  0
 50 61  2  0
 51 49  1  0
 51 56  1  0
 52 60  1  0
 52 62  1  0
 53 59  1  0
 53 55  1  0
 54 60  1  0
 55 54  1  0
 56 55  2  0
 57 58  1  0
 57 51  2  0
 58 53  2  0
 59 52  1  0
 60 50  1  0
 62 64  2  0
 63 62  1  0
 65 63  1  0
 66 75  2  0
 66 71  1  0
 67 63  1  0
 67 71  1  0
 68 67  1  0
 69 70  1  0
 69 68  1  0
 70 66  1  0
 71 72  2  0
 72 73  1  0
 74 73  2  0
 75 74  1  0
 76 50  1  0
 76 81  1  0
 76 77  1  0
 77 80  1  1
 77 78  1  0
 79 77  1  0
 81 84  1  0
 82 86  1  0
 82 81  1  0
 83 82  2  0
 86 85  1  0
 88 86  1  0
 88 89  1  0
 88 87  1  0
M  ISO  4   8 100  16 100  48 101  49 101
M  END
>  <TORSDO>  (11) 
F 20

>  <SCORE>  (11) 
-14.045

>  <name>  (11) 
10

>  <ligand_id>  (11) 
10

>  <original_smiles>  (11) 
[H]c1c([H])c([H])c2c(c1[H])C([H])([H])C([H])([H])C([H])([H])C2([H])N([H])C(=O)C1([H])N(C(=O)C([H])(N([H])C(=O)C([H])(N([H])C([H])([H])[H])C([H])([H])[H])C(C([H])([H])[H])(C([H])([H])[H])C([H])([H])[H])C([H])([H])c2c([H])c(OC([H])([H])C([H])([H])C([H])([H])n3c([H])nc(C([H])([H])[H])c3C([H])([H])N([H])C(=O)N3C([H])([H])C([H])([H])C([H])([H])C([H])(n4nc(-c5c([H])c([H])c(Oc6c([H])c([H])c(F)c([H])c6F)c([H])c5[H])c(C(=O)N([H])[H])c4N([H])[H])C3([H])[H])c([H])c([H])c2C1([H])[H]

>  <smiles>  (11) 
[H]c1c([H])c([H])c2c(c1[H])C([H])([H])C([H])([H])C([H])([H])C2([H])N([H])C(=O)C1([H])N(C(=O)C([H])(N([H])C(=O)C([H])(N([H])C([H])([H])[H])C([H])([H])[H])C(C([H])([H])[H])(C([H])([H])[H])C([H])([H])[H])C([H])([H])c2c([H])c(OC([H])([H])C([H])([H])C([H])([H])n3c([H])nc(C([H])([H])[H])c3C([H])([H])N([H])C(=O)N3C([H])([H])C([H])([H])C([H])([H])C([H])(n4nc(-c5c([H])c([H])c(Oc6c([H])c([H])c(F)c([H])c6F)c([H])c5[H])c(C(=O)N([H])[H])c4N([H])[H])C3([H])[H])c([H])c([H])c2C1([H])[H]

$$$$
11:0:0
     RDKit          3D

 97106  0  0  1  0  0  0  0  0999 V2000
  -30.1970  -22.1090   20.5830 C   0  0  0  0  0  3  0  0  0  0  0  0
  -28.8600  -22.5790   20.6070 C   0  0  0  0  0  0  0  0  0  0  0  0
  -30.4900  -20.7260   20.4100 C   0  0  0  0  0  0  0  0  0  0  0  0
  -27.8620  -21.5740   20.4490 C   0  0  0  0  0  0  0  0  0  0  0  0
  -29.4320  -19.7950   20.2840 C   0  0  0  0  0  0  0  0  0  0  0  0
  -31.9350  -20.2660   20.3610 C   0  0  0  0  0  1  0  0  0  0  0  0
  -28.1560  -20.2470   20.3180 N   0  0  0  0  0  0  0  0  0  0  0  0
  -24.1580  -21.6040   21.7050 C   0  0  0  0  0  2  0  0  0  0  0  0
  -25.6780  -21.3600   21.7410 C   0  0  0  0  0  2  0  0  0  0  0  0
  -23.5350  -21.0220   20.4220 C   0  0  0  0  0  2  0  0  0  0  0  0
  -25.6570  -21.3240   19.1930 C   0  0  0  0  0  2  0  0  0  0  0  0
  -26.3610  -21.8800   20.4570 C   0  0  0  0  0  3  0  0  0  0  0  0
  -24.1970  -21.5680   19.2170 N   0  0  0  0  0  4  0  0  0  0  0  0
  -24.0170  -22.5570   19.1550 H   0  0  0  0  0  0  0  0  0  0  0  0
  -23.7860  -21.1420   18.4020 H   0  0  0  0  0  0  0  0  0  0  0  0
  -28.5640  -24.0900   20.9350 C   0  0  0  0  0  3  0  0  0  0  0  0
  -28.4340  -25.1360   19.7620 C   0  0  0  0  0  3  0  0  0  0  0  0
  -28.3850  -26.5570   20.1520 O   0  0  0  0  0  0  0  0  0  0  0  0
  -24.6220  -31.8600   23.2020 C   0  0  0  0  0  0  0  0  0  0  0  0
  -27.2210  -27.3340   20.1120 C   0  0  0  0  0  0  0  0  0  0  0  0
  -23.4130  -30.4850   21.5440 C   0  0  0  0  0  3  0  0  0  0  0  0
  -24.8580  -28.9410   20.1130 C   0  0  0  0  0  0  0  0  0  0  0  0
  -25.9530  -30.7950   21.3730 C   0  0  0  0  0  2  0  0  0  0  0  0
  -26.0240  -29.4230   20.7170 C   0  0  0  0  0  0  0  0  0  0  0  0
  -27.2050  -28.6290   20.7090 C   0  0  0  0  0  3  0  0  0  0  0  0
  -26.0280  -26.8920   19.4940 C   0  0  0  0  0  3  0  0  0  0  0  0
  -24.8610  -27.6800   19.4960 C   0  0  0  0  0  3  0  0  0  0  0  0
  -23.6280  -29.8220   20.1590 C   0  0  0  0  0  2  0  0  0  0  0  0
  -24.6810  -31.0630   22.0970 N   0  0  0  0  0  0  0  0  0  0  0  0
  -23.5380  -32.1410   23.7360 O   0  0  0  0  0  0  0  0  0  0  0  0
  -22.7450  -29.4620   22.4920 C   0  0  0  0  0  0  0  0  0  0  0  0
  -21.4170  -29.3030   22.3670 N   0  0  0  0  0  0  0  0  0  0  0  0
  -23.4190  -28.8150   23.2970 O   0  0  0  0  0  0  0  0  0  0  0  0
  -20.9330  -29.8790   21.6930 H   0  0  0  0  0  0  0  0  0  0  0  0
  -18.0280  -28.1380   22.8480 C   0  0  0  0  0  0  0  0  0  0  0  0
  -20.5880  -28.3680   23.1280 C   0  0  0  0  0  3  0  0  0  0  0  0
  -20.6780  -26.9400   22.5420 C   0  0  0  0  0  2  0  0  0  0  0  0
  -19.5760  -26.6380   21.5210 C   0  0  0  0  0  2  0  0  0  0  0  0
  -18.1930  -26.7920   22.1610 C   0  0  0  0  0  2  0  0  0  0  0  0
  -19.1530  -28.8840   23.2870 C   0  0  0  0  0  0  0  0  0  0  0  0
  -18.9460  -30.1440   23.8890 C   0  0  0  0  0  3  0  0  0  0  0  0
  -17.6470  -30.6580   24.0570 C   0  0  0  0  0  3  0  0  0  0  0  0
  -16.5360  -29.9090   23.6330 C   0  0  0  0  0  3  0  0  0  0  0  0
  -16.7270  -28.6510   23.0330 C   0  0  0  0  0  3  0  0  0  0  0  0
  -25.9070  -32.4760   23.8340 C   0  0  0  0  0  3  0  0  0  0  0  0
  -25.5900  -33.8570   24.2260 N   0  0  0  0  0  0  0  0  0  0  0  0
  -25.9050  -34.9450   23.5100 C   0  0  0  0  0  0  0  0  0  0  0  0
  -26.5640  -34.8920   22.4680 O   0  0  0  0  0  0  0  0  0  0  0  0
  -24.9980  -33.9720   25.0350 H   0  0  0  0  0  0  0  0  0  0  0  0
  -24.1490  -36.7310   23.2640 C   0  0  0  0  0  1  0  0  0  0  0  0
  -25.4120  -36.3080   24.0320 C   0  0  0  0  0  3  0  0  0  0  0  0
  -27.5580  -37.1800   24.8450 C   0  0  0  0  0  1  0  0  0  0  0  0
  -26.4300  -37.3780   23.9400 N   0  0  0  0  0  0  0  0  0  0  0  0
  -26.0170  -38.2850   24.1420 H   0  0  0  0  0  0  0  0  0  0  0  0
  -26.4480  -31.6560   25.0690 C   0  0  1  0  0  0  0  0  0  0  0  0
  -25.3710  -31.3700   26.1410 C   0  0  0  0  0  1  0  0  0  0  0  0
  -27.0310  -30.2980   24.6140 C   0  0  0  0  0  1  0  0  0  0  0  0
  -27.6050  -32.4300   25.7460 C   0  0  0  0  0  1  0  0  0  0  0  0
  -29.6160  -18.2660   19.9800 C   0  0  0  0  0  2  0  0  0  0  0  0
  -30.3260  -17.3280   21.0340 C   0  0  0  0  0  2  0  0  0  0  0  0
  -29.8290  -15.8200   21.1730 C   0  0  0  0  0  2  0  0  0  0  0  0
  -30.6260  -14.6080   20.5550 C   0  0  0  0  0  0  0  0  0  0  0  0
  -30.4400  -12.3820   19.4460 C   0  0  0  0  0  2  0  0  0  0  0  0
  -29.5060  -12.5130   18.2220 C   0  0  0  0  0  2  0  0  0  0  0  0
  -28.0290  -12.3470   18.6320 C   0  0  0  0  0  2  0  0  0  0  0  0
  -27.6540  -13.2120   19.8640 C   0  0  0  0  0  3  0  0  0  0  0  0
  -28.6980  -13.0500   20.9910 C   0  0  0  0  0  2  0  0  0  0  0  0
  -30.0180  -13.3860   20.4390 N   0  0  0  0  0  0  0  0  0  0  0  0
  -31.7590  -14.7970   20.1040 O   0  0  0  0  0  0  0  0  0  0  0  0
  -25.2570  -13.8150   20.5700 C   0  0  0  0  0  0  0  0  0  0  0  0
  -24.1840  -13.0410   20.9200 C   0  0  0  0  0  0  0  0  0  0  0  0
  -24.6400  -11.6880   20.8750 C   0  0  0  0  0  0  0  0  0  0  0  0
  -26.2990  -12.9320   20.3320 N   0  0  0  0  0  0  0  0  0  0  0  0
  -25.9320  -11.6480   20.5760 N   0  0  0  0  0  0  0  0  0  0  0  0
  -23.9060  -10.4270   21.0410 C   0  0  0  0  0  0  0  0  0  0  0  0
  -24.3610   -9.4180   21.9190 C   0  0  0  0  0  3  0  0  0  0  0  0
  -23.6280   -8.2220   22.0750 C   0  0  0  0  0  3  0  0  0  0  0  0
  -22.4260   -8.0270   21.3540 C   0  0  0  0  0  0  0  0  0  0  0  0
  -21.9900   -9.0240   20.4650 C   0  0  0  0  0  3  0  0  0  0  0  0
  -22.7240  -10.2120   20.3060 C   0  0  0  0  0  3  0  0  0  0  0  0
  -21.6620   -6.8870   21.4240 O   0  0  0  0  0  0  0  0  0  0  0  0
  -21.6840   -6.0730   22.5280 C   0  0  0  0  0  0  0  0  0  0  0  0
  -21.4000   -6.5640   23.8210 C   0  0  0  0  0  3  0  0  0  0  0  0
  -21.3660   -5.6800   24.9170 C   0  0  0  0  0  3  0  0  0  0  0  0
  -21.6050   -4.3060   24.7230 C   0  0  0  0  0  0  0  0  0  0  0  0
  -21.8810   -3.8150   23.4350 C   0  0  0  0  0  3  0  0  0  0  0  0
  -21.9190   -4.6960   22.3400 C   0  0  0  0  0  0  0  0  0  0  0  0
  -22.1660   -4.2140   21.0980 F   0  0  0  0  0  0  0  0  0  0  0  0
  -21.5630   -3.4550   25.7750 F   0  0  0  0  0  0  0  0  0  0  0  0
  -22.7870  -13.5210   21.1880 C   0  0  0  0  0  0  0  0  0  0  0  0
  -22.0510  -12.8190   22.0430 N   0  0  0  0  0  0  0  0  0  0  0  0
  -22.3560  -14.5530   20.6750 O   0  0  0  0  0  0  0  0  0  0  0  0
  -22.4130  -11.9830   22.4770 H   0  0  0  0  0  0  0  0  0  0  0  0
  -21.1140  -13.1210   22.2660 H   0  0  0  0  0  0  0  0  0  0  0  0
  -25.4280  -15.1870   20.4130 N   0  0  0  0  0  0  0  0  0  0  0  0
  -24.6630  -15.8410   20.5250 H   0  0  0  0  0  0  0  0  0  0  0  0
  -26.2840  -15.6270   20.1010 H   0  0  0  0  0  0  0  0  0  0  0  0
  1  2  1  0
  2 16  1  0
  3  1  2  0
  4  2  2  0
  5  7  2  0
  5  3  1  0
  6  3  1  0
  7  4  1  0
  8  9  1  0
 10  8  1  0
 11 13  1  0
 11 12  1  0
 12  4  1  0
 12  9  1  0
 13 10  1  0
 14 13  1  0
 15 13  1  0
 17 18  1  0
 17 16  2  0
 19 30  2  0
 20 18  1  0
 20 25  1  0
 21 29  1  0
 21 31  1  0
 22 28  1  0
 22 24  1  0
 23 29  1  0
 24 23  1  0
 25 24  2  0
 26 27  1  0
 26 20  2  0
 27 22  2  0
 28 21  1  0
 29 19  1  0
 31 33  2  0
 32 31  1  0
 34 32  1  0
 35 44  2  0
 35 40  1  0
 36 32  1  0
 36 40  1  0
 37 36  1  0
 38 39  1  0
 38 37  1  0
 39 35  1  0
 40 41  2  0
 41 42  1  0
 43 42  2  0
 44 43  1  0
 45 19  1  0
 45 46  1  0
 45 55  1  0
 46 49  1  0
 47 51  1  0
 47 46  1  0
 48 47  2  0
 51 50  1  0
 53 51  1  0
 53 54  1  0
 53 52  1  0
 55 58  1  1
 55 56  1  0
 57 55  1  0
 59  5  1  0
 59 60  1  0
 60 61  1  0
 62 61  1  0
 63 68  1  0
 64 65  1  0
 64 63  1  0
 66 65  1  0
 66 73  1  0
 66 67  1  0
 68 62  1  0
 68 67  1  0
 69 62  2  0
 70 71  2  0
 71 90  1  0
 72 71  1  0
 72 75  1  0
 73 70  1  0
 73 74  1  0
 74 72  2  0
 75 76  1  0
 76 77  2  0
 78 81  1  0
 78 77  1  0
 79 78  2  0
 80 79  1  0
 80 75  2  0
 81 82  1  0
 82 83  1  0
 83 84  2  0
 85 84  1  0
 85 89  1  0
 86 85  2  0
 87 82  2  0
 87 86  1  0
 88 87  1  0
 90 91  1  0
 91 94  1  0
 91 93  1  0
 92 90  2  0
 95 96  1  0
 95 70  1  0
 97 95  1  0
M  ISO  4  17 101  18 101  61 100  62 100
M  END
>  <TORSDO>  (12) 
F 22

>  <SCORE>  (12) 
2.016

>  <name>  (12) 
11

>  <ligand_id>  (12) 
11

>  <original_smiles>  (12) 
[H]c1c([H])c([H])c2c(c1[H])C([H])([H])C([H])([H])C([H])([H])C2([H])N([H])C(=O)C1([H])N(C(=O)C([H])(N([H])C(=O)C([H])(N([H])C([H])([H])[H])C([H])([H])[H])C(C([H])([H])[H])(C([H])([H])[H])C([H])([H])[H])C([H])([H])c2c([H])c(OC([H])([H])C([H])([H])c3c(C4([H])C([H])([H])C([H])([H])C([H])([H])[N+]([H])([H])C4([H])[H])nc(C([H])([H])C([H])([H])C([H])([H])C(=O)N4C([H])([H])C([H])([H])C([H])([H])C([H])(n5nc(-c6c([H])c([H])c(Oc7c([H])c([H])c(F)c([H])c7F)c([H])c6[H])c(C(=O)N([H])[H])c5N([H])[H])C4([H])[H])c(C([H])([H])[H])c3[H])c([H])c([H])c2C1([H])[H]

>  <smiles>  (12) 
[H]c1c([H])c([H])c2c(c1[H])C([H])([H])C([H])([H])C([H])([H])C2([H])N([H])C(=O)C1([H])N(C(=O)C([H])(N([H])C(=O)C([H])(N([H])C([H])([H])[H])C([H])([H])[H])C(C([H])([H])[H])(C([H])([H])[H])C([H])([H])[H])C([H])([H])c2c([H])c(OC([H])([H])C([H])([H])c3c(C4([H])C([H])([H])C([H])([H])C([H])([H])[N+]([H])([H])C4([H])[H])nc(C([H])([H])C([H])([H])C([H])([H])C(=O)N4C([H])([H])C([H])([H])C([H])([H])C([H])(n5nc(-c6c([H])c([H])c(Oc7c([H])c([H])c(F)c([H])c7F)c([H])c6[H])c(C(=O)N([H])[H])c5N([H])[H])C4([H])[H])c(C([H])([H])[H])c3[H])c([H])c([H])c2C1([H])[H]

$$$$
12:0:0
     RDKit          3D

101109  0  0  1  0  0  0  0  0999 V2000
  -25.3650  -23.9500   22.8480 C   0  0  0  0  0  2  0  0  0  0  0  0
  -25.4170  -22.8940   20.5270 C   0  0  0  0  0  3  0  0  0  0  0  0
  -27.0640  -23.6110   18.8730 C   0  0  0  0  0  3  0  0  0  0  0  0
  -27.1010  -24.5500   21.1240 C   0  0  0  0  0  3  0  0  0  0  0  0
  -25.9650  -22.8050   19.2290 C   0  0  0  0  0  0  0  0  0  0  0  0
  -25.9770  -23.7780   21.4730 C   0  0  0  0  0  0  0  0  0  0  0  0
  -27.6050  -24.5110   19.8090 C   0  0  0  0  0  0  0  0  0  0  0  0
  -24.0230  -22.4680   17.6370 C   0  0  0  0  0  1  0  0  0  0  0  0
  -25.3320  -21.8950   18.1940 C   0  0  0  0  0  2  0  0  0  0  0  0
  -28.5800  -25.5780   19.3420 C   0  0  0  0  0  2  0  0  0  0  0  0
  -28.4480  -26.8120   20.0550 O   0  0  0  0  0  0  0  0  0  0  0  0
  -24.6060  -31.8730   23.2200 C   0  0  0  0  0  0  0  0  0  0  0  0
  -27.2460  -27.4950   20.0360 C   0  0  0  0  0  0  0  0  0  0  0  0
  -23.3920  -30.5000   21.5610 C   0  0  0  0  0  3  0  0  0  0  0  0
  -24.8380  -28.9820   20.1110 C   0  0  0  0  0  0  0  0  0  0  0  0
  -25.9180  -30.8400   21.3780 C   0  0  0  0  0  2  0  0  0  0  0  0
  -25.9930  -29.4800   20.7230 C   0  0  0  0  0  0  0  0  0  0  0  0
  -27.1890  -28.7330   20.7090 C   0  0  0  0  0  3  0  0  0  0  0  0
  -26.0740  -27.0340   19.3820 C   0  0  0  0  0  3  0  0  0  0  0  0
  -24.8690  -27.7490   19.4450 C   0  0  0  0  0  3  0  0  0  0  0  0
  -23.5990  -29.8420   20.1710 C   0  0  0  0  0  2  0  0  0  0  0  0
  -24.6570  -31.0850   22.1120 N   0  0  0  0  0  0  0  0  0  0  0  0
  -23.5270  -32.1510   23.7600 O   0  0  0  0  0  0  0  0  0  0  0  0
  -22.7360  -29.4690   22.5040 C   0  0  0  0  0  0  0  0  0  0  0  0
  -21.4090  -29.3040   22.3790 N   0  0  0  0  0  0  0  0  0  0  0  0
  -23.4150  -28.8190   23.3040 O   0  0  0  0  0  0  0  0  0  0  0  0
  -20.9170  -29.8870   21.7160 H   0  0  0  0  0  0  0  0  0  0  0  0
  -18.0280  -28.1340   22.8490 C   0  0  0  0  0  0  0  0  0  0  0  0
  -20.5850  -28.3630   23.1370 C   0  0  0  0  0  3  0  0  0  0  0  0
  -20.6800  -26.9390   22.5420 C   0  0  0  0  0  2  0  0  0  0  0  0
  -19.5790  -26.6390   21.5200 C   0  0  0  0  0  2  0  0  0  0  0  0
  -18.1980  -26.7880   22.1620 C   0  0  0  0  0  2  0  0  0  0  0  0
  -19.1510  -28.8790   23.2940 C   0  0  0  0  0  0  0  0  0  0  0  0
  -18.9430  -30.1410   23.8900 C   0  0  0  0  0  3  0  0  0  0  0  0
  -17.6420  -30.6550   24.0540 C   0  0  0  0  0  3  0  0  0  0  0  0
  -16.5320  -29.9030   23.6310 C   0  0  0  0  0  3  0  0  0  0  0  0
  -16.7270  -28.6460   23.0330 C   0  0  0  0  0  3  0  0  0  0  0  0
  -25.8980  -32.4890   23.8440 C   0  0  0  0  0  3  0  0  0  0  0  0
  -25.5840  -33.8690   24.2370 N   0  0  0  0  0  0  0  0  0  0  0  0
  -25.9010  -34.9530   23.5150 C   0  0  0  0  0  0  0  0  0  0  0  0
  -26.5600  -34.8970   22.4730 O   0  0  0  0  0  0  0  0  0  0  0  0
  -24.9970  -33.9840   25.0510 H   0  0  0  0  0  0  0  0  0  0  0  0
  -24.1480  -36.7350   23.2650 C   0  0  0  0  0  1  0  0  0  0  0  0
  -25.4110  -36.3170   24.0350 C   0  0  0  0  0  3  0  0  0  0  0  0
  -27.5600  -37.1840   24.8480 C   0  0  0  0  0  1  0  0  0  0  0  0
  -26.4310  -37.3840   23.9420 N   0  0  0  0  0  0  0  0  0  0  0  0
  -26.0210  -38.2930   24.1440 H   0  0  0  0  0  0  0  0  0  0  0  0
  -26.4460  -31.6670   25.0760 C   0  0  1  0  0  0  0  0  0  0  0  0
  -25.3790  -31.3710   26.1550 C   0  0  0  0  0  1  0  0  0  0  0  0
  -27.0300  -30.3140   24.6080 C   0  0  0  0  0  1  0  0  0  0  0  0
  -27.6070  -32.4390   25.7450 C   0  0  0  0  0  1  0  0  0  0  0  0
  -26.3030  -23.4340   23.8500 N   0  0  0  0  0  4  0  0  0  0  0  0
  -27.1190  -24.0240   23.8870 H   0  0  0  0  0  0  0  0  0  0  0  0
  -26.5910  -22.5240   23.5170 H   0  0  0  0  0  0  0  0  0  0  0  0
  -25.7620  -23.2320   25.2070 C   0  0  0  0  0  2  0  0  0  0  0  0
  -26.5970  -22.1930   25.9820 C   0  0  0  0  0  2  0  0  0  0  0  0
  -26.5300  -20.7470   25.4280 C   0  0  0  0  0  2  0  0  0  0  0  0
  -27.0790  -20.6270   23.9940 C   0  0  0  0  0  2  0  0  0  0  0  0
  -27.6900  -19.2840   23.6010 C   0  0  0  0  0  2  0  0  0  0  0  0
  -28.3320  -19.3930   22.2080 C   0  0  0  0  0  2  0  0  0  0  0  0
  -29.6450  -18.6160   22.0950 C   0  0  0  0  0  2  0  0  0  0  0  0
  -29.4420  -17.1080   22.2040 C   0  0  0  0  0  2  0  0  0  0  0  0
  -30.7620  -16.3320   22.1390 C   0  0  0  0  0  2  0  0  0  0  0  0
  -30.8010  -14.3010   20.7210 C   0  0  0  0  0  0  0  0  0  0  0  0
  -30.4300  -12.2680   19.3980 C   0  0  0  0  0  2  0  0  0  0  0  0
  -29.5000  -12.5250   18.1990 C   0  0  0  0  0  2  0  0  0  0  0  0
  -28.0250  -12.3730   18.6200 C   0  0  0  0  0  2  0  0  0  0  0  0
  -27.6790  -13.1970   19.8880 C   0  0  0  0  0  3  0  0  0  0  0  0
  -28.7110  -12.9310   21.0060 C   0  0  0  0  0  2  0  0  0  0  0  0
  -30.0690  -13.1880   20.4800 N   0  0  0  0  0  0  0  0  0  0  0  0
  -31.7510  -14.6680   20.0220 O   0  0  0  0  0  0  0  0  0  0  0  0
  -30.4490  -14.9460   21.8350 N   0  0  0  0  0  0  0  0  0  0  0  0
  -29.7420  -14.5010   22.4010 H   0  0  0  0  0  0  0  0  0  0  0  0
  -25.2680  -13.8160   20.5720 C   0  0  0  0  0  0  0  0  0  0  0  0
  -24.1890  -13.0450   20.9180 C   0  0  0  0  0  0  0  0  0  0  0  0
  -24.6400  -11.6920   20.8730 C   0  0  0  0  0  0  0  0  0  0  0  0
  -26.3120  -12.9310   20.3420 N   0  0  0  0  0  0  0  0  0  0  0  0
  -25.9340  -11.6480   20.5780 N   0  0  0  0  0  0  0  0  0  0  0  0
  -23.9080  -10.4310   21.0400 C   0  0  0  0  0  0  0  0  0  0  0  0
  -24.3640   -9.4240   21.9180 C   0  0  0  0  0  3  0  0  0  0  0  0
  -23.6320   -8.2280   22.0740 C   0  0  0  0  0  3  0  0  0  0  0  0
  -22.4310   -8.0290   21.3550 C   0  0  0  0  0  0  0  0  0  0  0  0
  -21.9960   -9.0260   20.4640 C   0  0  0  0  0  3  0  0  0  0  0  0
  -22.7260  -10.2140   20.3050 C   0  0  0  0  0  3  0  0  0  0  0  0
  -21.6670   -6.8900   21.4240 O   0  0  0  0  0  0  0  0  0  0  0  0
  -21.6860   -6.0760   22.5270 C   0  0  0  0  0  0  0  0  0  0  0  0
  -21.4000   -6.5640   23.8210 C   0  0  0  0  0  3  0  0  0  0  0  0
  -21.3690   -5.6780   24.9170 C   0  0  0  0  0  3  0  0  0  0  0  0
  -21.6060   -4.3040   24.7210 C   0  0  0  0  0  0  0  0  0  0  0  0
  -21.8810   -3.8140   23.4330 C   0  0  0  0  0  3  0  0  0  0  0  0
  -21.9190   -4.6970   22.3390 C   0  0  0  0  0  0  0  0  0  0  0  0
  -22.1660   -4.2160   21.0980 F   0  0  0  0  0  0  0  0  0  0  0  0
  -21.5660   -3.4520   25.7730 F   0  0  0  0  0  0  0  0  0  0  0  0
  -22.7920  -13.5310   21.1830 C   0  0  0  0  0  0  0  0  0  0  0  0
  -22.0500  -12.8310   22.0370 N   0  0  0  0  0  0  0  0  0  0  0  0
  -22.3620  -14.5620   20.6680 O   0  0  0  0  0  0  0  0  0  0  0  0
  -22.4040  -11.9980   22.4840 H   0  0  0  0  0  0  0  0  0  0  0  0
  -21.1100  -13.1360   22.2460 H   0  0  0  0  0  0  0  0  0  0  0  0
  -25.4470  -15.1870   20.4140 N   0  0  0  0  0  0  0  0  0  0  0  0
  -24.6920  -15.8530   20.5300 H   0  0  0  0  0  0  0  0  0  0  0  0
  -26.3140  -15.6180   20.1180 H   0  0  0  0  0  0  0  0  0  0  0  0
  1 52  1  0
  2  6  1  0
  3  5  1  0
  3  7  2  0
  4  6  2  0
  5  2  2  0
  6  1  1  0
  7  4  1  0
  8  9  1  0
  9  5  1  0
 10  7  1  0
 10 11  1  0
 12 23  2  0
 13 11  1  0
 13 18  1  0
 14 22  1  0
 14 24  1  0
 15 21  1  0
 15 17  1  0
 16 22  1  0
 17 16  1  0
 18 17  2  0
 19 20  1  0
 19 13  2  0
 20 15  2  0
 21 14  1  0
 22 12  1  0
 24 26  2  0
 25 24  1  0
 27 25  1  0
 28 37  2  0
 28 33  1  0
 29 25  1  0
 29 33  1  0
 30 29  1  0
 31 32  1  0
 31 30  1  0
 32 28  1  0
 33 34  2  0
 34 35  1  0
 36 35  2  0
 37 36  1  0
 38 12  1  0
 38 39  1  0
 38 48  1  0
 39 42  1  0
 40 44  1  0
 40 39  1  0
 41 40  2  0
 44 43  1  0
 46 44  1  0
 46 47  1  0
 46 45  1  0
 48 51  1  1
 48 49  1  0
 50 48  1  0
 52 53  1  0
 52 55  1  0
 54 52  1  0
 55 56  1  0
 57 56  1  0
 58 57  1  0
 59 58  1  0
 60 59  1  0
 61 62  1  0
 61 60  1  0
 63 62  1  0
 64 72  1  0
 65 70  1  0
 66 67  1  0
 66 65  1  0
 68 67  1  0
 68 77  1  0
 68 69  1  0
 70 64  1  0
 70 69  1  0
 71 64  2  0
 72 63  1  0
 72 73  1  0
 74 75  2  0
 75 94  1  0
 76 75  1  0
 76 79  1  0
 77 74  1  0
 77 78  1  0
 78 76  2  0
 79 80  1  0
 80 81  2  0
 82 85  1  0
 82 81  1  0
 83 82  2  0
 84 83  1  0
 84 79  2  0
 85 86  1  0
 86 87  1  0
 87 88  2  0
 89 88  1  0
 89 93  1  0
 90 89  2  0
 91 86  2  0
 91 90  1  0
 92 91  1  0
 94 95  1  0
 95 98  1  0
 95 97  1  0
 96 94  2  0
 99100  1  0
 99 74  1  0
101 99  1  0
M  ISO  4  10 101  11 101  64 100  72 100
M  END
>  <TORSDO>  (13) 
F 29

>  <SCORE>  (13) 
35.613

>  <name>  (13) 
12

>  <ligand_id>  (13) 
12

>  <original_smiles>  (13) 
[H]c1c([H])c([H])c2c(c1[H])C([H])([H])C([H])([H])C([H])([H])C2([H])N([H])C(=O)C1([H])N(C(=O)C([H])(N([H])C(=O)C([H])(N([H])C([H])([H])[H])C([H])([H])[H])C(C([H])([H])[H])(C([H])([H])[H])C([H])([H])[H])C([H])([H])c2c([H])c(OC([H])([H])c3c([H])c(C([H])([H])C([H])([H])[H])c([H])c(C([H])([H])[N+]([H])([H])C([H])([H])C([H])([H])C([H])([H])C([H])([H])C([H])([H])C([H])([H])C([H])([H])C([H])([H])C([H])([H])N([H])C(=O)N4C([H])([H])C([H])([H])C([H])([H])C([H])(n5nc(-c6c([H])c([H])c(Oc7c([H])c([H])c(F)c([H])c7F)c([H])c6[H])c(C(=O)N([H])[H])c5N([H])[H])C4([H])[H])c3[H])c([H])c([H])c2C1([H])[H]

>  <smiles>  (13) 
[H]c1c([H])c([H])c2c(c1[H])C([H])([H])C([H])([H])C([H])([H])C2([H])N([H])C(=O)C1([H])N(C(=O)C([H])(N([H])C(=O)C([H])(N([H])C([H])([H])[H])C([H])([H])[H])C(C([H])([H])[H])(C([H])([H])[H])C([H])([H])[H])C([H])([H])c2c([H])c(OC([H])([H])c3c([H])c(C([H])([H])C([H])([H])[H])c([H])c(C([H])([H])[N+]([H])([H])C([H])([H])C([H])([H])C([H])([H])C([H])([H])C([H])([H])C([H])([H])C([H])([H])C([H])([H])C([H])([H])N([H])C(=O)N4C([H])([H])C([H])([H])C([H])([H])C([H])(n5nc(-c6c([H])c([H])c(Oc7c([H])c([H])c(F)c([H])c7F)c([H])c6[H])c(C(=O)N([H])[H])c5N([H])[H])C4([H])[H])c3[H])c([H])c([H])c2C1([H])[H]

$$$$
13:0:0
     RDKit          3D

 89 97  0  0  1  0  0  0  0  0999 V2000
  -30.7420  -18.4490   19.1710 C   0  0  0  0  0  3  0  0  0  0  0  0
  -28.5430  -19.8610   20.1320 C   0  0  0  0  0  3  0  0  0  0  0  0
  -30.5940  -19.8770   18.9330 C   0  0  0  0  0  0  0  0  0  0  0  0
  -28.6890  -18.4500   20.3770 C   0  0  0  0  0  0  0  0  0  0  0  0
  -29.7820  -17.6570   19.8780 C   0  0  0  0  0  0  0  0  0  0  0  0
  -29.4610  -20.6430   19.3830 C   0  0  0  0  0  0  0  0  0  0  0  0
  -31.6710  -20.5740   18.1210 C   0  0  0  0  0  1  0  0  0  0  0  0
  -27.5720  -17.7930   21.1770 C   0  0  0  0  0  1  0  0  0  0  0  0
  -29.7910  -16.0530   20.1780 C   0  0  0  0  0  2  0  0  0  0  0  0
  -30.4770  -14.7920   19.4110 C   0  0  0  0  0  0  0  0  0  0  0  0
  -30.2630  -12.4540   18.4680 C   0  0  0  0  0  2  0  0  0  0  0  0
  -29.1630  -12.4480   17.3810 C   0  0  0  0  0  2  0  0  0  0  0  0
  -27.7650  -12.2550   18.0040 C   0  0  0  0  0  2  0  0  0  0  0  0
  -27.5370  -13.1750   19.2340 C   0  0  0  0  0  3  0  0  0  0  0  0
  -28.7350  -13.1080   20.2050 C   0  0  0  0  0  2  0  0  0  0  0  0
  -29.9300  -13.5170   19.4500 N   0  0  0  0  0  0  0  0  0  0  0  0
  -31.5330  -14.9550   18.7870 O   0  0  0  0  0  0  0  0  0  0  0  0
  -25.3120  -13.7910   20.3520 C   0  0  0  0  0  0  0  0  0  0  0  0
  -24.2790  -13.0290   20.8260 C   0  0  0  0  0  0  0  0  0  0  0  0
  -24.6710  -11.6700   20.6310 C   0  0  0  0  0  0  0  0  0  0  0  0
  -26.2680  -12.8970   19.8980 N   0  0  0  0  0  0  0  0  0  0  0  0
  -25.8970  -11.6100   20.1230 N   0  0  0  0  0  0  0  0  0  0  0  0
  -23.9250  -10.4220   20.8480 C   0  0  0  0  0  0  0  0  0  0  0  0
  -24.4020   -9.4200   21.7220 C   0  0  0  0  0  3  0  0  0  0  0  0
  -23.6600   -8.2360   21.9260 C   0  0  0  0  0  3  0  0  0  0  0  0
  -22.4280   -8.0460   21.2570 C   0  0  0  0  0  0  0  0  0  0  0  0
  -21.9700   -9.0360   20.3700 C   0  0  0  0  0  3  0  0  0  0  0  0
  -22.7110  -10.2110   20.1640 C   0  0  0  0  0  3  0  0  0  0  0  0
  -21.6520   -6.9180   21.3750 O   0  0  0  0  0  0  0  0  0  0  0  0
  -21.6090   -6.1910   22.5370 C   0  0  0  0  0  0  0  0  0  0  0  0
  -21.1730   -6.7600   23.7540 C   0  0  0  0  0  3  0  0  0  0  0  0
  -21.0800   -5.9610   24.9100 C   0  0  0  0  0  3  0  0  0  0  0  0
  -21.4100   -4.5940   24.8500 C   0  0  0  0  0  0  0  0  0  0  0  0
  -21.8400   -4.0230   23.6380 C   0  0  0  0  0  3  0  0  0  0  0  0
  -21.9360   -4.8220   22.4840 C   0  0  0  0  0  0  0  0  0  0  0  0
  -22.3320   -4.2650   21.3130 F   0  0  0  0  0  0  0  0  0  0  0  0
  -21.3110   -3.8220   25.9580 F   0  0  0  0  0  0  0  0  0  0  0  0
  -22.9620  -13.5320   21.3420 C   0  0  0  0  0  0  0  0  0  0  0  0
  -22.3530  -12.8010   22.2690 N   0  0  0  0  0  0  0  0  0  0  0  0
  -22.4920  -14.6020   20.9610 O   0  0  0  0  0  0  0  0  0  0  0  0
  -22.7560  -11.9350   22.5950 H   0  0  0  0  0  0  0  0  0  0  0  0
  -21.4740  -13.1120   22.6580 H   0  0  0  0  0  0  0  0  0  0  0  0
  -25.5100  -15.1650   20.2490 N   0  0  0  0  0  0  0  0  0  0  0  0
  -24.7960  -15.8340   20.5120 H   0  0  0  0  0  0  0  0  0  0  0  0
  -26.3140  -15.5960   19.8120 H   0  0  0  0  0  0  0  0  0  0  0  0
  -29.0500  -22.1280   18.8710 C   0  0  0  0  0  2  0  0  0  0  0  0
  -29.3570  -23.5870   19.5540 C   0  0  0  0  0  3  0  0  0  0  0  0
  -28.4390  -24.8800   19.1040 C   0  0  0  0  0  3  0  0  0  0  0  0
  -28.6010  -26.3350   19.5390 O   0  0  0  0  0  0  0  0  0  0  0  0
  -24.6290  -31.4870   22.8710 C   0  0  0  0  0  0  0  0  0  0  0  0
  -27.4760  -27.2180   19.5180 C   0  0  0  0  0  0  0  0  0  0  0  0
  -23.5120  -30.1580   21.1200 C   0  0  0  0  0  3  0  0  0  0  0  0
  -25.0490  -28.7860   19.5950 C   0  0  0  0  0  0  0  0  0  0  0  0
  -26.0430  -30.5840   20.9990 C   0  0  0  0  0  2  0  0  0  0  0  0
  -26.1940  -29.2590   20.2470 C   0  0  0  0  0  0  0  0  0  0  0  0
  -27.4080  -28.4880   20.2000 C   0  0  0  0  0  3  0  0  0  0  0  0
  -26.3030  -26.8350   18.8280 C   0  0  0  0  0  3  0  0  0  0  0  0
  -25.1110  -27.5850   18.8720 C   0  0  0  0  0  3  0  0  0  0  0  0
  -23.7720  -29.6010   19.6950 C   0  0  0  0  0  2  0  0  0  0  0  0
  -24.7460  -30.7590   21.7200 N   0  0  0  0  0  0  0  0  0  0  0  0
  -23.5280  -31.6750   23.4070 O   0  0  0  0  0  0  0  0  0  0  0  0
  -22.8840  -29.0460   21.9950 C   0  0  0  0  0  0  0  0  0  0  0  0
  -21.5620  -28.8350   21.8620 N   0  0  0  0  0  0  0  0  0  0  0  0
  -23.5870  -28.3770   22.7570 O   0  0  0  0  0  0  0  0  0  0  0  0
  -21.0490  -29.4260   21.2220 H   0  0  0  0  0  0  0  0  0  0  0  0
  -18.2260  -27.5090   22.3170 C   0  0  0  0  0  0  0  0  0  0  0  0
  -20.7820  -27.8090   22.5570 C   0  0  0  0  0  3  0  0  0  0  0  0
  -20.9060  -26.4410   21.8470 C   0  0  0  0  0  2  0  0  0  0  0  0
  -19.7900  -26.1870   20.8290 C   0  0  0  0  0  2  0  0  0  0  0  0
  -18.4190  -26.2350   21.5100 C   0  0  0  0  0  2  0  0  0  0  0  0
  -19.3340  -28.2550   22.7940 C   0  0  0  0  0  0  0  0  0  0  0  0
  -19.0980  -29.4490   23.5110 C   0  0  0  0  0  3  0  0  0  0  0  0
  -17.7850  -29.9000   23.7450 C   0  0  0  0  0  3  0  0  0  0  0  0
  -16.6910  -29.1500   23.2820 C   0  0  0  0  0  3  0  0  0  0  0  0
  -16.9120  -27.9530   22.5770 C   0  0  0  0  0  3  0  0  0  0  0  0
  -25.8710  -32.1350   23.5560 C   0  0  0  0  0  3  0  0  0  0  0  0
  -26.4030  -31.3050   24.7880 C   0  0  1  0  0  0  0  0  0  0  0  0
  -25.3070  -30.9600   25.8240 C   0  0  0  0  0  1  0  0  0  0  0  0
  -27.0420  -29.9770   24.3220 C   0  0  0  0  0  1  0  0  0  0  0  0
  -27.5160  -32.1000   25.5130 C   0  0  0  0  0  1  0  0  0  0  0  0
  -25.4900  -33.4940   23.9740 N   0  0  0  0  0  0  0  0  0  0  0  0
  -25.7770  -34.6110   23.2920 C   0  0  0  0  0  0  0  0  0  0  0  0
  -26.4590  -34.6090   22.2640 O   0  0  0  0  0  0  0  0  0  0  0  0
  -24.8800  -33.5650   24.7750 H   0  0  0  0  0  0  0  0  0  0  0  0
  -23.9670  -36.3400   23.0460 C   0  0  0  0  0  1  0  0  0  0  0  0
  -25.2220  -35.9410   23.8380 C   0  0  0  0  0  3  0  0  0  0  0  0
  -27.2990  -36.8770   24.7580 C   0  0  0  0  0  1  0  0  0  0  0  0
  -26.2050  -37.0470   23.8040 N   0  0  0  0  0  0  0  0  0  0  0  0
  -25.7530  -37.9370   23.9940 H   0  0  0  0  0  0  0  0  0  0  0  0
  1  5  1  0
  2  4  1  0
  3  1  2  0
  3  6  1  0
  4  8  1  0
  5  9  1  0
  5  4  2  0
  6  2  2  0
  7  3  1  0
 10 16  1  0
 10  9  1  0
 11 16  1  0
 12 13  1  0
 12 11  1  0
 14 13  1  0
 14 21  1  0
 14 15  1  0
 16 15  1  0
 17 10  2  0
 18 19  2  0
 19 38  1  0
 20 19  1  0
 20 23  1  0
 21 22  1  0
 21 18  1  0
 22 20  2  0
 23 24  1  0
 24 25  2  0
 26 29  1  0
 26 25  1  0
 27 26  2  0
 28 27  1  0
 28 23  2  0
 29 30  1  0
 30 31  1  0
 31 32  2  0
 33 32  1  0
 33 37  1  0
 34 33  2  0
 35 30  2  0
 35 34  1  0
 36 35  1  0
 38 39  1  0
 39 41  1  0
 39 42  1  0
 40 38  2  0
 43 18  1  0
 43 44  1  0
 45 43  1  0
 46  6  1  0
 46 47  1  0
 48 49  1  0
 48 47  2  0
 50 61  2  0
 51 49  1  0
 51 56  1  0
 52 60  1  0
 52 62  1  0
 53 59  1  0
 53 55  1  0
 54 60  1  0
 55 54  1  0
 56 55  2  0
 57 58  1  0
 57 51  2  0
 58 53  2  0
 59 52  1  0
 60 50  1  0
 62 64  2  0
 63 62  1  0
 65 63  1  0
 66 75  2  0
 66 71  1  0
 67 63  1  0
 67 71  1  0
 68 67  1  0
 69 70  1  0
 69 68  1  0
 70 66  1  0
 71 72  2  0
 72 73  1  0
 74 73  2  0
 75 74  1  0
 76 50  1  0
 76 81  1  0
 76 77  1  0
 77 80  1  1
 77 78  1  0
 79 77  1  0
 81 84  1  0
 82 86  1  0
 82 81  1  0
 83 82  2  0
 86 85  1  0
 88 86  1  0
 88 89  1  0
 88 87  1  0
M  ISO  4   9 100  10 100  48 101  49 101
M  END
>  <TORSDO>  (14) 
F 20

>  <SCORE>  (14) 
-10.721

>  <name>  (14) 
13

>  <ligand_id>  (14) 
13

>  <original_smiles>  (14) 
[H]c1c([H])c([H])c2c(c1[H])C([H])([H])C([H])([H])C([H])([H])C2([H])N([H])C(=O)C1([H])N(C(=O)C([H])(N([H])C(=O)C([H])(N([H])C([H])([H])[H])C([H])([H])[H])C(C([H])([H])[H])(C([H])([H])[H])C([H])([H])[H])C([H])([H])c2c([H])c(OC([H])([H])C([H])([H])C([H])([H])c3c([H])c(C([H])([H])[H])c(C([H])([H])C(=O)N4C([H])([H])C([H])([H])C([H])([H])C([H])(n5nc(-c6c([H])c([H])c(Oc7c([H])c([H])c(F)c([H])c7F)c([H])c6[H])c(C(=O)N([H])[H])c5N([H])[H])C4([H])[H])c([H])c3C([H])([H])[H])c([H])c([H])c2C1([H])[H]

>  <smiles>  (14) 
[H]c1c([H])c([H])c2c(c1[H])C([H])([H])C([H])([H])C([H])([H])C2([H])N([H])C(=O)C1([H])N(C(=O)C([H])(N([H])C(=O)C([H])(N([H])C([H])([H])[H])C([H])([H])[H])C(C([H])([H])[H])(C([H])([H])[H])C([H])([H])[H])C([H])([H])c2c([H])c(OC([H])([H])C([H])([H])C([H])([H])c3c([H])c(C([H])([H])[H])c(C([H])([H])C(=O)N4C([H])([H])C([H])([H])C([H])([H])C([H])(n5nc(-c6c([H])c([H])c(Oc7c([H])c([H])c(F)c([H])c7F)c([H])c6[H])c(C(=O)N([H])[H])c5N([H])[H])C4([H])[H])c([H])c3C([H])([H])[H])c([H])c([H])c2C1([H])[H]

$$$$
14:0:0
     RDKit          3D

 96104  0  0  1  0  0  0  0  0999 V2000
  -27.9960  -22.8320   18.3000 C   0  0  0  0  0  3  0  0  0  0  0  0
  -28.4470  -22.1350   19.4410 C   0  0  0  0  0  0  0  0  0  0  0  0
  -27.9930  -20.7930   19.6180 C   0  0  0  0  0  0  0  0  0  0  0  0
  -27.0610  -22.2480   17.4420 C   0  0  0  0  0  0  0  0  0  0  0  0
  -27.0340  -20.2950   18.6920 C   0  0  0  0  0  0  0  0  0  0  0  0
  -26.5670  -21.0170   17.6500 N   0  0  0  0  0  0  0  0  0  0  0  0
  -25.1850  -23.6800   16.5110 C   0  0  0  0  0  1  0  0  0  0  0  0
  -26.5390  -23.0110   16.2390 C   0  0  0  0  0  2  0  0  0  0  0  0
  -25.0120  -18.9600   19.4520 C   0  0  0  0  0  1  0  0  0  0  0  0
  -26.3950  -18.9160   18.7860 C   0  0  0  0  0  2  0  0  0  0  0  0
  -29.3900  -22.8440   20.4280 C   0  0  0  0  0  2  0  0  0  0  0  0
  -29.5470  -24.3800   20.2310 C   0  0  0  0  0  2  0  0  0  0  0  0
  -28.2520  -25.1660   20.5130 C   0  0  0  0  0  2  0  0  0  0  0  0
  -28.4140  -26.5650   20.2110 O   0  0  0  0  0  0  0  0  0  0  0  0
  -24.5700  -31.8020   23.1390 C   0  0  0  0  0  0  0  0  0  0  0  0
  -27.2550  -27.3120   20.1640 C   0  0  0  0  0  0  0  0  0  0  0  0
  -23.3990  -30.3980   21.4770 C   0  0  0  0  0  3  0  0  0  0  0  0
  -24.8780  -28.8470   20.0950 C   0  0  0  0  0  0  0  0  0  0  0  0
  -25.9330  -30.7390   21.3440 C   0  0  0  0  0  2  0  0  0  0  0  0
  -26.0270  -29.3650   20.7090 C   0  0  0  0  0  0  0  0  0  0  0  0
  -27.2210  -28.6060   20.7360 C   0  0  0  0  0  3  0  0  0  0  0  0
  -26.0870  -26.8190   19.5360 C   0  0  0  0  0  3  0  0  0  0  0  0
  -24.9030  -27.5730   19.5100 C   0  0  0  0  0  3  0  0  0  0  0  0
  -23.6440  -29.7210   20.1030 C   0  0  0  0  0  2  0  0  0  0  0  0
  -24.6510  -30.9940   22.0450 N   0  0  0  0  0  0  0  0  0  0  0  0
  -23.4770  -32.0840   23.6490 O   0  0  0  0  0  0  0  0  0  0  0  0
  -22.7180  -29.3820   22.4210 C   0  0  0  0  0  0  0  0  0  0  0  0
  -21.3930  -29.2240   22.2740 N   0  0  0  0  0  0  0  0  0  0  0  0
  -23.3780  -28.7400   23.2420 O   0  0  0  0  0  0  0  0  0  0  0  0
  -20.9240  -29.7960   21.5870 H   0  0  0  0  0  0  0  0  0  0  0  0
  -17.9840  -28.1140   22.7440 C   0  0  0  0  0  0  0  0  0  0  0  0
  -20.5460  -28.2990   23.0300 C   0  0  0  0  0  3  0  0  0  0  0  0
  -20.6140  -26.8730   22.4380 C   0  0  0  0  0  2  0  0  0  0  0  0
  -19.5090  -26.5940   21.4140 C   0  0  0  0  0  2  0  0  0  0  0  0
  -18.1270  -26.7700   22.0480 C   0  0  0  0  0  2  0  0  0  0  0  0
  -19.1210  -28.8380   23.1890 C   0  0  0  0  0  0  0  0  0  0  0  0
  -18.9380  -30.0990   23.7960 C   0  0  0  0  0  3  0  0  0  0  0  0
  -17.6500  -30.6390   23.9600 C   0  0  0  0  0  3  0  0  0  0  0  0
  -16.5250  -29.9110   23.5340 C   0  0  0  0  0  3  0  0  0  0  0  0
  -16.6930  -28.6510   22.9320 C   0  0  0  0  0  3  0  0  0  0  0  0
  -25.8420  -32.4290   23.7880 C   0  0  0  0  0  3  0  0  0  0  0  0
  -26.3280  -31.6540   25.0720 C   0  0  1  0  0  0  0  0  0  0  0  0
  -25.2070  -31.4190   26.1130 C   0  0  0  0  0  1  0  0  0  0  0  0
  -26.9180  -30.2770   24.6890 C   0  0  0  0  0  1  0  0  0  0  0  0
  -27.4640  -32.4460   25.7640 C   0  0  0  0  0  1  0  0  0  0  0  0
  -25.5280  -33.8250   24.1140 N   0  0  0  0  0  0  0  0  0  0  0  0
  -25.8760  -34.8780   23.3630 C   0  0  0  0  0  0  0  0  0  0  0  0
  -26.5720  -34.7780   22.3470 O   0  0  0  0  0  0  0  0  0  0  0  0
  -24.9180  -33.9750   24.9020 H   0  0  0  0  0  0  0  0  0  0  0  0
  -24.1530  -36.6680   22.9750 C   0  0  0  0  0  1  0  0  0  0  0  0
  -25.3780  -36.2660   23.8120 C   0  0  0  0  0  3  0  0  0  0  0  0
  -27.4950  -37.1500   24.6880 C   0  0  0  0  0  1  0  0  0  0  0  0
  -26.4100  -37.3220   23.7240 N   0  0  0  0  0  0  0  0  0  0  0  0
  -26.0000  -38.2390   23.8700 H   0  0  0  0  0  0  0  0  0  0  0  0
  -28.5310  -19.8840   20.7400 C   0  0  0  0  0  2  0  0  0  0  0  0
  -29.5880  -18.8730   20.2320 C   0  0  0  0  0  2  0  0  0  0  0  0
  -29.4960  -17.4590   20.8520 C   0  0  0  0  0  2  0  0  0  0  0  0
  -30.5080  -16.4790   20.2180 C   0  0  0  0  0  2  0  0  0  0  0  0
  -30.7760  -14.0510   19.8220 C   0  0  0  0  0  0  0  0  0  0  0  0
  -30.3450  -11.8720   18.7550 C   0  0  0  0  0  2  0  0  0  0  0  0
  -29.3290  -12.0750   17.6110 C   0  0  0  0  0  2  0  0  0  0  0  0
  -27.8850  -11.9880   18.1440 C   0  0  0  0  0  2  0  0  0  0  0  0
  -27.6580  -12.8620   19.4080 C   0  0  0  0  0  3  0  0  0  0  0  0
  -28.7830  -12.6400   20.4470 C   0  0  0  0  0  2  0  0  0  0  0  0
  -30.0740  -12.8880   19.7830 N   0  0  0  0  0  0  0  0  0  0  0  0
  -31.8300  -14.2250   19.2040 O   0  0  0  0  0  0  0  0  0  0  0  0
  -30.1700  -15.0720   20.4510 N   0  0  0  0  0  0  0  0  0  0  0  0
  -29.3230  -14.8570   20.9600 H   0  0  0  0  0  0  0  0  0  0  0  0
  -25.3320  -13.5400   20.2820 C   0  0  0  0  0  0  0  0  0  0  0  0
  -24.2760  -12.7970   20.7420 C   0  0  0  0  0  0  0  0  0  0  0  0
  -24.7020  -11.4350   20.6960 C   0  0  0  0  0  0  0  0  0  0  0  0
  -26.3360  -12.6290   19.9870 N   0  0  0  0  0  0  0  0  0  0  0  0
  -25.9640  -11.3590   20.2910 N   0  0  0  0  0  0  0  0  0  0  0  0
  -23.9650  -10.1930   20.9590 C   0  0  0  0  0  0  0  0  0  0  0  0
  -24.4130   -9.2570   21.9180 C   0  0  0  0  0  3  0  0  0  0  0  0
  -23.6780   -8.0790   22.1660 C   0  0  0  0  0  3  0  0  0  0  0  0
  -22.4790   -7.8280   21.4560 C   0  0  0  0  0  0  0  0  0  0  0  0
  -22.0500   -8.7510   20.4880 C   0  0  0  0  0  3  0  0  0  0  0  0
  -22.7860   -9.9210   20.2370 C   0  0  0  0  0  3  0  0  0  0  0  0
  -21.7120   -6.6990   21.6130 O   0  0  0  0  0  0  0  0  0  0  0  0
  -21.6570   -6.0260   22.8080 C   0  0  0  0  0  0  0  0  0  0  0  0
  -21.2340   -6.6550   23.9980 C   0  0  0  0  0  3  0  0  0  0  0  0
  -21.1250   -5.9090   25.1900 C   0  0  0  0  0  3  0  0  0  0  0  0
  -21.4280   -4.5350   25.1920 C   0  0  0  0  0  0  0  0  0  0  0  0
  -21.8420   -3.9040   24.0040 C   0  0  0  0  0  3  0  0  0  0  0  0
  -21.9540   -4.6470   22.8160 C   0  0  0  0  0  0  0  0  0  0  0  0
  -22.3330   -4.0300   21.6710 F   0  0  0  0  0  0  0  0  0  0  0  0
  -21.3150   -3.8160   26.3330 F   0  0  0  0  0  0  0  0  0  0  0  0
  -22.9160  -13.3110   21.1120 C   0  0  0  0  0  0  0  0  0  0  0  0
  -22.2510  -12.6550   22.0580 N   0  0  0  0  0  0  0  0  0  0  0  0
  -22.4530  -14.3280   20.5990 O   0  0  0  0  0  0  0  0  0  0  0  0
  -22.6390  -11.8300   22.4900 H   0  0  0  0  0  0  0  0  0  0  0  0
  -21.3420  -12.9810   22.3530 H   0  0  0  0  0  0  0  0  0  0  0  0
  -25.5140  -14.9040   20.0720 N   0  0  0  0  0  0  0  0  0  0  0  0
  -24.7720  -15.5760   20.2340 H   0  0  0  0  0  0  0  0  0  0  0  0
  -26.3480  -15.3180   19.6790 H   0  0  0  0  0  0  0  0  0  0  0  0
  1  2  1  0
  2  3  2  0
  2 11  1  0
  3 55  1  0
  4  6  1  0
  4  1  2  0
  5 10  1  0
  5  3  1  0
  6  5  2  0
  8  7  1  0
  8  4  1  0
 10  9  1  0
 12 11  1  0
 12 13  1  0
 14 13  1  0
 15 26  2  0
 16 14  1  0
 16 21  1  0
 17 25  1  0
 17 27  1  0
 18 24  1  0
 18 20  1  0
 19 25  1  0
 20 21  2  0
 20 19  1  0
 22 16  2  0
 23 22  1  0
 23 18  2  0
 24 17  1  0
 25 15  1  0
 27 29  2  0
 28 27  1  0
 30 28  1  0
 31 40  2  0
 31 36  1  0
 32 28  1  0
 32 36  1  0
 33 32  1  0
 34 35  1  0
 34 33  1  0
 35 31  1  0
 36 37  2  0
 37 38  1  0
 39 38  2  0
 40 39  1  0
 41 15  1  0
 41 46  1  0
 41 42  1  0
 42 45  1  1
 42 43  1  0
 44 42  1  0
 46 49  1  0
 47 51  1  0
 47 46  1  0
 48 47  2  0
 51 50  1  0
 53 51  1  0
 53 54  1  0
 53 52  1  0
 56 55  1  0
 56 57  1  0
 58 67  1  0
 58 57  1  0
 59 67  1  0
 60 65  1  0
 61 62  1  0
 61 60  1  0
 63 62  1  0
 63 72  1  0
 63 64  1  0
 65 59  1  0
 65 64  1  0
 66 59  2  0
 67 68  1  0
 69 70  2  0
 70 89  1  0
 71 70  1  0
 71 74  1  0
 72 69  1  0
 72 73  1  0
 73 71  2  0
 74 75  1  0
 75 76  2  0
 77 80  1  0
 77 76  1  0
 78 77  2  0
 79 78  1  0
 79 74  2  0
 80 81  1  0
 81 86  2  0
 81 82  1  0
 82 83  2  0
 83 84  1  0
 84 88  1  0
 85 84  2  0
 86 85  1  0
 87 86  1  0
 89 90  1  0
 90 93  1  0
 90 92  1  0
 91 89  2  0
 94 95  1  0
 94 69  1  0
 96 94  1  0
M  ISO  4  13 101  14 101  59 100  67 100
M  END
>  <TORSDO>  (15) 
F 25

>  <SCORE>  (15) 
-8.762

>  <name>  (15) 
14

>  <ligand_id>  (15) 
14

>  <original_smiles>  (15) 
[H]c1c([H])c([H])c2c(c1[H])C([H])([H])C([H])([H])C([H])([H])C2([H])N([H])C(=O)C1([H])N(C(=O)C([H])(N([H])C(=O)C([H])(N([H])C([H])([H])[H])C([H])([H])[H])C(C([H])([H])[H])(C([H])([H])[H])C([H])([H])[H])C([H])([H])c2c([H])c(OC([H])([H])C([H])([H])C([H])([H])c3c([H])c(C([H])([H])C([H])([H])[H])nc(C([H])([H])C([H])([H])[H])c3C([H])([H])C([H])([H])C([H])([H])C([H])([H])N([H])C(=O)N3C([H])([H])C([H])([H])C([H])([H])C([H])(n4nc(-c5c([H])c([H])c(Oc6c([H])c([H])c(F)c([H])c6F)c([H])c5[H])c(C(=O)N([H])[H])c4N([H])[H])C3([H])[H])c([H])c([H])c2C1([H])[H]

>  <smiles>  (15) 
[H]c1c([H])c([H])c2c(c1[H])C([H])([H])C([H])([H])C([H])([H])C2([H])N([H])C(=O)C1([H])N(C(=O)C([H])(N([H])C(=O)C([H])(N([H])C([H])([H])[H])C([H])([H])[H])C(C([H])([H])[H])(C([H])([H])[H])C([H])([H])[H])C([H])([H])c2c([H])c(OC([H])([H])C([H])([H])C([H])([H])c3c([H])c(C([H])([H])C([H])([H])[H])nc(C([H])([H])C([H])([H])[H])c3C([H])([H])C([H])([H])C([H])([H])C([H])([H])N([H])C(=O)N3C([H])([H])C([H])([H])C([H])([H])C([H])(n4nc(-c5c([H])c([H])c(Oc6c([H])c([H])c(F)c([H])c6F)c([H])c5[H])c(C(=O)N([H])[H])c4N([H])[H])C3([H])[H])c([H])c([H])c2C1([H])[H]

$$$$
15:0:0
     RDKit          3D

 91 99  0  0  1  0  0  0  0  0999 V2000
  -30.7600  -20.2910   19.3830 C   0  0  0  0  0  3  0  0  0  0  0  0
  -29.9760  -19.6580   21.5810 C   0  0  0  0  0  3  0  0  0  0  0  0
  -30.3970  -20.6690   20.6910 C   0  0  0  0  0  0  0  0  0  0  0  0
  -30.6510  -18.9430   19.0090 C   0  0  0  0  0  0  0  0  0  0  0  0
  -30.1900  -18.0070   19.9620 C   0  0  0  0  0  0  0  0  0  0  0  0
  -29.8690  -18.3520   21.2310 N   0  0  0  0  0  0  0  0  0  0  0  0
  -30.9480  -18.5680   17.7400 F   0  0  0  0  0  0  0  0  0  0  0  0
  -30.4550  -22.1370   21.1020 C   0  0  0  0  0  2  0  0  0  0  0  0
  -29.3650  -22.9890   20.4140 C   0  0  0  0  0  2  0  0  0  0  0  0
  -29.4620  -24.5040   20.7000 C   0  0  0  0  0  2  0  0  0  0  0  0
  -28.3200  -25.2860   20.0270 C   0  0  0  0  0  2  0  0  0  0  0  0
  -28.4130  -26.6960   20.2690 O   0  0  0  0  0  0  0  0  0  0  0  0
  -24.5960  -31.8860   23.2620 C   0  0  0  0  0  0  0  0  0  0  0  0
  -27.2410  -27.4260   20.2120 C   0  0  0  0  0  0  0  0  0  0  0  0
  -23.3940  -30.4910   21.6100 C   0  0  0  0  0  3  0  0  0  0  0  0
  -24.8510  -28.9470   20.1970 C   0  0  0  0  0  0  0  0  0  0  0  0
  -25.9240  -30.8370   21.4310 C   0  0  0  0  0  2  0  0  0  0  0  0
  -26.0060  -29.4650   20.7950 C   0  0  0  0  0  0  0  0  0  0  0  0
  -27.2010  -28.7120   20.8000 C   0  0  0  0  0  3  0  0  0  0  0  0
  -26.0660  -26.9330   19.5930 C   0  0  0  0  0  3  0  0  0  0  0  0
  -24.8760  -27.6800   19.5930 C   0  0  0  0  0  3  0  0  0  0  0  0
  -23.6110  -29.8110   20.2330 C   0  0  0  0  0  2  0  0  0  0  0  0
  -24.6560  -31.0870   22.1590 N   0  0  0  0  0  0  0  0  0  0  0  0
  -23.5120  -32.1640   23.7920 O   0  0  0  0  0  0  0  0  0  0  0  0
  -22.7310  -29.4730   22.5650 C   0  0  0  0  0  0  0  0  0  0  0  0
  -21.4060  -29.2990   22.4270 N   0  0  0  0  0  0  0  0  0  0  0  0
  -23.4050  -28.8420   23.3830 O   0  0  0  0  0  0  0  0  0  0  0  0
  -20.9250  -29.8610   21.7380 H   0  0  0  0  0  0  0  0  0  0  0  0
  -18.0150  -28.1480   22.9110 C   0  0  0  0  0  0  0  0  0  0  0  0
  -20.5750  -28.3680   23.1900 C   0  0  0  0  0  3  0  0  0  0  0  0
  -20.6600  -26.9400   22.6060 C   0  0  0  0  0  2  0  0  0  0  0  0
  -19.5560  -26.6390   21.5880 C   0  0  0  0  0  2  0  0  0  0  0  0
  -18.1750  -26.8000   22.2290 C   0  0  0  0  0  2  0  0  0  0  0  0
  -19.1440  -28.8910   23.3480 C   0  0  0  0  0  0  0  0  0  0  0  0
  -18.9430  -30.1560   23.9440 C   0  0  0  0  0  3  0  0  0  0  0  0
  -17.6450  -30.6750   24.1090 C   0  0  0  0  0  3  0  0  0  0  0  0
  -16.5310  -29.9280   23.6900 C   0  0  0  0  0  3  0  0  0  0  0  0
  -16.7160  -28.6670   23.0960 C   0  0  0  0  0  3  0  0  0  0  0  0
  -25.8800  -32.5090   23.8920 C   0  0  0  0  0  3  0  0  0  0  0  0
  -25.5780  -33.9100   24.2140 N   0  0  0  0  0  0  0  0  0  0  0  0
  -25.9160  -34.9560   23.4460 C   0  0  0  0  0  0  0  0  0  0  0  0
  -26.5870  -34.8420   22.4160 O   0  0  0  0  0  0  0  0  0  0  0  0
  -24.9830  -34.0740   25.0120 H   0  0  0  0  0  0  0  0  0  0  0  0
  -24.1940  -36.7500   23.0770 C   0  0  0  0  0  1  0  0  0  0  0  0
  -25.4340  -36.3490   23.8930 C   0  0  0  0  0  3  0  0  0  0  0  0
  -27.5690  -37.2330   24.7160 C   0  0  0  0  0  1  0  0  0  0  0  0
  -26.4690  -37.3970   23.7710 N   0  0  0  0  0  0  0  0  0  0  0  0
  -26.0650  -38.3200   23.9100 H   0  0  0  0  0  0  0  0  0  0  0  0
  -26.3820  -31.7370   25.1730 C   0  0  1  0  0  0  0  0  0  0  0  0
  -25.2800  -31.5060   26.2320 C   0  0  0  0  0  1  0  0  0  0  0  0
  -26.9600  -30.3550   24.7830 C   0  0  0  0  0  1  0  0  0  0  0  0
  -27.5310  -32.5250   25.8430 C   0  0  0  0  0  1  0  0  0  0  0  0
  -29.8990  -16.5820   19.5110 C   0  0  0  0  0  2  0  0  0  0  0  0
  -30.7510  -14.4470   20.2930 C   0  0  0  0  0  0  0  0  0  0  0  0
  -30.4180  -12.2900   19.1860 C   0  0  0  0  0  2  0  0  0  0  0  0
  -29.4800  -12.5490   17.9870 C   0  0  0  0  0  2  0  0  0  0  0  0
  -28.0020  -12.4410   18.4180 C   0  0  0  0  0  2  0  0  0  0  0  0
  -27.6890  -13.2490   19.7070 C   0  0  0  0  0  3  0  0  0  0  0  0
  -28.7530  -13.0020   20.8050 C   0  0  0  0  0  2  0  0  0  0  0  0
  -30.0820  -13.2670   20.2300 N   0  0  0  0  0  0  0  0  0  0  0  0
  -31.8960  -14.6060   19.8640 O   0  0  0  0  0  0  0  0  0  0  0  0
  -29.9600  -15.5050   20.5100 N   0  0  0  0  0  0  0  0  0  0  0  0
  -29.0910  -15.3160   20.9820 H   0  0  0  0  0  0  0  0  0  0  0  0
  -25.2950  -13.8730   20.4200 C   0  0  0  0  0  0  0  0  0  0  0  0
  -24.2250  -13.1070   20.8010 C   0  0  0  0  0  0  0  0  0  0  0  0
  -24.6790  -11.7540   20.7780 C   0  0  0  0  0  0  0  0  0  0  0  0
  -26.3350  -12.9840   20.1910 N   0  0  0  0  0  0  0  0  0  0  0  0
  -25.9690  -11.7050   20.4630 N   0  0  0  0  0  0  0  0  0  0  0  0
  -23.9500  -10.4950   20.9810 C   0  0  0  0  0  0  0  0  0  0  0  0
  -24.3880   -9.5310   21.9150 C   0  0  0  0  0  3  0  0  0  0  0  0
  -23.6590   -8.3370   22.1050 C   0  0  0  0  0  3  0  0  0  0  0  0
  -22.4800   -8.1000   21.3610 C   0  0  0  0  0  0  0  0  0  0  0  0
  -22.0610   -9.0530   20.4160 C   0  0  0  0  0  3  0  0  0  0  0  0
  -22.7900  -10.2380   20.2240 C   0  0  0  0  0  3  0  0  0  0  0  0
  -21.7210   -6.9590   21.4600 O   0  0  0  0  0  0  0  0  0  0  0  0
  -21.6800   -6.2210   22.6160 C   0  0  0  0  0  0  0  0  0  0  0  0
  -21.2620   -6.7800   23.8430 C   0  0  0  0  0  3  0  0  0  0  0  0
  -21.1690   -5.9680   24.9910 C   0  0  0  0  0  3  0  0  0  0  0  0
  -21.4830   -4.5980   24.9130 C   0  0  0  0  0  0  0  0  0  0  0  0
  -21.8930   -4.0390   23.6900 C   0  0  0  0  0  3  0  0  0  0  0  0
  -21.9890   -4.8480   22.5450 C   0  0  0  0  0  0  0  0  0  0  0  0
  -22.3650   -4.2990   21.3640 F   0  0  0  0  0  0  0  0  0  0  0  0
  -21.3870   -3.8150   26.0140 F   0  0  0  0  0  0  0  0  0  0  0  0
  -22.8320  -13.5940   21.0810 C   0  0  0  0  0  0  0  0  0  0  0  0
  -22.1060  -12.9060   21.9570 N   0  0  0  0  0  0  0  0  0  0  0  0
  -22.3950  -14.6170   20.5590 O   0  0  0  0  0  0  0  0  0  0  0  0
  -22.4720  -12.0780   22.4040 H   0  0  0  0  0  0  0  0  0  0  0  0
  -21.1720  -13.2160   22.1870 H   0  0  0  0  0  0  0  0  0  0  0  0
  -25.4640  -15.2410   20.2320 N   0  0  0  0  0  0  0  0  0  0  0  0
  -24.6950  -15.8960   20.3350 H   0  0  0  0  0  0  0  0  0  0  0  0
  -26.3070  -15.6760   19.8810 H   0  0  0  0  0  0  0  0  0  0  0  0
  1  3  1  0
  3  8  1  0
  3  2  2  0
  4  1  2  0
  4  5  1  0
  5  6  2  0
  6  2  1  0
  7  4  1  0
  9 10  1  0
  9  8  1  0
 11 12  1  0
 11 10  1  0
 13 24  2  0
 14 12  1  0
 14 19  1  0
 15 23  1  0
 15 25  1  0
 16 22  1  0
 16 18  1  0
 17 23  1  0
 18 19  2  0
 18 17  1  0
 20 14  2  0
 21 20  1  0
 21 16  2  0
 22 15  1  0
 23 13  1  0
 25 27  2  0
 26 25  1  0
 28 26  1  0
 29 38  2  0
 29 34  1  0
 30 26  1  0
 30 34  1  0
 31 30  1  0
 32 33  1  0
 32 31  1  0
 33 29  1  0
 34 35  2  0
 35 36  1  0
 37 36  2  0
 38 37  1  0
 39 13  1  0
 39 40  1  0
 39 49  1  0
 40 43  1  0
 41 45  1  0
 41 40  1  0
 42 41  2  0
 45 44  1  0
 47 45  1  0
 47 48  1  0
 47 46  1  0
 49 52  1  1
 49 50  1  0
 51 49  1  0
 53  5  1  0
 53 62  1  0
 54 62  1  0
 55 60  1  0
 56 57  1  0
 56 55  1  0
 58 57  1  0
 58 67  1  0
 58 59  1  0
 60 54  1  0
 60 59  1  0
 61 54  2  0
 62 63  1  0
 64 65  2  0
 65 84  1  0
 66 65  1  0
 66 69  1  0
 67 64  1  0
 67 68  1  0
 68 66  2  0
 69 70  1  0
 70 71  2  0
 72 75  1  0
 72 71  1  0
 73 72  2  0
 74 73  1  0
 74 69  2  0
 75 76  1  0
 76 77  1  0
 77 78  2  0
 79 78  1  0
 79 83  1  0
 80 79  2  0
 81 76  2  0
 81 80  1  0
 82 81  1  0
 84 85  1  0
 85 88  1  0
 85 87  1  0
 86 84  2  0
 89 90  1  0
 89 64  1  0
 91 89  1  0
M  ISO  4  11 101  12 101  54 100  62 100
M  END
>  <TORSDO>  (16) 
F 21

>  <SCORE>  (16) 
-13.310

>  <name>  (16) 
15

>  <ligand_id>  (16) 
15

>  <original_smiles>  (16) 
[H]c1nc(C([H])([H])N([H])C(=O)N2C([H])([H])C([H])([H])C([H])([H])C([H])(n3nc(-c4c([H])c([H])c(Oc5c([H])c([H])c(F)c([H])c5F)c([H])c4[H])c(C(=O)N([H])[H])c3N([H])[H])C2([H])[H])c(F)c([H])c1C([H])([H])C([H])([H])C([H])([H])C([H])([H])Oc1c([H])c([H])c2c(c1[H])C([H])([H])N(C(=O)C([H])(N([H])C(=O)C([H])(N([H])C([H])([H])[H])C([H])([H])[H])C(C([H])([H])[H])(C([H])([H])[H])C([H])([H])[H])C([H])(C(=O)N([H])C1([H])c3c([H])c([H])c([H])c([H])c3C([H])([H])C([H])([H])C1([H])[H])C2([H])[H]

>  <smiles>  (16) 
[H]c1nc(C([H])([H])N([H])C(=O)N2C([H])([H])C([H])([H])C([H])([H])C([H])(n3nc(-c4c([H])c([H])c(Oc5c([H])c([H])c(F)c([H])c5F)c([H])c4[H])c(C(=O)N([H])[H])c3N([H])[H])C2([H])[H])c(F)c([H])c1C([H])([H])C([H])([H])C([H])([H])C([H])([H])Oc1c([H])c([H])c2c(c1[H])C([H])([H])N(C(=O)C([H])(N([H])C(=O)C([H])(N([H])C([H])([H])[H])C([H])([H])[H])C(C([H])([H])[H])(C([H])([H])[H])C([H])([H])[H])C([H])(C(=O)N([H])C1([H])c3c([H])c([H])c([H])c([H])c3C([H])([H])C([H])([H])C1([H])[H])C2([H])[H]

$$$$
16:0:0
     RDKit          3D

 96101  0  0  1  0  0  0  0  0999 V2000
  -29.0340  -29.6110   24.9470 C   0  0  0  0  0  2  0  0  0  0  0  0
  -27.8780  -29.1380   26.2930 C   0  0  0  0  0  3  0  0  0  0  0  0
  -26.9410  -29.1130   23.2280 C   0  0  0  0  0  2  0  0  0  0  0  0
  -28.6140  -29.2270   23.2850 C   0  0  0  0  0  2  0  0  0  0  0  0
  -26.2770  -28.4550   25.7780 C   0  0  2  0  0  0  0  0  0  0  0  0
  -25.8510  -28.7700   24.4030 C   0  0  1  0  0  0  0  0  0  0  0  0
  -23.5800  -28.7190   26.0080 C   0  0  0  0  0  1  0  0  0  0  0  0
  -24.2620  -28.9120   24.6090 C   0  0  0  0  0  2  0  0  0  0  0  0
  -29.4990  -27.6050   22.4260 C   0  0  0  0  0 15  0  0  0  0  0  0
  -29.7000  -25.4920   22.4620 C   0  0  0  0  0 15  0  0  0  0  0  0
  -29.5670  -23.5880   21.5830 C   0  0  0  0  0 15  0  0  0  0  0  0
  -30.2720  -21.6060   21.5110 C   0  0  0  0  0  1  0  0  0  0  0  0
  -29.8570  -19.8230   21.0540 N   0  0  0  0  0  4  0  0  0  0  0  0
  -29.2940  -19.9290   20.2280 H   0  0  0  0  0  0  0  0  0  0  0  0
  -29.1960  -19.5640   21.7680 H   0  0  0  0  0  0  0  0  0  0  0  0
  -31.5660  -18.6520   19.5110 C   0  0  0  0  0  1  0  0  0  0  0  0
  -30.7160  -18.1900   20.7240 C   0  0  0  0  0  2  0  0  0  0  0  0
  -30.7640  -16.1710   20.4170 C   0  0  0  0  0  2  0  0  0  0  0  0
  -30.7200  -13.5060   19.5940 C   0  0  0  0  0  2  0  0  0  0  0  0
  -29.9060  -12.9500   18.3640 C   0  0  0  0  0  2  0  0  0  0  0  0
  -28.5050  -12.5050   18.7780 C   0  0  0  0  0  2  0  0  0  0  0  0
  -27.9160  -13.5640   19.7260 C   0  0  0  0  0  3  0  0  0  0  0  0
  -28.8750  -14.1020   20.8550 C   0  0  0  0  0  2  0  0  0  0  0  0
  -30.1110  -14.7840   20.3090 N   0  0  0  0  0  0  0  0  0  0  0  0
  -31.9340  -15.8060   20.1520 O   0  0  0  0  0  1  0  0  0  0  0  0
  -25.5350  -14.0490   20.4460 C   0  0  0  0  0  0  0  0  0  0  0  0
  -24.4720  -13.2650   20.7930 C   0  0  0  0  0  0  0  0  0  0  0  0
  -24.9440  -11.9170   20.7610 C   0  0  0  0  0  0  0  0  0  0  0  0
  -26.5900  -13.1890   20.2170 N   0  0  0  0  0  0  0  0  0  0  0  0
  -26.2440  -11.8930   20.4640 N   0  0  0  0  0  0  0  0  0  0  0  0
  -24.2060  -10.6530   20.9380 C   0  0  0  0  0  0  0  0  0  0  0  0
  -24.5700   -9.7090   21.9230 C   0  0  0  0  0  3  0  0  0  0  0  0
  -23.8240   -8.5220   22.0940 C   0  0  0  0  0  3  0  0  0  0  0  0
  -22.6970   -8.2680   21.2760 C   0  0  0  0  0  0  0  0  0  0  0  0
  -22.3520   -9.1980   20.2790 C   0  0  0  0  0  3  0  0  0  0  0  0
  -23.1000  -10.3760   20.1090 C   0  0  0  0  0  3  0  0  0  0  0  0
  -21.9300   -7.1300   21.3490 O   0  0  0  0  0  0  0  0  0  0  0  0
  -21.7560   -6.4520   22.5290 C   0  0  0  0  0  0  0  0  0  0  0  0
  -21.2140   -7.0740   23.6740 C   0  0  0  0  0  3  0  0  0  0  0  0
  -20.9890   -6.3230   24.8450 C   0  0  0  0  0  3  0  0  0  0  0  0
  -21.2960   -4.9490   24.8700 C   0  0  0  0  0  0  0  0  0  0  0  0
  -21.8280   -4.3250   23.7280 C   0  0  0  0  0  3  0  0  0  0  0  0
  -22.0550   -5.0750   22.5600 C   0  0  0  0  0  0  0  0  0  0  0  0
  -22.5490   -4.4630   21.4570 F   0  0  0  0  0  0  0  0  0  0  0  0
  -21.0720   -4.2250   25.9910 F   0  0  0  0  0  0  0  0  0  0  0  0
  -23.0720  -13.7430   21.0450 C   0  0  0  0  0  0  0  0  0  0  0  0
  -22.3330  -13.0480   21.9010 N   0  0  0  0  0  0  0  0  0  0  0  0
  -22.6470  -14.7720   20.5210 O   0  0  0  0  0  0  0  0  0  0  0  0
  -22.6970  -12.2170   22.3450 H   0  0  0  0  0  0  0  0  0  0  0  0
  -21.3940  -13.3480   22.1140 H   0  0  0  0  0  0  0  0  0  0  0  0
  -25.6950  -15.4210   20.2760 N   0  0  0  0  0  0  0  0  0  0  0  0
  -24.9220  -16.0700   20.3700 H   0  0  0  0  0  0  0  0  0  0  0  0
  -26.5540  -15.8690   19.9840 H   0  0  0  0  0  0  0  0  0  0  0  0
  -25.7980  -26.9340   24.7800 C   0  0  0  0  0  3  0  0  0  0  0  0
  -25.8630  -26.6900   22.8670 C   0  0  0  0  0  2  0  0  0  0  0  0
  -26.8610  -27.0600   21.5390 O   0  0  0  0  0  0  0  0  0  0  0  0
  -24.5370  -31.9380   23.2180 C   0  0  0  0  0  0  0  0  0  0  0  0
  -26.4980  -27.7910   20.3610 C   0  0  0  0  0  3  0  0  0  0  0  0
  -23.0560  -30.8270   21.5530 C   0  0  0  0  0  3  0  0  0  0  0  0
  -24.3850  -29.4500   19.8500 C   0  0  0  0  0  0  0  0  0  0  0  0
  -25.5340  -31.2950   21.0420 C   0  0  0  0  0  2  0  0  0  0  0  0
  -25.5960  -29.9930   20.2600 C   0  0  0  0  0  0  0  0  0  0  0  0
  -26.7560  -29.1820   20.2280 C   0  0  0  0  0  2  0  0  0  0  0  0
  -25.4590  -27.2960   19.5570 C   0  0  0  0  0  3  0  0  0  0  0  0
  -24.3540  -28.1410   19.3330 C   0  0  0  0  0  3  0  0  0  0  0  0
  -23.1540  -30.3040   20.0910 C   0  0  0  0  0  2  0  0  0  0  0  0
  -24.4000  -31.3240   22.0160 N   0  0  0  0  0  0  0  0  0  0  0  0
  -23.5260  -32.2380   23.8890 O   0  0  0  0  0  0  0  0  0  0  0  0
  -22.4640  -29.6380   22.3250 C   0  0  0  0  0  0  0  0  0  0  0  0
  -21.1460  -29.4950   22.5200 N   0  0  0  0  0  0  0  0  0  0  0  0
  -23.2200  -28.7450   22.6120 O   0  0  0  0  0  0  0  0  0  0  0  0
  -20.5350  -30.2260   22.1770 H   0  0  0  0  0  0  0  0  0  0  0  0
  -18.0100  -27.7550   22.9060 C   0  0  0  0  0  0  0  0  0  0  0  0
  -20.4890  -28.3980   23.2550 C   0  0  0  0  0  3  0  0  0  0  0  0
  -20.8130  -26.9730   22.7210 C   0  0  0  0  0  2  0  0  0  0  0  0
  -19.8090  -26.4660   21.6820 C   0  0  0  0  0  2  0  0  0  0  0  0
  -18.3990  -26.4310   22.2730 C   0  0  0  0  0  2  0  0  0  0  0  0
  -18.9890  -28.6730   23.3700 C   0  0  0  0  0  0  0  0  0  0  0  0
  -18.5680  -29.8990   23.9290 C   0  0  0  0  0  3  0  0  0  0  0  0
  -17.2010  -30.2180   24.0190 C   0  0  0  0  0  3  0  0  0  0  0  0
  -16.2360  -29.3010   23.5650 C   0  0  0  0  0  3  0  0  0  0  0  0
  -16.6400  -28.0690   23.0180 C   0  0  0  0  0  3  0  0  0  0  0  0
  -25.9790  -32.3010   23.7510 C   0  0  0  0  0  3  0  0  0  0  0  0
  -26.7560  -31.1730   24.9280 C   0  0  0  0  0  3  0  0  0  0  0  0
  -25.7190  -31.7410   26.1130 C   0  0  0  0  0  1  0  0  0  0  0  0
  -27.7750  -27.9970   25.1410 C   0  0  0  0  0  2  0  0  0  0  0  0
  -27.8250  -32.3820   25.3250 C   0  0  0  0  0  1  0  0  0  0  0  0
  -25.6890  -33.8210   24.0820 N   0  0  0  0  0  0  0  0  0  0  0  0
  -25.8850  -34.9540   23.3150 C   0  0  0  0  0  0  0  0  0  0  0  0
  -26.5040  -34.8960   22.2520 O   0  0  0  0  0  0  0  0  0  0  0  0
  -25.1330  -33.9640   24.9140 H   0  0  0  0  0  0  0  0  0  0  0  0
  -24.1810  -36.8450   22.8570 C   0  0  0  0  0  1  0  0  0  0  0  0
  -25.3670  -36.3880   23.7360 C   0  0  0  0  0  3  0  0  0  0  0  0
  -27.4560  -37.3680   24.6300 C   0  0  0  0  0  1  0  0  0  0  0  0
  -26.3870  -37.4720   23.6480 N   0  0  0  0  0  0  0  0  0  0  0  0
  -25.9500  -38.3840   23.7480 H   0  0  0  0  0  0  0  0  0  0  0  0
  2  1  1  0
  3  4  1  0
  3  6  1  0
  4  1  1  0
  5 86  1  6
  5  2  1  0
  6  8  1  1
  6 54  1  0
  6  5  1  0
  8  7  1  0
 13 12  1  0
 13 15  1  0
 14 13  1  0
 16 17  1  0
 17 13  1  0
 19 24  1  0
 20 21  1  0
 20 19  1  0
 22 21  1  0
 22 29  1  0
 22 23  1  0
 24 18  1  0
 24 23  1  0
 25 18  1  0
 26 27  2  0
 27 46  1  0
 28 27  1  0
 28 31  1  0
 29 26  1  0
 29 30  1  0
 30 28  2  0
 31 32  1  0
 32 33  2  0
 34 37  1  0
 34 33  1  0
 35 34  2  0
 36 35  1  0
 36 31  2  0
 37 38  1  0
 38 43  2  0
 38 39  1  0
 39 40  2  0
 40 41  1  0
 41 45  1  0
 42 41  2  0
 43 42  1  0
 44 43  1  0
 46 47  1  0
 47 50  1  0
 47 49  1  0
 48 46  2  0
 51 52  1  0
 51 26  1  0
 53 51  1  0
 54 55  1  0
 54  5  1  0
 56 55  1  0
 57 68  2  0
 58 56  1  0
 59 67  1  0
 59 69  1  0
 60 66  1  0
 60 62  2  0
 61 67  1  0
 62 61  1  0
 63 62  1  0
 63 58  1  0
 64 58  1  0
 65 64  2  0
 65 60  1  0
 66 59  1  0
 67 57  1  0
 69 70  1  0
 69 71  2  0
 72 70  1  0
 73 82  2  0
 73 78  1  0
 74 70  1  0
 74 78  1  0
 75 74  1  0
 76 77  1  0
 76 75  1  0
 77 73  1  0
 78 79  2  0
 79 80  1  0
 81 80  2  0
 82 81  1  0
 83 57  1  0
 83 88  1  0
 83 84  1  0
 84 87  1  0
 84 85  1  0
 86  2  1  0
 88 91  1  0
 89 93  1  0
 89 88  1  0
 90 89  2  0
 93 92  1  0
 95 93  1  0
 95 96  1  0
 95 94  1  0
M  ISO  4  17 100  18 100  55 101  56 101
M  END
>  <TORSDO>  (17) 
F 25

>  <SCORE>  (17) 
-15.937

>  <name>  (17) 
16

>  <ligand_id>  (17) 
16

>  <original_smiles>  (17) 
[H]c1c([H])c([H])c2c(c1[H])C([H])([H])C([H])([H])C([H])([H])C2([H])N([H])C(=O)C1([H])N(C(=O)C([H])(N([H])C(=O)C([H])(N([H])C([H])([H])[H])C([H])([H])[H])C(C([H])([H])[H])(C([H])([H])[H])C([H])([H])[H])C([H])([H])c2c([H])c(OC([H])([H])C([H])([H])c3c([H])c([H])c(C([H])([H])C([H])([H])C([H])([H])C([H])([H])[N+]([H])([H])C([H])(C(=O)N4C([H])([H])C([H])([H])C([H])([H])C([H])(n5nc(-c6c([H])c([H])c(Oc7c([H])c([H])c(F)c([H])c7F)c([H])c6[H])c(C(=O)N([H])[H])c5N([H])[H])C4([H])[H])C([H])([H])[H])c([H])c3C([H])([H])C([H])([H])[H])c([H])c([H])c2C1([H])[H]

>  <smiles>  (17) 
[H]c1c([H])c([H])c2c(c1[H])C([H])([H])C([H])([H])C([H])([H])C2([H])N([H])C(=O)C1([H])N(C(=O)C([H])(N([H])C(=O)C([H])(N([H])C([H])([H])[H])C([H])([H])[H])C(C([H])([H])[H])(C([H])([H])[H])C([H])([H])[H])C([H])([H])c2c([H])c(OC([H])([H])C([H])([H])c3c([H])c([H])c(C([H])([H])C([H])([H])C([H])([H])C([H])([H])[N+]([H])([H])C([H])(C(=O)N4C([H])([H])C([H])([H])C([H])([H])C([H])(n5nc(-c6c([H])c([H])c(Oc7c([H])c([H])c(F)c([H])c7F)c([H])c6[H])c(C(=O)N([H])[H])c5N([H])[H])C4([H])[H])C([H])([H])[H])c([H])c3C([H])([H])C([H])([H])[H])c([H])c([H])c2C1([H])[H]

$$$$
17:0:0
     RDKit          3D

 96101  0  0  1  0  0  0  0  0999 V2000
  -28.3530  -12.4580   22.9760 C   0  0  0  0  0  3  0  0  0  0  0  0
  -27.4970  -11.6610   19.3000 C   0  0  0  0  0  1  0  0  0  0  0  0
  -27.9230  -13.6020   21.7200 C   0  0  0  0  0  3  0  0  0  0  0  0
  -28.5970  -10.7280   22.7100 C   0  0  0  0  0  0  0  0  0  0  0  0
  -28.0290  -10.2030   19.6150 C   0  0  0  0  0  3  0  0  0  0  0  0
  -28.5060   -9.7490   21.2290 C   0  0  0  0  0  3  0  0  0  0  0  0
  -30.5180   -9.3860   23.7990 C   0  0  0  0  0  1  0  0  0  0  0  0
  -29.1200  -10.0160   23.9580 C   0  0  0  0  0  2  0  0  0  0  0  0
  -28.3020   -7.2680   20.4770 C   0  0  0  0  0  1  0  0  0  0  0  0
  -29.0400   -8.3060   21.3340 C   0  0  0  0  0  2  0  0  0  0  0  0
  -28.1380  -15.9520   21.7180 C   0  0  0  0  0 15  0  0  0  0  0  0
  -29.0270  -18.2530   21.2460 C   0  0  0  0  0 15  0  0  0  0  0  0
  -29.2260  -20.7610   21.3300 C   0  0  0  0  0 15  0  0  0  0  0  0
  -30.1240  -22.8100   21.3990 O   0  0  0  0  0  1  0  0  0  0  0  0
  -27.5120  -30.1150   24.6580 C   0  0  0  0  0  0  0  0  0  0  0  0
  -29.9240  -24.5900   21.5170 C   0  0  0  0  0  0  0  0  0  0  0  0
  -27.0600  -29.3270   22.3870 C   0  0  0  0  0  3  0  0  0  0  0  0
  -28.7450  -27.6230   21.2470 C   0  0  0  0  0  0  0  0  0  0  0  0
  -29.3500  -28.6730   23.3840 C   0  0  0  0  0  2  0  0  0  0  0  0
  -29.4500  -27.3430   22.4140 C   0  0  0  0  0  0  0  0  0  0  0  0
  -30.0520  -25.8880   22.5050 C   0  0  0  0  0  3  0  0  0  0  0  0
  -29.4840  -25.3370   20.3650 C   0  0  0  0  0  3  0  0  0  0  0  0
  -28.8970  -26.6590   20.2320 C   0  0  0  0  0  3  0  0  0  0  0  0
  -27.8430  -28.8830   21.1040 C   0  0  0  0  0  2  0  0  0  0  0  0
  -27.9960  -29.4180   23.5500 N   0  0  0  0  0  0  0  0  0  0  0  0
  -26.3400  -30.5400   24.7150 O   0  0  0  0  0  0  0  0  0  0  0  0
  -25.8850  -28.3540   22.6880 C   0  0  0  0  0  0  0  0  0  0  0  0
  -24.6490  -28.6620   22.2470 N   0  0  0  0  0  0  0  0  0  0  0  0
  -26.1080  -27.3170   23.3180 O   0  0  0  0  0  0  0  0  0  0  0  0
  -24.5160  -29.5390   21.7640 H   0  0  0  0  0  0  0  0  0  0  0  0
  -21.0400  -28.4670   21.8170 C   0  0  0  0  0  0  0  0  0  0  0  0
  -23.4740  -27.7840   22.3650 C   0  0  0  0  0  3  0  0  0  0  0  0
  -23.3680  -26.8410   21.1430 C   0  0  0  0  0  2  0  0  0  0  0  0
  -22.4770  -27.4020   20.0290 C   0  0  0  0  0  2  0  0  0  0  0  0
  -21.0560  -27.6330   20.5470 C   0  0  0  0  0  2  0  0  0  0  0  0
  -22.1800  -28.5520   22.6620 C   0  0  0  0  0  0  0  0  0  0  0  0
  -22.1140  -29.3610   23.8170 C   0  0  0  0  0  3  0  0  0  0  0  0
  -20.9440  -30.0800   24.1280 C   0  0  0  0  0  3  0  0  0  0  0  0
  -19.8180  -29.9860   23.2910 C   0  0  0  0  0  3  0  0  0  0  0  0
  -19.8660  -29.1750   22.1430 C   0  0  0  0  0  3  0  0  0  0  0  0
  -28.3840  -30.4260   25.9140 C   0  0  0  0  0  3  0  0  0  0  0  0
  -28.3570  -29.2660   26.9860 C   0  0  1  0  0  0  0  0  0  0  0  0
  -26.9320  -28.8140   27.3880 C   0  0  0  0  0  1  0  0  0  0  0  0
  -29.1040  -28.0170   26.4810 C   0  0  0  0  0  1  0  0  0  0  0  0
  -29.0920  -29.7140   28.2720 C   0  0  0  0  0  1  0  0  0  0  0  0
  -27.8860  -31.6710   26.5560 N   0  0  0  0  0  0  0  0  0  0  0  0
  -28.5000  -32.8650   26.5530 C   0  0  0  0  0  0  0  0  0  0  0  0
  -29.5930  -33.0400   26.0120 O   0  0  0  0  0  0  0  0  0  0  0  0
  -26.9660  -31.6170   26.9660 H   0  0  0  0  0  0  0  0  0  0  0  0
  -27.1050  -34.9450   26.2170 C   0  0  0  0  0  1  0  0  0  0  0  0
  -27.7990  -34.0520   27.2590 C   0  0  0  0  0  3  0  0  0  0  0  0
  -29.1680  -34.2180   29.2950 C   0  0  0  0  0  1  0  0  0  0  0  0
  -28.7110  -34.8830   28.0780 N   0  0  0  0  0  0  0  0  0  0  0  0
  -28.2610  -35.7540   28.3460 H   0  0  0  0  0  0  0  0  0  0  0  0
  -28.5130   -9.9160   18.0880 C   0  0  0  0  0  2  0  0  0  0  0  0
  -28.8670  -11.2300   16.9820 C   0  0  0  0  0  2  0  0  0  0  0  0
  -30.2570  -12.1800   16.6420 C   0  0  0  0  0  2  0  0  0  0  0  0
  -31.0370  -13.4940   17.4100 C   0  0  0  0  0  2  0  0  0  0  0  0
  -32.8460  -14.0410   19.5900 C   0  0  0  0  0  0  0  0  0  0  0  0
  -32.3020  -12.1370   20.7880 C   0  0  0  0  0  2  0  0  0  0  0  0
  -31.3560  -11.5540   19.7920 C   0  0  0  0  0  2  0  0  0  0  0  0
  -30.0760  -12.3350   19.9810 C   0  0  0  0  0  2  0  0  0  0  0  0
  -29.9790  -13.9980   20.0100 C   0  0  1  0  0  0  0  0  0  0  0  0
  -31.0510  -14.2760   21.1500 C   0  0  0  0  0  2  0  0  0  0  0  0
  -32.2100  -13.5740   20.6560 N   0  0  0  0  0  0  0  0  0  0  0  0
  -33.9920  -14.4390   19.7790 O   0  0  0  0  0  0  0  0  0  0  0  0
  -32.3710  -13.6260   18.3010 N   0  0  0  0  0  0  0  0  0  0  0  0
  -33.1790  -13.5630   17.7000 H   0  0  0  0  0  0  0  0  0  0  0  0
  -27.1710  -15.7810   19.2320 C   0  0  0  0  0  3  0  0  0  0  0  0
  -25.8160  -15.1780   20.1100 C   0  0  0  0  0  3  0  0  0  0  0  0
  -26.2520  -13.8740   21.1310 C   0  0  0  0  0  3  0  0  0  0  0  0
  -28.8190  -14.9410   19.5820 N   0  0  0  0  0  0  0  0  0  0  0  0
  -28.5200  -13.8450   20.7260 N   0  0  0  0  0  0  0  0  0  0  0  0
  -25.1420  -12.5150   21.1250 C   0  0  0  0  0  0  0  0  0  0  0  0
  -25.3490  -11.1880   21.6900 C   0  0  0  0  0  3  0  0  0  0  0  0
  -24.4860  -10.0370   21.6080 C   0  0  0  0  0  3  0  0  0  0  0  0
  -23.2230  -10.0930   20.9850 C   0  0  0  0  0  0  0  0  0  0  0  0
  -22.9680  -11.3200   20.3210 C   0  0  0  0  0  3  0  0  0  0  0  0
  -23.8880  -12.4380   20.3650 C   0  0  0  0  0  3  0  0  0  0  0  0
  -22.2920   -9.0410   20.9710 O   0  0  0  0  0  0  0  0  0  0  0  0
  -22.4270   -7.8790   21.7280 C   0  0  0  0  0  0  0  0  0  0  0  0
  -22.9850   -7.8900   23.0300 C   0  0  0  0  0  3  0  0  0  0  0  0
  -23.1030   -6.6970   23.7770 C   0  0  0  0  0  3  0  0  0  0  0  0
  -22.6540   -5.4760   23.2450 C   0  0  0  0  0  0  0  0  0  0  0  0
  -22.0650   -5.4530   21.9680 C   0  0  0  0  0  3  0  0  0  0  0  0
  -21.9430   -6.6440   21.2230 C   0  0  0  0  0  0  0  0  0  0  0  0
  -21.3450   -6.5870   20.0090 F   0  0  0  0  0  0  0  0  0  0  0  0
  -22.7890   -4.3310   23.9580 F   0  0  0  0  0  0  0  0  0  0  0  0
  -24.4250  -15.5620   20.1040 C   0  0  0  0  0  0  0  0  0  0  0  0
  -23.5710  -14.9330   20.9170 N   0  0  0  0  0  0  0  0  0  0  0  0
  -24.1130  -16.4720   19.3730 O   0  0  0  0  0  0  0  0  0  0  0  0
  -23.8730  -14.1580   21.4910 H   0  0  0  0  0  0  0  0  0  0  0  0
  -22.5940  -15.1830   20.9220 H   0  0  0  0  0  0  0  0  0  0  0  0
  -27.3600  -16.9420   18.6290 N   0  0  0  0  0  0  0  0  0  0  0  0
  -26.6160  -17.6140   18.4810 H   0  0  0  0  0  0  0  0  0  0  0  0
  -28.2740  -17.2830   18.3590 H   0  0  0  0  0  0  0  0  0  0  0  0
  3  1  1  0
  4  1  2  0
  4  8  1  0
  5  2  1  0
  5  6  1  0
  6 10  1  0
  6  4  1  0
  7  8  1  0
  9 10  1  0
 14 16  1  0
 15 26  2  0
 16 21  1  0
 17 27  1  0
 17 25  1  0
 18 20  1  0
 19 25  1  0
 20 21  2  0
 20 19  1  0
 22 16  2  0
 23 22  1  0
 23 18  2  0
 24 18  1  0
 24 17  1  0
 25 15  1  0
 27 29  2  0
 28 27  1  0
 30 28  1  0
 31 40  2  0
 31 36  1  0
 32 28  1  0
 32 36  1  0
 33 32  1  0
 34 35  1  0
 34 33  1  0
 35 31  1  0
 36 37  2  0
 37 38  1  0
 39 38  2  0
 40 39  1  0
 41 15  1  0
 41 46  1  0
 41 42  1  0
 42 43  1  1
 42 45  1  0
 44 42  1  0
 46 49  1  0
 47 46  1  0
 47 51  1  0
 48 47  2  0
 51 50  1  0
 51 53  1  0
 53 54  1  0
 53 52  1  0
 55  5  1  0
 56 55  1  0
 57 56  1  0
 57 58  1  0
 58 67  1  0
 59 66  2  0
 59 65  1  0
 61 62  1  0
 61 60  1  0
 63 62  1  6
 63 73  1  0
 63 64  1  0
 65 60  1  0
 65 64  1  0
 67 59  1  0
 68 67  1  0
 69 94  1  0
 69 72  1  0
 69 70  1  0
 70 89  1  0
 70 71  1  0
 71 74  1  0
 71  3  1  0
 72 63  1  0
 72 73  1  0
 73  3  1  0
 74 75  1  0
 76 75  2  0
 77 76  1  0
 78 79  1  0
 78 77  2  0
 79 74  2  0
 80 77  1  0
 80 81  1  0
 81 82  1  0
 82 83  2  0
 84 83  1  0
 84 88  1  0
 85 84  2  0
 86 81  2  0
 86 85  1  0
 87 86  1  0
 89 90  1  0
 90 93  1  0
 90 92  1  0
 91 89  2  0
 95 94  1  0
 96 94  1  0
M  ISO  4  13 101  14 101  59 100  67 100
M  END
>  <TORSDO>  (18) 
F 25

>  <SCORE>  (18) 
2.045

>  <name>  (18) 
17

>  <ligand_id>  (18) 
17

>  <original_smiles>  (18) 
[H]c1c([H])c([H])c2c(c1[H])C([H])([H])C([H])([H])C([H])([H])C2([H])N([H])C(=O)C1([H])N(C(=O)C([H])(N([H])C(=O)C([H])(N([H])C([H])([H])[H])C([H])([H])[H])C(C([H])([H])[H])(C([H])([H])[H])C([H])([H])[H])C([H])([H])c2c([H])c(OC([H])([H])C([H])([H])C([H])([H])c3c([H])c(C([H])([H])C([H])([H])[H])c(C([H])([H])C([H])([H])[H])c(C([H])([H])C([H])([H])C([H])([H])C([H])([H])N([H])C(=O)N4C([H])([H])C([H])([H])C([H])([H])C([H])(n5nc(-c6c([H])c([H])c(Oc7c([H])c([H])c(F)c([H])c7F)c([H])c6[H])c(C(=O)N([H])[H])c5N([H])[H])C4([H])[H])c3[H])c([H])c([H])c2C1([H])[H]

>  <smiles>  (18) 
[H]c1c([H])c([H])c2c(c1[H])C([H])([H])C([H])([H])C([H])([H])C2([H])N([H])C(=O)C1([H])N(C(=O)C([H])(N([H])C(=O)C([H])(N([H])C([H])([H])[H])C([H])([H])[H])C(C([H])([H])[H])(C([H])([H])[H])C([H])([H])[H])C([H])([H])c2c([H])c(OC([H])([H])C([H])([H])C([H])([H])c3c([H])c(C([H])([H])C([H])([H])[H])c(C([H])([H])C([H])([H])[H])c(C([H])([H])C([H])([H])C([H])([H])C([H])([H])N([H])C(=O)N4C([H])([H])C([H])([H])C([H])([H])C([H])(n5nc(-c6c([H])c([H])c(Oc7c([H])c([H])c(F)c([H])c7F)c([H])c6[H])c(C(=O)N([H])[H])c5N([H])[H])C4([H])[H])c3[H])c([H])c([H])c2C1([H])[H]

$$$$
18:0:0
     RDKit          3D

 90 98  0  0  1  0  0  0  0  0999 V2000
  -29.9350  -21.2410   20.9790 C   0  0  0  0  0  3  0  0  0  0  0  0
  -30.4360  -18.5790   21.0080 C   0  0  0  0  0  3  0  0  0  0  0  0
  -29.8110  -17.4650   20.4460 C   0  0  0  0  0  0  0  0  0  0  0  0
  -28.6850  -18.0720   19.7890 C   0  0  0  0  0  0  0  0  0  0  0  0
  -28.6000  -19.3900   19.9910 N   0  0  0  0  0  0  0  0  0  0  0  0
  -29.6960  -19.7600   20.6870 N   0  0  0  0  0  0  0  0  0  0  0  0
  -30.8750  -15.0710   20.9610 C   0  0  0  0  0  0  0  0  0  0  0  0
  -30.8230  -12.6930   20.1830 C   0  0  0  0  0  2  0  0  0  0  0  0
  -30.0250  -12.5580   18.8660 C   0  0  0  0  0  2  0  0  0  0  0  0
  -28.5110  -12.4430   19.1390 C   0  0  0  0  0  2  0  0  0  0  0  0
  -27.9910  -13.4320   20.2160 C   0  0  0  0  0  3  0  0  0  0  0  0
  -28.9240  -13.5080   21.4410 C   0  0  0  0  0  2  0  0  0  0  0  0
  -30.2600  -13.8350   20.9340 N   0  0  0  0  0  0  0  0  0  0  0  0
  -32.1030  -15.1240   21.0700 O   0  0  0  0  0  0  0  0  0  0  0  0
  -30.6070  -15.9280   18.7520 C   0  0  0  0  0  1  0  0  0  0  0  0
  -30.2680  -16.0650   20.1790 N   0  0  0  0  0  0  0  0  0  0  0  0
  -25.5380  -14.0350   20.6780 C   0  0  0  0  0  0  0  0  0  0  0  0
  -24.4380  -13.2660   20.9390 C   0  0  0  0  0  0  0  0  0  0  0  0
  -24.9100  -11.9210   21.0110 C   0  0  0  0  0  0  0  0  0  0  0  0
  -26.6050  -13.1590   20.5830 N   0  0  0  0  0  0  0  0  0  0  0  0
  -26.2270  -11.8840   20.8570 N   0  0  0  0  0  0  0  0  0  0  0  0
  -24.1740  -10.6600   21.1600 C   0  0  0  0  0  0  0  0  0  0  0  0
  -24.5190   -9.7190   22.1550 C   0  0  0  0  0  3  0  0  0  0  0  0
  -23.7840   -8.5220   22.2920 C   0  0  0  0  0  3  0  0  0  0  0  0
  -22.6900   -8.2600   21.4330 C   0  0  0  0  0  0  0  0  0  0  0  0
  -22.3660   -9.1900   20.4290 C   0  0  0  0  0  3  0  0  0  0  0  0
  -23.1030  -10.3780   20.2900 C   0  0  0  0  0  3  0  0  0  0  0  0
  -21.9350   -7.1130   21.4770 O   0  0  0  0  0  0  0  0  0  0  0  0
  -21.7920   -6.3910   22.6330 C   0  0  0  0  0  0  0  0  0  0  0  0
  -21.2400   -6.9570   23.8020 C   0  0  0  0  0  3  0  0  0  0  0  0
  -21.0450   -6.1580   24.9480 C   0  0  0  0  0  3  0  0  0  0  0  0
  -21.3940   -4.7940   24.9230 C   0  0  0  0  0  0  0  0  0  0  0  0
  -21.9390   -4.2270   23.7570 C   0  0  0  0  0  3  0  0  0  0  0  0
  -22.1340   -5.0240   22.6150 C   0  0  0  0  0  0  0  0  0  0  0  0
  -22.6410   -4.4670   21.4870 F   0  0  0  0  0  0  0  0  0  0  0  0
  -21.1990   -4.0240   26.0190 F   0  0  0  0  0  0  0  0  0  0  0  0
  -23.0180  -13.7420   21.0260 C   0  0  0  0  0  0  0  0  0  0  0  0
  -22.2020  -13.0840   21.8420 N   0  0  0  0  0  0  0  0  0  0  0  0
  -22.6370  -14.7350   20.4070 O   0  0  0  0  0  0  0  0  0  0  0  0
  -22.5220  -12.2830   22.3640 H   0  0  0  0  0  0  0  0  0  0  0  0
  -21.2440  -13.3860   21.9450 H   0  0  0  0  0  0  0  0  0  0  0  0
  -25.7090  -15.4000   20.4950 N   0  0  0  0  0  0  0  0  0  0  0  0
  -24.9330  -16.0520   20.5350 H   0  0  0  0  0  0  0  0  0  0  0  0
  -26.6050  -15.8500   20.3750 H   0  0  0  0  0  0  0  0  0  0  0  0
  -27.7390  -18.0190   17.4420 C   0  0  0  0  0  1  0  0  0  0  0  0
  -27.6610  -17.4610   18.8690 C   0  0  0  0  0  2  0  0  0  0  0  0
  -28.9770  -22.3940   20.3520 C   0  0  0  0  0  3  0  0  0  0  0  0
  -29.2690  -23.9730   20.6220 C   0  0  0  0  0  3  0  0  0  0  0  0
  -28.2280  -25.1010   20.1060 C   0  0  0  0  0  3  0  0  0  0  0  0
  -28.4380  -26.5790   20.3010 O   0  0  0  0  0  0  0  0  0  0  0  0
  -24.6040  -31.9940   23.2670 C   0  0  0  0  0  0  0  0  0  0  0  0
  -27.3260  -27.4540   20.2220 C   0  0  0  0  0  0  0  0  0  0  0  0
  -23.4450  -30.5780   21.6120 C   0  0  0  0  0  3  0  0  0  0  0  0
  -24.9390  -29.0600   20.1900 C   0  0  0  0  0  0  0  0  0  0  0  0
  -25.9860  -30.9320   21.4600 C   0  0  0  0  0  2  0  0  0  0  0  0
  -26.0960  -29.5550   20.8060 C   0  0  0  0  0  0  0  0  0  0  0  0
  -27.2920  -28.7640   20.8100 C   0  0  0  0  0  3  0  0  0  0  0  0
  -26.1430  -27.0350   19.5680 C   0  0  0  0  0  3  0  0  0  0  0  0
  -24.9680  -27.8080   19.5600 C   0  0  0  0  0  3  0  0  0  0  0  0
  -23.6880  -29.9150   20.2310 C   0  0  0  0  0  2  0  0  0  0  0  0
  -24.6970  -31.1860   22.1690 N   0  0  0  0  0  0  0  0  0  0  0  0
  -23.5100  -32.2520   23.7880 O   0  0  0  0  0  0  0  0  0  0  0  0
  -22.7890  -29.5480   22.5610 C   0  0  0  0  0  0  0  0  0  0  0  0
  -21.4640  -29.3600   22.4310 N   0  0  0  0  0  0  0  0  0  0  0  0
  -23.4720  -28.9210   23.3760 O   0  0  0  0  0  0  0  0  0  0  0  0
  -20.9730  -29.9180   21.7480 H   0  0  0  0  0  0  0  0  0  0  0  0
  -18.0950  -28.1360   22.9290 C   0  0  0  0  0  0  0  0  0  0  0  0
  -20.6520  -28.4070   23.1920 C   0  0  0  0  0  3  0  0  0  0  0  0
  -20.7610  -26.9840   22.5970 C   0  0  0  0  0  2  0  0  0  0  0  0
  -19.6570  -26.6670   21.5830 C   0  0  0  0  0  2  0  0  0  0  0  0
  -18.2770  -26.7960   22.2340 C   0  0  0  0  0  2  0  0  0  0  0  0
  -19.2100  -28.8990   23.3640 C   0  0  0  0  0  0  0  0  0  0  0  0
  -18.9860  -30.1520   23.9740 C   0  0  0  0  0  3  0  0  0  0  0  0
  -17.6790  -30.6430   24.1530 C   0  0  0  0  0  3  0  0  0  0  0  0
  -16.5770  -29.8760   23.7320 C   0  0  0  0  0  3  0  0  0  0  0  0
  -16.7870  -28.6250   23.1270 C   0  0  0  0  0  3  0  0  0  0  0  0
  -25.8680  -32.6510   23.9040 C   0  0  0  0  0  3  0  0  0  0  0  0
  -25.5350  -34.0490   24.2140 N   0  0  0  0  0  0  0  0  0  0  0  0
  -25.8900  -35.1000   23.4630 C   0  0  0  0  0  0  0  0  0  0  0  0
  -26.5990  -34.9970   22.4590 O   0  0  0  0  0  0  0  0  0  0  0  0
  -24.9090  -34.2030   24.9900 H   0  0  0  0  0  0  0  0  0  0  0  0
  -24.1790  -36.8910   23.0200 C   0  0  0  0  0  1  0  0  0  0  0  0
  -25.3770  -36.4890   23.8950 C   0  0  0  0  0  3  0  0  0  0  0  0
  -27.4610  -37.3810   24.8370 C   0  0  0  0  0  1  0  0  0  0  0  0
  -26.4120  -37.5430   23.8350 N   0  0  0  0  0  0  0  0  0  0  0  0
  -25.9970  -38.4640   23.9570 H   0  0  0  0  0  0  0  0  0  0  0  0
  -26.3680  -31.9010   25.1990 C   0  0  1  0  0  0  0  0  0  0  0  0
  -25.2560  -31.6560   26.2460 C   0  0  0  0  0  1  0  0  0  0  0  0
  -26.9820  -30.5290   24.8370 C   0  0  0  0  0  1  0  0  0  0  0  0
  -27.4910  -32.7210   25.8770 C   0  0  0  0  0  1  0  0  0  0  0  0
  3  2  2  0
  4  5  2  0
  4  3  1  0
  5  6  1  0
  6  1  1  0
  6  2  1  0
  7 14  2  0
  8 13  1  0
  9 10  1  0
  9  8  1  0
 11 10  1  0
 11 20  1  0
 11 12  1  0
 13  7  1  0
 13 12  1  0
 15 16  1  0
 16  3  1  0
 16  7  1  0
 17 18  2  0
 18 19  1  0
 18 37  1  0
 19 22  1  0
 20 17  1  0
 20 21  1  0
 21 19  2  0
 22 23  1  0
 23 24  2  0
 25 28  1  0
 25 24  1  0
 26 25  2  0
 27 26  1  0
 27 22  2  0
 28 29  1  0
 29 30  1  0
 30 31  2  0
 32 31  1  0
 32 36  1  0
 33 32  2  0
 34 29  2  0
 34 33  1  0
 35 34  1  0
 37 38  1  0
 38 41  1  0
 38 40  1  0
 39 37  2  0
 42 43  1  0
 42 17  1  0
 44 42  1  0
 45 46  1  0
 46  4  1  0
 47 48  1  0
 47  1  2  0
 49 50  1  0
 49 48  2  0
 51 62  2  0
 52 50  1  0
 52 57  1  0
 53 61  1  0
 53 63  1  0
 54 60  1  0
 54 56  1  0
 55 61  1  0
 56 57  2  0
 56 55  1  0
 58 52  2  0
 59 58  1  0
 59 54  2  0
 60 53  1  0
 61 51  1  0
 63 65  2  0
 64 63  1  0
 66 64  1  0
 67 76  2  0
 67 72  1  0
 68 64  1  0
 68 72  1  0
 69 68  1  0
 70 71  1  0
 70 69  1  0
 71 67  1  0
 72 73  2  0
 73 74  1  0
 75 74  2  0
 76 75  1  0
 77 51  1  0
 77 78  1  0
 77 87  1  0
 78 81  1  0
 79 83  1  0
 79 78  1  0
 80 79  2  0
 83 82  1  0
 85 83  1  0
 85 86  1  0
 85 84  1  0
 87 90  1  1
 87 88  1  0
 89 87  1  0
M  ISO  4   7 100  16 100  49 101  50 101
M  END
>  <TORSDO>  (19) 
F 21

>  <SCORE>  (19) 
-12.948

>  <name>  (19) 
18

>  <ligand_id>  (19) 
18

>  <original_smiles>  (19) 
[H]c1c([H])c([H])c2c(c1[H])C([H])([H])C([H])([H])C([H])([H])C2([H])N([H])C(=O)C1([H])N(C(=O)C([H])(N([H])C(=O)C([H])(N([H])C([H])([H])[H])C([H])([H])[H])C(C([H])([H])[H])(C([H])([H])[H])C([H])([H])[H])C([H])([H])c2c([H])c(OC([H])([H])C([H])([H])C([H])([H])C([H])([H])n3nc(C([H])([H])C([H])([H])[H])c(N(C(=O)N4C([H])([H])C([H])([H])C([H])([H])C([H])(n5nc(-c6c([H])c([H])c(Oc7c([H])c([H])c(F)c([H])c7F)c([H])c6[H])c(C(=O)N([H])[H])c5N([H])[H])C4([H])[H])C([H])([H])[H])c3[H])c([H])c([H])c2C1([H])[H]

>  <smiles>  (19) 
[H]c1c([H])c([H])c2c(c1[H])C([H])([H])C([H])([H])C([H])([H])C2([H])N([H])C(=O)C1([H])N(C(=O)C([H])(N([H])C(=O)C([H])(N([H])C([H])([H])[H])C([H])([H])[H])C(C([H])([H])[H])(C([H])([H])[H])C([H])([H])[H])C([H])([H])c2c([H])c(OC([H])([H])C([H])([H])C([H])([H])C([H])([H])n3nc(C([H])([H])C([H])([H])[H])c(N(C(=O)N4C([H])([H])C([H])([H])C([H])([H])C([H])(n5nc(-c6c([H])c([H])c(Oc7c([H])c([H])c(F)c([H])c7F)c([H])c6[H])c(C(=O)N([H])[H])c5N([H])[H])C4([H])[H])C([H])([H])[H])c3[H])c([H])c([H])c2C1([H])[H]

$$$$
19:0:0
     RDKit          3D

 93101  0  0  1  0  0  0  0  0999 V2000
  -30.4580  -21.8780   19.7770 C   0  0  0  0  0  3  0  0  0  0  0  0
  -30.4630  -22.6420   22.0730 C   0  0  0  0  0  3  0  0  0  0  0  0
  -30.6340  -21.5940   21.1460 C   0  0  0  0  0  0  0  0  0  0  0  0
  -30.1660  -23.1900   19.3300 C   0  0  0  0  0  0  0  0  0  0  0  0
  -30.1790  -23.9620   21.6450 C   0  0  0  0  0  0  0  0  0  0  0  0
  -30.0340  -24.2620   20.2590 C   0  0  0  0  0  0  0  0  0  0  0  0
  -30.0750  -23.4200   17.8280 C   0  0  0  0  0  1  0  0  0  0  0  0
  -30.1070  -25.0520   22.7020 C   0  0  0  0  0  1  0  0  0  0  0  0
  -31.1110  -20.2120   21.6100 C   0  0  0  0  0  3  0  0  0  0  0  0
  -29.9960  -19.2240   22.0210 C   0  0  0  0  0  3  0  0  0  0  0  0
  -30.4610  -17.7820   22.4070 C   0  0  0  0  0  2  0  0  0  0  0  0
  -31.0150  -16.8610   21.2710 C   0  0  0  0  0  2  0  0  0  0  0  0
  -30.6930  -14.6280   20.2630 C   0  0  0  0  0  0  0  0  0  0  0  0
  -30.3210  -12.4560   19.1340 C   0  0  0  0  0  2  0  0  0  0  0  0
  -29.3460  -12.6320   17.9530 C   0  0  0  0  0  2  0  0  0  0  0  0
  -27.8930  -12.4410   18.4290 C   0  0  0  0  0  2  0  0  0  0  0  0
  -27.5710  -13.2870   19.6870 C   0  0  0  0  0  3  0  0  0  0  0  0
  -28.6750  -13.1440   20.7690 C   0  0  0  0  0  2  0  0  0  0  0  0
  -29.9710  -13.4670   20.1530 N   0  0  0  0  0  0  0  0  0  0  0  0
  -31.8300  -14.7070   19.7860 O   0  0  0  0  0  0  0  0  0  0  0  0
  -28.8670  -16.2670   20.3350 C   0  0  0  0  0  1  0  0  0  0  0  0
  -30.1350  -15.7350   20.8510 N   0  0  0  0  0  0  0  0  0  0  0  0
  -25.2180  -13.8930   20.5160 C   0  0  0  0  0  0  0  0  0  0  0  0
  -24.1610  -13.1170   20.8950 C   0  0  0  0  0  0  0  0  0  0  0  0
  -24.6100  -11.7630   20.7980 C   0  0  0  0  0  0  0  0  0  0  0  0
  -26.2450  -13.0110   20.2130 N   0  0  0  0  0  0  0  0  0  0  0  0
  -25.8870  -11.7240   20.4420 N   0  0  0  0  0  0  0  0  0  0  0  0
  -23.8840  -10.5010   20.9660 C   0  0  0  0  0  0  0  0  0  0  0  0
  -24.3170   -9.5220   21.8860 C   0  0  0  0  0  3  0  0  0  0  0  0
  -23.5910   -8.3220   22.0450 C   0  0  0  0  0  3  0  0  0  0  0  0
  -22.4200   -8.0950   21.2830 C   0  0  0  0  0  0  0  0  0  0  0  0
  -22.0060   -9.0640   20.3510 C   0  0  0  0  0  3  0  0  0  0  0  0
  -22.7330  -10.2560   20.1920 C   0  0  0  0  0  3  0  0  0  0  0  0
  -21.6670   -6.9480   21.3520 O   0  0  0  0  0  0  0  0  0  0  0  0
  -21.5790   -6.2130   22.5070 C   0  0  0  0  0  0  0  0  0  0  0  0
  -21.0630   -6.7640   23.6990 C   0  0  0  0  0  3  0  0  0  0  0  0
  -20.9240   -5.9550   24.8450 C   0  0  0  0  0  3  0  0  0  0  0  0
  -21.2900   -4.5970   24.7970 C   0  0  0  0  0  0  0  0  0  0  0  0
  -21.8020   -4.0470   23.6070 C   0  0  0  0  0  3  0  0  0  0  0  0
  -21.9430   -4.8530   22.4650 C   0  0  0  0  0  0  0  0  0  0  0  0
  -22.4140   -4.3120   21.3150 F   0  0  0  0  0  0  0  0  0  0  0  0
  -21.1490   -3.8180   25.8950 F   0  0  0  0  0  0  0  0  0  0  0  0
  -22.7780  -13.5930   21.2350 C   0  0  0  0  0  0  0  0  0  0  0  0
  -22.0810  -12.8720   22.1050 N   0  0  0  0  0  0  0  0  0  0  0  0
  -22.3290  -14.6380   20.7670 O   0  0  0  0  0  0  0  0  0  0  0  0
  -22.4640  -12.0260   22.5030 H   0  0  0  0  0  0  0  0  0  0  0  0
  -21.1550  -13.1660   22.3740 H   0  0  0  0  0  0  0  0  0  0  0  0
  -25.3800  -15.2680   20.3810 N   0  0  0  0  0  0  0  0  0  0  0  0
  -24.6150  -15.9100   20.5520 H   0  0  0  0  0  0  0  0  0  0  0  0
  -26.2120  -15.7260   20.0330 H   0  0  0  0  0  0  0  0  0  0  0  0
  -29.9160  -25.7320   19.7790 C   0  0  0  0  0  2  0  0  0  0  0  0
  -28.7920  -26.6460   20.3570 C   0  0  0  0  0  2  0  0  0  0  0  0
  -27.5710  -26.5030   19.6350 O   0  0  0  0  0  0  0  0  0  0  0  0
  -24.3300  -31.8930   23.1860 C   0  0  0  0  0  0  0  0  0  0  0  0
  -26.5140  -27.3740   19.8380 C   0  0  0  0  0  0  0  0  0  0  0  0
  -22.9280  -30.5740   21.6320 C   0  0  0  0  0  3  0  0  0  0  0  0
  -24.1920  -28.9910   20.0780 C   0  0  0  0  0  0  0  0  0  0  0  0
  -25.4460  -30.8130   21.2350 C   0  0  0  0  0  2  0  0  0  0  0  0
  -25.4180  -29.4450   20.5810 C   0  0  0  0  0  0  0  0  0  0  0  0
  -26.5820  -28.6420   20.4740 C   0  0  0  0  0  3  0  0  0  0  0  0
  -25.2700  -26.9440   19.3330 C   0  0  0  0  0  3  0  0  0  0  0  0
  -24.1110  -27.7330   19.4570 C   0  0  0  0  0  3  0  0  0  0  0  0
  -22.9940  -29.9040   20.2350 C   0  0  0  0  0  2  0  0  0  0  0  0
  -24.2590  -31.1070   22.0740 N   0  0  0  0  0  0  0  0  0  0  0  0
  -23.3110  -32.2080   23.8150 O   0  0  0  0  0  0  0  0  0  0  0  0
  -22.3070  -29.5720   22.6310 C   0  0  0  0  0  0  0  0  0  0  0  0
  -20.9920  -29.3320   22.5020 N   0  0  0  0  0  0  0  0  0  0  0  0
  -23.0060  -29.0090   23.4790 O   0  0  0  0  0  0  0  0  0  0  0  0
  -20.4870  -29.8370   21.7860 H   0  0  0  0  0  0  0  0  0  0  0  0
  -17.7000  -27.8980   22.9100 C   0  0  0  0  0  0  0  0  0  0  0  0
  -20.2060  -28.3970   23.3060 C   0  0  0  0  0  3  0  0  0  0  0  0
  -20.4610  -26.9370   22.8670 C   0  0  0  0  0  2  0  0  0  0  0  0
  -19.4580  -26.4360   21.8240 C   0  0  0  0  0  2  0  0  0  0  0  0
  -18.0290  -26.5150   22.3710 C   0  0  0  0  0  2  0  0  0  0  0  0
  -18.7230  -28.7880   23.3330 C   0  0  0  0  0  0  0  0  0  0  0  0
  -18.3650  -30.0740   23.7920 C   0  0  0  0  0  3  0  0  0  0  0  0
  -17.0160  -30.4730   23.8350 C   0  0  0  0  0  3  0  0  0  0  0  0
  -16.0070  -29.5830   23.4300 C   0  0  0  0  0  3  0  0  0  0  0  0
  -16.3500  -28.2970   22.9740 C   0  0  0  0  0  3  0  0  0  0  0  0
  -25.6910  -32.4520   23.7040 C   0  0  0  0  0  3  0  0  0  0  0  0
  -25.4790  -33.8570   24.0780 N   0  0  0  0  0  0  0  0  0  0  0  0
  -25.8820  -34.9060   23.3490 C   0  0  0  0  0  0  0  0  0  0  0  0
  -26.5420  -34.7890   22.3130 O   0  0  0  0  0  0  0  0  0  0  0  0
  -24.8980  -34.0270   24.8860 H   0  0  0  0  0  0  0  0  0  0  0  0
  -24.2970  -36.8330   23.0330 C   0  0  0  0  0  1  0  0  0  0  0  0
  -25.4900  -36.3110   23.8500 C   0  0  0  0  0  3  0  0  0  0  0  0
  -27.6650  -37.0060   24.7510 C   0  0  0  0  0  1  0  0  0  0  0  0
  -26.5990  -37.2870   23.7920 N   0  0  0  0  0  0  0  0  0  0  0  0
  -26.2580  -38.2290   23.9640 H   0  0  0  0  0  0  0  0  0  0  0  0
  -26.2780  -31.6330   24.9180 C   0  0  1  0  0  0  0  0  0  0  0  0
  -25.2660  -31.4110   26.0650 C   0  0  0  0  0  1  0  0  0  0  0  0
  -26.7740  -30.2450   24.4520 C   0  0  0  0  0  1  0  0  0  0  0  0
  -27.5080  -32.3680   25.5000 C   0  0  0  0  0  1  0  0  0  0  0  0
  1  3  1  0
  3  9  1  0
  3  2  2  0
  4  1  2  0
  4  6  1  0
  5  2  1  0
  5  8  1  0
  6  5  2  0
  7  4  1  0
  9 10  2  0
 10 11  1  0
 12 11  1  0
 13 22  1  0
 14 19  1  0
 15 16  1  0
 15 14  1  0
 17 16  1  0
 17 26  1  0
 17 18  1  0
 19 13  1  0
 19 18  1  0
 20 13  2  0
 21 22  1  0
 22 12  1  0
 23 24  2  0
 24 43  1  0
 25 24  1  0
 25 28  1  0
 26 27  1  0
 26 23  1  0
 27 25  2  0
 28 29  1  0
 29 30  2  0
 31 34  1  0
 31 30  1  0
 32 31  2  0
 33 32  1  0
 33 28  2  0
 34 35  1  0
 35 36  1  0
 36 37  2  0
 38 37  1  0
 38 42  1  0
 39 38  2  0
 40 35  2  0
 40 39  1  0
 41 40  1  0
 43 44  1  0
 44 47  1  0
 44 46  1  0
 45 43  2  0
 48 23  1  0
 48 49  1  0
 50 48  1  0
 51  6  1  0
 51 52  1  0
 53 55  1  0
 53 52  1  0
 54 65  2  0
 55 60  1  0
 56 64  1  0
 56 66  1  0
 57 63  1  0
 57 59  1  0
 58 64  1  0
 59 58  1  0
 60 59  2  0
 61 62  1  0
 61 55  2  0
 62 57  2  0
 63 56  1  0
 64 54  1  0
 66 68  2  0
 67 66  1  0
 69 67  1  0
 70 79  2  0
 70 75  1  0
 71 67  1  0
 71 75  1  0
 72 71  1  0
 73 74  1  0
 73 72  1  0
 74 70  1  0
 75 76  2  0
 76 77  1  0
 78 77  2  0
 79 78  1  0
 80 54  1  0
 80 81  1  0
 80 90  1  0
 81 84  1  0
 82 86  1  0
 82 81  1  0
 83 82  2  0
 86 85  1  0
 88 86  1  0
 88 89  1  0
 88 87  1  0
 90 93  1  1
 90 91  1  0
 92 90  1  0
M  ISO  4  13 100  22 100  52 101  53 101
M  END
>  <TORSDO>  (20) 
F 22

>  <SCORE>  (20) 
-12.066

>  <name>  (20) 
19

>  <ligand_id>  (20) 
19

>  <original_smiles>  (20) 
[H]c1c([H])c([H])c2c(c1[H])C([H])([H])C([H])([H])C([H])([H])C2([H])N([H])C(=O)C1([H])N(C(=O)C([H])(N([H])C(=O)C([H])(N([H])C([H])([H])[H])C([H])([H])[H])C(C([H])([H])[H])(C([H])([H])[H])C([H])([H])[H])C([H])([H])c2c([H])c(OC([H])([H])C([H])([H])c3c(C([H])([H])[H])c([H])c(C([H])([H])C([H])([H])C([H])([H])C([H])([H])N(C(=O)N4C([H])([H])C([H])([H])C([H])([H])C([H])(n5nc(-c6c([H])c([H])c(Oc7c([H])c([H])c(F)c([H])c7F)c([H])c6[H])c(C(=O)N([H])[H])c5N([H])[H])C4([H])[H])C([H])([H])[H])c([H])c3C([H])([H])[H])c([H])c([H])c2C1([H])[H]

>  <smiles>  (20) 
[H]c1c([H])c([H])c2c(c1[H])C([H])([H])C([H])([H])C([H])([H])C2([H])N([H])C(=O)C1([H])N(C(=O)C([H])(N([H])C(=O)C([H])(N([H])C([H])([H])[H])C([H])([H])[H])C(C([H])([H])[H])(C([H])([H])[H])C([H])([H])[H])C([H])([H])c2c([H])c(OC([H])([H])C([H])([H])c3c(C([H])([H])[H])c([H])c(C([H])([H])C([H])([H])C([H])([H])C([H])([H])N(C(=O)N4C([H])([H])C([H])([H])C([H])([H])C([H])(n5nc(-c6c([H])c([H])c(Oc7c([H])c([H])c(F)c([H])c7F)c([H])c6[H])c(C(=O)N([H])[H])c5N([H])[H])C4([H])[H])C([H])([H])[H])c([H])c3C([H])([H])[H])c([H])c([H])c2C1([H])[H]

$$$$
20:0:0
     RDKit          3D

 93101  0  0  1  0  0  0  0  0999 V2000
  -30.6830  -20.8840   19.8310 C   0  0  0  0  0  3  0  0  0  0  0  0
  -31.3060  -19.6200   19.9660 C   0  0  0  0  0  3  0  0  0  0  0  0
  -29.3820  -20.9720   19.2890 C   0  0  0  0  0  0  0  0  0  0  0  0
  -30.6560  -18.4380   19.5450 C   0  0  0  0  0  0  0  0  0  0  0  0
  -28.7960  -19.7180   18.9040 C   0  0  0  0  0  0  0  0  0  0  0  0
  -29.4210  -18.5060   19.0060 N   0  0  0  0  0  0  0  0  0  0  0  0
  -28.6150  -22.3420   19.1730 C   0  0  0  0  0  2  0  0  0  0  0  0
  -29.3250  -23.7620   19.3090 C   0  0  0  0  0  2  0  0  0  0  0  0
  -28.3290  -24.9400   19.6880 C   0  0  0  0  0  2  0  0  0  0  0  0
  -28.6760  -26.3700   19.4970 O   0  0  0  0  0  0  0  0  0  0  0  0
  -24.9740  -31.3510   23.1610 C   0  0  0  0  0  0  0  0  0  0  0  0
  -27.5940  -27.2550   19.5430 C   0  0  0  0  0  0  0  0  0  0  0  0
  -23.7810  -30.2010   21.3320 C   0  0  0  0  0  3  0  0  0  0  0  0
  -25.2440  -28.8600   19.7160 C   0  0  0  0  0  0  0  0  0  0  0  0
  -26.3230  -30.5280   21.2230 C   0  0  0  0  0  2  0  0  0  0  0  0
  -26.4060  -29.2550   20.3910 C   0  0  0  0  0  0  0  0  0  0  0  0
  -27.5870  -28.4640   20.2990 C   0  0  0  0  0  3  0  0  0  0  0  0
  -26.4220  -26.9290   18.8270 C   0  0  0  0  0  3  0  0  0  0  0  0
  -25.2520  -27.7020   18.9210 C   0  0  0  0  0  3  0  0  0  0  0  0
  -24.0090  -29.7230   19.8740 C   0  0  0  0  0  2  0  0  0  0  0  0
  -25.0430  -30.7010   21.9640 N   0  0  0  0  0  0  0  0  0  0  0  0
  -23.8900  -31.5640   23.7200 O   0  0  0  0  0  0  0  0  0  0  0  0
  -23.1030  -29.0660   22.1350 C   0  0  0  0  0  0  0  0  0  0  0  0
  -21.7710  -28.9490   22.0040 N   0  0  0  0  0  0  0  0  0  0  0  0
  -23.7730  -28.2990   22.8290 O   0  0  0  0  0  0  0  0  0  0  0  0
  -21.2900  -29.6220   21.4260 H   0  0  0  0  0  0  0  0  0  0  0  0
  -18.3550  -27.8410   22.4420 C   0  0  0  0  0  0  0  0  0  0  0  0
  -20.9320  -27.9290   22.6370 C   0  0  0  0  0  3  0  0  0  0  0  0
  -20.9350  -26.6200   21.8150 C   0  0  0  0  0  2  0  0  0  0  0  0
  -19.7810  -26.5340   20.8110 C   0  0  0  0  0  2  0  0  0  0  0  0
  -18.4330  -26.6260   21.5320 C   0  0  0  0  0  2  0  0  0  0  0  0
  -19.5280  -28.4620   22.9460 C   0  0  0  0  0  0  0  0  0  0  0  0
  -19.4010  -29.6090   23.7600 C   0  0  0  0  0  3  0  0  0  0  0  0
  -18.1320  -30.1340   24.0690 C   0  0  0  0  0  3  0  0  0  0  0  0
  -16.9730  -29.5070   23.5790 C   0  0  0  0  0  3  0  0  0  0  0  0
  -17.0860  -28.3600   22.7730 C   0  0  0  0  0  3  0  0  0  0  0  0
  -26.2560  -31.8810   23.8760 C   0  0  0  0  0  3  0  0  0  0  0  0
  -25.9800  -33.2550   24.3150 N   0  0  0  0  0  0  0  0  0  0  0  0
  -26.3740  -34.3560   23.6610 C   0  0  0  0  0  0  0  0  0  0  0  0
  -27.0770  -34.3150   22.6470 O   0  0  0  0  0  0  0  0  0  0  0  0
  -25.3550  -33.3600   25.1010 H   0  0  0  0  0  0  0  0  0  0  0  0
  -24.7150  -36.2320   23.4110 C   0  0  0  0  0  1  0  0  0  0  0  0
  -25.9180  -35.7180   24.2200 C   0  0  0  0  0  3  0  0  0  0  0  0
  -28.0520  -36.4590   25.1830 C   0  0  0  0  0  1  0  0  0  0  0  0
  -26.9850  -36.7410   24.2260 N   0  0  0  0  0  0  0  0  0  0  0  0
  -26.6030  -37.6590   24.4370 H   0  0  0  0  0  0  0  0  0  0  0  0
  -26.6990  -30.9840   25.0980 C   0  0  1  0  0  0  0  0  0  0  0  0
  -25.5590  -30.7010   26.1050 C   0  0  0  0  0  1  0  0  0  0  0  0
  -27.2450  -29.6210   24.6120 C   0  0  0  0  0  1  0  0  0  0  0  0
  -27.8520  -31.6750   25.8620 C   0  0  0  0  0  1  0  0  0  0  0  0
  -27.3790  -19.6000   18.3490 C   0  0  0  0  0  2  0  0  0  0  0  0
  -26.3950  -18.9790   20.6520 C   0  0  0  0  0  1  0  0  0  0  0  0
  -25.0730  -18.5420   18.5260 C   0  0  0  0  0  1  0  0  0  0  0  0
  -26.4740  -18.6340   19.1520 C   0  0  0  0  0  3  0  0  0  0  0  0
  -31.3730  -17.0680   19.7160 C   0  0  0  0  0  2  0  0  0  0  0  0
  -31.2810  -14.5940   19.8440 C   0  0  0  0  0  0  0  0  0  0  0  0
  -30.8800  -12.3230   18.9530 C   0  0  0  0  0  2  0  0  0  0  0  0
  -29.8880  -12.3910   17.7760 C   0  0  0  0  0  2  0  0  0  0  0  0
  -28.4450  -12.2780   18.3010 C   0  0  0  0  0  2  0  0  0  0  0  0
  -28.1580  -13.2420   19.4830 C   0  0  0  0  0  3  0  0  0  0  0  0
  -29.2760  -13.1970   20.5490 C   0  0  0  0  0  2  0  0  0  0  0  0
  -30.5520  -13.4360   19.8660 N   0  0  0  0  0  0  0  0  0  0  0  0
  -32.4430  -14.5940   19.4390 O   0  0  0  0  0  0  0  0  0  0  0  0
  -30.6600  -15.7920   20.0420 N   0  0  0  0  0  0  0  0  0  0  0  0
  -29.6850  -15.8430   20.2980 H   0  0  0  0  0  0  0  0  0  0  0  0
  -25.8570  -13.9140   20.4010 C   0  0  0  0  0  0  0  0  0  0  0  0
  -24.7830  -13.1750   20.8180 C   0  0  0  0  0  0  0  0  0  0  0  0
  -25.1780  -11.8070   20.7040 C   0  0  0  0  0  0  0  0  0  0  0  0
  -26.8400  -13.0000   20.0610 N   0  0  0  0  0  0  0  0  0  0  0  0
  -26.4410  -11.7240   20.3050 N   0  0  0  0  0  0  0  0  0  0  0  0
  -24.4080  -10.5710   20.8970 C   0  0  0  0  0  0  0  0  0  0  0  0
  -24.8030   -9.5930   21.8350 C   0  0  0  0  0  3  0  0  0  0  0  0
  -24.0340   -8.4220   22.0170 C   0  0  0  0  0  3  0  0  0  0  0  0
  -22.8550   -8.2220   21.2600 C   0  0  0  0  0  0  0  0  0  0  0  0
  -22.4810   -9.1880   20.3090 C   0  0  0  0  0  3  0  0  0  0  0  0
  -23.2490  -10.3500   20.1260 C   0  0  0  0  0  3  0  0  0  0  0  0
  -22.0610   -7.1040   21.3500 O   0  0  0  0  0  0  0  0  0  0  0  0
  -21.8840   -6.4400   22.5380 C   0  0  0  0  0  0  0  0  0  0  0  0
  -21.3640   -7.0860   23.6810 C   0  0  0  0  0  3  0  0  0  0  0  0
  -21.1320   -6.3490   24.8600 C   0  0  0  0  0  3  0  0  0  0  0  0
  -21.4120   -4.9700   24.8960 C   0  0  0  0  0  0  0  0  0  0  0  0
  -21.9260   -4.3260   23.7570 C   0  0  0  0  0  3  0  0  0  0  0  0
  -22.1590   -5.0600   22.5810 C   0  0  0  0  0  0  0  0  0  0  0  0
  -22.6330   -4.4290   21.4790 F   0  0  0  0  0  0  0  0  0  0  0  0
  -21.1820   -4.2610   26.0260 F   0  0  0  0  0  0  0  0  0  0  0  0
  -23.4310  -13.7020   21.2010 C   0  0  0  0  0  0  0  0  0  0  0  0
  -22.7440  -13.0190   22.1090 N   0  0  0  0  0  0  0  0  0  0  0  0
  -22.9990  -14.7540   20.7330 O   0  0  0  0  0  0  0  0  0  0  0  0
  -23.1080  -12.1660   22.5080 H   0  0  0  0  0  0  0  0  0  0  0  0
  -21.8400  -13.3550   22.4090 H   0  0  0  0  0  0  0  0  0  0  0  0
  -26.0750  -15.2800   20.2630 N   0  0  0  0  0  0  0  0  0  0  0  0
  -25.3550  -15.9670   20.4560 H   0  0  0  0  0  0  0  0  0  0  0  0
  -26.9270  -15.6940   19.9020 H   0  0  0  0  0  0  0  0  0  0  0  0
  1  2  1  0
  3  1  2  0
  4 55  1  0
  4  2  2  0
  5  6  2  0
  5  3  1  0
  6  4  1  0
  7  3  1  0
  7  8  1  0
  8  9  1  0
 10 12  1  0
 10  9  1  0
 11 22  2  0
 12 17  1  0
 13 21  1  0
 13 23  1  0
 14 20  1  0
 14 16  1  0
 15 21  1  0
 16 15  1  0
 17 16  2  0
 18 19  1  0
 18 12  2  0
 19 14  2  0
 20 13  1  0
 21 11  1  0
 23 25  2  0
 24 23  1  0
 26 24  1  0
 27 36  2  0
 27 32  1  0
 28 24  1  0
 28 32  1  0
 29 28  1  0
 30 31  1  0
 30 29  1  0
 31 27  1  0
 32 33  2  0
 33 34  1  0
 35 34  2  0
 36 35  1  0
 37 11  1  0
 37 38  1  0
 37 47  1  0
 38 41  1  0
 39 43  1  0
 39 38  1  0
 40 39  2  0
 43 42  1  0
 43 45  1  0
 45 46  1  0
 45 44  1  0
 47 50  1  1
 47 48  1  0
 49 47  1  0
 51  5  1  0
 51 54  1  0
 53 54  1  0
 54 52  1  0
 55 64  1  0
 56 62  1  0
 56 64  1  0
 57 62  1  0
 58 59  1  0
 58 57  1  0
 60 59  1  0
 60 69  1  0
 60 61  1  0
 62 61  1  0
 63 56  2  0
 64 65  1  0
 66 67  2  0
 67 86  1  0
 68 67  1  0
 68 71  1  0
 69 70  1  0
 69 66  1  0
 70 68  2  0
 71 72  1  0
 72 73  2  0
 74 77  1  0
 74 73  1  0
 75 74  2  0
 76 75  1  0
 76 71  2  0
 77 78  1  0
 78 83  2  0
 78 79  1  0
 79 80  2  0
 80 81  1  0
 81 85  1  0
 82 81  2  0
 83 82  1  0
 84 83  1  0
 86 87  1  0
 87 90  1  0
 87 89  1  0
 88 86  2  0
 91 66  1  0
 91 92  1  0
 93 91  1  0
M  ISO  4   9 101  10 101  56 100  64 100
M  END
>  <TORSDO>  (21) 
F 22

>  <SCORE>  (21) 
-8.804

>  <name>  (21) 
20

>  <ligand_id>  (21) 
20

>  <original_smiles>  (21) 
[H]c1c(C([H])([H])N([H])C(=O)N2C([H])([H])C([H])([H])C([H])([H])C([H])(n3nc(-c4c([H])c([H])c(Oc5c([H])c([H])c(F)c([H])c5F)c([H])c4[H])c(C(=O)N([H])[H])c3N([H])[H])C2([H])[H])nc(C([H])([H])C([H])(C([H])([H])[H])C([H])([H])[H])c(C([H])([H])C([H])([H])C([H])([H])Oc2c([H])c([H])c3c(c2[H])C([H])([H])N(C(=O)C([H])(N([H])C(=O)C([H])(N([H])C([H])([H])[H])C([H])([H])[H])C(C([H])([H])[H])(C([H])([H])[H])C([H])([H])[H])C([H])(C(=O)N([H])C2([H])c4c([H])c([H])c([H])c([H])c4C([H])([H])C([H])([H])C2([H])[H])C3([H])[H])c1[H]

>  <smiles>  (21) 
[H]c1c(C([H])([H])N([H])C(=O)N2C([H])([H])C([H])([H])C([H])([H])C([H])(n3nc(-c4c([H])c([H])c(Oc5c([H])c([H])c(F)c([H])c5F)c([H])c4[H])c(C(=O)N([H])[H])c3N([H])[H])C2([H])[H])nc(C([H])([H])C([H])(C([H])([H])[H])C([H])([H])[H])c(C([H])([H])C([H])([H])C([H])([H])Oc2c([H])c([H])c3c(c2[H])C([H])([H])N(C(=O)C([H])(N([H])C(=O)C([H])(N([H])C([H])([H])[H])C([H])([H])[H])C(C([H])([H])[H])(C([H])([H])[H])C([H])([H])[H])C([H])(C(=O)N([H])C2([H])c4c([H])c([H])c([H])c([H])c4C([H])([H])C([H])([H])C2([H])[H])C3([H])[H])c1[H]

$$$$
21:0:0
     RDKit          3D

 94102  0  0  1  0  0  0  0  0999 V2000
  -27.8330  -24.9410   21.7210 C   0  0  0  0  0  3  0  0  0  0  0  0
  -29.2250  -23.6190   20.2370 C   0  0  0  0  0  3  0  0  0  0  0  0
  -28.3130  -24.6770   20.4240 C   0  0  0  0  0  0  0  0  0  0  0  0
  -28.2770  -24.1850   22.8270 C   0  0  0  0  0  0  0  0  0  0  0  0
  -29.6930  -22.8600   21.3290 C   0  0  0  0  0  0  0  0  0  0  0  0
  -29.2200  -23.1360   22.6420 C   0  0  0  0  0  0  0  0  0  0  0  0
  -27.7380  -24.5610   24.1990 C   0  0  0  0  0  1  0  0  0  0  0  0
  -31.0090  -22.9380   24.4460 C   0  0  0  0  0  1  0  0  0  0  0  0
  -29.7370  -22.3310   23.8370 C   0  0  0  0  0  2  0  0  0  0  0  0
  -30.7220  -21.7700   21.0460 C   0  0  0  0  0  2  0  0  0  0  0  0
  -30.0770  -20.3940   20.8040 C   0  0  0  0  0  2  0  0  0  0  0  0
  -31.0960  -19.2530   20.9440 C   0  0  0  0  0  2  0  0  0  0  0  0
  -30.4930  -17.8650   20.6800 C   0  0  0  0  0  2  0  0  0  0  0  0
  -31.4260  -16.7310   21.1400 C   0  0  0  0  0  2  0  0  0  0  0  0
  -31.2280  -14.5110   20.0160 C   0  0  0  0  0  0  0  0  0  0  0  0
  -30.8200  -12.2860   19.0420 C   0  0  0  0  0  2  0  0  0  0  0  0
  -29.8430  -12.3510   17.8530 C   0  0  0  0  0  2  0  0  0  0  0  0
  -28.3800  -12.3000   18.3330 C   0  0  0  0  0  2  0  0  0  0  0  0
  -28.0920  -13.3010   19.4820 C   0  0  0  0  0  3  0  0  0  0  0  0
  -29.1630  -13.1810   20.5880 C   0  0  0  0  0  2  0  0  0  0  0  0
  -30.4910  -13.3720   19.9770 N   0  0  0  0  0  0  0  0  0  0  0  0
  -32.2230  -14.7030   19.3090 O   0  0  0  0  0  0  0  0  0  0  0  0
  -30.8240  -15.4200   20.9100 N   0  0  0  0  0  0  0  0  0  0  0  0
  -30.0320  -15.1630   21.4820 H   0  0  0  0  0  0  0  0  0  0  0  0
  -25.7860  -14.0780   20.3340 C   0  0  0  0  0  0  0  0  0  0  0  0
  -24.6730  -13.3820   20.7250 C   0  0  0  0  0  0  0  0  0  0  0  0
  -25.0160  -11.9990   20.6170 C   0  0  0  0  0  0  0  0  0  0  0  0
  -26.7420  -13.1240   20.0160 N   0  0  0  0  0  0  0  0  0  0  0  0
  -26.2810  -11.8650   20.2400 N   0  0  0  0  0  0  0  0  0  0  0  0
  -24.1940  -10.7930   20.7940 C   0  0  0  0  0  0  0  0  0  0  0  0
  -24.5770   -9.7630   21.6810 C   0  0  0  0  0  3  0  0  0  0  0  0
  -23.7660   -8.6200   21.8450 C   0  0  0  0  0  3  0  0  0  0  0  0
  -22.5560   -8.5010   21.1220 C   0  0  0  0  0  0  0  0  0  0  0  0
  -22.1900   -9.5170   20.2220 C   0  0  0  0  0  3  0  0  0  0  0  0
  -23.0010  -10.6520   20.0570 C   0  0  0  0  0  3  0  0  0  0  0  0
  -21.7140   -7.4160   21.1990 O   0  0  0  0  0  0  0  0  0  0  0  0
  -21.6240   -6.6570   22.3380 C   0  0  0  0  0  0  0  0  0  0  0  0
  -21.2660   -7.2190   23.5820 C   0  0  0  0  0  3  0  0  0  0  0  0
  -21.1170   -6.3900   24.7130 C   0  0  0  0  0  3  0  0  0  0  0  0
  -21.3140   -5.0010   24.5990 C   0  0  0  0  0  0  0  0  0  0  0  0
  -21.6640   -4.4390   23.3590 C   0  0  0  0  0  3  0  0  0  0  0  0
  -21.8160   -5.2640   22.2320 C   0  0  0  0  0  0  0  0  0  0  0  0
  -22.1340   -4.7160   21.0340 F   0  0  0  0  0  0  0  0  0  0  0  0
  -21.1620   -4.2030   25.6810 F   0  0  0  0  0  0  0  0  0  0  0  0
  -23.3350  -13.9570   21.0890 C   0  0  0  0  0  0  0  0  0  0  0  0
  -22.5950  -13.2910   21.9680 N   0  0  0  0  0  0  0  0  0  0  0  0
  -22.9540  -15.0330   20.6260 O   0  0  0  0  0  0  0  0  0  0  0  0
  -22.9140  -12.4220   22.3710 H   0  0  0  0  0  0  0  0  0  0  0  0
  -21.6970  -13.6590   22.2450 H   0  0  0  0  0  0  0  0  0  0  0  0
  -26.0620  -15.4370   20.2020 N   0  0  0  0  0  0  0  0  0  0  0  0
  -25.3700  -16.1590   20.3770 H   0  0  0  0  0  0  0  0  0  0  0  0
  -26.9410  -15.8090   19.8650 H   0  0  0  0  0  0  0  0  0  0  0  0
  -27.8840  -25.5180   19.2240 C   0  0  0  0  0  2  0  0  0  0  0  0
  -27.8870  -26.9240   19.4760 O   0  0  0  0  0  0  0  0  0  0  0  0
  -24.5710  -31.9160   23.2650 C   0  0  0  0  0  0  0  0  0  0  0  0
  -26.7090  -27.6240   19.6400 C   0  0  0  0  0  0  0  0  0  0  0  0
  -23.1500  -30.6920   21.6500 C   0  0  0  0  0  3  0  0  0  0  0  0
  -24.3900  -29.2010   19.9940 C   0  0  0  0  0  0  0  0  0  0  0  0
  -25.6570  -30.9620   21.2350 C   0  0  0  0  0  2  0  0  0  0  0  0
  -25.6170  -29.6340   20.5110 C   0  0  0  0  0  0  0  0  0  0  0  0
  -26.7740  -28.8480   20.3390 C   0  0  0  0  0  3  0  0  0  0  0  0
  -25.4620  -27.2000   19.1220 C   0  0  0  0  0  3  0  0  0  0  0  0
  -24.3060  -27.9820   19.3010 C   0  0  0  0  0  3  0  0  0  0  0  0
  -23.2000  -30.1060   20.2110 C   0  0  0  0  0  2  0  0  0  0  0  0
  -24.4850  -31.1980   22.1090 N   0  0  0  0  0  0  0  0  0  0  0  0
  -23.5600  -32.1950   23.9230 O   0  0  0  0  0  0  0  0  0  0  0  0
  -22.5430  -29.6310   22.5950 C   0  0  0  0  0  0  0  0  0  0  0  0
  -21.2170  -29.4390   22.5020 N   0  0  0  0  0  0  0  0  0  0  0  0
  -23.2580  -28.9860   23.3660 O   0  0  0  0  0  0  0  0  0  0  0  0
  -20.7000  -30.0170   21.8550 H   0  0  0  0  0  0  0  0  0  0  0  0
  -17.9020  -28.0780   22.9350 C   0  0  0  0  0  0  0  0  0  0  0  0
  -20.4340  -28.4650   23.2630 C   0  0  0  0  0  3  0  0  0  0  0  0
  -20.6230  -27.0380   22.7030 C   0  0  0  0  0  2  0  0  0  0  0  0
  -19.5640  -26.6510   21.6670 C   0  0  0  0  0  2  0  0  0  0  0  0
  -18.1610  -26.7310   22.2790 C   0  0  0  0  0  2  0  0  0  0  0  0
  -18.9690  -28.8980   23.3830 C   0  0  0  0  0  0  0  0  0  0  0  0
  -18.6740  -30.1540   23.9560 C   0  0  0  0  0  3  0  0  0  0  0  0
  -17.3430  -30.5920   24.0840 C   0  0  0  0  0  3  0  0  0  0  0  0
  -16.2890  -29.7700   23.6520 C   0  0  0  0  0  3  0  0  0  0  0  0
  -16.5690  -28.5140   23.0830 C   0  0  0  0  0  3  0  0  0  0  0  0
  -25.9400  -32.4410   23.8020 C   0  0  0  0  0  3  0  0  0  0  0  0
  -25.7350  -33.8220   24.2580 N   0  0  0  0  0  0  0  0  0  0  0  0
  -26.0620  -34.9140   23.5530 C   0  0  0  0  0  0  0  0  0  0  0  0
  -26.6430  -34.8580   22.4660 O   0  0  0  0  0  0  0  0  0  0  0  0
  -25.2140  -33.9410   25.1150 H   0  0  0  0  0  0  0  0  0  0  0  0
  -24.4040  -36.8040   23.4710 C   0  0  0  0  0  1  0  0  0  0  0  0
  -25.6840  -36.2850   24.1460 C   0  0  0  0  0  3  0  0  0  0  0  0
  -27.9230  -37.0050   24.8510 C   0  0  0  0  0  1  0  0  0  0  0  0
  -26.7560  -37.2950   24.0220 N   0  0  0  0  0  0  0  0  0  0  0  0
  -26.4130  -38.2190   24.2710 H   0  0  0  0  0  0  0  0  0  0  0  0
  -26.5380  -31.5500   24.9580 C   0  0  1  0  0  0  0  0  0  0  0  0
  -25.5440  -31.2700   26.1100 C   0  0  0  0  0  1  0  0  0  0  0  0
  -27.0100  -30.1860   24.4010 C   0  0  0  0  0  1  0  0  0  0  0  0
  -27.7840  -32.2380   25.5600 C   0  0  0  0  0  1  0  0  0  0  0  0
  1  4  1  0
  2  3  1  0
  2  5  2  0
  3  1  2  0
  4  7  1  0
  5  6  1  0
  6  4  2  0
  6  9  1  0
  9  8  1  0
 10  5  1  0
 11 12  1  0
 11 10  1  0
 13 12  1  0
 13 14  1  0
 15 23  1  0
 16 21  1  0
 17 18  1  0
 17 16  1  0
 19 18  1  0
 19 28  1  0
 19 20  1  0
 21 15  1  0
 21 20  1  0
 22 15  2  0
 23 14  1  0
 23 24  1  0
 25 26  2  0
 26 45  1  0
 27 26  1  0
 27 30  1  0
 28 29  1  0
 28 25  1  0
 29 27  2  0
 30 31  1  0
 31 32  2  0
 33 36  1  0
 33 32  1  0
 34 33  2  0
 35 34  1  0
 35 30  2  0
 36 37  1  0
 37 38  1  0
 38 39  2  0
 40 39  1  0
 40 44  1  0
 41 40  2  0
 42 37  2  0
 42 41  1  0
 43 42  1  0
 45 46  1  0
 46 49  1  0
 46 48  1  0
 47 45  2  0
 50 25  1  0
 50 51  1  0
 52 50  1  0
 53 54  1  0
 53  3  1  0
 54 56  1  0
 55 66  2  0
 56 61  1  0
 57 65  1  0
 57 67  1  0
 58 64  1  0
 58 60  1  0
 59 65  1  0
 60 59  1  0
 61 60  2  0
 62 63  1  0
 62 56  2  0
 63 58  2  0
 64 57  1  0
 65 55  1  0
 67 69  2  0
 68 67  1  0
 70 68  1  0
 71 80  2  0
 71 76  1  0
 72 68  1  0
 72 76  1  0
 73 72  1  0
 74 75  1  0
 74 73  1  0
 75 71  1  0
 76 77  2  0
 77 78  1  0
 79 78  2  0
 80 79  1  0
 81 55  1  0
 81 82  1  0
 81 91  1  0
 82 85  1  0
 83 87  1  0
 83 82  1  0
 84 83  2  0
 87 86  1  0
 89 87  1  0
 89 90  1  0
 89 88  1  0
 91 94  1  1
 91 92  1  0
 93 91  1  0
M  ISO  4  15 100  23 100  53 101  54 101
M  END
>  <TORSDO>  (22) 
F 23

>  <SCORE>  (22) 
-9.646

>  <name>  (22) 
21

>  <ligand_id>  (22) 
21

>  <original_smiles>  (22) 
[H]c1c([H])c([H])c2c(c1[H])C([H])([H])C([H])([H])C([H])([H])C2([H])N([H])C(=O)C1([H])N(C(=O)C([H])(N([H])C(=O)C([H])(N([H])C([H])([H])[H])C([H])([H])[H])C(C([H])([H])[H])(C([H])([H])[H])C([H])([H])[H])C([H])([H])c2c([H])c(OC([H])([H])c3c([H])c(C([H])([H])[H])c(C([H])([H])C([H])([H])[H])c(C([H])([H])C([H])([H])C([H])([H])C([H])([H])C([H])([H])N([H])C(=O)N4C([H])([H])C([H])([H])C([H])([H])C([H])(n5nc(-c6c([H])c([H])c(Oc7c([H])c([H])c(F)c([H])c7F)c([H])c6[H])c(C(=O)N([H])[H])c5N([H])[H])C4([H])[H])c3[H])c([H])c([H])c2C1([H])[H]

>  <smiles>  (22) 
[H]c1c([H])c([H])c2c(c1[H])C([H])([H])C([H])([H])C([H])([H])C2([H])N([H])C(=O)C1([H])N(C(=O)C([H])(N([H])C(=O)C([H])(N([H])C([H])([H])[H])C([H])([H])[H])C(C([H])([H])[H])(C([H])([H])[H])C([H])([H])[H])C([H])([H])c2c([H])c(OC([H])([H])c3c([H])c(C([H])([H])[H])c(C([H])([H])C([H])([H])[H])c(C([H])([H])C([H])([H])C([H])([H])C([H])([H])C([H])([H])N([H])C(=O)N4C([H])([H])C([H])([H])C([H])([H])C([H])(n5nc(-c6c([H])c([H])c(Oc7c([H])c([H])c(F)c([H])c7F)c([H])c6[H])c(C(=O)N([H])[H])c5N([H])[H])C4([H])[H])c3[H])c([H])c([H])c2C1([H])[H]

$$$$
22:0:0
     RDKit          3D

 94102  0  0  1  0  0  0  0  0999 V2000
  -29.5300  -22.9440   21.6340 C   0  0  0  0  0  3  0  0  0  0  0  0
  -29.7220  -21.6080   22.0280 C   0  0  0  0  0  3  0  0  0  0  0  0
  -29.8390  -23.3270   20.3120 C   0  0  0  0  0  0  0  0  0  0  0  0
  -30.2260  -20.6840   21.0940 C   0  0  0  0  0  0  0  0  0  0  0  0
  -30.2250  -22.3000   19.4080 C   0  0  0  0  0  0  0  0  0  0  0  0
  -30.4220  -21.0180   19.8020 N   0  0  0  0  0  0  0  0  0  0  0  0
  -29.2460  -22.1280   17.0790 C   0  0  0  0  0  1  0  0  0  0  0  0
  -30.4670  -22.5300   17.9230 C   0  0  0  0  0  2  0  0  0  0  0  0
  -29.9020  -24.8310   19.9860 C   0  0  0  0  0  2  0  0  0  0  0  0
  -28.6220  -25.5200   19.4380 C   0  0  0  0  0  3  0  0  0  0  0  0
  -29.7320  -26.8390   17.4820 C   0  0  0  0  0  1  0  0  0  0  0  0
  -28.6980  -25.7820   17.9080 C   0  0  0  0  0  2  0  0  0  0  0  0
  -28.4750  -26.7790   20.1310 O   0  0  0  0  0  0  0  0  0  0  0  0
  -24.5920  -31.9020   23.2260 C   0  0  0  0  0  0  0  0  0  0  0  0
  -27.2700  -27.4620   20.1350 C   0  0  0  0  0  0  0  0  0  0  0  0
  -23.3970  -30.4890   21.5870 C   0  0  0  0  0  3  0  0  0  0  0  0
  -24.8610  -28.9600   20.1680 C   0  0  0  0  0  0  0  0  0  0  0  0
  -25.9240  -30.8600   21.3920 C   0  0  0  0  0  2  0  0  0  0  0  0
  -26.0170  -29.4880   20.7520 C   0  0  0  0  0  0  0  0  0  0  0  0
  -27.2230  -28.7460   20.7300 C   0  0  0  0  0  3  0  0  0  0  0  0
  -26.0790  -26.9390   19.5750 C   0  0  0  0  0  3  0  0  0  0  0  0
  -24.8870  -27.6840   19.5830 C   0  0  0  0  0  3  0  0  0  0  0  0
  -23.6150  -29.8140   20.2070 C   0  0  0  0  0  2  0  0  0  0  0  0
  -24.6570  -31.0980   22.1280 N   0  0  0  0  0  0  0  0  0  0  0  0
  -23.5080  -32.1690   23.7610 O   0  0  0  0  0  0  0  0  0  0  0  0
  -22.7540  -29.4610   22.5470 C   0  0  0  0  0  0  0  0  0  0  0  0
  -21.4300  -29.2760   22.4240 N   0  0  0  0  0  0  0  0  0  0  0  0
  -23.4430  -28.8370   23.3570 O   0  0  0  0  0  0  0  0  0  0  0  0
  -20.9370  -29.8340   21.7400 H   0  0  0  0  0  0  0  0  0  0  0  0
  -18.0580  -28.0840   22.9330 C   0  0  0  0  0  0  0  0  0  0  0  0
  -20.6160  -28.3360   23.1940 C   0  0  0  0  0  3  0  0  0  0  0  0
  -20.7130  -26.9070   22.6090 C   0  0  0  0  0  2  0  0  0  0  0  0
  -19.6050  -26.5920   21.6000 C   0  0  0  0  0  2  0  0  0  0  0  0
  -18.2260  -26.7380   22.2510 C   0  0  0  0  0  2  0  0  0  0  0  0
  -19.1790  -28.8420   23.3610 C   0  0  0  0  0  0  0  0  0  0  0  0
  -18.9660  -30.1050   23.9550 C   0  0  0  0  0  3  0  0  0  0  0  0
  -17.6630  -30.6100   24.1290 C   0  0  0  0  0  3  0  0  0  0  0  0
  -16.5560  -29.8470   23.7180 C   0  0  0  0  0  3  0  0  0  0  0  0
  -16.7530  -28.5870   23.1260 C   0  0  0  0  0  3  0  0  0  0  0  0
  -25.8720  -32.5440   23.8460 C   0  0  0  0  0  3  0  0  0  0  0  0
  -25.5530  -33.9410   24.1720 N   0  0  0  0  0  0  0  0  0  0  0  0
  -25.8860  -34.9920   23.4120 C   0  0  0  0  0  0  0  0  0  0  0  0
  -26.5640  -34.8890   22.3860 O   0  0  0  0  0  0  0  0  0  0  0  0
  -24.9570  -34.0960   24.9710 H   0  0  0  0  0  0  0  0  0  0  0  0
  -24.1570  -36.7770   23.0280 C   0  0  0  0  0  1  0  0  0  0  0  0
  -25.3860  -36.3790   23.8600 C   0  0  0  0  0  3  0  0  0  0  0  0
  -27.5040  -37.2690   24.7250 C   0  0  0  0  0  1  0  0  0  0  0  0
  -26.4160  -37.4350   23.7650 N   0  0  0  0  0  0  0  0  0  0  0  0
  -26.0060  -38.3540   23.9100 H   0  0  0  0  0  0  0  0  0  0  0  0
  -26.3950  -31.7770   25.1220 C   0  0  1  0  0  0  0  0  0  0  0  0
  -25.3070  -31.5260   26.1900 C   0  0  0  0  0  1  0  0  0  0  0  0
  -26.9890  -30.4050   24.7230 C   0  0  0  0  0  1  0  0  0  0  0  0
  -27.5410  -32.5790   25.7820 C   0  0  0  0  0  1  0  0  0  0  0  0
  -30.7810  -19.3340   21.5500 C   0  0  0  0  0  2  0  0  0  0  0  0
  -30.0970  -18.0570   21.0020 C   0  0  0  0  0  2  0  0  0  0  0  0
  -30.8050  -16.7780   21.5340 C   0  0  0  0  0  2  0  0  0  0  0  0
  -30.7780  -14.4990   20.4710 C   0  0  0  0  0  0  0  0  0  0  0  0
  -30.4310  -12.3630   19.2850 C   0  0  0  0  0  2  0  0  0  0  0  0
  -29.5000  -12.5770   18.0750 C   0  0  0  0  0  2  0  0  0  0  0  0
  -28.0210  -12.4610   18.4920 C   0  0  0  0  0  2  0  0  0  0  0  0
  -27.6840  -13.2850   19.7630 C   0  0  0  0  0  3  0  0  0  0  0  0
  -28.7340  -13.0640   20.8780 C   0  0  0  0  0  2  0  0  0  0  0  0
  -30.0640  -13.3510   20.3120 N   0  0  0  0  0  0  0  0  0  0  0  0
  -31.8900  -14.6670   19.9610 O   0  0  0  0  0  0  0  0  0  0  0  0
  -30.1780  -15.4980   21.1530 N   0  0  0  0  0  0  0  0  0  0  0  0
  -29.2570  -15.3080   21.5190 H   0  0  0  0  0  0  0  0  0  0  0  0
  -25.2780  -13.8920   20.4380 C   0  0  0  0  0  0  0  0  0  0  0  0
  -24.2070  -13.1220   20.8040 C   0  0  0  0  0  0  0  0  0  0  0  0
  -24.6680  -11.7710   20.7940 C   0  0  0  0  0  0  0  0  0  0  0  0
  -26.3260  -13.0100   20.2310 N   0  0  0  0  0  0  0  0  0  0  0  0
  -25.9640  -11.7280   20.5020 N   0  0  0  0  0  0  0  0  0  0  0  0
  -23.9410  -10.5100   20.9930 C   0  0  0  0  0  0  0  0  0  0  0  0
  -24.3650   -9.5540   21.9430 C   0  0  0  0  0  3  0  0  0  0  0  0
  -23.6360   -8.3590   22.1310 C   0  0  0  0  0  3  0  0  0  0  0  0
  -22.4700   -8.1120   21.3670 C   0  0  0  0  0  0  0  0  0  0  0  0
  -22.0670   -9.0560   20.4070 C   0  0  0  0  0  3  0  0  0  0  0  0
  -22.7960  -10.2420   20.2170 C   0  0  0  0  0  3  0  0  0  0  0  0
  -21.7160   -6.9670   21.4610 O   0  0  0  0  0  0  0  0  0  0  0  0
  -21.6520   -6.2390   22.6230 C   0  0  0  0  0  0  0  0  0  0  0  0
  -21.2110   -6.8100   23.8370 C   0  0  0  0  0  3  0  0  0  0  0  0
  -21.0960   -6.0070   24.9900 C   0  0  0  0  0  3  0  0  0  0  0  0
  -21.4130   -4.6360   24.9300 C   0  0  0  0  0  0  0  0  0  0  0  0
  -21.8470   -4.0660   23.7190 C   0  0  0  0  0  3  0  0  0  0  0  0
  -21.9630   -4.8660   22.5690 C   0  0  0  0  0  0  0  0  0  0  0  0
  -22.3600   -4.3070   21.4000 F   0  0  0  0  0  0  0  0  0  0  0  0
  -21.2970   -3.8630   26.0350 F   0  0  0  0  0  0  0  0  0  0  0  0
  -22.8060  -13.6000   21.0560 C   0  0  0  0  0  0  0  0  0  0  0  0
  -22.0710  -12.9120   21.9240 N   0  0  0  0  0  0  0  0  0  0  0  0
  -22.3710  -14.6180   20.5220 O   0  0  0  0  0  0  0  0  0  0  0  0
  -22.4420  -12.0920   22.3810 H   0  0  0  0  0  0  0  0  0  0  0  0
  -21.1290  -13.2070   22.1350 H   0  0  0  0  0  0  0  0  0  0  0  0
  -25.4460  -15.2580   20.2430 N   0  0  0  0  0  0  0  0  0  0  0  0
  -24.6830  -15.9190   20.3360 H   0  0  0  0  0  0  0  0  0  0  0  0
  -26.3040  -15.6840   19.9140 H   0  0  0  0  0  0  0  0  0  0  0  0
  1  2  1  0
  3  1  2  0
  4 54  1  0
  4  2  2  0
  5  6  2  0
  5  3  1  0
  6  4  1  0
  7  8  1  0
  8  5  1  0
  9  3  1  0
 10 12  1  0
 10  9  1  0
 10 13  1  0
 11 12  1  0
 13 15  1  0
 14 25  2  0
 15 20  1  0
 16 24  1  0
 16 26  1  0
 17 23  1  0
 17 19  1  0
 18 24  1  0
 19 18  1  0
 20 19  2  0
 21 22  1  0
 21 15  2  0
 22 17  2  0
 23 16  1  0
 24 14  1  0
 26 28  2  0
 27 26  1  0
 29 27  1  0
 30 39  2  0
 30 35  1  0
 31 27  1  0
 31 35  1  0
 32 31  1  0
 33 34  1  0
 33 32  1  0
 34 30  1  0
 35 36  2  0
 36 37  1  0
 38 37  2  0
 39 38  1  0
 40 14  1  0
 40 41  1  0
 40 50  1  0
 41 44  1  0
 42 46  1  0
 42 41  1  0
 43 42  2  0
 46 45  1  0
 48 46  1  0
 48 49  1  0
 48 47  1  0
 50 53  1  1
 50 51  1  0
 52 50  1  0
 55 56  1  0
 55 54  1  0
 57 65  1  0
 58 63  1  0
 59 60  1  0
 59 58  1  0
 61 60  1  0
 61 70  1  0
 61 62  1  0
 63 57  1  0
 63 62  1  0
 64 57  2  0
 65 66  1  0
 65 56  1  0
 67 68  2  0
 68 87  1  0
 69 68  1  0
 69 72  1  0
 70 67  1  0
 70 71  1  0
 71 69  2  0
 72 73  1  0
 73 74  2  0
 75 78  1  0
 75 74  1  0
 76 75  2  0
 77 76  1  0
 77 72  2  0
 78 79  1  0
 79 80  1  0
 80 81  2  0
 82 81  1  0
 82 86  1  0
 83 82  2  0
 84 79  2  0
 84 83  1  0
 85 84  1  0
 87 88  1  0
 88 91  1  0
 88 90  1  0
 89 87  2  0
 92 93  1  0
 92 67  1  0
 94 92  1  0
M  ISO  4  10 101  13 101  57 100  65 100
M  END
>  <TORSDO>  (23) 
F 23

>  <SCORE>  (23) 
-13.063

>  <name>  (23) 
22

>  <ligand_id>  (23) 
22

>  <original_smiles>  (23) 
[H]c1c(C([H])([H])C([H])([H])C([H])([H])N([H])C(=O)N2C([H])([H])C([H])([H])C([H])([H])C([H])(n3nc(-c4c([H])c([H])c(Oc5c([H])c([H])c(F)c([H])c5F)c([H])c4[H])c(C(=O)N([H])[H])c3N([H])[H])C2([H])[H])nc(C([H])([H])C([H])([H])[H])c(C([H])([H])C([H])(Oc2c([H])c([H])c3c(c2[H])C([H])([H])N(C(=O)C([H])(N([H])C(=O)C([H])(N([H])C([H])([H])[H])C([H])([H])[H])C(C([H])([H])[H])(C([H])([H])[H])C([H])([H])[H])C([H])(C(=O)N([H])C2([H])c4c([H])c([H])c([H])c([H])c4C([H])([H])C([H])([H])C2([H])[H])C3([H])[H])C([H])([H])C([H])([H])[H])c1[H]

>  <smiles>  (23) 
[H]c1c(C([H])([H])C([H])([H])C([H])([H])N([H])C(=O)N2C([H])([H])C([H])([H])C([H])([H])C([H])(n3nc(-c4c([H])c([H])c(Oc5c([H])c([H])c(F)c([H])c5F)c([H])c4[H])c(C(=O)N([H])[H])c3N([H])[H])C2([H])[H])nc(C([H])([H])C([H])([H])[H])c(C([H])([H])C([H])(Oc2c([H])c([H])c3c(c2[H])C([H])([H])N(C(=O)C([H])(N([H])C(=O)C([H])(N([H])C([H])([H])[H])C([H])([H])[H])C(C([H])([H])[H])(C([H])([H])[H])C([H])([H])[H])C([H])(C(=O)N([H])C2([H])c4c([H])c([H])c([H])c([H])c4C([H])([H])C([H])([H])C2([H])[H])C3([H])[H])C([H])([H])C([H])([H])[H])c1[H]

$$$$
23:0:0
     RDKit          3D

 94102  0  0  1  0  0  0  0  0999 V2000
  -26.1920  -18.8360   21.4530 C   0  0  0  0  0  3  0  0  0  0  0  0
  -28.4600  -18.5260   20.6390 C   0  0  0  0  0  3  0  0  0  0  0  0
  -27.2520  -19.2510   20.6210 C   0  0  0  0  0  0  0  0  0  0  0  0
  -26.3230  -17.7100   22.2970 C   0  0  0  0  0  0  0  0  0  0  0  0
  -28.6440  -17.4330   21.5080 C   0  0  0  0  0  0  0  0  0  0  0  0
  -27.5760  -17.0190   22.3660 C   0  0  0  0  0  0  0  0  0  0  0  0
  -27.7930  -15.8800   23.3750 C   0  0  0  0  0  1  0  0  0  0  0  0
  -24.4700  -18.2450   24.0120 C   0  0  0  0  0  1  0  0  0  0  0  0
  -25.0710  -17.2280   23.0400 C   0  0  0  0  0  2  0  0  0  0  0  0
  -27.0690  -20.3850   19.6100 C   0  0  0  0  0  2  0  0  0  0  0  0
  -26.8050  -21.7950   20.1960 C   0  0  0  0  0  2  0  0  0  0  0  0
  -27.8990  -22.8260   19.8270 C   0  0  0  0  0  2  0  0  0  0  0  0
  -27.6270  -24.2750   20.3000 C   0  0  0  0  0  2  0  0  0  0  0  0
  -28.3510  -25.3630   19.4570 C   0  0  0  0  0  2  0  0  0  0  0  0
  -28.3500  -26.6780   20.0470 O   0  0  0  0  0  0  0  0  0  0  0  0
  -24.6170  -31.8720   23.2180 C   0  0  0  0  0  0  0  0  0  0  0  0
  -27.1850  -27.4270   20.0540 C   0  0  0  0  0  0  0  0  0  0  0  0
  -23.3900  -30.5140   21.5610 C   0  0  0  0  0  3  0  0  0  0  0  0
  -24.8230  -28.9870   20.1120 C   0  0  0  0  0  0  0  0  0  0  0  0
  -25.9310  -30.8260   21.3810 C   0  0  0  0  0  2  0  0  0  0  0  0
  -25.9910  -29.4700   20.7130 C   0  0  0  0  0  0  0  0  0  0  0  0
  -27.1750  -28.6930   20.6890 C   0  0  0  0  0  3  0  0  0  0  0  0
  -25.9910  -26.9700   19.4410 C   0  0  0  0  0  3  0  0  0  0  0  0
  -24.8170  -27.7380   19.4760 C   0  0  0  0  0  3  0  0  0  0  0  0
  -23.5910  -29.8650   20.1720 C   0  0  0  0  0  2  0  0  0  0  0  0
  -24.6630  -31.0910   22.1050 N   0  0  0  0  0  0  0  0  0  0  0  0
  -23.5370  -32.1490   23.7510 O   0  0  0  0  0  0  0  0  0  0  0  0
  -22.7350  -29.4780   22.4970 C   0  0  0  0  0  0  0  0  0  0  0  0
  -21.4110  -29.2950   22.3540 N   0  0  0  0  0  0  0  0  0  0  0  0
  -23.4090  -28.8510   23.3160 O   0  0  0  0  0  0  0  0  0  0  0  0
  -20.9400  -29.8230   21.6340 H   0  0  0  0  0  0  0  0  0  0  0  0
  -18.0330  -28.1510   22.8360 C   0  0  0  0  0  0  0  0  0  0  0  0
  -20.5920  -28.3600   23.1220 C   0  0  0  0  0  3  0  0  0  0  0  0
  -20.6750  -26.9300   22.5290 C   0  0  0  0  0  2  0  0  0  0  0  0
  -19.5770  -26.6570   21.4990 C   0  0  0  0  0  2  0  0  0  0  0  0
  -18.2010  -26.8190   22.1400 C   0  0  0  0  0  2  0  0  0  0  0  0
  -19.1630  -28.8830   23.2860 C   0  0  0  0  0  0  0  0  0  0  0  0
  -18.9610  -30.1390   23.8920 C   0  0  0  0  0  3  0  0  0  0  0  0
  -17.6660  -30.6540   24.0770 C   0  0  0  0  0  3  0  0  0  0  0  0
  -16.5500  -29.9190   23.6450 C   0  0  0  0  0  3  0  0  0  0  0  0
  -16.7400  -28.6710   23.0260 C   0  0  0  0  0  3  0  0  0  0  0  0
  -25.9030  -32.4860   23.8450 C   0  0  0  0  0  3  0  0  0  0  0  0
  -25.5890  -33.8690   24.2340 N   0  0  0  0  0  0  0  0  0  0  0  0
  -25.9050  -34.9520   23.5130 C   0  0  0  0  0  0  0  0  0  0  0  0
  -26.5620  -34.8940   22.4700 O   0  0  0  0  0  0  0  0  0  0  0  0
  -25.0000  -33.9820   25.0460 H   0  0  0  0  0  0  0  0  0  0  0  0
  -24.1470  -36.7310   23.2640 C   0  0  0  0  0  1  0  0  0  0  0  0
  -25.4100  -36.3130   24.0330 C   0  0  0  0  0  3  0  0  0  0  0  0
  -27.5580  -37.1810   24.8460 C   0  0  0  0  0  1  0  0  0  0  0  0
  -26.4290  -37.3800   23.9430 N   0  0  0  0  0  0  0  0  0  0  0  0
  -26.0170  -38.2900   24.1360 H   0  0  0  0  0  0  0  0  0  0  0  0
  -26.4460  -31.6600   25.0760 C   0  0  1  0  0  0  0  0  0  0  0  0
  -25.3750  -31.3680   26.1510 C   0  0  0  0  0  1  0  0  0  0  0  0
  -27.0310  -30.3040   24.6150 C   0  0  0  0  0  1  0  0  0  0  0  0
  -27.6040  -32.4310   25.7560 C   0  0  0  0  0  1  0  0  0  0  0  0
  -29.9740  -16.6710   21.4520 C   0  0  0  0  0  2  0  0  0  0  0  0
  -30.6050  -14.4140   20.5230 C   0  0  0  0  0  0  0  0  0  0  0  0
  -30.4430  -12.2680   19.3600 C   0  0  0  0  0  2  0  0  0  0  0  0
  -29.4680  -12.4590   18.1720 C   0  0  0  0  0  2  0  0  0  0  0  0
  -27.9930  -12.3140   18.6040 C   0  0  0  0  0  2  0  0  0  0  0  0
  -27.6600  -13.1430   19.8720 C   0  0  0  0  0  3  0  0  0  0  0  0
  -28.7070  -12.8190   20.9660 C   0  0  0  0  0  2  0  0  0  0  0  0
  -30.0320  -13.1920   20.4180 N   0  0  0  0  0  0  0  0  0  0  0  0
  -31.7150  -14.7130   20.0690 O   0  0  0  0  0  0  0  0  0  0  0  0
  -29.7630  -15.2950   21.0630 N   0  0  0  0  0  0  0  0  0  0  0  0
  -28.8580  -14.9190   21.3030 H   0  0  0  0  0  0  0  0  0  0  0  0
  -25.2630  -13.8040   20.5590 C   0  0  0  0  0  0  0  0  0  0  0  0
  -24.1810  -13.0380   20.9180 C   0  0  0  0  0  0  0  0  0  0  0  0
  -24.6280  -11.6840   20.8800 C   0  0  0  0  0  0  0  0  0  0  0  0
  -26.2980  -12.9060   20.3370 N   0  0  0  0  0  0  0  0  0  0  0  0
  -25.9160  -11.6290   20.5740 N   0  0  0  0  0  0  0  0  0  0  0  0
  -23.8920  -10.4260   21.0450 C   0  0  0  0  0  0  0  0  0  0  0  0
  -24.3500   -9.4180   21.9190 C   0  0  0  0  0  3  0  0  0  0  0  0
  -23.6210   -8.2210   22.0760 C   0  0  0  0  0  3  0  0  0  0  0  0
  -22.4210   -8.0240   21.3540 C   0  0  0  0  0  0  0  0  0  0  0  0
  -21.9820   -9.0200   20.4640 C   0  0  0  0  0  3  0  0  0  0  0  0
  -22.7120  -10.2100   20.3050 C   0  0  0  0  0  3  0  0  0  0  0  0
  -21.6630   -6.8800   21.4220 O   0  0  0  0  0  0  0  0  0  0  0  0
  -21.6850   -6.0680   22.5270 C   0  0  0  0  0  0  0  0  0  0  0  0
  -21.4000   -6.5600   23.8190 C   0  0  0  0  0  3  0  0  0  0  0  0
  -21.3660   -5.6770   24.9170 C   0  0  0  0  0  3  0  0  0  0  0  0
  -21.6050   -4.3030   24.7240 C   0  0  0  0  0  0  0  0  0  0  0  0
  -21.8820   -3.8110   23.4370 C   0  0  0  0  0  3  0  0  0  0  0  0
  -21.9180   -4.6910   22.3410 C   0  0  0  0  0  0  0  0  0  0  0  0
  -22.1670   -4.2090   21.0990 F   0  0  0  0  0  0  0  0  0  0  0  0
  -21.5640   -3.4530   25.7760 F   0  0  0  0  0  0  0  0  0  0  0  0
  -22.7850  -13.5290   21.1860 C   0  0  0  0  0  0  0  0  0  0  0  0
  -22.0450  -12.8290   22.0460 N   0  0  0  0  0  0  0  0  0  0  0  0
  -22.3540  -14.5590   20.6740 O   0  0  0  0  0  0  0  0  0  0  0  0
  -22.3960  -11.9860   22.4750 H   0  0  0  0  0  0  0  0  0  0  0  0
  -21.1040  -13.1300   22.2640 H   0  0  0  0  0  0  0  0  0  0  0  0
  -25.4450  -15.1680   20.3900 N   0  0  0  0  0  0  0  0  0  0  0  0
  -24.6920  -15.8310   20.5120 H   0  0  0  0  0  0  0  0  0  0  0  0
  -26.3320  -15.6310   20.2290 H   0  0  0  0  0  0  0  0  0  0  0  0
  1  4  1  0
  2  5  2  0
  3  2  1  0
  3  1  2  0
  4  6  2  0
  4  9  1  0
  5  6  1  0
  6  7  1  0
  9  8  1  0
 10 11  1  0
 10  3  1  0
 12 11  1  0
 12 13  1  0
 14 15  1  0
 14 13  1  0
 15 17  1  0
 16 27  2  0
 17 22  1  0
 18 26  1  0
 18 28  1  0
 19 25  1  0
 19 21  1  0
 20 26  1  0
 21 20  1  0
 22 21  2  0
 23 24  1  0
 23 17  2  0
 24 19  2  0
 25 18  1  0
 26 16  1  0
 28 30  2  0
 29 28  1  0
 31 29  1  0
 32 41  2  0
 32 37  1  0
 33 29  1  0
 33 37  1  0
 34 33  1  0
 35 36  1  0
 35 34  1  0
 36 32  1  0
 37 38  2  0
 38 39  1  0
 40 39  2  0
 41 40  1  0
 42 16  1  0
 42 43  1  0
 42 52  1  0
 43 46  1  0
 44 48  1  0
 44 43  1  0
 45 44  2  0
 48 47  1  0
 50 48  1  0
 50 51  1  0
 50 49  1  0
 52 55  1  1
 52 53  1  0
 54 52  1  0
 56  5  1  0
 57 65  1  0
 58 63  1  0
 59 60  1  0
 59 58  1  0
 61 60  1  0
 61 70  1  0
 61 62  1  0
 63 57  1  0
 63 62  1  0
 64 57  2  0
 65 66  1  0
 65 56  1  0
 67 68  2  0
 68 87  1  0
 69 68  1  0
 69 72  1  0
 70 67  1  0
 70 71  1  0
 71 69  2  0
 72 73  1  0
 73 74  2  0
 75 78  1  0
 75 74  1  0
 76 75  2  0
 77 76  1  0
 77 72  2  0
 78 79  1  0
 79 80  1  0
 80 81  2  0
 82 81  1  0
 82 86  1  0
 83 82  2  0
 84 79  2  0
 84 83  1  0
 85 84  1  0
 87 88  1  0
 88 91  1  0
 88 90  1  0
 89 87  2  0
 92 93  1  0
 92 67  1  0
 94 92  1  0
M  ISO  4  14 101  15 101  57 100  65 100
M  END
>  <TORSDO>  (24) 
F 23

>  <SCORE>  (24) 
25.059

>  <name>  (24) 
23

>  <ligand_id>  (24) 
23

>  <original_smiles>  (24) 
[H]c1c([H])c([H])c2c(c1[H])C([H])([H])C([H])([H])C([H])([H])C2([H])N([H])C(=O)C1([H])N(C(=O)C([H])(N([H])C(=O)C([H])(N([H])C([H])([H])[H])C([H])([H])[H])C(C([H])([H])[H])(C([H])([H])[H])C([H])([H])[H])C([H])([H])c2c([H])c(OC([H])([H])C([H])([H])C([H])([H])C([H])([H])C([H])([H])c3c([H])c(C([H])([H])N([H])C(=O)N4C([H])([H])C([H])([H])C([H])([H])C([H])(n5nc(-c6c([H])c([H])c(Oc7c([H])c([H])c(F)c([H])c7F)c([H])c6[H])c(C(=O)N([H])[H])c5N([H])[H])C4([H])[H])c(C([H])([H])[H])c(C([H])([H])C([H])([H])[H])c3[H])c([H])c([H])c2C1([H])[H]

>  <smiles>  (24) 
[H]c1c([H])c([H])c2c(c1[H])C([H])([H])C([H])([H])C([H])([H])C2([H])N([H])C(=O)C1([H])N(C(=O)C([H])(N([H])C(=O)C([H])(N([H])C([H])([H])[H])C([H])([H])[H])C(C([H])([H])[H])(C([H])([H])[H])C([H])([H])[H])C([H])([H])c2c([H])c(OC([H])([H])C([H])([H])C([H])([H])C([H])([H])C([H])([H])c3c([H])c(C([H])([H])N([H])C(=O)N4C([H])([H])C([H])([H])C([H])([H])C([H])(n5nc(-c6c([H])c([H])c(Oc7c([H])c([H])c(F)c([H])c7F)c([H])c6[H])c(C(=O)N([H])[H])c5N([H])[H])C4([H])[H])c(C([H])([H])[H])c(C([H])([H])C([H])([H])[H])c3[H])c([H])c([H])c2C1([H])[H]

$$$$
25:0:0
     RDKit          3D

 95103  0  0  1  0  0  0  0  0999 V2000
  -28.1640  -22.3250   19.4880 C   0  0  0  0  0  0  0  0  0  0  0  0
  -27.8690  -23.5400   18.8440 C   0  0  0  0  0  0  0  0  0  0  0  0
  -27.1050  -21.3980   19.5470 C   0  0  0  0  0  0  0  0  0  0  0  0
  -25.7780  -22.7720   18.3190 C   0  0  0  0  0  0  0  0  0  0  0  0
  -29.5390  -22.1000   20.1120 C   0  0  0  0  0  1  0  0  0  0  0  0
  -24.4280  -23.0520   17.6970 C   0  0  0  0  0  1  0  0  0  0  0  0
  -26.6870  -23.7270   18.2310 N   0  0  0  0  0  0  0  0  0  0  0  0
  -25.9240  -21.6270   18.9660 N   0  0  0  0  0  0  0  0  0  0  0  0
  -27.1760  -20.2050   20.2520 N   0  0  0  0  0  0  0  0  0  0  0  0
  -26.2400  -19.8550   20.4200 H   0  0  0  0  0  0  0  0  0  0  0  0
  -28.7380  -24.7820   18.9850 C   0  0  0  0  0  2  0  0  0  0  0  0
  -28.4760  -25.4560   20.3500 C   0  0  0  0  0  2  0  0  0  0  0  0
  -28.5790  -26.8780   20.3080 O   0  0  0  0  0  0  0  0  0  0  0  0
  -24.6890  -31.9370   23.3970 C   0  0  0  0  0  0  0  0  0  0  0  0
  -27.3830  -27.5660   20.3010 C   0  0  0  0  0  0  0  0  0  0  0  0
  -23.4960  -30.5520   21.7300 C   0  0  0  0  0  3  0  0  0  0  0  0
  -24.9640  -29.0380   20.3030 C   0  0  0  0  0  0  0  0  0  0  0  0
  -26.0230  -30.9220   21.5610 C   0  0  0  0  0  2  0  0  0  0  0  0
  -26.1160  -29.5610   20.9100 C   0  0  0  0  0  0  0  0  0  0  0  0
  -27.3200  -28.8270   20.9230 C   0  0  0  0  0  3  0  0  0  0  0  0
  -26.2160  -27.0560   19.6860 C   0  0  0  0  0  3  0  0  0  0  0  0
  -25.0060  -27.7720   19.6980 C   0  0  0  0  0  3  0  0  0  0  0  0
  -23.7100  -29.8850   20.3470 C   0  0  0  0  0  2  0  0  0  0  0  0
  -24.7520  -31.1480   22.2890 N   0  0  0  0  0  0  0  0  0  0  0  0
  -23.6030  -32.1990   23.9320 O   0  0  0  0  0  0  0  0  0  0  0  0
  -22.8480  -29.5120   22.6660 C   0  0  0  0  0  0  0  0  0  0  0  0
  -21.5330  -29.2980   22.5030 N   0  0  0  0  0  0  0  0  0  0  0  0
  -23.5240  -28.9010   23.4980 O   0  0  0  0  0  0  0  0  0  0  0  0
  -21.0400  -29.8320   21.8020 H   0  0  0  0  0  0  0  0  0  0  0  0
  -18.1800  -28.0470   22.9240 C   0  0  0  0  0  0  0  0  0  0  0  0
  -20.7250  -28.3420   23.2550 C   0  0  0  0  0  3  0  0  0  0  0  0
  -20.8660  -26.9150   22.6790 C   0  0  0  0  0  2  0  0  0  0  0  0
  -19.7960  -26.5800   21.6370 C   0  0  0  0  0  2  0  0  0  0  0  0
  -18.3960  -26.7030   22.2460 C   0  0  0  0  0  2  0  0  0  0  0  0
  -19.2770  -28.8250   23.3830 C   0  0  0  0  0  0  0  0  0  0  0  0
  -19.0250  -30.0850   23.9680 C   0  0  0  0  0  3  0  0  0  0  0  0
  -17.7110  -30.5680   24.0990 C   0  0  0  0  0  3  0  0  0  0  0  0
  -16.6280  -29.7880   23.6610 C   0  0  0  0  0  3  0  0  0  0  0  0
  -16.8630  -28.5290   23.0770 C   0  0  0  0  0  3  0  0  0  0  0  0
  -25.9710  -32.5610   24.0300 C   0  0  0  0  0  3  0  0  0  0  0  0
  -25.6800  -33.9720   24.3160 N   0  0  0  0  0  0  0  0  0  0  0  0
  -26.0490  -34.9940   23.5370 C   0  0  0  0  0  0  0  0  0  0  0  0
  -26.7440  -34.8550   22.5280 O   0  0  0  0  0  0  0  0  0  0  0  0
  -25.0720  -34.1600   25.1000 H   0  0  0  0  0  0  0  0  0  0  0  0
  -24.3570  -36.7940   23.0850 C   0  0  0  0  0  1  0  0  0  0  0  0
  -25.5690  -36.4000   23.9420 C   0  0  0  0  0  3  0  0  0  0  0  0
  -27.6920  -37.2800   24.8080 C   0  0  0  0  0  1  0  0  0  0  0  0
  -26.6190  -37.4370   23.8280 N   0  0  0  0  0  0  0  0  0  0  0  0
  -26.2200  -38.3670   23.9420 H   0  0  0  0  0  0  0  0  0  0  0  0
  -26.4500  -31.8120   25.3350 C   0  0  1  0  0  0  0  0  0  0  0  0
  -25.3220  -31.5800   26.3650 C   0  0  0  0  0  1  0  0  0  0  0  0
  -27.0610  -30.4370   24.9830 C   0  0  0  0  0  1  0  0  0  0  0  0
  -27.5630  -32.6290   26.0280 C   0  0  0  0  0  1  0  0  0  0  0  0
  -27.9500  -19.2130   19.5340 C   0  0  0  0  0  2  0  0  0  0  0  0
  -28.9140  -18.4760   20.4660 C   0  0  0  0  0  2  0  0  0  0  0  0
  -29.6710  -17.4730   19.6200 C   0  0  0  0  0  2  0  0  0  0  0  0
  -30.7150  -16.6600   20.3660 C   0  0  0  0  0  2  0  0  0  0  0  0
  -31.6440  -14.4450   19.8520 C   0  0  0  0  0  0  0  0  0  0  0  0
  -31.2320  -12.1750   19.0600 C   0  0  0  0  0  2  0  0  0  0  0  0
  -30.2770  -12.2580   17.8530 C   0  0  0  0  0  2  0  0  0  0  0  0
  -28.8050  -12.2530   18.3180 C   0  0  0  0  0  2  0  0  0  0  0  0
  -28.5140  -13.2930   19.4340 C   0  0  0  0  0  3  0  0  0  0  0  0
  -29.5860  -13.2040   20.5470 C   0  0  0  0  0  2  0  0  0  0  0  0
  -30.9180  -13.3100   19.9200 N   0  0  0  0  0  0  0  0  0  0  0  0
  -32.8550  -14.5230   19.6420 O   0  0  0  0  0  0  0  0  0  0  0  0
  -30.8700  -15.4740   19.5630 N   0  0  0  0  0  0  0  0  0  0  0  0
  -30.0230  -15.1970   19.0950 H   0  0  0  0  0  0  0  0  0  0  0  0
  -26.2250  -14.1330   20.2850 C   0  0  0  0  0  0  0  0  0  0  0  0
  -25.0870  -13.4720   20.6520 C   0  0  0  0  0  0  0  0  0  0  0  0
  -25.3890  -12.0800   20.5330 C   0  0  0  0  0  0  0  0  0  0  0  0
  -27.1580  -13.1540   19.9650 N   0  0  0  0  0  0  0  0  0  0  0  0
  -26.6560  -11.9120   20.1720 N   0  0  0  0  0  0  0  0  0  0  0  0
  -24.5330  -10.8990   20.6910 C   0  0  0  0  0  0  0  0  0  0  0  0
  -24.8210   -9.9060   21.6540 C   0  0  0  0  0  3  0  0  0  0  0  0
  -23.9760   -8.7850   21.8000 C   0  0  0  0  0  3  0  0  0  0  0  0
  -22.8250   -8.6530   20.9860 C   0  0  0  0  0  0  0  0  0  0  0  0
  -22.5570   -9.6310   20.0130 C   0  0  0  0  0  3  0  0  0  0  0  0
  -23.4020  -10.7440   19.8660 C   0  0  0  0  0  3  0  0  0  0  0  0
  -21.9610   -7.5870   21.0390 O   0  0  0  0  0  0  0  0  0  0  0  0
  -21.6950   -6.9350   22.2150 C   0  0  0  0  0  0  0  0  0  0  0  0
  -21.1510   -7.6040   23.3330 C   0  0  0  0  0  3  0  0  0  0  0  0
  -20.8310   -6.8800   24.4970 C   0  0  0  0  0  3  0  0  0  0  0  0
  -21.0420   -5.4880   24.5450 C   0  0  0  0  0  0  0  0  0  0  0  0
  -21.5770   -4.8200   23.4280 C   0  0  0  0  0  3  0  0  0  0  0  0
  -21.9010   -5.5410   22.2670 C   0  0  0  0  0  0  0  0  0  0  0  0
  -22.3980   -4.8890   21.1890 F   0  0  0  0  0  0  0  0  0  0  0  0
  -20.7240   -4.7900   25.6610 F   0  0  0  0  0  0  0  0  0  0  0  0
  -23.7600  -14.0870   20.9970 C   0  0  0  0  0  0  0  0  0  0  0  0
  -22.9980  -13.4480   21.8720 N   0  0  0  0  0  0  0  0  0  0  0  0
  -23.4180  -15.1700   20.5180 O   0  0  0  0  0  0  0  0  0  0  0  0
  -23.2900  -12.5690   22.2770 H   0  0  0  0  0  0  0  0  0  0  0  0
  -22.1060  -13.8370   22.1400 H   0  0  0  0  0  0  0  0  0  0  0  0
  -26.5410  -15.4870   20.1840 N   0  0  0  0  0  0  0  0  0  0  0  0
  -25.8720  -16.2080   20.4340 H   0  0  0  0  0  0  0  0  0  0  0  0
  -27.4550  -15.8510   19.9650 H   0  0  0  0  0  0  0  0  0  0  0  0
  1  3  1  0
  1  5  1  0
  2 11  1  0
  2  1  2  0
  3  9  1  0
  4  8  1  0
  6  4  1  0
  7  4  2  0
  7  2  1  0
  8  3  2  0
  9 10  1  0
 11 12  1  0
 13 12  1  0
 14 25  2  0
 15 13  1  0
 15 20  1  0
 16 24  1  0
 16 26  1  0
 17 23  1  0
 17 19  1  0
 18 24  1  0
 19 20  2  0
 19 18  1  0
 21 22  1  0
 21 15  2  0
 22 17  2  0
 23 16  1  0
 24 14  1  0
 26 28  2  0
 27 26  1  0
 29 27  1  0
 30 39  2  0
 30 35  1  0
 31 27  1  0
 31 35  1  0
 32 31  1  0
 33 34  1  0
 33 32  1  0
 34 30  1  0
 35 36  2  0
 36 37  1  0
 38 37  2  0
 39 38  1  0
 40 14  1  0
 40 41  1  0
 40 50  1  0
 41 44  1  0
 42 46  1  0
 42 41  1  0
 43 42  2  0
 46 45  1  0
 48 46  1  0
 48 49  1  0
 48 47  1  0
 50 53  1  1
 50 51  1  0
 52 50  1  0
 54  9  1  0
 54 55  1  0
 56 57  1  0
 56 55  1  0
 58 64  1  0
 59 64  1  0
 60 61  1  0
 60 59  1  0
 62 61  1  0
 62 71  1  0
 62 63  1  0
 64 63  1  0
 65 58  2  0
 66 58  1  0
 66 57  1  0
 67 66  1  0
 68 69  2  0
 69 88  1  0
 70 69  1  0
 70 73  1  0
 71 72  1  0
 71 68  1  0
 72 70  2  0
 73 74  1  0
 74 75  2  0
 76 79  1  0
 76 75  1  0
 77 76  2  0
 78 77  1  0
 78 73  2  0
 79 80  1  0
 80 85  2  0
 80 81  1  0
 81 82  2  0
 82 83  1  0
 83 87  1  0
 84 83  2  0
 85 84  1  0
 86 85  1  0
 88 89  1  0
 89 92  1  0
 89 91  1  0
 90 88  2  0
 93 68  1  0
 93 94  1  0
 95 93  1  0
M  ISO  4  12 101  13 101  58 100  66 100
M  END
>  <TORSDO>  (25) 
F 22

>  <SCORE>  (25) 
-11.849

>  <name>  (25) 
25

>  <ligand_id>  (25) 
25

>  <original_smiles>  (25) 
[H]c1c([H])c([H])c2c(c1[H])C([H])([H])C([H])([H])C([H])([H])C2([H])N([H])C(=O)C1([H])N(C(=O)C([H])(N([H])C(=O)C([H])(N([H])C([H])([H])[H])C([H])([H])[H])C(C([H])([H])[H])(C([H])([H])[H])C([H])([H])[H])C([H])([H])c2c([H])c(OC([H])([H])C([H])([H])c3nc(C([H])([H])[H])nc(N([H])C([H])([H])C([H])([H])C([H])([H])C([H])([H])N([H])C(=O)N4C([H])([H])C([H])([H])C([H])([H])C([H])(n5nc(-c6c([H])c([H])c(Oc7c([H])c([H])c(F)c([H])c7F)c([H])c6[H])c(C(=O)N([H])[H])c5N([H])[H])C4([H])[H])c3C([H])([H])[H])c([H])c([H])c2C1([H])[H]

>  <smiles>  (25) 
[H]c1c([H])c([H])c2c(c1[H])C([H])([H])C([H])([H])C([H])([H])C2([H])N([H])C(=O)C1([H])N(C(=O)C([H])(N([H])C(=O)C([H])(N([H])C([H])([H])[H])C([H])([H])[H])C(C([H])([H])[H])(C([H])([H])[H])C([H])([H])[H])C([H])([H])c2c([H])c(OC([H])([H])C([H])([H])c3nc(C([H])([H])[H])nc(N([H])C([H])([H])C([H])([H])C([H])([H])C([H])([H])N([H])C(=O)N4C([H])([H])C([H])([H])C([H])([H])C([H])(n5nc(-c6c([H])c([H])c(Oc7c([H])c([H])c(F)c([H])c7F)c([H])c6[H])c(C(=O)N([H])[H])c5N([H])[H])C4([H])[H])c3C([H])([H])[H])c([H])c([H])c2C1([H])[H]

$$$$
26:0:0
     RDKit          3D

 93101  0  0  1  0  0  0  0  0999 V2000
  -28.8120  -22.7970   19.4420 C   0  0  0  0  0  3  0  0  0  0  0  0
  -28.3350  -21.6260   20.1580 C   0  0  0  0  0  0  0  0  0  0  0  0
  -27.3840  -21.9160   21.1630 C   0  0  0  0  0  0  0  0  0  0  0  0
  -28.3380  -24.1470   19.7290 C   0  0  0  0  0  0  0  0  0  0  0  0
  -26.9290  -23.2470   21.3680 C   0  0  0  0  0  0  0  0  0  0  0  0
  -27.3940  -24.3270   20.6830 N   0  0  0  0  0  0  0  0  0  0  0  0
  -26.8350  -20.8980   21.8710 F   0  0  0  0  0  0  0  0  0  0  0  0
  -28.5400  -20.0870   19.7420 C   0  0  0  0  0  2  0  0  0  0  0  0
  -29.8380  -19.1690   20.0340 C   0  0  0  0  0  2  0  0  0  0  0  0
  -29.8800  -17.8300   20.9650 C   0  0  0  0  0  2  0  0  0  0  0  0
  -30.5150  -15.3270   20.3170 C   0  0  0  0  0  0  0  0  0  0  0  0
  -30.4880  -13.0540   19.2670 C   0  0  0  0  0  2  0  0  0  0  0  0
  -29.5300  -13.0350   18.0540 C   0  0  0  0  0  2  0  0  0  0  0  0
  -28.0710  -12.7920   18.4880 C   0  0  0  0  0  2  0  0  0  0  0  0
  -27.6510  -13.6570   19.7050 C   0  0  0  0  0  3  0  0  0  0  0  0
  -28.7130  -13.6240   20.8200 C   0  0  0  0  0  2  0  0  0  0  0  0
  -29.9770  -14.0650   20.2180 N   0  0  0  0  0  0  0  0  0  0  0  0
  -31.7110  -15.5100   20.0780 O   0  0  0  0  0  0  0  0  0  0  0  0
  -29.6400  -16.3920   20.4920 N   0  0  0  0  0  0  0  0  0  0  0  0
  -28.6740  -16.1050   20.5210 H   0  0  0  0  0  0  0  0  0  0  0  0
  -25.2670  -14.1220   20.5270 C   0  0  0  0  0  0  0  0  0  0  0  0
  -24.2260  -13.2920   20.8360 C   0  0  0  0  0  0  0  0  0  0  0  0
  -24.7220  -11.9600   20.6720 C   0  0  0  0  0  0  0  0  0  0  0  0
  -26.3280  -13.2920   20.1940 N   0  0  0  0  0  0  0  0  0  0  0  0
  -26.0080  -11.9830   20.3470 N   0  0  0  0  0  0  0  0  0  0  0  0
  -24.0290  -10.6690   20.7520 C   0  0  0  0  0  0  0  0  0  0  0  0
  -24.5140   -9.6190   21.5620 C   0  0  0  0  0  3  0  0  0  0  0  0
  -23.8220   -8.3910   21.6330 C   0  0  0  0  0  3  0  0  0  0  0  0
  -22.6280   -8.2070   20.8970 C   0  0  0  0  0  0  0  0  0  0  0  0
  -22.1640   -9.2460   20.0710 C   0  0  0  0  0  3  0  0  0  0  0  0
  -22.8570  -10.4650   19.9980 C   0  0  0  0  0  3  0  0  0  0  0  0
  -21.9000   -7.0430   20.8870 O   0  0  0  0  0  0  0  0  0  0  0  0
  -21.9120   -6.1770   21.9510 C   0  0  0  0  0  0  0  0  0  0  0  0
  -21.5330   -6.5840   23.2490 C   0  0  0  0  0  3  0  0  0  0  0  0
  -21.4950   -5.6440   24.2990 C   0  0  0  0  0  3  0  0  0  0  0  0
  -21.8270   -4.2980   24.0540 C   0  0  0  0  0  0  0  0  0  0  0  0
  -22.2000   -3.8900   22.7620 C   0  0  0  0  0  3  0  0  0  0  0  0
  -22.2410   -4.8270   21.7140 C   0  0  0  0  0  0  0  0  0  0  0  0
  -22.5810   -4.4220   20.4660 F   0  0  0  0  0  0  0  0  0  0  0  0
  -21.7850   -3.3950   25.0620 F   0  0  0  0  0  0  0  0  0  0  0  0
  -22.8210  -13.7040   21.1680 C   0  0  0  0  0  0  0  0  0  0  0  0
  -22.1310  -12.9200   21.9860 N   0  0  0  0  0  0  0  0  0  0  0  0
  -22.3470  -14.7550   20.7400 O   0  0  0  0  0  0  0  0  0  0  0  0
  -22.5280  -12.0670   22.3510 H   0  0  0  0  0  0  0  0  0  0  0  0
  -21.1910  -13.1710   22.2530 H   0  0  0  0  0  0  0  0  0  0  0  0
  -25.3970  -15.5080   20.4740 N   0  0  0  0  0  0  0  0  0  0  0  0
  -24.6140  -16.1300   20.6510 H   0  0  0  0  0  0  0  0  0  0  0  0
  -26.2240  -15.9970   20.1580 H   0  0  0  0  0  0  0  0  0  0  0  0
  -25.7730  -23.5170   22.3280 C   0  0  0  0  0  2  0  0  0  0  0  0
  -23.2930  -24.2830   22.4970 C   0  0  0  0  0  1  0  0  0  0  0  0
  -24.4990  -23.9920   21.5880 C   0  0  0  0  0  2  0  0  0  0  0  0
  -28.7930  -25.4480   18.9160 C   0  0  0  0  0  2  0  0  0  0  0  0
  -28.7210  -26.8480   19.4760 O   0  0  0  0  0  0  0  0  0  0  0  0
  -24.7120  -31.7000   23.0570 C   0  0  0  0  0  0  0  0  0  0  0  0
  -27.5550  -27.6440   19.4960 C   0  0  0  0  0  0  0  0  0  0  0  0
  -23.5790  -30.4300   21.2710 C   0  0  0  0  0  3  0  0  0  0  0  0
  -25.1070  -29.1460   19.6690 C   0  0  0  0  0  0  0  0  0  0  0  0
  -26.0990  -30.9140   21.1210 C   0  0  0  0  0  2  0  0  0  0  0  0
  -26.2570  -29.6290   20.3060 C   0  0  0  0  0  0  0  0  0  0  0  0
  -27.4820  -28.8940   20.2020 C   0  0  0  0  0  3  0  0  0  0  0  0
  -26.3680  -27.2140   18.8630 C   0  0  0  0  0  3  0  0  0  0  0  0
  -25.1670  -27.9470   18.9430 C   0  0  0  0  0  3  0  0  0  0  0  0
  -23.8150  -29.9230   19.8260 C   0  0  0  0  0  2  0  0  0  0  0  0
  -24.8160  -31.0280   21.8730 N   0  0  0  0  0  0  0  0  0  0  0  0
  -23.6180  -31.8510   23.6200 O   0  0  0  0  0  0  0  0  0  0  0  0
  -22.9840  -29.2740   22.1110 C   0  0  0  0  0  0  0  0  0  0  0  0
  -21.6640  -29.0520   21.9890 N   0  0  0  0  0  0  0  0  0  0  0  0
  -23.7100  -28.5790   22.8260 O   0  0  0  0  0  0  0  0  0  0  0  0
  -21.1320  -29.6650   21.3890 H   0  0  0  0  0  0  0  0  0  0  0  0
  -18.3450  -27.6750   22.4390 C   0  0  0  0  0  0  0  0  0  0  0  0
  -20.9060  -27.9880   22.6510 C   0  0  0  0  0  3  0  0  0  0  0  0
  -21.0290  -26.6540   21.8810 C   0  0  0  0  0  2  0  0  0  0  0  0
  -19.8980  -26.4320   20.8730 C   0  0  0  0  0  2  0  0  0  0  0  0
  -18.5370  -26.4410   21.5760 C   0  0  0  0  0  2  0  0  0  0  0  0
  -19.4570  -28.4130   22.9280 C   0  0  0  0  0  0  0  0  0  0  0  0
  -19.2210  -29.5780   23.6910 C   0  0  0  0  0  3  0  0  0  0  0  0
  -17.9090  -30.0020   23.9730 C   0  0  0  0  0  3  0  0  0  0  0  0
  -16.8160  -29.2570   23.5030 C   0  0  0  0  0  3  0  0  0  0  0  0
  -17.0330  -28.0950   22.7420 C   0  0  0  0  0  3  0  0  0  0  0  0
  -25.9580  -32.3350   23.7460 C   0  0  0  0  0  3  0  0  0  0  0  0
  -25.5680  -33.6650   24.2350 N   0  0  0  0  0  0  0  0  0  0  0  0
  -25.8620  -34.8200   23.6200 C   0  0  0  0  0  0  0  0  0  0  0  0
  -26.5600  -34.8750   22.6030 O   0  0  0  0  0  0  0  0  0  0  0  0
  -24.9520  -33.6910   25.0350 H   0  0  0  0  0  0  0  0  0  0  0  0
  -24.0650  -36.5630   23.4270 C   0  0  0  0  0  1  0  0  0  0  0  0
  -25.2940  -36.1130   24.2310 C   0  0  0  0  0  3  0  0  0  0  0  0
  -27.3560  -36.9690   25.2530 C   0  0  0  0  0  1  0  0  0  0  0  0
  -26.2800  -37.2150   24.2960 N   0  0  0  0  0  0  0  0  0  0  0  0
  -25.8260  -38.0890   24.5460 H   0  0  0  0  0  0  0  0  0  0  0  0
  -26.5240  -31.4620   24.9340 C   0  0  1  0  0  0  0  0  0  0  0  0
  -25.4490  -31.0500   25.9670 C   0  0  0  0  0  1  0  0  0  0  0  0
  -27.1910  -30.1710   24.4050 C   0  0  0  0  0  1  0  0  0  0  0  0
  -27.6290  -32.2510   25.6790 C   0  0  0  0  0  1  0  0  0  0  0  0
  1  4  2  0
  1  2  1  0
  2  3  2  0
  3  5  1  0
  3  7  1  0
  4  6  1  0
  5 49  1  0
  6  5  2  0
  8  9  1  0
  8  2  1  0
  9 10  1  0
 11 19  1  0
 12 17  1  0
 13 14  1  0
 13 12  1  0
 15 14  1  0
 15 24  1  0
 15 16  1  0
 17 11  1  0
 17 16  1  0
 18 11  2  0
 19 20  1  0
 19 10  1  0
 21 22  2  0
 22 41  1  0
 23 26  1  0
 23 22  1  0
 24 25  1  0
 24 21  1  0
 25 23  2  0
 26 27  1  0
 27 28  2  0
 29 28  1  0
 30 29  2  0
 31 30  1  0
 31 26  2  0
 32 29  1  0
 32 33  1  0
 33 34  1  0
 34 35  2  0
 36 35  1  0
 36 40  1  0
 37 36  2  0
 38 33  2  0
 38 37  1  0
 39 38  1  0
 41 42  1  0
 42 45  1  0
 42 44  1  0
 43 41  2  0
 46 21  1  0
 46 47  1  0
 48 46  1  0
 51 49  1  0
 51 50  1  0
 52 53  1  0
 52  4  1  0
 53 55  1  0
 54 65  2  0
 55 60  1  0
 56 64  1  0
 56 66  1  0
 57 63  1  0
 57 59  1  0
 58 64  1  0
 59 58  1  0
 60 59  2  0
 61 62  1  0
 61 55  2  0
 62 57  2  0
 63 56  1  0
 64 54  1  0
 66 68  2  0
 67 66  1  0
 69 67  1  0
 70 79  2  0
 70 75  1  0
 71 67  1  0
 71 75  1  0
 72 71  1  0
 73 74  1  0
 73 72  1  0
 74 70  1  0
 75 76  2  0
 76 77  1  0
 78 77  2  0
 79 78  1  0
 80 54  1  0
 80 81  1  0
 80 90  1  0
 81 84  1  0
 82 86  1  0
 82 81  1  0
 83 82  2  0
 86 85  1  0
 86 88  1  0
 88 89  1  0
 88 87  1  0
 90 93  1  1
 90 91  1  0
 92 90  1  0
M  ISO  4  11 100  19 100  52 101  53 101
M  END
>  <TORSDO>  (26) 
F 22

>  <SCORE>  (26) 
-9.789

>  <name>  (26) 
26

>  <ligand_id>  (26) 
26

>  <original_smiles>  (26) 
[H]c1c([H])c([H])c2c(c1[H])C([H])([H])C([H])([H])C([H])([H])C2([H])N([H])C(=O)C1([H])N(C(=O)C([H])(N([H])C(=O)C([H])(N([H])C([H])([H])[H])C([H])([H])[H])C(C([H])([H])[H])(C([H])([H])[H])C([H])([H])[H])C([H])([H])c2c([H])c(OC([H])([H])c3nc(C([H])([H])C([H])([H])C([H])([H])[H])c(F)c(C([H])([H])C([H])([H])C([H])([H])N([H])C(=O)N4C([H])([H])C([H])([H])C([H])([H])C([H])(n5nc(-c6c([H])c([H])c(Oc7c([H])c([H])c(F)c([H])c7F)c([H])c6[H])c(C(=O)N([H])[H])c5N([H])[H])C4([H])[H])c3[H])c([H])c([H])c2C1([H])[H]

>  <smiles>  (26) 
[H]c1c([H])c([H])c2c(c1[H])C([H])([H])C([H])([H])C([H])([H])C2([H])N([H])C(=O)C1([H])N(C(=O)C([H])(N([H])C(=O)C([H])(N([H])C([H])([H])[H])C([H])([H])[H])C(C([H])([H])[H])(C([H])([H])[H])C([H])([H])[H])C([H])([H])c2c([H])c(OC([H])([H])c3nc(C([H])([H])C([H])([H])C([H])([H])[H])c(F)c(C([H])([H])C([H])([H])C([H])([H])N([H])C(=O)N4C([H])([H])C([H])([H])C([H])([H])C([H])(n5nc(-c6c([H])c([H])c(Oc7c([H])c([H])c(F)c([H])c7F)c([H])c6[H])c(C(=O)N([H])[H])c5N([H])[H])C4([H])[H])c3[H])c([H])c([H])c2C1([H])[H]

$$$$
27:0:0
     RDKit          3D

 99108  0  0  1  0  0  0  0  0999 V2000
  -30.4580  -22.2640   25.1960 C   0  0  0  0  0  3  0  0  0  0  0  0
  -28.8840  -22.2830   22.9490 C   0  0  0  0  0  3  0  0  0  0  0  0
  -30.7330  -21.3230   24.1830 C   0  0  0  0  0  0  0  0  0  0  0  0
  -29.9340  -21.3520   23.0180 C   0  0  0  0  0  0  0  0  0  0  0  0
  -29.4150  -23.1880   25.0150 C   0  0  0  0  0  0  0  0  0  0  0  0
  -31.8780  -20.3400   24.3490 C   0  0  0  0  0  1  0  0  0  0  0  0
  -28.6320  -23.1810   23.9190 N   0  0  0  0  0  0  0  0  0  0  0  0
  -29.1850  -24.1760   25.9790 N   0  0  0  0  0  0  0  0  0  0  0  0
  -29.7580  -24.2030   26.8150 H   0  0  0  0  0  0  0  0  0  0  0  0
  -28.6510  -26.5980   25.9880 C   0  0  0  0  0  2  0  0  0  0  0  0
  -26.9580  -24.8890   26.7790 C   0  0  0  0  0  2  0  0  0  0  0  0
  -27.5220  -27.6200   25.7660 C   0  0  0  0  0  2  0  0  0  0  0  0
  -25.8350  -25.9150   26.5930 C   0  0  0  0  0  2  0  0  0  0  0  0
  -28.1240  -25.1630   25.8090 C   0  0  0  0  0  3  0  0  0  0  0  0
  -26.3630  -27.3560   26.7370 C   0  0  0  0  0  3  0  0  0  0  0  0
  -25.2950  -28.2810   26.5130 O   0  0  0  0  0  0  0  0  0  0  0  0
  -26.2510  -30.7230   33.0880 C   0  0  0  0  0  0  0  0  0  0  0  0
  -24.6940  -28.6750   27.6810 C   0  0  0  0  0  0  0  0  0  0  0  0
  -24.0050  -29.8020   32.5990 C   0  0  0  0  0  3  0  0  0  0  0  0
  -23.5010  -29.3620   30.1360 C   0  0  0  0  0  0  0  0  0  0  0  0
  -25.4150  -30.8570   30.7490 C   0  0  0  0  0  2  0  0  0  0  0  0
  -24.7390  -29.9110   29.7830 C   0  0  0  0  0  0  0  0  0  0  0  0
  -25.3370  -29.5750   28.5540 C   0  0  0  0  0  3  0  0  0  0  0  0
  -23.4390  -28.1380   28.0330 C   0  0  0  0  0  3  0  0  0  0  0  0
  -22.8430  -28.4730   29.2660 C   0  0  0  0  0  3  0  0  0  0  0  0
  -22.9330  -29.7780   31.4740 C   0  0  0  0  0  2  0  0  0  0  0  0
  -25.2840  -30.4540   32.1660 N   0  0  0  0  0  0  0  0  0  0  0  0
  -26.0740  -30.4820   34.2900 O   0  0  0  0  0  0  0  0  0  0  0  0
  -24.1980  -28.3630   33.1250 C   0  0  0  0  0  0  0  0  0  0  0  0
  -23.5300  -28.0430   34.2440 N   0  0  0  0  0  0  0  0  0  0  0  0
  -24.9100  -27.5570   32.5190 O   0  0  0  0  0  0  0  0  0  0  0  0
  -22.9720  -28.7620   34.6830 H   0  0  0  0  0  0  0  0  0  0  0  0
  -22.4440  -26.2770   37.2020 C   0  0  0  0  0  0  0  0  0  0  0  0
  -23.5290  -26.7370   34.9010 C   0  0  0  0  0  3  0  0  0  0  0  0
  -22.4320  -25.8210   34.3140 C   0  0  0  0  0  2  0  0  0  0  0  0
  -21.1110  -25.8910   35.0860 C   0  0  0  0  0  2  0  0  0  0  0  0
  -21.3210  -25.4890   36.5480 C   0  0  0  0  0  2  0  0  0  0  0  0
  -23.4720  -26.8770   36.4270 C   0  0  0  0  0  0  0  0  0  0  0  0
  -24.4730  -27.6280   37.0800 C   0  0  0  0  0  3  0  0  0  0  0  0
  -24.4590  -27.7830   38.4790 C   0  0  0  0  0  3  0  0  0  0  0  0
  -23.4480  -27.1760   39.2420 C   0  0  0  0  0  3  0  0  0  0  0  0
  -22.4470  -26.4210   38.6060 C   0  0  0  0  0  3  0  0  0  0  0  0
  -27.6130  -31.3700   32.6820 C   0  0  0  0  0  3  0  0  0  0  0  0
  -28.0040  -32.2880   33.7610 N   0  0  0  0  0  0  0  0  0  0  0  0
  -27.7730  -33.6080   33.7540 C   0  0  0  0  0  0  0  0  0  0  0  0
  -27.2670  -34.1960   32.7950 O   0  0  0  0  0  0  0  0  0  0  0  0
  -28.3630  -31.8660   34.6040 H   0  0  0  0  0  0  0  0  0  0  0  0
  -26.9110  -34.7070   35.8460 C   0  0  0  0  0  1  0  0  0  0  0  0
  -28.1670  -34.4010   35.0140 C   0  0  0  0  0  3  0  0  0  0  0  0
  -30.2240  -35.4440   34.1750 C   0  0  0  0  0  1  0  0  0  0  0  0
  -28.8870  -35.6580   34.7210 N   0  0  0  0  0  0  0  0  0  0  0  0
  -28.9770  -36.2230   35.5620 H   0  0  0  0  0  0  0  0  0  0  0  0
  -28.7500  -30.3100   32.4120 C   0  0  1  0  0  0  0  0  0  0  0  0
  -28.9080  -29.2670   33.5420 C   0  0  0  0  0  1  0  0  0  0  0  0
  -28.4770  -29.5450   31.0950 C   0  0  0  0  0  1  0  0  0  0  0  0
  -30.1070  -31.0300   32.2320 C   0  0  0  0  0  1  0  0  0  0  0  0
  -30.2190  -20.5040   21.7890 C   0  0  0  0  0  2  0  0  0  0  0  0
  -30.9890  -21.3420   20.7550 C   0  0  0  0  0  2  0  0  0  0  0  0
  -30.3740  -21.3600   19.3480 C   0  0  0  0  0  2  0  0  0  0  0  0
  -31.3080  -22.0910   18.3680 C   0  0  0  0  0  2  0  0  0  0  0  0
  -30.6530  -22.4990   17.0450 C   0  0  0  0  0  2  0  0  0  0  0  0
  -29.8560  -24.7100   16.2200 C   0  0  0  0  0  0  0  0  0  0  0  0
  -28.0790  -25.5970   14.7780 C   0  0  0  0  0  2  0  0  0  0  0  0
  -27.9550  -27.1220   14.6860 C   0  0  0  0  0  2  0  0  0  0  0  0
  -27.0840  -27.6590   15.8330 C   0  0  0  0  0  2  0  0  0  0  0  0
  -27.5470  -27.1390   17.2170 C   0  0  0  0  0  3  0  0  0  0  0  0
  -27.7360  -25.6060   17.2100 C   0  0  0  0  0  2  0  0  0  0  0  0
  -28.6210  -25.2370   16.0920 N   0  0  0  0  0  0  0  0  0  0  0  0
  -30.7590  -24.8440   15.3860 O   0  0  0  0  0  0  0  0  0  0  0  0
  -29.8740  -23.7330   17.1370 N   0  0  0  0  0  0  0  0  0  0  0  0
  -29.0600  -23.6980   17.7340 H   0  0  0  0  0  0  0  0  0  0  0  0
  -26.8690  -28.3700   19.3750 C   0  0  0  0  0  0  0  0  0  0  0  0
  -25.6600  -28.5170   20.0010 C   0  0  0  0  0  0  0  0  0  0  0  0
  -24.7190  -27.7780   19.2220 C   0  0  0  0  0  0  0  0  0  0  0  0
  -26.6290  -27.5640   18.2730 N   0  0  0  0  0  0  0  0  0  0  0  0
  -25.3320  -27.1650   18.2190 N   0  0  0  0  0  0  0  0  0  0  0  0
  -23.2600  -27.6620   19.3400 C   0  0  0  0  0  0  0  0  0  0  0  0
  -22.6320  -26.4150   19.5530 C   0  0  0  0  0  3  0  0  0  0  0  0
  -21.2290  -26.3320   19.6820 C   0  0  0  0  0  3  0  0  0  0  0  0
  -20.4390  -27.5040   19.6050 C   0  0  0  0  0  0  0  0  0  0  0  0
  -21.0660  -28.7390   19.3690 C   0  0  0  0  0  3  0  0  0  0  0  0
  -22.4630  -28.8200   19.2350 C   0  0  0  0  0  3  0  0  0  0  0  0
  -19.0670  -27.5160   19.6930 O   0  0  0  0  0  0  0  0  0  0  0  0
  -18.3920  -26.6630   20.5290 C   0  0  0  0  0  0  0  0  0  0  0  0
  -18.6010  -26.6640   21.9250 C   0  0  0  0  0  3  0  0  0  0  0  0
  -17.8370  -25.8180   22.7520 C   0  0  0  0  0  3  0  0  0  0  0  0
  -16.8560  -24.9790   22.1890 C   0  0  0  0  0  0  0  0  0  0  0  0
  -16.6420  -24.9800   20.8000 C   0  0  0  0  0  3  0  0  0  0  0  0
  -17.4060  -25.8220   19.9730 C   0  0  0  0  0  0  0  0  0  0  0  0
  -17.1800  -25.8360   18.6360 F   0  0  0  0  0  0  0  0  0  0  0  0
  -16.1160  -24.1720   22.9840 F   0  0  0  0  0  0  0  0  0  0  0  0
  -25.3710  -29.3720   21.2010 C   0  0  0  0  0  0  0  0  0  0  0  0
  -24.4380  -28.9460   22.0460 N   0  0  0  0  0  0  0  0  0  0  0  0
  -26.0060  -30.4020   21.4200 O   0  0  0  0  0  0  0  0  0  0  0  0
  -23.9270  -28.0920   21.8710 H   0  0  0  0  0  0  0  0  0  0  0  0
  -24.2270  -29.4830   22.8750 H   0  0  0  0  0  0  0  0  0  0  0  0
  -28.1420  -28.8660   19.6380 N   0  0  0  0  0  0  0  0  0  0  0  0
  -28.3290  -29.5040   20.4040 H   0  0  0  0  0  0  0  0  0  0  0  0
  -28.9580  -28.6910   19.0620 H   0  0  0  0  0  0  0  0  0  0  0  0
  2  4  2  0
  2  7  1  0
  3  6  1  0
  3  1  2  0
  4  3  1  0
  5  1  1  0
  5  8  1  0
  7  5  2  0
  8  9  1  0
 12 10  1  0
 12 15  1  0
 13 15  1  0
 13 11  1  0
 14  8  1  0
 14 10  1  0
 14 11  1  0
 15 16  1  0
 16 18  1  0
 17 28  2  0
 18 24  2  0
 18 23  1  0
 19 29  1  0
 20 26  1  0
 21 27  1  0
 22 20  1  0
 22 21  1  0
 23 22  2  0
 24 25  1  0
 25 20  2  0
 26 19  1  0
 27 19  1  0
 27 17  1  0
 29 30  1  0
 30 32  1  0
 31 29  2  0
 33 42  1  0
 34 30  1  0
 34 38  1  0
 35 34  1  0
 35 36  1  0
 36 37  1  0
 37 33  1  0
 38 39  1  0
 38 33  2  0
 39 40  2  0
 40 41  1  0
 42 41  2  0
 43 17  1  0
 43 44  1  0
 44 47  1  0
 45 44  1  0
 45 49  1  0
 46 45  2  0
 49 48  1  0
 50 51  1  0
 51 49  1  0
 51 52  1  0
 53 43  1  0
 53 54  1  1
 55 53  1  0
 56 53  1  0
 57  4  1  0
 58 57  1  0
 59 58  1  0
 60 59  1  0
 61 70  1  0
 61 60  1  0
 62 70  1  0
 63 68  1  0
 64 63  1  0
 64 65  1  0
 66 65  1  0
 66 75  1  0
 67 66  1  0
 68 62  1  0
 68 67  1  0
 69 62  2  0
 70 71  1  0
 72 97  1  0
 72 73  2  0
 73 92  1  0
 74 77  1  0
 74 73  1  0
 75 72  1  0
 76 75  1  0
 76 74  2  0
 77 78  1  0
 78 79  2  0
 80 79  1  0
 80 83  1  0
 81 80  2  0
 82 77  2  0
 82 81  1  0
 83 84  1  0
 84 85  1  0
 85 86  2  0
 87 86  1  0
 87 91  1  0
 88 87  2  0
 89 84  2  0
 89 88  1  0
 90 89  1  0
 92 94  2  0
 92 93  1  0
 93 96  1  0
 95 93  1  0
 97 98  1  0
 99 97  1  0
M  ISO  4  15 101  16 101  62 100  70 100
M  END
>  <TORSDO>  (27) 
F 22

>  <SCORE>  (27) 
6.845

>  <name>  (27) 
27

>  <ligand_id>  (27) 
27

>  <original_smiles>  (27) 
[H]c1nc(N([H])C2([H])C([H])([H])C([H])([H])C([H])(Oc3c([H])c([H])c4c(c3[H])C([H])([H])N(C(=O)C([H])(N([H])C(=O)C([H])(N([H])C([H])([H])[H])C([H])([H])[H])C(C([H])([H])[H])(C([H])([H])[H])C([H])([H])[H])C([H])(C(=O)N([H])C3([H])c5c([H])c([H])c([H])c([H])c5C([H])([H])C([H])([H])C3([H])[H])C4([H])[H])C([H])([H])C2([H])[H])c([H])c(C([H])([H])[H])c1C([H])([H])C([H])([H])C([H])([H])C([H])([H])C([H])([H])N([H])C(=O)N1C([H])([H])C([H])([H])C([H])([H])C([H])(n2nc(-c3c([H])c([H])c(Oc4c([H])c([H])c(F)c([H])c4F)c([H])c3[H])c(C(=O)N([H])[H])c2N([H])[H])C1([H])[H]

>  <smiles>  (27) 
[H]c1nc(N([H])C2([H])C([H])([H])C([H])([H])C([H])(Oc3c([H])c([H])c4c(c3[H])C([H])([H])N(C(=O)C([H])(N([H])C(=O)C([H])(N([H])C([H])([H])[H])C([H])([H])[H])C(C([H])([H])[H])(C([H])([H])[H])C([H])([H])[H])C([H])(C(=O)N([H])C3([H])c5c([H])c([H])c([H])c([H])c5C([H])([H])C([H])([H])C3([H])[H])C4([H])[H])C([H])([H])C2([H])[H])c([H])c(C([H])([H])[H])c1C([H])([H])C([H])([H])C([H])([H])C([H])([H])C([H])([H])N([H])C(=O)N1C([H])([H])C([H])([H])C([H])([H])C([H])(n2nc(-c3c([H])c([H])c(Oc4c([H])c([H])c(F)c([H])c4F)c([H])c3[H])c(C(=O)N([H])[H])c2N([H])[H])C1([H])[H]

$$$$
28:0:0
     RDKit          3D

 96 96  0  0  1  0  0  0  0  0999 V2000
  -26.0760  -23.4540   22.3040 C   0  0  0  0  0  3  0  0  0  0  0  0
  -26.6860  -22.0660   21.8210 C   0  0  0  0  0  0  0  0  0  0  0  0
  -26.4020  -24.9470   22.1160 C   0  0  0  0  0  3  0  0  0  0  0  0
  -27.8790  -21.7080   20.9340 C   0  0  0  0  0  3  0  0  0  0  0  0
  -27.5800  -24.4840   21.2280 C   0  0  0  0  0  0  0  0  0  0  0  0
  -25.9250  -20.8540   22.3290 C   0  0  0  0  0  1  0  0  0  0  0  0
  -28.1800  -23.1500   20.7720 N   0  0  0  0  0  0  0  0  0  0  0  0
  -27.8350  -25.8820   19.1450 C   0  0  0  0  0  1  0  0  0  0  0  0
  -28.3240  -25.6330   20.5770 C   0  0  0  0  0  2  0  0  0  0  0  0
  -25.3880  -26.6840   22.5080 C   0  0  0  0  0 15  0  0  0  0  0  0
  -25.0250  -28.3290   23.4880 N   0  0  0  0  0  2  0  0  0  0  0  0
  -24.9790  -27.9780   24.4320 H   0  0  0  0  0  0  0  0  0  0  0  0
  -25.9250  -28.7750   23.4390 H   0  0  0  0  0  0  0  0  0  0  0  0
  -23.7700  -29.9040   23.5900 C   0  0  0  0  0 15  0  0  0  0  0  0
  -22.6610  -31.3710   21.8710 C   0  0  0  0  0 15  0  0  0  0  0  0
  -23.5340  -31.6020   19.8810 C   0  0  0  0  0 15  0  0  0  0  0  0
  -24.5030  -30.6540   18.5110 O   0  0  0  0  0  1  0  0  0  0  0  0
  -24.8620  -31.6560   22.5840 C   0  0  0  0  0  0  0  0  0  0  0  0
  -25.5810  -29.6570   18.0250 C   0  0  0  0  0  3  0  0  0  0  0  0
  -23.3640  -29.2180   21.0560 C   0  0  0  0  0  3  0  0  0  0  0  0
  -24.1520  -28.4680   19.4180 C   0  0  1  0  0  0  0  0  0  0  0  0
  -25.7640  -30.3260   20.7700 C   0  0  0  0  0  2  0  0  0  0  0  0
  -25.4710  -29.1020   19.8970 C   0  0  0  0  0  3  0  0  0  0  0  0
  -26.4370  -29.1760   18.9710 C   0  0  0  0  0  2  0  0  0  0  0  0
  -25.0420  -28.4490   17.4340 C   0  0  0  0  0  2  0  0  0  0  0  0
  -24.0770  -27.8520   18.2050 C   0  0  0  0  0  2  0  0  0  0  0  0
  -22.8460  -29.0130   19.6980 C   0  0  0  0  0  2  0  0  0  0  0  0
  -24.7220  -30.4500   21.6260 N   0  0  0  0  0  2  0  0  0  0  0  0
  -24.0050  -32.0980   23.4100 O   0  0  0  0  0  0  0  0  0  0  0  0
  -21.9350  -28.6160   21.6790 C   0  0  0  0  0  0  0  0  0  0  0  0
  -20.7040  -29.1210   21.9440 N   0  0  0  0  0  0  0  0  0  0  0  0
  -22.2290  -27.6890   22.3720 O   0  0  0  0  0  0  0  0  0  0  0  0
  -20.3740  -29.9870   21.5430 H   0  0  0  0  0  0  0  0  0  0  0  0
  -17.4370  -28.3430   23.1740 C   0  0  0  0  0  0  0  0  0  0  0  0
  -19.9580  -28.5000   23.0470 C   0  0  0  0  0  3  0  0  0  0  0  0
  -19.8220  -26.9650   22.8080 C   0  0  0  0  0  2  0  0  0  0  0  0
  -18.7660  -26.6990   21.7780 C   0  0  0  0  0  2  0  0  0  0  0  0
  -17.4570  -26.9830   22.4870 C   0  0  0  0  0  2  0  0  0  0  0  0
  -18.6090  -29.1120   23.3790 C   0  0  0  0  0  0  0  0  0  0  0  0
  -18.5100  -30.3900   23.9700 C   0  0  0  0  0  3  0  0  0  0  0  0
  -17.2500  -30.8880   24.3610 C   0  0  0  0  0  3  0  0  0  0  0  0
  -16.0960  -30.1040   24.1820 C   0  0  0  0  0  3  0  0  0  0  0  0
  -16.1930  -28.8320   23.5980 C   0  0  0  0  0  3  0  0  0  0  0  0
  -26.0520  -32.5540   22.9090 C   0  0  0  0  0  3  0  0  0  0  0  0
  -25.6720  -33.8110   23.6760 N   0  0  0  0  0  0  0  0  0  0  0  0
  -25.6960  -35.0880   23.2610 C   0  0  0  0  0  0  0  0  0  0  0  0
  -26.0560  -35.3840   22.1240 O   0  0  0  0  0  0  0  0  0  0  0  0
  -25.3030  -33.6360   24.5980 H   0  0  0  0  0  0  0  0  0  0  0  0
  -23.9590  -36.8370   23.9070 C   0  0  0  0  0  1  0  0  0  0  0  0
  -25.3260  -36.2230   24.2600 C   0  0  0  0  0  3  0  0  0  0  0  0
  -27.5990  -36.9100   24.9170 C   0  0  0  0  0  1  0  0  0  0  0  0
  -26.3320  -37.3120   24.3160 N   0  0  0  0  0  0  0  0  0  0  0  0
  -25.9730  -38.1100   24.8320 H   0  0  0  0  0  0  0  0  0  0  0  0
  -26.8780  -31.6500   23.8970 C   0  0  1  0  0  0  0  0  0  0  0  0
  -26.1670  -31.1160   25.1910 C   0  0  0  0  0  1  0  0  0  0  0  0
  -27.4700  -30.4270   23.1680 C   0  0  0  0  0  1  0  0  0  0  0  0
  -28.0710  -32.4830   24.3700 C   0  0  0  0  0  1  0  0  0  0  0  0
  -28.9260  -20.0840   20.2650 C   0  0  0  0  0 15  0  0  0  0  0  0
  -30.2680  -16.9120   19.7070 C   0  0  0  0  0  0  0  0  0  0  0  0
  -30.9080  -14.2860   18.9280 C   0  0  0  0  0  2  0  0  0  0  0  0
  -30.1130  -13.4720   17.8330 C   0  0  0  0  0  2  0  0  0  0  0  0
  -28.7900  -12.9290   18.3860 C   0  0  0  0  0  2  0  0  0  0  0  0
  -28.1710  -13.9940   19.3090 C   0  0  0  0  0  3  0  0  0  0  0  0
  -29.1250  -14.5690   20.3770 C   0  0  0  0  0  2  0  0  0  0  0  0
  -30.0850  -15.4170   19.6610 N   0  0  0  0  0  0  0  0  0  0  0  0
  -31.4620  -17.0040   19.2990 O   0  0  0  0  0  0  0  0  0  0  0  0
  -29.2480  -18.1860   20.0610 N   0  0  0  0  0  2  0  0  0  0  0  0
  -28.3720  -17.7460   20.3100 H   0  0  0  0  0  0  0  0  0  0  0  0
  -25.9680  -14.4460   20.4140 C   0  0  0  0  0  0  0  0  0  0  0  0
  -24.9680  -13.6350   20.8590 C   0  0  0  0  0  0  0  0  0  0  0  0
  -25.4020  -12.2950   20.6140 C   0  0  0  0  0  0  0  0  0  0  0  0
  -26.9330  -13.5960   19.9190 N   0  0  0  0  0  0  0  0  0  0  0  0
  -26.6270  -12.2890   20.1010 N   0  0  0  0  0  0  0  0  0  0  0  0
  -24.6910  -11.0240   20.7810 C   0  0  0  0  0  0  0  0  0  0  0  0
  -25.0780  -10.0820   21.7600 C   0  0  0  0  0  3  0  0  0  0  0  0
  -24.3570   -8.8770   21.9110 C   0  0  0  0  0  3  0  0  0  0  0  0
  -23.2400   -8.6090   21.0860 C   0  0  0  0  0  0  0  0  0  0  0  0
  -22.8770   -9.5410   20.0970 C   0  0  0  0  0  3  0  0  0  0  0  0
  -23.5970  -10.7360   19.9430 C   0  0  0  0  0  3  0  0  0  0  0  0
  -22.4960   -7.4560   21.1460 O   0  0  0  0  0  0  0  0  0  0  0  0
  -22.1150   -6.9090   22.3450 C   0  0  0  0  0  0  0  0  0  0  0  0
  -21.3510   -7.6330   23.2860 C   0  0  0  0  0  3  0  0  0  0  0  0
  -20.9200   -7.0080   24.4720 C   0  0  0  0  0  3  0  0  0  0  0  0
  -21.2440   -5.6600   24.7160 C   0  0  0  0  0  0  0  0  0  0  0  0
  -22.0000   -4.9360   23.7780 C   0  0  0  0  0  3  0  0  0  0  0  0
  -22.4310   -5.5590   22.5940 C   0  0  0  0  0  0  0  0  0  0  0  0
  -23.1420   -4.8500   21.6830 F   0  0  0  0  0  0  0  0  0  0  0  0
  -20.8230   -5.0570   25.8530 F   0  0  0  0  0  0  0  0  0  0  0  0
  -23.6420  -14.0920   21.3840 C   0  0  0  0  0  0  0  0  0  0  0  0
  -23.0620  -13.3390   22.3110 N   0  0  0  0  0  0  0  0  0  0  0  0
  -23.1400  -15.1500   21.0080 O   0  0  0  0  0  0  0  0  0  0  0  0
  -23.4930  -12.4850   22.6320 H   0  0  0  0  0  0  0  0  0  0  0  0
  -22.1770  -13.6220   22.7070 H   0  0  0  0  0  0  0  0  0  0  0  0
  -26.1360  -15.8280   20.3620 N   0  0  0  0  0  0  0  0  0  0  0  0
  -25.3850  -16.4620   20.6120 H   0  0  0  0  0  0  0  0  0  0  0  0
  -26.8760  -16.2790   19.8400 H   0  0  0  0  0  0  0  0  0  0  0  0
  2  1  2  0
  2  6  1  0
  3  1  1  0
  4  2  1  0
  5  3  2  0
  7  4  2  0
  7  5  1  0
  8  9  1  0
  9  5  1  0
 11 12  1  0
 13 11  1  0
 18 29  2  0
 19 17  1  0
 19 24  1  0
 20 30  1  0
 21 26  1  1
 21 27  1  0
 21 23  1  0
 21 20  1  0
 22 28  1  0
 23 22  1  0
 24 23  1  0
 25 19  1  0
 25 26  1  0
 27 20  1  0
 28 18  1  0
 30 31  1  0
 30 32  2  0
 33 31  1  0
 34 39  2  0
 34 43  1  0
 35 31  1  0
 35 39  1  0
 36 35  1  0
 37 38  1  0
 37 36  1  0
 38 34  1  0
 39 40  1  0
 40 41  2  0
 42 41  1  0
 43 42  2  0
 44 18  1  0
 44 45  1  0
 44 54  1  0
 45 48  1  0
 46 45  1  0
 46 50  1  0
 47 46  2  0
 50 49  1  0
 50 52  1  0
 52 53  1  0
 52 51  1  0
 54 57  1  1
 54 55  1  0
 56 54  1  0
 59 67  1  0
 60 65  1  0
 61 62  1  0
 61 60  1  0
 63 62  1  0
 63 72  1  0
 63 64  1  0
 65 59  1  0
 65 64  1  0
 66 59  2  0
 67 68  1  0
 69 70  2  0
 70 89  1  0
 71 74  1  0
 71 70  1  0
 72 73  1  0
 72 69  1  0
 73 71  2  0
 74 75  1  0
 75 76  2  0
 77 80  1  0
 77 76  1  0
 78 77  2  0
 79 78  1  0
 79 74  2  0
 80 81  1  0
 81 86  2  0
 81 82  1  0
 82 83  2  0
 83 84  1  0
 84 88  1  0
 85 84  2  0
 86 85  1  0
 87 86  1  0
 89 90  1  0
 90 92  1  0
 90 93  1  0
 91 89  2  0
 94 69  1  0
 94 95  1  0
 96 94  1  0
M  ISO  4  16 101  17 101  59 100  67 100
M  END
>  <TORSDO>  (28) 
F 23

>  <SCORE>  (28) 
0.245

>  <name>  (28) 
28

>  <ligand_id>  (28) 
28

>  <original_smiles>  (28) 
[H]c1c([H])c([H])c2c(c1[H])C([H])([H])C([H])([H])C([H])([H])C2([H])N([H])C(=O)C1([H])N(C(=O)C([H])(N([H])C(=O)C([H])(N([H])C([H])([H])[H])C([H])([H])[H])C(C([H])([H])[H])(C([H])([H])[H])C([H])([H])[H])C([H])([H])c2c([H])c(OC([H])([H])C([H])([H])C([H])([H])[N+]([H])([H])C([H])([H])c3c(C([H])([H])C([H])([H])[H])nc(C([H])([H])N([H])C(=O)N4C([H])([H])C([H])([H])C([H])([H])C([H])(n5nc(-c6c([H])c([H])c(Oc7c([H])c([H])c(F)c([H])c7F)c([H])c6[H])c(C(=O)N([H])[H])c5N([H])[H])C4([H])[H])c(C([H])([H])[H])c3[H])c([H])c([H])c2C1([H])[H]

>  <smiles>  (28) 
[H]c1c([H])c([H])c2c(c1[H])C([H])([H])C([H])([H])C([H])([H])C2([H])N([H])C(=O)C1([H])N(C(=O)C([H])(N([H])C(=O)C([H])(N([H])C([H])([H])[H])C([H])([H])[H])C(C([H])([H])[H])(C([H])([H])[H])C([H])([H])[H])C([H])([H])c2c([H])c(OC([H])([H])C([H])([H])C([H])([H])[N+]([H])([H])C([H])([H])c3c(C([H])([H])C([H])([H])[H])nc(C([H])([H])N([H])C(=O)N4C([H])([H])C([H])([H])C([H])([H])C([H])(n5nc(-c6c([H])c([H])c(Oc7c([H])c([H])c(F)c([H])c7F)c([H])c6[H])c(C(=O)N([H])[H])c5N([H])[H])C4([H])[H])c(C([H])([H])[H])c3[H])c([H])c([H])c2C1([H])[H]

$$$$
29:0:0
     RDKit          3D

 90 98  0  0  1  0  0  0  0  0999 V2000
  -28.8760  -22.0500   18.9540 C   0  0  0  0  0  3  0  0  0  0  0  0
  -29.2710  -20.6250   18.9980 C   0  0  0  0  0  0  0  0  0  0  0  0
  -29.7400  -19.9090   20.1770 C   0  0  0  0  0  0  0  0  0  0  0  0
  -28.8960  -22.9970   20.0510 C   0  0  0  0  0  0  0  0  0  0  0  0
  -29.7170  -20.9190   21.2380 C   0  0  0  0  0  0  0  0  0  0  0  0
  -30.2120  -20.5090   22.6110 C   0  0  0  0  0  1  0  0  0  0  0  0
  -29.3130  -22.2900   21.1830 N   0  0  0  0  0  0  0  0  0  0  0  0
  -30.4310  -20.1260   16.8020 C   0  0  0  0  0  1  0  0  0  0  0  0
  -29.2040  -19.8660   17.6830 C   0  0  0  0  0  2  0  0  0  0  0  0
  -30.5190  -18.3420   20.2020 C   0  0  0  0  0  2  0  0  0  0  0  0
  -30.8700  -15.4800   20.2190 C   0  0  0  0  0  0  0  0  0  0  0  0
  -30.8590  -13.0180   19.4320 C   0  0  0  0  0  2  0  0  0  0  0  0
  -29.9410  -12.7700   18.2090 C   0  0  0  0  0  2  0  0  0  0  0  0
  -28.4940  -12.5040   18.6590 C   0  0  0  0  0  2  0  0  0  0  0  0
  -28.0310  -13.5010   19.7500 C   0  0  0  0  0  3  0  0  0  0  0  0
  -29.0770  -13.6990   20.8680 C   0  0  0  0  0  2  0  0  0  0  0  0
  -30.3040  -14.1800   20.2140 N   0  0  0  0  0  0  0  0  0  0  0  0
  -32.0890  -15.4850   20.0050 O   0  0  0  0  0  0  0  0  0  0  0  0
  -30.1100  -16.7440   20.2610 N   0  0  0  0  0  0  0  0  0  0  0  0
  -29.1200  -16.5880   20.3780 H   0  0  0  0  0  0  0  0  0  0  0  0
  -25.6730  -14.0560   20.5490 C   0  0  0  0  0  0  0  0  0  0  0  0
  -24.6130  -13.2760   20.9130 C   0  0  0  0  0  0  0  0  0  0  0  0
  -25.0720  -11.9240   20.8450 C   0  0  0  0  0  0  0  0  0  0  0  0
  -26.7090  -13.1820   20.2710 N   0  0  0  0  0  0  0  0  0  0  0  0
  -26.3600  -11.8920   20.5170 N   0  0  0  0  0  0  0  0  0  0  0  0
  -24.3410  -10.6610   21.0120 C   0  0  0  0  0  0  0  0  0  0  0  0
  -24.7370   -9.6990   21.9660 C   0  0  0  0  0  3  0  0  0  0  0  0
  -24.0030   -8.5020   22.1230 C   0  0  0  0  0  3  0  0  0  0  0  0
  -22.8600   -8.2610   21.3250 C   0  0  0  0  0  0  0  0  0  0  0  0
  -22.4830   -9.2130   20.3610 C   0  0  0  0  0  3  0  0  0  0  0  0
  -23.2170  -10.4000   20.2010 C   0  0  0  0  0  3  0  0  0  0  0  0
  -22.1010   -7.1170   21.3890 O   0  0  0  0  0  0  0  0  0  0  0  0
  -21.9230   -6.4380   22.5680 C   0  0  0  0  0  0  0  0  0  0  0  0
  -21.3360   -7.0470   23.6980 C   0  0  0  0  0  3  0  0  0  0  0  0
  -21.1070   -6.2920   24.8660 C   0  0  0  0  0  3  0  0  0  0  0  0
  -21.4550   -4.9300   24.9030 C   0  0  0  0  0  0  0  0  0  0  0  0
  -22.0350   -4.3190   23.7770 C   0  0  0  0  0  3  0  0  0  0  0  0
  -22.2640   -5.0720   22.6110 C   0  0  0  0  0  0  0  0  0  0  0  0
  -22.8040   -4.4730   21.5220 F   0  0  0  0  0  0  0  0  0  0  0  0
  -21.2300   -4.2020   26.0230 F   0  0  0  0  0  0  0  0  0  0  0  0
  -23.2200  -13.7530   21.2060 C   0  0  0  0  0  0  0  0  0  0  0  0
  -22.5030  -13.0510   22.0760 N   0  0  0  0  0  0  0  0  0  0  0  0
  -22.7790  -14.7850   20.7010 O   0  0  0  0  0  0  0  0  0  0  0  0
  -22.8740  -12.2170   22.5050 H   0  0  0  0  0  0  0  0  0  0  0  0
  -21.5690  -13.3520   22.3160 H   0  0  0  0  0  0  0  0  0  0  0  0
  -25.8380  -15.4310   20.4000 N   0  0  0  0  0  0  0  0  0  0  0  0
  -25.0700  -16.0800   20.5330 H   0  0  0  0  0  0  0  0  0  0  0  0
  -26.6700  -15.8740   20.0370 H   0  0  0  0  0  0  0  0  0  0  0  0
  -28.0820  -24.5380   20.0680 C   0  0  0  0  0  2  0  0  0  0  0  0
  -28.4900  -26.1140   20.1640 O   0  0  0  0  0  0  0  0  0  0  0  0
  -24.8980  -31.9110   23.3680 C   0  0  0  0  0  0  0  0  0  0  0  0
  -27.4950  -27.2190   20.1420 C   0  0  0  0  0  0  0  0  0  0  0  0
  -23.7280  -30.6070   21.6420 C   0  0  0  0  0  3  0  0  0  0  0  0
  -25.1980  -29.0860   20.1610 C   0  0  0  0  0  0  0  0  0  0  0  0
  -26.2970  -30.8280   21.5460 C   0  0  0  0  0  2  0  0  0  0  0  0
  -26.3760  -29.4580   20.8180 C   0  0  0  0  0  0  0  0  0  0  0  0
  -27.5220  -28.5460   20.7880 C   0  0  0  0  0  3  0  0  0  0  0  0
  -26.2870  -26.9990   19.4400 C   0  0  0  0  0  3  0  0  0  0  0  0
  -25.1770  -27.8760   19.4520 C   0  0  0  0  0  3  0  0  0  0  0  0
  -23.9780  -30.0000   20.2350 C   0  0  0  0  0  2  0  0  0  0  0  0
  -24.9940  -31.1380   22.2400 N   0  0  0  0  0  0  0  0  0  0  0  0
  -23.8000  -32.1740   23.8870 O   0  0  0  0  0  0  0  0  0  0  0  0
  -23.0190  -29.5600   22.5400 C   0  0  0  0  0  0  0  0  0  0  0  0
  -21.6960  -29.3850   22.3650 N   0  0  0  0  0  0  0  0  0  0  0  0
  -23.6680  -28.9070   23.3620 O   0  0  0  0  0  0  0  0  0  0  0  0
  -21.2270  -29.9620   21.6830 H   0  0  0  0  0  0  0  0  0  0  0  0
  -18.3160  -28.1130   22.7080 C   0  0  0  0  0  0  0  0  0  0  0  0
  -20.8610  -28.4070   23.0710 C   0  0  0  0  0  3  0  0  0  0  0  0
  -21.0050  -26.9990   22.4470 C   0  0  0  0  0  2  0  0  0  0  0  0
  -19.9440  -26.6980   21.3830 C   0  0  0  0  0  2  0  0  0  0  0  0
  -18.5390  -26.7960   21.9840 C   0  0  0  0  0  2  0  0  0  0  0  0
  -19.4060  -28.8770   23.2040 C   0  0  0  0  0  0  0  0  0  0  0  0
  -19.1430  -30.1080   23.8420 C   0  0  0  0  0  3  0  0  0  0  0  0
  -17.8230  -30.5780   23.9860 C   0  0  0  0  0  3  0  0  0  0  0  0
  -16.7490  -29.8110   23.5040 C   0  0  0  0  0  3  0  0  0  0  0  0
  -16.9950  -28.5800   22.8720 C   0  0  0  0  0  3  0  0  0  0  0  0
  -26.1600  -32.5160   24.0540 C   0  0  0  0  0  3  0  0  0  0  0  0
  -26.6240  -31.7020   25.3240 C   0  0  1  0  0  0  0  0  0  0  0  0
  -25.4930  -31.4500   26.3500 C   0  0  0  0  0  1  0  0  0  0  0  0
  -27.2020  -30.3280   24.9200 C   0  0  0  0  0  1  0  0  0  0  0  0
  -27.7630  -32.4620   26.0450 C   0  0  0  0  0  1  0  0  0  0  0  0
  -25.8480  -33.9080   24.4270 N   0  0  0  0  0  0  0  0  0  0  0  0
  -26.1810  -34.9880   23.7100 C   0  0  0  0  0  0  0  0  0  0  0  0
  -26.8460  -34.9190   22.6730 O   0  0  0  0  0  0  0  0  0  0  0  0
  -25.2560  -34.0330   25.2350 H   0  0  0  0  0  0  0  0  0  0  0  0
  -24.4460  -36.7950   23.4500 C   0  0  0  0  0  1  0  0  0  0  0  0
  -25.7030  -36.3630   24.2210 C   0  0  0  0  0  3  0  0  0  0  0  0
  -27.8490  -37.2330   25.0440 C   0  0  0  0  0  1  0  0  0  0  0  0
  -26.7340  -37.4200   24.1200 N   0  0  0  0  0  0  0  0  0  0  0  0
  -26.3280  -38.3360   24.2940 H   0  0  0  0  0  0  0  0  0  0  0  0
  1  2  2  0
  1  4  1  0
  2  3  1  0
  3 10  1  0
  3  5  2  0
  4 49  1  0
  4  7  2  0
  5  6  1  0
  7  5  1  0
  8  9  1  0
  9  2  1  0
 10 19  1  0
 11 19  1  0
 12 17  1  0
 13 14  1  0
 13 12  1  0
 15 14  1  0
 15 24  1  0
 15 16  1  0
 17 11  1  0
 17 16  1  0
 18 11  2  0
 19 20  1  0
 21 22  2  0
 22 41  1  0
 23 22  1  0
 23 26  1  0
 24 25  1  0
 24 21  1  0
 25 23  2  0
 26 27  1  0
 27 28  2  0
 29 32  1  0
 29 28  1  0
 30 29  2  0
 31 30  1  0
 31 26  2  0
 32 33  1  0
 33 38  2  0
 33 34  1  0
 34 35  2  0
 35 36  1  0
 36 40  1  0
 37 36  2  0
 38 37  1  0
 39 38  1  0
 41 42  1  0
 42 45  1  0
 42 44  1  0
 43 41  2  0
 46 47  1  0
 46 21  1  0
 48 46  1  0
 49 50  1  0
 51 62  2  0
 52 50  1  0
 52 57  1  0
 53 61  1  0
 53 63  1  0
 54 60  1  0
 54 56  1  0
 55 61  1  0
 56 55  1  0
 57 56  2  0
 58 59  1  0
 58 52  2  0
 59 54  2  0
 60 53  1  0
 61 51  1  0
 63 65  2  0
 64 63  1  0
 66 64  1  0
 67 76  2  0
 67 72  1  0
 68 64  1  0
 68 72  1  0
 69 68  1  0
 70 71  1  0
 70 69  1  0
 71 67  1  0
 72 73  2  0
 73 74  1  0
 75 74  2  0
 76 75  1  0
 77 51  1  0
 77 82  1  0
 77 78  1  0
 78 81  1  1
 78 79  1  0
 80 78  1  0
 82 85  1  0
 83 87  1  0
 83 82  1  0
 84 83  2  0
 87 86  1  0
 89 87  1  0
 89 90  1  0
 89 88  1  0
M  ISO  4  11 100  19 100  49 101  50 101
M  END
>  <TORSDO>  (29) 
F 19

>  <SCORE>  (29) 
-14.547

>  <name>  (29) 
29

>  <ligand_id>  (29) 
29

>  <original_smiles>  (29) 
[H]c1c([H])c([H])c2c(c1[H])C([H])([H])C([H])([H])C([H])([H])C2([H])N([H])C(=O)C1([H])N(C(=O)C([H])(N([H])C(=O)C([H])(N([H])C([H])([H])[H])C([H])([H])[H])C(C([H])([H])[H])(C([H])([H])[H])C([H])([H])[H])C([H])([H])c2c([H])c(OC([H])([H])c3nc(C([H])([H])[H])c(C([H])([H])N([H])C(=O)N4C([H])([H])C([H])([H])C([H])([H])C([H])(n5nc(-c6c([H])c([H])c(Oc7c([H])c([H])c(F)c([H])c7F)c([H])c6[H])c(C(=O)N([H])[H])c5N([H])[H])C4([H])[H])c(C([H])([H])C([H])([H])[H])c3[H])c([H])c([H])c2C1([H])[H]

>  <smiles>  (29) 
[H]c1c([H])c([H])c2c(c1[H])C([H])([H])C([H])([H])C([H])([H])C2([H])N([H])C(=O)C1([H])N(C(=O)C([H])(N([H])C(=O)C([H])(N([H])C([H])([H])[H])C([H])([H])[H])C(C([H])([H])[H])(C([H])([H])[H])C([H])([H])[H])C([H])([H])c2c([H])c(OC([H])([H])c3nc(C([H])([H])[H])c(C([H])([H])N([H])C(=O)N4C([H])([H])C([H])([H])C([H])([H])C([H])(n5nc(-c6c([H])c([H])c(Oc7c([H])c([H])c(F)c([H])c7F)c([H])c6[H])c(C(=O)N([H])[H])c5N([H])[H])C4([H])[H])c(C([H])([H])C([H])([H])[H])c3[H])c([H])c([H])c2C1([H])[H]

$$$$
30:0:0
     RDKit          3D

 93101  0  0  1  0  0  0  0  0999 V2000
  -30.2050  -19.6290   20.9400 C   0  0  0  0  0  3  0  0  0  0  0  0
  -30.0880  -21.0290   21.0110 C   0  0  0  0  0  3  0  0  0  0  0  0
  -31.1940  -21.0080   23.1750 C   0  0  0  0  0  3  0  0  0  0  0  0
  -30.8170  -18.9020   21.9830 C   0  0  0  0  0  0  0  0  0  0  0  0
  -31.3190  -19.6030   23.1110 C   0  0  0  0  0  0  0  0  0  0  0  0
  -30.5560  -21.7280   22.1450 C   0  0  0  0  0  0  0  0  0  0  0  0
  -31.9530  -18.8820   24.2920 C   0  0  0  0  0  1  0  0  0  0  0  0
  -30.3890  -23.1130   22.2910 N   0  0  0  0  0  0  0  0  0  0  0  0
  -30.4660  -23.4460   23.2500 H   0  0  0  0  0  0  0  0  0  0  0  0
  -29.3220  -23.7470   21.5180 C   0  0  0  0  0  2  0  0  0  0  0  0
  -29.7370  -25.1160   20.9600 C   0  0  0  0  0  2  0  0  0  0  0  0
  -28.8030  -25.5780   19.8280 C   0  0  0  0  0  2  0  0  0  0  0  0
  -28.7610  -27.0040   19.7640 O   0  0  0  0  0  0  0  0  0  0  0  0
  -24.9540  -31.7080   23.4830 C   0  0  0  0  0  0  0  0  0  0  0  0
  -27.5530  -27.6650   19.8710 C   0  0  0  0  0  0  0  0  0  0  0  0
  -23.7320  -30.5400   21.6780 C   0  0  0  0  0  3  0  0  0  0  0  0
  -25.1670  -29.1750   20.0760 C   0  0  0  0  0  0  0  0  0  0  0  0
  -26.2600  -30.8920   21.5270 C   0  0  0  0  0  2  0  0  0  0  0  0
  -26.3280  -29.6080   20.7270 C   0  0  0  0  0  0  0  0  0  0  0  0
  -27.5200  -28.8590   20.6250 C   0  0  0  0  0  3  0  0  0  0  0  0
  -26.3710  -27.2480   19.2130 C   0  0  0  0  0  3  0  0  0  0  0  0
  -25.1830  -27.9940   19.3170 C   0  0  0  0  0  3  0  0  0  0  0  0
  -23.9330  -30.0350   20.2240 C   0  0  0  0  0  2  0  0  0  0  0  0
  -25.0010  -31.0530   22.2900 N   0  0  0  0  0  0  0  0  0  0  0  0
  -23.8750  -31.9230   24.0530 O   0  0  0  0  0  0  0  0  0  0  0  0
  -23.0660  -29.4130   22.4990 C   0  0  0  0  0  0  0  0  0  0  0  0
  -21.7530  -29.2190   22.2950 N   0  0  0  0  0  0  0  0  0  0  0  0
  -23.7290  -28.7210   23.2760 O   0  0  0  0  0  0  0  0  0  0  0  0
  -21.2780  -29.8320   21.6470 H   0  0  0  0  0  0  0  0  0  0  0  0
  -18.4130  -27.8580   22.4350 C   0  0  0  0  0  0  0  0  0  0  0  0
  -20.9260  -28.1940   22.9300 C   0  0  0  0  0  3  0  0  0  0  0  0
  -21.1390  -26.8160   22.2620 C   0  0  0  0  0  2  0  0  0  0  0  0
  -20.1340  -26.5270   21.1430 C   0  0  0  0  0  2  0  0  0  0  0  0
  -18.7010  -26.5710   21.6830 C   0  0  0  0  0  2  0  0  0  0  0  0
  -19.4590  -28.6290   23.0070 C   0  0  0  0  0  0  0  0  0  0  0  0
  -19.1380  -29.8370   23.6630 C   0  0  0  0  0  3  0  0  0  0  0  0
  -17.8030  -30.2750   23.7570 C   0  0  0  0  0  3  0  0  0  0  0  0
  -16.7700  -29.4980   23.2050 C   0  0  0  0  0  3  0  0  0  0  0  0
  -17.0750  -28.2930   22.5490 C   0  0  0  0  0  3  0  0  0  0  0  0
  -26.2480  -32.2380   24.1780 C   0  0  0  0  0  3  0  0  0  0  0  0
  -25.9680  -33.5960   24.6580 N   0  0  0  0  0  0  0  0  0  0  0  0
  -26.3750  -34.7160   24.0460 C   0  0  0  0  0  0  0  0  0  0  0  0
  -27.0960  -34.7090   23.0440 O   0  0  0  0  0  0  0  0  0  0  0  0
  -25.3390  -33.6790   25.4430 H   0  0  0  0  0  0  0  0  0  0  0  0
  -24.7290  -36.6020   23.8170 C   0  0  0  0  0  1  0  0  0  0  0  0
  -25.9070  -36.0580   24.6400 C   0  0  0  0  0  3  0  0  0  0  0  0
  -28.0110  -36.7580   25.6930 C   0  0  0  0  0  1  0  0  0  0  0  0
  -26.9770  -37.0760   24.7120 N   0  0  0  0  0  0  0  0  0  0  0  0
  -26.5930  -37.9880   24.9410 H   0  0  0  0  0  0  0  0  0  0  0  0
  -26.7390  -31.3170   25.3600 C   0  0  1  0  0  0  0  0  0  0  0  0
  -25.6380  -30.9990   26.3980 C   0  0  0  0  0  1  0  0  0  0  0  0
  -27.2770  -29.9740   24.8150 C   0  0  0  0  0  1  0  0  0  0  0  0
  -27.9140  -31.9970   26.1010 C   0  0  0  0  0  1  0  0  0  0  0  0
  -30.8450  -17.3820   21.8890 C   0  0  0  0  0  2  0  0  0  0  0  0
  -31.9160  -16.7980   20.9440 C   0  0  0  0  0  2  0  0  0  0  0  0
  -32.2610  -14.4640   20.1140 C   0  0  0  0  0  0  0  0  0  0  0  0
  -31.9010  -12.2110   19.1790 C   0  0  0  0  0  2  0  0  0  0  0  0
  -30.9140  -12.2550   17.9970 C   0  0  0  0  0  2  0  0  0  0  0  0
  -29.4500  -12.2160   18.4810 C   0  0  0  0  0  2  0  0  0  0  0  0
  -29.1640  -13.2230   19.6240 C   0  0  0  0  0  3  0  0  0  0  0  0
  -30.2420  -13.0940   20.7240 C   0  0  0  0  0  2  0  0  0  0  0  0
  -31.5690  -13.2980   20.1050 N   0  0  0  0  0  0  0  0  0  0  0  0
  -33.2390  -14.6980   19.3940 O   0  0  0  0  0  0  0  0  0  0  0  0
  -31.7750  -15.3530   20.9790 N   0  0  0  0  0  0  0  0  0  0  0  0
  -31.0410  -14.9980   21.5740 H   0  0  0  0  0  0  0  0  0  0  0  0
  -26.8890  -14.0130   20.5540 C   0  0  0  0  0  0  0  0  0  0  0  0
  -25.7670  -13.3200   20.9320 C   0  0  0  0  0  0  0  0  0  0  0  0
  -26.0730  -11.9390   20.7410 C   0  0  0  0  0  0  0  0  0  0  0  0
  -27.8160  -13.0530   20.1680 N   0  0  0  0  0  0  0  0  0  0  0  0
  -27.3270  -11.7970   20.3340 N   0  0  0  0  0  0  0  0  0  0  0  0
  -25.2250  -10.7470   20.8690 C   0  0  0  0  0  0  0  0  0  0  0  0
  -25.5750   -9.6870   21.7310 C   0  0  0  0  0  3  0  0  0  0  0  0
  -24.7410   -8.5550   21.8520 C   0  0  0  0  0  3  0  0  0  0  0  0
  -23.5390   -8.4800   21.1120 C   0  0  0  0  0  0  0  0  0  0  0  0
  -23.2040   -9.5280   20.2380 C   0  0  0  0  0  3  0  0  0  0  0  0
  -24.0390  -10.6520   20.1140 C   0  0  0  0  0  3  0  0  0  0  0  0
  -22.6770   -7.4090   21.1470 O   0  0  0  0  0  0  0  0  0  0  0  0
  -22.4610   -6.6960   22.2980 C   0  0  0  0  0  0  0  0  0  0  0  0
  -21.9780   -7.3080   23.4760 C   0  0  0  0  0  3  0  0  0  0  0  0
  -21.7050   -6.5250   24.6140 C   0  0  0  0  0  3  0  0  0  0  0  0
  -21.9040   -5.1320   24.5760 C   0  0  0  0  0  0  0  0  0  0  0  0
  -22.3790   -4.5200   23.4030 C   0  0  0  0  0  3  0  0  0  0  0  0
  -22.6550   -5.3010   22.2660 C   0  0  0  0  0  0  0  0  0  0  0  0
  -23.0930   -4.7030   21.1320 F   0  0  0  0  0  0  0  0  0  0  0  0
  -21.6330   -4.3780   25.6680 F   0  0  0  0  0  0  0  0  0  0  0  0
  -24.4500  -13.9100   21.3510 C   0  0  0  0  0  0  0  0  0  0  0  0
  -23.7270  -13.2340   22.2380 N   0  0  0  0  0  0  0  0  0  0  0  0
  -24.0750  -15.0020   20.9290 O   0  0  0  0  0  0  0  0  0  0  0  0
  -24.0400  -12.3480   22.6050 H   0  0  0  0  0  0  0  0  0  0  0  0
  -22.8480  -13.6150   22.5570 H   0  0  0  0  0  0  0  0  0  0  0  0
  -27.1910  -15.3690   20.4890 N   0  0  0  0  0  0  0  0  0  0  0  0
  -26.5130  -16.0860   20.7240 H   0  0  0  0  0  0  0  0  0  0  0  0
  -28.0530  -15.7480   20.1180 H   0  0  0  0  0  0  0  0  0  0  0  0
  1  2  2  0
  1  4  1  0
  2  6  1  0
  4  5  2  0
  5  3  1  0
  5  7  1  0
  6  8  1  0
  6  3  2  0
  8  9  1  0
 10  8  1  0
 11 10  1  0
 12 11  1  0
 13 12  1  0
 13 15  1  0
 14 25  2  0
 15 20  1  0
 16 24  1  0
 16 26  1  0
 17 23  1  0
 17 19  1  0
 18 24  1  0
 19 18  1  0
 20 19  2  0
 21 22  1  0
 21 15  2  0
 22 17  2  0
 23 16  1  0
 24 14  1  0
 26 28  2  0
 27 26  1  0
 29 27  1  0
 30 39  2  0
 30 35  1  0
 31 27  1  0
 31 35  1  0
 32 31  1  0
 33 34  1  0
 33 32  1  0
 34 30  1  0
 35 36  2  0
 36 37  1  0
 38 37  2  0
 39 38  1  0
 40 14  1  0
 40 41  1  0
 40 50  1  0
 41 44  1  0
 42 46  1  0
 42 41  1  0
 43 42  2  0
 46 45  1  0
 46 48  1  0
 48 49  1  0
 48 47  1  0
 50 53  1  1
 50 51  1  0
 52 50  1  0
 54  4  1  0
 55 64  1  0
 55 54  1  0
 56 64  1  0
 57 62  1  0
 58 59  1  0
 58 57  1  0
 60 59  1  0
 60 69  1  0
 60 61  1  0
 62 56  1  0
 62 61  1  0
 63 56  2  0
 64 65  1  0
 66 67  2  0
 67 86  1  0
 68 71  1  0
 68 67  1  0
 69 70  1  0
 69 66  1  0
 70 68  2  0
 71 72  1  0
 72 73  2  0
 74 77  1  0
 74 73  1  0
 75 74  2  0
 76 75  1  0
 76 71  2  0
 77 78  1  0
 78 79  1  0
 79 80  2  0
 81 80  1  0
 81 85  1  0
 82 81  2  0
 83 78  2  0
 83 82  1  0
 84 83  1  0
 86 87  1  0
 87 90  1  0
 87 89  1  0
 88 86  2  0
 91 66  1  0
 91 92  1  0
 93 91  1  0
M  ISO  4  12 101  13 101  56 100  64 100
M  END
>  <TORSDO>  (30) 
F 22

>  <SCORE>  (30) 
-8.637

>  <name>  (30) 
30

>  <ligand_id>  (30) 
30

>  <original_smiles>  (30) 
[H]c1c([H])c([H])c2c(c1[H])C([H])([H])C([H])([H])C([H])([H])C2([H])N([H])C(=O)C1([H])N(C(=O)C([H])(N([H])C(=O)C([H])(N([H])C([H])([H])[H])C([H])([H])[H])C(C([H])([H])[H])(C([H])([H])[H])C([H])([H])[H])C([H])([H])c2c([H])c(OC([H])([H])C([H])([H])C([H])([H])N([H])c3c([H])c([H])c(C([H])([H])C([H])([H])N([H])C(=O)N4C([H])([H])C([H])([H])C([H])([H])C([H])(n5nc(-c6c([H])c([H])c(Oc7c([H])c([H])c(F)c([H])c7F)c([H])c6[H])c(C(=O)N([H])[H])c5N([H])[H])C4([H])[H])c(C([H])([H])[H])c3[H])c([H])c([H])c2C1([H])[H]

>  <smiles>  (30) 
[H]c1c([H])c([H])c2c(c1[H])C([H])([H])C([H])([H])C([H])([H])C2([H])N([H])C(=O)C1([H])N(C(=O)C([H])(N([H])C(=O)C([H])(N([H])C([H])([H])[H])C([H])([H])[H])C(C([H])([H])[H])(C([H])([H])[H])C([H])([H])[H])C([H])([H])c2c([H])c(OC([H])([H])C([H])([H])C([H])([H])N([H])c3c([H])c([H])c(C([H])([H])C([H])([H])N([H])C(=O)N4C([H])([H])C([H])([H])C([H])([H])C([H])(n5nc(-c6c([H])c([H])c(Oc7c([H])c([H])c(F)c([H])c7F)c([H])c6[H])c(C(=O)N([H])[H])c5N([H])[H])C4([H])[H])c(C([H])([H])[H])c3[H])c([H])c([H])c2C1([H])[H]

$$$$
31:0:0
     RDKit          3D

 90 98  0  0  1  0  0  0  0  0999 V2000
  -28.7130  -22.3600   19.9940 C   0  0  0  0  0  3  0  0  0  0  0  0
  -29.1030  -21.2370   20.8070 C   0  0  0  0  0  0  0  0  0  0  0  0
  -28.7720  -23.7060   20.5110 C   0  0  0  0  0  0  0  0  0  0  0  0
  -29.5410  -22.7800   22.4800 C   0  0  0  0  0  0  0  0  0  0  0  0
  -29.9050  -23.0120   23.9330 C   0  0  0  0  0  1  0  0  0  0  0  0
  -29.5310  -21.5090   22.0550 N   0  0  0  0  0  0  0  0  0  0  0  0
  -29.1940  -23.8650   21.7840 N   0  0  0  0  0  0  0  0  0  0  0  0
  -28.8190  -19.6950   20.4890 C   0  0  0  0  0  2  0  0  0  0  0  0
  -29.9280  -18.5920   20.0800 C   0  0  0  0  0  2  0  0  0  0  0  0
  -30.2450  -17.2680   20.9610 C   0  0  0  0  0  2  0  0  0  0  0  0
  -30.6140  -14.7260   20.3110 C   0  0  0  0  0  0  0  0  0  0  0  0
  -30.3910  -12.4610   19.2710 C   0  0  0  0  0  2  0  0  0  0  0  0
  -29.4480  -12.5290   18.0510 C   0  0  0  0  0  2  0  0  0  0  0  0
  -27.9800  -12.3620   18.4850 C   0  0  0  0  0  2  0  0  0  0  0  0
  -27.6070  -13.2680   19.6880 C   0  0  0  0  0  3  0  0  0  0  0  0
  -28.6640  -13.1840   20.8090 C   0  0  0  0  0  2  0  0  0  0  0  0
  -29.9630  -13.5180   20.2130 N   0  0  0  0  0  0  0  0  0  0  0  0
  -31.8150  -14.8120   20.0460 O   0  0  0  0  0  0  0  0  0  0  0  0
  -29.8470  -15.8590   20.5230 N   0  0  0  0  0  0  0  0  0  0  0  0
  -28.8570  -15.6730   20.5500 H   0  0  0  0  0  0  0  0  0  0  0  0
  -25.2220  -13.8850   20.4190 C   0  0  0  0  0  0  0  0  0  0  0  0
  -24.1530  -13.1210   20.8010 C   0  0  0  0  0  0  0  0  0  0  0  0
  -24.6090  -11.7670   20.7830 C   0  0  0  0  0  0  0  0  0  0  0  0
  -26.2610  -12.9970   20.1880 N   0  0  0  0  0  0  0  0  0  0  0  0
  -25.8990  -11.7190   20.4770 N   0  0  0  0  0  0  0  0  0  0  0  0
  -23.8760  -10.5100   20.9870 C   0  0  0  0  0  0  0  0  0  0  0  0
  -24.3020   -9.5510   21.9330 C   0  0  0  0  0  3  0  0  0  0  0  0
  -23.5750   -8.3570   22.1210 C   0  0  0  0  0  3  0  0  0  0  0  0
  -22.4060   -8.1120   21.3590 C   0  0  0  0  0  0  0  0  0  0  0  0
  -22.0000   -9.0580   20.4010 C   0  0  0  0  0  3  0  0  0  0  0  0
  -22.7300  -10.2430   20.2130 C   0  0  0  0  0  3  0  0  0  0  0  0
  -21.6430   -6.9730   21.4570 O   0  0  0  0  0  0  0  0  0  0  0  0
  -21.5800   -6.2460   22.6180 C   0  0  0  0  0  0  0  0  0  0  0  0
  -21.1390   -6.8200   23.8320 C   0  0  0  0  0  3  0  0  0  0  0  0
  -21.0230   -6.0200   24.9860 C   0  0  0  0  0  3  0  0  0  0  0  0
  -21.3410   -4.6490   24.9260 C   0  0  0  0  0  0  0  0  0  0  0  0
  -21.7760   -4.0760   23.7190 C   0  0  0  0  0  3  0  0  0  0  0  0
  -21.8910   -4.8730   22.5650 C   0  0  0  0  0  0  0  0  0  0  0  0
  -22.2890   -4.3140   21.3970 F   0  0  0  0  0  0  0  0  0  0  0  0
  -21.2220   -3.8760   26.0310 F   0  0  0  0  0  0  0  0  0  0  0  0
  -22.7560  -13.6070   21.0650 C   0  0  0  0  0  0  0  0  0  0  0  0
  -22.0170  -12.9230   21.9330 N   0  0  0  0  0  0  0  0  0  0  0  0
  -22.3250  -14.6280   20.5320 O   0  0  0  0  0  0  0  0  0  0  0  0
  -22.3730  -12.0980   22.3920 H   0  0  0  0  0  0  0  0  0  0  0  0
  -21.0770  -13.2300   22.1390 H   0  0  0  0  0  0  0  0  0  0  0  0
  -25.3900  -15.2550   20.2230 N   0  0  0  0  0  0  0  0  0  0  0  0
  -24.6220  -15.9100   20.3320 H   0  0  0  0  0  0  0  0  0  0  0  0
  -26.2300  -15.6890   19.8610 H   0  0  0  0  0  0  0  0  0  0  0  0
  -28.3690  -25.0030   19.6730 C   0  0  0  0  0  2  0  0  0  0  0  0
  -28.3330  -26.3960   20.2540 O   0  0  0  0  0  0  0  0  0  0  0  0
  -24.6470  -31.8660   23.2310 C   0  0  0  0  0  0  0  0  0  0  0  0
  -27.2180  -27.2680   20.1550 C   0  0  0  0  0  0  0  0  0  0  0  0
  -23.4270  -30.4790   21.5910 C   0  0  0  0  0  3  0  0  0  0  0  0
  -24.8620  -28.9280   20.1500 C   0  0  0  0  0  0  0  0  0  0  0  0
  -25.9690  -30.7780   21.4020 C   0  0  0  0  0  2  0  0  0  0  0  0
  -26.0370  -29.4000   20.7450 C   0  0  0  0  0  0  0  0  0  0  0  0
  -27.2160  -28.5840   20.7350 C   0  0  0  0  0  3  0  0  0  0  0  0
  -26.0140  -26.8740   19.5240 C   0  0  0  0  0  3  0  0  0  0  0  0
  -24.8580  -27.6730   19.5250 C   0  0  0  0  0  3  0  0  0  0  0  0
  -23.6260  -29.8020   20.2110 C   0  0  0  0  0  2  0  0  0  0  0  0
  -24.7000  -31.0620   22.1290 N   0  0  0  0  0  0  0  0  0  0  0  0
  -23.5680  -32.1460   23.7740 O   0  0  0  0  0  0  0  0  0  0  0  0
  -22.7630  -29.4670   22.5560 C   0  0  0  0  0  0  0  0  0  0  0  0
  -21.4360  -29.2860   22.4350 N   0  0  0  0  0  0  0  0  0  0  0  0
  -23.4440  -28.8490   23.3790 O   0  0  0  0  0  0  0  0  0  0  0  0
  -20.9410  -29.8340   21.7450 H   0  0  0  0  0  0  0  0  0  0  0  0
  -18.0660  -28.0780   22.9530 C   0  0  0  0  0  0  0  0  0  0  0  0
  -20.6240  -28.3480   23.2120 C   0  0  0  0  0  3  0  0  0  0  0  0
  -20.7340  -26.9150   22.6420 C   0  0  0  0  0  2  0  0  0  0  0  0
  -19.6330  -26.5850   21.6310 C   0  0  0  0  0  2  0  0  0  0  0  0
  -18.2500  -26.7290   22.2750 C   0  0  0  0  0  2  0  0  0  0  0  0
  -19.1830  -28.8450   23.3770 C   0  0  0  0  0  0  0  0  0  0  0  0
  -18.9600  -30.1080   23.9680 C   0  0  0  0  0  3  0  0  0  0  0  0
  -17.6540  -30.6010   24.1420 C   0  0  0  0  0  3  0  0  0  0  0  0
  -16.5520  -29.8320   23.7330 C   0  0  0  0  0  3  0  0  0  0  0  0
  -16.7590  -28.5710   23.1460 C   0  0  0  0  0  3  0  0  0  0  0  0
  -25.9370  -32.4930   23.8460 C   0  0  0  0  0  3  0  0  0  0  0  0
  -26.4660  -31.7130   25.1120 C   0  0  1  0  0  0  0  0  0  0  0  0
  -25.3850  -31.4710   26.1890 C   0  0  0  0  0  1  0  0  0  0  0  0
  -27.0510  -30.3360   24.7170 C   0  0  0  0  0  1  0  0  0  0  0  0
  -27.6240  -32.5020   25.7670 C   0  0  0  0  0  1  0  0  0  0  0  0
  -25.6300  -33.8890   24.1920 N   0  0  0  0  0  0  0  0  0  0  0  0
  -25.9330  -34.9490   23.4290 C   0  0  0  0  0  0  0  0  0  0  0  0
  -26.5710  -34.8550   22.3770 O   0  0  0  0  0  0  0  0  0  0  0  0
  -25.0840  -34.0380   25.0280 H   0  0  0  0  0  0  0  0  0  0  0  0
  -24.1830  -36.7350   23.1350 C   0  0  0  0  0  1  0  0  0  0  0  0
  -25.4480  -36.3320   23.9090 C   0  0  0  0  0  3  0  0  0  0  0  0
  -27.5960  -37.2330   24.6840 C   0  0  0  0  0  1  0  0  0  0  0  0
  -26.4680  -37.3950   23.7700 N   0  0  0  0  0  0  0  0  0  0  0  0
  -26.0560  -38.3090   23.9380 H   0  0  0  0  0  0  0  0  0  0  0  0
  1  3  1  0
  1  2  2  0
  2  6  1  0
  3  7  2  0
  4  5  1  0
  6  4  2  0
  7  4  1  0
  8  2  1  0
  9  8  1  0
  9 10  1  0
 11 19  1  0
 12 17  1  0
 13 14  1  0
 13 12  1  0
 15 14  1  0
 15 24  1  0
 15 16  1  0
 17 11  1  0
 17 16  1  0
 18 11  2  0
 19 20  1  0
 19 10  1  0
 21 22  2  0
 22 41  1  0
 23 22  1  0
 23 26  1  0
 24 21  1  0
 24 25  1  0
 25 23  2  0
 26 27  1  0
 27 28  2  0
 29 32  1  0
 29 28  1  0
 30 29  2  0
 31 30  1  0
 31 26  2  0
 32 33  1  0
 33 34  1  0
 34 35  2  0
 36 35  1  0
 36 40  1  0
 37 36  2  0
 38 33  2  0
 38 37  1  0
 39 38  1  0
 41 42  1  0
 42 45  1  0
 42 44  1  0
 43 41  2  0
 46 47  1  0
 46 21  1  0
 48 46  1  0
 49 50  1  0
 49  3  1  0
 51 62  2  0
 52 50  1  0
 52 57  1  0
 53 61  1  0
 53 63  1  0
 54 60  1  0
 54 56  1  0
 55 61  1  0
 56 55  1  0
 57 56  2  0
 58 59  1  0
 58 52  2  0
 59 54  2  0
 60 53  1  0
 61 51  1  0
 63 65  2  0
 64 63  1  0
 66 64  1  0
 67 76  2  0
 67 72  1  0
 68 64  1  0
 68 72  1  0
 69 68  1  0
 70 71  1  0
 70 69  1  0
 71 67  1  0
 72 73  2  0
 73 74  1  0
 75 74  2  0
 76 75  1  0
 77 51  1  0
 77 82  1  0
 77 78  1  0
 78 81  1  1
 78 79  1  0
 80 78  1  0
 82 85  1  0
 83 87  1  0
 83 82  1  0
 84 83  2  0
 87 86  1  0
 89 87  1  0
 89 90  1  0
 89 88  1  0
M  ISO  4  11 100  19 100  49 101  50 101
M  END
>  <TORSDO>  (31) 
F 20

>  <SCORE>  (31) 
-13.893

>  <name>  (31) 
31

>  <ligand_id>  (31) 
31

>  <original_smiles>  (31) 
[H]c1c(C([H])([H])Oc2c([H])c([H])c3c(c2[H])C([H])([H])N(C(=O)C([H])(N([H])C(=O)C([H])(N([H])C([H])([H])[H])C([H])([H])[H])C(C([H])([H])[H])(C([H])([H])[H])C([H])([H])[H])C([H])(C(=O)N([H])C2([H])c4c([H])c([H])c([H])c([H])c4C([H])([H])C([H])([H])C2([H])[H])C3([H])[H])nc(C([H])([H])[H])nc1C([H])([H])C([H])([H])C([H])([H])N([H])C(=O)N1C([H])([H])C([H])([H])C([H])([H])C([H])(n2nc(-c3c([H])c([H])c(Oc4c([H])c([H])c(F)c([H])c4F)c([H])c3[H])c(C(=O)N([H])[H])c2N([H])[H])C1([H])[H]

>  <smiles>  (31) 
[H]c1c(C([H])([H])Oc2c([H])c([H])c3c(c2[H])C([H])([H])N(C(=O)C([H])(N([H])C(=O)C([H])(N([H])C([H])([H])[H])C([H])([H])[H])C(C([H])([H])[H])(C([H])([H])[H])C([H])([H])[H])C([H])(C(=O)N([H])C2([H])c4c([H])c([H])c([H])c([H])c4C([H])([H])C([H])([H])C2([H])[H])C3([H])[H])nc(C([H])([H])[H])nc1C([H])([H])C([H])([H])C([H])([H])N([H])C(=O)N1C([H])([H])C([H])([H])C([H])([H])C([H])(n2nc(-c3c([H])c([H])c(Oc4c([H])c([H])c(F)c([H])c4F)c([H])c3[H])c(C(=O)N([H])[H])c2N([H])[H])C1([H])[H]

$$$$
32:0:0
     RDKit          3D

 93101  0  0  1  0  0  0  0  0999 V2000
  -30.6230  -22.7180   20.8880 C   0  0  0  0  0  3  0  0  0  0  0  0
  -28.9550  -23.6600   18.8440 C   0  0  0  0  0  3  0  0  0  0  0  0
  -30.8770  -23.9760   20.3020 C   0  0  0  0  0  0  0  0  0  0  0  0
  -28.7650  -22.3610   19.3600 C   0  0  0  0  0  0  0  0  0  0  0  0
  -29.5430  -21.9230   20.4580 C   0  0  0  0  0  0  0  0  0  0  0  0
  -29.9950  -24.4900   19.3120 C   0  0  0  0  0  0  0  0  0  0  0  0
  -32.1070  -24.7450   20.7440 C   0  0  0  0  0  1  0  0  0  0  0  0
  -27.7550  -21.4470   18.6790 C   0  0  0  0  0  1  0  0  0  0  0  0
  -29.2470  -20.6220   21.1990 C   0  0  0  0  0  2  0  0  0  0  0  0
  -30.2540  -19.5000   20.9060 C   0  0  0  0  0  2  0  0  0  0  0  0
  -29.6910  -18.0790   21.1550 C   0  0  0  0  0  2  0  0  0  0  0  0
  -30.7110  -16.9740   20.8080 C   0  0  0  0  0  2  0  0  0  0  0  0
  -30.7940  -14.5800   20.2030 C   0  0  0  0  0  0  0  0  0  0  0  0
  -30.4380  -12.4510   19.0240 C   0  0  0  0  0  2  0  0  0  0  0  0
  -29.4360  -12.6600   17.8700 C   0  0  0  0  0  2  0  0  0  0  0  0
  -27.9790  -12.5180   18.3590 C   0  0  0  0  0  2  0  0  0  0  0  0
  -27.6950  -13.3270   19.6550 C   0  0  0  0  0  3  0  0  0  0  0  0
  -28.8030  -13.1060   20.7120 C   0  0  0  0  0  2  0  0  0  0  0  0
  -30.1010  -13.4140   20.0880 N   0  0  0  0  0  0  0  0  0  0  0  0
  -31.8760  -14.7620   19.6450 O   0  0  0  0  0  0  0  0  0  0  0  0
  -30.1790  -15.5990   20.8350 N   0  0  0  0  0  0  0  0  0  0  0  0
  -29.2860  -15.4300   21.2680 H   0  0  0  0  0  0  0  0  0  0  0  0
  -25.3280  -13.8910   20.4930 C   0  0  0  0  0  0  0  0  0  0  0  0
  -24.2820  -13.1000   20.8960 C   0  0  0  0  0  0  0  0  0  0  0  0
  -24.7530  -11.7540   20.8130 C   0  0  0  0  0  0  0  0  0  0  0  0
  -26.3680  -13.0230   20.1930 N   0  0  0  0  0  0  0  0  0  0  0  0
  -26.0280  -11.7310   20.4450 N   0  0  0  0  0  0  0  0  0  0  0  0
  -24.0460  -10.4780   21.0110 C   0  0  0  0  0  0  0  0  0  0  0  0
  -24.4840   -9.5300   21.9630 C   0  0  0  0  0  3  0  0  0  0  0  0
  -23.7730   -8.3250   22.1500 C   0  0  0  0  0  3  0  0  0  0  0  0
  -22.6120   -8.0590   21.3890 C   0  0  0  0  0  0  0  0  0  0  0  0
  -22.1970   -8.9940   20.4260 C   0  0  0  0  0  3  0  0  0  0  0  0
  -22.9070  -10.1920   20.2370 C   0  0  0  0  0  3  0  0  0  0  0  0
  -21.8770   -6.9040   21.4800 O   0  0  0  0  0  0  0  0  0  0  0  0
  -21.7720   -6.2050   22.6570 C   0  0  0  0  0  0  0  0  0  0  0  0
  -21.1920   -6.7740   23.8120 C   0  0  0  0  0  3  0  0  0  0  0  0
  -21.0460   -6.0030   24.9820 C   0  0  0  0  0  3  0  0  0  0  0  0
  -21.4650   -4.6580   24.9950 C   0  0  0  0  0  0  0  0  0  0  0  0
  -22.0420   -4.0880   23.8470 C   0  0  0  0  0  3  0  0  0  0  0  0
  -22.1910   -4.8600   22.6800 C   0  0  0  0  0  0  0  0  0  0  0  0
  -22.7240   -4.2970   21.5690 F   0  0  0  0  0  0  0  0  0  0  0  0
  -21.3200   -3.9130   26.1160 F   0  0  0  0  0  0  0  0  0  0  0  0
  -22.8970  -13.5570   21.2480 C   0  0  0  0  0  0  0  0  0  0  0  0
  -22.2120  -12.8290   22.1270 N   0  0  0  0  0  0  0  0  0  0  0  0
  -22.4280  -14.5930   20.7820 O   0  0  0  0  0  0  0  0  0  0  0  0
  -22.6100  -11.9940   22.5330 H   0  0  0  0  0  0  0  0  0  0  0  0
  -21.2850  -13.1140   22.4030 H   0  0  0  0  0  0  0  0  0  0  0  0
  -25.4740  -15.2660   20.3400 N   0  0  0  0  0  0  0  0  0  0  0  0
  -24.7010  -15.9090   20.4860 H   0  0  0  0  0  0  0  0  0  0  0  0
  -26.3060  -15.7160   19.9780 H   0  0  0  0  0  0  0  0  0  0  0  0
  -30.1730  -25.8810   18.6880 C   0  0  0  0  0  2  0  0  0  0  0  0
  -28.9080  -26.7760   18.6530 C   0  0  0  0  0  2  0  0  0  0  0  0
  -28.2120  -26.7840   19.8930 O   0  0  0  0  0  0  0  0  0  0  0  0
  -24.4620  -31.8570   23.1310 C   0  0  0  0  0  0  0  0  0  0  0  0
  -27.0490  -27.5140   19.8980 C   0  0  0  0  0  0  0  0  0  0  0  0
  -23.2180  -30.5040   21.4670 C   0  0  0  0  0  3  0  0  0  0  0  0
  -24.6480  -28.9910   19.9840 C   0  0  0  0  0  0  0  0  0  0  0  0
  -25.7380  -30.8560   21.2470 C   0  0  0  0  0  2  0  0  0  0  0  0
  -25.8080  -29.5010   20.5800 C   0  0  0  0  0  0  0  0  0  0  0  0
  -27.0080  -28.7650   20.5460 C   0  0  0  0  0  3  0  0  0  0  0  0
  -25.8810  -27.0070   19.2940 C   0  0  0  0  0  3  0  0  0  0  0  0
  -24.6780  -27.7430   19.3370 C   0  0  0  0  0  3  0  0  0  0  0  0
  -23.4070  -29.8460   20.0690 C   0  0  0  0  0  2  0  0  0  0  0  0
  -24.4880  -31.0920   22.0040 N   0  0  0  0  0  0  0  0  0  0  0  0
  -23.3950  -32.1230   23.6990 O   0  0  0  0  0  0  0  0  0  0  0  0
  -22.5700  -29.4730   22.4180 C   0  0  0  0  0  0  0  0  0  0  0  0
  -21.2410  -29.3110   22.3120 N   0  0  0  0  0  0  0  0  0  0  0  0
  -23.2610  -28.8160   23.2000 O   0  0  0  0  0  0  0  0  0  0  0  0
  -20.7430  -29.8990   21.6580 H   0  0  0  0  0  0  0  0  0  0  0  0
  -17.8600  -28.1530   22.8510 C   0  0  0  0  0  0  0  0  0  0  0  0
  -20.4280  -28.3630   23.0740 C   0  0  0  0  0  3  0  0  0  0  0  0
  -20.4940  -26.9480   22.4530 C   0  0  0  0  0  2  0  0  0  0  0  0
  -19.3660  -26.6730   21.4530 C   0  0  0  0  0  2  0  0  0  0  0  0
  -18.0000  -26.8210   22.1310 C   0  0  0  0  0  2  0  0  0  0  0  0
  -19.0000  -28.8830   23.2800 C   0  0  0  0  0  0  0  0  0  0  0  0
  -18.8150  -30.1300   23.9140 C   0  0  0  0  0  3  0  0  0  0  0  0
  -17.5240  -30.6500   24.1210 C   0  0  0  0  0  3  0  0  0  0  0  0
  -16.3980  -29.9170   23.7070 C   0  0  0  0  0  3  0  0  0  0  0  0
  -16.5670  -28.6690   23.0790 C   0  0  0  0  0  3  0  0  0  0  0  0
  -25.7670  -32.4590   23.7440 C   0  0  0  0  0  3  0  0  0  0  0  0
  -25.4950  -33.8610   24.0860 N   0  0  0  0  0  0  0  0  0  0  0  0
  -25.8610  -34.9090   23.3350 C   0  0  0  0  0  0  0  0  0  0  0  0
  -26.5330  -34.7980   22.3060 O   0  0  0  0  0  0  0  0  0  0  0  0
  -24.9050  -34.0230   24.8880 H   0  0  0  0  0  0  0  0  0  0  0  0
  -24.2100  -36.7660   22.9580 C   0  0  0  0  0  1  0  0  0  0  0  0
  -25.4090  -36.3060   23.8010 C   0  0  0  0  0  3  0  0  0  0  0  0
  -27.5380  -37.1100   24.7240 C   0  0  0  0  0  1  0  0  0  0  0  0
  -26.4820  -37.3230   23.7380 N   0  0  0  0  0  0  0  0  0  0  0  0
  -26.1010  -38.2560   23.8790 H   0  0  0  0  0  0  0  0  0  0  0  0
  -26.2840  -31.6680   25.0070 C   0  0  1  0  0  0  0  0  0  0  0  0
  -25.1980  -31.4380   26.0830 C   0  0  0  0  0  1  0  0  0  0  0  0
  -26.8430  -30.2860   24.5930 C   0  0  0  0  0  1  0  0  0  0  0  0
  -27.4570  -32.4330   25.6650 C   0  0  0  0  0  1  0  0  0  0  0  0
  2  6  2  0
  2  4  1  0
  3  7  1  0
  3  1  2  0
  4  5  2  0
  5  1  1  0
  5  9  1  0
  6  3  1  0
  8  4  1  0
 10 11  1  0
 10  9  1  0
 12 21  1  0
 12 11  1  0
 13 21  1  0
 14 19  1  0
 15 16  1  0
 15 14  1  0
 17 16  1  0
 17 26  1  0
 17 18  1  0
 19 13  1  0
 19 18  1  0
 20 13  2  0
 21 22  1  0
 23 24  2  0
 24 43  1  0
 25 24  1  0
 25 28  1  0
 26 27  1  0
 26 23  1  0
 27 25  2  0
 28 29  1  0
 29 30  2  0
 31 34  1  0
 31 30  1  0
 32 31  2  0
 33 32  1  0
 33 28  2  0
 34 35  1  0
 35 40  2  0
 35 36  1  0
 36 37  2  0
 37 38  1  0
 38 42  1  0
 39 38  2  0
 40 39  1  0
 41 40  1  0
 43 44  1  0
 44 47  1  0
 44 46  1  0
 45 43  2  0
 48 49  1  0
 48 23  1  0
 50 48  1  0
 51  6  1  0
 52 51  1  0
 52 53  1  0
 53 55  1  0
 54 65  2  0
 55 60  1  0
 56 64  1  0
 56 66  1  0
 57 63  1  0
 57 59  1  0
 58 64  1  0
 59 58  1  0
 60 59  2  0
 61 62  1  0
 61 55  2  0
 62 57  2  0
 63 56  1  0
 64 54  1  0
 66 68  2  0
 67 66  1  0
 69 67  1  0
 70 79  2  0
 70 75  1  0
 71 67  1  0
 71 75  1  0
 72 71  1  0
 73 74  1  0
 73 72  1  0
 74 70  1  0
 75 76  2  0
 76 77  1  0
 78 77  2  0
 79 78  1  0
 80 54  1  0
 80 81  1  0
 80 90  1  0
 81 84  1  0
 82 86  1  0
 82 81  1  0
 83 82  2  0
 86 85  1  0
 88 86  1  0
 88 89  1  0
 88 87  1  0
 90 93  1  1
 90 91  1  0
 92 90  1  0
M  ISO  4  13 100  21 100  52 101  53 101
M  END
>  <TORSDO>  (32) 
F 22

>  <SCORE>  (32) 
-12.760

>  <name>  (32) 
32

>  <ligand_id>  (32) 
32

>  <original_smiles>  (32) 
[H]c1c([H])c([H])c2c(c1[H])C([H])([H])C([H])([H])C([H])([H])C2([H])N([H])C(=O)C1([H])N(C(=O)C([H])(N([H])C(=O)C([H])(N([H])C([H])([H])[H])C([H])([H])[H])C(C([H])([H])[H])(C([H])([H])[H])C([H])([H])[H])C([H])([H])c2c([H])c(OC([H])([H])C([H])([H])c3c([H])c(C([H])([H])[H])c(C([H])([H])C([H])([H])C([H])([H])C([H])([H])N([H])C(=O)N4C([H])([H])C([H])([H])C([H])([H])C([H])(n5nc(-c6c([H])c([H])c(Oc7c([H])c([H])c(F)c([H])c7F)c([H])c6[H])c(C(=O)N([H])[H])c5N([H])[H])C4([H])[H])c([H])c3C([H])([H])[H])c([H])c([H])c2C1([H])[H]

>  <smiles>  (32) 
[H]c1c([H])c([H])c2c(c1[H])C([H])([H])C([H])([H])C([H])([H])C2([H])N([H])C(=O)C1([H])N(C(=O)C([H])(N([H])C(=O)C([H])(N([H])C([H])([H])[H])C([H])([H])[H])C(C([H])([H])[H])(C([H])([H])[H])C([H])([H])[H])C([H])([H])c2c([H])c(OC([H])([H])C([H])([H])c3c([H])c(C([H])([H])[H])c(C([H])([H])C([H])([H])C([H])([H])C([H])([H])N([H])C(=O)N4C([H])([H])C([H])([H])C([H])([H])C([H])(n5nc(-c6c([H])c([H])c(Oc7c([H])c([H])c(F)c([H])c7F)c([H])c6[H])c(C(=O)N([H])[H])c5N([H])[H])C4([H])[H])c([H])c3C([H])([H])[H])c([H])c([H])c2C1([H])[H]

$$$$
33:0:0
     RDKit          3D

 88 96  0  0  1  0  0  0  0  0999 V2000
  -28.0860  -19.7490   20.4330 C   0  0  0  0  0  3  0  0  0  0  0  0
  -29.4730  -19.3660   20.3400 C   0  0  0  0  0  0  0  0  0  0  0  0
  -29.9780  -20.7000   20.2560 C   0  0  0  0  0  0  0  0  0  0  0  0
  -31.4190  -21.0780   20.1490 C   0  0  0  0  0  1  0  0  0  0  0  0
  -27.8220  -21.0910   20.4230 N   0  0  0  0  0  0  0  0  0  0  0  0
  -28.9940  -21.7750   20.2920 N   0  0  0  0  0  0  0  0  0  0  0  0
  -30.2860  -17.8810   20.3280 C   0  0  0  0  0  2  0  0  0  0  0  0
  -30.5540  -15.1340   20.3070 C   0  0  0  0  0  0  0  0  0  0  0  0
  -30.4260  -12.7750   19.3570 C   0  0  0  0  0  2  0  0  0  0  0  0
  -29.4830  -12.7140   18.1330 C   0  0  0  0  0  2  0  0  0  0  0  0
  -28.0270  -12.4890   18.5820 C   0  0  0  0  0  2  0  0  0  0  0  0
  -27.6260  -13.4040   19.7680 C   0  0  0  0  0  3  0  0  0  0  0  0
  -28.6950  -13.4370   20.8800 C   0  0  0  0  0  2  0  0  0  0  0  0
  -29.9470  -13.8740   20.2520 N   0  0  0  0  0  0  0  0  0  0  0  0
  -31.7580  -15.1670   20.0280 O   0  0  0  0  0  0  0  0  0  0  0  0
  -29.8150  -16.3590   20.4580 N   0  0  0  0  0  0  0  0  0  0  0  0
  -28.8320  -16.2280   20.6430 H   0  0  0  0  0  0  0  0  0  0  0  0
  -25.2580  -13.9600   20.5540 C   0  0  0  0  0  0  0  0  0  0  0  0
  -24.2010  -13.1770   20.9250 C   0  0  0  0  0  0  0  0  0  0  0  0
  -24.6690  -11.8270   20.8650 C   0  0  0  0  0  0  0  0  0  0  0  0
  -26.2990  -13.0900   20.2830 N   0  0  0  0  0  0  0  0  0  0  0  0
  -25.9560  -11.8000   20.5380 N   0  0  0  0  0  0  0  0  0  0  0  0
  -23.9460  -10.5600   21.0420 C   0  0  0  0  0  0  0  0  0  0  0  0
  -24.3670   -9.5930   21.9800 C   0  0  0  0  0  3  0  0  0  0  0  0
  -23.6430   -8.3930   22.1460 C   0  0  0  0  0  3  0  0  0  0  0  0
  -22.4820   -8.1520   21.3730 C   0  0  0  0  0  0  0  0  0  0  0  0
  -22.0800   -9.1090   20.4240 C   0  0  0  0  0  3  0  0  0  0  0  0
  -22.8050  -10.3000   20.2560 C   0  0  0  0  0  3  0  0  0  0  0  0
  -21.7290   -7.0050   21.4470 O   0  0  0  0  0  0  0  0  0  0  0  0
  -21.6310   -6.2830   22.6100 C   0  0  0  0  0  0  0  0  0  0  0  0
  -21.0910   -6.8410   23.7890 C   0  0  0  0  0  3  0  0  0  0  0  0
  -20.9430   -6.0430   24.9420 C   0  0  0  0  0  3  0  0  0  0  0  0
  -21.3260   -4.6890   24.9150 C   0  0  0  0  0  0  0  0  0  0  0  0
  -21.8600   -4.1310   23.7400 C   0  0  0  0  0  3  0  0  0  0  0  0
  -22.0080   -4.9260   22.5900 C   0  0  0  0  0  0  0  0  0  0  0  0
  -22.5030   -4.3770   21.4550 F   0  0  0  0  0  0  0  0  0  0  0  0
  -21.1780   -3.9200   26.0190 F   0  0  0  0  0  0  0  0  0  0  0  0
  -22.8060  -13.6460   21.2170 C   0  0  0  0  0  0  0  0  0  0  0  0
  -22.0900  -12.9400   22.0840 N   0  0  0  0  0  0  0  0  0  0  0  0
  -22.3610  -14.6770   20.7140 O   0  0  0  0  0  0  0  0  0  0  0  0
  -22.4640  -12.1060   22.5140 H   0  0  0  0  0  0  0  0  0  0  0  0
  -21.1550  -13.2380   22.3230 H   0  0  0  0  0  0  0  0  0  0  0  0
  -25.4140  -15.3340   20.3950 N   0  0  0  0  0  0  0  0  0  0  0  0
  -24.6410  -15.9790   20.5210 H   0  0  0  0  0  0  0  0  0  0  0  0
  -26.2400  -15.7780   20.0160 H   0  0  0  0  0  0  0  0  0  0  0  0
  -29.1450  -23.3820   20.3710 C   0  0  0  0  0  3  0  0  0  0  0  0
  -28.0320  -24.6420   20.0660 C   0  0  0  0  0  3  0  0  0  0  0  0
  -28.2660  -26.1990   20.2430 O   0  0  0  0  0  0  0  0  0  0  0  0
  -24.6250  -31.9140   23.2450 C   0  0  0  0  0  0  0  0  0  0  0  0
  -27.2110  -27.1970   20.1830 C   0  0  0  0  0  0  0  0  0  0  0  0
  -23.4300  -30.5270   21.5960 C   0  0  0  0  0  3  0  0  0  0  0  0
  -24.8830  -28.9610   20.1590 C   0  0  0  0  0  0  0  0  0  0  0  0
  -25.9860  -30.7910   21.4350 C   0  0  0  0  0  2  0  0  0  0  0  0
  -26.0630  -29.4020   20.7710 C   0  0  0  0  0  0  0  0  0  0  0  0
  -27.2280  -28.5370   20.7610 C   0  0  0  0  0  3  0  0  0  0  0  0
  -26.0030  -26.8680   19.5320 C   0  0  0  0  0  3  0  0  0  0  0  0
  -24.8680  -27.7110   19.5220 C   0  0  0  0  0  3  0  0  0  0  0  0
  -23.6540  -29.8580   20.2130 C   0  0  0  0  0  2  0  0  0  0  0  0
  -24.7010  -31.1000   22.1470 N   0  0  0  0  0  0  0  0  0  0  0  0
  -23.5370  -32.1920   23.7750 O   0  0  0  0  0  0  0  0  0  0  0  0
  -22.7520  -29.5130   22.5510 C   0  0  0  0  0  0  0  0  0  0  0  0
  -21.4240  -29.3360   22.4190 N   0  0  0  0  0  0  0  0  0  0  0  0
  -23.4230  -28.8880   23.3760 O   0  0  0  0  0  0  0  0  0  0  0  0
  -20.9390  -29.8920   21.7300 H   0  0  0  0  0  0  0  0  0  0  0  0
  -18.0460  -28.1260   22.9210 C   0  0  0  0  0  0  0  0  0  0  0  0
  -20.6060  -28.3900   23.1830 C   0  0  0  0  0  3  0  0  0  0  0  0
  -20.7070  -26.9640   22.5940 C   0  0  0  0  0  2  0  0  0  0  0  0
  -19.6020  -26.6500   21.5790 C   0  0  0  0  0  2  0  0  0  0  0  0
  -18.2230  -26.7840   22.2290 C   0  0  0  0  0  2  0  0  0  0  0  0
  -19.1650  -28.8860   23.3560 C   0  0  0  0  0  0  0  0  0  0  0  0
  -18.9440  -30.1400   23.9660 C   0  0  0  0  0  3  0  0  0  0  0  0
  -17.6390  -30.6340   24.1450 C   0  0  0  0  0  3  0  0  0  0  0  0
  -16.5350  -29.8710   23.7260 C   0  0  0  0  0  3  0  0  0  0  0  0
  -16.7390  -28.6190   23.1210 C   0  0  0  0  0  3  0  0  0  0  0  0
  -25.9000  -32.5510   23.8790 C   0  0  0  0  0  3  0  0  0  0  0  0
  -26.4050  -31.7800   25.1610 C   0  0  1  0  0  0  0  0  0  0  0  0
  -25.3010  -31.5400   26.2190 C   0  0  0  0  0  1  0  0  0  0  0  0
  -26.9960  -30.4040   24.7790 C   0  0  0  0  0  1  0  0  0  0  0  0
  -27.5470  -32.5780   25.8340 C   0  0  0  0  0  1  0  0  0  0  0  0
  -25.5830  -33.9490   24.2150 N   0  0  0  0  0  0  0  0  0  0  0  0
  -25.8800  -35.0050   23.4470 C   0  0  0  0  0  0  0  0  0  0  0  0
  -26.5140  -34.9070   22.3930 O   0  0  0  0  0  0  0  0  0  0  0  0
  -25.0140  -34.0970   25.0350 H   0  0  0  0  0  0  0  0  0  0  0  0
  -24.1130  -36.7780   23.1770 C   0  0  0  0  0  1  0  0  0  0  0  0
  -25.4000  -36.3920   23.9230 C   0  0  0  0  0  3  0  0  0  0  0  0
  -27.5550  -37.3200   24.6470 C   0  0  0  0  0  1  0  0  0  0  0  0
  -26.4110  -37.4580   23.7490 N   0  0  0  0  0  0  0  0  0  0  0  0
  -25.9990  -38.3740   23.9010 H   0  0  0  0  0  0  0  0  0  0  0  0
  2  1  1  0
  3  6  1  0
  3  2  2  0
  4  3  1  0
  5  1  2  0
  6 46  1  0
  6  5  1  0
  7  2  1  0
  7 16  1  0
  8 16  1  0
  9 14  1  0
 10 11  1  0
 10  9  1  0
 12 11  1  0
 12 21  1  0
 12 13  1  0
 14  8  1  0
 14 13  1  0
 15  8  2  0
 16 17  1  0
 18 19  2  0
 19 38  1  0
 20 19  1  0
 20 23  1  0
 21 22  1  0
 21 18  1  0
 22 20  2  0
 23 24  1  0
 24 25  2  0
 26 29  1  0
 26 25  1  0
 27 26  2  0
 28 27  1  0
 28 23  2  0
 29 30  1  0
 30 31  1  0
 31 32  2  0
 33 32  1  0
 33 37  1  0
 34 33  2  0
 35 30  2  0
 35 34  1  0
 36 35  1  0
 38 39  1  0
 39 42  1  0
 39 41  1  0
 40 38  2  0
 43 44  1  0
 43 18  1  0
 45 43  1  0
 47 48  1  0
 47 46  2  0
 49 60  2  0
 50 48  1  0
 50 55  1  0
 51 59  1  0
 51 61  1  0
 52 58  1  0
 52 54  1  0
 53 59  1  0
 54 53  1  0
 55 54  2  0
 56 50  2  0
 57 56  1  0
 57 52  2  0
 58 51  1  0
 59 49  1  0
 61 63  2  0
 62 61  1  0
 64 62  1  0
 65 74  2  0
 65 70  1  0
 66 62  1  0
 66 70  1  0
 67 66  1  0
 68 69  1  0
 68 67  1  0
 69 65  1  0
 70 71  2  0
 71 72  1  0
 73 72  2  0
 74 73  1  0
 75 49  1  0
 75 80  1  0
 75 76  1  0
 76 79  1  1
 76 77  1  0
 78 76  1  0
 80 83  1  0
 81 85  1  0
 81 80  1  0
 82 81  2  0
 85 84  1  0
 87 88  1  0
 87 85  1  0
 87 86  1  0
M  ISO  4   8 100  16 100  47 101  48 101
M  END
>  <TORSDO>  (33) 
F 19

>  <SCORE>  (33) 
-14.879

>  <name>  (33) 
33

>  <ligand_id>  (33) 
33

>  <original_smiles>  (33) 
[H]c1nn(C([H])([H])C([H])([H])Oc2c([H])c([H])c3c(c2[H])C([H])([H])N(C(=O)C([H])(N([H])C(=O)C([H])(N([H])C([H])([H])[H])C([H])([H])[H])C(C([H])([H])[H])(C([H])([H])[H])C([H])([H])[H])C([H])(C(=O)N([H])C2([H])c4c([H])c([H])c([H])c([H])c4C([H])([H])C([H])([H])C2([H])[H])C3([H])[H])c(C([H])([H])[H])c1C([H])([H])N([H])C(=O)N1C([H])([H])C([H])([H])C([H])([H])C([H])(n2nc(-c3c([H])c([H])c(Oc4c([H])c([H])c(F)c([H])c4F)c([H])c3[H])c(C(=O)N([H])[H])c2N([H])[H])C1([H])[H]

>  <smiles>  (33) 
[H]c1nn(C([H])([H])C([H])([H])Oc2c([H])c([H])c3c(c2[H])C([H])([H])N(C(=O)C([H])(N([H])C(=O)C([H])(N([H])C([H])([H])[H])C([H])([H])[H])C(C([H])([H])[H])(C([H])([H])[H])C([H])([H])[H])C([H])(C(=O)N([H])C2([H])c4c([H])c([H])c([H])c([H])c4C([H])([H])C([H])([H])C2([H])[H])C3([H])[H])c(C([H])([H])[H])c1C([H])([H])N([H])C(=O)N1C([H])([H])C([H])([H])C([H])([H])C([H])(n2nc(-c3c([H])c([H])c(Oc4c([H])c([H])c(F)c([H])c4F)c([H])c3[H])c(C(=O)N([H])[H])c2N([H])[H])C1([H])[H]

$$$$
34:0:0
     RDKit          3D

 92100  0  0  1  0  0  0  0  0999 V2000
  -31.0580  -19.5110   20.4860 C   0  0  0  0  0  3  0  0  0  0  0  0
  -28.3720  -20.0300   20.0310 C   0  0  0  0  0  3  0  0  0  0  0  0
  -30.1650  -18.4040   20.5210 C   0  0  0  0  0  0  0  0  0  0  0  0
  -29.2690  -21.1300   19.9680 C   0  0  0  0  0  0  0  0  0  0  0  0
  -30.6390  -20.8540   20.2090 C   0  0  0  0  0  0  0  0  0  0  0  0
  -28.7950  -18.7000   20.3060 C   0  0  0  0  0  0  0  0  0  0  0  0
  -27.6000  -17.4600   20.3960 Cl  0  0  0  0  0  0  0  0  0  0  0  0
  -32.8840  -21.7010   20.4090 C   0  0  0  0  0  1  0  0  0  0  0  0
  -31.5070  -21.9220   20.1380 O   0  0  0  0  0  0  0  0  0  0  0  0
  -28.7360  -22.5220   19.4880 C   0  0  0  0  0  2  0  0  0  0  0  0
  -29.1260  -23.9020   20.1650 C   0  0  0  0  0  2  0  0  0  0  0  0
  -28.1910  -25.0760   19.6650 C   0  0  0  0  0  2  0  0  0  0  0  0
  -28.3980  -26.4900   20.0280 O   0  0  0  0  0  0  0  0  0  0  0  0
  -24.5880  -31.7680   23.1080 C   0  0  0  0  0  0  0  0  0  0  0  0
  -27.2710  -27.3250   19.9690 C   0  0  0  0  0  0  0  0  0  0  0  0
  -23.4100  -30.3930   21.4300 C   0  0  0  0  0  3  0  0  0  0  0  0
  -24.8860  -28.9020   19.9770 C   0  0  0  0  0  0  0  0  0  0  0  0
  -25.9460  -30.7480   21.2720 C   0  0  0  0  0  2  0  0  0  0  0  0
  -26.0440  -29.3880   20.5970 C   0  0  0  0  0  0  0  0  0  0  0  0
  -27.2370  -28.6090   20.5900 C   0  0  0  0  0  3  0  0  0  0  0  0
  -26.0900  -26.9020   19.3090 C   0  0  0  0  0  3  0  0  0  0  0  0
  -24.9100  -27.6630   19.3250 C   0  0  0  0  0  3  0  0  0  0  0  0
  -23.6400  -29.7580   20.0350 C   0  0  0  0  0  2  0  0  0  0  0  0
  -24.6660  -30.9860   21.9940 N   0  0  0  0  0  0  0  0  0  0  0  0
  -23.4980  -32.0220   23.6410 O   0  0  0  0  0  0  0  0  0  0  0  0
  -22.7570  -29.3430   22.3610 C   0  0  0  0  0  0  0  0  0  0  0  0
  -21.4310  -29.1680   22.2380 N   0  0  0  0  0  0  0  0  0  0  0  0
  -23.4430  -28.6920   23.1540 O   0  0  0  0  0  0  0  0  0  0  0  0
  -20.9390  -29.7490   21.5740 H   0  0  0  0  0  0  0  0  0  0  0  0
  -18.0510  -27.9850   22.7440 C   0  0  0  0  0  0  0  0  0  0  0  0
  -20.6150  -28.2110   22.9880 C   0  0  0  0  0  3  0  0  0  0  0  0
  -20.6960  -26.7990   22.3620 C   0  0  0  0  0  2  0  0  0  0  0  0
  -19.5770  -26.5220   21.3530 C   0  0  0  0  0  2  0  0  0  0  0  0
  -18.2060  -26.6570   22.0210 C   0  0  0  0  0  2  0  0  0  0  0  0
  -19.1830  -28.7210   23.1840 C   0  0  0  0  0  0  0  0  0  0  0  0
  -18.9840  -29.9630   23.8230 C   0  0  0  0  0  3  0  0  0  0  0  0
  -17.6870  -30.4700   24.0260 C   0  0  0  0  0  3  0  0  0  0  0  0
  -16.5690  -29.7300   23.6030 C   0  0  0  0  0  3  0  0  0  0  0  0
  -16.7530  -28.4890   22.9650 C   0  0  0  0  0  3  0  0  0  0  0  0
  -25.8610  -32.4020   23.7490 C   0  0  0  0  0  3  0  0  0  0  0  0
  -25.5340  -33.7900   24.1030 N   0  0  0  0  0  0  0  0  0  0  0  0
  -25.8620  -34.8610   23.3670 C   0  0  0  0  0  0  0  0  0  0  0  0
  -26.5410  -34.7840   22.3400 O   0  0  0  0  0  0  0  0  0  0  0  0
  -24.9320  -33.9230   24.9020 H   0  0  0  0  0  0  0  0  0  0  0  0
  -24.1160  -36.6420   23.0320 C   0  0  0  0  0  1  0  0  0  0  0  0
  -25.3540  -36.2350   23.8470 C   0  0  0  0  0  3  0  0  0  0  0  0
  -27.4690  -37.1280   24.7150 C   0  0  0  0  0  1  0  0  0  0  0  0
  -26.3750  -37.3010   23.7630 N   0  0  0  0  0  0  0  0  0  0  0  0
  -25.9580  -38.2140   23.9230 H   0  0  0  0  0  0  0  0  0  0  0  0
  -26.3770  -31.6110   25.0130 C   0  0  1  0  0  0  0  0  0  0  0  0
  -25.2780  -31.3440   26.0700 C   0  0  0  0  0  1  0  0  0  0  0  0
  -26.9750  -30.2470   24.6000 C   0  0  0  0  0  1  0  0  0  0  0  0
  -27.5150  -32.4040   25.6970 C   0  0  0  0  0  1  0  0  0  0  0  0
  -30.7330  -16.9940   20.9150 C   0  0  0  0  0  2  0  0  0  0  0  0
  -30.6630  -14.5940   20.0760 C   0  0  0  0  0  0  0  0  0  0  0  0
  -30.2710  -12.4280   18.9340 C   0  0  0  0  0  2  0  0  0  0  0  0
  -29.2680  -12.6120   17.7780 C   0  0  0  0  0  2  0  0  0  0  0  0
  -27.8240  -12.4570   18.2890 C   0  0  0  0  0  2  0  0  0  0  0  0
  -27.5480  -13.2890   19.5720 C   0  0  0  0  0  3  0  0  0  0  0  0
  -28.6710  -13.1160   20.6210 C   0  0  0  0  0  2  0  0  0  0  0  0
  -29.9480  -13.4340   19.9650 N   0  0  0  0  0  0  0  0  0  0  0  0
  -31.7970  -14.6870   19.6040 O   0  0  0  0  0  0  0  0  0  0  0  0
  -30.0480  -15.6980   20.5920 N   0  0  0  0  0  0  0  0  0  0  0  0
  -29.0910  -15.5980   20.8960 H   0  0  0  0  0  0  0  0  0  0  0  0
  -25.1930  -13.8640   20.4230 C   0  0  0  0  0  0  0  0  0  0  0  0
  -24.1500  -13.0830   20.8380 C   0  0  0  0  0  0  0  0  0  0  0  0
  -24.6160  -11.7340   20.7700 C   0  0  0  0  0  0  0  0  0  0  0  0
  -26.2290  -12.9930   20.1270 N   0  0  0  0  0  0  0  0  0  0  0  0
  -25.8900  -11.7050   20.3960 N   0  0  0  0  0  0  0  0  0  0  0  0
  -23.9030  -10.4680   20.9830 C   0  0  0  0  0  0  0  0  0  0  0  0
  -24.3670   -9.5040   21.9040 C   0  0  0  0  0  3  0  0  0  0  0  0
  -23.6520   -8.3030   22.1050 C   0  0  0  0  0  3  0  0  0  0  0  0
  -22.4590   -8.0580   21.3840 C   0  0  0  0  0  0  0  0  0  0  0  0
  -22.0140   -9.0100   20.4510 C   0  0  0  0  0  3  0  0  0  0  0  0
  -22.7300  -10.2030   20.2480 C   0  0  0  0  0  3  0  0  0  0  0  0
  -21.7130   -6.9090   21.4960 O   0  0  0  0  0  0  0  0  0  0  0  0
  -21.6850   -6.1790   22.6560 C   0  0  0  0  0  0  0  0  0  0  0  0
  -21.2670   -6.7420   23.8820 C   0  0  0  0  0  3  0  0  0  0  0  0
  -21.1880   -5.9380   25.0360 C   0  0  0  0  0  3  0  0  0  0  0  0
  -21.5150   -4.5710   24.9650 C   0  0  0  0  0  0  0  0  0  0  0  0
  -21.9260   -4.0060   23.7450 C   0  0  0  0  0  3  0  0  0  0  0  0
  -22.0080   -4.8080   22.5920 C   0  0  0  0  0  0  0  0  0  0  0  0
  -22.3840   -4.2540   21.4140 F   0  0  0  0  0  0  0  0  0  0  0  0
  -21.4310   -3.7950   26.0720 F   0  0  0  0  0  0  0  0  0  0  0  0
  -22.7680  -13.5540   21.1880 C   0  0  0  0  0  0  0  0  0  0  0  0
  -22.0900  -12.8460   22.0860 N   0  0  0  0  0  0  0  0  0  0  0  0
  -22.3000  -14.5820   20.7040 O   0  0  0  0  0  0  0  0  0  0  0  0
  -22.4800  -12.0110   22.4980 H   0  0  0  0  0  0  0  0  0  0  0  0
  -21.1650  -13.1430   22.3650 H   0  0  0  0  0  0  0  0  0  0  0  0
  -25.3370  -15.2360   20.2510 N   0  0  0  0  0  0  0  0  0  0  0  0
  -24.5860  -15.8870   20.4490 H   0  0  0  0  0  0  0  0  0  0  0  0
  -26.1930  -15.7010   19.9720 H   0  0  0  0  0  0  0  0  0  0  0  0
  1  3  1  0
  2  6  1  0
  3 54  1  0
  4  2  2  0
  4  5  1  0
  5  1  2  0
  6  7  1  0
  6  3  2  0
  9  5  1  0
  9  8  1  0
 10  4  1  0
 10 11  1  0
 12 13  1  0
 12 11  1  0
 14 25  2  0
 15 13  1  0
 15 20  1  0
 16 24  1  0
 16 26  1  0
 17 23  1  0
 17 19  1  0
 18 24  1  0
 19 18  1  0
 20 19  2  0
 21 22  1  0
 21 15  2  0
 22 17  2  0
 23 16  1  0
 24 14  1  0
 26 28  2  0
 27 26  1  0
 29 27  1  0
 30 39  2  0
 30 35  1  0
 31 27  1  0
 31 35  1  0
 32 31  1  0
 33 34  1  0
 33 32  1  0
 34 30  1  0
 35 36  2  0
 36 37  1  0
 38 37  2  0
 39 38  1  0
 40 14  1  0
 40 41  1  0
 40 50  1  0
 41 44  1  0
 42 46  1  0
 42 41  1  0
 43 42  2  0
 46 45  1  0
 48 46  1  0
 48 49  1  0
 48 47  1  0
 50 53  1  1
 50 51  1  0
 52 50  1  0
 55 63  1  0
 56 61  1  0
 57 58  1  0
 57 56  1  0
 59 58  1  0
 59 68  1  0
 59 60  1  0
 61 55  1  0
 61 60  1  0
 62 55  2  0
 63 64  1  0
 63 54  1  0
 65 66  2  0
 66 85  1  0
 67 66  1  0
 67 70  1  0
 68 69  1  0
 68 65  1  0
 69 67  2  0
 70 71  1  0
 71 72  2  0
 73 76  1  0
 73 72  1  0
 74 73  2  0
 75 74  1  0
 75 70  2  0
 76 77  1  0
 77 78  1  0
 78 79  2  0
 80 79  1  0
 80 84  1  0
 81 80  2  0
 82 77  2  0
 82 81  1  0
 83 82  1  0
 85 86  1  0
 86 89  1  0
 86 88  1  0
 87 85  2  0
 90 65  1  0
 90 91  1  0
 92 90  1  0
M  ISO  4  12 101  13 101  55 100  63 100
M  END
>  <TORSDO>  (34) 
F 21

>  <SCORE>  (34) 
-13.535

>  <name>  (34) 
34

>  <ligand_id>  (34) 
34

>  <original_smiles>  (34) 
[H]c1c([H])c([H])c2c(c1[H])C([H])([H])C([H])([H])C([H])([H])C2([H])N([H])C(=O)C1([H])N(C(=O)C([H])(N([H])C(=O)C([H])(N([H])C([H])([H])[H])C([H])([H])[H])C(C([H])([H])[H])(C([H])([H])[H])C([H])([H])[H])C([H])([H])c2c([H])c(OC([H])([H])C([H])([H])C([H])([H])c3c([H])c(Cl)c(C([H])([H])N([H])C(=O)N4C([H])([H])C([H])([H])C([H])([H])C([H])(n5nc(-c6c([H])c([H])c(Oc7c([H])c([H])c(F)c([H])c7F)c([H])c6[H])c(C(=O)N([H])[H])c5N([H])[H])C4([H])[H])c([H])c3OC([H])([H])[H])c([H])c([H])c2C1([H])[H]

>  <smiles>  (34) 
[H]c1c([H])c([H])c2c(c1[H])C([H])([H])C([H])([H])C([H])([H])C2([H])N([H])C(=O)C1([H])N(C(=O)C([H])(N([H])C(=O)C([H])(N([H])C([H])([H])[H])C([H])([H])[H])C(C([H])([H])[H])(C([H])([H])[H])C([H])([H])[H])C([H])([H])c2c([H])c(OC([H])([H])C([H])([H])C([H])([H])c3c([H])c(Cl)c(C([H])([H])N([H])C(=O)N4C([H])([H])C([H])([H])C([H])([H])C([H])(n5nc(-c6c([H])c([H])c(Oc7c([H])c([H])c(F)c([H])c7F)c([H])c6[H])c(C(=O)N([H])[H])c5N([H])[H])C4([H])[H])c([H])c3OC([H])([H])[H])c([H])c([H])c2C1([H])[H]

$$$$
35:0:0
     RDKit          3D

 94102  0  0  1  0  0  0  0  0999 V2000
  -28.5090  -23.9790   20.1400 C   0  0  0  0  0  3  0  0  0  0  0  0
  -29.2450  -22.6900   22.5110 C   0  0  0  0  0  3  0  0  0  0  0  0
  -28.4620  -22.5680   20.2100 C   0  0  0  0  0  0  0  0  0  0  0  0
  -28.8200  -21.9150   21.4140 C   0  0  0  0  0  0  0  0  0  0  0  0
  -29.3090  -24.0970   22.4390 C   0  0  0  0  0  0  0  0  0  0  0  0
  -28.9250  -24.7610   21.2440 C   0  0  0  0  0  0  0  0  0  0  0  0
  -28.0330  -21.7770   18.9860 C   0  0  0  0  0  1  0  0  0  0  0  0
  -28.6130  -25.3100   24.5510 C   0  0  0  0  0  1  0  0  0  0  0  0
  -29.7840  -24.8470   23.6740 C   0  0  0  0  0  2  0  0  0  0  0  0
  -28.7530  -20.3980   21.5770 C   0  0  0  0  0  2  0  0  0  0  0  0
  -30.0080  -19.6780   21.0530 C   0  0  0  0  0  2  0  0  0  0  0  0
  -30.0000  -18.1620   21.3340 C   0  0  0  0  0  2  0  0  0  0  0  0
  -31.3510  -17.5020   20.9990 C   0  0  0  0  0  2  0  0  0  0  0  0
  -31.5390  -16.0890   21.5830 C   0  0  0  0  0  2  0  0  0  0  0  0
  -30.8910  -14.2950   19.9860 C   0  0  0  0  0  0  0  0  0  0  0  0
  -30.3970  -12.1580   18.8590 C   0  0  0  0  0  2  0  0  0  0  0  0
  -29.4030  -12.3050   17.6930 C   0  0  0  0  0  2  0  0  0  0  0  0
  -27.9530  -12.2250   18.2020 C   0  0  0  0  0  2  0  0  0  0  0  0
  -27.6940  -13.1580   19.4140 C   0  0  0  0  0  3  0  0  0  0  0  0
  -28.7880  -12.9890   20.4920 C   0  0  0  0  0  2  0  0  0  0  0  0
  -30.1050  -13.1940   19.8610 N   0  0  0  0  0  0  0  0  0  0  0  0
  -31.8610  -14.5180   19.2590 O   0  0  0  0  0  0  0  0  0  0  0  0
  -30.6220  -15.0840   21.0360 N   0  0  0  0  0  0  0  0  0  0  0  0
  -29.8110  -14.8470   21.5860 H   0  0  0  0  0  0  0  0  0  0  0  0
  -25.3560  -13.8770   20.2260 C   0  0  0  0  0  0  0  0  0  0  0  0
  -24.2790  -13.1550   20.6620 C   0  0  0  0  0  0  0  0  0  0  0  0
  -24.6850  -11.7850   20.6380 C   0  0  0  0  0  0  0  0  0  0  0  0
  -26.3550  -12.9500   19.9650 N   0  0  0  0  0  0  0  0  0  0  0  0
  -25.9560  -11.6880   20.2680 N   0  0  0  0  0  0  0  0  0  0  0  0
  -23.9210  -10.5570   20.8920 C   0  0  0  0  0  0  0  0  0  0  0  0
  -24.3380   -9.6140   21.8560 C   0  0  0  0  0  3  0  0  0  0  0  0
  -23.5770   -8.4490   22.0940 C   0  0  0  0  0  3  0  0  0  0  0  0
  -22.3840   -8.2200   21.3680 C   0  0  0  0  0  0  0  0  0  0  0  0
  -21.9840   -9.1510   20.3940 C   0  0  0  0  0  3  0  0  0  0  0  0
  -22.7440  -10.3090   20.1560 C   0  0  0  0  0  3  0  0  0  0  0  0
  -21.5950   -7.1040   21.5140 O   0  0  0  0  0  0  0  0  0  0  0  0
  -21.5200   -6.4250   22.7040 C   0  0  0  0  0  0  0  0  0  0  0  0
  -21.1160   -7.0600   23.8990 C   0  0  0  0  0  3  0  0  0  0  0  0
  -20.9850   -6.3100   25.0860 C   0  0  0  0  0  3  0  0  0  0  0  0
  -21.2480   -4.9260   25.0760 C   0  0  0  0  0  0  0  0  0  0  0  0
  -21.6450   -4.2920   23.8870 C   0  0  0  0  0  3  0  0  0  0  0  0
  -21.7780   -5.0390   22.7030 C   0  0  0  0  0  0  0  0  0  0  0  0
  -22.1390   -4.4180   21.5540 F   0  0  0  0  0  0  0  0  0  0  0  0
  -21.1170   -4.2040   26.2140 F   0  0  0  0  0  0  0  0  0  0  0  0
  -22.9160  -13.6920   20.9910 C   0  0  0  0  0  0  0  0  0  0  0  0
  -22.2080  -13.0470   21.9120 N   0  0  0  0  0  0  0  0  0  0  0  0
  -22.4900  -14.7210   20.4670 O   0  0  0  0  0  0  0  0  0  0  0  0
  -22.5640  -12.2160   22.3570 H   0  0  0  0  0  0  0  0  0  0  0  0
  -21.2930  -13.3910   22.1710 H   0  0  0  0  0  0  0  0  0  0  0  0
  -25.5650  -15.2350   20.0100 N   0  0  0  0  0  0  0  0  0  0  0  0
  -24.8360  -15.9250   20.1580 H   0  0  0  0  0  0  0  0  0  0  0  0
  -26.4190  -15.6320   19.6360 H   0  0  0  0  0  0  0  0  0  0  0  0
  -28.9950  -26.2870   21.1270 C   0  0  0  0  0  2  0  0  0  0  0  0
  -28.4630  -26.7970   19.9030 O   0  0  0  0  0  0  0  0  0  0  0  0
  -24.5810  -31.8160   23.1930 C   0  0  0  0  0  0  0  0  0  0  0  0
  -27.2930  -27.5070   20.0010 C   0  0  0  0  0  0  0  0  0  0  0  0
  -23.3870  -30.4170   21.5370 C   0  0  0  0  0  3  0  0  0  0  0  0
  -24.8600  -28.9380   20.0680 C   0  0  0  0  0  0  0  0  0  0  0  0
  -25.8980  -30.8390   21.3180 C   0  0  0  0  0  2  0  0  0  0  0  0
  -26.0070  -29.4800   20.6630 C   0  0  0  0  0  0  0  0  0  0  0  0
  -27.2270  -28.7670   20.6380 C   0  0  0  0  0  3  0  0  0  0  0  0
  -26.1360  -26.9780   19.3940 C   0  0  0  0  0  3  0  0  0  0  0  0
  -24.9160  -27.6830   19.4350 C   0  0  0  0  0  3  0  0  0  0  0  0
  -23.5930  -29.7630   20.1420 C   0  0  0  0  0  2  0  0  0  0  0  0
  -24.6400  -31.0380   22.0750 N   0  0  0  0  0  0  0  0  0  0  0  0
  -23.5000  -32.0540   23.7500 O   0  0  0  0  0  0  0  0  0  0  0  0
  -22.7680  -29.3660   22.4860 C   0  0  0  0  0  0  0  0  0  0  0  0
  -21.4480  -29.1530   22.3630 N   0  0  0  0  0  0  0  0  0  0  0  0
  -23.4730  -28.7460   23.2850 O   0  0  0  0  0  0  0  0  0  0  0  0
  -20.9400  -29.7080   21.6870 H   0  0  0  0  0  0  0  0  0  0  0  0
  -18.1110  -27.8580   22.8470 C   0  0  0  0  0  0  0  0  0  0  0  0
  -20.6610  -28.1820   23.1210 C   0  0  0  0  0  3  0  0  0  0  0  0
  -20.8030  -26.7620   22.5240 C   0  0  0  0  0  2  0  0  0  0  0  0
  -19.7090  -26.4220   21.5080 C   0  0  0  0  0  2  0  0  0  0  0  0
  -18.3240  -26.5230   22.1530 C   0  0  0  0  0  2  0  0  0  0  0  0
  -19.2090  -28.6430   23.2870 C   0  0  0  0  0  0  0  0  0  0  0  0
  -18.9560  -29.8930   23.8950 C   0  0  0  0  0  3  0  0  0  0  0  0
  -17.6390  -30.3570   24.0680 C   0  0  0  0  0  3  0  0  0  0  0  0
  -16.5560  -29.5680   23.6460 C   0  0  0  0  0  3  0  0  0  0  0  0
  -16.7920  -28.3200   23.0420 C   0  0  0  0  0  3  0  0  0  0  0  0
  -25.8620  -32.4610   23.8100 C   0  0  0  0  0  3  0  0  0  0  0  0
  -25.5340  -33.8510   24.1550 N   0  0  0  0  0  0  0  0  0  0  0  0
  -25.8410  -34.9130   23.3980 C   0  0  0  0  0  0  0  0  0  0  0  0
  -26.5020  -34.8270   22.3590 O   0  0  0  0  0  0  0  0  0  0  0  0
  -24.9520  -33.9900   24.9660 H   0  0  0  0  0  0  0  0  0  0  0  0
  -24.0760  -36.6760   23.0740 C   0  0  0  0  0  1  0  0  0  0  0  0
  -25.3350  -36.2900   23.8670 C   0  0  0  0  0  3  0  0  0  0  0  0
  -27.4640  -37.2070   24.6750 C   0  0  0  0  0  1  0  0  0  0  0  0
  -26.3450  -37.3620   23.7490 N   0  0  0  0  0  0  0  0  0  0  0  0
  -25.9240  -38.2720   23.9140 H   0  0  0  0  0  0  0  0  0  0  0  0
  -26.4030  -31.6850   25.0730 C   0  0  1  0  0  0  0  0  0  0  0  0
  -25.3220  -31.4160   26.1450 C   0  0  0  0  0  1  0  0  0  0  0  0
  -27.0090  -30.3230   24.6590 C   0  0  0  0  0  1  0  0  0  0  0  0
  -27.5430  -32.4920   25.7360 C   0  0  0  0  0  1  0  0  0  0  0  0
  1  3  2  0
  1  6  1  0
  3  4  1  0
  4 10  1  0
  4  2  2  0
  5  2  1  0
  5  9  1  0
  6  5  2  0
  7  3  1  0
  9  8  1  0
 11 12  1  0
 11 10  1  0
 13 12  1  0
 13 14  1  0
 15 23  1  0
 16 21  1  0
 17 18  1  0
 17 16  1  0
 19 18  1  0
 19 28  1  0
 19 20  1  0
 21 15  1  0
 21 20  1  0
 22 15  2  0
 23 14  1  0
 23 24  1  0
 25 26  2  0
 26 45  1  0
 27 26  1  0
 27 30  1  0
 28 25  1  0
 28 29  1  0
 29 27  2  0
 30 31  1  0
 31 32  2  0
 33 36  1  0
 33 32  1  0
 34 33  2  0
 35 34  1  0
 35 30  2  0
 36 37  1  0
 37 38  1  0
 38 39  2  0
 40 39  1  0
 40 44  1  0
 41 40  2  0
 42 37  2  0
 42 41  1  0
 43 42  1  0
 45 46  1  0
 46 49  1  0
 46 48  1  0
 47 45  2  0
 50 51  1  0
 50 25  1  0
 52 50  1  0
 53  6  1  0
 54 56  1  0
 54 53  1  0
 55 66  2  0
 56 61  1  0
 57 65  1  0
 57 67  1  0
 58 64  1  0
 58 60  1  0
 59 65  1  0
 60 59  1  0
 61 60  2  0
 62 63  1  0
 62 56  2  0
 63 58  2  0
 64 57  1  0
 65 55  1  0
 67 69  2  0
 68 67  1  0
 70 68  1  0
 71 80  2  0
 71 76  1  0
 72 68  1  0
 72 76  1  0
 73 72  1  0
 74 75  1  0
 74 73  1  0
 75 71  1  0
 76 77  2  0
 77 78  1  0
 79 78  2  0
 80 79  1  0
 81 55  1  0
 81 82  1  0
 81 91  1  0
 82 85  1  0
 83 87  1  0
 83 82  1  0
 84 83  2  0
 87 86  1  0
 89 87  1  0
 89 90  1  0
 89 88  1  0
 91 94  1  1
 91 92  1  0
 93 91  1  0
M  ISO  4  15 100  23 100  53 101  54 101
M  END
>  <TORSDO>  (35) 
F 23

>  <SCORE>  (35) 
-11.251

>  <name>  (35) 
35

>  <ligand_id>  (35) 
35

>  <original_smiles>  (35) 
[H]c1c([H])c([H])c2c(c1[H])C([H])([H])C([H])([H])C([H])([H])C2([H])N([H])C(=O)C1([H])N(C(=O)C([H])(N([H])C(=O)C([H])(N([H])C([H])([H])[H])C([H])([H])[H])C(C([H])([H])[H])(C([H])([H])[H])C([H])([H])[H])C([H])([H])c2c([H])c(OC([H])([H])c3c([H])c(C([H])([H])[H])c(C([H])([H])C([H])([H])C([H])([H])C([H])([H])C([H])([H])N([H])C(=O)N4C([H])([H])C([H])([H])C([H])([H])C([H])(n5nc(-c6c([H])c([H])c(Oc7c([H])c([H])c(F)c([H])c7F)c([H])c6[H])c(C(=O)N([H])[H])c5N([H])[H])C4([H])[H])c([H])c3C([H])([H])C([H])([H])[H])c([H])c([H])c2C1([H])[H]

>  <smiles>  (35) 
[H]c1c([H])c([H])c2c(c1[H])C([H])([H])C([H])([H])C([H])([H])C2([H])N([H])C(=O)C1([H])N(C(=O)C([H])(N([H])C(=O)C([H])(N([H])C([H])([H])[H])C([H])([H])[H])C(C([H])([H])[H])(C([H])([H])[H])C([H])([H])[H])C([H])([H])c2c([H])c(OC([H])([H])c3c([H])c(C([H])([H])[H])c(C([H])([H])C([H])([H])C([H])([H])C([H])([H])C([H])([H])N([H])C(=O)N4C([H])([H])C([H])([H])C([H])([H])C([H])(n5nc(-c6c([H])c([H])c(Oc7c([H])c([H])c(F)c([H])c7F)c([H])c6[H])c(C(=O)N([H])[H])c5N([H])[H])C4([H])[H])c([H])c3C([H])([H])C([H])([H])[H])c([H])c([H])c2C1([H])[H]

$$$$
36:0:0
     RDKit          3D

 92100  0  0  1  0  0  0  0  0999 V2000
  -28.3210  -23.3700   21.3040 C   0  0  0  0  0  3  0  0  0  0  0  0
  -30.5930  -22.5580   21.0340 C   0  0  0  0  0  3  0  0  0  0  0  0
  -29.7010  -23.6340   21.2760 C   0  0  0  0  0  0  0  0  0  0  0  0
  -27.8210  -22.0900   21.0020 C   0  0  0  0  0  0  0  0  0  0  0  0
  -30.1190  -21.2470   20.7440 C   0  0  0  0  0  0  0  0  0  0  0  0
  -28.7110  -21.0380   20.6630 C   0  0  0  0  0  0  0  0  0  0  0  0
  -26.3150  -21.8850   21.0300 C   0  0  0  0  0  1  0  0  0  0  0  0
  -28.1360  -19.7170   20.1720 C   0  0  0  0  0  1  0  0  0  0  0  0
  -30.1750  -25.0790   21.4970 C   0  0  0  0  0  2  0  0  0  0  0  0
  -29.5820  -26.0660   20.4590 C   0  0  0  0  0  2  0  0  0  0  0  0
  -29.6040  -27.4590   20.8480 O   0  0  0  0  0  0  0  0  0  0  0  0
  -25.0110  -32.0010   23.8580 C   0  0  0  0  0  0  0  0  0  0  0  0
  -28.3970  -28.1280   20.7230 C   0  0  0  0  0  0  0  0  0  0  0  0
  -24.1350  -30.6670   21.9710 C   0  0  0  0  0  3  0  0  0  0  0  0
  -25.8790  -29.4250   20.5850 C   0  0  0  0  0  0  0  0  0  0  0  0
  -26.6200  -31.2690   22.0990 C   0  0  0  0  0  2  0  0  0  0  0  0
  -26.9130  -29.9850   21.3480 C   0  0  0  0  0  0  0  0  0  0  0  0
  -28.1750  -29.3460   21.4110 C   0  0  0  0  0  3  0  0  0  0  0  0
  -27.3460  -27.6040   19.9330 C   0  0  0  0  0  3  0  0  0  0  0  0
  -26.0930  -28.2370   19.8710 C   0  0  0  0  0  3  0  0  0  0  0  0
  -24.5550  -30.1560   20.5690 C   0  0  0  0  0  2  0  0  0  0  0  0
  -25.2660  -31.3210   22.7040 N   0  0  0  0  0  0  0  0  0  0  0  0
  -23.8560  -32.1190   24.2900 O   0  0  0  0  0  0  0  0  0  0  0  0
  -23.4920  -29.4980   22.7520 C   0  0  0  0  0  0  0  0  0  0  0  0
  -22.2220  -29.1930   22.4380 N   0  0  0  0  0  0  0  0  0  0  0  0
  -24.1370  -28.8740   23.5990 O   0  0  0  0  0  0  0  0  0  0  0  0
  -21.7600  -29.7560   21.7370 H   0  0  0  0  0  0  0  0  0  0  0  0
  -18.9570  -27.6440   22.4210 C   0  0  0  0  0  0  0  0  0  0  0  0
  -21.4290  -28.1100   23.0180 C   0  0  0  0  0  3  0  0  0  0  0  0
  -21.7440  -26.7610   22.3310 C   0  0  0  0  0  2  0  0  0  0  0  0
  -20.7990  -26.4420   21.1680 C   0  0  0  0  0  2  0  0  0  0  0  0
  -19.3460  -26.3920   21.6530 C   0  0  0  0  0  2  0  0  0  0  0  0
  -19.9370  -28.4590   23.0480 C   0  0  0  0  0  0  0  0  0  0  0  0
  -19.5250  -29.6310   23.7200 C   0  0  0  0  0  3  0  0  0  0  0  0
  -18.1650  -29.9900   23.7730 C   0  0  0  0  0  3  0  0  0  0  0  0
  -17.1980  -29.1720   23.1630 C   0  0  0  0  0  3  0  0  0  0  0  0
  -17.5940  -28.0000   22.4940 C   0  0  0  0  0  3  0  0  0  0  0  0
  -26.1530  -32.6800   24.6760 C   0  0  0  0  0  3  0  0  0  0  0  0
  -25.7470  -34.0680   24.9340 N   0  0  0  0  0  0  0  0  0  0  0  0
  -26.1450  -35.1230   24.2100 C   0  0  0  0  0  0  0  0  0  0  0  0
  -26.9590  -35.0340   23.2870 O   0  0  0  0  0  0  0  0  0  0  0  0
  -25.0370  -34.2080   25.6380 H   0  0  0  0  0  0  0  0  0  0  0  0
  -24.4080  -36.8300   23.5840 C   0  0  0  0  0  1  0  0  0  0  0  0
  -25.5420  -36.4960   24.5660 C   0  0  0  0  0  3  0  0  0  0  0  0
  -27.5050  -37.4830   25.6600 C   0  0  0  0  0  1  0  0  0  0  0  0
  -26.5360  -37.5900   24.5710 N   0  0  0  0  0  0  0  0  0  0  0  0
  -26.0760  -38.4940   24.6450 H   0  0  0  0  0  0  0  0  0  0  0  0
  -26.4800  -31.9340   26.0280 C   0  0  1  0  0  0  0  0  0  0  0  0
  -25.2300  -31.6240   26.8840 C   0  0  0  0  0  1  0  0  0  0  0  0
  -27.2050  -30.5960   25.7520 C   0  0  0  0  0  1  0  0  0  0  0  0
  -27.4440  -32.7910   26.8810 C   0  0  0  0  0  1  0  0  0  0  0  0
  -31.1600  -20.1420   20.4450 C   0  0  0  0  0  2  0  0  0  0  0  0
  -31.0390  -18.7610   21.1650 C   0  0  0  0  0  2  0  0  0  0  0  0
  -31.8740  -17.6380   20.4970 C   0  0  0  0  0  2  0  0  0  0  0  0
  -32.1580  -15.1710   20.4980 C   0  0  0  0  0  0  0  0  0  0  0  0
  -31.7900  -12.9860   19.4300 C   0  0  0  0  0  2  0  0  0  0  0  0
  -30.9210  -13.2000   18.1720 C   0  0  0  0  0  2  0  0  0  0  0  0
  -29.4240  -13.1490   18.5330 C   0  0  0  0  0  2  0  0  0  0  0  0
  -29.0690  -14.0500   19.7470 C   0  0  0  0  0  3  0  0  0  0  0  0
  -30.0600  -13.8300   20.9160 C   0  0  0  0  0  2  0  0  0  0  0  0
  -31.4270  -14.0280   20.4040 N   0  0  0  0  0  0  0  0  0  0  0  0
  -33.3070  -15.2680   20.0610 O   0  0  0  0  0  0  0  0  0  0  0  0
  -31.4900  -16.2700   20.8950 N   0  0  0  0  0  0  0  0  0  0  0  0
  -30.5550  -16.1250   21.2470 H   0  0  0  0  0  0  0  0  0  0  0  0
  -26.6810  -14.7940   20.3490 C   0  0  0  0  0  0  0  0  0  0  0  0
  -25.5550  -14.0860   20.6760 C   0  0  0  0  0  0  0  0  0  0  0  0
  -25.9390  -12.7100   20.6730 C   0  0  0  0  0  0  0  0  0  0  0  0
  -27.6820  -13.8540   20.1680 N   0  0  0  0  0  0  0  0  0  0  0  0
  -27.2380  -12.5960   20.4210 N   0  0  0  0  0  0  0  0  0  0  0  0
  -25.1340  -11.4930   20.8390 C   0  0  0  0  0  0  0  0  0  0  0  0
  -25.4060  -10.5620   21.8670 C   0  0  0  0  0  3  0  0  0  0  0  0
  -24.6080   -9.4070   22.0160 C   0  0  0  0  0  3  0  0  0  0  0  0
  -23.5230   -9.1770   21.1390 C   0  0  0  0  0  0  0  0  0  0  0  0
  -23.2690  -10.0950   20.1040 C   0  0  0  0  0  3  0  0  0  0  0  0
  -24.0680  -11.2400   19.9520 C   0  0  0  0  0  3  0  0  0  0  0  0
  -22.7090   -8.0700   21.1930 O   0  0  0  0  0  0  0  0  0  0  0  0
  -22.3730   -7.4820   22.3850 C   0  0  0  0  0  0  0  0  0  0  0  0
  -21.7470   -8.2060   23.4230 C   0  0  0  0  0  3  0  0  0  0  0  0
  -21.3550   -7.5460   24.6050 C   0  0  0  0  0  3  0  0  0  0  0  0
  -21.5810   -6.1630   24.7480 C   0  0  0  0  0  0  0  0  0  0  0  0
  -22.2000   -5.4390   23.7140 C   0  0  0  0  0  3  0  0  0  0  0  0
  -22.5920   -6.0970   22.5350 C   0  0  0  0  0  0  0  0  0  0  0  0
  -23.1690   -5.3920   21.5330 F   0  0  0  0  0  0  0  0  0  0  0  0
  -21.1980   -5.5270   25.8810 F   0  0  0  0  0  0  0  0  0  0  0  0
  -24.1770  -14.6440   20.8860 C   0  0  0  0  0  0  0  0  0  0  0  0
  -23.3910  -14.0290   21.7620 N   0  0  0  0  0  0  0  0  0  0  0  0
  -23.8050  -15.6640   20.3060 O   0  0  0  0  0  0  0  0  0  0  0  0
  -23.6990  -13.2020   22.2540 H   0  0  0  0  0  0  0  0  0  0  0  0
  -22.4670  -14.3910   21.9460 H   0  0  0  0  0  0  0  0  0  0  0  0
  -26.9290  -16.1530   20.1750 N   0  0  0  0  0  0  0  0  0  0  0  0
  -26.2010  -16.8520   20.2630 H   0  0  0  0  0  0  0  0  0  0  0  0
  -27.8180  -16.5420   19.8890 H   0  0  0  0  0  0  0  0  0  0  0  0
  2  3  2  0
  3  1  1  0
  3  9  1  0
  4  7  1  0
  4  1  2  0
  5  2  1  0
  6  5  2  0
  6  4  1  0
  8  6  1  0
 10 11  1  0
 10  9  1  0
 12 23  2  0
 13 11  1  0
 13 18  1  0
 14 22  1  0
 14 24  1  0
 15 17  1  0
 16 22  1  0
 17 18  2  0
 17 16  1  0
 19 13  2  0
 20 19  1  0
 20 15  2  0
 21 15  1  0
 21 14  1  0
 22 12  1  0
 24 26  2  0
 25 24  1  0
 27 25  1  0
 28 37  2  0
 28 33  1  0
 29 25  1  0
 29 33  1  0
 30 29  1  0
 31 32  1  0
 31 30  1  0
 32 28  1  0
 33 34  2  0
 34 35  1  0
 36 35  2  0
 37 36  1  0
 38 12  1  0
 38 39  1  0
 38 48  1  0
 39 42  1  0
 40 44  1  0
 40 39  1  0
 41 40  2  0
 44 43  1  0
 44 46  1  0
 46 47  1  0
 46 45  1  0
 48 51  1  1
 48 49  1  0
 50 48  1  0
 52  5  1  0
 52 53  1  0
 54 63  1  0
 54 53  1  0
 55 63  1  0
 56 61  1  0
 57 58  1  0
 57 56  1  0
 59 58  1  0
 59 68  1  0
 59 60  1  0
 61 55  1  0
 61 60  1  0
 62 55  2  0
 63 64  1  0
 65 66  2  0
 66 85  1  0
 67 66  1  0
 67 70  1  0
 68 65  1  0
 68 69  1  0
 69 67  2  0
 70 71  1  0
 71 72  2  0
 73 76  1  0
 73 72  1  0
 74 73  2  0
 75 74  1  0
 75 70  2  0
 76 77  1  0
 77 82  2  0
 77 78  1  0
 78 79  2  0
 79 80  1  0
 80 84  1  0
 81 80  2  0
 82 81  1  0
 83 82  1  0
 85 86  1  0
 86 89  1  0
 86 88  1  0
 87 85  2  0
 90 91  1  0
 90 65  1  0
 92 90  1  0
M  ISO  4  10 101  11 101  55 100  63 100
M  END
>  <TORSDO>  (36) 
F 21

>  <SCORE>  (36) 
-8.722

>  <name>  (36) 
36

>  <ligand_id>  (36) 
36

>  <original_smiles>  (36) 
[H]c1c([H])c([H])c2c(c1[H])C([H])([H])C([H])([H])C([H])([H])C2([H])N([H])C(=O)C1([H])N(C(=O)C([H])(N([H])C(=O)C([H])(N([H])C([H])([H])[H])C([H])([H])[H])C(C([H])([H])[H])(C([H])([H])[H])C([H])([H])[H])C([H])([H])c2c([H])c(OC([H])([H])C([H])([H])c3c([H])c(C([H])([H])[H])c(C([H])([H])[H])c(C([H])([H])C([H])([H])C([H])([H])N([H])C(=O)N4C([H])([H])C([H])([H])C([H])([H])C([H])(n5nc(-c6c([H])c([H])c(Oc7c([H])c([H])c(F)c([H])c7F)c([H])c6[H])c(C(=O)N([H])[H])c5N([H])[H])C4([H])[H])c3[H])c([H])c([H])c2C1([H])[H]

>  <smiles>  (36) 
[H]c1c([H])c([H])c2c(c1[H])C([H])([H])C([H])([H])C([H])([H])C2([H])N([H])C(=O)C1([H])N(C(=O)C([H])(N([H])C(=O)C([H])(N([H])C([H])([H])[H])C([H])([H])[H])C(C([H])([H])[H])(C([H])([H])[H])C([H])([H])[H])C([H])([H])c2c([H])c(OC([H])([H])C([H])([H])c3c([H])c(C([H])([H])[H])c(C([H])([H])[H])c(C([H])([H])C([H])([H])C([H])([H])N([H])C(=O)N4C([H])([H])C([H])([H])C([H])([H])C([H])(n5nc(-c6c([H])c([H])c(Oc7c([H])c([H])c(F)c([H])c7F)c([H])c6[H])c(C(=O)N([H])[H])c5N([H])[H])C4([H])[H])c3[H])c([H])c([H])c2C1([H])[H]

$$$$
37:0:0
     RDKit          3D

 92100  0  0  1  0  0  0  0  0999 V2000
  -28.9680  -21.0250   19.2150 C   0  0  0  0  0  3  0  0  0  0  0  0
  -26.7420  -20.9460   19.3270 C   0  0  0  0  0  3  0  0  0  0  0  0
  -27.7810  -21.8200   19.1870 C   0  0  0  0  0  0  0  0  0  0  0  0
  -28.6210  -19.6980   19.2020 C   0  0  0  0  0  0  0  0  0  0  0  0
  -26.3960  -18.4630   19.2630 C   0  0  0  0  0  1  0  0  0  0  0  0
  -27.2350  -19.6520   19.2930 N   0  0  0  0  0  0  0  0  0  0  0  0
  -27.6920  -23.3110   18.9080 C   0  0  0  0  0  2  0  0  0  0  0  0
  -28.2090  -24.2560   20.0170 C   0  0  0  0  0  2  0  0  0  0  0  0
  -29.0800  -25.4270   19.4720 C   0  0  0  0  0  2  0  0  0  0  0  0
  -28.9540  -26.6490   20.2130 O   0  0  0  0  0  0  0  0  0  0  0  0
  -24.8130  -31.5230   23.3200 C   0  0  0  0  0  0  0  0  0  0  0  0
  -27.7520  -27.3310   20.1630 C   0  0  0  0  0  0  0  0  0  0  0  0
  -23.7490  -30.1960   21.5290 C   0  0  0  0  0  3  0  0  0  0  0  0
  -25.3260  -28.7890   20.1000 C   0  0  0  0  0  0  0  0  0  0  0  0
  -26.2770  -30.6170   21.5160 C   0  0  0  0  0  2  0  0  0  0  0  0
  -26.4310  -29.2940   20.7970 C   0  0  0  0  0  0  0  0  0  0  0  0
  -27.6450  -28.5740   20.8230 C   0  0  0  0  0  3  0  0  0  0  0  0
  -26.6240  -26.8390   19.4660 C   0  0  0  0  0  3  0  0  0  0  0  0
  -25.4200  -27.5620   19.4250 C   0  0  0  0  0  3  0  0  0  0  0  0
  -24.0570  -29.6120   20.1230 C   0  0  0  0  0  2  0  0  0  0  0  0
  -24.9630  -30.7880   22.1800 N   0  0  0  0  0  0  0  0  0  0  0  0
  -23.6910  -31.7360   23.7980 O   0  0  0  0  0  0  0  0  0  0  0  0
  -23.0740  -29.0970   22.3770 C   0  0  0  0  0  0  0  0  0  0  0  0
  -21.7600  -28.9020   22.1660 N   0  0  0  0  0  0  0  0  0  0  0  0
  -23.7260  -28.4240   23.1800 O   0  0  0  0  0  0  0  0  0  0  0  0
  -21.3020  -29.4880   21.4790 H   0  0  0  0  0  0  0  0  0  0  0  0
  -18.3700  -27.7110   22.4920 C   0  0  0  0  0  0  0  0  0  0  0  0
  -20.9240  -27.9020   22.8290 C   0  0  0  0  0  3  0  0  0  0  0  0
  -21.0220  -26.5370   22.1140 C   0  0  0  0  0  2  0  0  0  0  0  0
  -19.9310  -26.3330   21.0570 C   0  0  0  0  0  2  0  0  0  0  0  0
  -18.5390  -26.4330   21.6870 C   0  0  0  0  0  2  0  0  0  0  0  0
  -19.4910  -28.4070   23.0150 C   0  0  0  0  0  0  0  0  0  0  0  0
  -19.2810  -29.6170   23.7160 C   0  0  0  0  0  3  0  0  0  0  0  0
  -17.9800  -30.1090   23.9140 C   0  0  0  0  0  3  0  0  0  0  0  0
  -16.8730  -29.4050   23.4140 C   0  0  0  0  0  3  0  0  0  0  0  0
  -17.0670  -28.2040   22.7070 C   0  0  0  0  0  3  0  0  0  0  0  0
  -26.0380  -32.1490   24.0550 C   0  0  0  0  0  3  0  0  0  0  0  0
  -25.7180  -33.5550   24.3290 N   0  0  0  0  0  0  0  0  0  0  0  0
  -26.1520  -34.5920   23.6010 C   0  0  0  0  0  0  0  0  0  0  0  0
  -26.9380  -34.4700   22.6590 O   0  0  0  0  0  0  0  0  0  0  0  0
  -25.0330  -33.7260   25.0490 H   0  0  0  0  0  0  0  0  0  0  0  0
  -24.5150  -36.4100   23.0160 C   0  0  0  0  0  1  0  0  0  0  0  0
  -25.6340  -35.9910   23.9840 C   0  0  0  0  0  3  0  0  0  0  0  0
  -27.6500  -36.8520   25.0890 C   0  0  0  0  0  1  0  0  0  0  0  0
  -26.6910  -37.0280   24.0010 N   0  0  0  0  0  0  0  0  0  0  0  0
  -26.2830  -37.9550   24.0880 H   0  0  0  0  0  0  0  0  0  0  0  0
  -26.4190  -31.3920   25.3850 C   0  0  1  0  0  0  0  0  0  0  0  0
  -25.2170  -31.1460   26.3220 C   0  0  0  0  0  1  0  0  0  0  0  0
  -27.0590  -30.0200   25.0640 C   0  0  0  0  0  1  0  0  0  0  0  0
  -27.4800  -32.2030   26.1650 C   0  0  0  0  0  1  0  0  0  0  0  0
  -29.4370  -18.4670   18.8940 C   0  0  0  0  0  2  0  0  0  0  0  0
  -30.5280  -18.1010   19.8240 N   0  0  0  0  0  4  0  0  0  0  0  0
  -30.1250  -18.0240   20.7460 H   0  0  0  0  0  0  0  0  0  0  0  0
  -31.2250  -18.8240   19.8330 H   0  0  0  0  0  0  0  0  0  0  0  0
  -31.1370  -16.8020   19.4250 C   0  0  0  0  0  2  0  0  0  0  0  0
  -31.9720  -16.0700   20.5010 C   0  0  0  0  0  2  0  0  0  0  0  0
  -32.4980  -14.7040   19.9960 C   0  0  0  0  0  0  0  0  0  0  0  0
  -32.1530  -12.3000   19.5100 C   0  0  0  0  0  2  0  0  0  0  0  0
  -31.2320  -12.1040   18.2880 C   0  0  0  0  0  2  0  0  0  0  0  0
  -29.7550  -12.0960   18.7260 C   0  0  0  0  0  2  0  0  0  0  0  0
  -29.4060  -13.3060   19.6250 C   0  0  0  0  0  3  0  0  0  0  0  0
  -30.4380  -13.4710   20.7680 C   0  0  0  0  0  2  0  0  0  0  0  0
  -31.7810  -13.5590   20.1730 N   0  0  0  0  0  0  0  0  0  0  0  0
  -33.5740  -14.7060   19.3870 O   0  0  0  0  0  0  0  0  0  0  0  0
  -27.1630  -14.2430   20.4740 C   0  0  0  0  0  0  0  0  0  0  0  0
  -25.9990  -13.6300   20.8450 C   0  0  0  0  0  0  0  0  0  0  0  0
  -26.2350  -12.2260   20.7110 C   0  0  0  0  0  0  0  0  0  0  0  0
  -28.0430  -13.2240   20.1410 N   0  0  0  0  0  0  0  0  0  0  0  0
  -27.4890  -12.0030   20.3420 N   0  0  0  0  0  0  0  0  0  0  0  0
  -25.3210  -11.0830   20.8500 C   0  0  0  0  0  0  0  0  0  0  0  0
  -25.5530  -10.0640   21.8000 C   0  0  0  0  0  3  0  0  0  0  0  0
  -24.6560   -8.9840   21.9240 C   0  0  0  0  0  3  0  0  0  0  0  0
  -23.5060   -8.9160   21.1020 C   0  0  0  0  0  0  0  0  0  0  0  0
  -23.2930   -9.9190   20.1400 C   0  0  0  0  0  3  0  0  0  0  0  0
  -24.1910  -10.9930   20.0130 C   0  0  0  0  0  3  0  0  0  0  0  0
  -22.5920   -7.8900   21.1370 O   0  0  0  0  0  0  0  0  0  0  0  0
  -22.2770   -7.2500   22.3090 C   0  0  0  0  0  0  0  0  0  0  0  0
  -21.7280   -7.9400   23.4110 C   0  0  0  0  0  3  0  0  0  0  0  0
  -21.3540   -7.2330   24.5710 C   0  0  0  0  0  3  0  0  0  0  0  0
  -21.5190   -5.8350   24.6270 C   0  0  0  0  0  0  0  0  0  0  0  0
  -22.0580   -5.1440   23.5290 C   0  0  0  0  0  3  0  0  0  0  0  0
  -22.4350   -5.8500   22.3720 C   0  0  0  0  0  0  0  0  0  0  0  0
  -22.9360   -5.1780   21.3090 F   0  0  0  0  0  0  0  0  0  0  0  0
  -21.1510   -5.1530   25.7380 F   0  0  0  0  0  0  0  0  0  0  0  0
  -24.7050  -14.3020   21.2000 C   0  0  0  0  0  0  0  0  0  0  0  0
  -23.9050  -13.6780   22.0560 N   0  0  0  0  0  0  0  0  0  0  0  0
  -24.4200  -15.4130   20.7520 O   0  0  0  0  0  0  0  0  0  0  0  0
  -24.1510  -12.7800   22.4450 H   0  0  0  0  0  0  0  0  0  0  0  0
  -23.0340  -14.1100   22.3330 H   0  0  0  0  0  0  0  0  0  0  0  0
  -27.5430  -15.5790   20.3570 N   0  0  0  0  0  0  0  0  0  0  0  0
  -26.8040  -16.2720   20.3970 H   0  0  0  0  0  0  0  0  0  0  0  0
  -28.2520  -15.8090   19.6750 H   0  0  0  0  0  0  0  0  0  0  0  0
  3  1  1  0
  3  2  2  0
  4  1  2  0
  4  6  1  0
  5  6  1  0
  6  2  1  0
  7  3  1  0
  7  8  1  0
  9  8  1  0
  9 10  1  0
 11 22  2  0
 12 10  1  0
 12 17  1  0
 13 21  1  0
 13 23  1  0
 14 20  1  0
 14 16  1  0
 15 21  1  0
 16 17  2  0
 16 15  1  0
 18 12  2  0
 19 18  1  0
 19 14  2  0
 20 13  1  0
 21 11  1  0
 23 25  2  0
 24 23  1  0
 26 24  1  0
 27 36  2  0
 27 32  1  0
 28 24  1  0
 28 32  1  0
 29 28  1  0
 30 31  1  0
 30 29  1  0
 31 27  1  0
 32 33  2  0
 33 34  1  0
 35 34  2  0
 36 35  1  0
 37 11  1  0
 37 38  1  0
 37 47  1  0
 38 41  1  0
 39 43  1  0
 39 38  1  0
 40 39  2  0
 43 42  1  0
 43 45  1  0
 45 46  1  0
 45 44  1  0
 47 50  1  1
 47 48  1  0
 49 47  1  0
 51  4  1  0
 51 52  1  0
 52 54  1  0
 52 53  1  0
 55 52  1  0
 55 56  1  0
 57 63  1  0
 57 56  1  0
 58 63  1  0
 59 60  1  0
 59 58  1  0
 61 60  1  0
 61 68  1  0
 61 62  1  0
 63 62  1  0
 64 57  2  0
 65 66  2  0
 66 85  1  0
 67 66  1  0
 67 70  1  0
 68 69  1  0
 68 65  1  0
 69 67  2  0
 70 71  1  0
 71 72  2  0
 73 76  1  0
 73 72  1  0
 74 73  2  0
 75 74  1  0
 75 70  2  0
 76 77  1  0
 77 82  2  0
 77 78  1  0
 78 79  2  0
 79 80  1  0
 80 84  1  0
 81 80  2  0
 82 81  1  0
 83 82  1  0
 85 86  1  0
 86 89  1  0
 86 88  1  0
 87 85  2  0
 90 91  1  0
 90 65  1  0
 92 90  1  0
M  ISO  4   9 101  10 101  56 100  57 100
M  END
>  <TORSDO>  (37) 
F 23

>  <SCORE>  (37) 
-9.771

>  <name>  (37) 
37

>  <ligand_id>  (37) 
37

>  <original_smiles>  (37) 
[H]c1c([H])c([H])c2c(c1[H])C([H])([H])C([H])([H])C([H])([H])C2([H])N([H])C(=O)C1([H])N(C(=O)C([H])(N([H])C(=O)C([H])(N([H])C([H])([H])[H])C([H])([H])[H])C(C([H])([H])[H])(C([H])([H])[H])C([H])([H])[H])C([H])([H])c2c([H])c(OC([H])([H])C([H])([H])C([H])([H])c3c([H])c(C([H])([H])[N+]([H])([H])C([H])([H])C([H])([H])C(=O)N4C([H])([H])C([H])([H])C([H])([H])C([H])(n5nc(-c6c([H])c([H])c(Oc7c([H])c([H])c(F)c([H])c7F)c([H])c6[H])c(C(=O)N([H])[H])c5N([H])[H])C4([H])[H])n(C([H])([H])[H])c3[H])c([H])c([H])c2C1([H])[H]

>  <smiles>  (37) 
[H]c1c([H])c([H])c2c(c1[H])C([H])([H])C([H])([H])C([H])([H])C2([H])N([H])C(=O)C1([H])N(C(=O)C([H])(N([H])C(=O)C([H])(N([H])C([H])([H])[H])C([H])([H])[H])C(C([H])([H])[H])(C([H])([H])[H])C([H])([H])[H])C([H])([H])c2c([H])c(OC([H])([H])C([H])([H])C([H])([H])c3c([H])c(C([H])([H])[N+]([H])([H])C([H])([H])C([H])([H])C(=O)N4C([H])([H])C([H])([H])C([H])([H])C([H])(n5nc(-c6c([H])c([H])c(Oc7c([H])c([H])c(F)c([H])c7F)c([H])c6[H])c(C(=O)N([H])[H])c5N([H])[H])C4([H])[H])n(C([H])([H])[H])c3[H])c([H])c([H])c2C1([H])[H]

$$$$
38:0:0
     RDKit          3D

 90 98  0  0  1  0  0  0  0  0999 V2000
  -26.8170  -20.9250   18.6070 C   0  0  0  0  0  3  0  0  0  0  0  0
  -27.5710  -21.8220   19.3590 C   0  0  0  0  0  3  0  0  0  0  0  0
  -28.3400  -19.1730   19.2080 C   0  0  0  0  0  3  0  0  0  0  0  0
  -27.2070  -19.5980   18.5130 C   0  0  0  0  0  0  0  0  0  0  0  0
  -28.7500  -21.5300   20.0990 C   0  0  0  0  0  0  0  0  0  0  0  0
  -29.1690  -19.9750   20.0420 C   0  0  0  0  0  0  0  0  0  0  0  0
  -26.4000  -19.0970   16.1730 C   0  0  0  0  0  1  0  0  0  0  0  0
  -26.4150  -18.6410   17.6390 C   0  0  0  0  0  2  0  0  0  0  0  0
  -29.1580  -23.1180   20.7100 C   0  0  0  0  0  3  0  0  0  0  0  0
  -28.3130  -24.7160   20.3910 C   0  0  0  0  0  3  0  0  0  0  0  0
  -28.5460  -26.3380   20.6300 O   0  0  0  0  0  0  0  0  0  0  0  0
  -24.9310  -32.2520   23.6370 C   0  0  0  0  0  0  0  0  0  0  0  0
  -27.5330  -27.4350   20.5600 C   0  0  0  0  0  0  0  0  0  0  0  0
  -23.7530  -30.8760   21.9690 C   0  0  0  0  0  3  0  0  0  0  0  0
  -25.2200  -29.3010   20.5290 C   0  0  0  0  0  0  0  0  0  0  0  0
  -26.3180  -31.1040   21.8400 C   0  0  0  0  0  2  0  0  0  0  0  0
  -26.4020  -29.7040   21.1650 C   0  0  0  0  0  0  0  0  0  0  0  0
  -27.5500  -28.7890   21.1590 C   0  0  0  0  0  3  0  0  0  0  0  0
  -26.3230  -27.1900   19.8720 C   0  0  0  0  0  3  0  0  0  0  0  0
  -25.2060  -28.0650   19.8640 C   0  0  0  0  0  3  0  0  0  0  0  0
  -23.9950  -30.2120   20.5850 C   0  0  0  0  0  2  0  0  0  0  0  0
  -25.0220  -31.4370   22.5370 N   0  0  0  0  0  0  0  0  0  0  0  0
  -23.8370  -32.5290   24.1580 O   0  0  0  0  0  0  0  0  0  0  0  0
  -23.0580  -29.8640   22.9160 C   0  0  0  0  0  0  0  0  0  0  0  0
  -21.7810  -29.5350   22.6470 N   0  0  0  0  0  0  0  0  0  0  0  0
  -23.6790  -29.3700   23.8600 O   0  0  0  0  0  0  0  0  0  0  0  0
  -21.3270  -29.9850   21.8640 H   0  0  0  0  0  0  0  0  0  0  0  0
  -18.5330  -27.9300   22.8170 C   0  0  0  0  0  0  0  0  0  0  0  0
  -20.9790  -28.5500   23.3820 C   0  0  0  0  0  3  0  0  0  0  0  0
  -21.3330  -27.1090   22.9450 C   0  0  0  0  0  2  0  0  0  0  0  0
  -20.4280  -26.5790   21.8270 C   0  0  0  0  0  2  0  0  0  0  0  0
  -18.9640  -26.5780   22.2770 C   0  0  0  0  0  2  0  0  0  0  0  0
  -19.4790  -28.8620   23.3220 C   0  0  0  0  0  0  0  0  0  0  0  0
  -19.0240  -30.1170   23.7830 C   0  0  0  0  0  3  0  0  0  0  0  0
  -17.6550  -30.4440   23.7480 C   0  0  0  0  0  3  0  0  0  0  0  0
  -16.7220  -29.5130   23.2600 C   0  0  0  0  0  3  0  0  0  0  0  0
  -17.1610  -28.2590   22.8000 C   0  0  0  0  0  3  0  0  0  0  0  0
  -26.1940  -32.8900   24.2900 C   0  0  0  0  0  3  0  0  0  0  0  0
  -26.6550  -32.1450   25.6040 C   0  0  1  0  0  0  0  0  0  0  0  0
  -25.5010  -31.8530   26.5930 C   0  0  0  0  0  1  0  0  0  0  0  0
  -27.3350  -30.7990   25.2680 C   0  0  0  0  0  1  0  0  0  0  0  0
  -27.7160  -32.9950   26.3460 C   0  0  0  0  0  1  0  0  0  0  0  0
  -25.8900  -34.3020   24.5890 N   0  0  0  0  0  0  0  0  0  0  0  0
  -26.1960  -35.3370   23.7970 C   0  0  0  0  0  0  0  0  0  0  0  0
  -26.8290  -35.2040   22.7460 O   0  0  0  0  0  0  0  0  0  0  0  0
  -25.3210  -34.4780   25.4040 H   0  0  0  0  0  0  0  0  0  0  0  0
  -24.4320  -37.1110   23.5040 C   0  0  0  0  0  1  0  0  0  0  0  0
  -25.7320  -36.7410   24.2370 C   0  0  0  0  0  3  0  0  0  0  0  0
  -27.9010  -37.6880   24.8940 C   0  0  0  0  0  1  0  0  0  0  0  0
  -26.7440  -37.7960   24.0110 N   0  0  0  0  0  0  0  0  0  0  0  0
  -26.3360  -38.7190   24.1330 H   0  0  0  0  0  0  0  0  0  0  0  0
  -30.3090  -18.7800   20.5920 C   0  0  0  0  0  2  0  0  0  0  0  0
  -30.9630  -15.8450   20.4660 C   0  0  0  0  0  0  0  0  0  0  0  0
  -31.0170  -13.3930   19.5960 C   0  0  0  0  0  2  0  0  0  0  0  0
  -30.1680  -13.1840   18.3170 C   0  0  0  0  0  2  0  0  0  0  0  0
  -28.6970  -12.8980   18.6700 C   0  0  0  0  0  2  0  0  0  0  0  0
  -28.1790  -13.8410   19.7850 C   0  0  0  0  0  3  0  0  0  0  0  0
  -29.1670  -14.0080   20.9610 C   0  0  0  0  0  2  0  0  0  0  0  0
  -30.4200  -14.5310   20.3890 N   0  0  0  0  0  0  0  0  0  0  0  0
  -32.1890  -15.8650   20.2870 O   0  0  0  0  0  0  0  0  0  0  0  0
  -30.1660  -17.0960   20.5560 N   0  0  0  0  0  0  0  0  0  0  0  0
  -29.1970  -16.8400   20.6720 H   0  0  0  0  0  0  0  0  0  0  0  0
  -25.7590  -14.3490   20.4020 C   0  0  0  0  0  0  0  0  0  0  0  0
  -24.6970  -13.5530   20.7250 C   0  0  0  0  0  0  0  0  0  0  0  0
  -25.1960  -12.2140   20.7360 C   0  0  0  0  0  0  0  0  0  0  0  0
  -26.8330  -13.4970   20.2270 N   0  0  0  0  0  0  0  0  0  0  0  0
  -26.5030  -12.2060   20.4970 N   0  0  0  0  0  0  0  0  0  0  0  0
  -24.4870  -10.9380   20.9040 C   0  0  0  0  0  0  0  0  0  0  0  0
  -24.8370  -10.0240   21.9230 C   0  0  0  0  0  3  0  0  0  0  0  0
  -24.1250   -8.8160   22.0770 C   0  0  0  0  0  3  0  0  0  0  0  0
  -23.0470   -8.5110   21.2110 C   0  0  0  0  0  0  0  0  0  0  0  0
  -22.7170   -9.4140   20.1850 C   0  0  0  0  0  3  0  0  0  0  0  0
  -23.4300  -10.6140   20.0290 C   0  0  0  0  0  3  0  0  0  0  0  0
  -22.3150   -7.3480   21.2680 O   0  0  0  0  0  0  0  0  0  0  0  0
  -22.0650   -6.7140   22.4590 C   0  0  0  0  0  0  0  0  0  0  0  0
  -21.3530   -7.3460   23.5020 C   0  0  0  0  0  3  0  0  0  0  0  0
  -21.0540   -6.6340   24.6820 C   0  0  0  0  0  3  0  0  0  0  0  0
  -21.4580   -5.2920   24.8170 C   0  0  0  0  0  0  0  0  0  0  0  0
  -22.1610   -4.6600   23.7760 C   0  0  0  0  0  3  0  0  0  0  0  0
  -22.4610   -5.3690   22.5990 C   0  0  0  0  0  0  0  0  0  0  0  0
  -23.1200   -4.7480   21.5920 F   0  0  0  0  0  0  0  0  0  0  0  0
  -21.1650   -4.6060   25.9470 F   0  0  0  0  0  0  0  0  0  0  0  0
  -23.2770  -14.0020   20.9060 C   0  0  0  0  0  0  0  0  0  0  0  0
  -22.5290  -13.3260   21.7690 N   0  0  0  0  0  0  0  0  0  0  0  0
  -22.8400  -14.9930   20.3210 O   0  0  0  0  0  0  0  0  0  0  0  0
  -22.8950  -12.5250   22.2620 H   0  0  0  0  0  0  0  0  0  0  0  0
  -21.5760  -13.6120   21.9400 H   0  0  0  0  0  0  0  0  0  0  0  0
  -25.8970  -15.7220   20.2110 N   0  0  0  0  0  0  0  0  0  0  0  0
  -25.1070  -16.3540   20.2700 H   0  0  0  0  0  0  0  0  0  0  0  0
  -26.7340  -16.1690   19.8680 H   0  0  0  0  0  0  0  0  0  0  0  0
  1  2  1  0
  2  5  2  0
  3  6  2  0
  4  1  2  0
  4  3  1  0
  5  9  1  0
  6  5  1  0
  6 52  1  0
  7  8  1  0
  8  4  1  0
 10 11  1  0
 10  9  2  0
 12 23  2  0
 13 11  1  0
 13 18  1  0
 14 22  1  0
 14 24  1  0
 15 21  1  0
 15 17  1  0
 16 22  1  0
 17 16  1  0
 18 17  2  0
 19 13  2  0
 20 19  1  0
 20 15  2  0
 21 14  1  0
 22 12  1  0
 24 26  2  0
 25 24  1  0
 27 25  1  0
 28 33  1  0
 29 25  1  0
 30 29  1  0
 31 32  1  0
 31 30  1  0
 32 28  1  0
 33 29  1  0
 33 34  2  0
 35 34  1  0
 36 35  2  0
 37 28  2  0
 37 36  1  0
 38 12  1  0
 38 43  1  0
 38 39  1  0
 39 42  1  1
 39 40  1  0
 41 39  1  0
 43 46  1  0
 44 48  1  0
 44 43  1  0
 45 44  2  0
 48 47  1  0
 50 51  1  0
 50 48  1  0
 50 49  1  0
 53 61  1  0
 54 59  1  0
 55 56  1  0
 55 54  1  0
 57 56  1  0
 57 66  1  0
 57 58  1  0
 59 53  1  0
 59 58  1  0
 60 53  2  0
 61 52  1  0
 61 62  1  0
 63 64  2  0
 64 65  1  0
 64 83  1  0
 65 68  1  0
 66 63  1  0
 66 67  1  0
 67 65  2  0
 68 69  1  0
 69 70  2  0
 71 74  1  0
 71 70  1  0
 72 71  2  0
 73 72  1  0
 73 68  2  0
 74 75  1  0
 75 80  2  0
 75 76  1  0
 76 77  2  0
 77 78  1  0
 78 82  1  0
 79 78  2  0
 80 79  1  0
 81 80  1  0
 83 84  1  0
 84 87  1  0
 84 86  1  0
 85 83  2  0
 88 89  1  0
 88 63  1  0
 90 88  1  0
M  ISO  4  10 101  11 101  53 100  61 100
M  END
>  <TORSDO>  (38) 
F 20

>  <SCORE>  (38) 
-12.536

>  <name>  (38) 
38

>  <ligand_id>  (38) 
38

>  <original_smiles>  (38) 
[H]c1c([H])c([H])c2c(c1[H])C([H])([H])C([H])([H])C([H])([H])C2([H])N([H])C(=O)C1([H])N(C(=O)C([H])(N([H])C(=O)C([H])(N([H])C([H])([H])[H])C([H])([H])[H])C(C([H])([H])[H])(C([H])([H])[H])C([H])([H])[H])C([H])([H])c2c([H])c(OC([H])([H])C([H])([H])c3c([H])c([H])c(C([H])([H])C([H])([H])[H])c([H])c3C([H])([H])N([H])C(=O)N3C([H])([H])C([H])([H])C([H])([H])C([H])(n4nc(-c5c([H])c([H])c(Oc6c([H])c([H])c(F)c([H])c6F)c([H])c5[H])c(C(=O)N([H])[H])c4N([H])[H])C3([H])[H])c([H])c([H])c2C1([H])[H]

>  <smiles>  (38) 
[H]c1c([H])c([H])c2c(c1[H])C([H])([H])C([H])([H])C([H])([H])C2([H])N([H])C(=O)C1([H])N(C(=O)C([H])(N([H])C(=O)C([H])(N([H])C([H])([H])[H])C([H])([H])[H])C(C([H])([H])[H])(C([H])([H])[H])C([H])([H])[H])C([H])([H])c2c([H])c(OC([H])([H])C([H])([H])c3c([H])c([H])c(C([H])([H])C([H])([H])[H])c([H])c3C([H])([H])N([H])C(=O)N3C([H])([H])C([H])([H])C([H])([H])C([H])(n4nc(-c5c([H])c([H])c(Oc6c([H])c([H])c(F)c([H])c6F)c([H])c5[H])c(C(=O)N([H])[H])c4N([H])[H])C3([H])[H])c([H])c([H])c2C1([H])[H]

$$$$
39:0:0
     RDKit          3D

 91 99  0  0  1  0  0  0  0  0999 V2000
  -29.5480  -19.6280   21.4330 C   0  0  0  0  0  3  0  0  0  0  0  0
  -29.5300  -19.8310   19.0980 C   0  0  0  0  0  3  0  0  0  0  0  0
  -29.7310  -18.9350   20.2000 C   0  0  0  0  0  0  0  0  0  0  0  0
  -29.2800  -21.0480   21.5130 C   0  0  0  0  0  0  0  0  0  0  0  0
  -29.1510  -21.8800   20.3460 C   0  0  0  0  0  0  0  0  0  0  0  0
  -29.2620  -21.1960   19.1630 N   0  0  0  0  0  0  0  0  0  0  0  0
  -29.2600  -21.6730   22.9010 C   0  0  0  0  0  2  0  0  0  0  0  0
  -30.6550  -22.2360   24.9700 C   0  0  0  0  0  1  0  0  0  0  0  0
  -30.6500  -21.6390   23.5590 C   0  0  0  0  0  2  0  0  0  0  0  0
  -30.4590  -17.4680   20.0640 C   0  0  0  0  0  2  0  0  0  0  0  0
  -30.6530  -14.8190   20.0690 C   0  0  0  0  0  0  0  0  0  0  0  0
  -30.3640  -12.5740   18.9700 C   0  0  0  0  0  2  0  0  0  0  0  0
  -29.3490  -12.6780   17.8080 C   0  0  0  0  0  2  0  0  0  0  0  0
  -27.9130  -12.4800   18.3280 C   0  0  0  0  0  2  0  0  0  0  0  0
  -27.6220  -13.3100   19.6070 C   0  0  0  0  0  3  0  0  0  0  0  0
  -28.7540  -13.1990   20.6520 C   0  0  0  0  0  2  0  0  0  0  0  0
  -29.9960  -13.6010   19.9830 N   0  0  0  0  0  0  0  0  0  0  0  0
  -31.8230  -14.8690   19.6750 O   0  0  0  0  0  0  0  0  0  0  0  0
  -29.9640  -16.0180   20.3600 N   0  0  0  0  0  0  0  0  0  0  0  0
  -29.0080  -15.9180   20.6650 H   0  0  0  0  0  0  0  0  0  0  0  0
  -25.2910  -13.8650   20.5130 C   0  0  0  0  0  0  0  0  0  0  0  0
  -24.2480  -13.0780   20.9180 C   0  0  0  0  0  0  0  0  0  0  0  0
  -24.7050  -11.7280   20.8040 C   0  0  0  0  0  0  0  0  0  0  0  0
  -26.3150  -12.9960   20.1740 N   0  0  0  0  0  0  0  0  0  0  0  0
  -25.9750  -11.7030   20.4150 N   0  0  0  0  0  0  0  0  0  0  0  0
  -23.9870  -10.4600   20.9880 C   0  0  0  0  0  0  0  0  0  0  0  0
  -24.4340   -9.4830   21.9050 C   0  0  0  0  0  3  0  0  0  0  0  0
  -23.7120   -8.2810   22.0780 C   0  0  0  0  0  3  0  0  0  0  0  0
  -22.5310   -8.0490   21.3340 C   0  0  0  0  0  0  0  0  0  0  0  0
  -22.1040   -9.0160   20.4060 C   0  0  0  0  0  3  0  0  0  0  0  0
  -22.8240  -10.2080   20.2310 C   0  0  0  0  0  3  0  0  0  0  0  0
  -21.7800   -6.9010   21.4190 O   0  0  0  0  0  0  0  0  0  0  0  0
  -21.6930   -6.1820   22.5820 C   0  0  0  0  0  0  0  0  0  0  0  0
  -21.1790   -6.7450   23.7710 C   0  0  0  0  0  3  0  0  0  0  0  0
  -21.0420   -5.9490   24.9250 C   0  0  0  0  0  3  0  0  0  0  0  0
  -21.4090   -4.5910   24.8930 C   0  0  0  0  0  0  0  0  0  0  0  0
  -21.9140   -4.0260   23.7090 C   0  0  0  0  0  3  0  0  0  0  0  0
  -22.0530   -4.8190   22.5560 C   0  0  0  0  0  0  0  0  0  0  0  0
  -22.5220   -4.2650   21.4130 F   0  0  0  0  0  0  0  0  0  0  0  0
  -21.2710   -3.8240   26.0000 F   0  0  0  0  0  0  0  0  0  0  0  0
  -22.8720  -13.5460   21.2900 C   0  0  0  0  0  0  0  0  0  0  0  0
  -22.2020  -12.8320   22.1870 N   0  0  0  0  0  0  0  0  0  0  0  0
  -22.4020  -14.5820   20.8200 O   0  0  0  0  0  0  0  0  0  0  0  0
  -22.5990  -11.9960   22.5900 H   0  0  0  0  0  0  0  0  0  0  0  0
  -21.2810  -13.1270   22.4760 H   0  0  0  0  0  0  0  0  0  0  0  0
  -25.4460  -15.2410   20.3780 N   0  0  0  0  0  0  0  0  0  0  0  0
  -24.6850  -15.8860   20.5640 H   0  0  0  0  0  0  0  0  0  0  0  0
  -26.2610  -15.6950   19.9840 H   0  0  0  0  0  0  0  0  0  0  0  0
  -29.2520  -23.5250   20.3710 C   0  0  0  0  0  3  0  0  0  0  0  0
  -28.0750  -24.6660   20.1370 C   0  0  0  0  0  3  0  0  0  0  0  0
  -28.3240  -26.1850   20.2660 O   0  0  0  0  0  0  0  0  0  0  0  0
  -24.6700  -31.8240   23.2120 C   0  0  0  0  0  0  0  0  0  0  0  0
  -27.2520  -27.1330   20.2050 C   0  0  0  0  0  0  0  0  0  0  0  0
  -23.4750  -30.4370   21.5620 C   0  0  0  0  0  3  0  0  0  0  0  0
  -24.9260  -28.8590   20.1550 C   0  0  0  0  0  0  0  0  0  0  0  0
  -26.0290  -30.7000   21.4150 C   0  0  0  0  0  2  0  0  0  0  0  0
  -26.1020  -29.3100   20.7660 C   0  0  0  0  0  0  0  0  0  0  0  0
  -27.2670  -28.4650   20.7730 C   0  0  0  0  0  3  0  0  0  0  0  0
  -26.0470  -26.7680   19.5630 C   0  0  0  0  0  3  0  0  0  0  0  0
  -24.9080  -27.5990   19.5400 C   0  0  0  0  0  3  0  0  0  0  0  0
  -23.7050  -29.7610   20.1860 C   0  0  0  0  0  2  0  0  0  0  0  0
  -24.7450  -31.0060   22.1200 N   0  0  0  0  0  0  0  0  0  0  0  0
  -23.5810  -32.1150   23.7310 O   0  0  0  0  0  0  0  0  0  0  0  0
  -22.7860  -29.4290   22.5180 C   0  0  0  0  0  0  0  0  0  0  0  0
  -21.4580  -29.2660   22.3790 N   0  0  0  0  0  0  0  0  0  0  0  0
  -23.4470  -28.7980   23.3460 O   0  0  0  0  0  0  0  0  0  0  0  0
  -20.9820  -29.8250   21.6830 H   0  0  0  0  0  0  0  0  0  0  0  0
  -18.0550  -28.1500   22.9090 C   0  0  0  0  0  0  0  0  0  0  0  0
  -20.6230  -28.3370   23.1420 C   0  0  0  0  0  3  0  0  0  0  0  0
  -20.6780  -26.9150   22.5370 C   0  0  0  0  0  2  0  0  0  0  0  0
  -19.5520  -26.6430   21.5340 C   0  0  0  0  0  2  0  0  0  0  0  0
  -18.1840  -26.8130   22.2020 C   0  0  0  0  0  2  0  0  0  0  0  0
  -19.2000  -28.8730   23.3370 C   0  0  0  0  0  0  0  0  0  0  0  0
  -19.0240  -30.1280   23.9620 C   0  0  0  0  0  3  0  0  0  0  0  0
  -17.7360  -30.6590   24.1590 C   0  0  0  0  0  3  0  0  0  0  0  0
  -16.6050  -29.9340   23.7460 C   0  0  0  0  0  3  0  0  0  0  0  0
  -16.7660  -28.6800   23.1280 C   0  0  0  0  0  3  0  0  0  0  0  0
  -25.9480  -32.4510   23.8490 C   0  0  0  0  0  3  0  0  0  0  0  0
  -25.6380  -33.8480   24.1880 N   0  0  0  0  0  0  0  0  0  0  0  0
  -25.9370  -34.9050   23.4200 C   0  0  0  0  0  0  0  0  0  0  0  0
  -26.5710  -34.8060   22.3670 O   0  0  0  0  0  0  0  0  0  0  0  0
  -25.0710  -33.9970   25.0100 H   0  0  0  0  0  0  0  0  0  0  0  0
  -24.1730  -36.6800   23.1480 C   0  0  0  0  0  1  0  0  0  0  0  0
  -25.4590  -36.2910   23.8960 C   0  0  0  0  0  3  0  0  0  0  0  0
  -27.6150  -37.2140   24.6240 C   0  0  0  0  0  1  0  0  0  0  0  0
  -26.4720  -37.3550   23.7250 N   0  0  0  0  0  0  0  0  0  0  0  0
  -26.0610  -38.2720   23.8770 H   0  0  0  0  0  0  0  0  0  0  0  0
  -26.4480  -31.6720   25.1290 C   0  0  1  0  0  0  0  0  0  0  0  0
  -25.3390  -31.4200   26.1770 C   0  0  0  0  0  1  0  0  0  0  0  0
  -27.0440  -30.3000   24.7370 C   0  0  0  0  0  1  0  0  0  0  0  0
  -27.5860  -32.4650   25.8140 C   0  0  0  0  0  1  0  0  0  0  0  0
  1  4  1  0
  2  6  2  0
  2  3  1  0
  3  1  2  0
  4  7  1  0
  5 49  1  0
  5  4  2  0
  6  5  1  0
  7  9  1  0
  9  8  1  0
 10  3  1  0
 10 19  1  0
 11 19  1  0
 12 17  1  0
 13 14  1  0
 13 12  1  0
 15 14  1  0
 15 24  1  0
 15 16  1  0
 17 11  1  0
 17 16  1  0
 18 11  2  0
 19 20  1  0
 21 22  2  0
 22 41  1  0
 23 22  1  0
 23 26  1  0
 24 25  1  0
 24 21  1  0
 25 23  2  0
 26 27  1  0
 27 28  2  0
 29 32  1  0
 29 28  1  0
 30 29  2  0
 31 30  1  0
 31 26  2  0
 32 33  1  0
 33 34  1  0
 34 35  2  0
 36 35  1  0
 36 40  1  0
 37 36  2  0
 38 33  2  0
 38 37  1  0
 39 38  1  0
 41 42  1  0
 42 45  1  0
 42 44  1  0
 43 41  2  0
 46 21  1  0
 46 47  1  0
 48 46  1  0
 50 51  1  0
 50 49  2  0
 52 63  2  0
 53 51  1  0
 53 58  1  0
 54 62  1  0
 54 64  1  0
 55 61  1  0
 55 57  1  0
 56 62  1  0
 57 58  2  0
 57 56  1  0
 59 53  2  0
 60 59  1  0
 60 55  2  0
 61 54  1  0
 62 52  1  0
 64 66  2  0
 65 64  1  0
 67 65  1  0
 68 77  2  0
 68 73  1  0
 69 65  1  0
 69 73  1  0
 70 69  1  0
 71 72  1  0
 71 70  1  0
 72 68  1  0
 73 74  2  0
 74 75  1  0
 76 75  2  0
 77 76  1  0
 78 52  1  0
 78 79  1  0
 78 88  1  0
 79 82  1  0
 80 84  1  0
 80 79  1  0
 81 80  2  0
 84 83  1  0
 86 87  1  0
 86 84  1  0
 86 85  1  0
 88 91  1  1
 88 89  1  0
 90 88  1  0
M  ISO  4  11 100  19 100  50 101  51 101
M  END
>  <TORSDO>  (39) 
F 21

>  <SCORE>  (39) 
-13.151

>  <name>  (39) 
39

>  <ligand_id>  (39) 
39

>  <original_smiles>  (39) 
[H]c1nc(C([H])([H])C([H])([H])Oc2c([H])c([H])c3c(c2[H])C([H])([H])N(C(=O)C([H])(N([H])C(=O)C([H])(N([H])C([H])([H])[H])C([H])([H])[H])C(C([H])([H])[H])(C([H])([H])[H])C([H])([H])[H])C([H])(C(=O)N([H])C2([H])c4c([H])c([H])c([H])c([H])c4C([H])([H])C([H])([H])C2([H])[H])C3([H])[H])c(C([H])([H])C([H])([H])C([H])([H])[H])c([H])c1C([H])([H])N([H])C(=O)N1C([H])([H])C([H])([H])C([H])([H])C([H])(n2nc(-c3c([H])c([H])c(Oc4c([H])c([H])c(F)c([H])c4F)c([H])c3[H])c(C(=O)N([H])[H])c2N([H])[H])C1([H])[H]

>  <smiles>  (39) 
[H]c1nc(C([H])([H])C([H])([H])Oc2c([H])c([H])c3c(c2[H])C([H])([H])N(C(=O)C([H])(N([H])C(=O)C([H])(N([H])C([H])([H])[H])C([H])([H])[H])C(C([H])([H])[H])(C([H])([H])[H])C([H])([H])[H])C([H])(C(=O)N([H])C2([H])c4c([H])c([H])c([H])c([H])c4C([H])([H])C([H])([H])C2([H])[H])C3([H])[H])c(C([H])([H])C([H])([H])C([H])([H])[H])c([H])c1C([H])([H])N([H])C(=O)N1C([H])([H])C([H])([H])C([H])([H])C([H])(n2nc(-c3c([H])c([H])c(Oc4c([H])c([H])c(F)c([H])c4F)c([H])c3[H])c(C(=O)N([H])[H])c2N([H])[H])C1([H])[H]

$$$$
40:0:0
     RDKit          3D

 92100  0  0  1  0  0  0  0  0999 V2000
  -26.7370  -23.8170   21.6970 C   0  0  0  0  0  3  0  0  0  0  0  0
  -29.0420  -23.4500   21.1670 C   0  0  0  0  0  3  0  0  0  0  0  0
  -26.6300  -22.4780   22.0650 C   0  0  0  0  0  3  0  0  0  0  0  0
  -27.9620  -24.3750   21.2780 C   0  0  0  0  0  0  0  0  0  0  0  0
  -28.8080  -22.0860   21.5260 C   0  0  0  0  0  0  0  0  0  0  0  0
  -27.6530  -21.6330   22.0370 N   0  0  0  0  0  0  0  0  0  0  0  0
  -28.1830  -26.6250   22.6330 C   0  0  0  0  0  1  0  0  0  0  0  0
  -27.9980  -25.9440   21.2730 C   0  0  0  0  0  3  0  0  0  0  0  0
  -28.2680  -26.7870   20.0920 O   0  0  0  0  0  0  0  0  0  0  0  0
  -24.5570  -32.0100   23.2700 C   0  0  0  0  0  0  0  0  0  0  0  0
  -27.2210  -27.6850   19.9510 C   0  0  0  0  0  0  0  0  0  0  0  0
  -23.3420  -30.6290   21.6190 C   0  0  0  0  0  3  0  0  0  0  0  0
  -24.7990  -29.1600   20.1060 C   0  0  0  0  0  0  0  0  0  0  0  0
  -25.8650  -31.0240   21.3900 C   0  0  0  0  0  2  0  0  0  0  0  0
  -25.9680  -29.6880   20.6710 C   0  0  0  0  0  0  0  0  0  0  0  0
  -27.1850  -28.9640   20.5840 C   0  0  0  0  0  3  0  0  0  0  0  0
  -26.0330  -27.1920   19.3680 C   0  0  0  0  0  3  0  0  0  0  0  0
  -24.8300  -27.9130   19.4650 C   0  0  0  0  0  3  0  0  0  0  0  0
  -23.5220  -29.9710   20.2270 C   0  0  0  0  0  2  0  0  0  0  0  0
  -24.6040  -31.2270   22.1510 N   0  0  0  0  0  0  0  0  0  0  0  0
  -23.4820  -32.2560   23.8330 O   0  0  0  0  0  0  0  0  0  0  0  0
  -22.7130  -29.5840   22.5690 C   0  0  0  0  0  0  0  0  0  0  0  0
  -21.3930  -29.3660   22.4270 N   0  0  0  0  0  0  0  0  0  0  0  0
  -23.4050  -28.9700   23.3820 O   0  0  0  0  0  0  0  0  0  0  0  0
  -20.9020  -29.9010   21.7230 H   0  0  0  0  0  0  0  0  0  0  0  0
  -18.0760  -28.0060   22.8340 C   0  0  0  0  0  0  0  0  0  0  0  0
  -20.6030  -28.3940   23.1790 C   0  0  0  0  0  3  0  0  0  0  0  0
  -20.7940  -26.9570   22.6280 C   0  0  0  0  0  2  0  0  0  0  0  0
  -19.7350  -26.5600   21.5870 C   0  0  0  0  0  2  0  0  0  0  0  0
  -18.3300  -26.6580   22.1820 C   0  0  0  0  0  2  0  0  0  0  0  0
  -19.1400  -28.8260   23.2880 C   0  0  0  0  0  0  0  0  0  0  0  0
  -18.8490  -30.0910   23.8460 C   0  0  0  0  0  3  0  0  0  0  0  0
  -17.5190  -30.5190   23.9900 C   0  0  0  0  0  3  0  0  0  0  0  0
  -16.4660  -29.6930   23.5640 C   0  0  0  0  0  3  0  0  0  0  0  0
  -16.7390  -28.4400   22.9810 C   0  0  0  0  0  3  0  0  0  0  0  0
  -25.8410  -32.6430   23.8910 C   0  0  0  0  0  3  0  0  0  0  0  0
  -25.5340  -34.0360   24.2370 N   0  0  0  0  0  0  0  0  0  0  0  0
  -25.8540  -35.0960   23.4810 C   0  0  0  0  0  0  0  0  0  0  0  0
  -26.5170  -35.0180   22.4490 O   0  0  0  0  0  0  0  0  0  0  0  0
  -24.9450  -34.1850   25.0450 H   0  0  0  0  0  0  0  0  0  0  0  0
  -24.1220  -36.8870   23.1380 C   0  0  0  0  0  1  0  0  0  0  0  0
  -25.3620  -36.4800   23.9500 C   0  0  0  0  0  3  0  0  0  0  0  0
  -27.4870  -37.3630   24.7910 C   0  0  0  0  0  1  0  0  0  0  0  0
  -26.3960  -37.5320   23.8450 N   0  0  0  0  0  0  0  0  0  0  0  0
  -25.9850  -38.4510   23.9980 H   0  0  0  0  0  0  0  0  0  0  0  0
  -26.3820  -31.8550   25.1530 C   0  0  1  0  0  0  0  0  0  0  0  0
  -25.3060  -31.5930   26.2270 C   0  0  0  0  0  1  0  0  0  0  0  0
  -26.9660  -30.4830   24.7440 C   0  0  0  0  0  1  0  0  0  0  0  0
  -27.5280  -32.6530   25.8090 C   0  0  0  0  0  1  0  0  0  0  0  0
  -29.8340  -20.9770   21.4540 C   0  0  0  0  0  2  0  0  0  0  0  0
  -29.3740  -19.8500   20.5020 C   0  0  0  0  0  2  0  0  0  0  0  0
  -29.5490  -18.4120   20.9970 C   0  0  0  0  0  2  0  0  0  0  0  0
  -30.9680  -18.0410   21.4310 C   0  0  0  0  0  2  0  0  0  0  0  0
  -31.0630  -16.5910   21.9450 C   0  0  0  0  0  2  0  0  0  0  0  0
  -31.1070  -14.6180   20.3800 C   0  0  0  0  0  0  0  0  0  0  0  0
  -30.7740  -12.4560   19.2320 C   0  0  0  0  0  2  0  0  0  0  0  0
  -29.8420  -12.6270   18.0140 C   0  0  0  0  0  2  0  0  0  0  0  0
  -28.3640  -12.5100   18.4390 C   0  0  0  0  0  2  0  0  0  0  0  0
  -28.0280  -13.4070   19.6580 C   0  0  0  0  0  3  0  0  0  0  0  0
  -29.0550  -13.1890   20.7870 C   0  0  0  0  0  2  0  0  0  0  0  0
  -30.3890  -13.4750   20.2210 N   0  0  0  0  0  0  0  0  0  0  0  0
  -32.2270  -14.7940   19.9000 O   0  0  0  0  0  0  0  0  0  0  0  0
  -30.4730  -15.5700   21.0840 N   0  0  0  0  0  0  0  0  0  0  0  0
  -29.4820  -15.4300   21.1780 H   0  0  0  0  0  0  0  0  0  0  0  0
  -25.6350  -14.1080   20.2780 C   0  0  0  0  0  0  0  0  0  0  0  0
  -24.5300  -13.3790   20.6390 C   0  0  0  0  0  0  0  0  0  0  0  0
  -24.9430  -12.0140   20.6490 C   0  0  0  0  0  0  0  0  0  0  0  0
  -26.6560  -13.1880   20.1000 N   0  0  0  0  0  0  0  0  0  0  0  0
  -26.2380  -11.9250   20.3750 N   0  0  0  0  0  0  0  0  0  0  0  0
  -24.1670  -10.7840   20.8560 C   0  0  0  0  0  0  0  0  0  0  0  0
  -24.5390   -9.8430   21.8370 C   0  0  0  0  0  3  0  0  0  0  0  0
  -23.7670   -8.6760   22.0330 C   0  0  0  0  0  3  0  0  0  0  0  0
  -22.6140   -8.4480   21.2470 C   0  0  0  0  0  0  0  0  0  0  0  0
  -22.2540   -9.3870   20.2700 C   0  0  0  0  0  3  0  0  0  0  0  0
  -23.0230  -10.5440   20.0710 C   0  0  0  0  0  3  0  0  0  0  0  0
  -21.8180   -7.3330   21.3540 O   0  0  0  0  0  0  0  0  0  0  0  0
  -21.7050   -6.6440   22.5330 C   0  0  0  0  0  0  0  0  0  0  0  0
  -21.2660   -7.2640   23.7230 C   0  0  0  0  0  3  0  0  0  0  0  0
  -21.0940   -6.5020   24.8950 C   0  0  0  0  0  3  0  0  0  0  0  0
  -21.3420   -5.1170   24.8810 C   0  0  0  0  0  0  0  0  0  0  0  0
  -21.7640   -4.4940   23.6940 C   0  0  0  0  0  3  0  0  0  0  0  0
  -21.9400   -5.2530   22.5240 C   0  0  0  0  0  0  0  0  0  0  0  0
  -22.3340   -4.6410   21.3780 F   0  0  0  0  0  0  0  0  0  0  0  0
  -21.1670   -4.3860   26.0040 F   0  0  0  0  0  0  0  0  0  0  0  0
  -23.1470  -13.9160   20.8750 C   0  0  0  0  0  0  0  0  0  0  0  0
  -22.3940  -13.2730   21.7620 N   0  0  0  0  0  0  0  0  0  0  0  0
  -22.7510  -14.9390   20.3210 O   0  0  0  0  0  0  0  0  0  0  0  0
  -22.7280  -12.4400   22.2260 H   0  0  0  0  0  0  0  0  0  0  0  0
  -21.4660  -13.6090   21.9760 H   0  0  0  0  0  0  0  0  0  0  0  0
  -25.8410  -15.4710   20.0750 N   0  0  0  0  0  0  0  0  0  0  0  0
  -25.0840  -16.1420   20.1440 H   0  0  0  0  0  0  0  0  0  0  0  0
  -26.7150  -15.8930   19.7750 H   0  0  0  0  0  0  0  0  0  0  0  0
  1  3  1  0
  2  4  1  0
  2  5  2  0
  4  1  2  0
  5  6  1  0
  6  3  2  0
  8  4  1  0
  8  7  1  0
  9  8  1  0
 10 21  2  0
 11  9  1  0
 11 16  1  0
 12 20  1  0
 12 22  1  0
 13 19  1  0
 13 15  1  0
 14 20  1  0
 15 14  1  0
 16 15  2  0
 17 18  1  0
 17 11  2  0
 18 13  2  0
 19 12  1  0
 20 10  1  0
 22 24  2  0
 23 22  1  0
 25 23  1  0
 26 35  2  0
 26 31  1  0
 27 23  1  0
 27 31  1  0
 28 27  1  0
 29 30  1  0
 29 28  1  0
 30 26  1  0
 31 32  2  0
 32 33  1  0
 34 33  2  0
 35 34  1  0
 36 10  1  0
 36 37  1  0
 36 46  1  0
 37 40  1  0
 38 42  1  0
 38 37  1  0
 39 38  2  0
 42 41  1  0
 44 42  1  0
 44 45  1  0
 44 43  1  0
 46 49  1  1
 46 47  1  0
 48 46  1  0
 50  5  1  0
 51 52  1  0
 51 50  1  0
 52 53  1  0
 53 54  1  0
 55 63  1  0
 56 61  1  0
 57 58  1  0
 57 56  1  0
 59 58  1  0
 59 68  1  0
 59 60  1  0
 61 55  1  0
 61 60  1  0
 62 55  2  0
 63 64  1  0
 63 54  1  0
 65 66  2  0
 66 67  1  0
 66 85  1  0
 67 70  1  0
 68 65  1  0
 68 69  1  0
 69 67  2  0
 70 71  1  0
 71 72  2  0
 73 76  1  0
 73 72  1  0
 74 73  2  0
 75 74  1  0
 75 70  2  0
 76 77  1  0
 77 78  1  0
 78 79  2  0
 80 79  1  0
 80 84  1  0
 81 80  2  0
 82 77  2  0
 82 81  1  0
 83 82  1  0
 85 86  1  0
 86 89  1  0
 86 88  1  0
 87 85  2  0
 90 91  1  0
 90 65  1  0
 92 90  1  0
M  ISO  4   8 101   9 101  55 100  63 100
M  END
>  <TORSDO>  (40) 
F 22

>  <SCORE>  (40) 
-11.517

>  <name>  (40) 
40

>  <ligand_id>  (40) 
40

>  <original_smiles>  (40) 
[H]c1nc(C([H])([H])C([H])([H])C([H])([H])C([H])([H])C([H])([H])N([H])C(=O)N2C([H])([H])C([H])([H])C([H])([H])C([H])(n3nc(-c4c([H])c([H])c(Oc5c([H])c([H])c(F)c([H])c5F)c([H])c4[H])c(C(=O)N([H])[H])c3N([H])[H])C2([H])[H])c([H])c(C([H])(Oc2c([H])c([H])c3c(c2[H])C([H])([H])N(C(=O)C([H])(N([H])C(=O)C([H])(N([H])C([H])([H])[H])C([H])([H])[H])C(C([H])([H])[H])(C([H])([H])[H])C([H])([H])[H])C([H])(C(=O)N([H])C2([H])c4c([H])c([H])c([H])c([H])c4C([H])([H])C([H])([H])C2([H])[H])C3([H])[H])C([H])([H])[H])c1[H]

>  <smiles>  (40) 
[H]c1nc(C([H])([H])C([H])([H])C([H])([H])C([H])([H])C([H])([H])N([H])C(=O)N2C([H])([H])C([H])([H])C([H])([H])C([H])(n3nc(-c4c([H])c([H])c(Oc5c([H])c([H])c(F)c([H])c5F)c([H])c4[H])c(C(=O)N([H])[H])c3N([H])[H])C2([H])[H])c([H])c(C([H])(Oc2c([H])c([H])c3c(c2[H])C([H])([H])N(C(=O)C([H])(N([H])C(=O)C([H])(N([H])C([H])([H])[H])C([H])([H])[H])C(C([H])([H])[H])(C([H])([H])[H])C([H])([H])[H])C([H])(C(=O)N([H])C2([H])c4c([H])c([H])c([H])c([H])c4C([H])([H])C([H])([H])C2([H])[H])C3([H])[H])C([H])([H])[H])c1[H]

$$$$
41:0:0
     RDKit          3D

 88 96  0  0  1  0  0  0  0  0999 V2000
  -28.7640  -21.2820   20.9230 C   0  0  0  0  0  3  0  0  0  0  0  0
  -29.4850  -20.7160   19.0100 C   0  0  0  0  0  3  0  0  0  0  0  0
  -29.3280  -20.0320   20.2080 C   0  0  0  0  0  0  0  0  0  0  0  0
  -28.6110  -22.5820   20.2440 C   0  0  0  0  0  0  0  0  0  0  0  0
  -29.1020  -22.1090   19.0110 N   0  0  0  0  0  0  0  0  0  0  0  0
  -30.2830  -24.0080   17.9350 C   0  0  0  0  0  1  0  0  0  0  0  0
  -29.1810  -22.9470   17.8230 C   0  0  0  0  0  2  0  0  0  0  0  0
  -29.8890  -18.3630   20.6450 C   0  0  0  0  0  2  0  0  0  0  0  0
  -30.3860  -15.4200   20.2260 C   0  0  0  0  0  0  0  0  0  0  0  0
  -30.3900  -12.9580   19.3280 C   0  0  0  0  0  2  0  0  0  0  0  0
  -29.4560  -12.6750   18.1230 C   0  0  0  0  0  2  0  0  0  0  0  0
  -28.0250  -12.3690   18.5970 C   0  0  0  0  0  2  0  0  0  0  0  0
  -27.5660  -13.3460   19.7070 C   0  0  0  0  0  3  0  0  0  0  0  0
  -28.6290  -13.5530   20.8060 C   0  0  0  0  0  2  0  0  0  0  0  0
  -29.8200  -14.1050   20.1350 N   0  0  0  0  0  0  0  0  0  0  0  0
  -31.6180  -15.3910   20.0760 O   0  0  0  0  0  0  0  0  0  0  0  0
  -29.6320  -16.7240   20.2830 N   0  0  0  0  0  0  0  0  0  0  0  0
  -28.6420  -16.5350   20.2250 H   0  0  0  0  0  0  0  0  0  0  0  0
  -25.2060  -13.8750   20.5070 C   0  0  0  0  0  0  0  0  0  0  0  0
  -24.1570  -13.0870   20.8860 C   0  0  0  0  0  0  0  0  0  0  0  0
  -24.6350  -11.7420   20.8410 C   0  0  0  0  0  0  0  0  0  0  0  0
  -26.2520  -13.0110   20.2420 N   0  0  0  0  0  0  0  0  0  0  0  0
  -25.9240  -11.7210   20.5140 N   0  0  0  0  0  0  0  0  0  0  0  0
  -23.9220  -10.4720   21.0320 C   0  0  0  0  0  0  0  0  0  0  0  0
  -24.3670   -9.5040   21.9580 C   0  0  0  0  0  3  0  0  0  0  0  0
  -23.6490   -8.3020   22.1380 C   0  0  0  0  0  3  0  0  0  0  0  0
  -22.4700   -8.0600   21.3930 C   0  0  0  0  0  0  0  0  0  0  0  0
  -22.0430   -9.0170   20.4560 C   0  0  0  0  0  3  0  0  0  0  0  0
  -22.7620  -10.2110   20.2740 C   0  0  0  0  0  3  0  0  0  0  0  0
  -21.7210   -6.9110   21.4850 O   0  0  0  0  0  0  0  0  0  0  0  0
  -21.6850   -6.1670   22.6360 C   0  0  0  0  0  0  0  0  0  0  0  0
  -21.2590   -6.7140   23.8660 C   0  0  0  0  0  3  0  0  0  0  0  0
  -21.1710   -5.8940   25.0090 C   0  0  0  0  0  3  0  0  0  0  0  0
  -21.4980   -4.5270   24.9230 C   0  0  0  0  0  0  0  0  0  0  0  0
  -21.9180   -3.9800   23.6980 C   0  0  0  0  0  3  0  0  0  0  0  0
  -22.0080   -4.7960   22.5580 C   0  0  0  0  0  0  0  0  0  0  0  0
  -22.3920   -4.2590   21.3740 F   0  0  0  0  0  0  0  0  0  0  0  0
  -21.4060   -3.7380   26.0180 F   0  0  0  0  0  0  0  0  0  0  0  0
  -22.7590  -13.5510   21.1710 C   0  0  0  0  0  0  0  0  0  0  0  0
  -22.0440  -12.8450   22.0390 N   0  0  0  0  0  0  0  0  0  0  0  0
  -22.3090  -14.5760   20.6580 O   0  0  0  0  0  0  0  0  0  0  0  0
  -22.4230  -12.0170   22.4740 H   0  0  0  0  0  0  0  0  0  0  0  0
  -21.1060  -13.1350   22.2750 H   0  0  0  0  0  0  0  0  0  0  0  0
  -25.3520  -15.2490   20.3350 N   0  0  0  0  0  0  0  0  0  0  0  0
  -24.5780  -15.8920   20.4630 H   0  0  0  0  0  0  0  0  0  0  0  0
  -26.1850  -15.6980   19.9800 H   0  0  0  0  0  0  0  0  0  0  0  0
  -27.7970  -24.1550   20.4930 C   0  0  0  0  0  2  0  0  0  0  0  0
  -28.1830  -25.7700   20.2850 O   0  0  0  0  0  0  0  0  0  0  0  0
  -24.6230  -31.8790   23.1710 C   0  0  0  0  0  0  0  0  0  0  0  0
  -27.1980  -26.9160   20.2430 C   0  0  0  0  0  0  0  0  0  0  0  0
  -23.4470  -30.4680   21.5350 C   0  0  0  0  0  3  0  0  0  0  0  0
  -24.9090  -28.8400   20.1470 C   0  0  0  0  0  0  0  0  0  0  0  0
  -26.0190  -30.6610   21.4170 C   0  0  0  0  0  2  0  0  0  0  0  0
  -26.0950  -29.2370   20.7790 C   0  0  0  0  0  0  0  0  0  0  0  0
  -27.2340  -28.2990   20.7980 C   0  0  0  0  0  3  0  0  0  0  0  0
  -25.9820  -26.6940   19.5540 C   0  0  0  0  0  3  0  0  0  0  0  0
  -24.8840  -27.5910   19.5100 C   0  0  0  0  0  3  0  0  0  0  0  0
  -23.6940  -29.7690   20.1680 C   0  0  0  0  0  2  0  0  0  0  0  0
  -24.7180  -31.0310   22.0940 N   0  0  0  0  0  0  0  0  0  0  0  0
  -23.5290  -32.1740   23.6770 O   0  0  0  0  0  0  0  0  0  0  0  0
  -22.7380  -29.4840   22.5040 C   0  0  0  0  0  0  0  0  0  0  0  0
  -21.4060  -29.3330   22.3770 N   0  0  0  0  0  0  0  0  0  0  0  0
  -23.3940  -28.8570   23.3400 O   0  0  0  0  0  0  0  0  0  0  0  0
  -20.9290  -29.8900   21.6810 H   0  0  0  0  0  0  0  0  0  0  0  0
  -18.0070  -28.1710   22.9020 C   0  0  0  0  0  0  0  0  0  0  0  0
  -20.5720  -28.4050   23.1520 C   0  0  0  0  0  3  0  0  0  0  0  0
  -20.6520  -26.9730   22.5750 C   0  0  0  0  0  2  0  0  0  0  0  0
  -19.5400  -26.6670   21.5660 C   0  0  0  0  0  2  0  0  0  0  0  0
  -18.1630  -26.8230   22.2190 C   0  0  0  0  0  2  0  0  0  0  0  0
  -19.1380  -28.9200   23.3270 C   0  0  0  0  0  0  0  0  0  0  0  0
  -18.9330  -30.1800   23.9290 C   0  0  0  0  0  3  0  0  0  0  0  0
  -17.6330  -30.6900   24.1120 C   0  0  0  0  0  3  0  0  0  0  0  0
  -16.5190  -29.9390   23.7020 C   0  0  0  0  0  3  0  0  0  0  0  0
  -16.7070  -28.6800   23.1030 C   0  0  0  0  0  3  0  0  0  0  0  0
  -25.8860  -32.5290   23.8120 C   0  0  0  0  0  3  0  0  0  0  0  0
  -26.3800  -31.7720   25.1070 C   0  0  1  0  0  0  0  0  0  0  0  0
  -25.2700  -31.5480   26.1600 C   0  0  0  0  0  1  0  0  0  0  0  0
  -26.9690  -30.3890   24.7480 C   0  0  0  0  0  1  0  0  0  0  0  0
  -27.5180  -32.5740   25.7790 C   0  0  0  0  0  1  0  0  0  0  0  0
  -25.5610  -33.9290   24.1400 N   0  0  0  0  0  0  0  0  0  0  0  0
  -25.8980  -34.9910   23.3970 C   0  0  0  0  0  0  0  0  0  0  0  0
  -26.5770  -34.8960   22.3720 O   0  0  0  0  0  0  0  0  0  0  0  0
  -24.9600  -34.0760   24.9370 H   0  0  0  0  0  0  0  0  0  0  0  0
  -24.1740  -36.7940   23.0400 C   0  0  0  0  0  1  0  0  0  0  0  0
  -25.4060  -36.3780   23.8600 C   0  0  0  0  0  3  0  0  0  0  0  0
  -27.5300  -37.2600   24.7240 C   0  0  0  0  0  1  0  0  0  0  0  0
  -26.4390  -37.4340   23.7680 N   0  0  0  0  0  0  0  0  0  0  0  0
  -26.0300  -38.3530   23.9150 H   0  0  0  0  0  0  0  0  0  0  0  0
  2  5  1  0
  2  3  2  0
  3  8  1  0
  3  1  1  0
  4 47  1  0
  4  1  2  0
  5  4  1  0
  7  6  1  0
  7  5  1  0
  9 17  1  0
 10 15  1  0
 11 12  1  0
 11 10  1  0
 13 12  1  0
 13 22  1  0
 13 14  1  0
 15  9  1  0
 15 14  1  0
 16  9  2  0
 17  8  1  0
 18 17  1  0
 19 20  2  0
 20 39  1  0
 21 20  1  0
 21 24  1  0
 22 19  1  0
 22 23  1  0
 23 21  2  0
 24 25  1  0
 25 26  2  0
 27 30  1  0
 27 26  1  0
 28 27  2  0
 29 28  1  0
 29 24  2  0
 30 31  1  0
 31 32  1  0
 32 33  2  0
 34 33  1  0
 34 38  1  0
 35 34  2  0
 36 31  2  0
 36 35  1  0
 37 36  1  0
 39 40  1  0
 40 43  1  0
 40 42  1  0
 41 39  2  0
 44 45  1  0
 44 19  1  0
 46 44  1  0
 48 47  1  0
 49 60  2  0
 50 48  1  0
 50 55  1  0
 51 59  1  0
 51 61  1  0
 52 58  1  0
 52 54  1  0
 53 59  1  0
 54 55  2  0
 54 53  1  0
 56 50  2  0
 57 56  1  0
 57 52  2  0
 58 51  1  0
 59 49  1  0
 61 63  2  0
 62 61  1  0
 64 62  1  0
 65 74  2  0
 65 70  1  0
 66 62  1  0
 66 70  1  0
 67 66  1  0
 68 69  1  0
 68 67  1  0
 69 65  1  0
 70 71  2  0
 71 72  1  0
 73 72  2  0
 74 73  1  0
 75 49  1  0
 75 80  1  0
 75 76  1  0
 76 79  1  1
 76 77  1  0
 78 76  1  0
 80 83  1  0
 81 85  1  0
 81 80  1  0
 82 81  2  0
 85 84  1  0
 87 85  1  0
 87 88  1  0
 87 86  1  0
M  ISO  4   9 100  17 100  47 101  48 101
M  END
>  <TORSDO>  (41) 
F 19

>  <SCORE>  (41) 
-16.173

>  <name>  (41) 
41

>  <ligand_id>  (41) 
41

>  <original_smiles>  (41) 
[H]c1c([H])c([H])c2c(c1[H])C([H])([H])C([H])([H])C([H])([H])C2([H])N([H])C(=O)C1([H])N(C(=O)C([H])(N([H])C(=O)C([H])(N([H])C([H])([H])[H])C([H])([H])[H])C(C([H])([H])[H])(C([H])([H])[H])C([H])([H])[H])C([H])([H])c2c([H])c(OC([H])([H])c3c([H])c(C([H])([H])N([H])C(=O)N4C([H])([H])C([H])([H])C([H])([H])C([H])(n5nc(-c6c([H])c([H])c(Oc7c([H])c([H])c(F)c([H])c7F)c([H])c6[H])c(C(=O)N([H])[H])c5N([H])[H])C4([H])[H])c([H])n3C([H])([H])C([H])([H])[H])c([H])c([H])c2C1([H])[H]

>  <smiles>  (41) 
[H]c1c([H])c([H])c2c(c1[H])C([H])([H])C([H])([H])C([H])([H])C2([H])N([H])C(=O)C1([H])N(C(=O)C([H])(N([H])C(=O)C([H])(N([H])C([H])([H])[H])C([H])([H])[H])C(C([H])([H])[H])(C([H])([H])[H])C([H])([H])[H])C([H])([H])c2c([H])c(OC([H])([H])c3c([H])c(C([H])([H])N([H])C(=O)N4C([H])([H])C([H])([H])C([H])([H])C([H])(n5nc(-c6c([H])c([H])c(Oc7c([H])c([H])c(F)c([H])c7F)c([H])c6[H])c(C(=O)N([H])[H])c5N([H])[H])C4([H])[H])c([H])n3C([H])([H])C([H])([H])[H])c([H])c([H])c2C1([H])[H]

$$$$
42:0:0
     RDKit          3D

 95103  0  0  1  0  0  0  0  0999 V2000
  -27.5470  -21.5160   19.8990 C   0  0  0  0  0  3  0  0  0  0  0  0
  -27.4000  -23.7080   18.2590 C   0  0  0  0  0  3  0  0  0  0  0  0
  -28.4460  -22.5730   20.1330 C   0  0  0  0  0  0  0  0  0  0  0  0
  -28.3680  -23.6970   19.2790 C   0  0  0  0  0  0  0  0  0  0  0  0
  -26.6060  -21.6320   18.8620 C   0  0  0  0  0  0  0  0  0  0  0  0
  -29.4270  -22.4840   21.2910 C   0  0  0  0  0  1  0  0  0  0  0  0
  -26.5310  -22.7050   18.0500 N   0  0  0  0  0  0  0  0  0  0  0  0
  -29.2510  -24.9170   19.4520 C   0  0  0  0  0  2  0  0  0  0  0  0
  -28.9970  -25.6040   20.7970 C   0  0  0  0  0  2  0  0  0  0  0  0
  -28.9980  -27.0090   20.6340 O   0  0  0  0  0  0  0  0  0  0  0  0
  -24.8610  -31.9710   23.4500 C   0  0  0  0  0  0  0  0  0  0  0  0
  -27.7720  -27.6220   20.5540 C   0  0  0  0  0  0  0  0  0  0  0  0
  -23.7590  -30.4920   21.8000 C   0  0  0  0  0  3  0  0  0  0  0  0
  -25.3100  -28.9950   20.4460 C   0  0  0  0  0  0  0  0  0  0  0  0
  -26.2650  -30.9630   21.6630 C   0  0  0  0  0  2  0  0  0  0  0  0
  -26.4230  -29.5880   21.0580 C   0  0  0  0  0  0  0  0  0  0  0  0
  -27.6550  -28.9110   21.1020 C   0  0  0  0  0  3  0  0  0  0  0  0
  -26.6410  -27.0270   19.9460 C   0  0  0  0  0  3  0  0  0  0  0  0
  -25.4150  -27.7130   19.8780 C   0  0  0  0  0  3  0  0  0  0  0  0
  -24.0310  -29.7950   20.4390 C   0  0  0  0  0  2  0  0  0  0  0  0
  -24.9790  -31.1550   22.3650 N   0  0  0  0  0  0  0  0  0  0  0  0
  -23.7530  -32.2140   23.9490 O   0  0  0  0  0  0  0  0  0  0  0  0
  -23.1230  -29.4630   22.7620 C   0  0  0  0  0  0  0  0  0  0  0  0
  -21.8300  -29.1700   22.5470 N   0  0  0  0  0  0  0  0  0  0  0  0
  -23.7910  -28.9330   23.6540 O   0  0  0  0  0  0  0  0  0  0  0  0
  -21.3580  -29.6490   21.7930 H   0  0  0  0  0  0  0  0  0  0  0  0
  -18.5420  -27.7010   22.8150 C   0  0  0  0  0  0  0  0  0  0  0  0
  -21.0290  -28.2080   23.3020 C   0  0  0  0  0  3  0  0  0  0  0  0
  -21.3090  -26.7630   22.8340 C   0  0  0  0  0  2  0  0  0  0  0  0
  -20.3410  -26.2800   21.7480 C   0  0  0  0  0  2  0  0  0  0  0  0
  -18.8970  -26.3360   22.2520 C   0  0  0  0  0  2  0  0  0  0  0  0
  -19.5440  -28.5870   23.2930 C   0  0  0  0  0  0  0  0  0  0  0  0
  -19.1590  -29.8580   23.7730 C   0  0  0  0  0  3  0  0  0  0  0  0
  -17.8050  -30.2460   23.7830 C   0  0  0  0  0  3  0  0  0  0  0  0
  -16.8170  -29.3590   23.3230 C   0  0  0  0  0  3  0  0  0  0  0  0
  -17.1850  -28.0890   22.8410 C   0  0  0  0  0  3  0  0  0  0  0  0
  -26.1050  -32.6580   24.0970 C   0  0  0  0  0  3  0  0  0  0  0  0
  -26.5960  -31.9460   25.4150 C   0  0  1  0  0  0  0  0  0  0  0  0
  -25.4610  -31.6570   26.4260 C   0  0  0  0  0  1  0  0  0  0  0  0
  -27.2800  -30.6010   25.0780 C   0  0  0  0  0  1  0  0  0  0  0  0
  -27.6590  -32.8220   26.1180 C   0  0  0  0  0  1  0  0  0  0  0  0
  -25.7460  -34.0570   24.3600 N   0  0  0  0  0  0  0  0  0  0  0  0
  -26.0540  -35.0850   23.5590 C   0  0  0  0  0  0  0  0  0  0  0  0
  -26.7440  -34.9590   22.5430 O   0  0  0  0  0  0  0  0  0  0  0  0
  -25.1350  -34.2250   25.1460 H   0  0  0  0  0  0  0  0  0  0  0  0
  -24.2630  -36.7900   23.1070 C   0  0  0  0  0  1  0  0  0  0  0  0
  -25.5130  -36.4740   23.9430 C   0  0  0  0  0  3  0  0  0  0  0  0
  -27.6040  -37.4810   24.7440 C   0  0  0  0  0  1  0  0  0  0  0  0
  -26.5050  -37.5590   23.7850 N   0  0  0  0  0  0  0  0  0  0  0  0
  -26.0610  -38.4700   23.8810 H   0  0  0  0  0  0  0  0  0  0  0  0
  -25.6430  -20.5040   18.5520 C   0  0  0  0  0  2  0  0  0  0  0  0
  -26.2850  -19.4450   17.6410 C   0  0  0  0  0  2  0  0  0  0  0  0
  -27.5190  -18.8200   18.3100 C   0  0  0  0  0  2  0  0  0  0  0  0
  -28.4980  -18.1350   17.3510 C   0  0  0  0  0  2  0  0  0  0  0  0
  -29.2050  -16.9290   17.9880 C   0  0  0  0  0  2  0  0  0  0  0  0
  -30.0860  -17.1760   19.2450 C   0  0  0  0  0  2  0  0  0  0  0  0
  -29.4870  -16.5810   20.5490 C   0  0  0  0  0  2  0  0  0  0  0  0
  -31.1630  -14.8570   21.2500 C   0  0  0  0  0  0  0  0  0  0  0  0
  -30.9250  -12.8450   19.8570 C   0  0  0  0  0  2  0  0  0  0  0  0
  -30.2280  -13.2320   18.5350 C   0  0  0  0  0  2  0  0  0  0  0  0
  -28.7050  -13.4560   18.6800 C   0  0  0  0  0  2  0  0  0  0  0  0
  -28.1840  -13.2850   20.1160 C   0  0  0  0  0  3  0  0  0  0  0  0
  -29.0700  -13.4990   21.3490 C   0  0  0  0  0  2  0  0  0  0  0  0
  -30.4430  -13.7650   20.9020 N   0  0  0  0  0  0  0  0  0  0  0  0
  -32.3950  -14.8620   21.2240 O   0  0  0  0  0  0  0  0  0  0  0  0
  -31.0180  -16.9930   22.4450 C   0  0  0  0  0  1  0  0  0  0  0  0
  -30.4840  -16.0150   21.4860 N   0  0  0  0  0  0  0  0  0  0  0  0
  -25.7210  -14.2890   20.2570 C   0  0  0  0  0  0  0  0  0  0  0  0
  -24.5680  -13.5890   20.5330 C   0  0  0  0  0  0  0  0  0  0  0  0
  -24.9690  -12.2330   20.7000 C   0  0  0  0  0  0  0  0  0  0  0  0
  -26.7440  -13.3300   20.3060 N   0  0  0  0  0  0  0  0  0  0  0  0
  -26.2580  -12.1150   20.5920 N   0  0  0  0  0  0  0  0  0  0  0  0
  -24.2400  -10.9900   20.9030 C   0  0  0  0  0  0  0  0  0  0  0  0
  -24.6190  -10.0830   21.9140 C   0  0  0  0  0  3  0  0  0  0  0  0
  -23.9100   -8.8780   22.0840 C   0  0  0  0  0  3  0  0  0  0  0  0
  -22.8140   -8.5850   21.2390 C   0  0  0  0  0  0  0  0  0  0  0  0
  -22.4660   -9.4820   20.2160 C   0  0  0  0  0  3  0  0  0  0  0  0
  -23.1790  -10.6760   20.0390 C   0  0  0  0  0  3  0  0  0  0  0  0
  -22.0720   -7.4350   21.3230 O   0  0  0  0  0  0  0  0  0  0  0  0
  -21.9120   -6.7710   22.5110 C   0  0  0  0  0  0  0  0  0  0  0  0
  -21.3720   -7.4030   23.6540 C   0  0  0  0  0  3  0  0  0  0  0  0
  -21.1610   -6.6600   24.8330 C   0  0  0  0  0  3  0  0  0  0  0  0
  -21.4820   -5.2890   24.8680 C   0  0  0  0  0  0  0  0  0  0  0  0
  -22.0150   -4.6600   23.7290 C   0  0  0  0  0  3  0  0  0  0  0  0
  -22.2270   -5.3990   22.5550 C   0  0  0  0  0  0  0  0  0  0  0  0
  -22.7210   -4.7850   21.4540 F   0  0  0  0  0  0  0  0  0  0  0  0
  -21.2690   -4.5750   25.9970 F   0  0  0  0  0  0  0  0  0  0  0  0
  -23.1550  -14.0950   20.5600 C   0  0  0  0  0  0  0  0  0  0  0  0
  -22.3080  -13.4880   21.3870 N   0  0  0  0  0  0  0  0  0  0  0  0
  -22.7990  -15.0530   19.8760 O   0  0  0  0  0  0  0  0  0  0  0  0
  -22.6090  -12.7100   21.9570 H   0  0  0  0  0  0  0  0  0  0  0  0
  -21.3520  -13.8080   21.4560 H   0  0  0  0  0  0  0  0  0  0  0  0
  -25.9640  -15.6290   19.9790 N   0  0  0  0  0  0  0  0  0  0  0  0
  -25.2270  -16.3230   19.9110 H   0  0  0  0  0  0  0  0  0  0  0  0
  -26.8730  -15.9720   19.7030 H   0  0  0  0  0  0  0  0  0  0  0  0
  1  3  1  0
  2  4  1  0
  3  6  1  0
  4  8  1  0
  4  3  2  0
  5  1  2  0
  7  2  2  0
  7  5  1  0
  8  9  1  0
 10  9  1  0
 11 22  2  0
 12 10  1  0
 12 17  1  0
 13 21  1  0
 13 23  1  0
 14 16  1  0
 15 21  1  0
 16 17  2  0
 16 15  1  0
 18 12  2  0
 19 18  1  0
 19 14  2  0
 20 14  1  0
 20 13  1  0
 21 11  1  0
 23 25  2  0
 24 23  1  0
 26 24  1  0
 27 36  2  0
 27 32  1  0
 28 24  1  0
 29 28  1  0
 30 31  1  0
 30 29  1  0
 31 27  1  0
 32 28  1  0
 32 33  2  0
 33 34  1  0
 35 34  2  0
 36 35  1  0
 37 11  1  0
 37 42  1  0
 37 38  1  0
 38 41  1  1
 38 39  1  0
 40 38  1  0
 42 45  1  0
 43 47  1  0
 43 42  1  0
 44 43  2  0
 47 46  1  0
 49 50  1  0
 49 47  1  0
 49 48  1  0
 51  5  1  0
 52 53  1  0
 52 51  1  0
 54 55  1  0
 54 53  1  0
 55 56  1  0
 56 57  1  0
 57 67  1  0
 58 67  1  0
 59 64  1  0
 60 61  1  0
 60 59  1  0
 62 61  1  0
 62 71  1  0
 62 63  1  0
 64 58  1  0
 64 63  1  0
 65 58  2  0
 67 66  1  0
 68 71  1  0
 68 69  2  0
 69 88  1  0
 69 70  1  0
 70 73  1  0
 71 72  1  0
 72 70  2  0
 73 74  1  0
 74 75  2  0
 76 79  1  0
 76 75  1  0
 77 76  2  0
 78 77  1  0
 78 73  2  0
 79 80  1  0
 80 85  2  0
 80 81  1  0
 81 82  2  0
 82 83  1  0
 83 87  1  0
 84 83  2  0
 85 84  1  0
 86 85  1  0
 88 89  1  0
 89 92  1  0
 89 91  1  0
 90 88  2  0
 93 68  1  0
 94 93  1  0
 95 93  1  0
M  ISO  4   9 101  10 101  58 100  67 100
M  END
>  <TORSDO>  (42) 
F 25

>  <SCORE>  (42) 
-9.836

>  <name>  (42) 
42

>  <ligand_id>  (42) 
42

>  <original_smiles>  (42) 
[H]c1nc(C([H])([H])C([H])([H])C([H])([H])C([H])([H])C([H])([H])C([H])([H])C([H])([H])N(C(=O)N2C([H])([H])C([H])([H])C([H])([H])C([H])(n3nc(-c4c([H])c([H])c(Oc5c([H])c([H])c(F)c([H])c5F)c([H])c4[H])c(C(=O)N([H])[H])c3N([H])[H])C2([H])[H])C([H])([H])[H])c([H])c(C([H])([H])[H])c1C([H])([H])C([H])([H])Oc1c([H])c([H])c2c(c1[H])C([H])([H])N(C(=O)C([H])(N([H])C(=O)C([H])(N([H])C([H])([H])[H])C([H])([H])[H])C(C([H])([H])[H])(C([H])([H])[H])C([H])([H])[H])C([H])(C(=O)N([H])C1([H])c3c([H])c([H])c([H])c([H])c3C([H])([H])C([H])([H])C1([H])[H])C2([H])[H]

>  <smiles>  (42) 
[H]c1nc(C([H])([H])C([H])([H])C([H])([H])C([H])([H])C([H])([H])C([H])([H])C([H])([H])N(C(=O)N2C([H])([H])C([H])([H])C([H])([H])C([H])(n3nc(-c4c([H])c([H])c(Oc5c([H])c([H])c(F)c([H])c5F)c([H])c4[H])c(C(=O)N([H])[H])c3N([H])[H])C2([H])[H])C([H])([H])[H])c([H])c(C([H])([H])[H])c1C([H])([H])C([H])([H])Oc1c([H])c([H])c2c(c1[H])C([H])([H])N(C(=O)C([H])(N([H])C(=O)C([H])(N([H])C([H])([H])[H])C([H])([H])[H])C(C([H])([H])[H])(C([H])([H])[H])C([H])([H])[H])C([H])(C(=O)N([H])C1([H])c3c([H])c([H])c([H])c([H])c3C([H])([H])C([H])([H])C1([H])[H])C2([H])[H]

$$$$
43:0:0
     RDKit          3D

 89 97  0  0  1  0  0  0  0  0999 V2000
  -27.9510  -21.0620   19.7880 C   0  0  0  0  0  3  0  0  0  0  0  0
  -29.7070  -22.6950   21.0240 C   0  0  0  0  0  3  0  0  0  0  0  0
  -27.6740  -22.4800   19.8620 C   0  0  0  0  0  0  0  0  0  0  0  0
  -28.5610  -23.4030   20.5040 C   0  0  0  0  0  0  0  0  0  0  0  0
  -29.0940  -20.4370   20.3720 C   0  0  0  0  0  0  0  0  0  0  0  0
  -26.3220  -22.9490   19.3540 C   0  0  0  0  0  1  0  0  0  0  0  0
  -29.9520  -21.3190   20.9800 N   0  0  0  0  0  0  0  0  0  0  0  0
  -28.1390  -24.9330   20.9610 C   0  0  0  0  0  2  0  0  0  0  0  0
  -28.2960  -26.2700   20.2230 O   0  0  0  0  0  0  0  0  0  0  0  0
  -24.6000  -31.9000   23.2520 C   0  0  0  0  0  0  0  0  0  0  0  0
  -27.2270  -27.2240   20.2420 C   0  0  0  0  0  0  0  0  0  0  0  0
  -23.4130  -30.4940   21.6140 C   0  0  0  0  0  3  0  0  0  0  0  0
  -24.8770  -28.9230   20.2060 C   0  0  0  0  0  0  0  0  0  0  0  0
  -25.9680  -30.7810   21.4550 C   0  0  0  0  0  2  0  0  0  0  0  0
  -26.0540  -29.3900   20.8090 C   0  0  0  0  0  0  0  0  0  0  0  0
  -27.2350  -28.5590   20.8050 C   0  0  0  0  0  3  0  0  0  0  0  0
  -26.0200  -26.8420   19.6180 C   0  0  0  0  0  3  0  0  0  0  0  0
  -24.8680  -27.6560   19.6030 C   0  0  0  0  0  3  0  0  0  0  0  0
  -23.6460  -29.8140   20.2390 C   0  0  0  0  0  2  0  0  0  0  0  0
  -24.6790  -31.0800   22.1620 N   0  0  0  0  0  0  0  0  0  0  0  0
  -23.5110  -32.1800   23.7770 O   0  0  0  0  0  0  0  0  0  0  0  0
  -22.7410  -29.4810   22.5750 C   0  0  0  0  0  0  0  0  0  0  0  0
  -21.4140  -29.3030   22.4460 N   0  0  0  0  0  0  0  0  0  0  0  0
  -23.4160  -28.8550   23.3950 O   0  0  0  0  0  0  0  0  0  0  0  0
  -20.9250  -29.8600   21.7610 H   0  0  0  0  0  0  0  0  0  0  0  0
  -18.0350  -28.1000   22.9560 C   0  0  0  0  0  0  0  0  0  0  0  0
  -20.5960  -28.3590   23.2130 C   0  0  0  0  0  3  0  0  0  0  0  0
  -20.6960  -26.9300   22.6290 C   0  0  0  0  0  2  0  0  0  0  0  0
  -19.5860  -26.6140   21.6210 C   0  0  0  0  0  2  0  0  0  0  0  0
  -18.2090  -26.7530   22.2740 C   0  0  0  0  0  2  0  0  0  0  0  0
  -19.1570  -28.8610   23.3840 C   0  0  0  0  0  0  0  0  0  0  0  0
  -18.9400  -30.1210   23.9810 C   0  0  0  0  0  3  0  0  0  0  0  0
  -17.6370  -30.6240   24.1520 C   0  0  0  0  0  3  0  0  0  0  0  0
  -16.5300  -29.8590   23.7420 C   0  0  0  0  0  3  0  0  0  0  0  0
  -16.7310  -28.5990   23.1500 C   0  0  0  0  0  3  0  0  0  0  0  0
  -25.8710  -32.5440   23.8790 C   0  0  0  0  0  3  0  0  0  0  0  0
  -26.3700  -31.7930   25.1750 C   0  0  1  0  0  0  0  0  0  0  0  0
  -25.2620  -31.5680   26.2290 C   0  0  0  0  0  1  0  0  0  0  0  0
  -26.9620  -30.4100   24.8150 C   0  0  0  0  0  1  0  0  0  0  0  0
  -27.5110  -32.5990   25.8400 C   0  0  0  0  0  1  0  0  0  0  0  0
  -25.5570  -33.9470   24.1910 N   0  0  0  0  0  0  0  0  0  0  0  0
  -25.8950  -34.9930   23.4250 C   0  0  0  0  0  0  0  0  0  0  0  0
  -26.5750  -34.8770   22.4020 O   0  0  0  0  0  0  0  0  0  0  0  0
  -24.9560  -34.1060   24.9850 H   0  0  0  0  0  0  0  0  0  0  0  0
  -24.1810  -36.7910   23.0280 C   0  0  0  0  0  1  0  0  0  0  0  0
  -25.4050  -36.3870   23.8640 C   0  0  0  0  0  3  0  0  0  0  0  0
  -27.5230  -37.2740   24.7370 C   0  0  0  0  0  1  0  0  0  0  0  0
  -26.4440  -37.4360   23.7650 N   0  0  0  0  0  0  0  0  0  0  0  0
  -26.0400  -38.3590   23.8950 H   0  0  0  0  0  0  0  0  0  0  0  0
  -29.1210  -18.8100   20.6260 C   0  0  0  0  0  3  0  0  0  0  0  0
  -30.2370  -17.6440   20.2450 C   0  0  0  0  0  3  0  0  0  0  0  0
  -30.6270  -14.9460   20.1890 C   0  0  0  0  0  0  0  0  0  0  0  0
  -30.4210  -12.6500   19.1870 C   0  0  0  0  0  2  0  0  0  0  0  0
  -29.4510  -12.6650   17.9870 C   0  0  0  0  0  2  0  0  0  0  0  0
  -27.9960  -12.4680   18.4550 C   0  0  0  0  0  2  0  0  0  0  0  0
  -27.6280  -13.3570   19.6730 C   0  0  0  0  0  3  0  0  0  0  0  0
  -28.7200  -13.3380   20.7660 C   0  0  0  0  0  2  0  0  0  0  0  0
  -29.9900  -13.7150   20.1300 N   0  0  0  0  0  0  0  0  0  0  0  0
  -31.8080  -15.0130   19.8400 O   0  0  0  0  0  0  0  0  0  0  0  0
  -29.8910  -16.1210   20.4220 N   0  0  0  0  0  0  0  0  0  0  0  0
  -28.9270  -15.9390   20.6570 H   0  0  0  0  0  0  0  0  0  0  0  0
  -25.2520  -13.9130   20.4770 C   0  0  0  0  0  0  0  0  0  0  0  0
  -24.2020  -13.1260   20.8660 C   0  0  0  0  0  0  0  0  0  0  0  0
  -24.6760  -11.7800   20.8080 C   0  0  0  0  0  0  0  0  0  0  0  0
  -26.2990  -13.0480   20.2020 N   0  0  0  0  0  0  0  0  0  0  0  0
  -25.9600  -11.7570   20.4660 N   0  0  0  0  0  0  0  0  0  0  0  0
  -23.9590  -10.5090   20.9980 C   0  0  0  0  0  0  0  0  0  0  0  0
  -24.4010   -9.5430   21.9280 C   0  0  0  0  0  3  0  0  0  0  0  0
  -23.6830   -8.3410   22.1100 C   0  0  0  0  0  3  0  0  0  0  0  0
  -22.5080   -8.0940   21.3590 C   0  0  0  0  0  0  0  0  0  0  0  0
  -22.0850   -9.0500   20.4160 C   0  0  0  0  0  3  0  0  0  0  0  0
  -22.8060  -10.2440   20.2340 C   0  0  0  0  0  3  0  0  0  0  0  0
  -21.7620   -6.9440   21.4470 O   0  0  0  0  0  0  0  0  0  0  0  0
  -21.7040   -6.2090   22.6050 C   0  0  0  0  0  0  0  0  0  0  0  0
  -21.2230   -6.7590   23.8130 C   0  0  0  0  0  3  0  0  0  0  0  0
  -21.1160   -5.9500   24.9610 C   0  0  0  0  0  3  0  0  0  0  0  0
  -21.4820   -4.5910   24.9010 C   0  0  0  0  0  0  0  0  0  0  0  0
  -21.9540   -4.0410   23.6960 C   0  0  0  0  0  3  0  0  0  0  0  0
  -22.0630   -4.8470   22.5500 C   0  0  0  0  0  0  0  0  0  0  0  0
  -22.5000   -4.3060   21.3880 F   0  0  0  0  0  0  0  0  0  0  0  0
  -21.3710   -3.8120   26.0010 F   0  0  0  0  0  0  0  0  0  0  0  0
  -22.8060  -13.5940   21.1670 C   0  0  0  0  0  0  0  0  0  0  0  0
  -22.0900  -12.8860   22.0330 N   0  0  0  0  0  0  0  0  0  0  0  0
  -22.3590  -14.6270   20.6720 O   0  0  0  0  0  0  0  0  0  0  0  0
  -22.4610  -12.0540   22.4670 H   0  0  0  0  0  0  0  0  0  0  0  0
  -21.1560  -13.1910   22.2680 H   0  0  0  0  0  0  0  0  0  0  0  0
  -25.3950  -15.2870   20.3110 N   0  0  0  0  0  0  0  0  0  0  0  0
  -24.6110  -15.9220   20.4300 H   0  0  0  0  0  0  0  0  0  0  0  0
  -26.2180  -15.7460   19.9440 H   0  0  0  0  0  0  0  0  0  0  0  0
  1  3  2  0
  1  5  1  0
  3  4  1  0
  4  8  1  0
  4  2  2  0
  5 50  1  0
  5  7  2  0
  6  3  1  0
  7  2  1  0
  9 11  1  0
  9  8  1  0
 10 21  2  0
 11 16  1  0
 12 20  1  0
 12 22  1  0
 13 19  1  0
 13 15  1  0
 14 20  1  0
 15 14  1  0
 16 15  2  0
 17 11  2  0
 18 17  1  0
 18 13  2  0
 19 12  1  0
 20 10  1  0
 22 24  2  0
 23 22  1  0
 25 23  1  0
 26 35  2  0
 26 31  1  0
 27 23  1  0
 27 31  1  0
 28 27  1  0
 29 30  1  0
 29 28  1  0
 30 26  1  0
 31 32  2  0
 32 33  1  0
 34 33  2  0
 35 34  1  0
 36 10  1  0
 36 41  1  0
 36 37  1  0
 37 40  1  1
 37 38  1  0
 39 37  1  0
 41 44  1  0
 42 46  1  0
 42 41  1  0
 43 42  2  0
 46 45  1  0
 48 46  1  0
 48 49  1  0
 48 47  1  0
 51 60  1  0
 51 50  2  0
 52 60  1  0
 53 58  1  0
 54 55  1  0
 54 53  1  0
 56 55  1  0
 56 65  1  0
 56 57  1  0
 58 52  1  0
 58 57  1  0
 59 52  2  0
 60 61  1  0
 62 63  2  0
 63 82  1  0
 64 63  1  0
 64 67  1  0
 65 66  1  0
 65 62  1  0
 66 64  2  0
 67 68  1  0
 68 69  2  0
 70 73  1  0
 70 69  1  0
 71 70  2  0
 72 71  1  0
 72 67  2  0
 73 74  1  0
 74 75  1  0
 75 76  2  0
 77 76  1  0
 77 81  1  0
 78 77  2  0
 79 74  2  0
 79 78  1  0
 80 79  1  0
 82 83  1  0
 83 86  1  0
 83 85  1  0
 84 82  2  0
 87 88  1  0
 87 62  1  0
 89 87  1  0
M  ISO  4   8 101   9 101  52 100  60 100
M  END
>  <TORSDO>  (43) 
F 19

>  <SCORE>  (43) 
-14.197

>  <name>  (43) 
43

>  <ligand_id>  (43) 
43

>  <original_smiles>  (43) 
[H]c1nc(C([H])([H])C([H])([H])N([H])C(=O)N2C([H])([H])C([H])([H])C([H])([H])C([H])(n3nc(-c4c([H])c([H])c(Oc5c([H])c([H])c(F)c([H])c5F)c([H])c4[H])c(C(=O)N([H])[H])c3N([H])[H])C2([H])[H])c([H])c(C([H])([H])[H])c1C([H])([H])Oc1c([H])c([H])c2c(c1[H])C([H])([H])N(C(=O)C([H])(N([H])C(=O)C([H])(N([H])C([H])([H])[H])C([H])([H])[H])C(C([H])([H])[H])(C([H])([H])[H])C([H])([H])[H])C([H])(C(=O)N([H])C1([H])c3c([H])c([H])c([H])c([H])c3C([H])([H])C([H])([H])C1([H])[H])C2([H])[H]

>  <smiles>  (43) 
[H]c1nc(C([H])([H])C([H])([H])N([H])C(=O)N2C([H])([H])C([H])([H])C([H])([H])C([H])(n3nc(-c4c([H])c([H])c(Oc5c([H])c([H])c(F)c([H])c5F)c([H])c4[H])c(C(=O)N([H])[H])c3N([H])[H])C2([H])[H])c([H])c(C([H])([H])[H])c1C([H])([H])Oc1c([H])c([H])c2c(c1[H])C([H])([H])N(C(=O)C([H])(N([H])C(=O)C([H])(N([H])C([H])([H])[H])C([H])([H])[H])C(C([H])([H])[H])(C([H])([H])[H])C([H])([H])[H])C([H])(C(=O)N([H])C1([H])c3c([H])c([H])c([H])c([H])c3C([H])([H])C([H])([H])C1([H])[H])C2([H])[H]

$$$$
44:0:0
     RDKit          3D

 93101  0  0  1  0  0  0  0  0999 V2000
  -30.8870  -18.4690   21.8610 C   0  0  0  0  0  3  0  0  0  0  0  0
  -31.0130  -19.8600   21.6980 C   0  0  0  0  0  3  0  0  0  0  0  0
  -29.8580  -17.7790   21.1850 C   0  0  0  0  0  0  0  0  0  0  0  0
  -30.1180  -20.5350   20.8520 C   0  0  0  0  0  0  0  0  0  0  0  0
  -28.9600  -18.5560   20.4030 C   0  0  0  0  0  0  0  0  0  0  0  0
  -29.1080  -19.8910   20.2310 N   0  0  0  0  0  0  0  0  0  0  0  0
  -26.4390  -18.2410   20.3920 C   0  0  0  0  0  1  0  0  0  0  0  0
  -27.7640  -17.9710   19.6660 C   0  0  0  0  0  2  0  0  0  0  0  0
  -29.8280  -16.2360   21.2590 C   0  0  0  0  0  2  0  0  0  0  0  0
  -31.0370  -14.3640   20.1950 C   0  0  0  0  0  0  0  0  0  0  0  0
  -30.6530  -12.1680   19.1690 C   0  0  0  0  0  2  0  0  0  0  0  0
  -29.7060  -12.3530   17.9690 C   0  0  0  0  0  2  0  0  0  0  0  0
  -28.2290  -12.3170   18.4170 C   0  0  0  0  0  2  0  0  0  0  0  0
  -27.9340  -13.1750   19.6790 C   0  0  0  0  0  3  0  0  0  0  0  0
  -29.0100  -12.9700   20.7670 C   0  0  0  0  0  2  0  0  0  0  0  0
  -30.3190  -13.2100   20.1480 N   0  0  0  0  0  0  0  0  0  0  0  0
  -32.2330  -14.3980   19.8910 O   0  0  0  0  0  0  0  0  0  0  0  0
  -30.2990  -15.5010   20.0520 N   0  0  0  0  0  0  0  0  0  0  0  0
  -25.5760  -13.8500   20.4590 C   0  0  0  0  0  0  0  0  0  0  0  0
  -24.4920  -13.1120   20.8420 C   0  0  0  0  0  0  0  0  0  0  0  0
  -24.9030  -11.7450   20.7810 C   0  0  0  0  0  0  0  0  0  0  0  0
  -26.5850  -12.9380   20.1920 N   0  0  0  0  0  0  0  0  0  0  0  0
  -26.1840  -11.6650   20.4440 N   0  0  0  0  0  0  0  0  0  0  0  0
  -24.1360  -10.5080   20.9690 C   0  0  0  0  0  0  0  0  0  0  0  0
  -24.5560   -9.5070   21.8700 C   0  0  0  0  0  3  0  0  0  0  0  0
  -23.7910   -8.3340   22.0460 C   0  0  0  0  0  3  0  0  0  0  0  0
  -22.5890   -8.1550   21.3210 C   0  0  0  0  0  0  0  0  0  0  0  0
  -22.1850   -9.1450   20.4080 C   0  0  0  0  0  3  0  0  0  0  0  0
  -22.9520  -10.3090   20.2300 C   0  0  0  0  0  3  0  0  0  0  0  0
  -21.7960   -7.0370   21.4090 O   0  0  0  0  0  0  0  0  0  0  0  0
  -21.7370   -6.2850   22.5550 C   0  0  0  0  0  0  0  0  0  0  0  0
  -21.3550   -6.8440   23.7930 C   0  0  0  0  0  3  0  0  0  0  0  0
  -21.2400   -6.0200   24.9310 C   0  0  0  0  0  3  0  0  0  0  0  0
  -21.4980   -4.6410   24.8320 C   0  0  0  0  0  0  0  0  0  0  0  0
  -21.8740   -4.0810   23.5980 C   0  0  0  0  0  3  0  0  0  0  0  0
  -21.9910   -4.9010   22.4620 C   0  0  0  0  0  0  0  0  0  0  0  0
  -22.3330   -4.3550   21.2700 F   0  0  0  0  0  0  0  0  0  0  0  0
  -21.3800   -3.8470   25.9220 F   0  0  0  0  0  0  0  0  0  0  0  0
  -23.1190  -13.6360   21.1480 C   0  0  0  0  0  0  0  0  0  0  0  0
  -22.3880  -12.9650   22.0310 N   0  0  0  0  0  0  0  0  0  0  0  0
  -22.7030  -14.6760   20.6380 O   0  0  0  0  0  0  0  0  0  0  0  0
  -22.7360  -12.1230   22.4670 H   0  0  0  0  0  0  0  0  0  0  0  0
  -21.4670  -13.2990   22.2760 H   0  0  0  0  0  0  0  0  0  0  0  0
  -25.7780  -15.2150   20.2860 N   0  0  0  0  0  0  0  0  0  0  0  0
  -25.0200  -15.8790   20.3890 H   0  0  0  0  0  0  0  0  0  0  0  0
  -26.6030  -15.6080   19.8580 H   0  0  0  0  0  0  0  0  0  0  0  0
  -29.2490  -16.3420   17.9060 C   0  0  0  0  0  1  0  0  0  0  0  0
  -30.4970  -16.2890   18.8030 C   0  0  0  0  0  2  0  0  0  0  0  0
  -30.3810  -21.9880   20.4540 C   0  0  0  0  0  2  0  0  0  0  0  0
  -29.1630  -22.9350   20.4980 C   0  0  0  0  0  2  0  0  0  0  0  0
  -29.5110  -24.4020   20.1400 C   0  0  0  0  0  2  0  0  0  0  0  0
  -28.2630  -25.1910   19.7160 C   0  0  0  0  0  2  0  0  0  0  0  0
  -28.4430  -26.6120   19.7300 O   0  0  0  0  0  0  0  0  0  0  0  0
  -24.5680  -31.5690   23.0380 C   0  0  0  0  0  0  0  0  0  0  0  0
  -27.2690  -27.3390   19.7300 C   0  0  0  0  0  0  0  0  0  0  0  0
  -23.3800  -30.2430   21.3220 C   0  0  0  0  0  3  0  0  0  0  0  0
  -24.8550  -28.8100   19.8170 C   0  0  0  0  0  0  0  0  0  0  0  0
  -25.9000  -30.6470   21.1460 C   0  0  0  0  0  2  0  0  0  0  0  0
  -26.0050  -29.3130   20.4370 C   0  0  0  0  0  0  0  0  0  0  0  0
  -27.2150  -28.5850   20.3910 C   0  0  0  0  0  3  0  0  0  0  0  0
  -26.1000  -26.8570   19.0910 C   0  0  0  0  0  3  0  0  0  0  0  0
  -24.8970  -27.5800   19.1410 C   0  0  0  0  0  3  0  0  0  0  0  0
  -23.6000  -29.6450   19.9080 C   0  0  0  0  0  2  0  0  0  0  0  0
  -24.6340  -30.8300   21.8960 N   0  0  0  0  0  0  0  0  0  0  0  0
  -23.4830  -31.7990   23.5920 O   0  0  0  0  0  0  0  0  0  0  0  0
  -22.7420  -29.1620   22.2240 C   0  0  0  0  0  0  0  0  0  0  0  0
  -21.4130  -29.0020   22.1180 N   0  0  0  0  0  0  0  0  0  0  0  0
  -23.4380  -28.4730   22.9750 O   0  0  0  0  0  0  0  0  0  0  0  0
  -20.9120  -29.6160   21.4900 H   0  0  0  0  0  0  0  0  0  0  0  0
  -18.0350  -27.8250   22.6270 C   0  0  0  0  0  0  0  0  0  0  0  0
  -20.6030  -28.0220   22.8410 C   0  0  0  0  0  3  0  0  0  0  0  0
  -20.6640  -26.6360   22.1560 C   0  0  0  0  0  2  0  0  0  0  0  0
  -19.5270  -26.4080   21.1560 C   0  0  0  0  0  2  0  0  0  0  0  0
  -18.1670  -26.5260   21.8500 C   0  0  0  0  0  2  0  0  0  0  0  0
  -19.1790  -28.5350   23.0790 C   0  0  0  0  0  0  0  0  0  0  0  0
  -19.0020  -29.7540   23.7670 C   0  0  0  0  0  3  0  0  0  0  0  0
  -17.7120  -30.2630   24.0090 C   0  0  0  0  0  3  0  0  0  0  0  0
  -16.5820  -29.5490   23.5740 C   0  0  0  0  0  3  0  0  0  0  0  0
  -16.7450  -28.3330   22.8880 C   0  0  0  0  0  3  0  0  0  0  0  0
  -25.8460  -32.1810   23.6930 C   0  0  0  0  0  3  0  0  0  0  0  0
  -25.5270  -33.5610   24.0830 N   0  0  0  0  0  0  0  0  0  0  0  0
  -25.8510  -34.6470   23.3670 C   0  0  0  0  0  0  0  0  0  0  0  0
  -26.5210  -34.5920   22.3320 O   0  0  0  0  0  0  0  0  0  0  0  0
  -24.9330  -33.6770   24.8920 H   0  0  0  0  0  0  0  0  0  0  0  0
  -24.1030  -36.4320   23.0890 C   0  0  0  0  0  1  0  0  0  0  0  0
  -25.3510  -36.0110   23.8790 C   0  0  0  0  0  3  0  0  0  0  0  0
  -27.4800  -36.8830   24.7380 C   0  0  0  0  0  1  0  0  0  0  0  0
  -26.3740  -37.0770   23.8040 N   0  0  0  0  0  0  0  0  0  0  0  0
  -25.9580  -37.9860   23.9910 H   0  0  0  0  0  0  0  0  0  0  0  0
  -26.3680  -31.3550   24.9330 C   0  0  1  0  0  0  0  0  0  0  0  0
  -25.2750  -31.0710   25.9900 C   0  0  0  0  0  1  0  0  0  0  0  0
  -26.9520  -29.9970   24.4760 C   0  0  0  0  0  1  0  0  0  0  0  0
  -27.5190  -32.1190   25.6260 C   0  0  0  0  0  1  0  0  0  0  0  0
  2  1  1  0
  3  9  1  0
  3  1  2  0
  4  2  2  0
  5  3  1  0
  6  5  2  0
  6  4  1  0
  8  7  1  0
  8  5  1  0
 11 16  1  0
 12 13  1  0
 12 11  1  0
 14 13  1  0
 14 22  1  0
 14 15  1  0
 16 10  1  0
 16 15  1  0
 17 10  2  0
 18 10  1  0
 18  9  1  0
 19 20  2  0
 20 39  1  0
 21 20  1  0
 21 24  1  0
 22 23  1  0
 22 19  1  0
 23 21  2  0
 24 25  1  0
 25 26  2  0
 27 30  1  0
 27 26  1  0
 28 27  2  0
 29 28  1  0
 29 24  2  0
 30 31  1  0
 31 32  1  0
 32 33  2  0
 34 33  1  0
 34 38  1  0
 35 34  2  0
 36 31  2  0
 36 35  1  0
 37 36  1  0
 39 40  1  0
 40 43  1  0
 40 42  1  0
 41 39  2  0
 44 45  1  0
 44 19  1  0
 46 44  1  0
 47 48  1  0
 48 18  1  0
 49 50  1  0
 49  4  1  0
 51 50  1  0
 52 53  1  0
 52 51  1  0
 53 55  1  0
 54 65  2  0
 55 60  1  0
 56 64  1  0
 56 66  1  0
 57 63  1  0
 57 59  1  0
 58 64  1  0
 59 58  1  0
 60 59  2  0
 61 62  1  0
 61 55  2  0
 62 57  2  0
 63 56  1  0
 64 54  1  0
 66 68  2  0
 67 66  1  0
 69 67  1  0
 70 79  2  0
 70 75  1  0
 71 67  1  0
 71 75  1  0
 72 71  1  0
 73 74  1  0
 73 72  1  0
 74 70  1  0
 75 76  2  0
 76 77  1  0
 78 77  2  0
 79 78  1  0
 80 54  1  0
 80 81  1  0
 80 90  1  0
 81 84  1  0
 82 86  1  0
 82 81  1  0
 83 82  2  0
 86 85  1  0
 88 86  1  0
 88 89  1  0
 88 87  1  0
 90 93  1  1
 90 91  1  0
 92 90  1  0
M  ISO  4  10 100  18 100  52 101  53 101
M  END
>  <TORSDO>  (44) 
F 23

>  <SCORE>  (44) 
-11.175

>  <name>  (44) 
44

>  <ligand_id>  (44) 
44

>  <original_smiles>  (44) 
[H]c1c(C([H])([H])C([H])([H])C([H])([H])C([H])([H])Oc2c([H])c([H])c3c(c2[H])C([H])([H])N(C(=O)C([H])(N([H])C(=O)C([H])(N([H])C([H])([H])[H])C([H])([H])[H])C(C([H])([H])[H])(C([H])([H])[H])C([H])([H])[H])C([H])(C(=O)N([H])C2([H])c4c([H])c([H])c([H])c([H])c4C([H])([H])C([H])([H])C2([H])[H])C3([H])[H])nc(C([H])([H])C([H])([H])[H])c(C([H])([H])N(C(=O)N2C([H])([H])C([H])([H])C([H])([H])C([H])(n3nc(-c4c([H])c([H])c(Oc5c([H])c([H])c(F)c([H])c5F)c([H])c4[H])c(C(=O)N([H])[H])c3N([H])[H])C2([H])[H])C([H])([H])C([H])([H])[H])c1[H]

>  <smiles>  (44) 
[H]c1c(C([H])([H])C([H])([H])C([H])([H])C([H])([H])Oc2c([H])c([H])c3c(c2[H])C([H])([H])N(C(=O)C([H])(N([H])C(=O)C([H])(N([H])C([H])([H])[H])C([H])([H])[H])C(C([H])([H])[H])(C([H])([H])[H])C([H])([H])[H])C([H])(C(=O)N([H])C2([H])c4c([H])c([H])c([H])c([H])c4C([H])([H])C([H])([H])C2([H])[H])C3([H])[H])nc(C([H])([H])C([H])([H])[H])c(C([H])([H])N(C(=O)N2C([H])([H])C([H])([H])C([H])([H])C([H])(n3nc(-c4c([H])c([H])c(Oc5c([H])c([H])c(F)c([H])c5F)c([H])c4[H])c(C(=O)N([H])[H])c3N([H])[H])C2([H])[H])C([H])([H])C([H])([H])[H])c1[H]

$$$$
45:0:0
     RDKit          3D

 97105  0  0  1  0  0  0  0  0999 V2000
  -31.7820  -24.8150   15.7490 C   0  0  0  0  0  3  0  0  0  0  0  0
  -31.2300  -25.1950   16.9780 C   0  0  0  0  0  3  0  0  0  0  0  0
  -32.5580  -23.6450   15.6450 C   0  0  0  0  0  0  0  0  0  0  0  0
  -31.4410  -24.4200   18.1340 C   0  0  0  0  0  0  0  0  0  0  0  0
  -32.8200  -22.8680   16.8090 C   0  0  0  0  0  0  0  0  0  0  0  0
  -32.2620  -23.2560   18.0660 C   0  0  0  0  0  0  0  0  0  0  0  0
  -33.6860  -21.6090   16.7210 C   0  0  0  0  0  1  0  0  0  0  0  0
  -34.5000  -23.7230   13.9820 C   0  0  0  0  0  1  0  0  0  0  0  0
  -33.0600  -23.2590   14.2560 C   0  0  0  0  0  2  0  0  0  0  0  0
  -30.7400  -24.9070   19.3990 C   0  0  0  0  0  2  0  0  0  0  0  0
  -29.2180  -24.6680   19.3540 C   0  0  0  0  0  2  0  0  0  0  0  0
  -28.4680  -25.4210   20.4610 C   0  0  0  0  0  2  0  0  0  0  0  0
  -28.4880  -26.8220   20.1760 O   0  0  0  0  0  0  0  0  0  0  0  0
  -24.6420  -31.9090   23.2700 C   0  0  0  0  0  0  0  0  0  0  0  0
  -27.2900  -27.4980   20.1800 C   0  0  0  0  0  0  0  0  0  0  0  0
  -23.4300  -30.5090   21.6270 C   0  0  0  0  0  3  0  0  0  0  0  0
  -24.8820  -28.9760   20.1960 C   0  0  0  0  0  0  0  0  0  0  0  0
  -25.9510  -30.8820   21.4170 C   0  0  0  0  0  2  0  0  0  0  0  0
  -26.0380  -29.5130   20.7780 C   0  0  0  0  0  0  0  0  0  0  0  0
  -27.2440  -28.7810   20.7630 C   0  0  0  0  0  3  0  0  0  0  0  0
  -26.1210  -26.9730   19.5860 C   0  0  0  0  0  3  0  0  0  0  0  0
  -24.9180  -27.7040   19.5960 C   0  0  0  0  0  3  0  0  0  0  0  0
  -23.6340  -29.8290   20.2460 C   0  0  0  0  0  2  0  0  0  0  0  0
  -24.6930  -31.1140   22.1640 N   0  0  0  0  0  0  0  0  0  0  0  0
  -23.5630  -32.1780   23.8160 O   0  0  0  0  0  0  0  0  0  0  0  0
  -22.7860  -29.4860   22.5890 C   0  0  0  0  0  0  0  0  0  0  0  0
  -21.4630  -29.2950   22.4590 N   0  0  0  0  0  0  0  0  0  0  0  0
  -23.4720  -28.8660   23.4050 O   0  0  0  0  0  0  0  0  0  0  0  0
  -20.9700  -29.8490   21.7710 H   0  0  0  0  0  0  0  0  0  0  0  0
  -18.0970  -28.0770   22.9440 C   0  0  0  0  0  0  0  0  0  0  0  0
  -20.6510  -28.3530   23.2280 C   0  0  0  0  0  3  0  0  0  0  0  0
  -20.7680  -26.9220   22.6550 C   0  0  0  0  0  2  0  0  0  0  0  0
  -19.6720  -26.5880   21.6360 C   0  0  0  0  0  2  0  0  0  0  0  0
  -18.2860  -26.7260   22.2740 C   0  0  0  0  0  2  0  0  0  0  0  0
  -19.2090  -28.8470   23.3780 C   0  0  0  0  0  0  0  0  0  0  0  0
  -18.9800  -30.1110   23.9630 C   0  0  0  0  0  3  0  0  0  0  0  0
  -17.6710  -30.6060   24.1200 C   0  0  0  0  0  3  0  0  0  0  0  0
  -16.5740  -29.8330   23.7020 C   0  0  0  0  0  3  0  0  0  0  0  0
  -16.7880  -28.5700   23.1200 C   0  0  0  0  0  3  0  0  0  0  0  0
  -25.9320  -32.5380   23.8860 C   0  0  0  0  0  3  0  0  0  0  0  0
  -26.4500  -31.7710   25.1640 C   0  0  1  0  0  0  0  0  0  0  0  0
  -25.3590  -31.5410   26.2350 C   0  0  0  0  0  1  0  0  0  0  0  0
  -27.0270  -30.3880   24.7740 C   0  0  0  0  0  1  0  0  0  0  0  0
  -27.6050  -32.5640   25.8200 C   0  0  0  0  0  1  0  0  0  0  0  0
  -25.6300  -33.9390   24.2070 N   0  0  0  0  0  0  0  0  0  0  0  0
  -25.9730  -34.9850   23.4430 C   0  0  0  0  0  0  0  0  0  0  0  0
  -26.6500  -34.8710   22.4170 O   0  0  0  0  0  0  0  0  0  0  0  0
  -25.0300  -34.1020   25.0030 H   0  0  0  0  0  0  0  0  0  0  0  0
  -24.2640  -36.7880   23.0570 C   0  0  0  0  0  1  0  0  0  0  0  0
  -25.4880  -36.3780   23.8890 C   0  0  0  0  0  3  0  0  0  0  0  0
  -27.6170  -37.2480   24.7480 C   0  0  0  0  0  1  0  0  0  0  0  0
  -26.5310  -37.4230   23.7890 N   0  0  0  0  0  0  0  0  0  0  0  0
  -26.1290  -38.3460   23.9270 H   0  0  0  0  0  0  0  0  0  0  0  0
  -32.5150  -22.3890   19.3080 C   0  0  0  0  0  2  0  0  0  0  0  0
  -31.4230  -21.3200   19.4970 C   0  0  0  0  0  2  0  0  0  0  0  0
  -31.7950  -20.1590   20.4420 C   0  0  0  0  0  2  0  0  0  0  0  0
  -30.6350  -19.1490   20.5340 C   0  0  0  0  0  2  0  0  0  0  0  0
  -30.9870  -17.7490   21.0750 C   0  0  0  0  0  2  0  0  0  0  0  0
  -29.7890  -16.8030   20.8410 C   0  0  0  0  0  2  0  0  0  0  0  0
  -30.6420  -14.5010   20.4830 C   0  0  0  0  0  0  0  0  0  0  0  0
  -30.3120  -12.4400   19.1790 C   0  0  0  0  0  2  0  0  0  0  0  0
  -29.3400  -12.7510   18.0210 C   0  0  0  0  0  2  0  0  0  0  0  0
  -27.8730  -12.6040   18.4690 C   0  0  0  0  0  2  0  0  0  0  0  0
  -27.5780  -13.3470   19.7970 C   0  0  0  0  0  3  0  0  0  0  0  0
  -28.6490  -13.0020   20.8570 C   0  0  0  0  0  2  0  0  0  0  0  0
  -29.9780  -13.3280   20.3010 N   0  0  0  0  0  0  0  0  0  0  0  0
  -31.6980  -14.7860   19.9100 O   0  0  0  0  0  0  0  0  0  0  0  0
  -29.9680  -15.4010   21.2110 N   0  0  0  0  0  0  0  0  0  0  0  0
  -29.1910  -15.0020   21.7170 H   0  0  0  0  0  0  0  0  0  0  0  0
  -25.1760  -13.9350   20.5270 C   0  0  0  0  0  0  0  0  0  0  0  0
  -24.1170  -13.1510   20.9040 C   0  0  0  0  0  0  0  0  0  0  0  0
  -24.5920  -11.8030   20.8610 C   0  0  0  0  0  0  0  0  0  0  0  0
  -26.2270  -13.0620   20.2830 N   0  0  0  0  0  0  0  0  0  0  0  0
  -25.8760  -11.7760   20.5350 N   0  0  0  0  0  0  0  0  0  0  0  0
  -23.8800  -10.5330   21.0520 C   0  0  0  0  0  0  0  0  0  0  0  0
  -24.3390   -9.5610   21.9690 C   0  0  0  0  0  3  0  0  0  0  0  0
  -23.6290   -8.3540   22.1480 C   0  0  0  0  0  3  0  0  0  0  0  0
  -22.4450   -8.1120   21.4120 C   0  0  0  0  0  0  0  0  0  0  0  0
  -22.0060   -9.0730   20.4840 C   0  0  0  0  0  3  0  0  0  0  0  0
  -22.7160  -10.2720   20.3040 C   0  0  0  0  0  3  0  0  0  0  0  0
  -21.7040   -6.9580   21.5020 O   0  0  0  0  0  0  0  0  0  0  0  0
  -21.6940   -6.1960   22.6430 C   0  0  0  0  0  0  0  0  0  0  0  0
  -21.2920   -6.7250   23.8890 C   0  0  0  0  0  3  0  0  0  0  0  0
  -21.2300   -5.8890   25.0220 C   0  0  0  0  0  3  0  0  0  0  0  0
  -21.5590   -4.5240   24.9100 C   0  0  0  0  0  0  0  0  0  0  0  0
  -21.9540   -3.9950   23.6690 C   0  0  0  0  0  3  0  0  0  0  0  0
  -22.0190   -4.8280   22.5390 C   0  0  0  0  0  0  0  0  0  0  0  0
  -22.3790   -4.3070   21.3400 F   0  0  0  0  0  0  0  0  0  0  0  0
  -21.4930   -3.7190   25.9960 F   0  0  0  0  0  0  0  0  0  0  0  0
  -22.7200  -13.6130   21.1980 C   0  0  0  0  0  0  0  0  0  0  0  0
  -22.0110  -12.9060   22.0720 N   0  0  0  0  0  0  0  0  0  0  0  0
  -22.2650  -14.6380   20.6940 O   0  0  0  0  0  0  0  0  0  0  0  0
  -22.3930  -12.0790   22.5090 H   0  0  0  0  0  0  0  0  0  0  0  0
  -21.0710  -13.1930   22.3080 H   0  0  0  0  0  0  0  0  0  0  0  0
  -25.3300  -15.3060   20.3550 N   0  0  0  0  0  0  0  0  0  0  0  0
  -24.5670  -15.9640   20.4710 H   0  0  0  0  0  0  0  0  0  0  0  0
  -26.1820  -15.7480   20.0330 H   0  0  0  0  0  0  0  0  0  0  0  0
  1  2  1  0
  2  4  2  0
  3  1  2  0
  3  5  1  0
  4 10  1  0
  5  6  2  0
  6  4  1  0
  6 54  1  0
  7  5  1  0
  8  9  1  0
  9  3  1  0
 11 10  1  0
 11 12  1  0
 13 15  1  0
 13 12  1  0
 14 25  2  0
 15 20  1  0
 16 24  1  0
 16 26  1  0
 17 23  1  0
 17 19  1  0
 18 24  1  0
 19 18  1  0
 20 19  2  0
 21 22  1  0
 21 15  2  0
 22 17  2  0
 23 16  1  0
 24 14  1  0
 26 28  2  0
 27 26  1  0
 29 27  1  0
 30 39  2  0
 30 35  1  0
 31 27  1  0
 31 35  1  0
 32 31  1  0
 33 34  1  0
 33 32  1  0
 34 30  1  0
 35 36  2  0
 36 37  1  0
 38 37  2  0
 39 38  1  0
 40 14  1  0
 40 45  1  0
 40 41  1  0
 41 44  1  1
 41 42  1  0
 43 41  1  0
 45 48  1  0
 46 50  1  0
 46 45  1  0
 47 46  2  0
 50 49  1  0
 52 50  1  0
 52 53  1  0
 52 51  1  0
 54 55  1  0
 55 56  1  0
 56 57  1  0
 57 58  1  0
 59 58  1  0
 59 68  1  0
 60 68  1  0
 61 66  1  0
 62 63  1  0
 62 61  1  0
 64 63  1  0
 64 73  1  0
 64 65  1  0
 66 60  1  0
 66 65  1  0
 67 60  2  0
 68 69  1  0
 70 71  2  0
 71 90  1  0
 72 71  1  0
 72 75  1  0
 73 70  1  0
 73 74  1  0
 74 72  2  0
 75 76  1  0
 76 77  2  0
 78 81  1  0
 78 77  1  0
 79 78  2  0
 80 79  1  0
 80 75  2  0
 81 82  1  0
 82 83  1  0
 83 84  2  0
 85 84  1  0
 85 89  1  0
 86 85  2  0
 87 82  2  0
 87 86  1  0
 88 87  1  0
 90 91  1  0
 91 94  1  0
 91 93  1  0
 92 90  2  0
 95 96  1  0
 95 70  1  0
 97 95  1  0
M  ISO  4  12 101  13 101  60 100  68 100
M  END
>  <TORSDO>  (45) 
F 26

>  <SCORE>  (45) 
-11.859

>  <name>  (45) 
45

>  <ligand_id>  (45) 
45

>  <original_smiles>  (45) 
[H]c1c([H])c([H])c2c(c1[H])C([H])([H])C([H])([H])C([H])([H])C2([H])N([H])C(=O)C1([H])N(C(=O)C([H])(N([H])C(=O)C([H])(N([H])C([H])([H])[H])C([H])([H])[H])C(C([H])([H])[H])(C([H])([H])[H])C([H])([H])[H])C([H])([H])c2c([H])c(OC([H])([H])C([H])([H])C([H])([H])c3c([H])c([H])c(C([H])([H])C([H])([H])[H])c(C([H])([H])[H])c3C([H])([H])C([H])([H])C([H])([H])C([H])([H])C([H])([H])C([H])([H])N([H])C(=O)N3C([H])([H])C([H])([H])C([H])([H])C([H])(n4nc(-c5c([H])c([H])c(Oc6c([H])c([H])c(F)c([H])c6F)c([H])c5[H])c(C(=O)N([H])[H])c4N([H])[H])C3([H])[H])c([H])c([H])c2C1([H])[H]

>  <smiles>  (45) 
[H]c1c([H])c([H])c2c(c1[H])C([H])([H])C([H])([H])C([H])([H])C2([H])N([H])C(=O)C1([H])N(C(=O)C([H])(N([H])C(=O)C([H])(N([H])C([H])([H])[H])C([H])([H])[H])C(C([H])([H])[H])(C([H])([H])[H])C([H])([H])[H])C([H])([H])c2c([H])c(OC([H])([H])C([H])([H])C([H])([H])c3c([H])c([H])c(C([H])([H])C([H])([H])[H])c(C([H])([H])[H])c3C([H])([H])C([H])([H])C([H])([H])C([H])([H])C([H])([H])C([H])([H])N([H])C(=O)N3C([H])([H])C([H])([H])C([H])([H])C([H])(n4nc(-c5c([H])c([H])c(Oc6c([H])c([H])c(F)c([H])c6F)c([H])c5[H])c(C(=O)N([H])[H])c4N([H])[H])C3([H])[H])c([H])c([H])c2C1([H])[H]

$$$$
46:0:0
     RDKit          3D

 86 94  0  0  1  0  0  0  0  0999 V2000
  -28.7140  -21.7090   20.5150 C   0  0  0  0  0  3  0  0  0  0  0  0
  -29.0520  -23.3700   20.3490 C   0  0  0  0  0  3  0  0  0  0  0  0
  -27.9540  -24.6580   20.3300 C   0  0  0  0  0  3  0  0  0  0  0  0
  -28.2440  -26.1940   20.2890 O   0  0  0  0  0  0  0  0  0  0  0  0
  -24.6200  -31.8950   23.2400 C   0  0  0  0  0  0  0  0  0  0  0  0
  -27.1860  -27.1760   20.2250 C   0  0  0  0  0  0  0  0  0  0  0  0
  -23.4160  -30.5030   21.6000 C   0  0  0  0  0  3  0  0  0  0  0  0
  -24.8620  -28.9260   20.1810 C   0  0  0  0  0  0  0  0  0  0  0  0
  -25.9710  -30.7670   21.4310 C   0  0  0  0  0  2  0  0  0  0  0  0
  -26.0420  -29.3740   20.7840 C   0  0  0  0  0  0  0  0  0  0  0  0
  -27.2090  -28.5170   20.7830 C   0  0  0  0  0  3  0  0  0  0  0  0
  -25.9740  -26.8290   19.5860 C   0  0  0  0  0  3  0  0  0  0  0  0
  -24.8400  -27.6670   19.5650 C   0  0  0  0  0  3  0  0  0  0  0  0
  -23.6380  -29.8260   20.2220 C   0  0  0  0  0  2  0  0  0  0  0  0
  -24.6890  -31.0770   22.1450 N   0  0  0  0  0  0  0  0  0  0  0  0
  -23.5350  -32.1820   23.7680 O   0  0  0  0  0  0  0  0  0  0  0  0
  -22.7360  -29.4970   22.5660 C   0  0  0  0  0  0  0  0  0  0  0  0
  -21.4060  -29.3260   22.4410 N   0  0  0  0  0  0  0  0  0  0  0  0
  -23.4070  -28.8690   23.3900 O   0  0  0  0  0  0  0  0  0  0  0  0
  -20.9200  -29.8880   21.7580 H   0  0  0  0  0  0  0  0  0  0  0  0
  -18.0240  -28.1210   22.9330 C   0  0  0  0  0  0  0  0  0  0  0  0
  -20.5820  -28.3920   23.2140 C   0  0  0  0  0  3  0  0  0  0  0  0
  -20.6910  -26.9570   22.6480 C   0  0  0  0  0  2  0  0  0  0  0  0
  -19.5970  -26.6220   21.6320 C   0  0  0  0  0  2  0  0  0  0  0  0
  -18.2100  -26.7670   22.2660 C   0  0  0  0  0  2  0  0  0  0  0  0
  -19.1390  -28.8900   23.3640 C   0  0  0  0  0  0  0  0  0  0  0  0
  -18.9120  -30.1530   23.9500 C   0  0  0  0  0  3  0  0  0  0  0  0
  -17.6040  -30.6500   24.1100 C   0  0  0  0  0  3  0  0  0  0  0  0
  -16.5050  -29.8780   23.6950 C   0  0  0  0  0  3  0  0  0  0  0  0
  -16.7150  -28.6180   23.1120 C   0  0  0  0  0  3  0  0  0  0  0  0
  -25.9010  -32.5280   23.8660 C   0  0  0  0  0  3  0  0  0  0  0  0
  -26.4110  -31.7580   25.1470 C   0  0  1  0  0  0  0  0  0  0  0  0
  -25.3150  -31.5340   26.2150 C   0  0  0  0  0  1  0  0  0  0  0  0
  -26.9890  -30.3750   24.7660 C   0  0  0  0  0  1  0  0  0  0  0  0
  -27.5590  -32.5520   25.8130 C   0  0  0  0  0  1  0  0  0  0  0  0
  -25.5900  -33.9260   24.2000 N   0  0  0  0  0  0  0  0  0  0  0  0
  -25.9010  -34.9840   23.4410 C   0  0  0  0  0  0  0  0  0  0  0  0
  -26.5510  -34.8880   22.3970 O   0  0  0  0  0  0  0  0  0  0  0  0
  -25.0110  -34.0760   25.0140 H   0  0  0  0  0  0  0  0  0  0  0  0
  -24.1520  -36.7730   23.1470 C   0  0  0  0  0  1  0  0  0  0  0  0
  -25.4200  -36.3700   23.9150 C   0  0  0  0  0  3  0  0  0  0  0  0
  -27.5750  -37.2740   24.6750 C   0  0  0  0  0  1  0  0  0  0  0  0
  -26.4400  -37.4310   23.7680 N   0  0  0  0  0  0  0  0  0  0  0  0
  -26.0300  -38.3480   23.9240 H   0  0  0  0  0  0  0  0  0  0  0  0
  -29.7760  -20.4470   20.1370 C   0  0  0  0  0  3  0  0  0  0  0  0
  -28.5670  -16.8970   20.5340 C   0  0  0  0  0  3  0  0  0  0  0  0
  -30.5100  -17.7610   20.1280 C   0  0  0  0  0  3  0  0  0  0  0  0
  -29.9100  -16.4840   20.2620 C   0  0  0  0  0  0  0  0  0  0  0  0
  -28.3810  -18.2530   20.5200 N   0  0  0  0  0  0  0  0  0  0  0  0
  -29.5830  -18.8680   20.2860 N   0  0  0  0  0  0  0  0  0  0  0  0
  -30.5450  -15.0100   20.0970 C   0  0  0  0  0  0  0  0  0  0  0  0
  -30.3180  -12.6680   19.1600 C   0  0  0  0  0  2  0  0  0  0  0  0
  -29.3720  -12.6560   17.9400 C   0  0  0  0  0  2  0  0  0  0  0  0
  -27.9130  -12.4540   18.3890 C   0  0  0  0  0  2  0  0  0  0  0  0
  -27.5310  -13.3530   19.5960 C   0  0  0  0  0  3  0  0  0  0  0  0
  -28.6160  -13.3890   20.6910 C   0  0  0  0  0  2  0  0  0  0  0  0
  -29.8850  -13.7770   20.0610 N   0  0  0  0  0  0  0  0  0  0  0  0
  -31.7390  -14.9820   19.7850 O   0  0  0  0  0  0  0  0  0  0  0  0
  -25.1760  -13.8860   20.4400 C   0  0  0  0  0  0  0  0  0  0  0  0
  -24.1360  -13.0950   20.8450 C   0  0  0  0  0  0  0  0  0  0  0  0
  -24.6110  -11.7520   20.7730 C   0  0  0  0  0  0  0  0  0  0  0  0
  -26.2160  -13.0260   20.1390 N   0  0  0  0  0  0  0  0  0  0  0  0
  -25.8910  -11.7330   20.4100 N   0  0  0  0  0  0  0  0  0  0  0  0
  -23.8970  -10.4810   20.9700 C   0  0  0  0  0  0  0  0  0  0  0  0
  -24.3560   -9.5090   21.8840 C   0  0  0  0  0  3  0  0  0  0  0  0
  -23.6380   -8.3090   22.0740 C   0  0  0  0  0  3  0  0  0  0  0  0
  -22.4470   -8.0710   21.3480 C   0  0  0  0  0  0  0  0  0  0  0  0
  -22.0060   -9.0340   20.4210 C   0  0  0  0  0  3  0  0  0  0  0  0
  -22.7270  -10.2250   20.2310 C   0  0  0  0  0  3  0  0  0  0  0  0
  -21.6990   -6.9240   21.4430 O   0  0  0  0  0  0  0  0  0  0  0  0
  -21.6700   -6.1760   22.5940 C   0  0  0  0  0  0  0  0  0  0  0  0
  -21.2560   -6.7250   23.8270 C   0  0  0  0  0  3  0  0  0  0  0  0
  -21.1740   -5.9080   24.9700 C   0  0  0  0  0  3  0  0  0  0  0  0
  -21.4950   -4.5400   24.8840 C   0  0  0  0  0  0  0  0  0  0  0  0
  -21.8990   -3.9890   23.6550 C   0  0  0  0  0  3  0  0  0  0  0  0
  -21.9840   -4.8040   22.5140 C   0  0  0  0  0  0  0  0  0  0  0  0
  -22.3530   -4.2650   21.3270 F   0  0  0  0  0  0  0  0  0  0  0  0
  -21.4070   -3.7510   25.9790 F   0  0  0  0  0  0  0  0  0  0  0  0
  -22.7460  -13.5590   21.1720 C   0  0  0  0  0  0  0  0  0  0  0  0
  -22.0600  -12.8500   22.0610 N   0  0  0  0  0  0  0  0  0  0  0  0
  -22.2820  -14.5840   20.6750 O   0  0  0  0  0  0  0  0  0  0  0  0
  -22.4570  -12.0240   22.4840 H   0  0  0  0  0  0  0  0  0  0  0  0
  -21.1220  -13.1300   22.3150 H   0  0  0  0  0  0  0  0  0  0  0  0
  -25.3090  -15.2610   20.2810 N   0  0  0  0  0  0  0  0  0  0  0  0
  -24.5350  -15.8900   20.4730 H   0  0  0  0  0  0  0  0  0  0  0  0
  -26.1000  -15.7330   19.8670 H   0  0  0  0  0  0  0  0  0  0  0  0
  2  1  1  0
  3  2  2  0
  4  3  1  0
  5 16  2  0
  6  4  1  0
  6 11  1  0
  7 15  1  0
  7 17  1  0
  8 14  1  0
  8 10  1  0
  9 15  1  0
 10  9  1  0
 11 10  2  0
 12  6  2  0
 13 12  1  0
 13  8  2  0
 14  7  1  0
 15  5  1  0
 17 19  2  0
 18 17  1  0
 20 18  1  0
 21 30  2  0
 21 26  1  0
 22 18  1  0
 22 26  1  0
 23 22  1  0
 24 25  1  0
 24 23  1  0
 25 21  1  0
 26 27  2  0
 27 28  1  0
 29 28  2  0
 30 29  1  0
 31  5  1  0
 31 36  1  0
 31 32  1  0
 32 35  1  1
 32 33  1  0
 34 32  1  0
 36 39  1  0
 37 41  1  0
 37 36  1  0
 38 37  2  0
 41 40  1  0
 43 41  1  0
 43 44  1  0
 43 42  1  0
 45 50  1  0
 45  1  2  0
 47 48  2  0
 47 50  1  0
 48 46  1  0
 49 46  2  0
 50 49  1  0
 51 48  1  0
 52 57  1  0
 53 54  1  0
 53 52  1  0
 55 54  1  0
 55 62  1  0
 55 56  1  0
 57 51  1  0
 57 56  1  0
 58 51  2  0
 59 60  2  0
 60 79  1  0
 61 60  1  0
 61 64  1  0
 62 63  1  0
 62 59  1  0
 63 61  2  0
 64 65  1  0
 65 66  2  0
 67 70  1  0
 67 66  1  0
 68 67  2  0
 69 68  1  0
 69 64  2  0
 70 71  1  0
 71 72  1  0
 72 73  2  0
 74 73  1  0
 74 78  1  0
 75 74  2  0
 76 71  2  0
 76 75  1  0
 77 76  1  0
 79 80  1  0
 80 83  1  0
 80 82  1  0
 81 79  2  0
 84 59  1  0
 84 85  1  0
 86 84  1  0
M  ISO  4   3 101   4 101  48 100  51 100
M  END
>  <TORSDO>  (46) 
F 20

>  <SCORE>  (46) 
-14.573

>  <name>  (46) 
46

>  <ligand_id>  (46) 
46

>  <original_smiles>  (46) 
[H]c1nn(C([H])([H])C([H])([H])C([H])([H])C([H])([H])Oc2c([H])c([H])c3c(c2[H])C([H])([H])N(C(=O)C([H])(N([H])C(=O)C([H])(N([H])C([H])([H])[H])C([H])([H])[H])C(C([H])([H])[H])(C([H])([H])[H])C([H])([H])[H])C([H])(C(=O)N([H])C2([H])c4c([H])c([H])c([H])c([H])c4C([H])([H])C([H])([H])C2([H])[H])C3([H])[H])c([H])c1C(=O)N1C([H])([H])C([H])([H])C([H])([H])C([H])(n2nc(-c3c([H])c([H])c(Oc4c([H])c([H])c(F)c([H])c4F)c([H])c3[H])c(C(=O)N([H])[H])c2N([H])[H])C1([H])[H]

>  <smiles>  (46) 
[H]c1nn(C([H])([H])C([H])([H])C([H])([H])C([H])([H])Oc2c([H])c([H])c3c(c2[H])C([H])([H])N(C(=O)C([H])(N([H])C(=O)C([H])(N([H])C([H])([H])[H])C([H])([H])[H])C(C([H])([H])[H])(C([H])([H])[H])C([H])([H])[H])C([H])(C(=O)N([H])C2([H])c4c([H])c([H])c([H])c([H])c4C([H])([H])C([H])([H])C2([H])[H])C3([H])[H])c([H])c1C(=O)N1C([H])([H])C([H])([H])C([H])([H])C([H])(n2nc(-c3c([H])c([H])c(Oc4c([H])c([H])c(F)c([H])c4F)c([H])c3[H])c(C(=O)N([H])[H])c2N([H])[H])C1([H])[H]

$$$$
47:0:0
     RDKit          3D

 92100  0  0  1  0  0  0  0  0999 V2000
  -30.7480  -21.5580   20.5420 C   0  0  0  0  0  3  0  0  0  0  0  0
  -30.3390  -22.7830   19.9800 C   0  0  0  0  0  3  0  0  0  0  0  0
  -28.4320  -21.0180   21.0210 C   0  0  0  0  0  3  0  0  0  0  0  0
  -29.7960  -20.6660   21.0740 C   0  0  0  0  0  0  0  0  0  0  0  0
  -28.9760  -23.1520   19.9320 C   0  0  0  0  0  0  0  0  0  0  0  0
  -28.0090  -22.2430   20.4510 C   0  0  0  0  0  0  0  0  0  0  0  0
  -26.0580  -23.5150   21.4900 C   0  0  0  0  0  1  0  0  0  0  0  0
  -26.5100  -22.5180   20.4170 C   0  0  0  0  0  2  0  0  0  0  0  0
  -30.2470  -19.3780   21.7590 C   0  0  0  0  0  2  0  0  0  0  0  0
  -29.8880  -18.0680   21.0200 C   0  0  0  0  0  2  0  0  0  0  0  0
  -30.5880  -16.8470   21.6610 C   0  0  0  0  0  2  0  0  0  0  0  0
  -30.6790  -14.6890   20.3670 C   0  0  0  0  0  0  0  0  0  0  0  0
  -30.3740  -12.6000   19.0830 C   0  0  0  0  0  2  0  0  0  0  0  0
  -29.3850  -12.8200   17.9210 C   0  0  0  0  0  2  0  0  0  0  0  0
  -27.9320  -12.6280   18.3960 C   0  0  0  0  0  2  0  0  0  0  0  0
  -27.6170  -13.4240   19.6920 C   0  0  0  0  0  3  0  0  0  0  0  0
  -28.7050  -13.1680   20.7570 C   0  0  0  0  0  2  0  0  0  0  0  0
  -30.0090  -13.5230   20.1680 N   0  0  0  0  0  0  0  0  0  0  0  0
  -31.7410  -14.9630   19.8020 O   0  0  0  0  0  0  0  0  0  0  0  0
  -30.0700  -15.5580   21.1900 N   0  0  0  0  0  0  0  0  0  0  0  0
  -29.1880  -15.2530   21.5740 H   0  0  0  0  0  0  0  0  0  0  0  0
  -25.2270  -13.9710   20.4760 C   0  0  0  0  0  0  0  0  0  0  0  0
  -24.1840  -13.1690   20.8570 C   0  0  0  0  0  0  0  0  0  0  0  0
  -24.6710  -11.8280   20.7830 C   0  0  0  0  0  0  0  0  0  0  0  0
  -26.2820  -13.1150   20.1990 N   0  0  0  0  0  0  0  0  0  0  0  0
  -25.9520  -11.8200   20.4390 N   0  0  0  0  0  0  0  0  0  0  0  0
  -23.9760  -10.5470   20.9650 C   0  0  0  0  0  0  0  0  0  0  0  0
  -24.4210   -9.5930   21.9060 C   0  0  0  0  0  3  0  0  0  0  0  0
  -23.7270   -8.3760   22.0740 C   0  0  0  0  0  3  0  0  0  0  0  0
  -22.5730   -8.1040   21.3020 C   0  0  0  0  0  0  0  0  0  0  0  0
  -22.1470   -9.0470   20.3510 C   0  0  0  0  0  3  0  0  0  0  0  0
  -22.8410  -10.2560   20.1810 C   0  0  0  0  0  3  0  0  0  0  0  0
  -21.8480   -6.9380   21.3810 O   0  0  0  0  0  0  0  0  0  0  0  0
  -21.7590   -6.2240   22.5490 C   0  0  0  0  0  0  0  0  0  0  0  0
  -21.2440   -6.7950   23.7330 C   0  0  0  0  0  3  0  0  0  0  0  0
  -21.1050   -6.0040   24.8920 C   0  0  0  0  0  3  0  0  0  0  0  0
  -21.4710   -4.6460   24.8660 C   0  0  0  0  0  0  0  0  0  0  0  0
  -21.9780   -4.0740   23.6850 C   0  0  0  0  0  3  0  0  0  0  0  0
  -22.1190   -4.8620   22.5290 C   0  0  0  0  0  0  0  0  0  0  0  0
  -22.5890   -4.3020   21.3890 F   0  0  0  0  0  0  0  0  0  0  0  0
  -21.3290   -3.8830   25.9750 F   0  0  0  0  0  0  0  0  0  0  0  0
  -22.7860  -13.6120   21.1810 C   0  0  0  0  0  0  0  0  0  0  0  0
  -22.0980  -12.8820   22.0510 N   0  0  0  0  0  0  0  0  0  0  0  0
  -22.3140  -14.6380   20.6960 O   0  0  0  0  0  0  0  0  0  0  0  0
  -22.4910  -12.0500   22.4650 H   0  0  0  0  0  0  0  0  0  0  0  0
  -21.1600  -13.1580   22.3060 H   0  0  0  0  0  0  0  0  0  0  0  0
  -25.3610  -15.3470   20.3230 N   0  0  0  0  0  0  0  0  0  0  0  0
  -24.5870  -15.9880   20.4620 H   0  0  0  0  0  0  0  0  0  0  0  0
  -26.1990  -15.8040   19.9830 H   0  0  0  0  0  0  0  0  0  0  0  0
  -28.6310  -24.5060   19.2950 C   0  0  0  0  0  2  0  0  0  0  0  0
  -28.7800  -25.7130   20.2590 C   0  0  0  0  0  2  0  0  0  0  0  0
  -28.6760  -27.0050   19.6390 O   0  0  0  0  0  0  0  0  0  0  0  0
  -24.6480  -31.7680   23.1030 C   0  0  0  0  0  0  0  0  0  0  0  0
  -27.4650  -27.6530   19.7340 C   0  0  0  0  0  0  0  0  0  0  0  0
  -23.4960  -30.4290   21.3700 C   0  0  0  0  0  3  0  0  0  0  0  0
  -25.0080  -29.0490   19.8500 C   0  0  0  0  0  0  0  0  0  0  0  0
  -26.0040  -30.9050   21.1940 C   0  0  0  0  0  2  0  0  0  0  0  0
  -26.1440  -29.5820   20.4700 C   0  0  0  0  0  0  0  0  0  0  0  0
  -27.3760  -28.8930   20.4080 C   0  0  0  0  0  3  0  0  0  0  0  0
  -26.3120  -27.1300   19.1130 C   0  0  0  0  0  3  0  0  0  0  0  0
  -25.0850  -27.8200   19.1710 C   0  0  0  0  0  3  0  0  0  0  0  0
  -23.7290  -29.8500   19.9490 C   0  0  0  0  0  2  0  0  0  0  0  0
  -24.7340  -31.0450   21.9480 N   0  0  0  0  0  0  0  0  0  0  0  0
  -23.5580  -31.9580   23.6590 O   0  0  0  0  0  0  0  0  0  0  0  0
  -22.8920  -29.3190   22.2610 C   0  0  0  0  0  0  0  0  0  0  0  0
  -21.5710  -29.1080   22.1410 N   0  0  0  0  0  0  0  0  0  0  0  0
  -23.6060  -28.6540   23.0160 O   0  0  0  0  0  0  0  0  0  0  0  0
  -21.0520  -29.7010   21.5090 H   0  0  0  0  0  0  0  0  0  0  0  0
  -18.2360  -27.8020   22.6150 C   0  0  0  0  0  0  0  0  0  0  0  0
  -20.7950  -28.0920   22.8480 C   0  0  0  0  0  3  0  0  0  0  0  0
  -20.9120  -26.7150   22.1530 C   0  0  0  0  0  2  0  0  0  0  0  0
  -19.7910  -26.4540   21.1420 C   0  0  0  0  0  2  0  0  0  0  0  0
  -18.4230  -26.5170   21.8280 C   0  0  0  0  0  2  0  0  0  0  0  0
  -19.3490  -28.5500   23.0830 C   0  0  0  0  0  0  0  0  0  0  0  0
  -19.1210  -29.7560   23.7790 C   0  0  0  0  0  3  0  0  0  0  0  0
  -17.8110  -30.2140   24.0150 C   0  0  0  0  0  3  0  0  0  0  0  0
  -16.7120  -29.4600   23.5660 C   0  0  0  0  0  3  0  0  0  0  0  0
  -16.9260  -28.2560   22.8710 C   0  0  0  0  0  3  0  0  0  0  0  0
  -25.9090  -32.4090   23.7640 C   0  0  0  0  0  3  0  0  0  0  0  0
  -25.5570  -33.7830   24.1460 N   0  0  0  0  0  0  0  0  0  0  0  0
  -25.8730  -34.8740   23.4350 C   0  0  0  0  0  0  0  0  0  0  0  0
  -26.5610  -34.8310   22.4110 O   0  0  0  0  0  0  0  0  0  0  0  0
  -24.9490  -33.8890   24.9440 H   0  0  0  0  0  0  0  0  0  0  0  0
  -24.0960  -36.6280   23.1250 C   0  0  0  0  0  1  0  0  0  0  0  0
  -25.3370  -36.2280   23.9380 C   0  0  0  0  0  3  0  0  0  0  0  0
  -27.4330  -37.1390   24.8340 C   0  0  0  0  0  1  0  0  0  0  0  0
  -26.3390  -37.3140   23.8840 N   0  0  0  0  0  0  0  0  0  0  0  0
  -25.9030  -38.2150   24.0610 H   0  0  0  0  0  0  0  0  0  0  0  0
  -26.4350  -31.5990   25.0130 C   0  0  1  0  0  0  0  0  0  0  0  0
  -25.3410  -31.2920   26.0630 C   0  0  0  0  0  1  0  0  0  0  0  0
  -27.0530  -30.2530   24.5670 C   0  0  0  0  0  1  0  0  0  0  0  0
  -27.5620  -32.3930   25.7160 C   0  0  0  0  0  1  0  0  0  0  0  0
  1  4  1  0
  2  1  2  0
  3  4  2  0
  4  9  1  0
  5  2  1  0
  5  6  2  0
  6  3  1  0
  8  6  1  0
  8  7  1  0
 10 11  1  0
 10  9  1  0
 12 20  1  0
 13 18  1  0
 14 15  1  0
 14 13  1  0
 16 15  1  0
 16 25  1  0
 16 17  1  0
 18 12  1  0
 18 17  1  0
 19 12  2  0
 20 21  1  0
 20 11  1  0
 22 23  2  0
 23 42  1  0
 24 23  1  0
 24 27  1  0
 25 26  1  0
 25 22  1  0
 26 24  2  0
 27 28  1  0
 28 29  2  0
 30 33  1  0
 30 29  1  0
 31 30  2  0
 32 31  1  0
 32 27  2  0
 33 34  1  0
 34 35  1  0
 35 36  2  0
 37 36  1  0
 37 41  1  0
 38 37  2  0
 39 34  2  0
 39 38  1  0
 40 39  1  0
 42 43  1  0
 43 46  1  0
 43 45  1  0
 44 42  2  0
 47 48  1  0
 47 22  1  0
 49 47  1  0
 50  5  1  0
 50 51  1  0
 52 54  1  0
 52 51  1  0
 53 64  2  0
 54 59  1  0
 55 63  1  0
 55 65  1  0
 56 62  1  0
 56 58  1  0
 57 63  1  0
 58 57  1  0
 59 58  2  0
 60 61  1  0
 60 54  2  0
 61 56  2  0
 62 55  1  0
 63 53  1  0
 65 67  2  0
 66 65  1  0
 68 66  1  0
 69 78  2  0
 69 74  1  0
 70 66  1  0
 70 74  1  0
 71 70  1  0
 72 73  1  0
 72 71  1  0
 73 69  1  0
 74 75  2  0
 75 76  1  0
 77 76  2  0
 78 77  1  0
 79 53  1  0
 79 80  1  0
 79 89  1  0
 80 83  1  0
 81 85  1  0
 81 80  1  0
 82 81  2  0
 85 84  1  0
 87 85  1  0
 87 88  1  0
 87 86  1  0
 89 92  1  1
 89 90  1  0
 91 89  1  0
M  ISO  4  12 100  20 100  51 101  52 101
M  END
>  <TORSDO>  (47) 
F 22

>  <SCORE>  (47) 
-12.671

>  <name>  (47) 
47

>  <ligand_id>  (47) 
47

>  <original_smiles>  (47) 
[H]c1c([H])c([H])c2c(c1[H])C([H])([H])C([H])([H])C([H])([H])C2([H])N([H])C(=O)C1([H])N(C(=O)C([H])(N([H])C(=O)C([H])(N([H])C([H])([H])[H])C([H])([H])[H])C(C([H])([H])[H])(C([H])([H])[H])C([H])([H])[H])C([H])([H])c2c([H])c(OC([H])([H])C([H])([H])c3c([H])c([H])c(C([H])([H])C([H])([H])C([H])([H])N([H])C(=O)N4C([H])([H])C([H])([H])C([H])([H])C([H])(n5nc(-c6c([H])c([H])c(Oc7c([H])c([H])c(F)c([H])c7F)c([H])c6[H])c(C(=O)N([H])[H])c5N([H])[H])C4([H])[H])c([H])c3C([H])([H])C([H])([H])[H])c([H])c([H])c2C1([H])[H]

>  <smiles>  (47) 
[H]c1c([H])c([H])c2c(c1[H])C([H])([H])C([H])([H])C([H])([H])C2([H])N([H])C(=O)C1([H])N(C(=O)C([H])(N([H])C(=O)C([H])(N([H])C([H])([H])[H])C([H])([H])[H])C(C([H])([H])[H])(C([H])([H])[H])C([H])([H])[H])C([H])([H])c2c([H])c(OC([H])([H])C([H])([H])c3c([H])c([H])c(C([H])([H])C([H])([H])C([H])([H])N([H])C(=O)N4C([H])([H])C([H])([H])C([H])([H])C([H])(n5nc(-c6c([H])c([H])c(Oc7c([H])c([H])c(F)c([H])c7F)c([H])c6[H])c(C(=O)N([H])[H])c5N([H])[H])C4([H])[H])c([H])c3C([H])([H])C([H])([H])[H])c([H])c([H])c2C1([H])[H]

$$$$
48:0:0
     RDKit          3D

 90 98  0  0  1  0  0  0  0  0999 V2000
  -29.4750  -21.9970   21.6340 C   0  0  0  0  0  3  0  0  0  0  0  0
  -29.4370  -20.5740   19.6860 C   0  0  0  0  0  3  0  0  0  0  0  0
  -29.1350  -21.9130   20.2700 C   0  0  0  0  0  0  0  0  0  0  0  0
  -30.1190  -20.9480   22.3350 C   0  0  0  0  0  0  0  0  0  0  0  0
  -30.0870  -19.4130   20.3710 C   0  0  0  0  0  0  0  0  0  0  0  0
  -30.4650  -19.7040   21.7180 C   0  0  0  0  0  0  0  0  0  0  0  0
  -30.4820  -21.2300   23.7940 C   0  0  0  0  0  1  0  0  0  0  0  0
  -31.3000  -18.6940   22.5060 C   0  0  0  0  0  1  0  0  0  0  0  0
  -28.5750  -23.2930   19.5250 C   0  0  0  0  0  2  0  0  0  0  0  0
  -27.9220  -24.6910   20.2570 C   0  0  0  0  0  2  0  0  0  0  0  0
  -28.1530  -26.2070   19.9120 O   0  0  0  0  0  0  0  0  0  0  0  0
  -24.6990  -31.8150   23.2980 C   0  0  0  0  0  0  0  0  0  0  0  0
  -27.1010  -27.2060   19.9730 C   0  0  0  0  0  0  0  0  0  0  0  0
  -23.4210  -30.5100   21.6460 C   0  0  0  0  0  3  0  0  0  0  0  0
  -24.8010  -28.9910   20.0890 C   0  0  0  0  0  0  0  0  0  0  0  0
  -25.9740  -30.7520   21.4010 C   0  0  0  0  0  2  0  0  0  0  0  0
  -26.0060  -29.3900   20.6780 C   0  0  0  0  0  0  0  0  0  0  0  0
  -27.1580  -28.5180   20.5960 C   0  0  0  0  0  3  0  0  0  0  0  0
  -25.8720  -26.9120   19.3410 C   0  0  0  0  0  3  0  0  0  0  0  0
  -24.7500  -27.7690   19.3990 C   0  0  0  0  0  3  0  0  0  0  0  0
  -23.5840  -29.8990   20.2260 C   0  0  0  0  0  2  0  0  0  0  0  0
  -24.7210  -31.0460   22.1690 N   0  0  0  0  0  0  0  0  0  0  0  0
  -23.6390  -32.0870   23.8810 O   0  0  0  0  0  0  0  0  0  0  0  0
  -22.7710  -29.4640   22.5850 C   0  0  0  0  0  0  0  0  0  0  0  0
  -21.4520  -29.2430   22.4340 N   0  0  0  0  0  0  0  0  0  0  0  0
  -23.4520  -28.8550   23.4110 O   0  0  0  0  0  0  0  0  0  0  0  0
  -20.9570  -29.7770   21.7300 H   0  0  0  0  0  0  0  0  0  0  0  0
  -18.1410  -27.8150   22.7720 C   0  0  0  0  0  0  0  0  0  0  0  0
  -20.6540  -28.2700   23.1850 C   0  0  0  0  0  3  0  0  0  0  0  0
  -20.8930  -26.8360   22.6580 C   0  0  0  0  0  2  0  0  0  0  0  0
  -19.8820  -26.4070   21.5910 C   0  0  0  0  0  2  0  0  0  0  0  0
  -18.4540  -26.4700   22.1430 C   0  0  0  0  0  2  0  0  0  0  0  0
  -19.1730  -28.6690   23.2450 C   0  0  0  0  0  0  0  0  0  0  0  0
  -18.8260  -29.9250   23.7910 C   0  0  0  0  0  3  0  0  0  0  0  0
  -17.4800  -30.3300   23.8640 C   0  0  0  0  0  3  0  0  0  0  0  0
  -16.4610  -29.4770   23.4070 C   0  0  0  0  0  3  0  0  0  0  0  0
  -16.7910  -28.2190   22.8690 C   0  0  0  0  0  3  0  0  0  0  0  0
  -26.0090  -32.4100   23.9020 C   0  0  0  0  0  3  0  0  0  0  0  0
  -26.5310  -31.6050   25.1560 C   0  0  1  0  0  0  0  0  0  0  0  0
  -25.4500  -31.3760   26.2380 C   0  0  0  0  0  1  0  0  0  0  0  0
  -27.0750  -30.2210   24.7340 C   0  0  0  0  0  1  0  0  0  0  0  0
  -27.7150  -32.3600   25.8050 C   0  0  0  0  0  1  0  0  0  0  0  0
  -25.7410  -33.8080   24.2640 N   0  0  0  0  0  0  0  0  0  0  0  0
  -26.1260  -34.8740   23.5480 C   0  0  0  0  0  0  0  0  0  0  0  0
  -26.8110  -34.7790   22.5270 O   0  0  0  0  0  0  0  0  0  0  0  0
  -25.1380  -33.9630   25.0600 H   0  0  0  0  0  0  0  0  0  0  0  0
  -24.4690  -36.7380   23.2290 C   0  0  0  0  0  1  0  0  0  0  0  0
  -25.6840  -36.2650   24.0430 C   0  0  0  0  0  3  0  0  0  0  0  0
  -27.8350  -37.0440   24.9310 C   0  0  0  0  0  1  0  0  0  0  0  0
  -26.7530  -37.2840   23.9780 N   0  0  0  0  0  0  0  0  0  0  0  0
  -26.3770  -38.2120   24.1550 H   0  0  0  0  0  0  0  0  0  0  0  0
  -30.5360  -17.9730   19.6530 C   0  0  0  0  0  2  0  0  0  0  0  0
  -30.9260  -15.2460   19.7770 C   0  0  0  0  0  0  0  0  0  0  0  0
  -30.7480  -12.8380   18.9690 C   0  0  0  0  0  2  0  0  0  0  0  0
  -29.7610  -12.7360   17.7800 C   0  0  0  0  0  2  0  0  0  0  0  0
  -28.3240  -12.5390   18.2970 C   0  0  0  0  0  2  0  0  0  0  0  0
  -27.9710  -13.5160   19.4500 C   0  0  0  0  0  3  0  0  0  0  0  0
  -29.0840  -13.5990   20.5200 C   0  0  0  0  0  2  0  0  0  0  0  0
  -30.3250  -13.9810   19.8330 N   0  0  0  0  0  0  0  0  0  0  0  0
  -32.0750  -15.2840   19.3170 O   0  0  0  0  0  0  0  0  0  0  0  0
  -30.2210  -16.4580   20.0460 N   0  0  0  0  0  0  0  0  0  0  0  0
  -29.3130  -16.3210   20.4640 H   0  0  0  0  0  0  0  0  0  0  0  0
  -25.6750  -14.1220   20.4000 C   0  0  0  0  0  0  0  0  0  0  0  0
  -24.6180  -13.3640   20.8260 C   0  0  0  0  0  0  0  0  0  0  0  0
  -25.0370  -12.0030   20.6990 C   0  0  0  0  0  0  0  0  0  0  0  0
  -26.6660  -13.2280   20.0350 N   0  0  0  0  0  0  0  0  0  0  0  0
  -26.2960  -11.9430   20.2780 N   0  0  0  0  0  0  0  0  0  0  0  0
  -24.2870  -10.7570   20.8980 C   0  0  0  0  0  0  0  0  0  0  0  0
  -24.7060   -9.7770   21.8270 C   0  0  0  0  0  3  0  0  0  0  0  0
  -23.9470   -8.6020   22.0150 C   0  0  0  0  0  3  0  0  0  0  0  0
  -22.7590   -8.3950   21.2780 C   0  0  0  0  0  0  0  0  0  0  0  0
  -22.3630   -9.3600   20.3370 C   0  0  0  0  0  3  0  0  0  0  0  0
  -23.1190  -10.5280   20.1430 C   0  0  0  0  0  3  0  0  0  0  0  0
  -21.9810   -7.2660   21.3710 O   0  0  0  0  0  0  0  0  0  0  0  0
  -21.8420   -6.5820   22.5530 C   0  0  0  0  0  0  0  0  0  0  0  0
  -21.3360   -7.2020   23.7160 C   0  0  0  0  0  3  0  0  0  0  0  0
  -21.1440   -6.4470   24.8910 C   0  0  0  0  0  3  0  0  0  0  0  0
  -21.4520   -5.0730   24.9020 C   0  0  0  0  0  0  0  0  0  0  0  0
  -21.9530   -4.4540   23.7430 C   0  0  0  0  0  3  0  0  0  0  0  0
  -22.1440   -5.2070   22.5720 C   0  0  0  0  0  0  0  0  0  0  0  0
  -22.6090   -4.6030   21.4520 F   0  0  0  0  0  0  0  0  0  0  0  0
  -21.2600   -4.3430   26.0280 F   0  0  0  0  0  0  0  0  0  0  0  0
  -23.2670  -13.8740   21.2310 C   0  0  0  0  0  0  0  0  0  0  0  0
  -22.5980  -13.1790   22.1450 N   0  0  0  0  0  0  0  0  0  0  0  0
  -22.8170  -14.9260   20.7740 O   0  0  0  0  0  0  0  0  0  0  0  0
  -22.9760  -12.3330   22.5480 H   0  0  0  0  0  0  0  0  0  0  0  0
  -21.6940  -13.5060   22.4540 H   0  0  0  0  0  0  0  0  0  0  0  0
  -25.8640  -15.4950   20.2700 N   0  0  0  0  0  0  0  0  0  0  0  0
  -25.1280  -16.1590   20.4780 H   0  0  0  0  0  0  0  0  0  0  0  0
  -26.6860  -15.9360   19.8770 H   0  0  0  0  0  0  0  0  0  0  0  0
  1  4  1  0
  2  3  1  0
  2  5  2  0
  3  1  2  0
  4  7  1  0
  5  6  1  0
  6  4  2  0
  6  8  1  0
  9 10  1  0
  9  3  1  0
 11 13  1  0
 11 10  1  0
 12 23  2  0
 13 18  1  0
 14 22  1  0
 14 24  1  0
 15 21  1  0
 15 17  1  0
 16 22  1  0
 17 16  1  0
 18 17  2  0
 19 20  1  0
 19 13  2  0
 20 15  2  0
 21 14  1  0
 22 12  1  0
 24 26  2  0
 25 24  1  0
 27 25  1  0
 28 37  2  0
 28 33  1  0
 29 25  1  0
 29 33  1  0
 30 29  1  0
 31 32  1  0
 31 30  1  0
 32 28  1  0
 33 34  2  0
 34 35  1  0
 36 35  2  0
 37 36  1  0
 38 12  1  0
 38 43  1  0
 38 39  1  0
 39 42  1  1
 39 40  1  0
 41 39  1  0
 43 46  1  0
 44 48  1  0
 44 43  1  0
 45 44  2  0
 48 47  1  0
 50 48  1  0
 50 51  1  0
 50 49  1  0
 52 61  1  0
 52  5  1  0
 53 59  1  0
 53 61  1  0
 54 59  1  0
 55 56  1  0
 55 54  1  0
 57 56  1  0
 57 66  1  0
 57 58  1  0
 59 58  1  0
 60 53  2  0
 61 62  1  0
 63 64  2  0
 64 83  1  0
 65 64  1  0
 65 68  1  0
 66 67  1  0
 66 63  1  0
 67 65  2  0
 68 69  1  0
 69 70  2  0
 71 74  1  0
 71 70  1  0
 72 71  2  0
 73 72  1  0
 73 68  2  0
 74 75  1  0
 75 80  2  0
 75 76  1  0
 76 77  2  0
 77 78  1  0
 78 82  1  0
 79 78  2  0
 80 79  1  0
 81 80  1  0
 83 84  1  0
 84 87  1  0
 84 86  1  0
 85 83  2  0
 88 63  1  0
 88 89  1  0
 90 88  1  0
M  ISO  4  10 101  11 101  53 100  61 100
M  END
>  <TORSDO>  (48) 
F 19

>  <SCORE>  (48) 
-14.327

>  <name>  (48) 
48

>  <ligand_id>  (48) 
48

>  <original_smiles>  (48) 
[H]c1c([H])c([H])c2c(c1[H])C([H])([H])C([H])([H])C([H])([H])C2([H])N([H])C(=O)C1([H])N(C(=O)C([H])(N([H])C(=O)C([H])(N([H])C([H])([H])[H])C([H])([H])[H])C(C([H])([H])[H])(C([H])([H])[H])C([H])([H])[H])C([H])([H])c2c([H])c(OC([H])([H])C([H])([H])c3c([H])c(C([H])([H])[H])c(C([H])([H])[H])c(C([H])([H])N([H])C(=O)N4C([H])([H])C([H])([H])C([H])([H])C([H])(n5nc(-c6c([H])c([H])c(Oc7c([H])c([H])c(F)c([H])c7F)c([H])c6[H])c(C(=O)N([H])[H])c5N([H])[H])C4([H])[H])c3[H])c([H])c([H])c2C1([H])[H]

>  <smiles>  (48) 
[H]c1c([H])c([H])c2c(c1[H])C([H])([H])C([H])([H])C([H])([H])C2([H])N([H])C(=O)C1([H])N(C(=O)C([H])(N([H])C(=O)C([H])(N([H])C([H])([H])[H])C([H])([H])[H])C(C([H])([H])[H])(C([H])([H])[H])C([H])([H])[H])C([H])([H])c2c([H])c(OC([H])([H])C([H])([H])c3c([H])c(C([H])([H])[H])c(C([H])([H])[H])c(C([H])([H])N([H])C(=O)N4C([H])([H])C([H])([H])C([H])([H])C([H])(n5nc(-c6c([H])c([H])c(Oc7c([H])c([H])c(F)c([H])c7F)c([H])c6[H])c(C(=O)N([H])[H])c5N([H])[H])C4([H])[H])c3[H])c([H])c([H])c2C1([H])[H]

$$$$
49:0:0
     RDKit          3D

100108  0  0  1  0  0  0  0  0999 V2000
  -26.5930  -24.5390   15.3450 C   0  0  0  0  0  2  0  0  0  0  0  0
  -28.4030  -25.1300   17.1300 C   0  0  0  0  0  3  0  0  0  0  0  0
  -29.0420  -26.3660   17.4390 C   0  0  0  0  0  0  0  0  0  0  0  0
  -27.5230  -25.4280   16.1260 C   0  0  0  0  0  0  0  0  0  0  0  0
  -26.9450  -27.6340   14.9450 C   0  0  0  0  0  1  0  0  0  0  0  0
  -28.6050  -27.3470   16.6670 N   0  0  0  0  0  0  0  0  0  0  0  0
  -27.6550  -26.7880   15.8860 N   0  0  0  0  0  0  0  0  0  0  0  0
  -30.1190  -26.6380   18.4610 C   0  0  0  0  0  2  0  0  0  0  0  0
  -29.6360  -27.5070   19.6360 C   0  0  0  0  0  2  0  0  0  0  0  0
  -28.5150  -26.8830   20.2540 O   0  0  0  0  0  0  0  0  0  0  0  0
  -24.6110  -31.9810   23.3500 C   0  0  0  0  0  0  0  0  0  0  0  0
  -27.3610  -27.6230   20.2790 C   0  0  0  0  0  0  0  0  0  0  0  0
  -23.4420  -30.5720   21.6810 C   0  0  0  0  0  3  0  0  0  0  0  0
  -24.9370  -29.0630   20.2730 C   0  0  0  0  0  0  0  0  0  0  0  0
  -25.9600  -30.9800   21.5110 C   0  0  0  0  0  2  0  0  0  0  0  0
  -26.0770  -29.6140   20.8720 C   0  0  0  0  0  0  0  0  0  0  0  0
  -27.2950  -28.9020   20.8740 C   0  0  0  0  0  3  0  0  0  0  0  0
  -26.2020  -27.0650   19.7050 C   0  0  0  0  0  3  0  0  0  0  0  0
  -24.9910  -27.7840   19.6890 C   0  0  0  0  0  3  0  0  0  0  0  0
  -23.6780  -29.9010   20.3030 C   0  0  0  0  0  2  0  0  0  0  0  0
  -24.6870  -31.1910   22.2420 N   0  0  0  0  0  0  0  0  0  0  0  0
  -23.5190  -32.2360   23.8780 O   0  0  0  0  0  0  0  0  0  0  0  0
  -22.7940  -29.5360   22.6270 C   0  0  0  0  0  0  0  0  0  0  0  0
  -21.4740  -29.3370   22.4790 N   0  0  0  0  0  0  0  0  0  0  0  0
  -23.4720  -28.9150   23.4480 O   0  0  0  0  0  0  0  0  0  0  0  0
  -20.9860  -29.8930   21.7910 H   0  0  0  0  0  0  0  0  0  0  0  0
  -18.1100  -28.0980   22.9200 C   0  0  0  0  0  0  0  0  0  0  0  0
  -20.6600  -28.3840   23.2300 C   0  0  0  0  0  3  0  0  0  0  0  0
  -20.7860  -26.9570   22.6470 C   0  0  0  0  0  2  0  0  0  0  0  0
  -19.7050  -26.6290   21.6130 C   0  0  0  0  0  2  0  0  0  0  0  0
  -18.3130  -26.7540   22.2380 C   0  0  0  0  0  2  0  0  0  0  0  0
  -19.2130  -28.8690   23.3720 C   0  0  0  0  0  0  0  0  0  0  0  0
  -18.9730  -30.1280   23.9660 C   0  0  0  0  0  3  0  0  0  0  0  0
  -17.6610  -30.6170   24.1100 C   0  0  0  0  0  3  0  0  0  0  0  0
  -16.5720  -29.8430   23.6760 C   0  0  0  0  0  3  0  0  0  0  0  0
  -16.7970  -28.5860   23.0870 C   0  0  0  0  0  3  0  0  0  0  0  0
  -25.8810  -32.6210   23.9910 C   0  0  0  0  0  3  0  0  0  0  0  0
  -25.5730  -34.0270   24.2760 N   0  0  0  0  0  0  0  0  0  0  0  0
  -25.9370  -35.0570   23.5000 C   0  0  0  0  0  0  0  0  0  0  0  0
  -26.6410  -34.9250   22.4950 O   0  0  0  0  0  0  0  0  0  0  0  0
  -24.9510  -34.2070   25.0500 H   0  0  0  0  0  0  0  0  0  0  0  0
  -24.2410  -36.8520   23.0270 C   0  0  0  0  0  1  0  0  0  0  0  0
  -25.4400  -36.4590   23.9040 C   0  0  0  0  0  3  0  0  0  0  0  0
  -27.5340  -37.3490   24.8210 C   0  0  0  0  0  1  0  0  0  0  0  0
  -26.4840  -37.5010   23.8180 N   0  0  0  0  0  0  0  0  0  0  0  0
  -26.0800  -38.4290   23.9210 H   0  0  0  0  0  0  0  0  0  0  0  0
  -26.3650  -31.8780   25.2960 C   0  0  1  0  0  0  0  0  0  0  0  0
  -25.2420  -31.6550   26.3350 C   0  0  0  0  0  1  0  0  0  0  0  0
  -26.9680  -30.4980   24.9450 C   0  0  0  0  0  1  0  0  0  0  0  0
  -27.4920  -32.6920   25.9760 C   0  0  0  0  0  1  0  0  0  0  0  0
  -25.4080  -24.0920   16.1100 N   0  0  0  0  0  4  0  0  0  0  0  0
  -24.7040  -23.8930   15.4180 H   0  0  0  0  0  0  0  0  0  0  0  0
  -25.0590  -24.8440   16.6770 H   0  0  0  0  0  0  0  0  0  0  0  0
  -25.5620  -22.8490   16.9000 C   0  0  0  0  0  2  0  0  0  0  0  0
  -25.6900  -23.0990   18.4160 C   0  0  0  0  0  2  0  0  0  0  0  0
  -25.9820  -21.8130   19.2180 C   0  0  0  0  0  2  0  0  0  0  0  0
  -27.4080  -21.2610   19.0260 C   0  0  0  0  0  2  0  0  0  0  0  0
  -27.6470  -19.9380   19.7760 C   0  0  0  0  0  2  0  0  0  0  0  0
  -29.1170  -19.4900   19.7230 C   0  0  0  0  0  2  0  0  0  0  0  0
  -29.3910  -18.1940   20.5090 C   0  0  0  0  0  2  0  0  0  0  0  0
  -30.8930  -17.8580   20.5700 C   0  0  0  0  0  2  0  0  0  0  0  0
  -31.2340  -16.6660   21.4870 C   0  0  0  0  0  2  0  0  0  0  0  0
  -31.0040  -14.6130   20.0840 C   0  0  0  0  0  0  0  0  0  0  0  0
  -30.5720  -12.5180   18.8550 C   0  0  0  0  0  2  0  0  0  0  0  0
  -29.5860  -12.7460   17.6940 C   0  0  0  0  0  2  0  0  0  0  0  0
  -28.1300  -12.6250   18.1830 C   0  0  0  0  0  2  0  0  0  0  0  0
  -27.8580  -13.4720   19.4550 C   0  0  0  0  0  3  0  0  0  0  0  0
  -28.9450  -13.2210   20.5220 C   0  0  0  0  0  2  0  0  0  0  0  0
  -30.2650  -13.4870   19.9170 N   0  0  0  0  0  0  0  0  0  0  0  0
  -32.0040  -14.8760   19.4100 O   0  0  0  0  0  0  0  0  0  0  0  0
  -30.5910  -15.4220   21.0680 N   0  0  0  0  0  0  0  0  0  0  0  0
  -29.7840  -15.1180   21.5920 H   0  0  0  0  0  0  0  0  0  0  0  0
  -25.4990  -14.1260   20.2580 C   0  0  0  0  0  0  0  0  0  0  0  0
  -24.4300  -13.3730   20.6670 C   0  0  0  0  0  0  0  0  0  0  0  0
  -24.8610  -12.0130   20.6080 C   0  0  0  0  0  0  0  0  0  0  0  0
  -26.5170  -13.2250   19.9830 N   0  0  0  0  0  0  0  0  0  0  0  0
  -26.1360  -11.9490   20.2470 N   0  0  0  0  0  0  0  0  0  0  0  0
  -24.1170  -10.7650   20.8220 C   0  0  0  0  0  0  0  0  0  0  0  0
  -24.5010   -9.8370   21.8150 C   0  0  0  0  0  3  0  0  0  0  0  0
  -23.7590   -8.6530   22.0140 C   0  0  0  0  0  3  0  0  0  0  0  0
  -22.6180   -8.3890   21.2200 C   0  0  0  0  0  0  0  0  0  0  0  0
  -22.2530   -9.3050   20.2170 C   0  0  0  0  0  3  0  0  0  0  0  0
  -22.9950  -10.4810   20.0180 C   0  0  0  0  0  3  0  0  0  0  0  0
  -21.8520   -7.2520   21.3240 O   0  0  0  0  0  0  0  0  0  0  0  0
  -21.6830   -6.6060   22.5210 C   0  0  0  0  0  0  0  0  0  0  0  0
  -21.0970   -7.2430   23.6360 C   0  0  0  0  0  3  0  0  0  0  0  0
  -20.8790   -6.5200   24.8270 C   0  0  0  0  0  3  0  0  0  0  0  0
  -21.2350   -5.1600   24.9010 C   0  0  0  0  0  0  0  0  0  0  0  0
  -21.8140   -4.5230   23.7890 C   0  0  0  0  0  3  0  0  0  0  0  0
  -22.0340   -5.2430   22.6020 C   0  0  0  0  0  0  0  0  0  0  0  0
  -22.5720   -4.6180   21.5270 F   0  0  0  0  0  0  0  0  0  0  0  0
  -21.0190   -4.4640   26.0410 F   0  0  0  0  0  0  0  0  0  0  0  0
  -23.0560  -13.8780   21.0000 C   0  0  0  0  0  0  0  0  0  0  0  0
  -22.3520  -13.1910   21.8930 N   0  0  0  0  0  0  0  0  0  0  0  0
  -22.6170  -14.9150   20.5050 O   0  0  0  0  0  0  0  0  0  0  0  0
  -22.7200  -12.3520   22.3140 H   0  0  0  0  0  0  0  0  0  0  0  0
  -21.4300  -13.5100   22.1580 H   0  0  0  0  0  0  0  0  0  0  0  0
  -25.6850  -15.4940   20.0820 N   0  0  0  0  0  0  0  0  0  0  0  0
  -24.9360  -16.1630   20.2260 H   0  0  0  0  0  0  0  0  0  0  0  0
  -26.5390  -15.9200   19.7470 H   0  0  0  0  0  0  0  0  0  0  0  0
  1 51  1  0
  1  4  1  0
  2  3  1  0
  3  8  1  0
  4  2  2  0
  5  7  1  0
  6  3  2  0
  7  4  1  0
  7  6  1  0
  8  9  1  0
  9 10  1  0
 10 12  1  0
 11 22  2  0
 12 17  1  0
 13 21  1  0
 13 23  1  0
 14 20  1  0
 14 16  1  0
 15 21  1  0
 16 17  2  0
 16 15  1  0
 18 12  2  0
 19 18  1  0
 19 14  2  0
 20 13  1  0
 21 11  1  0
 23 25  2  0
 24 23  1  0
 26 24  1  0
 27 36  2  0
 27 32  1  0
 28 24  1  0
 28 32  1  0
 29 28  1  0
 30 31  1  0
 30 29  1  0
 31 27  1  0
 32 33  2  0
 33 34  1  0
 35 34  2  0
 36 35  1  0
 37 11  1  0
 37 38  1  0
 37 47  1  0
 38 41  1  0
 39 43  1  0
 39 38  1  0
 40 39  2  0
 43 42  1  0
 45 43  1  0
 45 46  1  0
 45 44  1  0
 47 50  1  1
 47 48  1  0
 49 47  1  0
 51 53  1  0
 51 54  1  0
 52 51  1  0
 54 55  1  0
 55 56  1  0
 57 56  1  0
 57 58  1  0
 59 58  1  0
 59 60  1  0
 60 61  1  0
 61 62  1  0
 63 71  1  0
 64 69  1  0
 65 66  1  0
 65 64  1  0
 67 66  1  0
 67 76  1  0
 67 68  1  0
 69 63  1  0
 69 68  1  0
 70 63  2  0
 71 62  1  0
 71 72  1  0
 73 74  2  0
 74 93  1  0
 75 74  1  0
 75 78  1  0
 76 77  1  0
 76 73  1  0
 77 75  2  0
 78 79  1  0
 79 80  2  0
 81 84  1  0
 81 80  1  0
 82 81  2  0
 83 82  1  0
 83 78  2  0
 84 85  1  0
 85 90  2  0
 85 86  1  0
 86 87  2  0
 87 88  1  0
 88 92  1  0
 89 88  2  0
 90 89  1  0
 91 90  1  0
 93 94  1  0
 94 97  1  0
 94 96  1  0
 95 93  2  0
 98 99  1  0
 98 73  1  0
100 98  1  0
M  ISO  4   9 101  10 101  63 100  71 100
M  END
>  <TORSDO>  (49) 
F 29

>  <SCORE>  (49) 
-9.422

>  <name>  (49) 
49

>  <ligand_id>  (49) 
49

>  <original_smiles>  (49) 
[H]c1c([H])c([H])c2c(c1[H])C([H])([H])C([H])([H])C([H])([H])C2([H])N([H])C(=O)C1([H])N(C(=O)C([H])(N([H])C(=O)C([H])(N([H])C([H])([H])[H])C([H])([H])[H])C(C([H])([H])[H])(C([H])([H])[H])C([H])([H])[H])C([H])([H])c2c([H])c(OC([H])([H])C([H])([H])c3nn(C([H])([H])[H])c(C([H])([H])[N+]([H])([H])C([H])([H])C([H])([H])C([H])([H])C([H])([H])C([H])([H])C([H])([H])C([H])([H])C([H])([H])C([H])([H])N([H])C(=O)N4C([H])([H])C([H])([H])C([H])([H])C([H])(n5nc(-c6c([H])c([H])c(Oc7c([H])c([H])c(F)c([H])c7F)c([H])c6[H])c(C(=O)N([H])[H])c5N([H])[H])C4([H])[H])c3[H])c([H])c([H])c2C1([H])[H]

>  <smiles>  (49) 
[H]c1c([H])c([H])c2c(c1[H])C([H])([H])C([H])([H])C([H])([H])C2([H])N([H])C(=O)C1([H])N(C(=O)C([H])(N([H])C(=O)C([H])(N([H])C([H])([H])[H])C([H])([H])[H])C(C([H])([H])[H])(C([H])([H])[H])C([H])([H])[H])C([H])([H])c2c([H])c(OC([H])([H])C([H])([H])c3nn(C([H])([H])[H])c(C([H])([H])[N+]([H])([H])C([H])([H])C([H])([H])C([H])([H])C([H])([H])C([H])([H])C([H])([H])C([H])([H])C([H])([H])C([H])([H])N([H])C(=O)N4C([H])([H])C([H])([H])C([H])([H])C([H])(n5nc(-c6c([H])c([H])c(Oc7c([H])c([H])c(F)c([H])c7F)c([H])c6[H])c(C(=O)N([H])[H])c5N([H])[H])C4([H])[H])c3[H])c([H])c([H])c2C1([H])[H]

$$$$
50:0:0
     RDKit          3D

 91 99  0  0  1  0  0  0  0  0999 V2000
  -29.6010  -20.0470   21.1750 C   0  0  0  0  0  3  0  0  0  0  0  0
  -29.9410  -21.1990   19.0920 C   0  0  0  0  0  3  0  0  0  0  0  0
  -29.4360  -21.2590   20.4010 C   0  0  0  0  0  0  0  0  0  0  0  0
  -30.2620  -18.8660   20.6570 C   0  0  0  0  0  0  0  0  0  0  0  0
  -30.7440  -19.0020   19.3310 C   0  0  0  0  0  0  0  0  0  0  0  0
  -30.5600  -20.1160   18.5800 N   0  0  0  0  0  0  0  0  0  0  0  0
  -30.7000  -16.7780   18.0960 C   0  0  0  0  0  1  0  0  0  0  0  0
  -31.5610  -17.9240   18.6390 C   0  0  0  0  0  2  0  0  0  0  0  0
  -28.6940  -22.5650   20.9180 C   0  0  0  0  0  2  0  0  0  0  0  0
  -28.8450  -23.9950   20.1810 C   0  0  0  0  0  3  0  0  0  0  0  0
  -28.2080  -25.2860   20.9000 C   0  0  0  0  0  3  0  0  0  0  0  0
  -28.3280  -26.6580   20.3270 O   0  0  0  0  0  0  0  0  0  0  0  0
  -24.5460  -32.0330   23.3700 C   0  0  0  0  0  0  0  0  0  0  0  0
  -27.1980  -27.4920   20.3310 C   0  0  0  0  0  0  0  0  0  0  0  0
  -23.3540  -30.6190   21.7340 C   0  0  0  0  0  3  0  0  0  0  0  0
  -24.8170  -29.0700   20.3180 C   0  0  0  0  0  0  0  0  0  0  0  0
  -25.8870  -30.9680   21.5380 C   0  0  0  0  0  2  0  0  0  0  0  0
  -25.9830  -29.5840   20.9010 C   0  0  0  0  0  0  0  0  0  0  0  0
  -27.1820  -28.8090   20.8900 C   0  0  0  0  0  3  0  0  0  0  0  0
  -26.0100  -27.0240   19.7360 C   0  0  0  0  0  3  0  0  0  0  0  0
  -24.8300  -27.7960   19.7300 C   0  0  0  0  0  3  0  0  0  0  0  0
  -23.5740  -29.9360   20.3580 C   0  0  0  0  0  2  0  0  0  0  0  0
  -24.6140  -31.2260   22.2710 N   0  0  0  0  0  0  0  0  0  0  0  0
  -23.4610  -32.2990   23.9090 O   0  0  0  0  0  0  0  0  0  0  0  0
  -22.7000  -29.6020   22.7000 C   0  0  0  0  0  0  0  0  0  0  0  0
  -21.3850  -29.3740   22.5420 N   0  0  0  0  0  0  0  0  0  0  0  0
  -23.3790  -29.0190   23.5500 O   0  0  0  0  0  0  0  0  0  0  0  0
  -20.8950  -29.8990   21.8310 H   0  0  0  0  0  0  0  0  0  0  0  0
  -18.0450  -28.0540   22.9750 C   0  0  0  0  0  0  0  0  0  0  0  0
  -20.5800  -28.4210   23.3120 C   0  0  0  0  0  3  0  0  0  0  0  0
  -20.7560  -26.9810   22.7750 C   0  0  0  0  0  2  0  0  0  0  0  0
  -19.6990  -26.5920   21.7370 C   0  0  0  0  0  2  0  0  0  0  0  0
  -18.2950  -26.6970   22.3370 C   0  0  0  0  0  2  0  0  0  0  0  0
  -19.1190  -28.8690   23.4190 C   0  0  0  0  0  0  0  0  0  0  0  0
  -18.8320  -30.1350   23.9750 C   0  0  0  0  0  3  0  0  0  0  0  0
  -17.5040  -30.5880   24.0880 C   0  0  0  0  0  3  0  0  0  0  0  0
  -16.4430  -29.7700   23.6610 C   0  0  0  0  0  3  0  0  0  0  0  0
  -16.7140  -28.5040   23.1100 C   0  0  0  0  0  3  0  0  0  0  0  0
  -25.8220  -32.6830   23.9890 C   0  0  0  0  0  3  0  0  0  0  0  0
  -25.5120  -34.0910   24.2750 N   0  0  0  0  0  0  0  0  0  0  0  0
  -25.8370  -35.1210   23.4810 C   0  0  0  0  0  0  0  0  0  0  0  0
  -26.4990  -34.9850   22.4490 O   0  0  0  0  0  0  0  0  0  0  0  0
  -24.9270  -34.2690   25.0770 H   0  0  0  0  0  0  0  0  0  0  0  0
  -24.1150  -36.9110   23.0780 C   0  0  0  0  0  1  0  0  0  0  0  0
  -25.3540  -36.5220   23.9000 C   0  0  0  0  0  3  0  0  0  0  0  0
  -27.4800  -37.4390   24.7210 C   0  0  0  0  0  1  0  0  0  0  0  0
  -26.3900  -37.5680   23.7590 N   0  0  0  0  0  0  0  0  0  0  0  0
  -25.9820  -38.4940   23.8660 H   0  0  0  0  0  0  0  0  0  0  0  0
  -26.3250  -31.9490   25.2930 C   0  0  1  0  0  0  0  0  0  0  0  0
  -25.2140  -31.7090   26.3420 C   0  0  0  0  0  1  0  0  0  0  0  0
  -26.9450  -30.5760   24.9440 C   0  0  0  0  0  1  0  0  0  0  0  0
  -27.4380  -32.7830   25.9700 C   0  0  0  0  0  1  0  0  0  0  0  0
  -30.5950  -17.5910   21.5620 C   0  0  0  0  0  2  0  0  0  0  0  0
  -30.9290  -15.0380   21.0100 C   0  0  0  0  0  0  0  0  0  0  0  0
  -30.7900  -12.7970   19.9240 C   0  0  0  0  0  2  0  0  0  0  0  0
  -29.9460  -12.8880   18.6330 C   0  0  0  0  0  2  0  0  0  0  0  0
  -28.4490  -12.6990   18.9470 C   0  0  0  0  0  2  0  0  0  0  0  0
  -27.9780  -13.5700   20.1420 C   0  0  0  0  0  3  0  0  0  0  0  0
  -28.9490  -13.4750   21.3400 C   0  0  0  0  0  2  0  0  0  0  0  0
  -30.2880  -13.8310   20.8530 N   0  0  0  0  0  0  0  0  0  0  0  0
  -32.1320  -15.1390   20.7650 O   0  0  0  0  0  0  0  0  0  0  0  0
  -30.1610  -16.1590   21.2620 N   0  0  0  0  0  0  0  0  0  0  0  0
  -29.1830  -15.9700   21.4160 H   0  0  0  0  0  0  0  0  0  0  0  0
  -25.5280  -14.1350   20.6570 C   0  0  0  0  0  0  0  0  0  0  0  0
  -24.4470  -13.3480   20.9500 C   0  0  0  0  0  0  0  0  0  0  0  0
  -24.9310  -12.0040   20.9760 C   0  0  0  0  0  0  0  0  0  0  0  0
  -26.6010  -13.2690   20.5230 N   0  0  0  0  0  0  0  0  0  0  0  0
  -26.2420  -11.9830   20.7770 N   0  0  0  0  0  0  0  0  0  0  0  0
  -24.2070  -10.7330   21.1200 C   0  0  0  0  0  0  0  0  0  0  0  0
  -24.5510   -9.7960   22.1180 C   0  0  0  0  0  3  0  0  0  0  0  0
  -23.8290   -8.5910   22.2490 C   0  0  0  0  0  3  0  0  0  0  0  0
  -22.7480   -8.3120   21.3800 C   0  0  0  0  0  0  0  0  0  0  0  0
  -22.4240   -9.2370   20.3720 C   0  0  0  0  0  3  0  0  0  0  0  0
  -23.1480  -10.4350   20.2400 C   0  0  0  0  0  3  0  0  0  0  0  0
  -22.0070   -7.1550   21.4150 O   0  0  0  0  0  0  0  0  0  0  0  0
  -21.8170   -6.4590   22.5820 C   0  0  0  0  0  0  0  0  0  0  0  0
  -21.1340   -7.0220   23.6810 C   0  0  0  0  0  3  0  0  0  0  0  0
  -20.8980   -6.2490   24.8350 C   0  0  0  0  0  3  0  0  0  0  0  0
  -21.3340   -4.9110   24.8880 C   0  0  0  0  0  0  0  0  0  0  0  0
  -22.0100   -4.3470   23.7910 C   0  0  0  0  0  3  0  0  0  0  0  0
  -22.2480   -5.1180   22.6410 C   0  0  0  0  0  0  0  0  0  0  0  0
  -22.8790   -4.5640   21.5780 F   0  0  0  0  0  0  0  0  0  0  0  0
  -21.1020   -4.1640   25.9940 F   0  0  0  0  0  0  0  0  0  0  0  0
  -23.0250  -13.8050   21.0980 C   0  0  0  0  0  0  0  0  0  0  0  0
  -22.2390  -13.1120   21.9130 N   0  0  0  0  0  0  0  0  0  0  0  0
  -22.6160  -14.8150   20.5260 O   0  0  0  0  0  0  0  0  0  0  0  0
  -22.5780  -12.2970   22.4020 H   0  0  0  0  0  0  0  0  0  0  0  0
  -21.2830  -13.4030   22.0520 H   0  0  0  0  0  0  0  0  0  0  0  0
  -25.6850  -15.5060   20.4710 N   0  0  0  0  0  0  0  0  0  0  0  0
  -24.8990  -16.1470   20.4880 H   0  0  0  0  0  0  0  0  0  0  0  0
  -26.5440  -15.9460   20.1650 H   0  0  0  0  0  0  0  0  0  0  0  0
  2  3  1  0
  3  9  1  0
  3  1  2  0
  4  1  1  0
  4 53  1  0
  5  4  2  0
  6  2  2  0
  6  5  1  0
  7  8  1  0
  8  5  1  0
 10 11  2  0
 10  9  1  0
 12 14  1  0
 12 11  1  0
 13 24  2  0
 14 19  1  0
 15 23  1  0
 15 25  1  0
 16 22  1  0
 16 18  1  0
 17 23  1  0
 18 17  1  0
 19 18  2  0
 20 14  2  0
 21 20  1  0
 21 16  2  0
 22 15  1  0
 23 13  1  0
 25 27  2  0
 26 25  1  0
 28 26  1  0
 29 38  2  0
 29 34  1  0
 30 26  1  0
 30 34  1  0
 31 30  1  0
 32 33  1  0
 32 31  1  0
 33 29  1  0
 34 35  2  0
 35 36  1  0
 37 36  2  0
 38 37  1  0
 39 13  1  0
 39 40  1  0
 39 49  1  0
 40 43  1  0
 41 45  1  0
 41 40  1  0
 42 41  2  0
 45 44  1  0
 47 48  1  0
 47 45  1  0
 47 46  1  0
 49 52  1  1
 49 50  1  0
 51 49  1  0
 54 62  1  0
 55 60  1  0
 56 57  1  0
 56 55  1  0
 58 57  1  0
 58 67  1  0
 58 59  1  0
 60 54  1  0
 60 59  1  0
 61 54  2  0
 62 63  1  0
 62 53  1  0
 64 65  2  0
 65 66  1  0
 65 84  1  0
 66 69  1  0
 67 64  1  0
 67 68  1  0
 68 66  2  0
 69 70  1  0
 70 71  2  0
 72 75  1  0
 72 71  1  0
 73 72  2  0
 74 73  1  0
 74 69  2  0
 75 76  1  0
 76 81  2  0
 76 77  1  0
 77 78  2  0
 78 79  1  0
 79 83  1  0
 80 79  2  0
 81 80  1  0
 82 81  1  0
 84 85  1  0
 85 88  1  0
 85 87  1  0
 86 84  2  0
 89 90  1  0
 89 64  1  0
 91 89  1  0
M  ISO  4  11 101  12 101  54 100  62 100
M  END
>  <TORSDO>  (50) 
F 21

>  <SCORE>  (50) 
-12.940

>  <name>  (50) 
50

>  <ligand_id>  (50) 
50

>  <original_smiles>  (50) 
[H]c1nc(C([H])([H])C([H])([H])[H])c(C([H])([H])N([H])C(=O)N2C([H])([H])C([H])([H])C([H])([H])C([H])(n3nc(-c4c([H])c([H])c(Oc5c([H])c([H])c(F)c([H])c5F)c([H])c4[H])c(C(=O)N([H])[H])c3N([H])[H])C2([H])[H])c([H])c1C([H])([H])C([H])([H])C([H])([H])Oc1c([H])c([H])c2c(c1[H])C([H])([H])N(C(=O)C([H])(N([H])C(=O)C([H])(N([H])C([H])([H])[H])C([H])([H])[H])C(C([H])([H])[H])(C([H])([H])[H])C([H])([H])[H])C([H])(C(=O)N([H])C1([H])c3c([H])c([H])c([H])c([H])c3C([H])([H])C([H])([H])C1([H])[H])C2([H])[H]

>  <smiles>  (50) 
[H]c1nc(C([H])([H])C([H])([H])[H])c(C([H])([H])N([H])C(=O)N2C([H])([H])C([H])([H])C([H])([H])C([H])(n3nc(-c4c([H])c([H])c(Oc5c([H])c([H])c(F)c([H])c5F)c([H])c4[H])c(C(=O)N([H])[H])c3N([H])[H])C2([H])[H])c([H])c1C([H])([H])C([H])([H])C([H])([H])Oc1c([H])c([H])c2c(c1[H])C([H])([H])N(C(=O)C([H])(N([H])C(=O)C([H])(N([H])C([H])([H])[H])C([H])([H])[H])C(C([H])([H])[H])(C([H])([H])[H])C([H])([H])[H])C([H])(C(=O)N([H])C1([H])c3c([H])c([H])c([H])c([H])c3C([H])([H])C([H])([H])C1([H])[H])C2([H])[H]

$$$$
51:0:0
     RDKit          3D

100108  0  0  1  0  0  0  0  0999 V2000
  -23.2620  -23.8870   19.5900 C   0  0  0  0  0  2  0  0  0  0  0  0
  -21.2200  -23.9570   17.8790 C   0  0  0  0  0  3  0  0  0  0  0  0
  -22.6710  -25.1300   19.2490 C   0  0  0  0  0  3  0  0  0  0  0  0
  -22.8140  -22.6000   19.0980 C   0  0  0  0  0  3  0  0  0  0  0  0
  -21.3910  -22.8380   18.8480 C   0  0  0  0  0  3  0  0  0  0  0  0
  -21.9160  -25.1710   18.0930 C   0  0  0  0  0  0  0  0  0  0  0  0
  -22.6820  -26.4550   20.0070 C   0  0  0  0  0  1  0  0  0  0  0  0
  -19.6370  -22.1480   20.6930 C   0  0  0  0  0  1  0  0  0  0  0  0
  -20.3550  -23.2880   20.0010 C   0  0  0  0  0  2  0  0  0  0  0  0
  -23.5610  -21.0640   19.2410 C   0  0  0  0  0  3  0  0  0  0  0  0
  -25.1680  -20.4010   18.8230 C   0  0  0  0  0  3  0  0  0  0  0  0
  -26.1340  -18.9160   19.1800 C   0  0  0  0  0  3  0  0  0  0  0  0
  -27.8600  -18.2610   19.2590 C   0  0  0  0  0  3  0  0  0  0  0  0
  -29.9950  -16.3710   20.0690 C   0  0  0  0  0  0  0  0  0  0  0  0
  -30.9600  -14.0230   19.8850 C   0  0  0  0  0  2  0  0  0  0  0  0
  -30.2080  -13.3330   18.7040 C   0  0  0  0  0  2  0  0  0  0  0  0
  -28.7700  -12.9270   19.0940 C   0  0  0  0  0  2  0  0  0  0  0  0
  -28.0250  -14.0760   19.7990 C   0  0  0  0  0  3  0  0  0  0  0  0
  -28.8310  -14.4970   21.0300 C   0  0  0  0  0  2  0  0  0  0  0  0
  -30.0540  -15.0430   20.4730 N   0  0  0  0  0  0  0  0  0  0  0  0
  -31.1260  -16.8910   19.8400 O   0  0  0  0  0  0  0  0  0  0  0  0
  -28.6340  -16.9330   19.8100 N   0  0  0  0  0  0  0  0  0  0  0  0
  -28.0060  -16.1860   20.0730 H   0  0  0  0  0  0  0  0  0  0  0  0
  -25.6140  -14.6820   20.3960 C   0  0  0  0  0  0  0  0  0  0  0  0
  -24.5580  -13.9050   20.7240 C   0  0  0  0  0  0  0  0  0  0  0  0
  -25.0540  -12.5610   20.7230 C   0  0  0  0  0  0  0  0  0  0  0  0
  -26.6810  -13.8150   20.1990 N   0  0  0  0  0  0  0  0  0  0  0  0
  -26.3520  -12.5490   20.4730 N   0  0  0  0  0  0  0  0  0  0  0  0
  -24.3740  -11.2880   20.8650 C   0  0  0  0  0  0  0  0  0  0  0  0
  -24.6790  -10.4010   21.9220 C   0  0  0  0  0  3  0  0  0  0  0  0
  -24.0000   -9.1730   22.0370 C   0  0  0  0  0  3  0  0  0  0  0  0
  -23.0090   -8.8240   21.0910 C   0  0  0  0  0  0  0  0  0  0  0  0
  -22.7300   -9.6970   20.0300 C   0  0  0  0  0  3  0  0  0  0  0  0
  -23.4070  -10.9170   19.9100 C   0  0  0  0  0  3  0  0  0  0  0  0
  -22.3100   -7.6430   21.1150 O   0  0  0  0  0  0  0  0  0  0  0  0
  -21.9900   -7.0200   22.2900 C   0  0  0  0  0  0  0  0  0  0  0  0
  -21.1960   -7.6480   23.2770 C   0  0  0  0  0  3  0  0  0  0  0  0
  -20.8340   -6.9420   24.4410 C   0  0  0  0  0  3  0  0  0  0  0  0
  -21.2570   -5.6140   24.6180 C   0  0  0  0  0  0  0  0  0  0  0  0
  -22.0440   -4.9850   23.6410 C   0  0  0  0  0  3  0  0  0  0  0  0
  -22.4080   -5.6870   22.4760 C   0  0  0  0  0  0  0  0  0  0  0  0
  -23.1500   -5.0720   21.5240 F   0  0  0  0  0  0  0  0  0  0  0  0
  -20.9010   -4.9330   25.7360 F   0  0  0  0  0  0  0  0  0  0  0  0
  -23.1320  -14.3360   20.9060 C   0  0  0  0  0  0  0  0  0  0  0  0
  -22.3690  -13.6140   21.7110 N   0  0  0  0  0  0  0  0  0  0  0  0
  -22.7100  -15.3600   20.3640 O   0  0  0  0  0  0  0  0  0  0  0  0
  -22.7280  -12.7870   22.1660 H   0  0  0  0  0  0  0  0  0  0  0  0
  -21.4080  -13.8800   21.8650 H   0  0  0  0  0  0  0  0  0  0  0  0
  -25.7420  -16.0540   20.1910 N   0  0  0  0  0  0  0  0  0  0  0  0
  -24.8800  -16.5890   20.2780 H   0  0  0  0  0  0  0  0  0  0  0  0
  -26.2950  -16.3850   19.4140 H   0  0  0  0  0  0  0  0  0  0  0  0
  -22.1720  -26.3730   17.0980 C   0  0  0  0  0  2  0  0  0  0  0  0
  -23.3650  -25.7050   16.4310 N   0  0  0  0  0  4  0  0  0  0  0  0
  -23.1390  -25.2740   15.5720 H   0  0  0  0  0  0  0  0  0  0  0  0
  -23.4410  -24.9880   17.1210 H   0  0  0  0  0  0  0  0  0  0  0  0
  -24.7720  -26.2110   16.5180 C   0  0  0  0  0  2  0  0  0  0  0  0
  -25.7050  -25.0180   16.9850 C   0  0  0  0  0  2  0  0  0  0  0  0
  -27.2160  -25.2220   17.5260 C   0  0  0  0  0  2  0  0  0  0  0  0
  -27.5200  -25.4490   19.1050 C   0  0  0  0  0  2  0  0  0  0  0  0
  -28.2160  -26.7140   19.6670 O   0  0  0  0  0  0  0  0  0  0  0  0
  -24.9440  -31.8550   23.7480 C   0  0  0  0  0  0  0  0  0  0  0  0
  -27.3500  -27.7780   19.8970 C   0  0  0  0  0  0  0  0  0  0  0  0
  -23.6610  -30.6820   21.9570 C   0  0  0  0  0  3  0  0  0  0  0  0
  -25.1110  -29.3990   20.3440 C   0  0  0  0  0  0  0  0  0  0  0  0
  -26.2680  -31.0170   21.7780 C   0  0  0  0  0  2  0  0  0  0  0  0
  -26.3350  -29.7290   20.9600 C   0  0  0  0  0  0  0  0  0  0  0  0
  -27.4850  -28.9200   20.7730 C   0  0  0  0  0  3  0  0  0  0  0  0
  -26.1670  -27.6810   19.1500 C   0  0  0  0  0  3  0  0  0  0  0  0
  -25.0420  -28.3770   19.4280 C   0  0  0  0  0  3  0  0  0  0  0  0
  -23.8040  -30.1560   20.5470 C   0  0  0  0  0  2  0  0  0  0  0  0
  -24.9590  -31.1130   22.5670 N   0  0  0  0  0  0  0  0  0  0  0  0
  -23.8540  -32.0630   24.2880 O   0  0  0  0  0  0  0  0  0  0  0  0
  -22.8320  -29.5380   22.7040 C   0  0  0  0  0  0  0  0  0  0  0  0
  -21.5490  -29.1350   22.3190 N   0  0  0  0  0  0  0  0  0  0  0  0
  -23.4490  -28.9890   23.6140 O   0  0  0  0  0  0  0  0  0  0  0  0
  -21.0440  -29.4350   21.4630 H   0  0  0  0  0  0  0  0  0  0  0  0
  -18.3080  -27.3620   22.7730 C   0  0  0  0  0  0  0  0  0  0  0  0
  -20.7350  -28.1010   23.1350 C   0  0  0  0  0  3  0  0  0  0  0  0
  -21.0450  -26.6360   22.7360 C   0  0  0  0  0  2  0  0  0  0  0  0
  -20.1660  -25.9210   21.6570 C   0  0  0  0  0  2  0  0  0  0  0  0
  -18.6990  -25.9850   22.1260 C   0  0  0  0  0  2  0  0  0  0  0  0
  -19.2410  -28.3820   23.0990 C   0  0  0  0  0  0  0  0  0  0  0  0
  -18.7440  -29.6810   23.3980 C   0  0  0  0  0  3  0  0  0  0  0  0
  -17.3840  -29.9060   23.6520 C   0  0  0  0  0  3  0  0  0  0  0  0
  -16.5530  -28.7980   23.5170 C   0  0  0  0  0  3  0  0  0  0  0  0
  -16.9850  -27.6150   22.9000 C   0  0  0  0  0  3  0  0  0  0  0  0
  -26.2260  -32.4510   24.3900 C   0  0  0  0  0  3  0  0  0  0  0  0
  -25.9690  -33.8800   24.6700 N   0  0  0  0  0  0  0  0  0  0  0  0
  -26.2960  -34.9080   23.8600 C   0  0  0  0  0  0  0  0  0  0  0  0
  -26.9620  -34.7740   22.8440 O   0  0  0  0  0  0  0  0  0  0  0  0
  -25.3720  -34.0750   25.4480 H   0  0  0  0  0  0  0  0  0  0  0  0
  -24.6190  -36.7200   23.3980 C   0  0  0  0  0  1  0  0  0  0  0  0
  -25.8230  -36.3120   24.2590 C   0  0  0  0  0  3  0  0  0  0  0  0
  -27.9450  -37.1690   25.1380 C   0  0  0  0  0  1  0  0  0  0  0  0
  -26.8840  -37.3390   24.1400 N   0  0  0  0  0  0  0  0  0  0  0  0
  -26.5000  -38.2770   24.2540 H   0  0  0  0  0  0  0  0  0  0  0  0
  -26.6490  -31.7200   25.7180 C   0  0  1  0  0  0  0  0  0  0  0  0
  -25.4890  -31.5550   26.7150 C   0  0  0  0  0  1  0  0  0  0  0  0
  -27.2060  -30.3220   25.3910 C   0  0  0  0  0  1  0  0  0  0  0  0
  -27.7880  -32.5070   26.4190 C   0  0  0  0  0  1  0  0  0  0  0  0
  2  6  2  0
  2  5  1  0
  3  1  1  0
  3  7  1  0
  4 10  1  0
  4  1  1  0
  5  4  1  0
  5  9  1  0
  6  3  1  0
  9  8  1  0
 11 12  1  0
 11 10  2  0
 12 13  2  0
 13 22  1  0
 14 20  1  0
 15 20  1  0
 16 17  1  0
 16 15  1  0
 18 17  1  0
 18 27  1  0
 18 19  1  0
 20 19  1  0
 21 14  2  0
 22 14  1  0
 22 23  1  0
 24 25  2  0
 25 44  1  0
 26 25  1  0
 26 29  1  0
 27 24  1  0
 27 28  1  0
 28 26  2  0
 29 30  1  0
 30 31  2  0
 32 35  1  0
 32 31  1  0
 33 32  2  0
 34 33  1  0
 34 29  2  0
 35 36  1  0
 36 41  2  0
 36 37  1  0
 37 38  2  0
 38 39  1  0
 39 43  1  0
 40 39  2  0
 41 40  1  0
 42 41  1  0
 44 45  1  0
 45 48  1  0
 45 47  1  0
 46 44  2  0
 49 50  1  0
 49 24  1  0
 51 49  1  0
 52  6  1  0
 53 56  1  0
 53 52  1  0
 53 55  1  0
 54 53  1  0
 56 57  1  0
 57 58  1  0
 58 59  1  0
 59 60  1  0
 60 62  1  0
 61 72  2  0
 62 67  1  0
 63 71  1  0
 63 73  1  0
 64 70  1  0
 64 66  1  0
 65 71  1  0
 66 65  1  0
 67 66  2  0
 68 69  1  0
 68 62  2  0
 69 64  2  0
 70 63  1  0
 71 61  1  0
 73 75  2  0
 74 73  1  0
 76 74  1  0
 77 86  2  0
 77 82  1  0
 78 74  1  0
 79 78  1  0
 80 81  1  0
 80 79  1  0
 81 77  1  0
 82 78  1  0
 82 83  2  0
 83 84  1  0
 85 84  2  0
 86 85  1  0
 87 61  1  0
 87 88  1  0
 87 97  1  0
 88 91  1  0
 89 93  1  0
 89 88  1  0
 90 89  2  0
 93 92  1  0
 95 96  1  0
 95 93  1  0
 95 94  1  0
 97100  1  1
 97 98  1  0
 99 97  1  0
M  ISO  4  14 100  22 100  59 101  60 101
M  END
>  <TORSDO>  (51) 
F 27

>  <SCORE>  (51) 
-7.728

>  <name>  (51) 
51

>  <ligand_id>  (51) 
51

>  <original_smiles>  (51) 
[H]c1c([H])c([H])c2c(c1[H])C([H])([H])C([H])([H])C([H])([H])C2([H])N([H])C(=O)C1([H])N(C(=O)C([H])(N([H])C(=O)C([H])(N([H])C([H])([H])[H])C([H])([H])[H])C(C([H])([H])[H])(C([H])([H])[H])C([H])([H])[H])C([H])([H])c2c([H])c(OC([H])([H])C([H])([H])C([H])([H])C([H])([H])[N+]([H])([H])C([H])([H])c3c([H])c(C([H])([H])C([H])([H])[H])c(C([H])([H])C([H])([H])C([H])([H])C([H])([H])N([H])C(=O)N4C([H])([H])C([H])([H])C([H])([H])C([H])(n5nc(-c6c([H])c([H])c(Oc7c([H])c([H])c(F)c([H])c7F)c([H])c6[H])c(C(=O)N([H])[H])c5N([H])[H])C4([H])[H])c([H])c3C([H])([H])[H])c([H])c([H])c2C1([H])[H]

>  <smiles>  (51) 
[H]c1c([H])c([H])c2c(c1[H])C([H])([H])C([H])([H])C([H])([H])C2([H])N([H])C(=O)C1([H])N(C(=O)C([H])(N([H])C(=O)C([H])(N([H])C([H])([H])[H])C([H])([H])[H])C(C([H])([H])[H])(C([H])([H])[H])C([H])([H])[H])C([H])([H])c2c([H])c(OC([H])([H])C([H])([H])C([H])([H])C([H])([H])[N+]([H])([H])C([H])([H])c3c([H])c(C([H])([H])C([H])([H])[H])c(C([H])([H])C([H])([H])C([H])([H])C([H])([H])N([H])C(=O)N4C([H])([H])C([H])([H])C([H])([H])C([H])(n5nc(-c6c([H])c([H])c(Oc7c([H])c([H])c(F)c([H])c7F)c([H])c6[H])c(C(=O)N([H])[H])c5N([H])[H])C4([H])[H])c([H])c3C([H])([H])[H])c([H])c([H])c2C1([H])[H]

$$$$
52:0:0
     RDKit          3D

 89 97  0  0  1  0  0  0  0  0999 V2000
  -29.1910  -19.6430   20.1100 C   0  0  0  0  0  3  0  0  0  0  0  0
  -30.0970  -18.8030   20.7630 C   0  0  0  0  0  0  0  0  0  0  0  0
  -30.6380  -19.7440   21.7110 C   0  0  0  0  0  0  0  0  0  0  0  0
  -31.7540  -19.5290   22.6970 C   0  0  0  0  0  1  0  0  0  0  0  0
  -30.1150  -20.9790   21.6380 N   0  0  0  0  0  0  0  0  0  0  0  0
  -29.2450  -20.9710   20.6080 N   0  0  0  0  0  0  0  0  0  0  0  0
  -30.6770  -17.3400   20.4560 C   0  0  0  0  0  2  0  0  0  0  0  0
  -30.6570  -14.7790   20.3640 C   0  0  0  0  0  0  0  0  0  0  0  0
  -30.3620  -12.5250   19.3240 C   0  0  0  0  0  2  0  0  0  0  0  0
  -29.4260  -12.6260   18.1000 C   0  0  0  0  0  2  0  0  0  0  0  0
  -27.9600  -12.4590   18.5400 C   0  0  0  0  0  2  0  0  0  0  0  0
  -27.6010  -13.3490   19.7600 C   0  0  0  0  0  3  0  0  0  0  0  0
  -28.6630  -13.2710   20.8790 C   0  0  0  0  0  2  0  0  0  0  0  0
  -29.9650  -13.5900   20.2810 N   0  0  0  0  0  0  0  0  0  0  0  0
  -31.8320  -14.8130   19.9860 O   0  0  0  0  0  0  0  0  0  0  0  0
  -30.0140  -15.9760   20.6590 N   0  0  0  0  0  0  0  0  0  0  0  0
  -29.0460  -15.9370   20.9420 H   0  0  0  0  0  0  0  0  0  0  0  0
  -25.2240  -13.9450   20.5050 C   0  0  0  0  0  0  0  0  0  0  0  0
  -24.1560  -13.1730   20.8780 C   0  0  0  0  0  0  0  0  0  0  0  0
  -24.6140  -11.8210   20.8440 C   0  0  0  0  0  0  0  0  0  0  0  0
  -26.2630  -13.0630   20.2620 N   0  0  0  0  0  0  0  0  0  0  0  0
  -25.9040  -11.7790   20.5280 N   0  0  0  0  0  0  0  0  0  0  0  0
  -23.8850  -10.5600   21.0370 C   0  0  0  0  0  0  0  0  0  0  0  0
  -24.3210   -9.5870   21.9610 C   0  0  0  0  0  3  0  0  0  0  0  0
  -23.5900   -8.3930   22.1420 C   0  0  0  0  0  3  0  0  0  0  0  0
  -22.4080   -8.1640   21.3980 C   0  0  0  0  0  0  0  0  0  0  0  0
  -21.9910   -9.1270   20.4620 C   0  0  0  0  0  3  0  0  0  0  0  0
  -22.7220  -10.3130   20.2800 C   0  0  0  0  0  3  0  0  0  0  0  0
  -21.6460   -7.0240   21.4900 O   0  0  0  0  0  0  0  0  0  0  0  0
  -21.6040   -6.2780   22.6410 C   0  0  0  0  0  0  0  0  0  0  0  0
  -21.1910   -6.8310   23.8720 C   0  0  0  0  0  3  0  0  0  0  0  0
  -21.0950   -6.0120   25.0140 C   0  0  0  0  0  3  0  0  0  0  0  0
  -21.4000   -4.6400   24.9260 C   0  0  0  0  0  0  0  0  0  0  0  0
  -21.8060   -4.0870   23.6990 C   0  0  0  0  0  3  0  0  0  0  0  0
  -21.9040   -4.9030   22.5590 C   0  0  0  0  0  0  0  0  0  0  0  0
  -22.2750   -4.3600   21.3740 F   0  0  0  0  0  0  0  0  0  0  0  0
  -21.3000   -3.8510   26.0210 F   0  0  0  0  0  0  0  0  0  0  0  0
  -22.7630  -13.6570   21.1570 C   0  0  0  0  0  0  0  0  0  0  0  0
  -22.0380  -12.9610   22.0300 N   0  0  0  0  0  0  0  0  0  0  0  0
  -22.3250  -14.6820   20.6400 O   0  0  0  0  0  0  0  0  0  0  0  0
  -22.4060  -12.1310   22.4690 H   0  0  0  0  0  0  0  0  0  0  0  0
  -21.1030  -13.2650   22.2610 H   0  0  0  0  0  0  0  0  0  0  0  0
  -25.3900  -15.3140   20.3280 N   0  0  0  0  0  0  0  0  0  0  0  0
  -24.6280  -15.9740   20.4510 H   0  0  0  0  0  0  0  0  0  0  0  0
  -26.2440  -15.7530   20.0050 H   0  0  0  0  0  0  0  0  0  0  0  0
  -28.4430  -22.2150   20.2360 C   0  0  0  0  0  2  0  0  0  0  0  0
  -28.9680  -23.7250   20.5170 C   0  0  0  0  0  3  0  0  0  0  0  0
  -28.0110  -24.9410   20.0450 C   0  0  0  0  0  3  0  0  0  0  0  0
  -28.2810  -26.4080   20.2510 O   0  0  0  0  0  0  0  0  0  0  0  0
  -24.6100  -31.8940   23.2460 C   0  0  0  0  0  0  0  0  0  0  0  0
  -27.1920  -27.3080   20.1680 C   0  0  0  0  0  0  0  0  0  0  0  0
  -23.3960  -30.5020   21.6070 C   0  0  0  0  0  3  0  0  0  0  0  0
  -24.8370  -28.9600   20.1600 C   0  0  0  0  0  0  0  0  0  0  0  0
  -25.9400  -30.8020   21.4240 C   0  0  0  0  0  2  0  0  0  0  0  0
  -26.0120  -29.4280   20.7640 C   0  0  0  0  0  0  0  0  0  0  0  0
  -27.1900  -28.6150   20.7600 C   0  0  0  0  0  3  0  0  0  0  0  0
  -25.9970  -26.9160   19.5210 C   0  0  0  0  0  3  0  0  0  0  0  0
  -24.8360  -27.7120   19.5240 C   0  0  0  0  0  3  0  0  0  0  0  0
  -23.6060  -29.8410   20.2200 C   0  0  0  0  0  2  0  0  0  0  0  0
  -24.6670  -31.0860   22.1470 N   0  0  0  0  0  0  0  0  0  0  0  0
  -23.5300  -32.1710   23.7880 O   0  0  0  0  0  0  0  0  0  0  0  0
  -22.7390  -29.4810   22.5690 C   0  0  0  0  0  0  0  0  0  0  0  0
  -21.4120  -29.2990   22.4450 N   0  0  0  0  0  0  0  0  0  0  0  0
  -23.4210  -28.8560   23.3860 O   0  0  0  0  0  0  0  0  0  0  0  0
  -20.9220  -29.8550   21.7590 H   0  0  0  0  0  0  0  0  0  0  0  0
  -18.0420  -28.0800   22.9450 C   0  0  0  0  0  0  0  0  0  0  0  0
  -20.5990  -28.3580   23.2170 C   0  0  0  0  0  3  0  0  0  0  0  0
  -20.7110  -26.9260   22.6440 C   0  0  0  0  0  2  0  0  0  0  0  0
  -19.6120  -26.5940   21.6300 C   0  0  0  0  0  2  0  0  0  0  0  0
  -18.2300  -26.7310   22.2720 C   0  0  0  0  0  2  0  0  0  0  0  0
  -19.1550  -28.8510   23.3740 C   0  0  0  0  0  0  0  0  0  0  0  0
  -18.9270  -30.1130   23.9650 C   0  0  0  0  0  3  0  0  0  0  0  0
  -17.6170  -30.6050   24.1290 C   0  0  0  0  0  3  0  0  0  0  0  0
  -16.5190  -29.8320   23.7160 C   0  0  0  0  0  3  0  0  0  0  0  0
  -16.7320  -28.5710   23.1300 C   0  0  0  0  0  3  0  0  0  0  0  0
  -25.8960  -32.5250   23.8630 C   0  0  0  0  0  3  0  0  0  0  0  0
  -26.4150  -31.7550   25.1390 C   0  0  1  0  0  0  0  0  0  0  0  0
  -25.3230  -31.5210   26.2100 C   0  0  0  0  0  1  0  0  0  0  0  0
  -26.9940  -30.3740   24.7520 C   0  0  0  0  0  1  0  0  0  0  0  0
  -27.5700  -32.5480   25.7950 C   0  0  0  0  0  1  0  0  0  0  0  0
  -25.5880  -33.9230   24.1960 N   0  0  0  0  0  0  0  0  0  0  0  0
  -25.9120  -34.9780   23.4340 C   0  0  0  0  0  0  0  0  0  0  0  0
  -26.5710  -34.8760   22.3960 O   0  0  0  0  0  0  0  0  0  0  0  0
  -25.0010  -34.0760   25.0020 H   0  0  0  0  0  0  0  0  0  0  0  0
  -24.1800  -36.7730   23.1040 C   0  0  0  0  0  1  0  0  0  0  0  0
  -25.4300  -36.3670   23.9000 C   0  0  0  0  0  3  0  0  0  0  0  0
  -27.5690  -37.2570   24.7130 C   0  0  0  0  0  1  0  0  0  0  0  0
  -26.4630  -37.4180   23.7720 N   0  0  0  0  0  0  0  0  0  0  0  0
  -26.0590  -38.3410   23.9100 H   0  0  0  0  0  0  0  0  0  0  0  0
  1  6  1  0
  1  2  2  0
  2  3  1  0
  3  4  1  0
  5  3  2  0
  6  5  1  0
  7 16  1  0
  7  2  1  0
  8 16  1  0
  9 14  1  0
 10 11  1  0
 10  9  1  0
 12 11  1  0
 12 21  1  0
 12 13  1  0
 14  8  1  0
 14 13  1  0
 15  8  2  0
 16 17  1  0
 18 19  2  0
 19 38  1  0
 20 19  1  0
 20 23  1  0
 21 18  1  0
 21 22  1  0
 22 20  2  0
 23 24  1  0
 24 25  2  0
 26 29  1  0
 26 25  1  0
 27 26  2  0
 28 27  1  0
 28 23  2  0
 29 30  1  0
 30 31  1  0
 31 32  2  0
 33 32  1  0
 33 37  1  0
 34 33  2  0
 35 30  2  0
 35 34  1  0
 36 35  1  0
 38 39  1  0
 39 42  1  0
 39 41  1  0
 40 38  2  0
 43 44  1  0
 43 18  1  0
 45 43  1  0
 46 47  1  0
 46  6  1  0
 48 49  1  0
 48 47  2  0
 50 61  2  0
 51 49  1  0
 51 56  1  0
 52 60  1  0
 52 62  1  0
 53 59  1  0
 53 55  1  0
 54 60  1  0
 55 54  1  0
 56 55  2  0
 57 58  1  0
 57 51  2  0
 58 53  2  0
 59 52  1  0
 60 50  1  0
 62 64  2  0
 63 62  1  0
 65 63  1  0
 66 75  2  0
 66 71  1  0
 67 63  1  0
 67 71  1  0
 68 67  1  0
 69 70  1  0
 69 68  1  0
 70 66  1  0
 71 72  2  0
 72 73  1  0
 74 73  2  0
 75 74  1  0
 76 50  1  0
 76 81  1  0
 76 77  1  0
 77 80  1  1
 77 78  1  0
 79 77  1  0
 81 84  1  0
 82 86  1  0
 82 81  1  0
 83 82  2  0
 86 85  1  0
 88 86  1  0
 88 89  1  0
 88 87  1  0
M  ISO  4   8 100  16 100  48 101  49 101
M  END
>  <TORSDO>  (52) 
F 20

>  <SCORE>  (52) 
-13.874

>  <name>  (52) 
52

>  <ligand_id>  (52) 
52

>  <original_smiles>  (52) 
[H]c1c([H])c([H])c2c(c1[H])C([H])([H])C([H])([H])C([H])([H])C2([H])N([H])C(=O)C1([H])N(C(=O)C([H])(N([H])C(=O)C([H])(N([H])C([H])([H])[H])C([H])([H])[H])C(C([H])([H])[H])(C([H])([H])[H])C([H])([H])[H])C([H])([H])c2c([H])c(OC([H])([H])C([H])([H])C([H])([H])n3nc(C([H])([H])[H])c(C([H])([H])N([H])C(=O)N4C([H])([H])C([H])([H])C([H])([H])C([H])(n5nc(-c6c([H])c([H])c(Oc7c([H])c([H])c(F)c([H])c7F)c([H])c6[H])c(C(=O)N([H])[H])c5N([H])[H])C4([H])[H])c3[H])c([H])c([H])c2C1([H])[H]

>  <smiles>  (52) 
[H]c1c([H])c([H])c2c(c1[H])C([H])([H])C([H])([H])C([H])([H])C2([H])N([H])C(=O)C1([H])N(C(=O)C([H])(N([H])C(=O)C([H])(N([H])C([H])([H])[H])C([H])([H])[H])C(C([H])([H])[H])(C([H])([H])[H])C([H])([H])[H])C([H])([H])c2c([H])c(OC([H])([H])C([H])([H])C([H])([H])n3nc(C([H])([H])[H])c(C([H])([H])N([H])C(=O)N4C([H])([H])C([H])([H])C([H])([H])C([H])(n5nc(-c6c([H])c([H])c(Oc7c([H])c([H])c(F)c([H])c7F)c([H])c6[H])c(C(=O)N([H])[H])c5N([H])[H])C4([H])[H])c3[H])c([H])c([H])c2C1([H])[H]

$$$$
53:0:0
     RDKit          3D

 90 98  0  0  1  0  0  0  0  0999 V2000
  -29.7340  -19.0920   20.5080 C   0  0  0  0  0  3  0  0  0  0  0  0
  -30.1990  -20.4400   20.3110 C   0  0  0  0  0  0  0  0  0  0  0  0
  -30.8550  -18.3240   20.7670 C   0  0  0  0  0  0  0  0  0  0  0  0
  -33.3310  -18.9660   20.8570 C   0  0  0  0  0  1  0  0  0  0  0  0
  -31.5200  -20.4730   20.3630 N   0  0  0  0  0  0  0  0  0  0  0  0
  -31.9140  -19.2160   20.6640 N   0  0  0  0  0  0  0  0  0  0  0  0
  -29.4550  -21.7470   19.9750 C   0  0  0  0  0  2  0  0  0  0  0  0
  -29.6570  -22.9320   20.9860 C   0  0  0  0  0  2  0  0  0  0  0  0
  -29.6000  -24.4100   20.4410 C   0  0  0  0  0  2  0  0  0  0  0  0
  -28.3090  -25.2480   20.6980 C   0  0  0  0  0  2  0  0  0  0  0  0
  -28.4570  -26.6660   20.3880 O   0  0  0  0  0  0  0  0  0  0  0  0
  -24.6360  -31.9830   23.3130 C   0  0  0  0  0  0  0  0  0  0  0  0
  -27.3000  -27.4370   20.3560 C   0  0  0  0  0  0  0  0  0  0  0  0
  -23.4460  -30.5450   21.6930 C   0  0  0  0  0  3  0  0  0  0  0  0
  -24.9110  -28.9810   20.3100 C   0  0  0  0  0  0  0  0  0  0  0  0
  -25.9760  -30.8930   21.5100 C   0  0  0  0  0  2  0  0  0  0  0  0
  -26.0700  -29.5070   20.8950 C   0  0  0  0  0  0  0  0  0  0  0  0
  -27.2690  -28.7450   20.9080 C   0  0  0  0  0  3  0  0  0  0  0  0
  -26.1200  -26.9460   19.7510 C   0  0  0  0  0  3  0  0  0  0  0  0
  -24.9350  -27.7030   19.7310 C   0  0  0  0  0  3  0  0  0  0  0  0
  -23.6680  -29.8430   20.3290 C   0  0  0  0  0  2  0  0  0  0  0  0
  -24.7040  -31.1570   22.2290 N   0  0  0  0  0  0  0  0  0  0  0  0
  -23.5500  -32.2650   23.8390 O   0  0  0  0  0  0  0  0  0  0  0  0
  -22.7890  -29.5430   22.6700 C   0  0  0  0  0  0  0  0  0  0  0  0
  -21.4680  -29.3440   22.5280 N   0  0  0  0  0  0  0  0  0  0  0  0
  -23.4650  -28.9450   23.5100 O   0  0  0  0  0  0  0  0  0  0  0  0
  -20.9810  -29.8780   21.8210 H   0  0  0  0  0  0  0  0  0  0  0  0
  -18.1010  -28.1090   22.9940 C   0  0  0  0  0  0  0  0  0  0  0  0
  -20.6490  -28.4180   23.3120 C   0  0  0  0  0  3  0  0  0  0  0  0
  -20.7870  -26.9710   22.7840 C   0  0  0  0  0  2  0  0  0  0  0  0
  -19.7130  -26.5990   21.7580 C   0  0  0  0  0  2  0  0  0  0  0  0
  -18.3140  -26.7410   22.3670 C   0  0  0  0  0  2  0  0  0  0  0  0
  -19.1980  -28.9020   23.4240 C   0  0  0  0  0  0  0  0  0  0  0  0
  -18.9460  -30.1800   23.9690 C   0  0  0  0  0  3  0  0  0  0  0  0
  -17.6300  -30.6650   24.0910 C   0  0  0  0  0  3  0  0  0  0  0  0
  -16.5480  -29.8690   23.6770 C   0  0  0  0  0  3  0  0  0  0  0  0
  -16.7840  -28.5930   23.1350 C   0  0  0  0  0  3  0  0  0  0  0  0
  -25.9150  -32.6320   23.9270 C   0  0  0  0  0  3  0  0  0  0  0  0
  -25.5990  -34.0330   24.2310 N   0  0  0  0  0  0  0  0  0  0  0  0
  -25.9270  -35.0730   23.4520 C   0  0  0  0  0  0  0  0  0  0  0  0
  -26.5980  -34.9540   22.4240 O   0  0  0  0  0  0  0  0  0  0  0  0
  -25.0030  -34.2000   25.0280 H   0  0  0  0  0  0  0  0  0  0  0  0
  -24.1890  -36.8480   23.0620 C   0  0  0  0  0  1  0  0  0  0  0  0
  -25.4320  -36.4670   23.8810 C   0  0  0  0  0  3  0  0  0  0  0  0
  -27.5620  -37.3770   24.6960 C   0  0  0  0  0  1  0  0  0  0  0  0
  -26.4590  -37.5230   23.7500 N   0  0  0  0  0  0  0  0  0  0  0  0
  -26.0460  -38.4440   23.8870 H   0  0  0  0  0  0  0  0  0  0  0  0
  -26.4310  -31.8840   25.2180 C   0  0  1  0  0  0  0  0  0  0  0  0
  -25.3310  -31.6530   26.2800 C   0  0  0  0  0  1  0  0  0  0  0  0
  -27.0300  -30.5070   24.8500 C   0  0  0  0  0  1  0  0  0  0  0  0
  -27.5690  -32.7010   25.8760 C   0  0  0  0  0  1  0  0  0  0  0  0
  -31.1420  -16.8730   21.2020 C   0  0  0  0  0  2  0  0  0  0  0  0
  -30.7350  -14.6320   20.1520 C   0  0  0  0  0  0  0  0  0  0  0  0
  -30.3780  -12.4680   18.9690 C   0  0  0  0  0  2  0  0  0  0  0  0
  -29.3730  -12.6070   17.8050 C   0  0  0  0  0  2  0  0  0  0  0  0
  -27.9240  -12.4320   18.3040 C   0  0  0  0  0  2  0  0  0  0  0  0
  -27.6400  -13.2760   19.5700 C   0  0  0  0  0  3  0  0  0  0  0  0
  -28.7470  -13.0440   20.6230 C   0  0  0  0  0  2  0  0  0  0  0  0
  -30.0230  -13.4580   20.0150 N   0  0  0  0  0  0  0  0  0  0  0  0
  -31.8400  -14.7160   19.6010 O   0  0  0  0  0  0  0  0  0  0  0  0
  -28.9280  -15.9330   21.4620 C   0  0  0  0  0  1  0  0  0  0  0  0
  -30.2380  -15.7420   20.8220 N   0  0  0  0  0  0  0  0  0  0  0  0
  -25.2980  -13.9080   20.4300 C   0  0  0  0  0  0  0  0  0  0  0  0
  -24.2440  -13.1430   20.8460 C   0  0  0  0  0  0  0  0  0  0  0  0
  -24.6830  -11.7870   20.7580 C   0  0  0  0  0  0  0  0  0  0  0  0
  -26.3140  -13.0170   20.1190 N   0  0  0  0  0  0  0  0  0  0  0  0
  -25.9520  -11.7360   20.3780 N   0  0  0  0  0  0  0  0  0  0  0  0
  -23.9510  -10.5310   20.9540 C   0  0  0  0  0  0  0  0  0  0  0  0
  -24.4140   -9.5380   21.8440 C   0  0  0  0  0  3  0  0  0  0  0  0
  -23.6840   -8.3450   22.0270 C   0  0  0  0  0  3  0  0  0  0  0  0
  -22.4760   -8.1370   21.3190 C   0  0  0  0  0  0  0  0  0  0  0  0
  -22.0330   -9.1190   20.4160 C   0  0  0  0  0  3  0  0  0  0  0  0
  -22.7630  -10.3040   20.2310 C   0  0  0  0  0  3  0  0  0  0  0  0
  -21.7130   -7.0000   21.4160 O   0  0  0  0  0  0  0  0  0  0  0  0
  -21.6970   -6.2380   22.5560 C   0  0  0  0  0  0  0  0  0  0  0  0
  -21.3120   -6.7720   23.8050 C   0  0  0  0  0  3  0  0  0  0  0  0
  -21.2450   -5.9360   24.9380 C   0  0  0  0  0  3  0  0  0  0  0  0
  -21.5530   -4.5670   24.8220 C   0  0  0  0  0  0  0  0  0  0  0  0
  -21.9320   -4.0320   23.5780 C   0  0  0  0  0  3  0  0  0  0  0  0
  -22.0010   -4.8660   22.4480 C   0  0  0  0  0  0  0  0  0  0  0  0
  -22.3470   -4.3420   21.2470 F   0  0  0  0  0  0  0  0  0  0  0  0
  -21.4800   -3.7620   25.9070 F   0  0  0  0  0  0  0  0  0  0  0  0
  -22.8700  -13.6320   21.2040 C   0  0  0  0  0  0  0  0  0  0  0  0
  -22.1840  -12.9280   22.0980 N   0  0  0  0  0  0  0  0  0  0  0  0
  -22.4160  -14.6720   20.7280 O   0  0  0  0  0  0  0  0  0  0  0  0
  -22.5660  -12.0890   22.5080 H   0  0  0  0  0  0  0  0  0  0  0  0
  -21.2640  -13.2340   22.3810 H   0  0  0  0  0  0  0  0  0  0  0  0
  -25.4630  -15.2800   20.2670 N   0  0  0  0  0  0  0  0  0  0  0  0
  -24.7010  -15.9300   20.4290 H   0  0  0  0  0  0  0  0  0  0  0  0
  -26.2800  -15.7190   19.8610 H   0  0  0  0  0  0  0  0  0  0  0  0
  1  3  2  0
  2  5  2  0
  2  1  1  0
  3 52  1  0
  5  6  1  0
  6  3  1  0
  6  4  1  0
  7  2  1  0
  7  8  1  0
  9 10  1  0
  9  8  1  0
 11 10  1  0
 12 23  2  0
 13 11  1  0
 13 18  1  0
 14 22  1  0
 14 24  1  0
 15 21  1  0
 15 17  1  0
 16 22  1  0
 17 18  2  0
 17 16  1  0
 19 13  2  0
 20 19  1  0
 20 15  2  0
 21 14  1  0
 22 12  1  0
 24 26  2  0
 25 24  1  0
 27 25  1  0
 28 37  2  0
 28 33  1  0
 29 25  1  0
 29 33  1  0
 30 29  1  0
 31 32  1  0
 31 30  1  0
 32 28  1  0
 33 34  2  0
 34 35  1  0
 36 35  2  0
 37 36  1  0
 38 12  1  0
 38 39  1  0
 38 48  1  0
 39 42  1  0
 40 44  1  0
 40 39  1  0
 41 40  2  0
 44 43  1  0
 46 44  1  0
 46 47  1  0
 46 45  1  0
 48 51  1  1
 48 49  1  0
 50 48  1  0
 53 62  1  0
 54 59  1  0
 55 56  1  0
 55 54  1  0
 57 56  1  0
 57 66  1  0
 57 58  1  0
 59 53  1  0
 59 58  1  0
 60 53  2  0
 62 52  1  0
 62 61  1  0
 63 64  2  0
 64 83  1  0
 65 64  1  0
 65 68  1  0
 66 67  1  0
 66 63  1  0
 67 65  2  0
 68 69  1  0
 69 70  2  0
 71 74  1  0
 71 70  1  0
 72 71  2  0
 73 72  1  0
 73 68  2  0
 74 75  1  0
 75 76  1  0
 76 77  2  0
 78 77  1  0
 78 82  1  0
 79 78  2  0
 80 75  2  0
 80 79  1  0
 81 80  1  0
 83 84  1  0
 84 87  1  0
 84 86  1  0
 85 83  2  0
 88 89  1  0
 88 63  1  0
 90 88  1  0
M  ISO  4  10 101  11 101  53 100  62 100
M  END
>  <TORSDO>  (53) 
F 21

>  <SCORE>  (53) 
-13.054

>  <name>  (53) 
53

>  <ligand_id>  (53) 
53

>  <original_smiles>  (53) 
[H]c1c([H])c([H])c2c(c1[H])C([H])([H])C([H])([H])C([H])([H])C2([H])N([H])C(=O)C1([H])N(C(=O)C([H])(N([H])C(=O)C([H])(N([H])C([H])([H])[H])C([H])([H])[H])C(C([H])([H])[H])(C([H])([H])[H])C([H])([H])[H])C([H])([H])c2c([H])c(OC([H])([H])C([H])([H])C([H])([H])C([H])([H])c3nn(C([H])([H])[H])c(C([H])([H])N(C(=O)N4C([H])([H])C([H])([H])C([H])([H])C([H])(n5nc(-c6c([H])c([H])c(Oc7c([H])c([H])c(F)c([H])c7F)c([H])c6[H])c(C(=O)N([H])[H])c5N([H])[H])C4([H])[H])C([H])([H])[H])c3[H])c([H])c([H])c2C1([H])[H]

>  <smiles>  (53) 
[H]c1c([H])c([H])c2c(c1[H])C([H])([H])C([H])([H])C([H])([H])C2([H])N([H])C(=O)C1([H])N(C(=O)C([H])(N([H])C(=O)C([H])(N([H])C([H])([H])[H])C([H])([H])[H])C(C([H])([H])[H])(C([H])([H])[H])C([H])([H])[H])C([H])([H])c2c([H])c(OC([H])([H])C([H])([H])C([H])([H])C([H])([H])c3nn(C([H])([H])[H])c(C([H])([H])N(C(=O)N4C([H])([H])C([H])([H])C([H])([H])C([H])(n5nc(-c6c([H])c([H])c(Oc7c([H])c([H])c(F)c([H])c7F)c([H])c6[H])c(C(=O)N([H])[H])c5N([H])[H])C4([H])[H])C([H])([H])[H])c3[H])c([H])c([H])c2C1([H])[H]

$$$$
54:0:0
     RDKit          3D

 94102  0  0  1  0  0  0  0  0999 V2000
  -30.2260  -22.0650   20.4880 C   0  0  0  0  0  3  0  0  0  0  0  0
  -28.9000  -20.2750   19.5020 C   0  0  0  0  0  3  0  0  0  0  0  0
  -28.1040  -22.5760   19.4170 C   0  0  0  0  0  3  0  0  0  0  0  0
  -30.0470  -20.6810   20.2180 C   0  0  0  0  0  0  0  0  0  0  0  0
  -29.2640  -23.0290   20.0850 C   0  0  0  0  0  0  0  0  0  0  0  0
  -27.9120  -21.2070   19.1040 C   0  0  0  0  0  0  0  0  0  0  0  0
  -25.9390  -19.6460   19.2100 C   0  0  0  0  0  1  0  0  0  0  0  0
  -27.0850  -20.0760   17.0130 C   0  0  0  0  0  1  0  0  0  0  0  0
  -25.6480  -21.8290   18.0430 C   0  0  0  0  0  1  0  0  0  0  0  0
  -26.6610  -20.7050   18.3550 C   0  0  2  0  0  0  0  0  0  0  0  0
  -31.0930  -19.6610   20.7090 C   0  0  0  0  0  2  0  0  0  0  0  0
  -30.6090  -18.2880   21.2860 C   0  0  0  0  0  2  0  0  0  0  0  0
  -30.3850  -17.1790   20.2240 C   0  0  0  0  0  2  0  0  0  0  0  0
  -31.0170  -14.7430   20.3830 C   0  0  0  0  0  0  0  0  0  0  0  0
  -30.7350  -12.5370   19.3190 C   0  0  0  0  0  2  0  0  0  0  0  0
  -29.8090  -12.7120   18.0960 C   0  0  0  0  0  2  0  0  0  0  0  0
  -28.3290  -12.5960   18.5110 C   0  0  0  0  0  2  0  0  0  0  0  0
  -27.9820  -13.4740   19.7440 C   0  0  0  0  0  3  0  0  0  0  0  0
  -29.0220  -13.2790   20.8730 C   0  0  0  0  0  2  0  0  0  0  0  0
  -30.3570  -13.5530   20.3150 N   0  0  0  0  0  0  0  0  0  0  0  0
  -32.1550  -14.9020   19.9340 O   0  0  0  0  0  0  0  0  0  0  0  0
  -30.2580  -15.8000   20.7460 N   0  0  0  0  0  0  0  0  0  0  0  0
  -29.3560  -15.5570   21.1320 H   0  0  0  0  0  0  0  0  0  0  0  0
  -25.6050  -14.1360   20.4750 C   0  0  0  0  0  0  0  0  0  0  0  0
  -24.5110  -13.3870   20.8160 C   0  0  0  0  0  0  0  0  0  0  0  0
  -24.9260  -12.0230   20.7340 C   0  0  0  0  0  0  0  0  0  0  0  0
  -26.6200  -13.2280   20.2120 N   0  0  0  0  0  0  0  0  0  0  0  0
  -26.2140  -11.9500   20.4240 N   0  0  0  0  0  0  0  0  0  0  0  0
  -24.1580  -10.7790   20.8770 C   0  0  0  0  0  0  0  0  0  0  0  0
  -24.5700   -9.7520   21.7550 C   0  0  0  0  0  3  0  0  0  0  0  0
  -23.8060   -8.5740   21.8880 C   0  0  0  0  0  3  0  0  0  0  0  0
  -22.6130   -8.4140   21.1430 C   0  0  0  0  0  0  0  0  0  0  0  0
  -22.2190   -9.4290   20.2540 C   0  0  0  0  0  3  0  0  0  0  0  0
  -22.9840  -10.5990   20.1180 C   0  0  0  0  0  3  0  0  0  0  0  0
  -21.8200   -7.2930   21.1900 O   0  0  0  0  0  0  0  0  0  0  0  0
  -21.7710   -6.4920   22.3020 C   0  0  0  0  0  0  0  0  0  0  0  0
  -21.4110   -6.9990   23.5710 C   0  0  0  0  0  3  0  0  0  0  0  0
  -21.3050   -6.1270   24.6730 C   0  0  0  0  0  3  0  0  0  0  0  0
  -21.5480   -4.7510   24.5090 C   0  0  0  0  0  0  0  0  0  0  0  0
  -21.8990   -4.2430   23.2460 C   0  0  0  0  0  3  0  0  0  0  0  0
  -22.0070   -5.1120   22.1450 C   0  0  0  0  0  0  0  0  0  0  0  0
  -22.3260   -4.6140   20.9260 F   0  0  0  0  0  0  0  0  0  0  0  0
  -21.4380   -3.9110   25.5650 F   0  0  0  0  0  0  0  0  0  0  0  0
  -23.1310  -13.9010   21.1060 C   0  0  0  0  0  0  0  0  0  0  0  0
  -22.3850  -13.2070   21.9590 N   0  0  0  0  0  0  0  0  0  0  0  0
  -22.7220  -14.9510   20.6120 O   0  0  0  0  0  0  0  0  0  0  0  0
  -22.7270  -12.3560   22.3800 H   0  0  0  0  0  0  0  0  0  0  0  0
  -21.4590  -13.5330   22.1960 H   0  0  0  0  0  0  0  0  0  0  0  0
  -25.8160  -15.5060   20.3470 N   0  0  0  0  0  0  0  0  0  0  0  0
  -25.0700  -16.1800   20.4770 H   0  0  0  0  0  0  0  0  0  0  0  0
  -26.6770  -15.9270   20.0230 H   0  0  0  0  0  0  0  0  0  0  0  0
  -29.4240  -24.5290   20.4230 C   0  0  0  0  0  2  0  0  0  0  0  0
  -28.7310  -25.5180   19.4390 C   0  0  0  0  0  2  0  0  0  0  0  0
  -28.7690  -26.9110   19.8470 O   0  0  0  0  0  0  0  0  0  0  0  0
  -24.5300  -31.6590   23.0710 C   0  0  0  0  0  0  0  0  0  0  0  0
  -27.5680  -27.6050   19.7990 C   0  0  0  0  0  0  0  0  0  0  0  0
  -23.4790  -30.2990   21.2940 C   0  0  0  0  0  3  0  0  0  0  0  0
  -25.0810  -28.9730   19.8150 C   0  0  0  0  0  0  0  0  0  0  0  0
  -25.9810  -30.8330   21.2180 C   0  0  0  0  0  2  0  0  0  0  0  0
  -26.1830  -29.5190   20.4840 C   0  0  0  0  0  0  0  0  0  0  0  0
  -27.4280  -28.8450   20.4720 C   0  0  0  0  0  3  0  0  0  0  0  0
  -26.4450  -27.0940   19.1030 C   0  0  0  0  0  3  0  0  0  0  0  0
  -25.2080  -27.7600   19.1200 C   0  0  0  0  0  3  0  0  0  0  0  0
  -23.7790  -29.7400   19.8790 C   0  0  0  0  0  2  0  0  0  0  0  0
  -24.6790  -30.9410   21.9210 N   0  0  0  0  0  0  0  0  0  0  0  0
  -23.4150  -31.8190   23.5860 O   0  0  0  0  0  0  0  0  0  0  0  0
  -22.8690  -29.1700   22.1560 C   0  0  0  0  0  0  0  0  0  0  0  0
  -21.5460  -28.9690   22.0300 N   0  0  0  0  0  0  0  0  0  0  0  0
  -23.5800  -28.4820   22.8930 O   0  0  0  0  0  0  0  0  0  0  0  0
  -21.0310  -29.5800   21.4130 H   0  0  0  0  0  0  0  0  0  0  0  0
  -18.1950  -27.7120   22.5380 C   0  0  0  0  0  0  0  0  0  0  0  0
  -20.7640  -27.9380   22.7140 C   0  0  0  0  0  3  0  0  0  0  0  0
  -20.8330  -26.5930   21.9560 C   0  0  0  0  0  2  0  0  0  0  0  0
  -19.6810  -26.3990   20.9650 C   0  0  0  0  0  2  0  0  0  0  0  0
  -18.3330  -26.4600   21.6900 C   0  0  0  0  0  2  0  0  0  0  0  0
  -19.3370  -28.4150   23.0070 C   0  0  0  0  0  0  0  0  0  0  0  0
  -19.1540  -29.5930   23.7620 C   0  0  0  0  0  3  0  0  0  0  0  0
  -17.8620  -30.0680   24.0530 C   0  0  0  0  0  3  0  0  0  0  0  0
  -16.7350  -29.3590   23.6010 C   0  0  0  0  0  3  0  0  0  0  0  0
  -16.9020  -28.1830   22.8500 C   0  0  0  0  0  3  0  0  0  0  0  0
  -25.7480  -32.3290   23.7790 C   0  0  0  0  0  3  0  0  0  0  0  0
  -25.3660  -33.7120   24.0980 N   0  0  0  0  0  0  0  0  0  0  0  0
  -25.6990  -34.7820   23.3630 C   0  0  0  0  0  0  0  0  0  0  0  0
  -26.4290  -34.7110   22.3700 O   0  0  0  0  0  0  0  0  0  0  0  0
  -24.7230  -33.8370   24.8670 H   0  0  0  0  0  0  0  0  0  0  0  0
  -23.9120  -36.4960   22.9340 C   0  0  0  0  0  1  0  0  0  0  0  0
  -25.1330  -36.1460   23.7990 C   0  0  0  0  0  3  0  0  0  0  0  0
  -27.1930  -37.1160   24.7160 C   0  0  0  0  0  1  0  0  0  0  0  0
  -26.1230  -37.2430   23.7300 N   0  0  0  0  0  0  0  0  0  0  0  0
  -25.6720  -38.1430   23.8670 H   0  0  0  0  0  0  0  0  0  0  0  0
  -26.2090  -31.5640   25.0790 C   0  0  1  0  0  0  0  0  0  0  0  0
  -25.0600  -31.2810   26.0760 C   0  0  0  0  0  1  0  0  0  0  0  0
  -26.8600  -30.2090   24.7140 C   0  0  0  0  0  1  0  0  0  0  0  0
  -27.2900  -32.3880   25.8180 C   0  0  0  0  0  1  0  0  0  0  0  0
  2  4  2  0
  3  5  1  0
  4  1  1  0
  4 11  1  0
  5 52  1  0
  5  1  2  0
  6  3  2  0
  6  2  1  0
 10  8  1  6
  9 10  1  0
 10  6  1  0
 10  7  1  0
 11 12  1  0
 13 22  1  0
 13 12  1  0
 14 22  1  0
 15 20  1  0
 16 17  1  0
 16 15  1  0
 18 17  1  0
 18 27  1  0
 18 19  1  0
 20 14  1  0
 20 19  1  0
 21 14  2  0
 22 23  1  0
 24 25  2  0
 25 44  1  0
 26 25  1  0
 26 29  1  0
 27 28  1  0
 27 24  1  0
 28 26  2  0
 29 30  1  0
 30 31  2  0
 32 35  1  0
 32 31  1  0
 33 32  2  0
 34 33  1  0
 34 29  2  0
 35 36  1  0
 36 37  1  0
 37 38  2  0
 39 38  1  0
 39 43  1  0
 40 39  2  0
 41 36  2  0
 41 40  1  0
 42 41  1  0
 44 45  1  0
 45 48  1  0
 45 47  1  0
 46 44  2  0
 49 24  1  0
 49 50  1  0
 51 49  1  0
 53 54  1  0
 53 52  1  0
 55 66  2  0
 56 54  1  0
 56 61  1  0
 57 65  1  0
 57 67  1  0
 58 64  1  0
 58 60  1  0
 59 65  1  0
 60 59  1  0
 61 60  2  0
 62 63  1  0
 62 56  2  0
 63 58  2  0
 64 57  1  0
 65 55  1  0
 67 69  2  0
 68 67  1  0
 70 68  1  0
 71 80  2  0
 71 76  1  0
 72 68  1  0
 72 76  1  0
 73 72  1  0
 74 75  1  0
 74 73  1  0
 75 71  1  0
 76 77  2  0
 77 78  1  0
 79 78  2  0
 80 79  1  0
 81 55  1  0
 81 82  1  0
 81 91  1  0
 82 85  1  0
 83 87  1  0
 83 82  1  0
 84 83  2  0
 87 86  1  0
 89 87  1  0
 89 90  1  0
 89 88  1  0
 91 94  1  1
 91 92  1  0
 93 91  1  0
M  ISO  4  14 100  22 100  53 101  54 101
M  END
>  <TORSDO>  (54) 
F 22

>  <SCORE>  (54) 
-12.045

>  <name>  (54) 
54

>  <ligand_id>  (54) 
54

>  <original_smiles>  (54) 
[H]c1c([H])c([H])c2c(c1[H])C([H])([H])C([H])([H])C([H])([H])C2([H])N([H])C(=O)C1([H])N(C(=O)C([H])(N([H])C(=O)C([H])(N([H])C([H])([H])[H])C([H])([H])[H])C(C([H])([H])[H])(C([H])([H])[H])C([H])([H])[H])C([H])([H])c2c([H])c(OC([H])([H])C([H])([H])c3c([H])c(C([H])([H])C([H])([H])C([H])([H])N([H])C(=O)N4C([H])([H])C([H])([H])C([H])([H])C([H])(n5nc(-c6c([H])c([H])c(Oc7c([H])c([H])c(F)c([H])c7F)c([H])c6[H])c(C(=O)N([H])[H])c5N([H])[H])C4([H])[H])c([H])c(C(C([H])([H])[H])(C([H])([H])[H])C([H])([H])[H])c3[H])c([H])c([H])c2C1([H])[H]

>  <smiles>  (54) 
[H]c1c([H])c([H])c2c(c1[H])C([H])([H])C([H])([H])C([H])([H])C2([H])N([H])C(=O)C1([H])N(C(=O)C([H])(N([H])C(=O)C([H])(N([H])C([H])([H])[H])C([H])([H])[H])C(C([H])([H])[H])(C([H])([H])[H])C([H])([H])[H])C([H])([H])c2c([H])c(OC([H])([H])C([H])([H])c3c([H])c(C([H])([H])C([H])([H])C([H])([H])N([H])C(=O)N4C([H])([H])C([H])([H])C([H])([H])C([H])(n5nc(-c6c([H])c([H])c(Oc7c([H])c([H])c(F)c([H])c7F)c([H])c6[H])c(C(=O)N([H])[H])c5N([H])[H])C4([H])[H])c([H])c(C(C([H])([H])[H])(C([H])([H])[H])C([H])([H])[H])c3[H])c([H])c([H])c2C1([H])[H]

$$$$
55:0:0
     RDKit          3D

 93101  0  0  1  0  0  0  0  0999 V2000
  -30.5730  -20.9960   20.9520 C   0  0  0  0  0  3  0  0  0  0  0  0
  -28.2820  -20.4640   20.4700 C   0  0  0  0  0  3  0  0  0  0  0  0
  -29.2490  -21.4570   20.7570 C   0  0  0  0  0  0  0  0  0  0  0  0
  -30.9040  -19.6050   20.9500 C   0  0  0  0  0  0  0  0  0  0  0  0
  -28.5950  -19.0730   20.4680 C   0  0  0  0  0  0  0  0  0  0  0  0
  -29.9130  -18.5950   20.7370 C   0  0  0  0  0  0  0  0  0  0  0  0
  -32.3370  -19.2290   21.2890 C   0  0  0  0  0  1  0  0  0  0  0  0
  -27.4480  -18.1020   20.2640 C   0  0  0  0  0  1  0  0  0  0  0  0
  -28.8140  -22.9160   21.1210 C   0  0  0  0  0  2  0  0  0  0  0  0
  -28.8730  -24.1330   20.1140 C   0  0  0  0  0  2  0  0  0  0  0  0
  -28.3590  -25.4840   20.7650 C   0  0  0  0  0  2  0  0  0  0  0  0
  -28.4330  -26.7470   20.0270 O   0  0  0  0  0  0  0  0  0  0  0  0
  -24.6310  -31.9550   23.2320 C   0  0  0  0  0  0  0  0  0  0  0  0
  -27.2940  -27.5450   20.0580 C   0  0  0  0  0  0  0  0  0  0  0  0
  -23.4320  -30.5730   21.5700 C   0  0  0  0  0  3  0  0  0  0  0  0
  -24.8940  -29.0720   20.1060 C   0  0  0  0  0  0  0  0  0  0  0  0
  -25.9580  -30.9490   21.3680 C   0  0  0  0  0  2  0  0  0  0  0  0
  -26.0570  -29.5870   20.6970 C   0  0  0  0  0  0  0  0  0  0  0  0
  -27.2630  -28.8330   20.6630 C   0  0  0  0  0  3  0  0  0  0  0  0
  -26.1140  -27.0650   19.4560 C   0  0  0  0  0  3  0  0  0  0  0  0
  -24.9220  -27.8160   19.4780 C   0  0  0  0  0  3  0  0  0  0  0  0
  -23.6440  -29.9230   20.1770 C   0  0  0  0  0  2  0  0  0  0  0  0
  -24.6920  -31.1750   22.1140 N   0  0  0  0  0  0  0  0  0  0  0  0
  -23.5490  -32.2050   23.7840 O   0  0  0  0  0  0  0  0  0  0  0  0
  -22.7950  -29.5290   22.5160 C   0  0  0  0  0  0  0  0  0  0  0  0
  -21.4700  -29.3340   22.3940 N   0  0  0  0  0  0  0  0  0  0  0  0
  -23.4890  -28.8960   23.3160 O   0  0  0  0  0  0  0  0  0  0  0  0
  -20.9700  -29.8980   21.7220 H   0  0  0  0  0  0  0  0  0  0  0  0
  -18.1110  -28.0980   22.9030 C   0  0  0  0  0  0  0  0  0  0  0  0
  -20.6710  -28.3690   23.1500 C   0  0  0  0  0  3  0  0  0  0  0  0
  -20.7780  -26.9540   22.5330 C   0  0  0  0  0  2  0  0  0  0  0  0
  -19.6650  -26.6500   21.5250 C   0  0  0  0  0  2  0  0  0  0  0  0
  -18.2900  -26.7680   22.1890 C   0  0  0  0  0  2  0  0  0  0  0  0
  -19.2300  -28.8570   23.3390 C   0  0  0  0  0  0  0  0  0  0  0  0
  -19.0090  -30.1010   23.9670 C   0  0  0  0  0  3  0  0  0  0  0  0
  -17.7030  -30.5890   24.1630 C   0  0  0  0  0  3  0  0  0  0  0  0
  -16.6000  -29.8260   23.7420 C   0  0  0  0  0  3  0  0  0  0  0  0
  -16.8050  -28.5830   23.1170 C   0  0  0  0  0  3  0  0  0  0  0  0
  -25.9130  -32.5890   23.8580 C   0  0  0  0  0  3  0  0  0  0  0  0
  -25.5990  -33.9850   24.1900 N   0  0  0  0  0  0  0  0  0  0  0  0
  -25.9390  -35.0410   23.4400 C   0  0  0  0  0  0  0  0  0  0  0  0
  -26.6200  -34.9430   22.4150 O   0  0  0  0  0  0  0  0  0  0  0  0
  -24.9960  -34.1350   24.9850 H   0  0  0  0  0  0  0  0  0  0  0  0
  -24.2160  -36.8360   23.0720 C   0  0  0  0  0  1  0  0  0  0  0  0
  -25.4470  -36.4280   23.8970 C   0  0  0  0  0  3  0  0  0  0  0  0
  -27.5680  -37.3120   24.7610 C   0  0  0  0  0  1  0  0  0  0  0  0
  -26.4810  -37.4810   23.8010 N   0  0  0  0  0  0  0  0  0  0  0  0
  -26.0730  -38.4010   23.9450 H   0  0  0  0  0  0  0  0  0  0  0  0
  -26.4290  -31.8150   25.1320 C   0  0  1  0  0  0  0  0  0  0  0  0
  -25.3330  -31.5670   26.1950 C   0  0  0  0  0  1  0  0  0  0  0  0
  -27.0230  -30.4440   24.7360 C   0  0  0  0  0  1  0  0  0  0  0  0
  -27.5730  -32.6150   25.8000 C   0  0  0  0  0  1  0  0  0  0  0  0
  -30.2120  -17.0550   20.9790 C   0  0  0  0  0  2  0  0  0  0  0  0
  -30.9700  -14.8680   20.0420 C   0  0  0  0  0  0  0  0  0  0  0  0
  -30.6570  -12.6330   19.0290 C   0  0  0  0  0  2  0  0  0  0  0  0
  -29.6780  -12.7520   17.8420 C   0  0  0  0  0  2  0  0  0  0  0  0
  -28.2230  -12.6010   18.3300 C   0  0  0  0  0  2  0  0  0  0  0  0
  -27.9040  -13.4730   19.5750 C   0  0  0  0  0  3  0  0  0  0  0  0
  -29.0090  -13.3770   20.6490 C   0  0  0  0  0  2  0  0  0  0  0  0
  -30.2830  -13.6860   19.9910 N   0  0  0  0  0  0  0  0  0  0  0  0
  -32.1810  -14.8990   19.7970 O   0  0  0  0  0  0  0  0  0  0  0  0
  -30.2480  -16.0330   19.8710 N   0  0  0  0  0  0  0  0  0  0  0  0
  -25.5580  -14.0580   20.4360 C   0  0  0  0  0  0  0  0  0  0  0  0
  -24.4990  -13.2840   20.8190 C   0  0  0  0  0  0  0  0  0  0  0  0
  -24.9400  -11.9300   20.7010 C   0  0  0  0  0  0  0  0  0  0  0  0
  -26.5800  -13.1800   20.1150 N   0  0  0  0  0  0  0  0  0  0  0  0
  -26.2160  -11.8920   20.3350 N   0  0  0  0  0  0  0  0  0  0  0  0
  -24.2030  -10.6710   20.8570 C   0  0  0  0  0  0  0  0  0  0  0  0
  -24.6300   -9.6730   21.7600 C   0  0  0  0  0  3  0  0  0  0  0  0
  -23.8920   -8.4780   21.9060 C   0  0  0  0  0  3  0  0  0  0  0  0
  -22.7140   -8.2750   21.1500 C   0  0  0  0  0  0  0  0  0  0  0  0
  -22.3060   -9.2630   20.2370 C   0  0  0  0  0  3  0  0  0  0  0  0
  -23.0440  -10.4500   20.0880 C   0  0  0  0  0  3  0  0  0  0  0  0
  -21.9490   -7.1360   21.2080 O   0  0  0  0  0  0  0  0  0  0  0  0
  -21.8570   -6.3890   22.3540 C   0  0  0  0  0  0  0  0  0  0  0  0
  -21.3870   -6.9380   23.5680 C   0  0  0  0  0  3  0  0  0  0  0  0
  -21.2440   -6.1170   24.7040 C   0  0  0  0  0  3  0  0  0  0  0  0
  -21.5600   -4.7480   24.6290 C   0  0  0  0  0  0  0  0  0  0  0  0
  -22.0220   -4.1980   23.4210 C   0  0  0  0  0  3  0  0  0  0  0  0
  -22.1680   -5.0150   22.2860 C   0  0  0  0  0  0  0  0  0  0  0  0
  -22.5940   -4.4750   21.1200 F   0  0  0  0  0  0  0  0  0  0  0  0
  -21.4130   -3.9580   25.7180 F   0  0  0  0  0  0  0  0  0  0  0  0
  -23.1240  -13.7690   21.1740 C   0  0  0  0  0  0  0  0  0  0  0  0
  -22.4270  -13.0530   22.0500 N   0  0  0  0  0  0  0  0  0  0  0  0
  -22.6770  -14.8180   20.7120 O   0  0  0  0  0  0  0  0  0  0  0  0
  -22.7990  -12.2040   22.4490 H   0  0  0  0  0  0  0  0  0  0  0  0
  -21.5080  -13.3620   22.3290 H   0  0  0  0  0  0  0  0  0  0  0  0
  -25.7260  -15.4300   20.3020 N   0  0  0  0  0  0  0  0  0  0  0  0
  -24.9650  -16.0830   20.4590 H   0  0  0  0  0  0  0  0  0  0  0  0
  -26.5460  -15.8610   19.8980 H   0  0  0  0  0  0  0  0  0  0  0  0
  -30.3840  -16.6390   18.5240 C   0  0  0  0  0  2  0  0  0  0  0  0
  -29.4540  -18.2800   16.8340 C   0  0  0  0  0  1  0  0  0  0  0  0
  -29.1290  -17.3730   18.0260 C   0  0  0  0  0  2  0  0  0  0  0  0
  2  3  1  0
  3  1  2  0
  3  9  1  0
  4  1  1  0
  4  7  1  0
  5  2  2  0
  5  6  1  0
  6  4  2  0
  6 53  1  0
  8  5  1  0
 10 11  1  0
 10  9  1  0
 12 14  1  0
 12 11  1  0
 13 24  2  0
 14 19  1  0
 15 23  1  0
 15 25  1  0
 16 22  1  0
 16 18  1  0
 17 23  1  0
 18 17  1  0
 19 18  2  0
 20 21  1  0
 20 14  2  0
 21 16  2  0
 22 15  1  0
 23 13  1  0
 25 27  2  0
 26 25  1  0
 28 26  1  0
 29 38  2  0
 29 34  1  0
 30 26  1  0
 30 34  1  0
 31 30  1  0
 32 33  1  0
 32 31  1  0
 33 29  1  0
 34 35  2  0
 35 36  1  0
 37 36  2  0
 38 37  1  0
 39 13  1  0
 39 40  1  0
 39 49  1  0
 40 43  1  0
 41 45  1  0
 41 40  1  0
 42 41  2  0
 45 44  1  0
 47 45  1  0
 47 48  1  0
 47 46  1  0
 49 52  1  1
 49 50  1  0
 51 49  1  0
 55 60  1  0
 56 57  1  0
 56 55  1  0
 58 57  1  0
 58 66  1  0
 58 59  1  0
 60 54  1  0
 60 59  1  0
 61 54  2  0
 62 54  1  0
 62 53  1  0
 63 64  2  0
 64 83  1  0
 65 64  1  0
 65 68  1  0
 66 67  1  0
 66 63  1  0
 67 65  2  0
 68 69  1  0
 69 70  2  0
 71 74  1  0
 71 70  1  0
 72 71  2  0
 73 72  1  0
 73 68  2  0
 74 75  1  0
 75 76  1  0
 76 77  2  0
 78 77  1  0
 78 82  1  0
 79 78  2  0
 80 75  2  0
 80 79  1  0
 81 80  1  0
 83 84  1  0
 84 87  1  0
 84 86  1  0
 85 83  2  0
 88 63  1  0
 88 89  1  0
 90 88  1  0
 91 62  1  0
 92 93  1  0
 93 91  1  0
M  ISO  4  11 101  12 101  54 100  62 100
M  END
>  <TORSDO>  (55) 
F 22

>  <SCORE>  (55) 
-12.787

>  <name>  (55) 
55

>  <ligand_id>  (55) 
55

>  <original_smiles>  (55) 
[H]c1c([H])c([H])c2c(c1[H])C([H])([H])C([H])([H])C([H])([H])C2([H])N([H])C(=O)C1([H])N(C(=O)C([H])(N([H])C(=O)C([H])(N([H])C([H])([H])[H])C([H])([H])[H])C(C([H])([H])[H])(C([H])([H])[H])C([H])([H])[H])C([H])([H])c2c([H])c(OC([H])([H])C([H])([H])C([H])([H])c3c([H])c(C([H])([H])[H])c(C([H])([H])N(C(=O)N4C([H])([H])C([H])([H])C([H])([H])C([H])(n5nc(-c6c([H])c([H])c(Oc7c([H])c([H])c(F)c([H])c7F)c([H])c6[H])c(C(=O)N([H])[H])c5N([H])[H])C4([H])[H])C([H])([H])C([H])([H])C([H])([H])[H])c(C([H])([H])[H])c3[H])c([H])c([H])c2C1([H])[H]

>  <smiles>  (55) 
[H]c1c([H])c([H])c2c(c1[H])C([H])([H])C([H])([H])C([H])([H])C2([H])N([H])C(=O)C1([H])N(C(=O)C([H])(N([H])C(=O)C([H])(N([H])C([H])([H])[H])C([H])([H])[H])C(C([H])([H])[H])(C([H])([H])[H])C([H])([H])[H])C([H])([H])c2c([H])c(OC([H])([H])C([H])([H])C([H])([H])c3c([H])c(C([H])([H])[H])c(C([H])([H])N(C(=O)N4C([H])([H])C([H])([H])C([H])([H])C([H])(n5nc(-c6c([H])c([H])c(Oc7c([H])c([H])c(F)c([H])c7F)c([H])c6[H])c(C(=O)N([H])[H])c5N([H])[H])C4([H])[H])C([H])([H])C([H])([H])C([H])([H])[H])c(C([H])([H])[H])c3[H])c([H])c([H])c2C1([H])[H]

$$$$
56:0:0
     RDKit          3D

 92100  0  0  1  0  0  0  0  0999 V2000
  -30.4010  -21.0310   21.4990 C   0  0  0  0  0  3  0  0  0  0  0  0
  -28.4600  -20.3320   20.2750 C   0  0  0  0  0  3  0  0  0  0  0  0
  -29.1540  -21.3660   20.9340 C   0  0  0  0  0  0  0  0  0  0  0  0
  -30.9240  -19.7010   21.4740 C   0  0  0  0  0  0  0  0  0  0  0  0
  -30.1580  -18.6210   20.9030 C   0  0  0  0  0  0  0  0  0  0  0  0
  -28.9320  -18.9940   20.2620 C   0  0  0  0  0  0  0  0  0  0  0  0
  -27.8970  -17.8690   19.4560 Cl  0  0  0  0  0  0  0  0  0  0  0  0
  -33.0910  -20.6940   22.5710 C   0  0  0  0  0  1  0  0  0  0  0  0
  -32.3150  -19.4470   22.0920 C   0  0  0  0  0  2  0  0  0  0  0  0
  -30.4870  -16.6990   22.5610 C   0  0  0  0  0  1  0  0  0  0  0  0
  -30.6540  -17.1260   21.0880 C   0  0  0  0  0  3  0  0  0  0  0  0
  -30.0660  -15.9630   20.1990 C   0  0  0  0  0  2  0  0  0  0  0  0
  -30.8770  -14.6240   20.0780 C   0  0  0  0  0  0  0  0  0  0  0  0
  -30.5800  -12.3850   19.0850 C   0  0  0  0  0  2  0  0  0  0  0  0
  -29.5920  -12.5420   17.9070 C   0  0  0  0  0  2  0  0  0  0  0  0
  -28.1320  -12.4120   18.3910 C   0  0  0  0  0  2  0  0  0  0  0  0
  -27.8340  -13.2770   19.6410 C   0  0  0  0  0  3  0  0  0  0  0  0
  -28.9420  -13.1280   20.7070 C   0  0  0  0  0  2  0  0  0  0  0  0
  -30.2380  -13.4160   20.0780 N   0  0  0  0  0  0  0  0  0  0  0  0
  -32.0510  -14.7200   19.7150 O   0  0  0  0  0  0  0  0  0  0  0  0
  -25.4890  -13.8900   20.5010 C   0  0  0  0  0  0  0  0  0  0  0  0
  -24.4270  -13.1220   20.9020 C   0  0  0  0  0  0  0  0  0  0  0  0
  -24.8650  -11.7660   20.8060 C   0  0  0  0  0  0  0  0  0  0  0  0
  -26.5060  -13.0010   20.1860 N   0  0  0  0  0  0  0  0  0  0  0  0
  -26.1370  -11.7160   20.4280 N   0  0  0  0  0  0  0  0  0  0  0  0
  -24.1250  -10.5100   20.9950 C   0  0  0  0  0  0  0  0  0  0  0  0
  -24.5490   -9.5370   21.9250 C   0  0  0  0  0  3  0  0  0  0  0  0
  -23.8130   -8.3450   22.0980 C   0  0  0  0  0  3  0  0  0  0  0  0
  -22.6400   -8.1180   21.3400 C   0  0  0  0  0  0  0  0  0  0  0  0
  -22.2360   -9.0830   20.3990 C   0  0  0  0  0  3  0  0  0  0  0  0
  -22.9720  -10.2650   20.2240 C   0  0  0  0  0  3  0  0  0  0  0  0
  -21.8760   -6.9790   21.4220 O   0  0  0  0  0  0  0  0  0  0  0  0
  -21.7650   -6.2700   22.5930 C   0  0  0  0  0  0  0  0  0  0  0  0
  -21.2570   -6.8550   23.7720 C   0  0  0  0  0  3  0  0  0  0  0  0
  -21.0970   -6.0730   24.9330 C   0  0  0  0  0  3  0  0  0  0  0  0
  -21.4310   -4.7060   24.9150 C   0  0  0  0  0  0  0  0  0  0  0  0
  -21.9310   -4.1200   23.7380 C   0  0  0  0  0  3  0  0  0  0  0  0
  -22.0970   -4.9010   22.5800 C   0  0  0  0  0  0  0  0  0  0  0  0
  -22.5600   -4.3280   21.4450 F   0  0  0  0  0  0  0  0  0  0  0  0
  -21.2720   -3.9510   26.0280 F   0  0  0  0  0  0  0  0  0  0  0  0
  -23.0570  -13.6140   21.2650 C   0  0  0  0  0  0  0  0  0  0  0  0
  -22.3620  -12.9070   22.1490 N   0  0  0  0  0  0  0  0  0  0  0  0
  -22.6110  -14.6620   20.7990 O   0  0  0  0  0  0  0  0  0  0  0  0
  -22.7360  -12.0630   22.5590 H   0  0  0  0  0  0  0  0  0  0  0  0
  -21.4440  -13.2190   22.4290 H   0  0  0  0  0  0  0  0  0  0  0  0
  -25.6630  -15.2610   20.3600 N   0  0  0  0  0  0  0  0  0  0  0  0
  -24.9090  -15.9160   20.5270 H   0  0  0  0  0  0  0  0  0  0  0  0
  -26.5000  -15.7130   20.0140 H   0  0  0  0  0  0  0  0  0  0  0  0
  -28.4730  -22.7390   21.1940 C   0  0  0  0  0  2  0  0  0  0  0  0
  -28.9420  -24.0360   20.4450 C   0  0  0  0  0  2  0  0  0  0  0  0
  -28.1150  -25.2980   20.8880 C   0  0  0  0  0  2  0  0  0  0  0  0
  -28.4050  -26.5900   20.2640 O   0  0  0  0  0  0  0  0  0  0  0  0
  -24.6440  -31.9190   23.2050 C   0  0  0  0  0  0  0  0  0  0  0  0
  -27.3010  -27.4260   20.1860 C   0  0  0  0  0  0  0  0  0  0  0  0
  -23.4540  -30.5100   21.5580 C   0  0  0  0  0  3  0  0  0  0  0  0
  -24.9240  -28.9750   20.1390 C   0  0  0  0  0  0  0  0  0  0  0  0
  -25.9840  -30.8620   21.3810 C   0  0  0  0  0  2  0  0  0  0  0  0
  -26.0780  -29.4860   20.7490 C   0  0  0  0  0  0  0  0  0  0  0  0
  -27.2740  -28.7180   20.7730 C   0  0  0  0  0  3  0  0  0  0  0  0
  -26.1390  -26.9590   19.5360 C   0  0  0  0  0  3  0  0  0  0  0  0
  -24.9500  -27.7120   19.5250 C   0  0  0  0  0  3  0  0  0  0  0  0
  -23.6780  -29.8320   20.1790 C   0  0  0  0  0  2  0  0  0  0  0  0
  -24.7120  -31.1130   22.1080 N   0  0  0  0  0  0  0  0  0  0  0  0
  -23.5590  -32.1890   23.7390 O   0  0  0  0  0  0  0  0  0  0  0  0
  -22.7990  -29.4880   22.5170 C   0  0  0  0  0  0  0  0  0  0  0  0
  -21.4720  -29.3190   22.3980 N   0  0  0  0  0  0  0  0  0  0  0  0
  -23.4800  -28.8530   23.3270 O   0  0  0  0  0  0  0  0  0  0  0  0
  -20.9820  -29.8780   21.7130 H   0  0  0  0  0  0  0  0  0  0  0  0
  -18.0870  -28.1590   22.9210 C   0  0  0  0  0  0  0  0  0  0  0  0
  -20.6530  -28.3760   23.1620 C   0  0  0  0  0  3  0  0  0  0  0  0
  -20.7290  -26.9530   22.5570 C   0  0  0  0  0  2  0  0  0  0  0  0
  -19.5950  -26.6480   21.5710 C   0  0  0  0  0  2  0  0  0  0  0  0
  -18.2330  -26.8100   22.2460 C   0  0  0  0  0  2  0  0  0  0  0  0
  -19.2220  -28.8980   23.3460 C   0  0  0  0  0  0  0  0  0  0  0  0
  -19.0290  -30.1580   23.9530 C   0  0  0  0  0  3  0  0  0  0  0  0
  -17.7330  -30.6790   24.1380 C   0  0  0  0  0  3  0  0  0  0  0  0
  -16.6130  -29.9360   23.7270 C   0  0  0  0  0  3  0  0  0  0  0  0
  -16.7920  -28.6780   23.1230 C   0  0  0  0  0  3  0  0  0  0  0  0
  -25.9240  -32.5550   23.8280 C   0  0  0  0  0  3  0  0  0  0  0  0
  -25.6110  -33.9510   24.1530 N   0  0  0  0  0  0  0  0  0  0  0  0
  -25.9560  -35.0060   23.4030 C   0  0  0  0  0  0  0  0  0  0  0  0
  -26.6460  -34.9060   22.3870 O   0  0  0  0  0  0  0  0  0  0  0  0
  -25.0090  -34.1050   24.9470 H   0  0  0  0  0  0  0  0  0  0  0  0
  -24.2510  -36.8070   22.9980 C   0  0  0  0  0  1  0  0  0  0  0  0
  -25.4610  -36.3930   23.8500 C   0  0  0  0  0  3  0  0  0  0  0  0
  -27.5680  -37.2660   24.7620 C   0  0  0  0  0  1  0  0  0  0  0  0
  -26.5010  -37.4430   23.7800 N   0  0  0  0  0  0  0  0  0  0  0  0
  -26.0900  -38.3630   23.9230 H   0  0  0  0  0  0  0  0  0  0  0  0
  -26.4380  -31.7870   25.1060 C   0  0  1  0  0  0  0  0  0  0  0  0
  -25.3420  -31.5370   26.1680 C   0  0  0  0  0  1  0  0  0  0  0  0
  -27.0340  -30.4160   24.7130 C   0  0  0  0  0  1  0  0  0  0  0  0
  -27.5760  -32.5900   25.7770 C   0  0  0  0  0  1  0  0  0  0  0  0
  2  3  1  0
  3 49  1  0
  3  1  2  0
  4  1  1  0
  4  9  1  0
  5 11  1  0
  5  4  2  0
  6  2  2  0
  6  5  1  0
  7  6  1  0
  9  8  1  0
 11 10  1  0
 12 11  1  0
 13 12  1  0
 14 19  1  0
 15 16  1  0
 15 14  1  0
 17 16  1  0
 17 24  1  0
 17 18  1  0
 19 13  1  0
 19 18  1  0
 20 13  2  0
 21 22  2  0
 22 41  1  0
 23 22  1  0
 23 26  1  0
 24 25  1  0
 24 21  1  0
 25 23  2  0
 26 27  1  0
 27 28  2  0
 29 32  1  0
 29 28  1  0
 30 29  2  0
 31 30  1  0
 31 26  2  0
 32 33  1  0
 33 34  1  0
 34 35  2  0
 36 35  1  0
 36 40  1  0
 37 36  2  0
 38 33  2  0
 38 37  1  0
 39 38  1  0
 41 42  1  0
 42 45  1  0
 42 44  1  0
 43 41  2  0
 46 21  1  0
 46 47  1  0
 48 46  1  0
 50 51  1  0
 50 49  1  0
 52 51  1  0
 53 64  2  0
 54 52  1  0
 54 59  1  0
 55 63  1  0
 55 65  1  0
 56 62  1  0
 56 58  1  0
 57 63  1  0
 58 59  2  0
 58 57  1  0
 60 54  2  0
 61 60  1  0
 61 56  2  0
 62 55  1  0
 63 53  1  0
 65 67  2  0
 66 65  1  0
 68 66  1  0
 69 78  2  0
 69 74  1  0
 70 66  1  0
 70 74  1  0
 71 70  1  0
 72 73  1  0
 72 71  1  0
 73 69  1  0
 74 75  2  0
 75 76  1  0
 77 76  2  0
 78 77  1  0
 79 53  1  0
 79 80  1  0
 79 89  1  0
 80 83  1  0
 81 85  1  0
 81 80  1  0
 82 81  2  0
 85 84  1  0
 87 85  1  0
 87 88  1  0
 87 86  1  0
 89 92  1  1
 89 90  1  0
 91 89  1  0
M  ISO  4  12 100  13 100  51 101  52 101
M  END
>  <TORSDO>  (56) 
F 22

>  <SCORE>  (56) 
-13.493

>  <name>  (56) 
56

>  <ligand_id>  (56) 
56

>  <original_smiles>  (56) 
[H]c1c([H])c([H])c2c(c1[H])C([H])([H])C([H])([H])C([H])([H])C2([H])N([H])C(=O)C1([H])N(C(=O)C([H])(N([H])C(=O)C([H])(N([H])C([H])([H])[H])C([H])([H])[H])C(C([H])([H])[H])(C([H])([H])[H])C([H])([H])[H])C([H])([H])c2c([H])c(OC([H])([H])C([H])([H])C([H])([H])c3c([H])c(Cl)c(C([H])(C([H])([H])[H])C([H])([H])C(=O)N4C([H])([H])C([H])([H])C([H])([H])C([H])(n5nc(-c6c([H])c([H])c(Oc7c([H])c([H])c(F)c([H])c7F)c([H])c6[H])c(C(=O)N([H])[H])c5N([H])[H])C4([H])[H])c(C([H])([H])C([H])([H])[H])c3[H])c([H])c([H])c2C1([H])[H]

>  <smiles>  (56) 
[H]c1c([H])c([H])c2c(c1[H])C([H])([H])C([H])([H])C([H])([H])C2([H])N([H])C(=O)C1([H])N(C(=O)C([H])(N([H])C(=O)C([H])(N([H])C([H])([H])[H])C([H])([H])[H])C(C([H])([H])[H])(C([H])([H])[H])C([H])([H])[H])C([H])([H])c2c([H])c(OC([H])([H])C([H])([H])C([H])([H])c3c([H])c(Cl)c(C([H])(C([H])([H])[H])C([H])([H])C(=O)N4C([H])([H])C([H])([H])C([H])([H])C([H])(n5nc(-c6c([H])c([H])c(Oc7c([H])c([H])c(F)c([H])c7F)c([H])c6[H])c(C(=O)N([H])[H])c5N([H])[H])C4([H])[H])c(C([H])([H])C([H])([H])[H])c3[H])c([H])c([H])c2C1([H])[H]

$$$$
57:0:0
     RDKit          3D

 94 98  0  0  1  0  0  0  0  0999 V2000
  -22.9420  -26.6210   18.0430 C   0  0  0  0  0  2  0  0  0  0  0  0
  -21.5260  -26.7400   18.1060 C   0  0  0  0  0  3  0  0  0  0  0  0
  -23.4760  -27.0410   19.2340 C   0  0  0  0  0  3  0  0  0  0  0  0
  -21.0430  -26.8290   19.3380 N   0  0  0  0  0  2  0  0  0  0  0  0
  -22.0810  -26.6100   20.2160 N   0  0  0  0  0  0  0  0  0  0  0  0
  -21.3230  -26.3880   15.6070 C   0  0  0  0  0  1  0  0  0  0  0  0
  -19.9240  -28.1190   16.6930 C   0  0  0  0  0  1  0  0  0  0  0  0
  -20.5840  -26.7480   16.9140 C   0  0  0  0  0  3  0  0  0  0  0  0
  -25.0980  -27.4360   19.3370 O   0  0  0  0  0  0  0  0  0  0  0  0
  -25.0180  -31.6220   22.9650 C   0  0  0  0  0  0  0  0  0  0  0  0
  -26.1810  -28.1930   18.6370 C   0  0  0  0  0  3  0  0  0  0  0  0
  -23.6330  -30.4260   21.3650 C   0  0  0  0  0  3  0  0  0  0  0  0
  -24.5870  -30.1000   18.9740 C   0  0  0  0  0  3  0  0  0  0  0  0
  -25.8820  -31.3640   20.6470 C   0  0  0  0  0  2  0  0  0  0  0  0
  -25.8120  -30.2970   19.5870 C   0  0  0  0  0  3  0  0  0  0  0  0
  -26.7840  -29.3340   19.2830 C   0  0  0  0  0  2  0  0  0  0  0  0
  -25.6630  -28.5410   17.4250 C   0  0  0  0  0  2  0  0  0  0  0  0
  -24.5950  -29.4080   17.7260 C   0  0  0  0  0  2  0  0  0  0  0  0
  -23.3850  -30.4710   19.8100 C   0  0  0  0  0  2  0  0  0  0  0  0
  -24.8450  -31.2040   21.6900 N   0  0  0  0  0  0  0  0  0  0  0  0
  -24.1520  -31.4310   23.8350 O   0  0  0  0  0  0  0  0  0  0  0  0
  -23.8480  -29.0500   22.0540 C   0  0  0  0  0  0  0  0  0  0  0  0
  -22.9140  -28.5190   22.7880 N   0  0  0  0  0  0  0  0  0  0  0  0
  -24.9160  -28.4500   22.0080 O   0  0  0  0  0  0  0  0  0  0  0  0
  -22.0100  -28.9720   22.8560 H   0  0  0  0  0  0  0  0  0  0  0  0
  -20.3190  -26.1830   21.9840 C   0  0  0  0  0  0  0  0  0  0  0  0
  -22.9580  -27.0740   23.1010 C   0  0  0  0  0  2  0  0  0  0  0  0
  -24.3610  -25.8790   21.9470 C   0  0  0  0  0 15  0  0  0  0  0  0
  -22.9870  -24.8240   20.1720 C   0  0  0  0  0 15  0  0  0  0  0  0
  -20.9740  -25.2160   20.5660 C   0  0  0  0  0  2  0  0  0  0  0  0
  -21.1750  -26.9760   22.9830 C   0  0  0  0  0  0  0  0  0  0  0  0
  -20.4350  -27.8350   23.9150 C   0  0  0  0  0  3  0  0  0  0  0  0
  -19.0240  -27.9130   24.0720 C   0  0  0  0  0  3  0  0  0  0  0  0
  -18.2400  -27.0540   23.2960 C   0  0  0  0  0  3  0  0  0  0  0  0
  -18.8750  -26.2320   22.3010 C   0  0  0  0  0  3  0  0  0  0  0  0
  -26.3030  -32.3800   23.3660 C   0  0  0  0  0  3  0  0  0  0  0  0
  -25.8560  -33.5710   24.0930 N   0  0  0  0  0  0  0  0  0  0  0  0
  -25.9660  -34.8180   23.6240 C   0  0  0  0  0  0  0  0  0  0  0  0
  -26.5450  -35.0920   22.5690 O   0  0  0  0  0  0  0  0  0  0  0  0
  -25.3300  -33.4180   24.9410 H   0  0  0  0  0  0  0  0  0  0  0  0
  -24.1400  -36.5460   23.7170 C   0  0  0  0  0  1  0  0  0  0  0  0
  -25.3380  -35.9420   24.4670 C   0  0  0  0  0  3  0  0  0  0  0  0
  -27.3600  -36.5520   25.7150 C   0  0  0  0  0  1  0  0  0  0  0  0
  -26.2960  -37.0090   24.8240 N   0  0  0  0  0  0  0  0  0  0  0  0
  -25.8190  -37.7840   25.2750 H   0  0  0  0  0  0  0  0  0  0  0  0
  -27.2920  -31.5190   24.2380 C   0  0  1  0  0  0  0  0  0  0  0  0
  -26.6240  -30.8480   25.4590 C   0  0  0  0  0  1  0  0  0  0  0  0
  -27.9510  -30.3920   23.4090 C   0  0  0  0  0  1  0  0  0  0  0  0
  -28.4380  -32.4270   24.7360 C   0  0  0  0  0  1  0  0  0  0  0  0
  -22.0820  -25.2630   22.5190 C   0  0  0  0  0 15  0  0  0  0  0  0
  -23.7800  -24.1420   22.8660 C   0  0  0  0  0  1  0  0  0  0  0  0
  -25.2250  -23.2850   21.8600 C   0  0  0  0  0  2  0  0  0  0  0  0
  -26.6560  -21.9690   21.9910 C   0  0  0  0  0  2  0  0  0  0  0  0
  -27.5640  -20.5900   20.9570 C   0  0  0  0  0  2  0  0  0  0  0  0
  -28.6630  -18.9920   21.1200 C   0  0  0  0  0  3  0  0  0  0  0  0
  -29.4590  -17.6040   20.0280 C   0  0  0  0  0  3  0  0  0  0  0  0
  -31.4100  -15.0330   19.9460 C   0  0  0  0  0  0  0  0  0  0  0  0
  -32.0440  -12.4850   19.3850 C   0  0  0  0  0  2  0  0  0  0  0  0
  -31.1440  -11.9400   18.2310 C   0  0  0  0  0  2  0  0  0  0  0  0
  -29.7000  -11.6640   18.7090 C   0  0  0  0  0  2  0  0  0  0  0  0
  -29.2360  -12.7910   19.6600 C   0  0  0  0  0  3  0  0  0  0  0  0
  -30.2300  -13.0080   20.7950 C   0  0  0  0  0  2  0  0  0  0  0  0
  -31.3240  -13.6200   20.1110 N   0  0  0  0  0  0  0  0  0  0  0  0
  -32.5620  -15.2800   19.4900 O   0  0  0  0  0  0  0  0  0  0  0  0
  -30.1970  -15.9900   20.2060 N   0  0  0  0  0  0  0  0  0  0  0  0
  -29.4780  -15.3800   20.5690 H   0  0  0  0  0  0  0  0  0  0  0  0
  -26.9820  -13.5820   20.4660 C   0  0  0  0  0  0  0  0  0  0  0  0
  -25.9330  -12.9100   21.0180 C   0  0  0  0  0  0  0  0  0  0  0  0
  -26.3500  -11.5490   21.1280 C   0  0  0  0  0  0  0  0  0  0  0  0
  -27.9410  -12.6150   20.2360 N   0  0  0  0  0  0  0  0  0  0  0  0
  -27.5960  -11.4030   20.7130 N   0  0  0  0  0  0  0  0  0  0  0  0
  -25.6110  -10.3560   21.5350 C   0  0  0  0  0  0  0  0  0  0  0  0
  -25.7940   -9.7730   22.8060 C   0  0  0  0  0  3  0  0  0  0  0  0
  -25.0580   -8.6270   23.1740 C   0  0  0  0  0  3  0  0  0  0  0  0
  -24.1290   -8.0630   22.2690 C   0  0  0  0  0  0  0  0  0  0  0  0
  -23.9730   -8.6330   20.9940 C   0  0  0  0  0  3  0  0  0  0  0  0
  -24.7100   -9.7690   20.6260 C   0  0  0  0  0  3  0  0  0  0  0  0
  -23.3820   -6.9420   22.5320 O   0  0  0  0  0  0  0  0  0  0  0  0
  -22.4790   -6.9080   23.5620 C   0  0  0  0  0  0  0  0  0  0  0  0
  -21.5060   -7.9170   23.7370 C   0  0  0  0  0  3  0  0  0  0  0  0
  -20.5540   -7.8030   24.7680 C   0  0  0  0  0  3  0  0  0  0  0  0
  -20.5650   -6.6800   25.6160 C   0  0  0  0  0  0  0  0  0  0  0  0
  -21.5300   -5.6720   25.4400 C   0  0  0  0  0  3  0  0  0  0  0  0
  -22.4830   -5.7860   24.4140 C   0  0  0  0  0  0  0  0  0  0  0  0
  -23.4000   -4.8040   24.2340 F   0  0  0  0  0  0  0  0  0  0  0  0
  -19.6420   -6.5640   26.6010 F   0  0  0  0  0  0  0  0  0  0  0  0
  -24.5840  -13.4840   21.3220 C   0  0  0  0  0  0  0  0  0  0  0  0
  -23.9890  -13.0860   22.4410 N   0  0  0  0  0  0  0  0  0  0  0  0
  -24.0690  -14.3220   20.5840 O   0  0  0  0  0  0  0  0  0  0  0  0
  -24.4240  -12.4140   23.0550 H   0  0  0  0  0  0  0  0  0  0  0  0
  -23.0830  -13.4580   22.6900 H   0  0  0  0  0  0  0  0  0  0  0  0
  -27.1950  -14.9160   20.1200 N   0  0  0  0  0  0  0  0  0  0  0  0
  -26.4530  -15.5960   20.2410 H   0  0  0  0  0  0  0  0  0  0  0  0
  -27.9650  -15.2660   19.5690 H   0  0  0  0  0  0  0  0  0  0  0  0
  1  2  1  0
  2  8  1  0
  2  4  1  0
  3  1  1  0
  3  9  1  0
  3  5  1  0
  4  5  1  0
  5 30  1  0
  6  8  1  0
  7  8  1  0
 10 21  2  0
 11 17  1  0
 11 16  1  0
 11  9  1  0
 12 19  1  0
 12 20  1  0
 12 22  1  0
 13 18  1  0
 13 15  1  0
 13 19  1  0
 14 20  1  0
 15 16  1  0
 15 14  1  0
 17 18  1  0
 20 10  1  0
 22 23  1  0
 23 25  1  0
 23 27  1  0
 24 22  2  0
 26 35  2  0
 26 31  1  0
 30 26  1  0
 31 27  1  0
 31 32  2  0
 32 33  1  0
 34 33  2  0
 35 34  1  0
 36 10  1  0
 36 37  1  0
 36 46  1  0
 37 40  1  0
 38 37  1  0
 38 42  1  0
 39 38  2  0
 42 41  1  0
 42 44  1  0
 44 45  1  0
 44 43  1  0
 46 49  1  1
 46 47  1  0
 48 46  1  0
 52 53  1  0
 52 51  1  0
 54 55  1  0
 54 53  1  0
 56 65  1  0
 56 55  2  0
 57 63  1  0
 57 65  1  0
 58 63  1  0
 59 60  1  0
 59 58  1  0
 61 60  1  0
 61 70  1  0
 61 62  1  0
 63 62  1  0
 64 57  2  0
 65 66  1  0
 67 68  2  0
 68 69  1  0
 68 87  1  0
 69 72  1  0
 70 67  1  0
 70 71  1  0
 71 69  2  0
 72 73  1  0
 73 74  2  0
 75 78  1  0
 75 74  1  0
 76 75  2  0
 77 76  1  0
 77 72  2  0
 78 79  1  0
 79 80  2  0
 79 84  1  0
 80 81  1  0
 81 82  2  0
 82 86  1  0
 83 82  1  0
 84 83  2  0
 85 84  1  0
 87 88  1  0
 88 91  1  0
 88 90  1  0
 89 87  2  0
 92 93  1  0
 92 67  1  0
 94 92  1  0
M  ISO  4   3 101   9 101  57 100  65 100
M  END
>  <TORSDO>  (57) 
F 24

>  <SCORE>  (57) 
0.048

>  <name>  (57) 
57

>  <ligand_id>  (57) 
57

>  <original_smiles>  (57) 
[H]c1c([H])c([H])c2c(c1[H])C([H])([H])C([H])([H])C([H])([H])C2([H])N([H])C(=O)C1([H])N(C(=O)C([H])(N([H])C(=O)C([H])(N([H])C([H])([H])[H])C([H])([H])[H])C(C([H])([H])[H])(C([H])([H])[H])C([H])([H])[H])C([H])([H])c2c([H])c(Oc3c([H])c(C([H])(C([H])([H])[H])C([H])([H])[H])nn3C([H])([H])C([H])([H])C([H])([H])C([H])([H])C([H])([H])C([H])([H])C([H])([H])N([H])C(=O)N3C([H])([H])C([H])([H])C([H])([H])C([H])(n4nc(-c5c([H])c([H])c(Oc6c([H])c([H])c(F)c([H])c6F)c([H])c5[H])c(C(=O)N([H])[H])c4N([H])[H])C3([H])[H])c([H])c([H])c2C1([H])[H]

>  <smiles>  (57) 
[H]c1c([H])c([H])c2c(c1[H])C([H])([H])C([H])([H])C([H])([H])C2([H])N([H])C(=O)C1([H])N(C(=O)C([H])(N([H])C(=O)C([H])(N([H])C([H])([H])[H])C([H])([H])[H])C(C([H])([H])[H])(C([H])([H])[H])C([H])([H])[H])C([H])([H])c2c([H])c(Oc3c([H])c(C([H])(C([H])([H])[H])C([H])([H])[H])nn3C([H])([H])C([H])([H])C([H])([H])C([H])([H])C([H])([H])C([H])([H])C([H])([H])N([H])C(=O)N3C([H])([H])C([H])([H])C([H])([H])C([H])(n4nc(-c5c([H])c([H])c(Oc6c([H])c([H])c(F)c([H])c6F)c([H])c5[H])c(C(=O)N([H])[H])c4N([H])[H])C3([H])[H])c([H])c([H])c2C1([H])[H]

$$$$
58:0:0
     RDKit          3D

 95104  0  0  1  0  0  0  0  0999 V2000
  -29.8400  -22.5070   20.1380 C   0  0  0  0  0  3  0  0  0  0  0  0
  -29.7720  -24.2400   22.3290 C   0  0  0  0  0  3  0  0  0  0  0  0
  -29.4660  -23.8680   19.9460 C   0  0  0  0  0  0  0  0  0  0  0  0
  -30.1160  -22.8870   22.5200 C   0  0  0  0  0  0  0  0  0  0  0  0
  -30.1380  -21.9940   21.4240 C   0  0  0  0  0  0  0  0  0  0  0  0
  -29.3930  -24.7520   21.0690 C   0  0  0  0  0  0  0  0  0  0  0  0
  -29.1610  -24.3230   18.5240 C   0  0  0  0  0  1  0  0  0  0  0  0
  -30.5160  -22.4280   23.9100 C   0  0  0  0  0  1  0  0  0  0  0  0
  -30.6030  -20.5370   21.6220 C   0  0  0  0  0  2  0  0  0  0  0  0
  -29.5760  -19.4030   21.4500 C   0  0  0  0  0  2  0  0  0  0  0  0
  -29.4880  -18.9340   19.9950 C   0  0  0  0  0  2  0  0  0  0  0  0
  -30.8280  -14.7290   21.0170 C   0  0  0  0  0  0  0  0  0  0  0  0
  -30.8000  -12.3900   20.2900 C   0  0  0  0  0  2  0  0  0  0  0  0
  -30.0380  -12.3670   18.9460 C   0  0  0  0  0  2  0  0  0  0  0  0
  -28.5210  -12.2070   19.1980 C   0  0  0  0  0  2  0  0  0  0  0  0
  -27.9780  -13.2030   20.2570 C   0  0  0  0  0  3  0  0  0  0  0  0
  -28.8730  -13.2360   21.5180 C   0  0  0  0  0  2  0  0  0  0  0  0
  -30.2450  -13.5010   21.0770 N   0  0  0  0  0  0  0  0  0  0  0  0
  -32.0580  -14.8430   21.0260 O   0  0  0  0  0  0  0  0  0  0  0  0
  -29.5900  -16.3300   17.8600 C   0  0  0  0  0  2  0  0  0  0  0  0
  -28.4680  -17.2900   18.3370 C   0  0  0  0  0  2  0  0  0  0  0  0
  -30.6660  -16.0320   18.9400 C   0  0  0  0  0  2  0  0  0  0  0  0
  -28.9780  -16.4540   20.7360 C   0  0  0  0  0  2  0  0  0  0  0  0
  -28.5910  -17.6810   19.8310 C   0  0  0  0  0  3  0  0  0  0  0  0
  -30.1120  -15.6220   20.2510 N   0  0  0  0  0  0  0  0  0  0  0  0
  -25.5330  -13.8800   20.7140 C   0  0  0  0  0  0  0  0  0  0  0  0
  -24.4310  -13.1350   20.9930 C   0  0  0  0  0  0  0  0  0  0  0  0
  -24.8830  -11.7770   21.0640 C   0  0  0  0  0  0  0  0  0  0  0  0
  -26.5840  -12.9800   20.6090 N   0  0  0  0  0  0  0  0  0  0  0  0
  -26.1910  -11.7160   20.8950 N   0  0  0  0  0  0  0  0  0  0  0  0
  -24.1330  -10.5290   21.2020 C   0  0  0  0  0  0  0  0  0  0  0  0
  -24.4720   -9.5650   22.1760 C   0  0  0  0  0  3  0  0  0  0  0  0
  -23.7250   -8.3770   22.2950 C   0  0  0  0  0  3  0  0  0  0  0  0
  -22.6260   -8.1420   21.4390 C   0  0  0  0  0  0  0  0  0  0  0  0
  -22.3040   -9.0930   20.4530 C   0  0  0  0  0  3  0  0  0  0  0  0
  -23.0550  -10.2750   20.3330 C   0  0  0  0  0  3  0  0  0  0  0  0
  -21.8640   -6.9990   21.4650 O   0  0  0  0  0  0  0  0  0  0  0  0
  -21.7340   -6.2550   22.6070 C   0  0  0  0  0  0  0  0  0  0  0  0
  -21.2460   -6.8140   23.8110 C   0  0  0  0  0  3  0  0  0  0  0  0
  -21.0630   -5.9940   24.9420 C   0  0  0  0  0  3  0  0  0  0  0  0
  -21.3610   -4.6200   24.8710 C   0  0  0  0  0  0  0  0  0  0  0  0
  -21.8450   -4.0610   23.6740 C   0  0  0  0  0  3  0  0  0  0  0  0
  -22.0310   -4.8780   22.5430 C   0  0  0  0  0  0  0  0  0  0  0  0
  -22.4740   -4.3340   21.3840 F   0  0  0  0  0  0  0  0  0  0  0  0
  -21.1770   -3.8230   25.9520 F   0  0  0  0  0  0  0  0  0  0  0  0
  -23.0180  -13.6240   21.0970 C   0  0  0  0  0  0  0  0  0  0  0  0
  -22.1950  -12.9530   21.8920 N   0  0  0  0  0  0  0  0  0  0  0  0
  -22.6550  -14.6440   20.5070 O   0  0  0  0  0  0  0  0  0  0  0  0
  -22.5070  -12.1140   22.3630 H   0  0  0  0  0  0  0  0  0  0  0  0
  -21.2480  -13.2730   22.0300 H   0  0  0  0  0  0  0  0  0  0  0  0
  -25.7250  -15.2440   20.5110 N   0  0  0  0  0  0  0  0  0  0  0  0
  -24.9720  -15.9230   20.5220 H   0  0  0  0  0  0  0  0  0  0  0  0
  -26.6290  -15.6450   20.3130 H   0  0  0  0  0  0  0  0  0  0  0  0
  -28.9480  -26.2360   21.0600 C   0  0  0  0  0  2  0  0  0  0  0  0
  -28.2930  -26.7010   19.8860 O   0  0  0  0  0  0  0  0  0  0  0  0
  -24.5550  -31.9240   23.1580 C   0  0  0  0  0  0  0  0  0  0  0  0
  -27.1520  -27.4550   20.0420 C   0  0  0  0  0  0  0  0  0  0  0  0
  -23.3270  -30.5170   21.5340 C   0  0  0  0  0  3  0  0  0  0  0  0
  -24.7620  -28.9630   20.1080 C   0  0  0  0  0  0  0  0  0  0  0  0
  -25.8600  -30.8500   21.3300 C   0  0  0  0  0  2  0  0  0  0  0  0
  -25.9300  -29.4770   20.6900 C   0  0  0  0  0  0  0  0  0  0  0  0
  -27.1280  -28.7210   20.6740 C   0  0  0  0  0  3  0  0  0  0  0  0
  -25.9690  -26.9530   19.4640 C   0  0  0  0  0  3  0  0  0  0  0  0
  -24.7700  -27.6900   19.5080 C   0  0  0  0  0  3  0  0  0  0  0  0
  -23.5270  -29.8320   20.1570 C   0  0  0  0  0  2  0  0  0  0  0  0
  -24.5950  -31.1140   22.0600 N   0  0  0  0  0  0  0  0  0  0  0  0
  -23.4800  -32.1980   23.7140 O   0  0  0  0  0  0  0  0  0  0  0  0
  -22.6840  -29.4990   22.5040 C   0  0  0  0  0  0  0  0  0  0  0  0
  -21.3570  -29.3240   22.4040 N   0  0  0  0  0  0  0  0  0  0  0  0
  -23.3760  -28.8690   23.3070 O   0  0  0  0  0  0  0  0  0  0  0  0
  -20.8540  -29.8900   21.7370 H   0  0  0  0  0  0  0  0  0  0  0  0
  -17.9890  -28.1430   22.9650 C   0  0  0  0  0  0  0  0  0  0  0  0
  -20.5490  -28.3950   23.1960 C   0  0  0  0  0  3  0  0  0  0  0  0
  -20.6350  -26.9600   22.6240 C   0  0  0  0  0  2  0  0  0  0  0  0
  -19.5180  -26.6360   21.6250 C   0  0  0  0  0  2  0  0  0  0  0  0
  -18.1490  -26.7910   22.2900 C   0  0  0  0  0  2  0  0  0  0  0  0
  -19.1150  -28.9030   23.3750 C   0  0  0  0  0  0  0  0  0  0  0  0
  -18.9120  -30.1700   23.9630 C   0  0  0  0  0  3  0  0  0  0  0  0
  -17.6150  -30.6770   24.1470 C   0  0  0  0  0  3  0  0  0  0  0  0
  -16.5000  -29.9160   23.7560 C   0  0  0  0  0  3  0  0  0  0  0  0
  -16.6880  -28.6490   23.1700 C   0  0  0  0  0  3  0  0  0  0  0  0
  -25.8510  -32.5490   23.7580 C   0  0  0  0  0  3  0  0  0  0  0  0
  -26.4170  -31.7600   25.0050 C   0  0  1  0  0  0  0  0  0  0  0  0
  -25.3570  -31.4880   26.0950 C   0  0  0  0  0  1  0  0  0  0  0  0
  -27.0070  -30.3990   24.5720 C   0  0  0  0  0  1  0  0  0  0  0  0
  -27.5750  -32.5560   25.6510 C   0  0  0  0  0  1  0  0  0  0  0  0
  -25.5450  -33.9410   24.1210 N   0  0  0  0  0  0  0  0  0  0  0  0
  -25.8680  -35.0110   23.3790 C   0  0  0  0  0  0  0  0  0  0  0  0
  -26.5300  -34.9320   22.3400 O   0  0  0  0  0  0  0  0  0  0  0  0
  -24.9600  -34.0760   24.9320 H   0  0  0  0  0  0  0  0  0  0  0  0
  -24.1320  -36.8040   23.0730 C   0  0  0  0  0  1  0  0  0  0  0  0
  -25.3760  -36.3870   23.8740 C   0  0  0  0  0  3  0  0  0  0  0  0
  -27.5130  -37.2510   24.7190 C   0  0  0  0  0  1  0  0  0  0  0  0
  -26.4030  -37.4490   23.7880 N   0  0  0  0  0  0  0  0  0  0  0  0
  -25.9920  -38.3600   23.9760 H   0  0  0  0  0  0  0  0  0  0  0  0
  1  5  1  0
  2  4  1  0
  3  1  2  0
  3  6  1  0
  4  8  1  0
  5  9  1  0
  5  4  2  0
  6  2  2  0
  7  3  1  0
 10  9  1  0
 11 10  1  0
 12 19  2  0
 12 18  1  0
 13 18  1  0
 14 15  1  0
 14 13  1  0
 16 15  1  0
 16 29  1  0
 16 17  1  0
 18 17  1  0
 20 21  1  0
 20 22  1  0
 21 24  1  0
 22 25  1  0
 24 11  1  0
 24 23  1  0
 25 23  1  0
 25 12  1  0
 26 27  2  0
 27 28  1  0
 27 46  1  0
 28 31  1  0
 29 26  1  0
 29 30  1  0
 30 28  2  0
 31 32  1  0
 32 33  2  0
 34 37  1  0
 34 33  1  0
 35 34  2  0
 36 35  1  0
 36 31  2  0
 37 38  1  0
 38 39  1  0
 39 40  2  0
 41 40  1  0
 41 45  1  0
 42 41  2  0
 43 38  2  0
 43 42  1  0
 44 43  1  0
 46 47  1  0
 47 50  1  0
 47 49  1  0
 48 46  2  0
 51 52  1  0
 51 26  1  0
 53 51  1  0
 54  6  1  0
 55 57  1  0
 55 54  1  0
 56 67  2  0
 57 62  1  0
 58 66  1  0
 58 68  1  0
 59 65  1  0
 59 61  1  0
 60 66  1  0
 61 60  1  0
 62 61  2  0
 63 64  1  0
 63 57  2  0
 64 59  2  0
 65 58  1  0
 66 56  1  0
 68 70  2  0
 69 68  1  0
 71 69  1  0
 72 81  2  0
 72 77  1  0
 73 69  1  0
 73 77  1  0
 74 73  1  0
 75 76  1  0
 75 74  1  0
 76 72  1  0
 77 78  2  0
 78 79  1  0
 80 79  2  0
 81 80  1  0
 82 56  1  0
 82 87  1  0
 82 83  1  0
 83 86  1  1
 83 84  1  0
 85 83  1  0
 87 90  1  0
 88 92  1  0
 88 87  1  0
 89 88  2  0
 92 91  1  0
 94 92  1  0
 94 95  1  0
 94 93  1  0
M  ISO  4  12 100  25 100  54 101  55 101
M  END
>  <TORSDO>  (58) 
F 20

>  <SCORE>  (58) 
-12.479

>  <name>  (58) 
58

>  <ligand_id>  (58) 
58

>  <original_smiles>  (58) 
[H]c1c([H])c([H])c2c(c1[H])C([H])([H])C([H])([H])C([H])([H])C2([H])N([H])C(=O)C1([H])N(C(=O)C([H])(N([H])C(=O)C([H])(N([H])C([H])([H])[H])C([H])([H])[H])C(C([H])([H])[H])(C([H])([H])[H])C([H])([H])[H])C([H])([H])c2c([H])c(OC([H])([H])c3c([H])c(C([H])([H])[H])c(C([H])([H])C([H])([H])C([H])([H])C4([H])C([H])([H])N(C(=O)N5C([H])([H])C([H])([H])C([H])([H])C([H])(n6nc(-c7c([H])c([H])c(Oc8c([H])c([H])c(F)c([H])c8F)c([H])c7[H])c(C(=O)N([H])[H])c6N([H])[H])C5([H])[H])C([H])([H])C([H])([H])C4([H])[H])c([H])c3C([H])([H])[H])c([H])c([H])c2C1([H])[H]

>  <smiles>  (58) 
[H]c1c([H])c([H])c2c(c1[H])C([H])([H])C([H])([H])C([H])([H])C2([H])N([H])C(=O)C1([H])N(C(=O)C([H])(N([H])C(=O)C([H])(N([H])C([H])([H])[H])C([H])([H])[H])C(C([H])([H])[H])(C([H])([H])[H])C([H])([H])[H])C([H])([H])c2c([H])c(OC([H])([H])c3c([H])c(C([H])([H])[H])c(C([H])([H])C([H])([H])C([H])([H])C4([H])C([H])([H])N(C(=O)N5C([H])([H])C([H])([H])C([H])([H])C([H])(n6nc(-c7c([H])c([H])c(Oc8c([H])c([H])c(F)c([H])c8F)c([H])c7[H])c(C(=O)N([H])[H])c6N([H])[H])C5([H])[H])C([H])([H])C([H])([H])C4([H])[H])c([H])c3C([H])([H])[H])c([H])c([H])c2C1([H])[H]

$$$$
59:0:0
     RDKit          3D

 90 98  0  0  1  0  0  0  0  0999 V2000
  -30.7010  -22.8620   20.1410 C   0  0  0  0  0  3  0  0  0  0  0  0
  -31.6500  -21.8300   20.1980 C   0  0  0  0  0  3  0  0  0  0  0  0
  -28.9640  -21.1750   20.0100 C   0  0  0  0  0  3  0  0  0  0  0  0
  -29.3330  -22.5800   20.0050 C   0  0  0  0  0  0  0  0  0  0  0  0
  -31.2940  -20.4630   20.1390 C   0  0  0  0  0  0  0  0  0  0  0  0
  -29.9150  -20.0730   20.1030 C   0  0  0  0  0  0  0  0  0  0  0  0
  -32.4740  -19.5040   20.0480 C   0  0  0  0  0  1  0  0  0  0  0  0
  -28.3820  -23.8140   19.7000 C   0  0  0  0  0  2  0  0  0  0  0  0
  -28.3270  -25.0950   20.6730 C   0  0  0  0  0  2  0  0  0  0  0  0
  -28.3720  -26.4950   20.1640 O   0  0  0  0  0  0  0  0  0  0  0  0
  -24.6080  -31.8830   23.2390 C   0  0  0  0  0  0  0  0  0  0  0  0
  -27.2310  -27.3110   20.1980 C   0  0  0  0  0  0  0  0  0  0  0  0
  -23.4070  -30.4780   21.6020 C   0  0  0  0  0  3  0  0  0  0  0  0
  -24.8600  -28.9130   20.1890 C   0  0  0  0  0  0  0  0  0  0  0  0
  -25.9450  -30.7960   21.4170 C   0  0  0  0  0  2  0  0  0  0  0  0
  -26.0280  -29.4130   20.7790 C   0  0  0  0  0  0  0  0  0  0  0  0
  -27.2190  -28.6240   20.7680 C   0  0  0  0  0  3  0  0  0  0  0  0
  -26.0390  -26.8530   19.6030 C   0  0  0  0  0  3  0  0  0  0  0  0
  -24.8670  -27.6380   19.5930 C   0  0  0  0  0  3  0  0  0  0  0  0
  -23.6220  -29.7890   20.2290 C   0  0  0  0  0  2  0  0  0  0  0  0
  -24.6730  -31.0710   22.1430 N   0  0  0  0  0  0  0  0  0  0  0  0
  -23.5240  -32.1640   23.7710 O   0  0  0  0  0  0  0  0  0  0  0  0
  -22.7440  -29.4680   22.5700 C   0  0  0  0  0  0  0  0  0  0  0  0
  -21.4200  -29.2860   22.4380 N   0  0  0  0  0  0  0  0  0  0  0  0
  -23.4210  -28.8510   23.3950 O   0  0  0  0  0  0  0  0  0  0  0  0
  -20.9330  -29.8360   21.7430 H   0  0  0  0  0  0  0  0  0  0  0  0
  -18.0490  -28.0680   22.9280 C   0  0  0  0  0  0  0  0  0  0  0  0
  -20.6040  -28.3480   23.2110 C   0  0  0  0  0  3  0  0  0  0  0  0
  -20.7200  -26.9150   22.6450 C   0  0  0  0  0  2  0  0  0  0  0  0
  -19.6270  -26.5750   21.6280 C   0  0  0  0  0  2  0  0  0  0  0  0
  -18.2390  -26.7150   22.2620 C   0  0  0  0  0  2  0  0  0  0  0  0
  -19.1600  -28.8400   23.3590 C   0  0  0  0  0  0  0  0  0  0  0  0
  -18.9290  -30.1040   23.9430 C   0  0  0  0  0  3  0  0  0  0  0  0
  -17.6210  -30.5980   24.1000 C   0  0  0  0  0  3  0  0  0  0  0  0
  -16.5230  -29.8240   23.6840 C   0  0  0  0  0  3  0  0  0  0  0  0
  -16.7390  -28.5610   23.1040 C   0  0  0  0  0  3  0  0  0  0  0  0
  -25.8880  -32.5200   23.8620 C   0  0  0  0  0  3  0  0  0  0  0  0
  -26.4050  -31.7530   25.1430 C   0  0  1  0  0  0  0  0  0  0  0  0
  -25.3090  -31.5200   26.2100 C   0  0  0  0  0  1  0  0  0  0  0  0
  -26.9880  -30.3730   24.7580 C   0  0  0  0  0  1  0  0  0  0  0  0
  -27.5550  -32.5520   25.7990 C   0  0  0  0  0  1  0  0  0  0  0  0
  -25.5760  -33.9190   24.1880 N   0  0  0  0  0  0  0  0  0  0  0  0
  -25.9090  -34.9710   23.4290 C   0  0  0  0  0  0  0  0  0  0  0  0
  -26.5810  -34.8670   22.4000 O   0  0  0  0  0  0  0  0  0  0  0  0
  -24.9700  -34.0730   24.9820 H   0  0  0  0  0  0  0  0  0  0  0  0
  -24.1800  -36.7650   23.0730 C   0  0  0  0  0  1  0  0  0  0  0  0
  -25.4200  -36.3590   23.8850 C   0  0  0  0  0  3  0  0  0  0  0  0
  -27.5550  -37.2430   24.7160 C   0  0  0  0  0  1  0  0  0  0  0  0
  -26.4520  -37.4120   23.7730 N   0  0  0  0  0  0  0  0  0  0  0  0
  -26.0440  -38.3320   23.9230 H   0  0  0  0  0  0  0  0  0  0  0  0
  -29.4100  -18.5500   20.1290 C   0  0  0  0  0  3  0  0  0  0  0  0
  -30.3970  -17.2840   20.3240 C   0  0  0  0  0  3  0  0  0  0  0  0
  -30.6090  -14.7090   20.3180 C   0  0  0  0  0  0  0  0  0  0  0  0
  -30.3540  -12.4590   19.3090 C   0  0  0  0  0  2  0  0  0  0  0  0
  -29.4000  -12.5620   18.0990 C   0  0  0  0  0  2  0  0  0  0  0  0
  -27.9360  -12.4030   18.5500 C   0  0  0  0  0  2  0  0  0  0  0  0
  -27.5850  -13.2790   19.7830 C   0  0  0  0  0  3  0  0  0  0  0  0
  -28.6620  -13.1800   20.8870 C   0  0  0  0  0  2  0  0  0  0  0  0
  -29.9520  -13.5070   20.2690 N   0  0  0  0  0  0  0  0  0  0  0  0
  -31.8040  -14.7810   20.0210 O   0  0  0  0  0  0  0  0  0  0  0  0
  -29.8690  -15.8640   20.4560 N   0  0  0  0  0  0  0  0  0  0  0  0
  -28.8900  -15.7500   20.6730 H   0  0  0  0  0  0  0  0  0  0  0  0
  -25.2010  -13.8610   20.5300 C   0  0  0  0  0  0  0  0  0  0  0  0
  -24.1410  -13.0830   20.9060 C   0  0  0  0  0  0  0  0  0  0  0  0
  -24.6080  -11.7330   20.8710 C   0  0  0  0  0  0  0  0  0  0  0  0
  -26.2470  -12.9860   20.2870 N   0  0  0  0  0  0  0  0  0  0  0  0
  -25.8980  -11.7000   20.5560 N   0  0  0  0  0  0  0  0  0  0  0  0
  -23.8860  -10.4670   21.0620 C   0  0  0  0  0  0  0  0  0  0  0  0
  -24.3330   -9.4930   21.9820 C   0  0  0  0  0  3  0  0  0  0  0  0
  -23.6100   -8.2930   22.1640 C   0  0  0  0  0  3  0  0  0  0  0  0
  -22.4270   -8.0590   21.4240 C   0  0  0  0  0  0  0  0  0  0  0  0
  -21.9980   -9.0220   20.4940 C   0  0  0  0  0  3  0  0  0  0  0  0
  -22.7210  -10.2130   20.3110 C   0  0  0  0  0  3  0  0  0  0  0  0
  -21.6760   -6.9120   21.5150 O   0  0  0  0  0  0  0  0  0  0  0  0
  -21.6520   -6.1550   22.6570 C   0  0  0  0  0  0  0  0  0  0  0  0
  -21.2540   -6.6950   23.9000 C   0  0  0  0  0  3  0  0  0  0  0  0
  -21.1800   -5.8670   25.0370 C   0  0  0  0  0  3  0  0  0  0  0  0
  -21.4910   -4.4970   24.9330 C   0  0  0  0  0  0  0  0  0  0  0  0
  -21.8800   -3.9560   23.6950 C   0  0  0  0  0  3  0  0  0  0  0  0
  -21.9570   -4.7820   22.5610 C   0  0  0  0  0  0  0  0  0  0  0  0
  -22.3120   -4.2510   21.3660 F   0  0  0  0  0  0  0  0  0  0  0  0
  -21.4120   -3.6990   26.0230 F   0  0  0  0  0  0  0  0  0  0  0  0
  -22.7430  -13.5530   21.1860 C   0  0  0  0  0  0  0  0  0  0  0  0
  -22.0230  -12.8530   22.0540 N   0  0  0  0  0  0  0  0  0  0  0  0
  -22.2990  -14.5790   20.6700 O   0  0  0  0  0  0  0  0  0  0  0  0
  -22.3970  -12.0230   22.4910 H   0  0  0  0  0  0  0  0  0  0  0  0
  -21.0860  -13.1500   22.2880 H   0  0  0  0  0  0  0  0  0  0  0  0
  -25.3610  -15.2330   20.3500 N   0  0  0  0  0  0  0  0  0  0  0  0
  -24.5980  -15.8900   20.4680 H   0  0  0  0  0  0  0  0  0  0  0  0
  -26.2040  -15.6650   19.9960 H   0  0  0  0  0  0  0  0  0  0  0  0
  1  2  1  0
  3  6  2  0
  4  3  1  0
  4  1  2  0
  5  2  2  0
  6 51  1  0
  6  5  1  0
  7  5  1  0
  8  4  1  0
  8  9  1  0
 10 12  1  0
 10  9  1  0
 11 22  2  0
 12 17  1  0
 13 21  1  0
 13 23  1  0
 14 20  1  0
 14 16  1  0
 15 21  1  0
 16 15  1  0
 17 16  2  0
 18 12  2  0
 19 18  1  0
 19 14  2  0
 20 13  1  0
 21 11  1  0
 23 25  2  0
 24 23  1  0
 26 24  1  0
 27 36  2  0
 27 32  1  0
 28 24  1  0
 28 32  1  0
 29 28  1  0
 30 31  1  0
 30 29  1  0
 31 27  1  0
 32 33  2  0
 33 34  1  0
 35 34  2  0
 36 35  1  0
 37 11  1  0
 37 42  1  0
 37 38  1  0
 38 41  1  1
 38 39  1  0
 40 38  1  0
 42 45  1  0
 43 47  1  0
 43 42  1  0
 44 43  2  0
 47 46  1  0
 49 47  1  0
 49 50  1  0
 49 48  1  0
 51 52  2  0
 52 61  1  0
 53 61  1  0
 54 59  1  0
 55 56  1  0
 55 54  1  0
 57 56  1  0
 57 66  1  0
 57 58  1  0
 59 53  1  0
 59 58  1  0
 60 53  2  0
 61 62  1  0
 63 64  2  0
 64 83  1  0
 65 64  1  0
 65 68  1  0
 66 63  1  0
 66 67  1  0
 67 65  2  0
 68 69  1  0
 69 70  2  0
 71 74  1  0
 71 70  1  0
 72 71  2  0
 73 72  1  0
 73 68  2  0
 74 75  1  0
 75 76  1  0
 76 77  2  0
 78 77  1  0
 78 82  1  0
 79 78  2  0
 80 75  2  0
 80 79  1  0
 81 80  1  0
 83 84  1  0
 84 87  1  0
 84 86  1  0
 85 83  2  0
 88 89  1  0
 88 63  1  0
 90 88  1  0
M  ISO  4   9 101  10 101  53 100  61 100
M  END
>  <TORSDO>  (59) 
F 20

>  <SCORE>  (59) 
-13.792

>  <name>  (59) 
59

>  <ligand_id>  (59) 
59

>  <original_smiles>  (59) 
[H]c1c([H])c([H])c2c(c1[H])C([H])([H])C([H])([H])C([H])([H])C2([H])N([H])C(=O)C1([H])N(C(=O)C([H])(N([H])C(=O)C([H])(N([H])C([H])([H])[H])C([H])([H])[H])C(C([H])([H])[H])(C([H])([H])[H])C([H])([H])[H])C([H])([H])c2c([H])c(OC([H])([H])C([H])([H])c3c([H])c([H])c(C([H])([H])[H])c(C([H])([H])C([H])([H])N([H])C(=O)N4C([H])([H])C([H])([H])C([H])([H])C([H])(n5nc(-c6c([H])c([H])c(Oc7c([H])c([H])c(F)c([H])c7F)c([H])c6[H])c(C(=O)N([H])[H])c5N([H])[H])C4([H])[H])c3[H])c([H])c([H])c2C1([H])[H]

>  <smiles>  (59) 
[H]c1c([H])c([H])c2c(c1[H])C([H])([H])C([H])([H])C([H])([H])C2([H])N([H])C(=O)C1([H])N(C(=O)C([H])(N([H])C(=O)C([H])(N([H])C([H])([H])[H])C([H])([H])[H])C(C([H])([H])[H])(C([H])([H])[H])C([H])([H])[H])C([H])([H])c2c([H])c(OC([H])([H])C([H])([H])c3c([H])c([H])c(C([H])([H])[H])c(C([H])([H])C([H])([H])N([H])C(=O)N4C([H])([H])C([H])([H])C([H])([H])C([H])(n5nc(-c6c([H])c([H])c(Oc7c([H])c([H])c(F)c([H])c7F)c([H])c6[H])c(C(=O)N([H])[H])c5N([H])[H])C4([H])[H])c3[H])c([H])c([H])c2C1([H])[H]

$$$$
60:0:0
     RDKit          3D

 97106  0  0  1  0  0  0  0  0999 V2000
  -29.1970  -17.7470   20.9560 C   0  0  0  0  0  3  0  0  0  0  0  0
  -31.5290  -18.1450   20.3840 C   0  0  0  0  0  3  0  0  0  0  0  0
  -28.8020  -18.7990   20.1070 C   0  0  0  0  0  0  0  0  0  0  0  0
  -29.7810  -19.5370   19.3880 C   0  0  0  0  0  0  0  0  0  0  0  0
  -30.5600  -17.4180   21.1010 C   0  0  0  0  0  0  0  0  0  0  0  0
  -31.1490  -19.1960   19.5260 C   0  0  0  0  0  0  0  0  0  0  0  0
  -27.3140  -19.1200   20.0140 C   0  0  0  0  0  2  0  0  0  0  0  0
  -29.3570  -20.6990   18.4930 C   0  0  0  0  0  2  0  0  0  0  0  0
  -26.9560  -20.2350   19.0160 C   0  0  0  0  0  2  0  0  0  0  0  0
  -28.0450  -21.3300   18.9690 C   0  0  0  0  0  3  0  0  0  0  0  0
  -32.2340  -19.9410   18.7640 C   0  0  0  0  0  1  0  0  0  0  0  0
  -26.7450  -22.3360   17.0550 C   0  0  0  0  0  1  0  0  0  0  0  0
  -27.7100  -22.5450   18.1610 N   0  0  1  0  0  4  0  0  0  0  0  0
  -28.5680  -22.7890   17.6910 H   0  0  0  0  0  0  0  0  0  0  0  0
  -27.3720  -23.7290   19.0000 C   0  0  0  0  0  2  0  0  0  0  0  0
  -28.6200  -24.5740   19.3660 C   0  0  0  0  0  2  0  0  0  0  0  0
  -28.4680  -25.4330   20.6400 C   0  0  0  0  0  2  0  0  0  0  0  0
  -28.5320  -26.8340   20.3800 O   0  0  0  0  0  0  0  0  0  0  0  0
  -24.6640  -31.9920   23.3490 C   0  0  0  0  0  0  0  0  0  0  0  0
  -27.3410  -27.5200   20.3720 C   0  0  0  0  0  0  0  0  0  0  0  0
  -23.4710  -30.5530   21.7300 C   0  0  0  0  0  3  0  0  0  0  0  0
  -24.9380  -28.9960   20.3500 C   0  0  0  0  0  0  0  0  0  0  0  0
  -25.9960  -30.9210   21.5420 C   0  0  0  0  0  2  0  0  0  0  0  0
  -26.0920  -29.5430   20.9240 C   0  0  0  0  0  0  0  0  0  0  0  0
  -27.3000  -28.8160   20.9240 C   0  0  0  0  0  3  0  0  0  0  0  0
  -26.1650  -26.9720   19.8190 C   0  0  0  0  0  3  0  0  0  0  0  0
  -24.9670  -27.7050   19.7990 C   0  0  0  0  0  3  0  0  0  0  0  0
  -23.6930  -29.8520   20.3660 C   0  0  0  0  0  2  0  0  0  0  0  0
  -24.7280  -31.1690   22.2650 N   0  0  0  0  0  0  0  0  0  0  0  0
  -23.5810  -32.2710   23.8810 O   0  0  0  0  0  0  0  0  0  0  0  0
  -22.8230  -29.5440   22.7060 C   0  0  0  0  0  0  0  0  0  0  0  0
  -21.5030  -29.3440   22.5610 N   0  0  0  0  0  0  0  0  0  0  0  0
  -23.5010  -28.9490   23.5480 O   0  0  0  0  0  0  0  0  0  0  0  0
  -21.0180  -29.8800   21.8560 H   0  0  0  0  0  0  0  0  0  0  0  0
  -18.1420  -28.1080   23.0170 C   0  0  0  0  0  0  0  0  0  0  0  0
  -20.6860  -28.4170   23.3420 C   0  0  0  0  0  3  0  0  0  0  0  0
  -20.8250  -26.9700   22.8150 C   0  0  0  0  0  2  0  0  0  0  0  0
  -19.7550  -26.5960   21.7840 C   0  0  0  0  0  2  0  0  0  0  0  0
  -18.3560  -26.7390   22.3930 C   0  0  0  0  0  2  0  0  0  0  0  0
  -19.2370  -28.9020   23.4460 C   0  0  0  0  0  0  0  0  0  0  0  0
  -18.9850  -30.1820   23.9890 C   0  0  0  0  0  3  0  0  0  0  0  0
  -17.6690  -30.6650   24.1110 C   0  0  0  0  0  3  0  0  0  0  0  0
  -16.5870  -29.8700   23.6960 C   0  0  0  0  0  3  0  0  0  0  0  0
  -16.8260  -28.5930   23.1550 C   0  0  0  0  0  3  0  0  0  0  0  0
  -25.9470  -32.6400   23.9570 C   0  0  0  0  0  3  0  0  0  0  0  0
  -25.6260  -34.0410   24.2620 N   0  0  0  0  0  0  0  0  0  0  0  0
  -25.9470  -35.0820   23.4830 C   0  0  0  0  0  0  0  0  0  0  0  0
  -26.6130  -34.9690   22.4500 O   0  0  0  0  0  0  0  0  0  0  0  0
  -25.0240  -34.2040   25.0540 H   0  0  0  0  0  0  0  0  0  0  0  0
  -24.1850  -36.8430   23.1250 C   0  0  0  0  0  1  0  0  0  0  0  0
  -25.4470  -36.4720   23.9210 C   0  0  0  0  0  3  0  0  0  0  0  0
  -27.5840  -37.4040   24.6940 C   0  0  0  0  0  1  0  0  0  0  0  0
  -26.4640  -37.5360   23.7680 N   0  0  0  0  0  0  0  0  0  0  0  0
  -26.0460  -38.4540   23.9050 H   0  0  0  0  0  0  0  0  0  0  0  0
  -26.4700  -31.8890   25.2440 C   0  0  1  0  0  0  0  0  0  0  0  0
  -25.3710  -31.6190   26.2950 C   0  0  0  0  0  1  0  0  0  0  0  0
  -27.1060  -30.5310   24.8680 C   0  0  0  0  0  1  0  0  0  0  0  0
  -27.5810  -32.7260   25.9210 C   0  0  0  0  0  1  0  0  0  0  0  0
  -30.9800  -16.2530   21.9810 C   0  0  0  0  0  2  0  0  0  0  0  0
  -30.8080  -14.3050   20.4460 C   0  0  0  0  0  0  0  0  0  0  0  0
  -30.3780  -12.3210   19.0430 C   0  0  0  0  0  2  0  0  0  0  0  0
  -29.4090  -12.6390   17.8910 C   0  0  0  0  0  2  0  0  0  0  0  0
  -27.9450  -12.4950   18.3490 C   0  0  0  0  0  2  0  0  0  0  0  0
  -27.6630  -13.2530   19.6750 C   0  0  0  0  0  3  0  0  0  0  0  0
  -28.7300  -12.9070   20.7370 C   0  0  0  0  0  2  0  0  0  0  0  0
  -30.0630  -13.2040   20.1770 N   0  0  0  0  0  0  0  0  0  0  0  0
  -31.8000  -14.6340   19.7920 O   0  0  0  0  0  0  0  0  0  0  0  0
  -30.4070  -14.9960   21.5230 N   0  0  0  0  0  0  0  0  0  0  0  0
  -29.6180  -14.6340   22.0330 H   0  0  0  0  0  0  0  0  0  0  0  0
  -25.2670  -13.8640   20.4000 C   0  0  0  0  0  0  0  0  0  0  0  0
  -24.2060  -13.0920   20.7900 C   0  0  0  0  0  0  0  0  0  0  0  0
  -24.6680  -11.7420   20.7590 C   0  0  0  0  0  0  0  0  0  0  0  0
  -26.3120  -12.9830   20.1670 N   0  0  0  0  0  0  0  0  0  0  0  0
  -25.9550  -11.7020   20.4360 N   0  0  0  0  0  0  0  0  0  0  0  0
  -23.9490  -10.4780   20.9680 C   0  0  0  0  0  0  0  0  0  0  0  0
  -24.3910   -9.5250   21.9100 C   0  0  0  0  0  3  0  0  0  0  0  0
  -23.6690   -8.3280   22.1090 C   0  0  0  0  0  3  0  0  0  0  0  0
  -22.4940   -8.0750   21.3610 C   0  0  0  0  0  0  0  0  0  0  0  0
  -22.0710   -9.0190   20.4090 C   0  0  0  0  0  3  0  0  0  0  0  0
  -22.7910  -10.2090   20.2100 C   0  0  0  0  0  3  0  0  0  0  0  0
  -21.7450   -6.9270   21.4630 O   0  0  0  0  0  0  0  0  0  0  0  0
  -21.6990   -6.1990   22.6230 C   0  0  0  0  0  0  0  0  0  0  0  0
  -21.2790   -6.7690   23.8440 C   0  0  0  0  0  3  0  0  0  0  0  0
  -21.1800   -5.9670   24.9990 C   0  0  0  0  0  3  0  0  0  0  0  0
  -21.4940   -4.5960   24.9340 C   0  0  0  0  0  0  0  0  0  0  0  0
  -21.9090   -4.0260   23.7180 C   0  0  0  0  0  3  0  0  0  0  0  0
  -22.0120   -4.8250   22.5660 C   0  0  0  0  0  0  0  0  0  0  0  0
  -22.3900   -4.2650   21.3920 F   0  0  0  0  0  0  0  0  0  0  0  0
  -21.3940   -3.8250   26.0430 F   0  0  0  0  0  0  0  0  0  0  0  0
  -22.8100  -13.5690   21.0750 C   0  0  0  0  0  0  0  0  0  0  0  0
  -22.0970  -12.8790   21.9580 N   0  0  0  0  0  0  0  0  0  0  0  0
  -22.3640  -14.5890   20.5530 O   0  0  0  0  0  0  0  0  0  0  0  0
  -22.4730  -12.0570   22.4070 H   0  0  0  0  0  0  0  0  0  0  0  0
  -21.1590  -13.1770   22.1870 H   0  0  0  0  0  0  0  0  0  0  0  0
  -25.4240  -15.2340   20.2070 N   0  0  0  0  0  0  0  0  0  0  0  0
  -24.6550  -15.8860   20.3020 H   0  0  0  0  0  0  0  0  0  0  0  0
  -26.2810  -15.6720   19.8890 H   0  0  0  0  0  0  0  0  0  0  0  0
  1  5  1  0
  2  5  2  0
  3  1  2  0
  4  6  2  0
  4  3  1  0
  5 59  1  0
  6  2  1  0
  7  3  1  0
  8 10  1  0
  8  4  1  0
  9  7  1  0
 10 13  1  0
 10  9  1  0
 11  6  1  0
 12 13  1  0
 13 15  1  0
 13 14  1  6
 15 16  1  0
 16 17  1  0
 18 17  1  0
 19 30  2  0
 20 18  1  0
 20 25  1  0
 21 29  1  0
 21 31  1  0
 22 28  1  0
 22 24  1  0
 23 29  1  0
 24 25  2  0
 24 23  1  0
 26 20  2  0
 27 26  1  0
 27 22  2  0
 28 21  1  0
 29 19  1  0
 31 33  2  0
 32 31  1  0
 34 32  1  0
 35 44  2  0
 35 40  1  0
 36 32  1  0
 36 40  1  0
 37 36  1  0
 38 39  1  0
 38 37  1  0
 39 35  1  0
 40 41  2  0
 41 42  1  0
 43 42  2  0
 44 43  1  0
 45 19  1  0
 45 46  1  0
 45 55  1  0
 46 49  1  0
 47 51  1  0
 47 46  1  0
 48 47  2  0
 51 50  1  0
 53 54  1  0
 53 51  1  0
 53 52  1  0
 55 58  1  1
 55 56  1  0
 57 55  1  0
 60 68  1  0
 61 66  1  0
 62 63  1  0
 62 61  1  0
 64 63  1  0
 64 73  1  0
 64 65  1  0
 66 60  1  0
 66 65  1  0
 67 60  2  0
 68 59  1  0
 68 69  1  0
 70 71  2  0
 71 90  1  0
 72 71  1  0
 72 75  1  0
 73 70  1  0
 73 74  1  0
 74 72  2  0
 75 76  1  0
 76 77  2  0
 78 81  1  0
 78 77  1  0
 79 78  2  0
 80 79  1  0
 80 75  2  0
 81 82  1  0
 82 83  1  0
 83 84  2  0
 85 84  1  0
 85 89  1  0
 86 85  2  0
 87 82  2  0
 87 86  1  0
 88 87  1  0
 90 91  1  0
 91 94  1  0
 91 93  1  0
 92 90  2  0
 95 96  1  0
 95 70  1  0
 97 95  1  0
M  ISO  4  17 101  18 101  60 100  68 100
M  END
>  <TORSDO>  (60) 
F 21

>  <SCORE>  (60) 
-12.829

>  <name>  (60) 
60

>  <ligand_id>  (60) 
60

>  <original_smiles>  (60) 
[H]c1c([H])c([H])c2c(c1[H])C([H])([H])C([H])([H])C([H])([H])C2([H])N([H])C(=O)C1([H])N(C(=O)C([H])(N([H])C(=O)C([H])(N([H])C([H])([H])[H])C([H])([H])[H])C(C([H])([H])[H])(C([H])([H])[H])C([H])([H])[H])C([H])([H])c2c([H])c(OC([H])([H])C([H])([H])C([H])([H])[N+]([H])(C([H])([H])[H])C3([H])C([H])([H])c4c(C([H])([H])[H])c([H])c(C([H])([H])N([H])C(=O)N5C([H])([H])C([H])([H])C([H])([H])C([H])(n6nc(-c7c([H])c([H])c(Oc8c([H])c([H])c(F)c([H])c8F)c([H])c7[H])c(C(=O)N([H])[H])c6N([H])[H])C5([H])[H])c([H])c4C([H])([H])C3([H])[H])c([H])c([H])c2C1([H])[H]

>  <smiles>  (60) 
[H]c1c([H])c([H])c2c(c1[H])C([H])([H])C([H])([H])C([H])([H])C2([H])N([H])C(=O)C1([H])N(C(=O)C([H])(N([H])C(=O)C([H])(N([H])C([H])([H])[H])C([H])([H])[H])C(C([H])([H])[H])(C([H])([H])[H])C([H])([H])[H])C([H])([H])c2c([H])c(OC([H])([H])C([H])([H])C([H])([H])[N+]([H])(C([H])([H])[H])C3([H])C([H])([H])c4c(C([H])([H])[H])c([H])c(C([H])([H])N([H])C(=O)N5C([H])([H])C([H])([H])C([H])([H])C([H])(n6nc(-c7c([H])c([H])c(Oc8c([H])c([H])c(F)c([H])c8F)c([H])c7[H])c(C(=O)N([H])[H])c6N([H])[H])C5([H])[H])c([H])c4C([H])([H])C3([H])[H])c([H])c([H])c2C1([H])[H]

$$$$
61:0:0
     RDKit          3D

 95103  0  0  1  0  0  0  0  0999 V2000
  -27.3860  -22.3960   21.2680 C   0  0  0  0  0  2  0  0  0  0  0  0
  -28.3880  -23.4190   21.8320 C   0  0  0  0  0  2  0  0  0  0  0  0
  -25.9260  -24.9400   20.0240 C   0  0  0  0  0  2  0  0  0  0  0  0
  -26.9050  -22.6120   19.8150 C   0  0  0  0  0  3  0  0  0  0  0  0
  -28.1180  -24.9260   21.5890 C   0  0  0  0  0  3  0  0  0  0  0  0
  -25.6120  -23.4630   19.7380 C   0  0  0  0  0  3  0  0  0  0  0  0
  -26.6160  -25.3030   21.3700 C   0  0  0  0  0  3  0  0  0  0  0  0
  -25.9070  -24.8720   22.4100 F   0  0  0  0  0  0  0  0  0  0  0  0
  -23.0340  -23.4830   20.0990 C   0  0  0  0  0  1  0  0  0  0  0  0
  -24.3930  -22.9250   20.5440 C   0  0  0  0  0  2  0  0  0  0  0  0
  -26.7460  -21.2620   19.0930 C   0  0  0  0  0  2  0  0  0  0  0  0
  -28.0720  -20.7690   18.4730 C   0  0  0  0  0  2  0  0  0  0  0  0
  -28.3560  -19.2900   18.7560 C   0  0  0  0  0  2  0  0  0  0  0  0
  -29.3720  -19.0970   19.8940 C   0  0  0  0  0  2  0  0  0  0  0  0
  -29.5570  -17.6110   20.2120 C   0  0  0  0  0  2  0  0  0  0  0  0
  -30.5460  -17.3690   21.3580 C   0  0  0  0  0  2  0  0  0  0  0  0
  -30.5540  -15.9050   21.8360 C   0  0  0  0  0  2  0  0  0  0  0  0
  -30.9470  -14.9130   20.7230 C   0  0  0  0  0  0  0  0  0  0  0  0
  -30.6350  -12.8170   19.4510 C   0  0  0  0  0  2  0  0  0  0  0  0
  -29.7360  -13.0420   18.2220 C   0  0  0  0  0  2  0  0  0  0  0  0
  -28.2520  -12.8580   18.6030 C   0  0  0  0  0  2  0  0  0  0  0  0
  -27.8660  -13.6850   19.8560 C   0  0  0  0  0  3  0  0  0  0  0  0
  -28.8850  -13.4620   21.0000 C   0  0  0  0  0  2  0  0  0  0  0  0
  -30.2320  -13.7800   20.4910 N   0  0  0  0  0  0  0  0  0  0  0  0
  -31.9570  -15.1930   20.0670 O   0  0  0  0  0  0  0  0  0  0  0  0
  -25.4340  -14.2540   20.4870 C   0  0  0  0  0  0  0  0  0  0  0  0
  -24.3650  -13.4600   20.8120 C   0  0  0  0  0  0  0  0  0  0  0  0
  -24.8490  -12.1170   20.7770 C   0  0  0  0  0  0  0  0  0  0  0  0
  -26.5000  -13.3920   20.2820 N   0  0  0  0  0  0  0  0  0  0  0  0
  -26.1500  -12.1010   20.5090 N   0  0  0  0  0  0  0  0  0  0  0  0
  -24.1340  -10.8430   20.9310 C   0  0  0  0  0  0  0  0  0  0  0  0
  -24.5430   -9.8680   21.8690 C   0  0  0  0  0  3  0  0  0  0  0  0
  -23.8240   -8.6610   22.0060 C   0  0  0  0  0  3  0  0  0  0  0  0
  -22.6850   -8.4190   21.2010 C   0  0  0  0  0  0  0  0  0  0  0  0
  -22.2940   -9.3830   20.2540 C   0  0  0  0  0  3  0  0  0  0  0  0
  -23.0150  -10.5810   20.1150 C   0  0  0  0  0  3  0  0  0  0  0  0
  -21.9420   -7.2640   21.2450 O   0  0  0  0  0  0  0  0  0  0  0  0
  -21.8430   -6.5180   22.3920 C   0  0  0  0  0  0  0  0  0  0  0  0
  -21.3610   -7.0720   23.5970 C   0  0  0  0  0  3  0  0  0  0  0  0
  -21.2040   -6.2540   24.7340 C   0  0  0  0  0  3  0  0  0  0  0  0
  -21.5240   -4.8850   24.6670 C   0  0  0  0  0  0  0  0  0  0  0  0
  -22.0000   -4.3300   23.4660 C   0  0  0  0  0  3  0  0  0  0  0  0
  -22.1530   -5.1460   22.3300 C   0  0  0  0  0  0  0  0  0  0  0  0
  -22.5910   -4.6040   21.1690 F   0  0  0  0  0  0  0  0  0  0  0  0
  -21.3690   -4.0980   25.7580 F   0  0  0  0  0  0  0  0  0  0  0  0
  -22.9570  -13.9170   21.0590 C   0  0  0  0  0  0  0  0  0  0  0  0
  -22.2250  -13.2030   21.9070 N   0  0  0  0  0  0  0  0  0  0  0  0
  -22.5130  -14.9430   20.5430 O   0  0  0  0  0  0  0  0  0  0  0  0
  -22.5960  -12.3630   22.3230 H   0  0  0  0  0  0  0  0  0  0  0  0
  -21.2870  -13.4970   22.1410 H   0  0  0  0  0  0  0  0  0  0  0  0
  -25.5680  -15.6270   20.3350 N   0  0  0  0  0  0  0  0  0  0  0  0
  -24.7670  -16.2360   20.4580 H   0  0  0  0  0  0  0  0  0  0  0  0
  -26.4010  -16.1210   20.0460 H   0  0  0  0  0  0  0  0  0  0  0  0
  -29.1850  -25.5640   20.6470 C   0  0  0  0  0  2  0  0  0  0  0  0
  -29.2300  -26.9960   20.7080 O   0  0  0  0  0  0  0  0  0  0  0  0
  -24.8780  -31.9440   23.4000 C   0  0  0  0  0  0  0  0  0  0  0  0
  -28.0440  -27.6740   20.5590 C   0  0  0  0  0  0  0  0  0  0  0  0
  -23.9180  -30.4660   21.6650 C   0  0  0  0  0  3  0  0  0  0  0  0
  -25.5760  -29.0210   20.3800 C   0  0  0  0  0  0  0  0  0  0  0  0
  -26.4260  -30.9560   21.7180 C   0  0  0  0  0  2  0  0  0  0  0  0
  -26.6390  -29.5940   21.0950 C   0  0  0  0  0  0  0  0  0  0  0  0
  -27.8660  -28.9130   21.2080 C   0  0  0  0  0  3  0  0  0  0  0  0
  -26.9970  -27.1650   19.7620 C   0  0  0  0  0  3  0  0  0  0  0  0
  -25.7470  -27.7960   19.7240 C   0  0  0  0  0  3  0  0  0  0  0  0
  -24.2840  -29.7900   20.3170 C   0  0  0  0  0  2  0  0  0  0  0  0
  -25.0870  -31.1410   22.3170 N   0  0  0  0  0  0  0  0  0  0  0  0
  -23.7340  -32.1670   23.8210 O   0  0  0  0  0  0  0  0  0  0  0  0
  -23.2260  -29.4190   22.5700 C   0  0  0  0  0  0  0  0  0  0  0  0
  -21.9150  -29.2150   22.3530 N   0  0  0  0  0  0  0  0  0  0  0  0
  -23.8650  -28.7910   23.4180 O   0  0  0  0  0  0  0  0  0  0  0  0
  -21.4580  -29.7890   21.6570 H   0  0  0  0  0  0  0  0  0  0  0  0
  -18.5080  -28.1050   22.7550 C   0  0  0  0  0  0  0  0  0  0  0  0
  -21.0660  -28.2570   23.0580 C   0  0  0  0  0  3  0  0  0  0  0  0
  -21.1220  -26.8570   22.4070 C   0  0  0  0  0  2  0  0  0  0  0  0
  -20.0430  -26.6510   21.3460 C   0  0  0  0  0  2  0  0  0  0  0  0
  -18.6480  -26.8140   21.9650 C   0  0  0  0  0  2  0  0  0  0  0  0
  -19.6460  -28.7940   23.2460 C   0  0  0  0  0  0  0  0  0  0  0  0
  -19.4640  -30.0160   23.9310 C   0  0  0  0  0  3  0  0  0  0  0  0
  -18.1770  -30.5550   24.1140 C   0  0  0  0  0  3  0  0  0  0  0  0
  -17.0500  -29.8550   23.6470 C   0  0  0  0  0  3  0  0  0  0  0  0
  -17.2180  -28.6280   22.9810 C   0  0  0  0  0  3  0  0  0  0  0  0
  -26.0670  -32.6400   24.1390 C   0  0  0  0  0  3  0  0  0  0  0  0
  -26.4670  -31.9260   25.4900 C   0  0  1  0  0  0  0  0  0  0  0  0
  -25.2660  -31.6720   26.4290 C   0  0  0  0  0  1  0  0  0  0  0  0
  -27.1540  -30.5700   25.2120 C   0  0  0  0  0  1  0  0  0  0  0  0
  -27.5060  -32.7860   26.2520 C   0  0  0  0  0  1  0  0  0  0  0  0
  -25.6790  -34.0380   24.3840 N   0  0  0  0  0  0  0  0  0  0  0  0
  -26.0420  -35.0730   23.6160 C   0  0  0  0  0  0  0  0  0  0  0  0
  -26.8070  -34.9570   22.6530 O   0  0  0  0  0  0  0  0  0  0  0  0
  -24.9980  -34.2050   25.1120 H   0  0  0  0  0  0  0  0  0  0  0  0
  -24.2710  -36.7670   23.0430 C   0  0  0  0  0  1  0  0  0  0  0  0
  -25.4600  -36.4580   23.9680 C   0  0  0  0  0  3  0  0  0  0  0  0
  -27.4820  -37.4640   24.9280 C   0  0  0  0  0  1  0  0  0  0  0  0
  -26.4550  -37.5500   23.8930 N   0  0  0  0  0  0  0  0  0  0  0  0
  -26.0020  -38.4560   23.9770 H   0  0  0  0  0  0  0  0  0  0  0  0
  1  2  1  0
  3  7  1  0
  4 11  1  0
  4  1  1  0
  5 54  1  0
  5  2  1  0
  6  4  1  0
  6  3  1  0
  6 10  1  0
  7  5  1  0
  7  8  1  0
  9 10  1  0
 12 13  1  0
 12 11  1  0
 13 14  1  0
 14 15  1  0
 15 16  1  0
 16 17  1  0
 18 17  1  0
 19 24  1  0
 20 21  1  0
 20 19  1  0
 22 21  1  0
 22 29  1  0
 22 23  1  0
 24 18  1  0
 24 23  1  0
 25 18  2  0
 26 27  2  0
 27 46  1  0
 28 27  1  0
 28 31  1  0
 29 26  1  0
 29 30  1  0
 30 28  2  0
 31 32  1  0
 32 33  2  0
 34 37  1  0
 34 33  1  0
 35 34  2  0
 36 35  1  0
 36 31  2  0
 37 38  1  0
 38 39  1  0
 39 40  2  0
 41 40  1  0
 41 45  1  0
 42 41  2  0
 43 38  2  0
 43 42  1  0
 44 43  1  0
 46 47  1  0
 47 50  1  0
 47 49  1  0
 48 46  2  0
 51 52  1  0
 51 26  1  0
 53 51  1  0
 54 55  1  0
 56 67  2  0
 57 55  1  0
 57 62  1  0
 58 66  1  0
 58 68  1  0
 59 61  1  0
 60 66  1  0
 61 62  2  0
 61 60  1  0
 63 57  2  0
 64 63  1  0
 64 59  2  0
 65 59  1  0
 65 58  1  0
 66 56  1  0
 68 70  2  0
 69 68  1  0
 71 69  1  0
 72 81  2  0
 72 77  1  0
 73 69  1  0
 73 77  1  0
 74 73  1  0
 75 76  1  0
 75 74  1  0
 76 72  1  0
 77 78  2  0
 78 79  1  0
 80 79  2  0
 81 80  1  0
 82 56  1  0
 82 87  1  0
 82 83  1  0
 83 86  1  1
 83 84  1  0
 85 83  1  0
 87 90  1  0
 88 92  1  0
 88 87  1  0
 89 88  2  0
 92 91  1  0
 94 92  1  0
 94 95  1  0
 94 93  1  0
M  ISO  4  17 100  18 100  54 101  55 101
M  END
>  <TORSDO>  (61) 
F 25

>  <SCORE>  (61) 
-11.809

>  <name>  (61) 
61

>  <ligand_id>  (61) 
61

>  <original_smiles>  (61) 
[H]c1c([H])c([H])c2c(c1[H])C([H])([H])C([H])([H])C([H])([H])C2([H])N([H])C(=O)C1([H])N(C(=O)C([H])(N([H])C(=O)C([H])(N([H])C([H])([H])[H])C([H])([H])[H])C(C([H])([H])[H])(C([H])([H])[H])C([H])([H])[H])C([H])([H])c2c([H])c(OC([H])([H])C3([H])C([H])([H])C([H])([H])C([H])(C([H])([H])C([H])([H])C([H])([H])C([H])([H])C([H])([H])C([H])([H])C([H])([H])C(=O)N4C([H])([H])C([H])([H])C([H])([H])C([H])(n5nc(-c6c([H])c([H])c(Oc7c([H])c([H])c(F)c([H])c7F)c([H])c6[H])c(C(=O)N([H])[H])c5N([H])[H])C4([H])[H])C([H])(C([H])([H])C([H])([H])[H])C([H])([H])C3([H])F)c([H])c([H])c2C1([H])[H]

>  <smiles>  (61) 
[H]c1c([H])c([H])c2c(c1[H])C([H])([H])C([H])([H])C([H])([H])C2([H])N([H])C(=O)C1([H])N(C(=O)C([H])(N([H])C(=O)C([H])(N([H])C([H])([H])[H])C([H])([H])[H])C(C([H])([H])[H])(C([H])([H])[H])C([H])([H])[H])C([H])([H])c2c([H])c(OC([H])([H])C3([H])C([H])([H])C([H])([H])C([H])(C([H])([H])C([H])([H])C([H])([H])C([H])([H])C([H])([H])C([H])([H])C([H])([H])C(=O)N4C([H])([H])C([H])([H])C([H])([H])C([H])(n5nc(-c6c([H])c([H])c(Oc7c([H])c([H])c(F)c([H])c7F)c([H])c6[H])c(C(=O)N([H])[H])c5N([H])[H])C4([H])[H])C([H])(C([H])([H])C([H])([H])[H])C([H])([H])C3([H])F)c([H])c([H])c2C1([H])[H]

$$$$
62:0:0
     RDKit          3D

 87 95  0  0  1  0  0  0  0  0999 V2000
  -29.8480  -19.1570   19.1620 C   0  0  0  0  0  3  0  0  0  0  0  0
  -29.1840  -19.3300   21.3540 C   0  0  0  0  0  3  0  0  0  0  0  0
  -29.6260  -18.3750   20.3560 C   0  0  0  0  0  0  0  0  0  0  0  0
  -29.6710  -20.6220   19.0480 C   0  0  0  0  0  0  0  0  0  0  0  0
  -29.2030  -21.4940   20.1150 C   0  0  0  0  0  0  0  0  0  0  0  0
  -30.0390  -21.2560   17.7170 C   0  0  0  0  0  1  0  0  0  0  0  0
  -29.0030  -20.7310   21.2560 N   0  0  0  0  0  0  0  0  0  0  0  0
  -29.5340  -16.6710   20.5730 C   0  0  0  0  0  2  0  0  0  0  0  0
  -30.4710  -15.2640   20.2690 C   0  0  0  0  0  0  0  0  0  0  0  0
  -30.4490  -12.8540   19.3440 C   0  0  0  0  0  2  0  0  0  0  0  0
  -29.5070  -12.7600   18.1150 C   0  0  0  0  0  2  0  0  0  0  0  0
  -28.0490  -12.5200   18.5480 C   0  0  0  0  0  2  0  0  0  0  0  0
  -27.6340  -13.4420   19.7210 C   0  0  0  0  0  3  0  0  0  0  0  0
  -28.6940  -13.4830   20.8400 C   0  0  0  0  0  2  0  0  0  0  0  0
  -29.9540  -13.9490   20.2400 N   0  0  0  0  0  0  0  0  0  0  0  0
  -31.6660  -15.3480   19.9510 O   0  0  0  0  0  0  0  0  0  0  0  0
  -25.2630  -14.0210   20.4820 C   0  0  0  0  0  0  0  0  0  0  0  0
  -24.1970  -13.2500   20.8530 C   0  0  0  0  0  0  0  0  0  0  0  0
  -24.6560  -11.8960   20.8150 C   0  0  0  0  0  0  0  0  0  0  0  0
  -26.3000  -13.1400   20.2280 N   0  0  0  0  0  0  0  0  0  0  0  0
  -25.9460  -11.8560   20.4960 N   0  0  0  0  0  0  0  0  0  0  0  0
  -23.9240  -10.6370   21.0050 C   0  0  0  0  0  0  0  0  0  0  0  0
  -24.3470   -9.6680   21.9400 C   0  0  0  0  0  3  0  0  0  0  0  0
  -23.6140   -8.4760   22.1180 C   0  0  0  0  0  3  0  0  0  0  0  0
  -22.4410   -8.2430   21.3600 C   0  0  0  0  0  0  0  0  0  0  0  0
  -22.0380   -9.2000   20.4120 C   0  0  0  0  0  3  0  0  0  0  0  0
  -22.7730  -10.3840   20.2320 C   0  0  0  0  0  3  0  0  0  0  0  0
  -21.6810   -7.1030   21.4450 O   0  0  0  0  0  0  0  0  0  0  0  0
  -21.6110   -6.3690   22.6030 C   0  0  0  0  0  0  0  0  0  0  0  0
  -21.1410   -6.9280   23.8110 C   0  0  0  0  0  3  0  0  0  0  0  0
  -21.0200   -6.1200   24.9610 C   0  0  0  0  0  3  0  0  0  0  0  0
  -21.3590   -4.7560   24.9010 C   0  0  0  0  0  0  0  0  0  0  0  0
  -21.8210   -4.1950   23.6980 C   0  0  0  0  0  3  0  0  0  0  0  0
  -21.9430   -5.0010   22.5510 C   0  0  0  0  0  0  0  0  0  0  0  0
  -22.3700   -4.4510   21.3880 F   0  0  0  0  0  0  0  0  0  0  0  0
  -21.2360   -3.9780   26.0010 F   0  0  0  0  0  0  0  0  0  0  0  0
  -22.8030  -13.7320   21.1300 C   0  0  0  0  0  0  0  0  0  0  0  0
  -22.0820  -13.0410   22.0050 N   0  0  0  0  0  0  0  0  0  0  0  0
  -22.3650  -14.7560   20.6070 O   0  0  0  0  0  0  0  0  0  0  0  0
  -22.4530  -12.2140   22.4490 H   0  0  0  0  0  0  0  0  0  0  0  0
  -21.1450  -13.3420   22.2350 H   0  0  0  0  0  0  0  0  0  0  0  0
  -25.4310  -15.3920   20.3130 N   0  0  0  0  0  0  0  0  0  0  0  0
  -24.6660  -16.0480   20.4310 H   0  0  0  0  0  0  0  0  0  0  0  0
  -26.2790  -15.8330   19.9830 H   0  0  0  0  0  0  0  0  0  0  0  0
  -29.2460  -23.2150   20.1520 C   0  0  0  0  0  3  0  0  0  0  0  0
  -28.0950  -24.5200   19.9420 C   0  0  0  0  0  3  0  0  0  0  0  0
  -28.2870  -26.1170   20.0950 O   0  0  0  0  0  0  0  0  0  0  0  0
  -24.6560  -31.8590   23.2160 C   0  0  0  0  0  0  0  0  0  0  0  0
  -27.2290  -27.1390   20.0680 C   0  0  0  0  0  0  0  0  0  0  0  0
  -23.4470  -30.4860   21.5660 C   0  0  0  0  0  3  0  0  0  0  0  0
  -24.8900  -28.9290   20.0950 C   0  0  0  0  0  0  0  0  0  0  0  0
  -26.0030  -30.7450   21.3800 C   0  0  0  0  0  2  0  0  0  0  0  0
  -26.0790  -29.3570   20.6990 C   0  0  0  0  0  0  0  0  0  0  0  0
  -27.2430  -28.4810   20.6630 C   0  0  0  0  0  3  0  0  0  0  0  0
  -26.0080  -26.8380   19.4250 C   0  0  0  0  0  3  0  0  0  0  0  0
  -24.8730  -27.6880   19.4380 C   0  0  0  0  0  3  0  0  0  0  0  0
  -23.6600  -29.8290   20.1740 C   0  0  0  0  0  2  0  0  0  0  0  0
  -24.7230  -31.0540   22.1090 N   0  0  0  0  0  0  0  0  0  0  0  0
  -23.5730  -32.1300   23.7610 O   0  0  0  0  0  0  0  0  0  0  0  0
  -22.7780  -29.4640   22.5220 C   0  0  0  0  0  0  0  0  0  0  0  0
  -21.4490  -29.2840   22.4010 N   0  0  0  0  0  0  0  0  0  0  0  0
  -23.4590  -28.8360   23.3360 O   0  0  0  0  0  0  0  0  0  0  0  0
  -20.9540  -29.8430   21.7220 H   0  0  0  0  0  0  0  0  0  0  0  0
  -18.0870  -28.0240   22.9080 C   0  0  0  0  0  0  0  0  0  0  0  0
  -20.6430  -28.3260   23.1660 C   0  0  0  0  0  3  0  0  0  0  0  0
  -20.7640  -26.9020   22.5760 C   0  0  0  0  0  2  0  0  0  0  0  0
  -19.6630  -26.5740   21.5610 C   0  0  0  0  0  2  0  0  0  0  0  0
  -18.2830  -26.6870   22.2130 C   0  0  0  0  0  2  0  0  0  0  0  0
  -19.1960  -28.8000   23.3420 C   0  0  0  0  0  0  0  0  0  0  0  0
  -18.9570  -30.0490   23.9550 C   0  0  0  0  0  3  0  0  0  0  0  0
  -17.6430  -30.5230   24.1370 C   0  0  0  0  0  3  0  0  0  0  0  0
  -16.5500  -29.7440   23.7170 C   0  0  0  0  0  3  0  0  0  0  0  0
  -16.7730  -28.4970   23.1090 C   0  0  0  0  0  3  0  0  0  0  0  0
  -25.9350  -32.4950   23.8430 C   0  0  0  0  0  3  0  0  0  0  0  0
  -26.4550  -31.7150   25.1140 C   0  0  1  0  0  0  0  0  0  0  0  0
  -25.3670  -31.4710   26.1850 C   0  0  0  0  0  1  0  0  0  0  0  0
  -27.0350  -30.3380   24.7180 C   0  0  0  0  0  1  0  0  0  0  0  0
  -27.6080  -32.5050   25.7760 C   0  0  0  0  0  1  0  0  0  0  0  0
  -25.6200  -33.8890   24.1950 N   0  0  0  0  0  0  0  0  0  0  0  0
  -25.9160  -34.9560   23.4400 C   0  0  0  0  0  0  0  0  0  0  0  0
  -26.5480  -34.8690   22.3840 O   0  0  0  0  0  0  0  0  0  0  0  0
  -25.0530  -34.0280   25.0180 H   0  0  0  0  0  0  0  0  0  0  0  0
  -24.1550  -36.7380   23.1870 C   0  0  0  0  0  1  0  0  0  0  0  0
  -25.4380  -36.3380   23.9330 C   0  0  0  0  0  3  0  0  0  0  0  0
  -27.5980  -37.2460   24.6730 C   0  0  0  0  0  1  0  0  0  0  0  0
  -26.4540  -37.4030   23.7780 N   0  0  0  0  0  0  0  0  0  0  0  0
  -26.0440  -38.3170   23.9450 H   0  0  0  0  0  0  0  0  0  0  0  0
  1  3  1  0
  3  8  1  0
  3  2  2  0
  4  1  2  0
  4  5  1  0
  5 45  1  0
  5  7  2  0
  6  4  1  0
  7  2  1  0
  9  8  1  0
 10 15  1  0
 11 12  1  0
 11 10  1  0
 13 12  1  0
 13 20  1  0
 13 14  1  0
 15  9  1  0
 15 14  1  0
 16  9  2  0
 17 18  2  0
 18 37  1  0
 19 18  1  0
 19 22  1  0
 20 17  1  0
 20 21  1  0
 21 19  2  0
 22 23  1  0
 23 24  2  0
 25 28  1  0
 25 24  1  0
 26 25  2  0
 27 26  1  0
 27 22  2  0
 28 29  1  0
 29 30  1  0
 30 31  2  0
 32 31  1  0
 32 36  1  0
 33 32  2  0
 34 29  2  0
 34 33  1  0
 35 34  1  0
 37 38  1  0
 38 41  1  0
 38 40  1  0
 39 37  2  0
 42 43  1  0
 42 17  1  0
 44 42  1  0
 46 47  1  0
 46 45  2  0
 48 59  2  0
 49 47  1  0
 49 54  1  0
 50 58  1  0
 50 60  1  0
 51 57  1  0
 51 53  1  0
 52 58  1  0
 53 52  1  0
 54 53  2  0
 55 56  1  0
 55 49  2  0
 56 51  2  0
 57 50  1  0
 58 48  1  0
 60 62  2  0
 61 60  1  0
 63 61  1  0
 64 73  2  0
 64 69  1  0
 65 61  1  0
 65 69  1  0
 66 65  1  0
 67 68  1  0
 67 66  1  0
 68 64  1  0
 69 70  2  0
 70 71  1  0
 72 71  2  0
 73 72  1  0
 74 48  1  0
 74 79  1  0
 74 75  1  0
 75 78  1  1
 75 76  1  0
 77 75  1  0
 79 82  1  0
 80 84  1  0
 80 79  1  0
 81 80  2  0
 84 83  1  0
 86 84  1  0
 86 87  1  0
 86 85  1  0
M  ISO  4   8 100   9 100  46 101  47 101
M  END
>  <TORSDO>  (62) 
F 19

>  <SCORE>  (62) 
-15.571

>  <name>  (62) 
62

>  <ligand_id>  (62) 
62

>  <original_smiles>  (62) 
[H]c1nc(C([H])([H])C([H])([H])Oc2c([H])c([H])c3c(c2[H])C([H])([H])N(C(=O)C([H])(N([H])C(=O)C([H])(N([H])C([H])([H])[H])C([H])([H])[H])C(C([H])([H])[H])(C([H])([H])[H])C([H])([H])[H])C([H])(C(=O)N([H])C2([H])c4c([H])c([H])c([H])c([H])c4C([H])([H])C([H])([H])C2([H])[H])C3([H])[H])c(C([H])([H])[H])c([H])c1C([H])([H])C(=O)N1C([H])([H])C([H])([H])C([H])([H])C([H])(n2nc(-c3c([H])c([H])c(Oc4c([H])c([H])c(F)c([H])c4F)c([H])c3[H])c(C(=O)N([H])[H])c2N([H])[H])C1([H])[H]

>  <smiles>  (62) 
[H]c1nc(C([H])([H])C([H])([H])Oc2c([H])c([H])c3c(c2[H])C([H])([H])N(C(=O)C([H])(N([H])C(=O)C([H])(N([H])C([H])([H])[H])C([H])([H])[H])C(C([H])([H])[H])(C([H])([H])[H])C([H])([H])[H])C([H])(C(=O)N([H])C2([H])c4c([H])c([H])c([H])c([H])c4C([H])([H])C([H])([H])C2([H])[H])C3([H])[H])c(C([H])([H])[H])c([H])c1C([H])([H])C(=O)N1C([H])([H])C([H])([H])C([H])([H])C([H])(n2nc(-c3c([H])c([H])c(Oc4c([H])c([H])c(F)c([H])c4F)c([H])c3[H])c(C(=O)N([H])[H])c2N([H])[H])C1([H])[H]

$$$$
63:0:0
     RDKit          3D

 95103  0  0  1  0  0  0  0  0999 V2000
  -30.1780  -20.5660   22.7710 C   0  0  0  0  0  3  0  0  0  0  0  0
  -29.9430  -21.7480   23.4210 C   0  0  0  0  0  0  0  0  0  0  0  0
  -29.4700  -22.0320   21.2470 C   0  0  0  0  0  3  0  0  0  0  0  0
  -29.8730  -20.7420   21.4390 N   0  0  0  0  0  0  0  0  0  0  0  0
  -29.5030  -22.6090   22.4560 N   0  0  0  0  0  0  0  0  0  0  0  0
  -29.2340  -23.5700   22.6280 H   0  0  0  0  0  0  0  0  0  0  0  0
  -30.0950  -22.1390   24.8560 C   0  0  0  0  0  2  0  0  0  0  0  0
  -31.5600  -22.0490   25.3100 C   0  0  0  0  0  2  0  0  0  0  0  0
  -33.2220  -22.4500   27.2040 C   0  0  0  0  0  1  0  0  0  0  0  0
  -31.7780  -22.6200   26.7200 C   0  0  0  0  0  2  0  0  0  0  0  0
  -28.9930  -22.7770   20.0060 C   0  0  0  0  0  2  0  0  0  0  0  0
  -29.0560  -24.3520   20.0960 C   0  0  0  0  0  2  0  0  0  0  0  0
  -28.0680  -25.1430   19.1890 C   0  0  0  0  0  2  0  0  0  0  0  0
  -28.1670  -26.5900   19.3360 O   0  0  0  0  0  0  0  0  0  0  0  0
  -24.4650  -31.5600   22.9050 C   0  0  0  0  0  0  0  0  0  0  0  0
  -26.9980  -27.3460   19.3900 C   0  0  0  0  0  0  0  0  0  0  0  0
  -23.1990  -30.2630   21.2270 C   0  0  0  0  0  3  0  0  0  0  0  0
  -24.5980  -28.8580   19.6180 C   0  0  0  0  0  0  0  0  0  0  0  0
  -25.7140  -30.6600   20.9380 C   0  0  0  0  0  2  0  0  0  0  0  0
  -25.7800  -29.3390   20.1910 C   0  0  0  0  0  0  0  0  0  0  0  0
  -26.9820  -28.5920   20.0740 C   0  0  0  0  0  3  0  0  0  0  0  0
  -25.7940  -26.9100   18.7880 C   0  0  0  0  0  3  0  0  0  0  0  0
  -24.6020  -27.6470   18.9100 C   0  0  0  0  0  3  0  0  0  0  0  0
  -23.3480  -29.6940   19.7910 C   0  0  0  0  0  2  0  0  0  0  0  0
  -24.4800  -30.8390   21.7470 N   0  0  0  0  0  0  0  0  0  0  0  0
  -23.4080  -31.7780   23.5130 O   0  0  0  0  0  0  0  0  0  0  0  0
  -22.6060  -29.1630   22.1390 C   0  0  0  0  0  0  0  0  0  0  0  0
  -21.2770  -28.9770   22.0720 N   0  0  0  0  0  0  0  0  0  0  0  0
  -23.3380  -28.4830   22.8650 O   0  0  0  0  0  0  0  0  0  0  0  0
  -20.7470  -29.5810   21.4600 H   0  0  0  0  0  0  0  0  0  0  0  0
  -17.9420  -27.7140   22.6620 C   0  0  0  0  0  0  0  0  0  0  0  0
  -20.5100  -27.9750   22.8110 C   0  0  0  0  0  3  0  0  0  0  0  0
  -20.5870  -26.5930   22.1220 C   0  0  0  0  0  2  0  0  0  0  0  0
  -19.4310  -26.3390   21.1490 C   0  0  0  0  0  2  0  0  0  0  0  0
  -18.0870  -26.4210   21.8780 C   0  0  0  0  0  2  0  0  0  0  0  0
  -19.0790  -28.4510   23.0870 C   0  0  0  0  0  0  0  0  0  0  0  0
  -18.8860  -29.6640   23.7840 C   0  0  0  0  0  3  0  0  0  0  0  0
  -17.5900  -30.1380   24.0600 C   0  0  0  0  0  3  0  0  0  0  0  0
  -16.4690  -29.3960   23.6510 C   0  0  0  0  0  3  0  0  0  0  0  0
  -16.6470  -28.1860   22.9570 C   0  0  0  0  0  3  0  0  0  0  0  0
  -25.7710  -32.1660   23.5070 C   0  0  0  0  0  3  0  0  0  0  0  0
  -26.3590  -31.3140   24.6980 C   0  0  1  0  0  0  0  0  0  0  0  0
  -25.3270  -30.9950   25.8050 C   0  0  0  0  0  1  0  0  0  0  0  0
  -26.9280  -29.9710   24.1830 C   0  0  0  0  0  1  0  0  0  0  0  0
  -27.5420  -32.0720   25.3480 C   0  0  0  0  0  1  0  0  0  0  0  0
  -25.4600  -33.5320   23.9500 N   0  0  0  0  0  0  0  0  0  0  0  0
  -25.7830  -34.6420   23.2730 C   0  0  0  0  0  0  0  0  0  0  0  0
  -26.4440  -34.6230   22.2310 O   0  0  0  0  0  0  0  0  0  0  0  0
  -24.8690  -33.6200   24.7630 H   0  0  0  0  0  0  0  0  0  0  0  0
  -24.0550  -36.4590   23.0640 C   0  0  0  0  0  1  0  0  0  0  0  0
  -25.2940  -35.9880   23.8420 C   0  0  0  0  0  3  0  0  0  0  0  0
  -27.4220  -36.8060   24.7530 C   0  0  0  0  0  1  0  0  0  0  0  0
  -26.3270  -37.0460   23.8180 N   0  0  0  0  0  0  0  0  0  0  0  0
  -25.9200  -37.9520   24.0330 H   0  0  0  0  0  0  0  0  0  0  0  0
  -30.0310  -19.6930   20.3850 C   0  0  0  0  0  2  0  0  0  0  0  0
  -30.1190  -18.2100   20.9150 C   0  0  0  0  0  3  0  0  0  0  0  0
  -30.3490  -17.1130   19.8320 C   0  0  0  0  0  3  0  0  0  0  0  0
  -30.8800  -14.6360   19.8680 C   0  0  0  0  0  0  0  0  0  0  0  0
  -30.4980  -12.4510   18.7860 C   0  0  0  0  0  2  0  0  0  0  0  0
  -29.4880  -12.6610   17.6370 C   0  0  0  0  0  2  0  0  0  0  0  0
  -28.0410  -12.5470   18.1550 C   0  0  0  0  0  2  0  0  0  0  0  0
  -27.7950  -13.3970   19.4320 C   0  0  0  0  0  3  0  0  0  0  0  0
  -28.9130  -13.1730   20.4760 C   0  0  0  0  0  2  0  0  0  0  0  0
  -30.2020  -13.4530   19.8260 N   0  0  0  0  0  0  0  0  0  0  0  0
  -31.9920  -14.7780   19.3540 O   0  0  0  0  0  0  0  0  0  0  0  0
  -30.1640  -15.7090   20.2870 N   0  0  0  0  0  0  0  0  0  0  0  0
  -29.2700  -15.4850   20.7000 H   0  0  0  0  0  0  0  0  0  0  0  0
  -25.4660  -14.0530   20.3070 C   0  0  0  0  0  0  0  0  0  0  0  0
  -24.4030  -13.3030   20.7350 C   0  0  0  0  0  0  0  0  0  0  0  0
  -24.8230  -11.9410   20.6530 C   0  0  0  0  0  0  0  0  0  0  0  0
  -26.4680  -13.1480   19.9940 N   0  0  0  0  0  0  0  0  0  0  0  0
  -26.0890  -11.8710   20.2600 N   0  0  0  0  0  0  0  0  0  0  0  0
  -24.0760  -10.6940   20.8710 C   0  0  0  0  0  0  0  0  0  0  0  0
  -24.5300   -9.7110   21.7760 C   0  0  0  0  0  3  0  0  0  0  0  0
  -23.7850   -8.5300   21.9830 C   0  0  0  0  0  3  0  0  0  0  0  0
  -22.5730   -8.3230   21.2830 C   0  0  0  0  0  0  0  0  0  0  0  0
  -22.1380   -9.2950   20.3640 C   0  0  0  0  0  3  0  0  0  0  0  0
  -22.8830  -10.4690   20.1570 C   0  0  0  0  0  3  0  0  0  0  0  0
  -21.7970   -7.1960   21.4000 O   0  0  0  0  0  0  0  0  0  0  0  0
  -21.7620   -6.4630   22.5590 C   0  0  0  0  0  0  0  0  0  0  0  0
  -21.3480   -7.0260   23.7850 C   0  0  0  0  0  3  0  0  0  0  0  0
  -21.2620   -6.2190   24.9380 C   0  0  0  0  0  3  0  0  0  0  0  0
  -21.5800   -4.8490   24.8640 C   0  0  0  0  0  0  0  0  0  0  0  0
  -21.9870   -4.2850   23.6420 C   0  0  0  0  0  3  0  0  0  0  0  0
  -22.0750   -5.0900   22.4930 C   0  0  0  0  0  0  0  0  0  0  0  0
  -22.4480   -4.5370   21.3120 F   0  0  0  0  0  0  0  0  0  0  0  0
  -21.4890   -4.0720   25.9670 F   0  0  0  0  0  0  0  0  0  0  0  0
  -23.0410  -13.8130   21.1080 C   0  0  0  0  0  0  0  0  0  0  0  0
  -22.3560  -13.1250   22.0140 N   0  0  0  0  0  0  0  0  0  0  0  0
  -22.5960  -14.8550   20.6310 O   0  0  0  0  0  0  0  0  0  0  0  0
  -22.7300  -12.2810   22.4240 H   0  0  0  0  0  0  0  0  0  0  0  0
  -21.4430  -13.4470   22.3050 H   0  0  0  0  0  0  0  0  0  0  0  0
  -25.6570  -15.4210   20.1400 N   0  0  0  0  0  0  0  0  0  0  0  0
  -24.9150  -16.0930   20.3030 H   0  0  0  0  0  0  0  0  0  0  0  0
  -26.4920  -15.8410   19.7500 H   0  0  0  0  0  0  0  0  0  0  0  0
  1  2  2  0
  2  7  1  0
  3 11  1  0
  3  4  1  0
  3  5  1  0
  4  1  1  0
  5  6  1  0
  5  2  1  0
  7  8  1  0
  8 10  1  0
 10  9  1  0
 11 12  1  0
 13 14  1  0
 13 12  1  0
 14 16  1  0
 15 26  2  0
 16 21  1  0
 17 25  1  0
 17 27  1  0
 18 24  1  0
 18 20  1  0
 19 25  1  0
 20 19  1  0
 21 20  2  0
 22 23  1  0
 22 16  2  0
 23 18  2  0
 24 17  1  0
 25 15  1  0
 27 29  2  0
 28 27  1  0
 30 28  1  0
 31 40  2  0
 31 36  1  0
 32 28  1  0
 32 36  1  0
 33 32  1  0
 34 35  1  0
 34 33  1  0
 35 31  1  0
 36 37  2  0
 37 38  1  0
 39 38  2  0
 40 39  1  0
 41 15  1  0
 41 46  1  0
 41 42  1  0
 42 45  1  1
 42 43  1  0
 44 42  1  0
 46 49  1  0
 47 51  1  0
 47 46  1  0
 48 47  2  0
 51 50  1  0
 53 51  1  0
 53 54  1  0
 53 52  1  0
 55 56  1  0
 55  4  1  0
 57 66  1  0
 57 56  2  0
 58 66  1  0
 59 64  1  0
 60 61  1  0
 60 59  1  0
 62 61  1  0
 62 71  1  0
 62 63  1  0
 64 58  1  0
 64 63  1  0
 65 58  2  0
 66 67  1  0
 68 69  2  0
 69 88  1  0
 70 69  1  0
 70 73  1  0
 71 72  1  0
 71 68  1  0
 72 70  2  0
 73 74  1  0
 74 75  2  0
 76 79  1  0
 76 75  1  0
 77 76  2  0
 78 77  1  0
 78 73  2  0
 79 80  1  0
 80 81  1  0
 81 82  2  0
 83 82  1  0
 83 87  1  0
 84 83  2  0
 85 80  2  0
 85 84  1  0
 86 85  1  0
 88 89  1  0
 89 92  1  0
 89 91  1  0
 90 88  2  0
 93 94  1  0
 93 68  1  0
 95 93  1  0
M  ISO  4  13 101  14 101  58 100  66 100
M  END
>  <TORSDO>  (63) 
F 25

>  <SCORE>  (63) 
-4.416

>  <name>  (63) 
63

>  <ligand_id>  (63) 
63

>  <original_smiles>  (63) 
[H]c1c([H])c([H])c2c(c1[H])C([H])([H])C([H])([H])C([H])([H])C2([H])N([H])C(=O)C1([H])N(C(=O)C([H])(N([H])C(=O)C([H])(N([H])C([H])([H])[H])C([H])([H])[H])C(C([H])([H])[H])(C([H])([H])[H])C([H])([H])[H])C([H])([H])c2c([H])c(OC([H])([H])C([H])([H])C([H])([H])c3n(C([H])([H])C([H])([H])C([H])([H])N([H])C(=O)N4C([H])([H])C([H])([H])C([H])([H])C([H])(n5nc(-c6c([H])c([H])c(Oc7c([H])c([H])c(F)c([H])c7F)c([H])c6[H])c(C(=O)N([H])[H])c5N([H])[H])C4([H])[H])c([H])c(C([H])([H])C([H])([H])C([H])([H])C([H])([H])[H])[n+]3[H])c([H])c([H])c2C1([H])[H]

>  <smiles>  (63) 
[H]c1c([H])c([H])c2c(c1[H])C([H])([H])C([H])([H])C([H])([H])C2([H])N([H])C(=O)C1([H])N(C(=O)C([H])(N([H])C(=O)C([H])(N([H])C([H])([H])[H])C([H])([H])[H])C(C([H])([H])[H])(C([H])([H])[H])C([H])([H])[H])C([H])([H])c2c([H])c(OC([H])([H])C([H])([H])C([H])([H])c3n(C([H])([H])C([H])([H])C([H])([H])N([H])C(=O)N4C([H])([H])C([H])([H])C([H])([H])C([H])(n5nc(-c6c([H])c([H])c(Oc7c([H])c([H])c(F)c([H])c7F)c([H])c6[H])c(C(=O)N([H])[H])c5N([H])[H])C4([H])[H])c([H])c(C([H])([H])C([H])([H])C([H])([H])C([H])([H])[H])[n+]3[H])c([H])c([H])c2C1([H])[H]

$$$$
64:0:0
     RDKit          3D

 91 99  0  0  1  0  0  0  0  0999 V2000
  -29.3830  -20.7340   20.3650 C   0  0  0  0  0  0  0  0  0  0  0  0
  -28.1850  -21.3660   19.9150 C   0  0  0  0  0  0  0  0  0  0  0  0
  -30.2020  -21.8270   20.6380 C   0  0  0  0  0  0  0  0  0  0  0  0
  -26.9000  -20.7200   19.4790 C   0  0  0  0  0  1  0  0  0  0  0  0
  -31.6070  -21.9300   21.1460 C   0  0  0  0  0  1  0  0  0  0  0  0
  -28.2450  -22.6860   19.9310 N   0  0  0  0  0  0  0  0  0  0  0  0
  -29.4780  -23.0020   20.3710 N   0  0  0  0  0  0  0  0  0  0  0  0
  -29.4740  -19.1840   20.4850 C   0  0  0  0  0  2  0  0  0  0  0  0
  -30.8370  -18.4700   20.7380 C   0  0  0  0  0  2  0  0  0  0  0  0
  -30.8230  -17.1930   21.6600 C   0  0  0  0  0  2  0  0  0  0  0  0
  -30.9960  -14.8760   20.6300 C   0  0  0  0  0  0  0  0  0  0  0  0
  -30.7620  -12.6600   19.5420 C   0  0  0  0  0  2  0  0  0  0  0  0
  -29.8500  -12.7950   18.3050 C   0  0  0  0  0  2  0  0  0  0  0  0
  -28.3640  -12.6620   18.6970 C   0  0  0  0  0  2  0  0  0  0  0  0
  -27.9860  -13.5410   19.9200 C   0  0  0  0  0  3  0  0  0  0  0  0
  -29.0140  -13.3720   21.0600 C   0  0  0  0  0  2  0  0  0  0  0  0
  -30.3410  -13.6860   20.5090 N   0  0  0  0  0  0  0  0  0  0  0  0
  -32.1470  -15.0360   20.2110 O   0  0  0  0  0  0  0  0  0  0  0  0
  -30.2820  -15.9080   21.1450 N   0  0  0  0  0  0  0  0  0  0  0  0
  -29.3280  -15.6880   21.3960 H   0  0  0  0  0  0  0  0  0  0  0  0
  -25.5880  -14.1760   20.5920 C   0  0  0  0  0  0  0  0  0  0  0  0
  -24.5020  -13.4180   20.9340 C   0  0  0  0  0  0  0  0  0  0  0  0
  -24.9430  -12.0590   20.9000 C   0  0  0  0  0  0  0  0  0  0  0  0
  -26.6240  -13.2800   20.3740 N   0  0  0  0  0  0  0  0  0  0  0  0
  -26.2370  -12.0010   20.6130 N   0  0  0  0  0  0  0  0  0  0  0  0
  -24.1930  -10.8080   21.0650 C   0  0  0  0  0  0  0  0  0  0  0  0
  -24.5610   -9.8500   22.0350 C   0  0  0  0  0  3  0  0  0  0  0  0
  -23.8110   -8.6630   22.1880 C   0  0  0  0  0  3  0  0  0  0  0  0
  -22.6810   -8.4270   21.3720 C   0  0  0  0  0  0  0  0  0  0  0  0
  -22.3310   -9.3740   20.3930 C   0  0  0  0  0  3  0  0  0  0  0  0
  -23.0800  -10.5530   20.2390 C   0  0  0  0  0  3  0  0  0  0  0  0
  -21.9110   -7.2910   21.4330 O   0  0  0  0  0  0  0  0  0  0  0  0
  -21.7470   -6.5930   22.6010 C   0  0  0  0  0  0  0  0  0  0  0  0
  -21.1650   -7.1810   23.7460 C   0  0  0  0  0  3  0  0  0  0  0  0
  -20.9540   -6.4080   24.9050 C   0  0  0  0  0  3  0  0  0  0  0  0
  -21.3110   -5.0460   24.9190 C   0  0  0  0  0  0  0  0  0  0  0  0
  -21.8820   -4.4560   23.7770 C   0  0  0  0  0  3  0  0  0  0  0  0
  -22.0960   -5.2260   22.6210 C   0  0  0  0  0  0  0  0  0  0  0  0
  -22.6290   -4.6490   21.5180 F   0  0  0  0  0  0  0  0  0  0  0  0
  -21.0990   -4.3010   26.0290 F   0  0  0  0  0  0  0  0  0  0  0  0
  -23.1090  -13.9160   21.1850 C   0  0  0  0  0  0  0  0  0  0  0  0
  -22.3530  -13.2240   22.0340 N   0  0  0  0  0  0  0  0  0  0  0  0
  -22.6950  -14.9510   20.6640 O   0  0  0  0  0  0  0  0  0  0  0  0
  -22.6940  -12.3850   22.4790 H   0  0  0  0  0  0  0  0  0  0  0  0
  -21.4170  -13.5400   22.2400 H   0  0  0  0  0  0  0  0  0  0  0  0
  -25.7750  -15.5450   20.4250 N   0  0  0  0  0  0  0  0  0  0  0  0
  -25.0110  -16.2060   20.5100 H   0  0  0  0  0  0  0  0  0  0  0  0
  -26.6310  -15.9740   20.0990 H   0  0  0  0  0  0  0  0  0  0  0  0
  -29.8110  -24.4400   20.6070 C   0  0  0  0  0  3  0  0  0  0  0  0
  -28.8900  -25.4870   19.8820 C   0  0  0  0  0  3  0  0  0  0  0  0
  -28.9490  -26.8830   20.3210 O   0  0  0  0  0  0  0  0  0  0  0  0
  -24.6110  -31.7640   23.3010 C   0  0  0  0  0  0  0  0  0  0  0  0
  -27.7670  -27.6210   20.2170 C   0  0  0  0  0  0  0  0  0  0  0  0
  -23.6330  -30.3870   21.4960 C   0  0  0  0  0  3  0  0  0  0  0  0
  -25.2920  -29.0310   20.1090 C   0  0  0  0  0  0  0  0  0  0  0  0
  -26.1430  -30.8980   21.5250 C   0  0  0  0  0  2  0  0  0  0  0  0
  -26.3710  -29.5700   20.8210 C   0  0  0  0  0  0  0  0  0  0  0  0
  -27.6090  -28.8750   20.8740 C   0  0  0  0  0  3  0  0  0  0  0  0
  -26.6670  -27.1310   19.4730 C   0  0  0  0  0  3  0  0  0  0  0  0
  -25.4410  -27.8150   19.4260 C   0  0  0  0  0  3  0  0  0  0  0  0
  -23.9950  -29.8090   20.1020 C   0  0  0  0  0  2  0  0  0  0  0  0
  -24.8090  -31.0290   22.1680 N   0  0  0  0  0  0  0  0  0  0  0  0
  -23.4740  -31.9360   23.7650 O   0  0  0  0  0  0  0  0  0  0  0  0
  -22.9770  -29.2740   22.3440 C   0  0  0  0  0  0  0  0  0  0  0  0
  -21.6680  -29.0540   22.1400 N   0  0  0  0  0  0  0  0  0  0  0  0
  -23.6470  -28.6130   23.1420 O   0  0  0  0  0  0  0  0  0  0  0  0
  -21.1880  -29.6390   21.4690 H   0  0  0  0  0  0  0  0  0  0  0  0
  -18.3080  -27.7710   22.4650 C   0  0  0  0  0  0  0  0  0  0  0  0
  -20.8570  -28.0330   22.7990 C   0  0  0  0  0  3  0  0  0  0  0  0
  -20.9910  -26.6720   22.0780 C   0  0  0  0  0  2  0  0  0  0  0  0
  -19.9080  -26.4400   21.0200 C   0  0  0  0  0  2  0  0  0  0  0  0
  -18.5150  -26.5020   21.6570 C   0  0  0  0  0  2  0  0  0  0  0  0
  -19.4100  -28.4980   22.9890 C   0  0  0  0  0  0  0  0  0  0  0  0
  -19.1690  -29.6880   23.7060 C   0  0  0  0  0  3  0  0  0  0  0  0
  -17.8550  -30.1540   23.9100 C   0  0  0  0  0  3  0  0  0  0  0  0
  -16.7670  -29.4210   23.4090 C   0  0  0  0  0  3  0  0  0  0  0  0
  -16.9920  -28.2340   22.6890 C   0  0  0  0  0  3  0  0  0  0  0  0
  -25.7980  -32.4410   24.0530 C   0  0  0  0  0  3  0  0  0  0  0  0
  -25.4270  -33.8410   24.3020 N   0  0  0  0  0  0  0  0  0  0  0  0
  -25.7880  -34.8720   23.5260 C   0  0  0  0  0  0  0  0  0  0  0  0
  -26.5400  -34.7510   22.5570 O   0  0  0  0  0  0  0  0  0  0  0  0
  -24.7720  -34.0130   25.0510 H   0  0  0  0  0  0  0  0  0  0  0  0
  -24.0230  -36.5810   22.9900 C   0  0  0  0  0  1  0  0  0  0  0  0
  -25.2270  -36.2590   23.8890 C   0  0  0  0  0  3  0  0  0  0  0  0
  -27.2630  -37.2740   24.8120 C   0  0  0  0  0  1  0  0  0  0  0  0
  -26.2240  -37.3450   23.7870 N   0  0  0  0  0  0  0  0  0  0  0  0
  -25.7740  -38.2530   23.8590 H   0  0  0  0  0  0  0  0  0  0  0  0
  -26.1740  -31.7160   25.4040 C   0  0  1  0  0  0  0  0  0  0  0  0
  -24.9650  -31.4620   26.3320 C   0  0  0  0  0  1  0  0  0  0  0  0
  -26.8410  -30.3490   25.1220 C   0  0  0  0  0  1  0  0  0  0  0  0
  -27.2060  -32.5600   26.1880 C   0  0  0  0  0  1  0  0  0  0  0  0
  1  8  1  0
  1  3  2  0
  2  6  2  0
  2  1  1  0
  3  5  1  0
  4  2  1  0
  6  7  1  0
  7 49  1  0
  7  3  1  0
  8  9  1  0
  9 10  1  0
 11 19  1  0
 12 17  1  0
 13 14  1  0
 13 12  1  0
 15 14  1  0
 15 24  1  0
 15 16  1  0
 17 11  1  0
 17 16  1  0
 18 11  2  0
 19 20  1  0
 19 10  1  0
 21 22  2  0
 22 41  1  0
 23 22  1  0
 23 26  1  0
 24 21  1  0
 24 25  1  0
 25 23  2  0
 26 27  1  0
 27 28  2  0
 29 32  1  0
 29 28  1  0
 30 29  2  0
 31 30  1  0
 31 26  2  0
 32 33  1  0
 33 38  2  0
 33 34  1  0
 34 35  2  0
 35 36  1  0
 36 40  1  0
 37 36  2  0
 38 37  1  0
 39 38  1  0
 41 42  1  0
 42 45  1  0
 42 44  1  0
 43 41  2  0
 46 47  1  0
 46 21  1  0
 48 46  1  0
 50 51  1  0
 50 49  2  0
 52 63  2  0
 53 51  1  0
 53 58  1  0
 54 62  1  0
 54 64  1  0
 55 57  1  0
 56 62  1  0
 57 58  2  0
 57 56  1  0
 59 53  2  0
 60 59  1  0
 60 55  2  0
 61 55  1  0
 61 54  1  0
 62 52  1  0
 64 66  2  0
 65 64  1  0
 67 65  1  0
 68 77  2  0
 68 73  1  0
 69 65  1  0
 69 73  1  0
 70 69  1  0
 71 72  1  0
 71 70  1  0
 72 68  1  0
 73 74  2  0
 74 75  1  0
 76 75  2  0
 77 76  1  0
 78 52  1  0
 78 79  1  0
 78 88  1  0
 79 82  1  0
 80 84  1  0
 80 79  1  0
 81 80  2  0
 84 83  1  0
 86 87  1  0
 86 84  1  0
 86 85  1  0
 88 91  1  1
 88 89  1  0
 90 88  1  0
M  ISO  4  11 100  19 100  50 101  51 101
M  END
>  <TORSDO>  (64) 
F 21

>  <SCORE>  (64) 
-12.626

>  <name>  (64) 
64

>  <ligand_id>  (64) 
64

>  <original_smiles>  (64) 
[H]c1c([H])c([H])c2c(c1[H])C([H])([H])C([H])([H])C([H])([H])C2([H])N([H])C(=O)C1([H])N(C(=O)C([H])(N([H])C(=O)C([H])(N([H])C([H])([H])[H])C([H])([H])[H])C(C([H])([H])[H])(C([H])([H])[H])C([H])([H])[H])C([H])([H])c2c([H])c(OC([H])([H])C([H])([H])n3nc(C([H])([H])[H])c(C([H])([H])C([H])([H])C([H])([H])N([H])C(=O)N4C([H])([H])C([H])([H])C([H])([H])C([H])(n5nc(-c6c([H])c([H])c(Oc7c([H])c([H])c(F)c([H])c7F)c([H])c6[H])c(C(=O)N([H])[H])c5N([H])[H])C4([H])[H])c3C([H])([H])[H])c([H])c([H])c2C1([H])[H]

>  <smiles>  (64) 
[H]c1c([H])c([H])c2c(c1[H])C([H])([H])C([H])([H])C([H])([H])C2([H])N([H])C(=O)C1([H])N(C(=O)C([H])(N([H])C(=O)C([H])(N([H])C([H])([H])[H])C([H])([H])[H])C(C([H])([H])[H])(C([H])([H])[H])C([H])([H])[H])C([H])([H])c2c([H])c(OC([H])([H])C([H])([H])n3nc(C([H])([H])[H])c(C([H])([H])C([H])([H])C([H])([H])N([H])C(=O)N4C([H])([H])C([H])([H])C([H])([H])C([H])(n5nc(-c6c([H])c([H])c(Oc7c([H])c([H])c(F)c([H])c7F)c([H])c6[H])c(C(=O)N([H])[H])c5N([H])[H])C4([H])[H])c3C([H])([H])[H])c([H])c([H])c2C1([H])[H]

$$$$
65:0:0
     RDKit          3D

 90 98  0  0  1  0  0  0  0  0999 V2000
  -29.6080  -19.8460   21.4740 C   0  0  0  0  0  3  0  0  0  0  0  0
  -29.4300  -19.9140   19.1330 C   0  0  0  0  0  3  0  0  0  0  0  0
  -29.7170  -19.0830   20.2650 C   0  0  0  0  0  0  0  0  0  0  0  0
  -29.3340  -21.2730   21.4990 C   0  0  0  0  0  0  0  0  0  0  0  0
  -29.1440  -22.0310   20.2900 C   0  0  0  0  0  0  0  0  0  0  0  0
  -29.1670  -21.2770   19.1420 N   0  0  0  0  0  0  0  0  0  0  0  0
  -30.6400  -22.1690   23.5440 C   0  0  0  0  0  1  0  0  0  0  0  0
  -29.2740  -21.9720   22.8570 C   0  0  0  0  0  2  0  0  0  0  0  0
  -30.4280  -17.6030   20.1350 C   0  0  0  0  0  2  0  0  0  0  0  0
  -30.6140  -14.9540   20.1550 C   0  0  0  0  0  0  0  0  0  0  0  0
  -30.4090  -12.6340   19.1850 C   0  0  0  0  0  2  0  0  0  0  0  0
  -29.4650  -12.6660   17.9630 C   0  0  0  0  0  2  0  0  0  0  0  0
  -27.9980  -12.4960   18.4020 C   0  0  0  0  0  2  0  0  0  0  0  0
  -27.6330  -13.3680   19.6340 C   0  0  0  0  0  3  0  0  0  0  0  0
  -28.7160  -13.3260   20.7360 C   0  0  0  0  0  2  0  0  0  0  0  0
  -29.9800  -13.7170   20.1080 N   0  0  0  0  0  0  0  0  0  0  0  0
  -31.7990  -15.0060   19.8150 O   0  0  0  0  0  0  0  0  0  0  0  0
  -29.8960  -16.1510   20.3590 N   0  0  0  0  0  0  0  0  0  0  0  0
  -28.9240  -16.0520   20.6070 H   0  0  0  0  0  0  0  0  0  0  0  0
  -25.2650  -13.9150   20.4350 C   0  0  0  0  0  0  0  0  0  0  0  0
  -24.2190  -13.1260   20.8210 C   0  0  0  0  0  0  0  0  0  0  0  0
  -24.6930  -11.7800   20.7650 C   0  0  0  0  0  0  0  0  0  0  0  0
  -26.3100  -13.0510   20.1600 N   0  0  0  0  0  0  0  0  0  0  0  0
  -25.9770  -11.7600   20.4230 N   0  0  0  0  0  0  0  0  0  0  0  0
  -23.9820  -10.5100   20.9560 C   0  0  0  0  0  0  0  0  0  0  0  0
  -24.4140   -9.5550   21.9040 C   0  0  0  0  0  3  0  0  0  0  0  0
  -23.6990   -8.3520   22.0860 C   0  0  0  0  0  3  0  0  0  0  0  0
  -22.5370   -8.0920   21.3230 C   0  0  0  0  0  0  0  0  0  0  0  0
  -22.1210   -9.0360   20.3670 C   0  0  0  0  0  3  0  0  0  0  0  0
  -22.8360  -10.2320   20.1840 C   0  0  0  0  0  3  0  0  0  0  0  0
  -21.7960   -6.9390   21.4150 O   0  0  0  0  0  0  0  0  0  0  0  0
  -21.7110   -6.2280   22.5850 C   0  0  0  0  0  0  0  0  0  0  0  0
  -21.1840   -6.7960   23.7680 C   0  0  0  0  0  3  0  0  0  0  0  0
  -21.0500   -6.0080   24.9290 C   0  0  0  0  0  3  0  0  0  0  0  0
  -21.4320   -4.6540   24.9080 C   0  0  0  0  0  0  0  0  0  0  0  0
  -21.9500   -4.0860   23.7300 C   0  0  0  0  0  3  0  0  0  0  0  0
  -22.0860   -4.8700   22.5720 C   0  0  0  0  0  0  0  0  0  0  0  0
  -22.5650   -4.3110   21.4340 F   0  0  0  0  0  0  0  0  0  0  0  0
  -21.2930   -3.8940   26.0200 F   0  0  0  0  0  0  0  0  0  0  0  0
  -22.8230  -13.5880   21.1240 C   0  0  0  0  0  0  0  0  0  0  0  0
  -22.1210  -12.8760   21.9970 N   0  0  0  0  0  0  0  0  0  0  0  0
  -22.3650  -14.6130   20.6230 O   0  0  0  0  0  0  0  0  0  0  0  0
  -22.5050  -12.0440   22.4190 H   0  0  0  0  0  0  0  0  0  0  0  0
  -21.1850  -13.1630   22.2430 H   0  0  0  0  0  0  0  0  0  0  0  0
  -25.4090  -15.2890   20.2650 N   0  0  0  0  0  0  0  0  0  0  0  0
  -24.6320  -15.9280   20.3870 H   0  0  0  0  0  0  0  0  0  0  0  0
  -26.2280  -15.7380   19.8730 H   0  0  0  0  0  0  0  0  0  0  0  0
  -29.2380  -23.6670   20.1650 C   0  0  0  0  0  3  0  0  0  0  0  0
  -28.0320  -24.8010   20.2650 C   0  0  0  0  0  3  0  0  0  0  0  0
  -28.2750  -26.3260   20.1830 O   0  0  0  0  0  0  0  0  0  0  0  0
  -24.6450  -31.9290   23.2320 C   0  0  0  0  0  0  0  0  0  0  0  0
  -27.1940  -27.2680   20.1470 C   0  0  0  0  0  0  0  0  0  0  0  0
  -23.4250  -30.5420   21.5960 C   0  0  0  0  0  3  0  0  0  0  0  0
  -24.8580  -28.9840   20.1480 C   0  0  0  0  0  0  0  0  0  0  0  0
  -25.9740  -30.8220   21.4040 C   0  0  0  0  0  2  0  0  0  0  0  0
  -26.0430  -29.4370   20.7440 C   0  0  0  0  0  0  0  0  0  0  0  0
  -27.2120  -28.5940   20.7250 C   0  0  0  0  0  3  0  0  0  0  0  0
  -25.9850  -26.9080   19.5120 C   0  0  0  0  0  3  0  0  0  0  0  0
  -24.8400  -27.7320   19.5170 C   0  0  0  0  0  3  0  0  0  0  0  0
  -23.6290  -29.8750   20.2120 C   0  0  0  0  0  2  0  0  0  0  0  0
  -24.7010  -31.1170   22.1320 N   0  0  0  0  0  0  0  0  0  0  0  0
  -23.5650  -32.2090   23.7750 O   0  0  0  0  0  0  0  0  0  0  0  0
  -22.7580  -29.5270   22.5590 C   0  0  0  0  0  0  0  0  0  0  0  0
  -21.4330  -29.3440   22.4330 N   0  0  0  0  0  0  0  0  0  0  0  0
  -23.4380  -28.9070   23.3820 O   0  0  0  0  0  0  0  0  0  0  0  0
  -20.9410  -29.8920   21.7420 H   0  0  0  0  0  0  0  0  0  0  0  0
  -18.0620  -28.1280   22.9500 C   0  0  0  0  0  0  0  0  0  0  0  0
  -20.6210  -28.4030   23.2080 C   0  0  0  0  0  3  0  0  0  0  0  0
  -20.7290  -26.9710   22.6320 C   0  0  0  0  0  2  0  0  0  0  0  0
  -19.6250  -26.6430   21.6220 C   0  0  0  0  0  2  0  0  0  0  0  0
  -18.2440  -26.7810   22.2710 C   0  0  0  0  0  2  0  0  0  0  0  0
  -19.1790  -28.8970   23.3760 C   0  0  0  0  0  0  0  0  0  0  0  0
  -18.9530  -30.1570   23.9730 C   0  0  0  0  0  3  0  0  0  0  0  0
  -17.6450  -30.6470   24.1470 C   0  0  0  0  0  3  0  0  0  0  0  0
  -16.5440  -29.8760   23.7390 C   0  0  0  0  0  3  0  0  0  0  0  0
  -16.7530  -28.6180   23.1450 C   0  0  0  0  0  3  0  0  0  0  0  0
  -25.9310  -32.5600   23.8430 C   0  0  0  0  0  3  0  0  0  0  0  0
  -26.4550  -31.7840   25.1140 C   0  0  1  0  0  0  0  0  0  0  0  0
  -25.3680  -31.5420   26.1870 C   0  0  0  0  0  1  0  0  0  0  0  0
  -27.0400  -30.4090   24.7190 C   0  0  0  0  0  1  0  0  0  0  0  0
  -27.6090  -32.5790   25.7710 C   0  0  0  0  0  1  0  0  0  0  0  0
  -25.6240  -33.9560   24.1870 N   0  0  0  0  0  0  0  0  0  0  0  0
  -25.9320  -35.0170   23.4270 C   0  0  0  0  0  0  0  0  0  0  0  0
  -26.5750  -34.9210   22.3780 O   0  0  0  0  0  0  0  0  0  0  0  0
  -25.0520  -34.1000   25.0070 H   0  0  0  0  0  0  0  0  0  0  0  0
  -24.1930  -36.8110   23.1280 C   0  0  0  0  0  1  0  0  0  0  0  0
  -25.4540  -36.4040   23.9050 C   0  0  0  0  0  3  0  0  0  0  0  0
  -27.6030  -37.2930   24.6970 C   0  0  0  0  0  1  0  0  0  0  0  0
  -26.4830  -37.4590   23.7740 N   0  0  0  0  0  0  0  0  0  0  0  0
  -26.0800  -38.3780   23.9310 H   0  0  0  0  0  0  0  0  0  0  0  0
  1  4  1  0
  2  6  2  0
  2  3  1  0
  3  1  2  0
  4  8  1  0
  5  4  2  0
  6  5  1  0
  8  7  1  0
  9  3  1  0
  9 18  1  0
 10 18  1  0
 11 16  1  0
 12 13  1  0
 12 11  1  0
 14 13  1  0
 14 23  1  0
 14 15  1  0
 16 10  1  0
 16 15  1  0
 17 10  2  0
 18 19  1  0
 20 21  2  0
 21 40  1  0
 22 21  1  0
 22 25  1  0
 23 24  1  0
 23 20  1  0
 24 22  2  0
 25 26  1  0
 26 27  2  0
 28 31  1  0
 28 27  1  0
 29 28  2  0
 30 29  1  0
 30 25  2  0
 31 32  1  0
 32 33  1  0
 33 34  2  0
 35 34  1  0
 35 39  1  0
 36 35  2  0
 37 32  2  0
 37 36  1  0
 38 37  1  0
 40 41  1  0
 41 44  1  0
 41 43  1  0
 42 40  2  0
 45 46  1  0
 45 20  1  0
 47 45  1  0
 48 49  2  0
 48  5  1  0
 50 49  1  0
 51 62  2  0
 52 50  1  0
 52 57  1  0
 53 61  1  0
 53 63  1  0
 54 60  1  0
 54 56  1  0
 55 61  1  0
 56 55  1  0
 57 56  2  0
 58 59  1  0
 58 52  2  0
 59 54  2  0
 60 53  1  0
 61 51  1  0
 63 65  2  0
 64 63  1  0
 66 64  1  0
 67 76  2  0
 67 72  1  0
 68 64  1  0
 68 72  1  0
 69 68  1  0
 70 71  1  0
 70 69  1  0
 71 67  1  0
 72 73  2  0
 73 74  1  0
 75 74  2  0
 76 75  1  0
 77 51  1  0
 77 82  1  0
 77 78  1  0
 78 81  1  1
 78 79  1  0
 80 78  1  0
 82 85  1  0
 83 87  1  0
 83 82  1  0
 84 83  2  0
 87 86  1  0
 89 87  1  0
 89 90  1  0
 89 88  1  0
M  ISO  4  10 100  18 100  49 101  50 101
M  END
>  <TORSDO>  (65) 
F 20

>  <SCORE>  (65) 
-13.756

>  <name>  (65) 
65

>  <ligand_id>  (65) 
65

>  <original_smiles>  (65) 
[H]c1nc(C([H])([H])C([H])([H])Oc2c([H])c([H])c3c(c2[H])C([H])([H])N(C(=O)C([H])(N([H])C(=O)C([H])(N([H])C([H])([H])[H])C([H])([H])[H])C(C([H])([H])[H])(C([H])([H])[H])C([H])([H])[H])C([H])(C(=O)N([H])C2([H])c4c([H])c([H])c([H])c([H])c4C([H])([H])C([H])([H])C2([H])[H])C3([H])[H])c(C([H])([H])C([H])([H])[H])c([H])c1C([H])([H])N([H])C(=O)N1C([H])([H])C([H])([H])C([H])([H])C([H])(n2nc(-c3c([H])c([H])c(Oc4c([H])c([H])c(F)c([H])c4F)c([H])c3[H])c(C(=O)N([H])[H])c2N([H])[H])C1([H])[H]

>  <smiles>  (65) 
[H]c1nc(C([H])([H])C([H])([H])Oc2c([H])c([H])c3c(c2[H])C([H])([H])N(C(=O)C([H])(N([H])C(=O)C([H])(N([H])C([H])([H])[H])C([H])([H])[H])C(C([H])([H])[H])(C([H])([H])[H])C([H])([H])[H])C([H])(C(=O)N([H])C2([H])c4c([H])c([H])c([H])c([H])c4C([H])([H])C([H])([H])C2([H])[H])C3([H])[H])c(C([H])([H])C([H])([H])[H])c([H])c1C([H])([H])N([H])C(=O)N1C([H])([H])C([H])([H])C([H])([H])C([H])(n2nc(-c3c([H])c([H])c(Oc4c([H])c([H])c(F)c([H])c4F)c([H])c3[H])c(C(=O)N([H])[H])c2N([H])[H])C1([H])[H]

$$$$
66:0:0
     RDKit          3D

 91 99  0  0  1  0  0  0  0  0999 V2000
  -28.6310  -18.4430   19.1360 C   0  0  0  0  0  3  0  0  0  0  0  0
  -28.1920  -20.8700   18.9900 C   0  0  0  0  0  3  0  0  0  0  0  0
  -29.6640  -19.9880   20.7000 C   0  0  0  0  0  3  0  0  0  0  0  0
  -27.9980  -19.5490   18.5140 C   0  0  0  0  0  0  0  0  0  0  0  0
  -29.4880  -18.6240   20.2410 C   0  0  0  0  0  0  0  0  0  0  0  0
  -29.0250  -21.1480   20.0970 C   0  0  0  0  0  0  0  0  0  0  0  0
  -27.1330  -19.3220   17.2880 C   0  0  0  0  0  1  0  0  0  0  0  0
  -29.9440  -22.7790   21.9010 C   0  0  0  0  0  1  0  0  0  0  0  0
  -29.3260  -22.6690   20.4940 C   0  0  0  0  0  3  0  0  0  0  0  0
  -28.2190  -23.8410   20.3350 C   0  0  0  0  0  2  0  0  0  0  0  0
  -28.6510  -25.2730   19.7290 C   0  0  0  0  0  2  0  0  0  0  0  0
  -28.4850  -26.5820   20.4150 O   0  0  0  0  0  0  0  0  0  0  0  0
  -24.6040  -31.9680   23.2300 C   0  0  0  0  0  0  0  0  0  0  0  0
  -27.3360  -27.3800   20.3060 C   0  0  0  0  0  0  0  0  0  0  0  0
  -23.4500  -30.5160   21.6010 C   0  0  0  0  0  3  0  0  0  0  0  0
  -24.9450  -28.9550   20.2290 C   0  0  0  0  0  0  0  0  0  0  0  0
  -25.9900  -30.8670   21.4540 C   0  0  0  0  0  2  0  0  0  0  0  0
  -26.0970  -29.4780   20.8280 C   0  0  0  0  0  0  0  0  0  0  0  0
  -27.2930  -28.7010   20.8540 C   0  0  0  0  0  3  0  0  0  0  0  0
  -26.1550  -26.8960   19.7070 C   0  0  0  0  0  3  0  0  0  0  0  0
  -24.9750  -27.6680   19.6660 C   0  0  0  0  0  3  0  0  0  0  0  0
  -23.6940  -29.8130   20.2390 C   0  0  0  0  0  2  0  0  0  0  0  0
  -24.6990  -31.1380   22.1490 N   0  0  0  0  0  0  0  0  0  0  0  0
  -23.5080  -32.2350   23.7430 O   0  0  0  0  0  0  0  0  0  0  0  0
  -22.7940  -29.5070   22.5730 C   0  0  0  0  0  0  0  0  0  0  0  0
  -21.4740  -29.2990   22.4270 N   0  0  0  0  0  0  0  0  0  0  0  0
  -23.4730  -28.9120   23.4140 O   0  0  0  0  0  0  0  0  0  0  0  0
  -20.9890  -29.8230   21.7130 H   0  0  0  0  0  0  0  0  0  0  0  0
  -18.1020  -28.1030   22.9590 C   0  0  0  0  0  0  0  0  0  0  0  0
  -20.6630  -28.3630   23.2060 C   0  0  0  0  0  3  0  0  0  0  0  0
  -20.7610  -26.9310   22.6340 C   0  0  0  0  0  2  0  0  0  0  0  0
  -19.6510  -26.6060   21.6290 C   0  0  0  0  0  2  0  0  0  0  0  0
  -18.2750  -26.7520   22.2830 C   0  0  0  0  0  2  0  0  0  0  0  0
  -19.2240  -28.8660   23.3780 C   0  0  0  0  0  0  0  0  0  0  0  0
  -19.0090  -30.1290   23.9710 C   0  0  0  0  0  3  0  0  0  0  0  0
  -17.7070  -30.6290   24.1490 C   0  0  0  0  0  3  0  0  0  0  0  0
  -16.6000  -29.8630   23.7460 C   0  0  0  0  0  3  0  0  0  0  0  0
  -16.7980  -28.6020   23.1560 C   0  0  0  0  0  3  0  0  0  0  0  0
  -25.8660  -32.6390   23.8570 C   0  0  0  0  0  3  0  0  0  0  0  0
  -26.3930  -31.8920   25.1450 C   0  0  1  0  0  0  0  0  0  0  0  0
  -25.2970  -31.6160   26.2000 C   0  0  0  0  0  1  0  0  0  0  0  0
  -27.0340  -30.5360   24.7730 C   0  0  0  0  0  1  0  0  0  0  0  0
  -27.5050  -32.7310   25.8180 C   0  0  0  0  0  1  0  0  0  0  0  0
  -25.5150  -34.0290   24.1790 N   0  0  0  0  0  0  0  0  0  0  0  0
  -25.8140  -35.0880   23.4150 C   0  0  0  0  0  0  0  0  0  0  0  0
  -26.4860  -35.0000   22.3840 O   0  0  0  0  0  0  0  0  0  0  0  0
  -24.9180  -34.1700   24.9810 H   0  0  0  0  0  0  0  0  0  0  0  0
  -24.0550  -36.8450   23.0260 C   0  0  0  0  0  1  0  0  0  0  0  0
  -25.2860  -36.4640   23.8650 C   0  0  0  0  0  3  0  0  0  0  0  0
  -27.3700  -37.4010   24.7640 C   0  0  0  0  0  1  0  0  0  0  0  0
  -26.2980  -37.5400   23.7820 N   0  0  0  0  0  0  0  0  0  0  0  0
  -25.8670  -38.4530   23.9120 H   0  0  0  0  0  0  0  0  0  0  0  0
  -30.2740  -17.3850   20.8560 C   0  0  0  0  0  2  0  0  0  0  0  0
  -30.6010  -14.8180   20.3970 C   0  0  0  0  0  0  0  0  0  0  0  0
  -30.3850  -12.5980   19.2780 C   0  0  0  0  0  2  0  0  0  0  0  0
  -29.4270  -12.7400   18.0740 C   0  0  0  0  0  2  0  0  0  0  0  0
  -27.9610  -12.5600   18.5120 C   0  0  0  0  0  2  0  0  0  0  0  0
  -27.6110  -13.3800   19.7830 C   0  0  0  0  0  3  0  0  0  0  0  0
  -28.6860  -13.2180   20.8800 C   0  0  0  0  0  2  0  0  0  0  0  0
  -29.9700  -13.6010   20.2820 N   0  0  0  0  0  0  0  0  0  0  0  0
  -31.7890  -14.9280   20.0850 O   0  0  0  0  0  0  0  0  0  0  0  0
  -29.8320  -15.9370   20.6670 N   0  0  0  0  0  0  0  0  0  0  0  0
  -28.8550  -15.7600   20.8360 H   0  0  0  0  0  0  0  0  0  0  0  0
  -25.2240  -13.9360   20.5340 C   0  0  0  0  0  0  0  0  0  0  0  0
  -24.1700  -13.1440   20.9010 C   0  0  0  0  0  0  0  0  0  0  0  0
  -24.6490  -11.7980   20.8490 C   0  0  0  0  0  0  0  0  0  0  0  0
  -26.2750  -13.0700   20.2800 N   0  0  0  0  0  0  0  0  0  0  0  0
  -25.9370  -11.7790   20.5330 N   0  0  0  0  0  0  0  0  0  0  0  0
  -23.9380  -10.5260   21.0300 C   0  0  0  0  0  0  0  0  0  0  0  0
  -24.3600   -9.5730   21.9840 C   0  0  0  0  0  3  0  0  0  0  0  0
  -23.6490   -8.3660   22.1510 C   0  0  0  0  0  3  0  0  0  0  0  0
  -22.5040   -8.1010   21.3630 C   0  0  0  0  0  0  0  0  0  0  0  0
  -22.1010   -9.0430   20.3990 C   0  0  0  0  0  3  0  0  0  0  0  0
  -22.8120  -10.2430   20.2310 C   0  0  0  0  0  3  0  0  0  0  0  0
  -21.7670   -6.9430   21.4370 O   0  0  0  0  0  0  0  0  0  0  0  0
  -21.6660   -6.2270   22.6010 C   0  0  0  0  0  0  0  0  0  0  0  0
  -21.0960   -6.7810   23.7690 C   0  0  0  0  0  3  0  0  0  0  0  0
  -20.9460   -5.9880   24.9240 C   0  0  0  0  0  3  0  0  0  0  0  0
  -21.3570   -4.6410   24.9130 C   0  0  0  0  0  0  0  0  0  0  0  0
  -21.9190   -4.0870   23.7500 C   0  0  0  0  0  3  0  0  0  0  0  0
  -22.0710   -4.8760   22.5980 C   0  0  0  0  0  0  0  0  0  0  0  0
  -22.5940   -4.3290   21.4740 F   0  0  0  0  0  0  0  0  0  0  0  0
  -21.2070   -3.8780   26.0210 F   0  0  0  0  0  0  0  0  0  0  0  0
  -22.7690  -13.6010   21.1860 C   0  0  0  0  0  0  0  0  0  0  0  0
  -22.0430  -12.8690   22.0250 N   0  0  0  0  0  0  0  0  0  0  0  0
  -22.3240  -14.6400   20.6990 O   0  0  0  0  0  0  0  0  0  0  0  0
  -22.4150  -12.0290   22.4400 H   0  0  0  0  0  0  0  0  0  0  0  0
  -21.1030  -13.1570   22.2560 H   0  0  0  0  0  0  0  0  0  0  0  0
  -25.3730  -15.3100   20.3710 N   0  0  0  0  0  0  0  0  0  0  0  0
  -24.6000  -15.9550   20.4940 H   0  0  0  0  0  0  0  0  0  0  0  0
  -26.2080  -15.7580   20.0170 H   0  0  0  0  0  0  0  0  0  0  0  0
  1  5  1  0
  2  6  2  0
  4  2  1  0
  4  1  2  0
  5  3  2  0
  5 53  1  0
  6  9  1  0
  6  3  1  0
  7  4  1  0
  9  8  1  0
 10  9  1  0
 11 10  1  0
 11 12  1  0
 13 24  2  0
 14 12  1  0
 14 19  1  0
 15 23  1  0
 15 25  1  0
 16 22  1  0
 16 18  1  0
 17 23  1  0
 18 19  2  0
 18 17  1  0
 20 14  2  0
 21 20  1  0
 21 16  2  0
 22 15  1  0
 23 13  1  0
 25 27  2  0
 26 25  1  0
 28 26  1  0
 29 38  2  0
 29 34  1  0
 30 26  1  0
 30 34  1  0
 31 30  1  0
 32 33  1  0
 32 31  1  0
 33 29  1  0
 34 35  2  0
 35 36  1  0
 37 36  2  0
 38 37  1  0
 39 13  1  0
 39 44  1  0
 39 40  1  0
 40 43  1  1
 40 41  1  0
 42 40  1  0
 44 47  1  0
 45 49  1  0
 45 44  1  0
 46 45  2  0
 49 48  1  0
 51 49  1  0
 51 52  1  0
 51 50  1  0
 54 62  1  0
 55 60  1  0
 56 57  1  0
 56 55  1  0
 58 57  1  0
 58 67  1  0
 58 59  1  0
 60 54  1  0
 60 59  1  0
 61 54  2  0
 62 63  1  0
 62 53  1  0
 64 65  2  0
 65 84  1  0
 66 65  1  0
 66 69  1  0
 67 68  1  0
 67 64  1  0
 68 66  2  0
 69 70  1  0
 70 71  2  0
 72 75  1  0
 72 71  1  0
 73 72  2  0
 74 73  1  0
 74 69  2  0
 75 76  1  0
 76 77  1  0
 77 78  2  0
 79 78  1  0
 79 83  1  0
 80 79  2  0
 81 76  2  0
 81 80  1  0
 82 81  1  0
 84 85  1  0
 85 88  1  0
 85 87  1  0
 86 84  2  0
 89 90  1  0
 89 64  1  0
 91 89  1  0
M  ISO  4  11 101  12 101  54 100  62 100
M  END
>  <TORSDO>  (66) 
F 20

>  <SCORE>  (66) 
-13.981

>  <name>  (66) 
66

>  <ligand_id>  (66) 
66

>  <original_smiles>  (66) 
[H]c1c([H])c([H])c2c(c1[H])C([H])([H])C([H])([H])C([H])([H])C2([H])N([H])C(=O)C1([H])N(C(=O)C([H])(N([H])C(=O)C([H])(N([H])C([H])([H])[H])C([H])([H])[H])C(C([H])([H])[H])(C([H])([H])[H])C([H])([H])[H])C([H])([H])c2c([H])c(OC([H])([H])C([H])([H])C([H])(c3c([H])c(C([H])([H])[H])c([H])c(C([H])([H])N([H])C(=O)N4C([H])([H])C([H])([H])C([H])([H])C([H])(n5nc(-c6c([H])c([H])c(Oc7c([H])c([H])c(F)c([H])c7F)c([H])c6[H])c(C(=O)N([H])[H])c5N([H])[H])C4([H])[H])c3[H])C([H])([H])[H])c([H])c([H])c2C1([H])[H]

>  <smiles>  (66) 
[H]c1c([H])c([H])c2c(c1[H])C([H])([H])C([H])([H])C([H])([H])C2([H])N([H])C(=O)C1([H])N(C(=O)C([H])(N([H])C(=O)C([H])(N([H])C([H])([H])[H])C([H])([H])[H])C(C([H])([H])[H])(C([H])([H])[H])C([H])([H])[H])C([H])([H])c2c([H])c(OC([H])([H])C([H])([H])C([H])(c3c([H])c(C([H])([H])[H])c([H])c(C([H])([H])N([H])C(=O)N4C([H])([H])C([H])([H])C([H])([H])C([H])(n5nc(-c6c([H])c([H])c(Oc7c([H])c([H])c(F)c([H])c7F)c([H])c6[H])c(C(=O)N([H])[H])c5N([H])[H])C4([H])[H])c3[H])C([H])([H])[H])c([H])c([H])c2C1([H])[H]

$$$$
67:0:0
     RDKit          3D

 92100  0  0  1  0  0  0  0  0999 V2000
  -30.9440  -23.1930   22.1120 C   0  0  0  0  0  3  0  0  0  0  0  0
  -29.2320  -22.6820   20.7750 C   0  0  0  0  0  3  0  0  0  0  0  0
  -30.5960  -21.8960   22.3810 C   0  0  0  0  0  0  0  0  0  0  0  0
  -29.4920  -21.5730   21.5320 C   0  0  0  0  0  0  0  0  0  0  0  0
  -31.2610  -20.9980   23.3930 C   0  0  0  0  0  1  0  0  0  0  0  0
  -30.0870  -23.6990   21.1540 N   0  0  0  0  0  0  0  0  0  0  0  0
  -28.7120  -20.2800   21.4660 C   0  0  0  0  0  2  0  0  0  0  0  0
  -29.5670  -19.0100   21.3360 C   0  0  0  0  0  2  0  0  0  0  0  0
  -30.3940  -18.9270   20.0400 C   0  0  0  0  0  2  0  0  0  0  0  0
  -30.7250  -17.4790   19.6430 C   0  0  0  0  0  2  0  0  0  0  0  0
  -31.7380  -16.7790   20.5690 C   0  0  0  0  0  2  0  0  0  0  0  0
  -31.9380  -14.3690   19.8960 C   0  0  0  0  0  0  0  0  0  0  0  0
  -31.4410  -12.1430   18.9590 C   0  0  0  0  0  2  0  0  0  0  0  0
  -30.4760  -12.2770   17.7630 C   0  0  0  0  0  2  0  0  0  0  0  0
  -29.0070  -12.3290   18.2290 C   0  0  0  0  0  2  0  0  0  0  0  0
  -28.7820  -13.3450   19.3810 C   0  0  0  0  0  3  0  0  0  0  0  0
  -29.8320  -13.1250   20.4920 C   0  0  0  0  0  2  0  0  0  0  0  0
  -31.1750  -13.2460   19.8900 N   0  0  0  0  0  0  0  0  0  0  0  0
  -32.9770  -14.5000   19.2400 O   0  0  0  0  0  0  0  0  0  0  0  0
  -31.4250  -15.3590   20.6360 N   0  0  0  0  0  0  0  0  0  0  0  0
  -30.6150  -15.1060   21.1820 H   0  0  0  0  0  0  0  0  0  0  0  0
  -26.5270  -14.2900   20.1970 C   0  0  0  0  0  0  0  0  0  0  0  0
  -25.3690  -13.6740   20.5950 C   0  0  0  0  0  0  0  0  0  0  0  0
  -25.6200  -12.2710   20.5110 C   0  0  0  0  0  0  0  0  0  0  0  0
  -27.4190  -13.2680   19.9040 N   0  0  0  0  0  0  0  0  0  0  0  0
  -26.8760  -12.0480   20.1460 N   0  0  0  0  0  0  0  0  0  0  0  0
  -24.7240  -11.1240   20.7050 C   0  0  0  0  0  0  0  0  0  0  0  0
  -25.0350  -10.0890   21.6120 C   0  0  0  0  0  3  0  0  0  0  0  0
  -24.1500   -9.0040   21.7930 C   0  0  0  0  0  3  0  0  0  0  0  0
  -22.9380   -8.9500   21.0650 C   0  0  0  0  0  0  0  0  0  0  0  0
  -22.6440   -9.9720   20.1440 C   0  0  0  0  0  3  0  0  0  0  0  0
  -23.5280  -11.0470   19.9620 C   0  0  0  0  0  3  0  0  0  0  0  0
  -22.0290   -7.9240   21.1550 O   0  0  0  0  0  0  0  0  0  0  0  0
  -21.8730   -7.2010   22.3090 C   0  0  0  0  0  0  0  0  0  0  0  0
  -21.5360   -7.8170   23.5340 C   0  0  0  0  0  3  0  0  0  0  0  0
  -21.3170   -7.0290   24.6820 C   0  0  0  0  0  3  0  0  0  0  0  0
  -21.4240   -5.6280   24.6070 C   0  0  0  0  0  0  0  0  0  0  0  0
  -21.7550   -5.0120   23.3860 C   0  0  0  0  0  3  0  0  0  0  0  0
  -21.9740   -5.7960   22.2400 C   0  0  0  0  0  0  0  0  0  0  0  0
  -22.2710   -5.1970   21.0620 F   0  0  0  0  0  0  0  0  0  0  0  0
  -21.2050   -4.8690   25.7060 F   0  0  0  0  0  0  0  0  0  0  0  0
  -24.0700  -14.3440   20.9400 C   0  0  0  0  0  0  0  0  0  0  0  0
  -23.2870  -13.7430   21.8300 N   0  0  0  0  0  0  0  0  0  0  0  0
  -23.7610  -15.4330   20.4560 O   0  0  0  0  0  0  0  0  0  0  0  0
  -23.5460  -12.8590   22.2420 H   0  0  0  0  0  0  0  0  0  0  0  0
  -22.4150  -14.1740   22.1020 H   0  0  0  0  0  0  0  0  0  0  0  0
  -26.8900  -15.6240   20.0430 N   0  0  0  0  0  0  0  0  0  0  0  0
  -26.2420  -16.3880   20.1990 H   0  0  0  0  0  0  0  0  0  0  0  0
  -27.7860  -15.9320   19.6840 H   0  0  0  0  0  0  0  0  0  0  0  0
  -30.1240  -25.0630   20.6380 C   0  0  0  0  0  2  0  0  0  0  0  0
  -28.7610  -25.5800   20.1440 C   0  0  0  0  0  2  0  0  0  0  0  0
  -28.8220  -26.9870   19.9210 O   0  0  0  0  0  0  0  0  0  0  0  0
  -24.6940  -31.7240   23.2190 C   0  0  0  0  0  0  0  0  0  0  0  0
  -27.6070  -27.6320   19.9320 C   0  0  0  0  0  0  0  0  0  0  0  0
  -23.5890  -30.3840   21.4570 C   0  0  0  0  0  3  0  0  0  0  0  0
  -25.1410  -29.0060   19.9770 C   0  0  0  0  0  0  0  0  0  0  0  0
  -26.0970  -30.8700   21.3450 C   0  0  0  0  0  2  0  0  0  0  0  0
  -26.2590  -29.5510   20.6210 C   0  0  0  0  0  0  0  0  0  0  0  0
  -27.4970  -28.8750   20.5900 C   0  0  0  0  0  3  0  0  0  0  0  0
  -26.4730  -27.0900   19.2880 C   0  0  0  0  0  3  0  0  0  0  0  0
  -25.2420  -27.7740   19.3060 C   0  0  0  0  0  3  0  0  0  0  0  0
  -23.8580  -29.8030   20.0430 C   0  0  0  0  0  2  0  0  0  0  0  0
  -24.8100  -31.0050   22.0670 N   0  0  0  0  0  0  0  0  0  0  0  0
  -23.5900  -31.9140   23.7470 O   0  0  0  0  0  0  0  0  0  0  0  0
  -22.9610  -29.2760   22.3310 C   0  0  0  0  0  0  0  0  0  0  0  0
  -21.6420  -29.0720   22.1820 N   0  0  0  0  0  0  0  0  0  0  0  0
  -23.6570  -28.6030   23.0980 O   0  0  0  0  0  0  0  0  0  0  0  0
  -21.1410  -29.6700   21.5400 H   0  0  0  0  0  0  0  0  0  0  0  0
  -18.2890  -27.7940   22.5930 C   0  0  0  0  0  0  0  0  0  0  0  0
  -20.8450  -28.0590   22.8720 C   0  0  0  0  0  3  0  0  0  0  0  0
  -20.9600  -26.6860   22.1690 C   0  0  0  0  0  2  0  0  0  0  0  0
  -19.8560  -26.4420   21.1360 C   0  0  0  0  0  2  0  0  0  0  0  0
  -18.4760  -26.5120   21.7980 C   0  0  0  0  0  2  0  0  0  0  0  0
  -19.4010  -28.5280   23.0820 C   0  0  0  0  0  0  0  0  0  0  0  0
  -19.1710  -29.7320   23.7840 C   0  0  0  0  0  3  0  0  0  0  0  0
  -17.8630  -30.2020   23.9990 C   0  0  0  0  0  3  0  0  0  0  0  0
  -16.7640  -29.4630   23.5250 C   0  0  0  0  0  3  0  0  0  0  0  0
  -16.9780  -28.2590   22.8290 C   0  0  0  0  0  3  0  0  0  0  0  0
  -25.9370  -32.3630   23.9140 C   0  0  0  0  0  3  0  0  0  0  0  0
  -25.5750  -33.7330   24.2950 N   0  0  0  0  0  0  0  0  0  0  0  0
  -25.9090  -34.8290   23.6000 C   0  0  0  0  0  0  0  0  0  0  0  0
  -26.6260  -34.7930   22.5960 O   0  0  0  0  0  0  0  0  0  0  0  0
  -24.9440  -33.8350   25.0770 H   0  0  0  0  0  0  0  0  0  0  0  0
  -24.1430  -36.5820   23.2480 C   0  0  0  0  0  1  0  0  0  0  0  0
  -25.3600  -36.1800   24.0960 C   0  0  0  0  0  3  0  0  0  0  0  0
  -27.4300  -37.0840   25.0580 C   0  0  0  0  0  1  0  0  0  0  0  0
  -26.3640  -37.2660   24.0760 N   0  0  0  0  0  0  0  0  0  0  0  0
  -25.9250  -38.1680   24.2480 H   0  0  0  0  0  0  0  0  0  0  0  0
  -26.4370  -31.5470   25.1690 C   0  0  1  0  0  0  0  0  0  0  0  0
  -25.3170  -31.2240   26.1860 C   0  0  0  0  0  1  0  0  0  0  0  0
  -27.0770  -30.2110   24.7280 C   0  0  0  0  0  1  0  0  0  0  0  0
  -27.5380  -32.3440   25.9080 C   0  0  0  0  0  1  0  0  0  0  0  0
  1  3  2  0
  2  6  1  0
  2  4  2  0
  3  5  1  0
  4  3  1  0
  6  1  1  0
  7  4  1  0
  8  7  1  0
  9  8  1  0
 10  9  1  0
 10 11  1  0
 11 20  1  0
 12 20  1  0
 13 18  1  0
 14 15  1  0
 14 13  1  0
 16 15  1  0
 16 25  1  0
 16 17  1  0
 18 12  1  0
 18 17  1  0
 19 12  2  0
 20 21  1  0
 22 23  2  0
 23 42  1  0
 24 23  1  0
 24 27  1  0
 25 26  1  0
 25 22  1  0
 26 24  2  0
 27 28  1  0
 28 29  2  0
 30 33  1  0
 30 29  1  0
 31 30  2  0
 32 31  1  0
 32 27  2  0
 33 34  1  0
 34 35  1  0
 35 36  2  0
 37 36  1  0
 37 41  1  0
 38 37  2  0
 39 34  2  0
 39 38  1  0
 40 39  1  0
 42 43  1  0
 43 46  1  0
 43 45  1  0
 44 42  2  0
 47 22  1  0
 47 48  1  0
 49 47  1  0
 50  6  1  0
 51 50  1  0
 52 54  1  0
 52 51  1  0
 53 64  2  0
 54 59  1  0
 55 63  1  0
 55 65  1  0
 56 62  1  0
 56 58  1  0
 57 63  1  0
 58 57  1  0
 59 58  2  0
 60 61  1  0
 60 54  2  0
 61 56  2  0
 62 55  1  0
 63 53  1  0
 65 67  2  0
 66 65  1  0
 68 66  1  0
 69 78  2  0
 69 74  1  0
 70 66  1  0
 70 74  1  0
 71 70  1  0
 72 73  1  0
 72 71  1  0
 73 69  1  0
 74 75  2  0
 75 76  1  0
 77 76  2  0
 78 77  1  0
 79 53  1  0
 79 80  1  0
 79 89  1  0
 80 83  1  0
 81 85  1  0
 81 80  1  0
 82 81  2  0
 85 84  1  0
 87 85  1  0
 87 88  1  0
 87 86  1  0
 89 92  1  1
 89 90  1  0
 91 89  1  0
M  ISO  4  12 100  20 100  51 101  52 101
M  END
>  <TORSDO>  (67) 
F 23

>  <SCORE>  (67) 
-10.640

>  <name>  (67) 
67

>  <ligand_id>  (67) 
67

>  <original_smiles>  (67) 
[H]c1c([H])c([H])c2c(c1[H])C([H])([H])C([H])([H])C([H])([H])C2([H])N([H])C(=O)C1([H])N(C(=O)C([H])(N([H])C(=O)C([H])(N([H])C([H])([H])[H])C([H])([H])[H])C(C([H])([H])[H])(C([H])([H])[H])C([H])([H])[H])C([H])([H])c2c([H])c(OC([H])([H])C([H])([H])n3c([H])c(C([H])([H])[H])c(C([H])([H])C([H])([H])C([H])([H])C([H])([H])C([H])([H])N([H])C(=O)N4C([H])([H])C([H])([H])C([H])([H])C([H])(n5nc(-c6c([H])c([H])c(Oc7c([H])c([H])c(F)c([H])c7F)c([H])c6[H])c(C(=O)N([H])[H])c5N([H])[H])C4([H])[H])c3[H])c([H])c([H])c2C1([H])[H]

>  <smiles>  (67) 
[H]c1c([H])c([H])c2c(c1[H])C([H])([H])C([H])([H])C([H])([H])C2([H])N([H])C(=O)C1([H])N(C(=O)C([H])(N([H])C(=O)C([H])(N([H])C([H])([H])[H])C([H])([H])[H])C(C([H])([H])[H])(C([H])([H])[H])C([H])([H])[H])C([H])([H])c2c([H])c(OC([H])([H])C([H])([H])n3c([H])c(C([H])([H])[H])c(C([H])([H])C([H])([H])C([H])([H])C([H])([H])C([H])([H])N([H])C(=O)N4C([H])([H])C([H])([H])C([H])([H])C([H])(n5nc(-c6c([H])c([H])c(Oc7c([H])c([H])c(F)c([H])c7F)c([H])c6[H])c(C(=O)N([H])[H])c5N([H])[H])C4([H])[H])c3[H])c([H])c([H])c2C1([H])[H]

$$$$
68:0:0
     RDKit          3D

 93101  0  0  1  0  0  0  0  0999 V2000
  -28.0770  -22.0370   19.4350 C   0  0  0  0  0  3  0  0  0  0  0  0
  -27.7220  -24.3970   18.9350 C   0  0  0  0  0  3  0  0  0  0  0  0
  -29.4930  -23.7300   20.4680 C   0  0  0  0  0  3  0  0  0  0  0  0
  -27.3550  -23.0480   18.7680 C   0  0  0  0  0  0  0  0  0  0  0  0
  -29.1610  -22.3690   20.2830 C   0  0  0  0  0  0  0  0  0  0  0  0
  -28.7820  -24.7450   19.7950 C   0  0  0  0  0  0  0  0  0  0  0  0
  -26.6440  -22.2560   16.4660 C   0  0  0  0  0  1  0  0  0  0  0  0
  -26.1880  -22.6900   17.8630 C   0  0  0  0  0  2  0  0  0  0  0  0
  -29.9950  -21.3080   21.0010 C   0  0  0  0  0  2  0  0  0  0  0  0
  -29.7780  -19.8530   20.5400 C   0  0  0  0  0  2  0  0  0  0  0  0
  -30.7660  -18.8620   21.1790 C   0  0  0  0  0  2  0  0  0  0  0  0
  -30.4700  -17.4090   20.7770 C   0  0  0  0  0  2  0  0  0  0  0  0
  -31.4000  -16.3810   21.4440 C   0  0  0  0  0  2  0  0  0  0  0  0
  -31.3400  -14.2150   20.2030 C   0  0  0  0  0  0  0  0  0  0  0  0
  -30.8060  -12.2100   18.8710 C   0  0  0  0  0  2  0  0  0  0  0  0
  -29.8200  -12.5540   17.7370 C   0  0  0  0  0  2  0  0  0  0  0  0
  -28.3630  -12.4900   18.2330 C   0  0  0  0  0  2  0  0  0  0  0  0
  -28.1490  -13.2690   19.5570 C   0  0  0  0  0  3  0  0  0  0  0  0
  -29.2300  -12.8890   20.5940 C   0  0  0  0  0  2  0  0  0  0  0  0
  -30.5570  -13.1250   19.9940 N   0  0  0  0  0  0  0  0  0  0  0  0
  -32.3470  -14.4710   19.5360 O   0  0  0  0  0  0  0  0  0  0  0  0
  -30.9220  -15.0270   21.1810 N   0  0  0  0  0  0  0  0  0  0  0  0
  -30.1260  -14.7090   21.7130 H   0  0  0  0  0  0  0  0  0  0  0  0
  -25.8160  -13.9930   20.3820 C   0  0  0  0  0  0  0  0  0  0  0  0
  -24.7210  -13.2710   20.7770 C   0  0  0  0  0  0  0  0  0  0  0  0
  -25.1010  -11.8980   20.6880 C   0  0  0  0  0  0  0  0  0  0  0  0
  -26.7990  -13.0620   20.0830 N   0  0  0  0  0  0  0  0  0  0  0  0
  -26.3720  -11.7950   20.3200 N   0  0  0  0  0  0  0  0  0  0  0  0
  -24.3130  -10.6730   20.8760 C   0  0  0  0  0  0  0  0  0  0  0  0
  -24.6670   -9.7100   21.8470 C   0  0  0  0  0  3  0  0  0  0  0  0
  -23.8830   -8.5490   22.0210 C   0  0  0  0  0  3  0  0  0  0  0  0
  -22.7320   -8.3430   21.2250 C   0  0  0  0  0  0  0  0  0  0  0  0
  -22.3970   -9.2930   20.2450 C   0  0  0  0  0  3  0  0  0  0  0  0
  -23.1800  -10.4470   20.0690 C   0  0  0  0  0  3  0  0  0  0  0  0
  -21.9250   -7.2330   21.3070 O   0  0  0  0  0  0  0  0  0  0  0  0
  -21.7360   -6.5670   22.4910 C   0  0  0  0  0  0  0  0  0  0  0  0
  -21.1270   -7.1840   23.6050 C   0  0  0  0  0  3  0  0  0  0  0  0
  -20.8890   -6.4420   24.7790 C   0  0  0  0  0  3  0  0  0  0  0  0
  -21.2490   -5.0820   24.8390 C   0  0  0  0  0  0  0  0  0  0  0  0
  -21.8510   -4.4640   23.7290 C   0  0  0  0  0  3  0  0  0  0  0  0
  -22.0910   -5.2040   22.5570 C   0  0  0  0  0  0  0  0  0  0  0  0
  -22.6510   -4.5980   21.4830 F   0  0  0  0  0  0  0  0  0  0  0  0
  -21.0130   -4.3670   25.9630 F   0  0  0  0  0  0  0  0  0  0  0  0
  -23.3670  -13.8180   21.1290 C   0  0  0  0  0  0  0  0  0  0  0  0
  -22.6390  -13.1360   22.0070 N   0  0  0  0  0  0  0  0  0  0  0  0
  -22.9660  -14.8810   20.6600 O   0  0  0  0  0  0  0  0  0  0  0  0
  -22.9760  -12.2730   22.4080 H   0  0  0  0  0  0  0  0  0  0  0  0
  -21.7300  -13.4800   22.2800 H   0  0  0  0  0  0  0  0  0  0  0  0
  -26.0520  -15.3570   20.2340 N   0  0  0  0  0  0  0  0  0  0  0  0
  -25.3340  -16.0550   20.3890 H   0  0  0  0  0  0  0  0  0  0  0  0
  -26.9220  -15.7530   19.8980 H   0  0  0  0  0  0  0  0  0  0  0  0
  -29.1980  -26.2000   19.9430 C   0  0  0  0  0  2  0  0  0  0  0  0
  -28.6930  -26.8430   21.1120 O   0  0  0  0  0  0  0  0  0  0  0  0
  -24.6690  -32.1460   23.5880 C   0  0  0  0  0  0  0  0  0  0  0  0
  -27.4990  -27.5170   20.9980 C   0  0  0  0  0  0  0  0  0  0  0  0
  -23.5580  -30.6240   21.9820 C   0  0  0  0  0  3  0  0  0  0  0  0
  -25.0940  -28.9850   20.7700 C   0  0  0  0  0  0  0  0  0  0  0  0
  -26.0890  -30.9760   21.9120 C   0  0  0  0  0  2  0  0  0  0  0  0
  -26.2100  -29.5600   21.3900 C   0  0  0  0  0  0  0  0  0  0  0  0
  -27.4090  -28.8270   21.5170 C   0  0  0  0  0  3  0  0  0  0  0  0
  -26.3600  -26.9430   20.3890 C   0  0  0  0  0  3  0  0  0  0  0  0
  -25.1610  -27.6710   20.2760 C   0  0  0  0  0  3  0  0  0  0  0  0
  -23.8480  -29.8370   20.6750 C   0  0  0  0  0  2  0  0  0  0  0  0
  -24.7860  -31.2670   22.5530 N   0  0  0  0  0  0  0  0  0  0  0  0
  -23.5590  -32.4580   24.0410 O   0  0  0  0  0  0  0  0  0  0  0  0
  -22.8470  -29.6770   22.9740 C   0  0  0  0  0  0  0  0  0  0  0  0
  -21.5610  -29.3960   22.7140 N   0  0  0  0  0  0  0  0  0  0  0  0
  -23.4550  -29.1920   23.9320 O   0  0  0  0  0  0  0  0  0  0  0  0
  -21.1310  -29.8410   21.9140 H   0  0  0  0  0  0  0  0  0  0  0  0
  -18.2300  -28.0170   22.9200 C   0  0  0  0  0  0  0  0  0  0  0  0
  -20.7040  -28.4990   23.4870 C   0  0  0  0  0  3  0  0  0  0  0  0
  -20.9700  -27.0210   23.1220 C   0  0  0  0  0  2  0  0  0  0  0  0
  -20.0410  -26.4950   22.0220 C   0  0  0  0  0  2  0  0  0  0  0  0
  -18.5770  -26.6120   22.4550 C   0  0  0  0  0  2  0  0  0  0  0  0
  -19.2310  -28.9080   23.3880 C   0  0  0  0  0  0  0  0  0  0  0  0
  -18.8590  -30.2140   23.7730 C   0  0  0  0  0  3  0  0  0  0  0  0
  -17.5170  -30.6320   23.6980 C   0  0  0  0  0  3  0  0  0  0  0  0
  -16.5280  -29.7410   23.2470 C   0  0  0  0  0  3  0  0  0  0  0  0
  -16.8850  -28.4360   22.8640 C   0  0  0  0  0  3  0  0  0  0  0  0
  -25.9190  -32.8190   24.2370 C   0  0  0  0  0  3  0  0  0  0  0  0
  -25.5910  -34.2320   24.4660 N   0  0  0  0  0  0  0  0  0  0  0  0
  -25.9300  -35.2340   23.6430 C   0  0  0  0  0  0  0  0  0  0  0  0
  -26.6250  -35.0690   22.6360 O   0  0  0  0  0  0  0  0  0  0  0  0
  -24.9770  -34.4340   25.2410 H   0  0  0  0  0  0  0  0  0  0  0  0
  -24.1780  -36.9660   23.1410 C   0  0  0  0  0  1  0  0  0  0  0  0
  -25.4160  -36.6430   23.9930 C   0  0  0  0  0  3  0  0  0  0  0  0
  -27.5130  -37.6330   24.7960 C   0  0  0  0  0  1  0  0  0  0  0  0
  -26.4320  -37.7020   23.8160 N   0  0  0  0  0  0  0  0  0  0  0  0
  -26.0070  -38.6230   23.8770 H   0  0  0  0  0  0  0  0  0  0  0  0
  -26.3730  -32.1270   25.5800 C   0  0  1  0  0  0  0  0  0  0  0  0
  -25.2150  -31.8820   26.5760 C   0  0  0  0  0  1  0  0  0  0  0  0
  -27.0420  -30.7630   25.2910 C   0  0  0  0  0  1  0  0  0  0  0  0
  -27.4380  -32.9990   26.2880 C   0  0  0  0  0  1  0  0  0  0  0  0
  1  5  1  0
  2  6  2  0
  4  2  1  0
  4  1  2  0
  5  3  2  0
  5  9  1  0
  6 52  1  0
  6  3  1  0
  7  8  1  0
  8  4  1  0
 10  9  1  0
 10 11  1  0
 12 11  1  0
 12 13  1  0
 14 22  1  0
 15 20  1  0
 16 17  1  0
 16 15  1  0
 18 17  1  0
 18 27  1  0
 18 19  1  0
 20 14  1  0
 20 19  1  0
 21 14  2  0
 22 13  1  0
 22 23  1  0
 24 25  2  0
 25 44  1  0
 26 25  1  0
 26 29  1  0
 27 28  1  0
 27 24  1  0
 28 26  2  0
 29 30  1  0
 30 31  2  0
 32 35  1  0
 32 31  1  0
 33 32  2  0
 34 33  1  0
 34 29  2  0
 35 36  1  0
 36 41  2  0
 36 37  1  0
 37 38  2  0
 38 39  1  0
 39 43  1  0
 40 39  2  0
 41 40  1  0
 42 41  1  0
 44 45  1  0
 45 48  1  0
 45 47  1  0
 46 44  2  0
 49 24  1  0
 49 50  1  0
 51 49  1  0
 52 53  1  0
 54 65  2  0
 55 53  1  0
 55 60  1  0
 56 64  1  0
 56 66  1  0
 57 59  1  0
 58 64  1  0
 59 60  2  0
 59 58  1  0
 61 55  2  0
 62 61  1  0
 62 57  2  0
 63 57  1  0
 63 56  1  0
 64 54  1  0
 66 68  2  0
 67 66  1  0
 69 67  1  0
 70 75  1  0
 71 67  1  0
 72 71  1  0
 73 74  1  0
 73 72  1  0
 74 70  1  0
 75 71  1  0
 75 76  2  0
 77 76  1  0
 78 77  2  0
 79 70  2  0
 79 78  1  0
 80 54  1  0
 80 81  1  0
 80 90  1  0
 81 84  1  0
 82 86  1  0
 82 81  1  0
 83 82  2  0
 86 85  1  0
 88 89  1  0
 88 86  1  0
 88 87  1  0
 90 93  1  1
 90 91  1  0
 92 90  1  0
M  ISO  4  14 100  22 100  52 101  53 101
M  END
>  <TORSDO>  (68) 
F 23

>  <SCORE>  (68) 
-10.068

>  <name>  (68) 
68

>  <ligand_id>  (68) 
68

>  <original_smiles>  (68) 
[H]c1c([H])c([H])c2c(c1[H])C([H])([H])C([H])([H])C([H])([H])C2([H])N([H])C(=O)C1([H])N(C(=O)C([H])(N([H])C(=O)C([H])(N([H])C([H])([H])[H])C([H])([H])[H])C(C([H])([H])[H])(C([H])([H])[H])C([H])([H])[H])C([H])([H])c2c([H])c(OC([H])([H])c3c([H])c(C([H])([H])C([H])([H])[H])c([H])c(C([H])([H])C([H])([H])C([H])([H])C([H])([H])C([H])([H])N([H])C(=O)N4C([H])([H])C([H])([H])C([H])([H])C([H])(n5nc(-c6c([H])c([H])c(Oc7c([H])c([H])c(F)c([H])c7F)c([H])c6[H])c(C(=O)N([H])[H])c5N([H])[H])C4([H])[H])c3[H])c([H])c([H])c2C1([H])[H]

>  <smiles>  (68) 
[H]c1c([H])c([H])c2c(c1[H])C([H])([H])C([H])([H])C([H])([H])C2([H])N([H])C(=O)C1([H])N(C(=O)C([H])(N([H])C(=O)C([H])(N([H])C([H])([H])[H])C([H])([H])[H])C(C([H])([H])[H])(C([H])([H])[H])C([H])([H])[H])C([H])([H])c2c([H])c(OC([H])([H])c3c([H])c(C([H])([H])C([H])([H])[H])c([H])c(C([H])([H])C([H])([H])C([H])([H])C([H])([H])C([H])([H])N([H])C(=O)N4C([H])([H])C([H])([H])C([H])([H])C([H])(n5nc(-c6c([H])c([H])c(Oc7c([H])c([H])c(F)c([H])c7F)c([H])c6[H])c(C(=O)N([H])[H])c5N([H])[H])C4([H])[H])c3[H])c([H])c([H])c2C1([H])[H]

$$$$
69:0:0
     RDKit          3D

104112  0  0  1  0  0  0  0  0999 V2000
  -31.3780  -21.7980   19.6510 C   0  0  0  0  0  2  0  0  0  0  0  0
  -27.7030  -23.9550   19.2670 C   0  0  0  0  0  3  0  0  0  0  0  0
  -29.8800  -23.7440   20.2930 C   0  0  0  0  0  3  0  0  0  0  0  0
  -28.6730  -24.4540   20.1500 C   0  0  0  0  0  0  0  0  0  0  0  0
  -27.9730  -22.7720   18.5620 C   0  0  0  0  0  0  0  0  0  0  0  0
  -30.0670  -22.5650   19.5490 C   0  0  0  0  0  0  0  0  0  0  0  0
  -29.1310  -22.0860   18.7000 N   0  0  0  0  0  0  0  0  0  0  0  0
  -26.9370  -22.2120   17.6050 C   0  0  0  0  0  2  0  0  0  0  0  0
  -25.0000  -20.5800   17.2870 C   0  0  0  0  0  1  0  0  0  0  0  0
  -26.0990  -21.0870   18.2300 C   0  0  0  0  0  2  0  0  0  0  0  0
  -28.4300  -25.7520   20.8920 C   0  0  0  0  0  2  0  0  0  0  0  0
  -28.3600  -26.8450   19.9820 O   0  0  0  0  0  0  0  0  0  0  0  0
  -24.6790  -31.8830   23.3800 C   0  0  0  0  0  0  0  0  0  0  0  0
  -27.2050  -27.5750   20.0630 C   0  0  0  0  0  0  0  0  0  0  0  0
  -23.4340  -30.6150   21.6550 C   0  0  0  0  0  3  0  0  0  0  0  0
  -24.8470  -29.1110   20.1540 C   0  0  0  0  0  0  0  0  0  0  0  0
  -25.9660  -30.9140   21.4830 C   0  0  0  0  0  2  0  0  0  0  0  0
  -26.0130  -29.5770   20.7770 C   0  0  0  0  0  0  0  0  0  0  0  0
  -27.1960  -28.8120   20.7360 C   0  0  0  0  0  3  0  0  0  0  0  0
  -26.0310  -27.1070   19.4400 C   0  0  0  0  0  3  0  0  0  0  0  0
  -24.8470  -27.8710   19.4870 C   0  0  0  0  0  3  0  0  0  0  0  0
  -23.6280  -30.0010   20.2410 C   0  0  0  0  0  2  0  0  0  0  0  0
  -24.7100  -31.1470   22.2320 N   0  0  0  0  0  0  0  0  0  0  0  0
  -23.6050  -32.1580   23.9320 O   0  0  0  0  0  0  0  0  0  0  0  0
  -22.7470  -29.5630   22.5550 C   0  0  0  0  0  0  0  0  0  0  0  0
  -21.4170  -29.4420   22.4240 N   0  0  0  0  0  0  0  0  0  0  0  0
  -23.4080  -28.8610   23.3250 O   0  0  0  0  0  0  0  0  0  0  0  0
  -20.9480  -30.0630   21.7780 H   0  0  0  0  0  0  0  0  0  0  0  0
  -17.9950  -28.3770   22.8750 C   0  0  0  0  0  0  0  0  0  0  0  0
  -20.5640  -28.4940   23.1370 C   0  0  0  0  0  3  0  0  0  0  0  0
  -20.5930  -27.1020   22.4630 C   0  0  0  0  0  2  0  0  0  0  0  0
  -19.4690  -26.9040   21.4410 C   0  0  0  0  0  2  0  0  0  0  0  0
  -18.1010  -27.0710   22.1080 C   0  0  0  0  0  2  0  0  0  0  0  0
  -19.1520  -29.0540   23.3450 C   0  0  0  0  0  0  0  0  0  0  0  0
  -19.0000  -30.2840   24.0200 C   0  0  0  0  0  3  0  0  0  0  0  0
  -17.7220  -30.8360   24.2320 C   0  0  0  0  0  3  0  0  0  0  0  0
  -16.5790  -30.1550   23.7780 C   0  0  0  0  0  3  0  0  0  0  0  0
  -16.7160  -28.9260   23.1070 C   0  0  0  0  0  3  0  0  0  0  0  0
  -25.9840  -32.4320   24.0380 C   0  0  0  0  0  3  0  0  0  0  0  0
  -25.7450  -33.8370   24.3900 N   0  0  0  0  0  0  0  0  0  0  0  0
  -26.1390  -34.8830   23.6510 C   0  0  0  0  0  0  0  0  0  0  0  0
  -26.8160  -34.7620   22.6250 O   0  0  0  0  0  0  0  0  0  0  0  0
  -25.1520  -34.0090   25.1880 H   0  0  0  0  0  0  0  0  0  0  0  0
  -24.5040  -36.7600   23.3080 C   0  0  0  0  0  1  0  0  0  0  0  0
  -25.7160  -36.2850   24.1240 C   0  0  0  0  0  3  0  0  0  0  0  0
  -27.8890  -37.0470   24.9780 C   0  0  0  0  0  1  0  0  0  0  0  0
  -26.8010  -37.2880   24.0340 N   0  0  0  0  0  0  0  0  0  0  0  0
  -26.4390  -38.2240   24.1990 H   0  0  0  0  0  0  0  0  0  0  0  0
  -26.4380  -31.6070   25.3030 C   0  0  1  0  0  0  0  0  0  0  0  0
  -25.3150  -31.4060   26.3480 C   0  0  0  0  0  1  0  0  0  0  0  0
  -26.9510  -30.2090   24.8870 C   0  0  0  0  0  1  0  0  0  0  0  0
  -27.6190  -32.3210   26.0010 C   0  0  0  0  0  1  0  0  0  0  0  0
  -32.3010  -21.9890   18.4300 C   0  0  0  0  0  2  0  0  0  0  0  0
  -31.8740  -21.1690   17.2030 C   0  0  0  0  0  2  0  0  0  0  0  0
  -32.6660  -21.5000   15.9240 C   0  0  0  0  0  2  0  0  0  0  0  0
  -32.2750  -20.5880   14.7480 C   0  0  0  0  0  2  0  0  0  0  0  0
  -30.8200  -20.6470   14.4890 N   0  0  0  0  0  4  0  0  0  0  0  0
  -30.6090  -21.3980   13.8480 H   0  0  0  0  0  0  0  0  0  0  0  0
  -30.3790  -20.8620   15.3670 H   0  0  0  0  0  0  0  0  0  0  0  0
  -30.2040  -19.3910   14.0150 C   0  0  0  0  0  2  0  0  0  0  0  0
  -28.8340  -19.1620   14.6840 C   0  0  0  0  0  2  0  0  0  0  0  0
  -28.8640  -19.1570   16.2310 C   0  0  0  0  0  2  0  0  0  0  0  0
  -29.7200  -18.0480   16.8640 C   0  0  0  0  0  2  0  0  0  0  0  0
  -29.8630  -18.1910   18.3890 C   0  0  0  0  0  2  0  0  0  0  0  0
  -30.4710  -16.9220   18.9930 C   0  0  0  0  0  2  0  0  0  0  0  0
  -30.7250  -16.9630   20.5150 C   0  0  0  0  0  2  0  0  0  0  0  0
  -31.3630  -14.5680   20.7010 C   0  0  0  0  0  0  0  0  0  0  0  0
  -31.0640  -12.3530   19.6840 C   0  0  0  0  0  2  0  0  0  0  0  0
  -30.2060  -12.5220   18.4110 C   0  0  0  0  0  2  0  0  0  0  0  0
  -28.7020  -12.4680   18.7500 C   0  0  0  0  0  2  0  0  0  0  0  0
  -28.3260  -13.4060   19.9250 C   0  0  0  0  0  3  0  0  0  0  0  0
  -29.2900  -13.2010   21.1170 C   0  0  0  0  0  2  0  0  0  0  0  0
  -30.6710  -13.4040   20.6340 N   0  0  0  0  0  0  0  0  0  0  0  0
  -32.5070  -14.7140   20.2580 O   0  0  0  0  0  0  0  0  0  0  0  0
  -30.6170  -15.6160   21.0720 N   0  0  0  0  0  0  0  0  0  0  0  0
  -29.7230  -15.3820   21.4780 H   0  0  0  0  0  0  0  0  0  0  0  0
  -25.9420  -14.2030   20.4880 C   0  0  0  0  0  0  0  0  0  0  0  0
  -24.7970  -13.5150   20.7870 C   0  0  0  0  0  0  0  0  0  0  0  0
  -25.1580  -12.1320   20.7820 C   0  0  0  0  0  0  0  0  0  0  0  0
  -26.9280  -13.2440   20.3170 N   0  0  0  0  0  0  0  0  0  0  0  0
  -26.4560  -11.9930   20.5460 N   0  0  0  0  0  0  0  0  0  0  0  0
  -24.3320  -10.9270   20.9310 C   0  0  0  0  0  0  0  0  0  0  0  0
  -24.6770   -9.9070   21.8430 C   0  0  0  0  0  3  0  0  0  0  0  0
  -23.8630   -8.7610   21.9760 C   0  0  0  0  0  3  0  0  0  0  0  0
  -22.6890   -8.6300   21.1970 C   0  0  0  0  0  0  0  0  0  0  0  0
  -22.3610   -9.6410   20.2760 C   0  0  0  0  0  3  0  0  0  0  0  0
  -23.1760  -10.7780   20.1400 C   0  0  0  0  0  3  0  0  0  0  0  0
  -21.8490   -7.5440   21.2440 O   0  0  0  0  0  0  0  0  0  0  0  0
  -21.7490   -6.7610   22.3650 C   0  0  0  0  0  0  0  0  0  0  0  0
  -21.3980   -7.3020   23.6230 C   0  0  0  0  0  3  0  0  0  0  0  0
  -21.2350   -6.4510   24.7330 C   0  0  0  0  0  3  0  0  0  0  0  0
  -21.4120   -5.0610   24.5900 C   0  0  0  0  0  0  0  0  0  0  0  0
  -21.7580   -4.5210   23.3380 C   0  0  0  0  0  3  0  0  0  0  0  0
  -21.9230   -5.3690   22.2300 C   0  0  0  0  0  0  0  0  0  0  0  0
  -22.2350   -4.8420   21.0200 F   0  0  0  0  0  0  0  0  0  0  0  0
  -21.2480   -4.2430   25.6560 F   0  0  0  0  0  0  0  0  0  0  0  0
  -23.4250  -14.0940   20.9760 C   0  0  0  0  0  0  0  0  0  0  0  0
  -22.6020  -13.4700   21.8100 N   0  0  0  0  0  0  0  0  0  0  0  0
  -23.0900  -15.1400   20.4200 O   0  0  0  0  0  0  0  0  0  0  0  0
  -22.8810  -12.6250   22.2870 H   0  0  0  0  0  0  0  0  0  0  0  0
  -21.6790  -13.8460   21.9790 H   0  0  0  0  0  0  0  0  0  0  0  0
  -26.2200  -15.5580   20.3290 N   0  0  0  0  0  0  0  0  0  0  0  0
  -25.5070  -16.2740   20.4090 H   0  0  0  0  0  0  0  0  0  0  0  0
  -27.1260  -15.9320   20.0790 H   0  0  0  0  0  0  0  0  0  0  0  0
  2  4  1  0
  4  3  2  0
  4 11  1  0
  5  7  1  0
  5  2  2  0
  6  1  1  0
  6  3  1  0
  7  6  2  0
  8 10  1  0
  8  5  1  0
  9 10  1  0
 12 14  1  0
 12 11  1  0
 13 24  2  0
 14 19  1  0
 15 23  1  0
 15 25  1  0
 16 22  1  0
 16 18  1  0
 17 23  1  0
 18 17  1  0
 19 18  2  0
 20 21  1  0
 20 14  2  0
 21 16  2  0
 22 15  1  0
 23 13  1  0
 25 27  2  0
 26 25  1  0
 28 26  1  0
 29 38  2  0
 29 34  1  0
 30 26  1  0
 30 34  1  0
 31 30  1  0
 32 33  1  0
 32 31  1  0
 33 29  1  0
 34 35  2  0
 35 36  1  0
 37 36  2  0
 38 37  1  0
 39 13  1  0
 39 40  1  0
 39 49  1  0
 40 43  1  0
 41 45  1  0
 41 40  1  0
 42 41  2  0
 45 44  1  0
 47 45  1  0
 47 48  1  0
 47 46  1  0
 49 52  1  1
 49 50  1  0
 51 49  1  0
 53  1  1  0
 54 53  1  0
 55 54  1  0
 56 55  1  0
 57 56  1  0
 57 59  1  0
 58 57  1  0
 60 57  1  0
 60 61  1  0
 61 62  1  0
 62 63  1  0
 63 64  1  0
 64 65  1  0
 65 66  1  0
 66 75  1  0
 67 75  1  0
 68 73  1  0
 69 70  1  0
 69 68  1  0
 71 70  1  0
 71 80  1  0
 71 72  1  0
 73 67  1  0
 73 72  1  0
 74 67  2  0
 75 76  1  0
 77 78  2  0
 78 97  1  0
 79 78  1  0
 79 82  1  0
 80 77  1  0
 80 81  1  0
 81 79  2  0
 82 83  1  0
 83 84  2  0
 85 88  1  0
 85 84  1  0
 86 85  2  0
 87 86  1  0
 87 82  2  0
 88 89  1  0
 89 90  1  0
 90 91  2  0
 92 91  1  0
 92 96  1  0
 93 92  2  0
 94 89  2  0
 94 93  1  0
 95 94  1  0
 97 98  1  0
 98101  1  0
 98100  1  0
 99 97  2  0
102103  1  0
102 77  1  0
104102  1  0
M  ISO  4  11 101  12 101  67 100  75 100
M  END
>  <TORSDO>  (69) 
F 32

>  <SCORE>  (69) 
-9.722

>  <name>  (69) 
69

>  <ligand_id>  (69) 
69

>  <original_smiles>  (69) 
[H]c1c([H])c([H])c2c(c1[H])C([H])([H])C([H])([H])C([H])([H])C2([H])N([H])C(=O)C1([H])N(C(=O)C([H])(N([H])C(=O)C([H])(N([H])C([H])([H])[H])C([H])([H])[H])C(C([H])([H])[H])(C([H])([H])[H])C([H])([H])[H])C([H])([H])c2c([H])c(OC([H])([H])c3c([H])c(C([H])([H])C([H])([H])C([H])([H])[H])nc(C([H])([H])C([H])([H])C([H])([H])C([H])([H])C([H])([H])[N+]([H])([H])C([H])([H])C([H])([H])C([H])([H])C([H])([H])C([H])([H])C([H])([H])C([H])([H])N([H])C(=O)N4C([H])([H])C([H])([H])C([H])([H])C([H])(n5nc(-c6c([H])c([H])c(Oc7c([H])c([H])c(F)c([H])c7F)c([H])c6[H])c(C(=O)N([H])[H])c5N([H])[H])C4([H])[H])c3[H])c([H])c([H])c2C1([H])[H]

>  <smiles>  (69) 
[H]c1c([H])c([H])c2c(c1[H])C([H])([H])C([H])([H])C([H])([H])C2([H])N([H])C(=O)C1([H])N(C(=O)C([H])(N([H])C(=O)C([H])(N([H])C([H])([H])[H])C([H])([H])[H])C(C([H])([H])[H])(C([H])([H])[H])C([H])([H])[H])C([H])([H])c2c([H])c(OC([H])([H])c3c([H])c(C([H])([H])C([H])([H])C([H])([H])[H])nc(C([H])([H])C([H])([H])C([H])([H])C([H])([H])C([H])([H])[N+]([H])([H])C([H])([H])C([H])([H])C([H])([H])C([H])([H])C([H])([H])C([H])([H])C([H])([H])N([H])C(=O)N4C([H])([H])C([H])([H])C([H])([H])C([H])(n5nc(-c6c([H])c([H])c(Oc7c([H])c([H])c(F)c([H])c7F)c([H])c6[H])c(C(=O)N([H])[H])c5N([H])[H])C4([H])[H])c3[H])c([H])c([H])c2C1([H])[H]

$$$$
70:0:0
     RDKit          3D

 90 98  0  0  1  0  0  0  0  0999 V2000
  -30.9460  -19.4380   19.9600 C   0  0  0  0  0  3  0  0  0  0  0  0
  -30.0680  -18.4250   20.4010 C   0  0  0  0  0  0  0  0  0  0  0  0
  -28.7470  -18.8870   20.5750 C   0  0  0  0  0  0  0  0  0  0  0  0
  -29.2750  -21.0390   19.8640 C   0  0  0  0  0  0  0  0  0  0  0  0
  -30.5550  -20.7150   19.6920 N   0  0  0  0  0  0  0  0  0  0  0  0
  -28.3650  -20.1660   20.3030 N   0  0  0  0  0  0  0  0  0  0  0  0
  -27.8130  -18.0340   21.0560 F   0  0  0  0  0  0  0  0  0  0  0  0
  -30.6030  -17.0220   20.8810 C   0  0  0  0  0  2  0  0  0  0  0  0
  -30.6460  -14.6010   20.0370 C   0  0  0  0  0  0  0  0  0  0  0  0
  -30.3060  -12.3970   18.9450 C   0  0  0  0  0  2  0  0  0  0  0  0
  -29.2910  -12.5260   17.7900 C   0  0  0  0  0  2  0  0  0  0  0  0
  -27.8570  -12.3500   18.3200 C   0  0  0  0  0  2  0  0  0  0  0  0
  -27.5690  -13.2320   19.5650 C   0  0  0  0  0  3  0  0  0  0  0  0
  -28.6920  -13.0960   20.6180 C   0  0  0  0  0  2  0  0  0  0  0  0
  -29.9640  -13.4200   19.9550 N   0  0  0  0  0  0  0  0  0  0  0  0
  -31.7820  -14.7160   19.5680 O   0  0  0  0  0  0  0  0  0  0  0  0
  -29.9840  -15.6980   20.5200 N   0  0  0  0  0  0  0  0  0  0  0  0
  -29.0440  -15.5230   20.8410 H   0  0  0  0  0  0  0  0  0  0  0  0
  -25.2290  -13.8310   20.4500 C   0  0  0  0  0  0  0  0  0  0  0  0
  -24.1820  -13.0550   20.8670 C   0  0  0  0  0  0  0  0  0  0  0  0
  -24.6320  -11.7020   20.7770 C   0  0  0  0  0  0  0  0  0  0  0  0
  -26.2510  -12.9500   20.1310 N   0  0  0  0  0  0  0  0  0  0  0  0
  -25.9000  -11.6630   20.3880 N   0  0  0  0  0  0  0  0  0  0  0  0
  -23.9100  -10.4390   20.9820 C   0  0  0  0  0  0  0  0  0  0  0  0
  -24.3640   -9.4690   21.9040 C   0  0  0  0  0  3  0  0  0  0  0  0
  -23.6430   -8.2700   22.0950 C   0  0  0  0  0  3  0  0  0  0  0  0
  -22.4540   -8.0340   21.3620 C   0  0  0  0  0  0  0  0  0  0  0  0
  -22.0200   -8.9910   20.4280 C   0  0  0  0  0  3  0  0  0  0  0  0
  -22.7420  -10.1810   20.2360 C   0  0  0  0  0  3  0  0  0  0  0  0
  -21.7020   -6.8880   21.4630 O   0  0  0  0  0  0  0  0  0  0  0  0
  -21.6500   -6.1610   22.6260 C   0  0  0  0  0  0  0  0  0  0  0  0
  -21.2000   -6.7270   23.8390 C   0  0  0  0  0  3  0  0  0  0  0  0
  -21.0970   -5.9260   24.9940 C   0  0  0  0  0  3  0  0  0  0  0  0
  -21.4340   -4.5600   24.9370 C   0  0  0  0  0  0  0  0  0  0  0  0
  -21.8790   -3.9950   23.7280 C   0  0  0  0  0  3  0  0  0  0  0  0
  -21.9820   -4.7940   22.5770 C   0  0  0  0  0  0  0  0  0  0  0  0
  -22.3910   -4.2370   21.4100 F   0  0  0  0  0  0  0  0  0  0  0  0
  -21.3270   -3.7890   26.0440 F   0  0  0  0  0  0  0  0  0  0  0  0
  -22.8060  -13.5350   21.2330 C   0  0  0  0  0  0  0  0  0  0  0  0
  -22.1260  -12.8270   22.1270 N   0  0  0  0  0  0  0  0  0  0  0  0
  -22.3460  -14.5740   20.7620 O   0  0  0  0  0  0  0  0  0  0  0  0
  -22.5110  -11.9890   22.5370 H   0  0  0  0  0  0  0  0  0  0  0  0
  -21.2090  -13.1370   22.4180 H   0  0  0  0  0  0  0  0  0  0  0  0
  -25.3930  -15.2020   20.2950 N   0  0  0  0  0  0  0  0  0  0  0  0
  -24.6370  -15.8550   20.4760 H   0  0  0  0  0  0  0  0  0  0  0  0
  -26.2170  -15.6450   19.9080 H   0  0  0  0  0  0  0  0  0  0  0  0
  -28.7730  -22.4170   19.3080 C   0  0  0  0  0  2  0  0  0  0  0  0
  -29.0200  -23.8050   20.0450 C   0  0  0  0  0  2  0  0  0  0  0  0
  -28.1350  -24.9850   19.4520 C   0  0  0  0  0  2  0  0  0  0  0  0
  -28.3310  -26.4150   19.7940 O   0  0  0  0  0  0  0  0  0  0  0  0
  -24.5320  -31.6490   22.9880 C   0  0  0  0  0  0  0  0  0  0  0  0
  -27.2060  -27.2590   19.7480 C   0  0  0  0  0  0  0  0  0  0  0  0
  -23.3410  -30.2800   21.3160 C   0  0  0  0  0  3  0  0  0  0  0  0
  -24.8080  -28.8220   19.8180 C   0  0  0  0  0  0  0  0  0  0  0  0
  -25.8720  -30.6630   21.1180 C   0  0  0  0  0  2  0  0  0  0  0  0
  -25.9720  -29.3090   20.4230 C   0  0  0  0  0  0  0  0  0  0  0  0
  -27.1720  -28.5380   20.3870 C   0  0  0  0  0  3  0  0  0  0  0  0
  -26.0200  -26.8430   19.0930 C   0  0  0  0  0  3  0  0  0  0  0  0
  -24.8340  -27.5950   19.1440 C   0  0  0  0  0  3  0  0  0  0  0  0
  -23.5520  -29.6620   19.9110 C   0  0  0  0  0  2  0  0  0  0  0  0
  -24.6010  -30.8800   21.8640 N   0  0  0  0  0  0  0  0  0  0  0  0
  -23.4490  -31.8830   23.5430 O   0  0  0  0  0  0  0  0  0  0  0  0
  -22.7160  -29.2120   22.2470 C   0  0  0  0  0  0  0  0  0  0  0  0
  -21.3890  -29.0260   22.1490 N   0  0  0  0  0  0  0  0  0  0  0  0
  -23.4230  -28.5590   23.0180 O   0  0  0  0  0  0  0  0  0  0  0  0
  -20.8760  -29.6070   21.5010 H   0  0  0  0  0  0  0  0  0  0  0  0
  -18.0330  -27.8000   22.7150 C   0  0  0  0  0  0  0  0  0  0  0  0
  -20.5990  -28.0490   22.9020 C   0  0  0  0  0  3  0  0  0  0  0  0
  -20.6780  -26.6480   22.2540 C   0  0  0  0  0  2  0  0  0  0  0  0
  -19.5380  -26.3740   21.2670 C   0  0  0  0  0  2  0  0  0  0  0  0
  -18.1820  -26.4850   21.9680 C   0  0  0  0  0  2  0  0  0  0  0  0
  -19.1660  -28.5420   23.1400 C   0  0  0  0  0  0  0  0  0  0  0  0
  -18.9680  -29.7750   23.7990 C   0  0  0  0  0  3  0  0  0  0  0  0
  -17.6690  -30.2650   24.0360 C   0  0  0  0  0  3  0  0  0  0  0  0
  -16.5510  -29.5180   23.6250 C   0  0  0  0  0  3  0  0  0  0  0  0
  -16.7330  -28.2880   22.9700 C   0  0  0  0  0  3  0  0  0  0  0  0
  -25.8080  -32.2910   23.6140 C   0  0  0  0  0  3  0  0  0  0  0  0
  -26.3740  -31.4760   24.8400 C   0  0  1  0  0  0  0  0  0  0  0  0
  -25.3140  -31.1620   25.9220 C   0  0  0  0  0  1  0  0  0  0  0  0
  -26.9810  -30.1320   24.3740 C   0  0  0  0  0  1  0  0  0  0  0  0
  -27.5190  -32.2700   25.5110 C   0  0  0  0  0  1  0  0  0  0  0  0
  -25.4610  -33.6610   24.0180 N   0  0  0  0  0  0  0  0  0  0  0  0
  -25.7580  -34.7610   23.3130 C   0  0  0  0  0  0  0  0  0  0  0  0
  -26.4230  -34.7300   22.2750 O   0  0  0  0  0  0  0  0  0  0  0  0
  -24.8650  -33.7570   24.8290 H   0  0  0  0  0  0  0  0  0  0  0  0
  -23.9780  -36.5200   23.0660 C   0  0  0  0  0  1  0  0  0  0  0  0
  -25.2370  -36.1090   23.8460 C   0  0  0  0  0  3  0  0  0  0  0  0
  -27.3520  -37.0130   24.7080 C   0  0  0  0  0  1  0  0  0  0  0  0
  -26.2390  -37.1960   23.7800 N   0  0  0  0  0  0  0  0  0  0  0  0
  -25.8070  -38.0940   23.9760 H   0  0  0  0  0  0  0  0  0  0  0  0
  1  2  2  0
  2  3  1  0
  2  8  1  0
  3  7  1  0
  4  6  1  0
  5  4  2  0
  5  1  1  0
  6  3  2  0
  9 17  1  0
 10 15  1  0
 11 12  1  0
 11 10  1  0
 13 12  1  0
 13 22  1  0
 13 14  1  0
 15  9  1  0
 15 14  1  0
 16  9  2  0
 17 18  1  0
 17  8  1  0
 19 20  2  0
 20 39  1  0
 21 20  1  0
 21 24  1  0
 22 23  1  0
 22 19  1  0
 23 21  2  0
 24 25  1  0
 25 26  2  0
 27 30  1  0
 27 26  1  0
 28 27  2  0
 29 28  1  0
 29 24  2  0
 30 31  1  0
 31 32  1  0
 32 33  2  0
 34 33  1  0
 34 38  1  0
 35 34  2  0
 36 31  2  0
 36 35  1  0
 37 36  1  0
 39 40  1  0
 40 43  1  0
 40 42  1  0
 41 39  2  0
 44 19  1  0
 44 45  1  0
 46 44  1  0
 47  4  1  0
 47 48  1  0
 49 50  1  0
 49 48  1  0
 51 62  2  0
 52 50  1  0
 52 57  1  0
 53 61  1  0
 53 63  1  0
 54 60  1  0
 54 56  1  0
 55 61  1  0
 56 55  1  0
 57 56  2  0
 58 59  1  0
 58 52  2  0
 59 54  2  0
 60 53  1  0
 61 51  1  0
 63 65  2  0
 64 63  1  0
 66 64  1  0
 67 76  2  0
 67 72  1  0
 68 64  1  0
 68 72  1  0
 69 68  1  0
 70 71  1  0
 70 69  1  0
 71 67  1  0
 72 73  2  0
 73 74  1  0
 75 74  2  0
 76 75  1  0
 77 51  1  0
 77 82  1  0
 77 78  1  0
 78 81  1  1
 78 79  1  0
 80 78  1  0
 82 85  1  0
 83 87  1  0
 83 82  1  0
 84 83  2  0
 87 86  1  0
 89 87  1  0
 89 90  1  0
 89 88  1  0
M  ISO  4   9 100  17 100  49 101  50 101
M  END
>  <TORSDO>  (70) 
F 20

>  <SCORE>  (70) 
-13.269

>  <name>  (70) 
70

>  <ligand_id>  (70) 
70

>  <original_smiles>  (70) 
[H]c1nc(C([H])([H])C([H])([H])C([H])([H])Oc2c([H])c([H])c3c(c2[H])C([H])([H])N(C(=O)C([H])(N([H])C(=O)C([H])(N([H])C([H])([H])[H])C([H])([H])[H])C(C([H])([H])[H])(C([H])([H])[H])C([H])([H])[H])C([H])(C(=O)N([H])C2([H])c4c([H])c([H])c([H])c([H])c4C([H])([H])C([H])([H])C2([H])[H])C3([H])[H])nc(F)c1C([H])([H])N([H])C(=O)N1C([H])([H])C([H])([H])C([H])([H])C([H])(n2nc(-c3c([H])c([H])c(Oc4c([H])c([H])c(F)c([H])c4F)c([H])c3[H])c(C(=O)N([H])[H])c2N([H])[H])C1([H])[H]

>  <smiles>  (70) 
[H]c1nc(C([H])([H])C([H])([H])C([H])([H])Oc2c([H])c([H])c3c(c2[H])C([H])([H])N(C(=O)C([H])(N([H])C(=O)C([H])(N([H])C([H])([H])[H])C([H])([H])[H])C(C([H])([H])[H])(C([H])([H])[H])C([H])([H])[H])C([H])(C(=O)N([H])C2([H])c4c([H])c([H])c([H])c([H])c4C([H])([H])C([H])([H])C2([H])[H])C3([H])[H])nc(F)c1C([H])([H])N([H])C(=O)N1C([H])([H])C([H])([H])C([H])([H])C([H])(n2nc(-c3c([H])c([H])c(Oc4c([H])c([H])c(F)c([H])c4F)c([H])c3[H])c(C(=O)N([H])[H])c2N([H])[H])C1([H])[H]

$$$$
71:0:0
     RDKit          3D

 93101  0  0  1  0  0  0  0  0999 V2000
  -29.7490  -23.7620   21.9600 C   0  0  0  0  0  3  0  0  0  0  0  0
  -30.7080  -22.4800   19.6630 C   0  0  0  0  0  3  0  0  0  0  0  0
  -29.5740  -22.3650   21.8150 C   0  0  0  0  0  0  0  0  0  0  0  0
  -30.3770  -24.5300   20.9550 C   0  0  0  0  0  0  0  0  0  0  0  0
  -30.0510  -21.7120   20.6490 C   0  0  0  0  0  0  0  0  0  0  0  0
  -30.8720  -23.8720   19.8040 C   0  0  0  0  0  0  0  0  0  0  0  0
  -28.8700  -21.6000   22.9240 C   0  0  0  0  0  1  0  0  0  0  0  0
  -31.6840  -24.7300   18.5410 Cl  0  0  0  0  0  0  0  0  0  0  0  0
  -30.5630  -26.0340   21.1700 C   0  0  0  0  0  2  0  0  0  0  0  0
  -29.2660  -26.8590   21.2950 C   0  0  0  0  0  2  0  0  0  0  0  0
  -28.4320  -26.7690   20.1340 O   0  0  0  0  0  0  0  0  0  0  0  0
  -24.5610  -31.9010   23.2250 C   0  0  0  0  0  0  0  0  0  0  0  0
  -27.2740  -27.5210   20.1580 C   0  0  0  0  0  0  0  0  0  0  0  0
  -23.3650  -30.4890   21.5760 C   0  0  0  0  0  3  0  0  0  0  0  0
  -24.8370  -28.9670   20.1500 C   0  0  0  0  0  0  0  0  0  0  0  0
  -25.8770  -30.8890   21.3730 C   0  0  0  0  0  2  0  0  0  0  0  0
  -25.9800  -29.5190   20.7420 C   0  0  0  0  0  0  0  0  0  0  0  0
  -27.1920  -28.8050   20.7470 C   0  0  0  0  0  3  0  0  0  0  0  0
  -26.1180  -26.9860   19.5480 C   0  0  0  0  0  3  0  0  0  0  0  0
  -24.9000  -27.6980   19.5470 C   0  0  0  0  0  3  0  0  0  0  0  0
  -23.5800  -29.8050   20.1970 C   0  0  0  0  0  2  0  0  0  0  0  0
  -24.6190  -31.1070   22.1180 N   0  0  0  0  0  0  0  0  0  0  0  0
  -23.4780  -32.1610   23.7670 O   0  0  0  0  0  0  0  0  0  0  0  0
  -22.7270  -29.4630   22.5380 C   0  0  0  0  0  0  0  0  0  0  0  0
  -21.4030  -29.2720   22.4100 N   0  0  0  0  0  0  0  0  0  0  0  0
  -23.4150  -28.8390   23.3490 O   0  0  0  0  0  0  0  0  0  0  0  0
  -20.9110  -29.8250   21.7220 H   0  0  0  0  0  0  0  0  0  0  0  0
  -18.0350  -28.0740   22.9160 C   0  0  0  0  0  0  0  0  0  0  0  0
  -20.5940  -28.3280   23.1790 C   0  0  0  0  0  3  0  0  0  0  0  0
  -20.6950  -26.9040   22.5890 C   0  0  0  0  0  2  0  0  0  0  0  0
  -19.5870  -26.5890   21.5780 C   0  0  0  0  0  2  0  0  0  0  0  0
  -18.2080  -26.7290   22.2290 C   0  0  0  0  0  2  0  0  0  0  0  0
  -19.1550  -28.8310   23.3480 C   0  0  0  0  0  0  0  0  0  0  0  0
  -18.9400  -30.0910   23.9490 C   0  0  0  0  0  3  0  0  0  0  0  0
  -17.6360  -30.5910   24.1250 C   0  0  0  0  0  3  0  0  0  0  0  0
  -16.5300  -29.8300   23.7100 C   0  0  0  0  0  3  0  0  0  0  0  0
  -16.7300  -28.5720   23.1110 C   0  0  0  0  0  3  0  0  0  0  0  0
  -25.8430  -32.5390   23.8460 C   0  0  0  0  0  3  0  0  0  0  0  0
  -25.5310  -33.9380   24.1640 N   0  0  0  0  0  0  0  0  0  0  0  0
  -25.8850  -34.9860   23.4090 C   0  0  0  0  0  0  0  0  0  0  0  0
  -26.5780  -34.8760   22.3930 O   0  0  0  0  0  0  0  0  0  0  0  0
  -24.9200  -34.0960   24.9520 H   0  0  0  0  0  0  0  0  0  0  0  0
  -24.1820  -36.7870   22.9890 C   0  0  0  0  0  1  0  0  0  0  0  0
  -25.3870  -36.3770   23.8470 C   0  0  0  0  0  3  0  0  0  0  0  0
  -27.4930  -37.2490   24.7620 C   0  0  0  0  0  1  0  0  0  0  0  0
  -26.4310  -37.4220   23.7740 N   0  0  0  0  0  0  0  0  0  0  0  0
  -26.0250  -38.3460   23.9050 H   0  0  0  0  0  0  0  0  0  0  0  0
  -26.3610  -31.7750   25.1270 C   0  0  1  0  0  0  0  0  0  0  0  0
  -25.2680  -31.5350   26.1930 C   0  0  0  0  0  1  0  0  0  0  0  0
  -26.9530  -30.4010   24.7380 C   0  0  0  0  0  1  0  0  0  0  0  0
  -27.5050  -32.5800   25.7890 C   0  0  0  0  0  1  0  0  0  0  0  0
  -29.8080  -20.2290   20.3690 C   0  0  0  0  0  2  0  0  0  0  0  0
  -30.7460  -19.2340   21.0870 C   0  0  0  0  0  2  0  0  0  0  0  0
  -30.4150  -17.7790   20.6840 C   0  0  0  0  0  2  0  0  0  0  0  0
  -31.1330  -16.6900   21.5080 C   0  0  0  0  0  2  0  0  0  0  0  0
  -31.0660  -14.5140   20.2590 C   0  0  0  0  0  0  0  0  0  0  0  0
  -30.6680  -12.4130   19.0250 C   0  0  0  0  0  2  0  0  0  0  0  0
  -29.7100  -12.6460   17.8420 C   0  0  0  0  0  2  0  0  0  0  0  0
  -28.2450  -12.5080   18.2960 C   0  0  0  0  0  2  0  0  0  0  0  0
  -27.9360  -13.3540   19.5600 C   0  0  0  0  0  3  0  0  0  0  0  0
  -29.0000  -13.1090   20.6540 C   0  0  0  0  0  2  0  0  0  0  0  0
  -30.3360  -13.3780   20.0840 N   0  0  0  0  0  0  0  0  0  0  0  0
  -32.0810  -14.7740   19.6090 O   0  0  0  0  0  0  0  0  0  0  0  0
  -30.6060  -15.3530   21.1960 N   0  0  0  0  0  0  0  0  0  0  0  0
  -29.8040  -15.0350   21.7210 H   0  0  0  0  0  0  0  0  0  0  0  0
  -25.5450  -14.0010   20.2730 C   0  0  0  0  0  0  0  0  0  0  0  0
  -24.4740  -13.2420   20.6640 C   0  0  0  0  0  0  0  0  0  0  0  0
  -24.9200  -11.8850   20.6420 C   0  0  0  0  0  0  0  0  0  0  0  0
  -26.5810  -13.1050   20.0480 N   0  0  0  0  0  0  0  0  0  0  0  0
  -26.2070  -11.8290   20.3230 N   0  0  0  0  0  0  0  0  0  0  0  0
  -24.1810  -10.6340   20.8540 C   0  0  0  0  0  0  0  0  0  0  0  0
  -24.5870   -9.6950   21.8280 C   0  0  0  0  0  3  0  0  0  0  0  0
  -23.8520   -8.5070   22.0290 C   0  0  0  0  0  3  0  0  0  0  0  0
  -22.6960   -8.2490   21.2550 C   0  0  0  0  0  0  0  0  0  0  0  0
  -22.3080   -9.1760   20.2710 C   0  0  0  0  0  3  0  0  0  0  0  0
  -23.0440  -10.3550   20.0690 C   0  0  0  0  0  3  0  0  0  0  0  0
  -21.9360   -7.1090   21.3620 O   0  0  0  0  0  0  0  0  0  0  0  0
  -21.8180   -6.4320   22.5470 C   0  0  0  0  0  0  0  0  0  0  0  0
  -21.3020   -7.0470   23.7100 C   0  0  0  0  0  3  0  0  0  0  0  0
  -21.1300   -6.2930   24.8870 C   0  0  0  0  0  3  0  0  0  0  0  0
  -21.4640   -4.9260   24.9060 C   0  0  0  0  0  0  0  0  0  0  0  0
  -21.9700   -4.3120   23.7470 C   0  0  0  0  0  3  0  0  0  0  0  0
  -22.1440   -5.0610   22.5710 C   0  0  0  0  0  0  0  0  0  0  0  0
  -22.6110   -4.4580   21.4530 F   0  0  0  0  0  0  0  0  0  0  0  0
  -21.2930   -4.1980   26.0360 F   0  0  0  0  0  0  0  0  0  0  0  0
  -23.0840  -13.7340   20.9510 C   0  0  0  0  0  0  0  0  0  0  0  0
  -22.3680  -13.0590   21.8440 N   0  0  0  0  0  0  0  0  0  0  0  0
  -22.6430  -14.7510   20.4190 O   0  0  0  0  0  0  0  0  0  0  0  0
  -22.7360  -12.2330   22.2910 H   0  0  0  0  0  0  0  0  0  0  0  0
  -21.4370  -13.3760   22.0800 H   0  0  0  0  0  0  0  0  0  0  0  0
  -25.7190  -15.3650   20.0740 N   0  0  0  0  0  0  0  0  0  0  0  0
  -24.9570  -16.0270   20.1860 H   0  0  0  0  0  0  0  0  0  0  0  0
  -26.5740  -15.8000   19.7470 H   0  0  0  0  0  0  0  0  0  0  0  0
  2  6  2  0
  2  5  1  0
  3  1  1  0
  3  7  1  0
  4  9  1  0
  4  1  2  0
  5  3  2  0
  6  4  1  0
  8  6  1  0
  9 10  1  0
 11 13  1  0
 11 10  1  0
 12 23  2  0
 13 18  1  0
 14 22  1  0
 14 24  1  0
 15 21  1  0
 15 17  1  0
 16 22  1  0
 17 18  2  0
 17 16  1  0
 19 13  2  0
 20 19  1  0
 20 15  2  0
 21 14  1  0
 22 12  1  0
 24 26  2  0
 25 24  1  0
 27 25  1  0
 28 37  2  0
 28 33  1  0
 29 25  1  0
 29 33  1  0
 30 29  1  0
 31 32  1  0
 31 30  1  0
 32 28  1  0
 33 34  2  0
 34 35  1  0
 36 35  2  0
 37 36  1  0
 38 12  1  0
 38 39  1  0
 38 48  1  0
 39 42  1  0
 40 44  1  0
 40 39  1  0
 41 40  2  0
 44 43  1  0
 46 44  1  0
 46 47  1  0
 46 45  1  0
 48 51  1  1
 48 49  1  0
 50 48  1  0
 52  5  1  0
 52 53  1  0
 54 53  1  0
 54 55  1  0
 56 64  1  0
 57 62  1  0
 58 59  1  0
 58 57  1  0
 60 59  1  0
 60 69  1  0
 60 61  1  0
 62 56  1  0
 62 61  1  0
 63 56  2  0
 64 55  1  0
 64 65  1  0
 66 67  2  0
 67 86  1  0
 68 67  1  0
 68 71  1  0
 69 66  1  0
 69 70  1  0
 70 68  2  0
 71 72  1  0
 72 73  2  0
 74 77  1  0
 74 73  1  0
 75 74  2  0
 76 75  1  0
 76 71  2  0
 77 78  1  0
 78 83  2  0
 78 79  1  0
 79 80  2  0
 80 81  1  0
 81 85  1  0
 82 81  2  0
 83 82  1  0
 84 83  1  0
 86 87  1  0
 87 90  1  0
 87 89  1  0
 88 86  2  0
 91 92  1  0
 91 66  1  0
 93 91  1  0
M  ISO  4  10 101  11 101  56 100  64 100
M  END
>  <TORSDO>  (71) 
F 22

>  <SCORE>  (71) 
-12.671

>  <name>  (71) 
71

>  <ligand_id>  (71) 
71

>  <original_smiles>  (71) 
[H]c1c([H])c([H])c2c(c1[H])C([H])([H])C([H])([H])C([H])([H])C2([H])N([H])C(=O)C1([H])N(C(=O)C([H])(N([H])C(=O)C([H])(N([H])C([H])([H])[H])C([H])([H])[H])C(C([H])([H])[H])(C([H])([H])[H])C([H])([H])[H])C([H])([H])c2c([H])c(OC([H])([H])C([H])([H])c3c([H])c(C([H])([H])[H])c(C([H])([H])C([H])([H])C([H])([H])C([H])([H])N([H])C(=O)N4C([H])([H])C([H])([H])C([H])([H])C([H])(n5nc(-c6c([H])c([H])c(Oc7c([H])c([H])c(F)c([H])c7F)c([H])c6[H])c(C(=O)N([H])[H])c5N([H])[H])C4([H])[H])c([H])c3Cl)c([H])c([H])c2C1([H])[H]

>  <smiles>  (71) 
[H]c1c([H])c([H])c2c(c1[H])C([H])([H])C([H])([H])C([H])([H])C2([H])N([H])C(=O)C1([H])N(C(=O)C([H])(N([H])C(=O)C([H])(N([H])C([H])([H])[H])C([H])([H])[H])C(C([H])([H])[H])(C([H])([H])[H])C([H])([H])[H])C([H])([H])c2c([H])c(OC([H])([H])C([H])([H])c3c([H])c(C([H])([H])[H])c(C([H])([H])C([H])([H])C([H])([H])C([H])([H])N([H])C(=O)N4C([H])([H])C([H])([H])C([H])([H])C([H])(n5nc(-c6c([H])c([H])c(Oc7c([H])c([H])c(F)c([H])c7F)c([H])c6[H])c(C(=O)N([H])[H])c5N([H])[H])C4([H])[H])c([H])c3Cl)c([H])c([H])c2C1([H])[H]

$$$$
72:0:0
     RDKit          3D

 91 99  0  0  1  0  0  0  0  0999 V2000
  -28.4950  -24.7180   21.4820 C   0  0  0  0  0  3  0  0  0  0  0  0
  -28.5390  -23.5420   22.2520 C   0  0  0  0  0  3  0  0  0  0  0  0
  -28.8240  -23.3850   19.4720 C   0  0  0  0  0  3  0  0  0  0  0  0
  -28.6300  -24.6560   20.0810 C   0  0  0  0  0  0  0  0  0  0  0  0
  -28.7140  -22.2790   21.6450 C   0  0  0  0  0  0  0  0  0  0  0  0
  -28.8680  -22.1850   20.2370 C   0  0  0  0  0  0  0  0  0  0  0  0
  -28.6920  -21.0440   22.5340 C   0  0  0  0  0  1  0  0  0  0  0  0
  -28.9640  -20.8110   19.5370 C   0  0  0  0  0  2  0  0  0  0  0  0
  -30.2150  -19.9330   19.8400 C   0  0  0  0  0  2  0  0  0  0  0  0
  -29.9330  -18.4010   19.7650 C   0  0  0  0  0  2  0  0  0  0  0  0
  -31.1210  -17.4800   20.1680 C   0  0  0  0  0  2  0  0  0  0  0  0
  -31.4540  -14.9770   19.9850 C   0  0  0  0  0  0  0  0  0  0  0  0
  -31.1480  -12.6790   19.1400 C   0  0  0  0  0  2  0  0  0  0  0  0
  -30.1980  -12.7220   17.9250 C   0  0  0  0  0  2  0  0  0  0  0  0
  -28.7240  -12.6610   18.3760 C   0  0  0  0  0  2  0  0  0  0  0  0
  -28.4020  -13.6660   19.5140 C   0  0  0  0  0  3  0  0  0  0  0  0
  -29.4600  -13.5790   20.6370 C   0  0  0  0  0  2  0  0  0  0  0  0
  -30.7820  -13.7940   20.0280 N   0  0  0  0  0  0  0  0  0  0  0  0
  -32.5910  -15.0840   19.5190 O   0  0  0  0  0  0  0  0  0  0  0  0
  -30.7290  -16.0650   20.3220 N   0  0  0  0  0  0  0  0  0  0  0  0
  -29.8010  -15.8820   20.6760 H   0  0  0  0  0  0  0  0  0  0  0  0
  -26.0860  -14.4290   20.3350 C   0  0  0  0  0  0  0  0  0  0  0  0
  -24.9690  -13.7270   20.7030 C   0  0  0  0  0  0  0  0  0  0  0  0
  -25.3170  -12.3460   20.5920 C   0  0  0  0  0  0  0  0  0  0  0  0
  -27.0480  -13.4780   20.0270 N   0  0  0  0  0  0  0  0  0  0  0  0
  -26.5900  -12.2180   20.2390 N   0  0  0  0  0  0  0  0  0  0  0  0
  -24.4970  -11.1390   20.7470 C   0  0  0  0  0  0  0  0  0  0  0  0
  -24.8490  -10.1150   21.6540 C   0  0  0  0  0  3  0  0  0  0  0  0
  -24.0340   -8.9730   21.7980 C   0  0  0  0  0  3  0  0  0  0  0  0
  -22.8490   -8.8460   21.0340 C   0  0  0  0  0  0  0  0  0  0  0  0
  -22.5140   -9.8570   20.1150 C   0  0  0  0  0  3  0  0  0  0  0  0
  -23.3300  -10.9900   19.9690 C   0  0  0  0  0  3  0  0  0  0  0  0
  -22.0090   -7.7610   21.0890 O   0  0  0  0  0  0  0  0  0  0  0  0
  -21.8480   -7.0330   22.2410 C   0  0  0  0  0  0  0  0  0  0  0  0
  -21.3890   -7.6250   23.4390 C   0  0  0  0  0  3  0  0  0  0  0  0
  -21.1700   -6.8280   24.5790 C   0  0  0  0  0  3  0  0  0  0  0  0
  -21.4000   -5.4390   24.5230 C   0  0  0  0  0  0  0  0  0  0  0  0
  -21.8510   -4.8480   23.3310 C   0  0  0  0  0  3  0  0  0  0  0  0
  -22.0710   -5.6420   22.1920 C   0  0  0  0  0  0  0  0  0  0  0  0
  -22.4850   -5.0640   21.0390 F   0  0  0  0  0  0  0  0  0  0  0  0
  -21.1820   -4.6710   25.6170 F   0  0  0  0  0  0  0  0  0  0  0  0
  -23.6250  -14.3010   21.0450 C   0  0  0  0  0  0  0  0  0  0  0  0
  -22.8760  -13.6320   21.9150 N   0  0  0  0  0  0  0  0  0  0  0  0
  -23.2510  -15.3770   20.5780 O   0  0  0  0  0  0  0  0  0  0  0  0
  -23.1890  -12.7600   22.3140 H   0  0  0  0  0  0  0  0  0  0  0  0
  -21.9750  -14.0000   22.1870 H   0  0  0  0  0  0  0  0  0  0  0  0
  -26.3570  -15.7890   20.2140 N   0  0  0  0  0  0  0  0  0  0  0  0
  -25.6480  -16.4960   20.3760 H   0  0  0  0  0  0  0  0  0  0  0  0
  -27.2280  -16.1730   19.8700 H   0  0  0  0  0  0  0  0  0  0  0  0
  -28.6100  -25.9430   19.2390 C   0  0  0  0  0  2  0  0  0  0  0  0
  -28.4610  -27.1820   19.9680 O   0  0  0  0  0  0  0  0  0  0  0  0
  -24.6510  -32.1060   23.4400 C   0  0  0  0  0  0  0  0  0  0  0  0
  -27.2500  -27.8560   20.0360 C   0  0  0  0  0  0  0  0  0  0  0  0
  -23.4120  -30.7840   21.7570 C   0  0  0  0  0  3  0  0  0  0  0  0
  -24.8360  -29.3420   20.2080 C   0  0  0  0  0  0  0  0  0  0  0  0
  -25.9270  -31.1770   21.5090 C   0  0  0  0  0  2  0  0  0  0  0  0
  -26.0060  -29.8440   20.7890 C   0  0  0  0  0  0  0  0  0  0  0  0
  -27.2120  -29.1080   20.6990 C   0  0  0  0  0  3  0  0  0  0  0  0
  -26.0530  -27.3650   19.4660 C   0  0  0  0  0  3  0  0  0  0  0  0
  -24.8560  -28.1020   19.5460 C   0  0  0  0  0  3  0  0  0  0  0  0
  -23.5860  -30.1840   20.3370 C   0  0  0  0  0  2  0  0  0  0  0  0
  -24.6830  -31.3690   22.2940 N   0  0  0  0  0  0  0  0  0  0  0  0
  -23.5820  -32.3350   24.0260 O   0  0  0  0  0  0  0  0  0  0  0  0
  -22.7990  -29.7030   22.6780 C   0  0  0  0  0  0  0  0  0  0  0  0
  -21.4860  -29.4650   22.5320 N   0  0  0  0  0  0  0  0  0  0  0  0
  -23.5030  -29.0830   23.4800 O   0  0  0  0  0  0  0  0  0  0  0  0
  -20.9760  -30.0190   21.8570 H   0  0  0  0  0  0  0  0  0  0  0  0
  -18.1860  -28.0370   22.8870 C   0  0  0  0  0  0  0  0  0  0  0  0
  -20.7060  -28.4670   23.2630 C   0  0  0  0  0  3  0  0  0  0  0  0
  -20.9310  -27.0530   22.6800 C   0  0  0  0  0  2  0  0  0  0  0  0
  -19.8930  -26.6660   21.6190 C   0  0  0  0  0  2  0  0  0  0  0  0
  -18.4810  -26.7100   22.2090 C   0  0  0  0  0  2  0  0  0  0  0  0
  -19.2310  -28.8690   23.3680 C   0  0  0  0  0  0  0  0  0  0  0  0
  -18.9040  -30.1090   23.9580 C   0  0  0  0  0  3  0  0  0  0  0  0
  -17.5620  -30.5180   24.0760 C   0  0  0  0  0  3  0  0  0  0  0  0
  -16.5300  -29.6840   23.6130 C   0  0  0  0  0  3  0  0  0  0  0  0
  -16.8420  -28.4450   23.0240 C   0  0  0  0  0  3  0  0  0  0  0  0
  -25.9480  -32.7160   24.0570 C   0  0  0  0  0  3  0  0  0  0  0  0
  -25.6730  -34.1290   24.3570 N   0  0  0  0  0  0  0  0  0  0  0  0
  -26.0380  -35.1560   23.5790 C   0  0  0  0  0  0  0  0  0  0  0  0
  -26.7130  -35.0150   22.5560 O   0  0  0  0  0  0  0  0  0  0  0  0
  -25.0810  -34.3150   25.1530 H   0  0  0  0  0  0  0  0  0  0  0  0
  -24.3560  -36.9820   23.1750 C   0  0  0  0  0  1  0  0  0  0  0  0
  -25.5830  -36.5660   24.0040 C   0  0  0  0  0  3  0  0  0  0  0  0
  -27.7310  -37.4180   24.8330 C   0  0  0  0  0  1  0  0  0  0  0  0
  -26.6420  -37.5900   23.8750 N   0  0  0  0  0  0  0  0  0  0  0  0
  -26.2580  -38.5230   23.9960 H   0  0  0  0  0  0  0  0  0  0  0  0
  -26.4390  -31.9570   25.3510 C   0  0  1  0  0  0  0  0  0  0  0  0
  -25.3290  -31.7490   26.4080 C   0  0  0  0  0  1  0  0  0  0  0  0
  -27.0090  -30.5670   24.9850 C   0  0  0  0  0  1  0  0  0  0  0  0
  -27.5920  -32.7460   26.0160 C   0  0  0  0  0  1  0  0  0  0  0  0
  1  2  1  0
  3  4  1  0
  3  6  2  0
  4  1  2  0
  5  2  2  0
  5  7  1  0
  6  5  1  0
  8  9  1  0
  8  6  1  0
 10  9  1  0
 10 11  1  0
 11 20  1  0
 12 18  1  0
 12 20  1  0
 13 18  1  0
 14 15  1  0
 14 13  1  0
 16 15  1  0
 16 25  1  0
 16 17  1  0
 18 17  1  0
 19 12  2  0
 20 21  1  0
 22 23  2  0
 23 42  1  0
 24 23  1  0
 24 27  1  0
 25 26  1  0
 25 22  1  0
 26 24  2  0
 27 28  1  0
 28 29  2  0
 30 33  1  0
 30 29  1  0
 31 30  2  0
 32 31  1  0
 32 27  2  0
 33 34  1  0
 34 35  1  0
 35 36  2  0
 37 36  1  0
 37 41  1  0
 38 37  2  0
 39 34  2  0
 39 38  1  0
 40 39  1  0
 42 43  1  0
 43 46  1  0
 43 45  1  0
 44 42  2  0
 47 22  1  0
 47 48  1  0
 49 47  1  0
 50 51  1  0
 50  4  1  0
 51 53  1  0
 52 63  2  0
 53 58  1  0
 54 62  1  0
 54 64  1  0
 55 61  1  0
 55 57  1  0
 56 62  1  0
 57 56  1  0
 58 57  2  0
 59 60  1  0
 59 53  2  0
 60 55  2  0
 61 54  1  0
 62 52  1  0
 64 66  2  0
 65 64  1  0
 67 65  1  0
 68 77  2  0
 68 73  1  0
 69 65  1  0
 69 73  1  0
 70 69  1  0
 71 72  1  0
 71 70  1  0
 72 68  1  0
 73 74  2  0
 74 75  1  0
 76 75  2  0
 77 76  1  0
 78 52  1  0
 78 79  1  0
 78 88  1  0
 79 82  1  0
 80 84  1  0
 80 79  1  0
 81 80  2  0
 84 83  1  0
 86 87  1  0
 86 84  1  0
 86 85  1  0
 88 91  1  1
 88 89  1  0
 90 88  1  0
M  ISO  4  12 100  20 100  50 101  51 101
M  END
>  <TORSDO>  (72) 
F 21

>  <SCORE>  (72) 
-11.072

>  <name>  (72) 
72

>  <ligand_id>  (72) 
72

>  <original_smiles>  (72) 
[H]c1c([H])c([H])c2c(c1[H])C([H])([H])C([H])([H])C([H])([H])C2([H])N([H])C(=O)C1([H])N(C(=O)C([H])(N([H])C(=O)C([H])(N([H])C([H])([H])[H])C([H])([H])[H])C(C([H])([H])[H])(C([H])([H])[H])C([H])([H])[H])C([H])([H])c2c([H])c(OC([H])([H])c3c([H])c([H])c(C([H])([H])[H])c(C([H])([H])C([H])([H])C([H])([H])C([H])([H])N([H])C(=O)N4C([H])([H])C([H])([H])C([H])([H])C([H])(n5nc(-c6c([H])c([H])c(Oc7c([H])c([H])c(F)c([H])c7F)c([H])c6[H])c(C(=O)N([H])[H])c5N([H])[H])C4([H])[H])c3[H])c([H])c([H])c2C1([H])[H]

>  <smiles>  (72) 
[H]c1c([H])c([H])c2c(c1[H])C([H])([H])C([H])([H])C([H])([H])C2([H])N([H])C(=O)C1([H])N(C(=O)C([H])(N([H])C(=O)C([H])(N([H])C([H])([H])[H])C([H])([H])[H])C(C([H])([H])[H])(C([H])([H])[H])C([H])([H])[H])C([H])([H])c2c([H])c(OC([H])([H])c3c([H])c([H])c(C([H])([H])[H])c(C([H])([H])C([H])([H])C([H])([H])C([H])([H])N([H])C(=O)N4C([H])([H])C([H])([H])C([H])([H])C([H])(n5nc(-c6c([H])c([H])c(Oc7c([H])c([H])c(F)c([H])c7F)c([H])c6[H])c(C(=O)N([H])[H])c5N([H])[H])C4([H])[H])c3[H])c([H])c([H])c2C1([H])[H]

$$$$
73:0:0
     RDKit          3D

 93101  0  0  1  0  0  0  0  0999 V2000
  -29.8220  -22.0740   20.1750 N   0  0  0  0  0  4  0  0  0  0  0  0
  -29.8500  -22.1880   21.1760 H   0  0  0  0  0  0  0  0  0  0  0  0
  -28.9670  -21.6000   19.9420 H   0  0  0  0  0  0  0  0  0  0  0  0
  -30.9550  -21.2100   19.7720 C   0  0  0  0  0  2  0  0  0  0  0  0
  -29.9280  -18.9380   19.3410 C   0  0  0  0  0  3  0  0  0  0  0  0
  -31.1020  -17.8270   21.6290 C   0  0  0  0  0  3  0  0  0  0  0  0
  -29.6820  -17.5860   19.6580 C   0  0  0  0  0  0  0  0  0  0  0  0
  -30.7380  -19.7500   20.1630 C   0  0  0  0  0  0  0  0  0  0  0  0
  -30.2650  -17.0220   20.8260 C   0  0  0  0  0  0  0  0  0  0  0  0
  -31.3340  -19.1810   21.3130 C   0  0  0  0  0  0  0  0  0  0  0  0
  -28.7660  -16.7920   18.7390 C   0  0  0  0  0  1  0  0  0  0  0  0
  -32.3390  -20.1140   22.3650 Cl  0  0  0  0  0  0  0  0  0  0  0  0
  -29.9360  -15.6040   21.3090 C   0  0  0  0  0  2  0  0  0  0  0  0
  -30.6630  -14.4660   20.5540 C   0  0  0  0  0  0  0  0  0  0  0  0
  -30.3970  -12.3470   19.3100 C   0  0  0  0  0  2  0  0  0  0  0  0
  -29.4600  -12.5910   18.1080 C   0  0  0  0  0  2  0  0  0  0  0  0
  -27.9770  -12.4650   18.5180 C   0  0  0  0  0  2  0  0  0  0  0  0
  -27.6420  -13.2670   19.8040 C   0  0  0  0  0  3  0  0  0  0  0  0
  -28.6800  -12.9660   20.9080 C   0  0  0  0  0  2  0  0  0  0  0  0
  -30.0110  -13.2870   20.3700 N   0  0  0  0  0  0  0  0  0  0  0  0
  -31.7770  -14.6830   20.0620 O   0  0  0  0  0  0  0  0  0  0  0  0
  -25.2290  -13.9040   20.4490 C   0  0  0  0  0  0  0  0  0  0  0  0
  -24.1500  -13.1410   20.8060 C   0  0  0  0  0  0  0  0  0  0  0  0
  -24.6060  -11.7880   20.8070 C   0  0  0  0  0  0  0  0  0  0  0  0
  -26.2770  -13.0130   20.2570 N   0  0  0  0  0  0  0  0  0  0  0  0
  -25.9030  -11.7380   20.5260 N   0  0  0  0  0  0  0  0  0  0  0  0
  -23.8750  -10.5310   21.0020 C   0  0  0  0  0  0  0  0  0  0  0  0
  -24.2930   -9.5740   21.9530 C   0  0  0  0  0  3  0  0  0  0  0  0
  -23.5620   -8.3790   22.1350 C   0  0  0  0  0  3  0  0  0  0  0  0
  -22.4010   -8.1350   21.3640 C   0  0  0  0  0  0  0  0  0  0  0  0
  -22.0020   -9.0810   20.4030 C   0  0  0  0  0  3  0  0  0  0  0  0
  -22.7330  -10.2660   20.2200 C   0  0  0  0  0  3  0  0  0  0  0  0
  -21.6440   -6.9920   21.4550 O   0  0  0  0  0  0  0  0  0  0  0  0
  -21.5850   -6.2580   22.6120 C   0  0  0  0  0  0  0  0  0  0  0  0
  -21.1520   -6.8240   23.8320 C   0  0  0  0  0  3  0  0  0  0  0  0
  -21.0400   -6.0160   24.9810 C   0  0  0  0  0  3  0  0  0  0  0  0
  -21.3490   -4.6440   24.9120 C   0  0  0  0  0  0  0  0  0  0  0  0
  -21.7750   -4.0790   23.6970 C   0  0  0  0  0  3  0  0  0  0  0  0
  -21.8880   -4.8830   22.5500 C   0  0  0  0  0  0  0  0  0  0  0  0
  -22.2780   -4.3290   21.3770 F   0  0  0  0  0  0  0  0  0  0  0  0
  -21.2330   -3.8670   26.0140 F   0  0  0  0  0  0  0  0  0  0  0  0
  -22.7490  -13.6260   21.0450 C   0  0  0  0  0  0  0  0  0  0  0  0
  -22.0030  -12.9430   21.9070 N   0  0  0  0  0  0  0  0  0  0  0  0
  -22.3230  -14.6460   20.5040 O   0  0  0  0  0  0  0  0  0  0  0  0
  -22.3600  -12.1170   22.3660 H   0  0  0  0  0  0  0  0  0  0  0  0
  -21.0630  -13.2500   22.1110 H   0  0  0  0  0  0  0  0  0  0  0  0
  -25.4030  -15.2700   20.2520 N   0  0  0  0  0  0  0  0  0  0  0  0
  -24.6370  -15.9300   20.3340 H   0  0  0  0  0  0  0  0  0  0  0  0
  -26.2680  -15.7020   19.9550 H   0  0  0  0  0  0  0  0  0  0  0  0
  -29.8190  -23.4030   19.5190 C   0  0  0  0  0  2  0  0  0  0  0  0
  -28.8070  -24.3970   20.1370 C   0  0  0  0  0  2  0  0  0  0  0  0
  -28.7350  -25.7200   19.3430 C   0  0  0  0  0  2  0  0  0  0  0  0
  -28.4450  -26.8280   20.1930 O   0  0  0  0  0  0  0  0  0  0  0  0
  -24.5660  -31.8980   23.2500 C   0  0  0  0  0  0  0  0  0  0  0  0
  -27.2270  -27.4730   20.1610 C   0  0  0  0  0  0  0  0  0  0  0  0
  -23.3580  -30.4910   21.6080 C   0  0  0  0  0  3  0  0  0  0  0  0
  -24.8130  -28.9500   20.1840 C   0  0  0  0  0  0  0  0  0  0  0  0
  -25.8790  -30.8590   21.4040 C   0  0  0  0  0  2  0  0  0  0  0  0
  -25.9650  -29.4860   20.7690 C   0  0  0  0  0  0  0  0  0  0  0  0
  -27.1670  -28.7490   20.7630 C   0  0  0  0  0  3  0  0  0  0  0  0
  -26.0510  -26.9350   19.5880 C   0  0  0  0  0  3  0  0  0  0  0  0
  -24.8500  -27.6720   19.5950 C   0  0  0  0  0  3  0  0  0  0  0  0
  -23.5660  -29.8030   20.2300 C   0  0  0  0  0  2  0  0  0  0  0  0
  -24.6190  -31.0990   22.1460 N   0  0  0  0  0  0  0  0  0  0  0  0
  -23.4860  -32.1690   23.7920 O   0  0  0  0  0  0  0  0  0  0  0  0
  -22.7110  -29.4720   22.5730 C   0  0  0  0  0  0  0  0  0  0  0  0
  -21.3880  -29.2840   22.4400 N   0  0  0  0  0  0  0  0  0  0  0  0
  -23.3950  -28.8520   23.3890 O   0  0  0  0  0  0  0  0  0  0  0  0
  -20.9000  -29.8420   21.7530 H   0  0  0  0  0  0  0  0  0  0  0  0
  -18.0160  -28.0730   22.9150 C   0  0  0  0  0  0  0  0  0  0  0  0
  -20.5700  -28.3460   23.2070 C   0  0  0  0  0  3  0  0  0  0  0  0
  -20.6870  -26.9130   22.6390 C   0  0  0  0  0  2  0  0  0  0  0  0
  -19.5930  -26.5810   21.6160 C   0  0  0  0  0  2  0  0  0  0  0  0
  -18.2050  -26.7190   22.2490 C   0  0  0  0  0  2  0  0  0  0  0  0
  -19.1280  -28.8430   23.3490 C   0  0  0  0  0  0  0  0  0  0  0  0
  -18.8980  -30.1090   23.9320 C   0  0  0  0  0  3  0  0  0  0  0  0
  -17.5910  -30.6050   24.0820 C   0  0  0  0  0  3  0  0  0  0  0  0
  -16.4930  -29.8320   23.6650 C   0  0  0  0  0  3  0  0  0  0  0  0
  -16.7070  -28.5670   23.0880 C   0  0  0  0  0  3  0  0  0  0  0  0
  -25.8560  -32.5280   23.8680 C   0  0  0  0  0  3  0  0  0  0  0  0
  -25.5530  -33.9260   24.1900 N   0  0  0  0  0  0  0  0  0  0  0  0
  -25.8950  -34.9730   23.4280 C   0  0  0  0  0  0  0  0  0  0  0  0
  -26.5700  -34.8630   22.4010 O   0  0  0  0  0  0  0  0  0  0  0  0
  -24.9590  -34.0880   24.9910 H   0  0  0  0  0  0  0  0  0  0  0  0
  -24.1810  -36.7740   23.0450 C   0  0  0  0  0  1  0  0  0  0  0  0
  -25.4090  -36.3660   23.8750 C   0  0  0  0  0  3  0  0  0  0  0  0
  -27.5400  -37.2430   24.7250 C   0  0  0  0  0  1  0  0  0  0  0  0
  -26.4500  -37.4150   23.7710 N   0  0  0  0  0  0  0  0  0  0  0  0
  -26.0470  -38.3370   23.9140 H   0  0  0  0  0  0  0  0  0  0  0  0
  -26.3720  -31.7600   25.1470 C   0  0  1  0  0  0  0  0  0  0  0  0
  -25.2780  -31.5330   26.2160 C   0  0  0  0  0  1  0  0  0  0  0  0
  -26.9500  -30.3810   24.7560 C   0  0  0  0  0  1  0  0  0  0  0  0
  -27.5250  -32.5540   25.8050 C   0  0  0  0  0  1  0  0  0  0  0  0
  1  2  1  0
  3  1  1  0
  4  8  1  0
  4  1  1  0
  5  7  2  0
  5  8  1  0
  7  9  1  0
  8 10  2  0
  9 13  1  0
  9  6  2  0
 10  6  1  0
 10 12  1  0
 11  7  1  0
 14 13  1  0
 15 20  1  0
 16 17  1  0
 16 15  1  0
 18 17  1  0
 18 25  1  0
 18 19  1  0
 20 14  1  0
 20 19  1  0
 21 14  2  0
 22 23  2  0
 23 24  1  0
 23 42  1  0
 24 27  1  0
 25 22  1  0
 25 26  1  0
 26 24  2  0
 27 28  1  0
 28 29  2  0
 30 33  1  0
 30 29  1  0
 31 30  2  0
 32 31  1  0
 32 27  2  0
 33 34  1  0
 34 35  1  0
 35 36  2  0
 37 36  1  0
 37 41  1  0
 38 37  2  0
 39 34  2  0
 39 38  1  0
 40 39  1  0
 42 43  1  0
 43 46  1  0
 43 45  1  0
 44 42  2  0
 47 48  1  0
 47 22  1  0
 49 47  1  0
 50 51  1  0
 50  1  1  0
 52 51  1  0
 52 53  1  0
 54 65  2  0
 55 53  1  0
 55 60  1  0
 56 64  1  0
 56 66  1  0
 57 63  1  0
 57 59  1  0
 58 64  1  0
 59 58  1  0
 60 59  2  0
 61 62  1  0
 61 55  2  0
 62 57  2  0
 63 56  1  0
 64 54  1  0
 66 68  2  0
 67 66  1  0
 69 67  1  0
 70 79  2  0
 70 75  1  0
 71 67  1  0
 71 75  1  0
 72 71  1  0
 73 74  1  0
 73 72  1  0
 74 70  1  0
 75 76  2  0
 76 77  1  0
 78 77  2  0
 79 78  1  0
 80 54  1  0
 80 81  1  0
 80 90  1  0
 81 84  1  0
 82 86  1  0
 82 81  1  0
 83 82  2  0
 86 85  1  0
 88 86  1  0
 88 89  1  0
 88 87  1  0
 90 93  1  1
 90 91  1  0
 92 90  1  0
M  ISO  4  13 100  14 100  52 101  53 101
M  END
>  <TORSDO>  (73) 
F 22

>  <SCORE>  (73) 
-13.315

>  <name>  (73) 
73

>  <ligand_id>  (73) 
73

>  <original_smiles>  (73) 
[H]c1c([H])c([H])c2c(c1[H])C([H])([H])C([H])([H])C([H])([H])C2([H])N([H])C(=O)C1([H])N(C(=O)C([H])(N([H])C(=O)C([H])(N([H])C([H])([H])[H])C([H])([H])[H])C(C([H])([H])[H])(C([H])([H])[H])C([H])([H])[H])C([H])([H])c2c([H])c(OC([H])([H])C([H])([H])C([H])([H])[N+]([H])([H])C([H])([H])c3c([H])c(C([H])([H])[H])c(C([H])([H])C(=O)N4C([H])([H])C([H])([H])C([H])([H])C([H])(n5nc(-c6c([H])c([H])c(Oc7c([H])c([H])c(F)c([H])c7F)c([H])c6[H])c(C(=O)N([H])[H])c5N([H])[H])C4([H])[H])c([H])c3Cl)c([H])c([H])c2C1([H])[H]

>  <smiles>  (73) 
[H]c1c([H])c([H])c2c(c1[H])C([H])([H])C([H])([H])C([H])([H])C2([H])N([H])C(=O)C1([H])N(C(=O)C([H])(N([H])C(=O)C([H])(N([H])C([H])([H])[H])C([H])([H])[H])C(C([H])([H])[H])(C([H])([H])[H])C([H])([H])[H])C([H])([H])c2c([H])c(OC([H])([H])C([H])([H])C([H])([H])[N+]([H])([H])C([H])([H])c3c([H])c(C([H])([H])[H])c(C([H])([H])C(=O)N4C([H])([H])C([H])([H])C([H])([H])C([H])(n5nc(-c6c([H])c([H])c(Oc7c([H])c([H])c(F)c([H])c7F)c([H])c6[H])c(C(=O)N([H])[H])c5N([H])[H])C4([H])[H])c([H])c3Cl)c([H])c([H])c2C1([H])[H]

$$$$
74:0:0
     RDKit          3D

 97105  0  0  1  0  0  0  0  0999 V2000
  -27.0360  -25.7280   23.8090 C   0  0  0  0  0  3  0  0  0  0  0  0
  -28.0120  -25.8870   22.8080 C   0  0  0  0  0  0  0  0  0  0  0  0
  -27.7680  -25.3530   21.5140 C   0  0  0  0  0  0  0  0  0  0  0  0
  -25.8600  -25.0320   23.5010 C   0  0  0  0  0  0  0  0  0  0  0  0
  -26.5660  -24.6160   21.3230 C   0  0  0  0  0  0  0  0  0  0  0  0
  -29.2830  -26.6460   23.1450 C   0  0  0  0  0  1  0  0  0  0  0  0
  -24.7640  -24.8250   24.5190 C   0  0  0  0  0  1  0  0  0  0  0  0
  -25.6390  -24.4840   22.2960 N   0  0  0  0  0  0  0  0  0  0  0  0
  -26.1560  -23.9170   20.0280 C   0  0  0  0  0  2  0  0  0  0  0  0
  -26.0960  -22.3840   20.1930 C   0  0  0  0  0  2  0  0  0  0  0  0
  -25.5340  -21.6380   18.9670 C   0  0  0  0  0  2  0  0  0  0  0  0
  -26.5150  -21.4380   17.7930 C   0  0  0  0  0  2  0  0  0  0  0  0
  -27.8850  -20.8390   18.1730 C   0  0  0  0  0  2  0  0  0  0  0  0
  -27.8050  -19.5230   18.9660 C   0  0  0  0  0  2  0  0  0  0  0  0
  -29.1520  -19.1430   19.5920 C   0  0  0  0  0  2  0  0  0  0  0  0
  -29.0770  -17.8300   20.3750 C   0  0  0  0  0  2  0  0  0  0  0  0
  -30.4180  -17.4480   21.0300 C   0  0  0  0  0  2  0  0  0  0  0  0
  -31.0990  -15.0910   20.7780 C   0  0  0  0  0  0  0  0  0  0  0  0
  -30.8790  -12.9420   19.6120 C   0  0  0  0  0  2  0  0  0  0  0  0
  -30.0100  -13.1670   18.3560 C   0  0  0  0  0  2  0  0  0  0  0  0
  -28.5130  -13.0140   18.6870 C   0  0  0  0  0  2  0  0  0  0  0  0
  -28.0960  -13.8470   19.9270 C   0  0  0  0  0  3  0  0  0  0  0  0
  -29.0810  -13.6190   21.0990 C   0  0  0  0  0  2  0  0  0  0  0  0
  -30.4500  -13.9090   20.6290 N   0  0  0  0  0  0  0  0  0  0  0  0
  -32.1960  -15.3420   20.2700 O   0  0  0  0  0  0  0  0  0  0  0  0
  -30.3760  -16.0370   21.3860 N   0  0  0  0  0  0  0  0  0  0  0  0
  -29.5390  -15.7160   21.8490 H   0  0  0  0  0  0  0  0  0  0  0  0
  -25.6700  -14.4500   20.5400 C   0  0  0  0  0  0  0  0  0  0  0  0
  -24.5790  -13.6750   20.8150 C   0  0  0  0  0  0  0  0  0  0  0  0
  -25.0270  -12.3180   20.7370 C   0  0  0  0  0  0  0  0  0  0  0  0
  -26.7170  -13.5690   20.3170 N   0  0  0  0  0  0  0  0  0  0  0  0
  -26.3310  -12.2790   20.4910 N   0  0  0  0  0  0  0  0  0  0  0  0
  -24.2850  -11.0540   20.8270 C   0  0  0  0  0  0  0  0  0  0  0  0
  -24.6750  -10.0320   21.7190 C   0  0  0  0  0  3  0  0  0  0  0  0
  -23.9330   -8.8330   21.8010 C   0  0  0  0  0  3  0  0  0  0  0  0
  -22.7890   -8.6490   20.9890 C   0  0  0  0  0  0  0  0  0  0  0  0
  -22.4210   -9.6610   20.0860 C   0  0  0  0  0  3  0  0  0  0  0  0
  -23.1620  -10.8520   20.0020 C   0  0  0  0  0  3  0  0  0  0  0  0
  -22.0230   -7.5100   20.9790 O   0  0  0  0  0  0  0  0  0  0  0  0
  -21.9110   -6.7120   22.0890 C   0  0  0  0  0  0  0  0  0  0  0  0
  -21.4510   -7.2170   23.3250 C   0  0  0  0  0  3  0  0  0  0  0  0
  -21.2790   -6.3460   24.4190 C   0  0  0  0  0  3  0  0  0  0  0  0
  -21.5590   -4.9720   24.2790 C   0  0  0  0  0  0  0  0  0  0  0  0
  -22.0190   -4.4710   23.0490 C   0  0  0  0  0  3  0  0  0  0  0  0
  -22.1890   -5.3380   21.9560 C   0  0  0  0  0  0  0  0  0  0  0  0
  -22.6090   -4.8440   20.7650 F   0  0  0  0  0  0  0  0  0  0  0  0
  -21.3850   -4.1340   25.3270 F   0  0  0  0  0  0  0  0  0  0  0  0
  -23.1750  -14.1520   21.0440 C   0  0  0  0  0  0  0  0  0  0  0  0
  -22.4070  -13.4270   21.8480 N   0  0  0  0  0  0  0  0  0  0  0  0
  -22.7660  -15.2000   20.5450 O   0  0  0  0  0  0  0  0  0  0  0  0
  -22.7530  -12.5770   22.2650 H   0  0  0  0  0  0  0  0  0  0  0  0
  -21.4660  -13.7340   22.0540 H   0  0  0  0  0  0  0  0  0  0  0  0
  -25.8560  -15.8270   20.4440 N   0  0  0  0  0  0  0  0  0  0  0  0
  -25.0870  -16.4790   20.5450 H   0  0  0  0  0  0  0  0  0  0  0  0
  -26.7220  -16.2770   20.1900 H   0  0  0  0  0  0  0  0  0  0  0  0
  -28.7510  -25.6640   20.3740 C   0  0  0  0  0  2  0  0  0  0  0  0
  -28.7670  -27.0540   20.0510 O   0  0  0  0  0  0  0  0  0  0  0  0
  -24.5850  -31.8250   23.2200 C   0  0  0  0  0  0  0  0  0  0  0  0
  -27.5480  -27.6970   20.0170 C   0  0  0  0  0  0  0  0  0  0  0  0
  -23.5020  -30.4440   21.4780 C   0  0  0  0  0  3  0  0  0  0  0  0
  -25.0720  -29.0490   20.0340 C   0  0  0  0  0  0  0  0  0  0  0  0
  -26.0100  -30.9360   21.3830 C   0  0  0  0  0  2  0  0  0  0  0  0
  -26.1830  -29.6100   20.6770 C   0  0  0  0  0  0  0  0  0  0  0  0
  -27.4250  -28.9450   20.6580 C   0  0  0  0  0  3  0  0  0  0  0  0
  -26.4220  -27.1410   19.3680 C   0  0  0  0  0  3  0  0  0  0  0  0
  -25.1850  -27.8110   19.3800 C   0  0  0  0  0  3  0  0  0  0  0  0
  -23.7890  -29.8450   20.0760 C   0  0  0  0  0  2  0  0  0  0  0  0
  -24.7150  -31.0800   22.0860 N   0  0  0  0  0  0  0  0  0  0  0  0
  -23.4760  -32.0300   23.7290 O   0  0  0  0  0  0  0  0  0  0  0  0
  -22.8700  -29.3500   22.3670 C   0  0  0  0  0  0  0  0  0  0  0  0
  -21.5540  -29.1350   22.2000 N   0  0  0  0  0  0  0  0  0  0  0  0
  -23.5570  -28.7020   23.1590 O   0  0  0  0  0  0  0  0  0  0  0  0
  -21.0560  -29.7420   21.5660 H   0  0  0  0  0  0  0  0  0  0  0  0
  -18.1990  -27.8340   22.5580 C   0  0  0  0  0  0  0  0  0  0  0  0
  -20.7500  -28.1160   22.8740 C   0  0  0  0  0  3  0  0  0  0  0  0
  -20.8920  -26.7470   22.1690 C   0  0  0  0  0  2  0  0  0  0  0  0
  -19.7940  -26.4700   21.1400 C   0  0  0  0  0  2  0  0  0  0  0  0
  -18.4020  -26.5490   21.7720 C   0  0  0  0  0  2  0  0  0  0  0  0
  -19.3010  -28.5790   23.0550 C   0  0  0  0  0  0  0  0  0  0  0  0
  -19.0570  -29.7930   23.7330 C   0  0  0  0  0  3  0  0  0  0  0  0
  -17.7440  -30.2640   23.9120 C   0  0  0  0  0  3  0  0  0  0  0  0
  -16.6560  -29.5160   23.4330 C   0  0  0  0  0  3  0  0  0  0  0  0
  -16.8850  -28.3010   22.7640 C   0  0  0  0  0  3  0  0  0  0  0  0
  -25.8200  -32.4770   23.9150 C   0  0  0  0  0  3  0  0  0  0  0  0
  -26.2710  -31.7180   25.2220 C   0  0  1  0  0  0  0  0  0  0  0  0
  -25.1140  -31.4540   26.2160 C   0  0  0  0  0  1  0  0  0  0  0  0
  -26.9090  -30.3530   24.8680 C   0  0  0  0  0  1  0  0  0  0  0  0
  -27.3570  -32.5390   25.9560 C   0  0  0  0  0  1  0  0  0  0  0  0
  -25.4720  -33.8710   24.2140 N   0  0  0  0  0  0  0  0  0  0  0  0
  -25.8250  -34.9230   23.4620 C   0  0  0  0  0  0  0  0  0  0  0  0
  -26.5530  -34.8230   22.4680 O   0  0  0  0  0  0  0  0  0  0  0  0
  -24.8280  -34.0240   24.9790 H   0  0  0  0  0  0  0  0  0  0  0  0
  -24.0730  -36.6710   23.0010 C   0  0  0  0  0  1  0  0  0  0  0  0
  -25.2850  -36.3070   23.8740 C   0  0  0  0  0  3  0  0  0  0  0  0
  -27.3610  -37.2490   24.7840 C   0  0  0  0  0  1  0  0  0  0  0  0
  -26.2980  -37.3820   23.7920 N   0  0  0  0  0  0  0  0  0  0  0  0
  -25.8660  -38.2940   23.9090 H   0  0  0  0  0  0  0  0  0  0  0  0
  2  6  1  0
  2  1  2  0
  3  2  1  0
  4  1  1  0
  4  7  1  0
  5  3  2  0
  5  8  1  0
  8  4  2  0
  9 10  1  0
  9  5  1  0
 11 10  1  0
 12 13  1  0
 12 11  1  0
 13 14  1  0
 14 15  1  0
 15 16  1  0
 16 17  1  0
 17 26  1  0
 18 26  1  0
 19 24  1  0
 20 21  1  0
 20 19  1  0
 22 21  1  0
 22 31  1  0
 22 23  1  0
 24 18  1  0
 24 23  1  0
 25 18  2  0
 26 27  1  0
 28 29  2  0
 29 48  1  0
 30 29  1  0
 30 33  1  0
 31 32  1  0
 31 28  1  0
 32 30  2  0
 33 34  1  0
 34 35  2  0
 36 35  1  0
 37 36  2  0
 38 37  1  0
 38 33  2  0
 39 36  1  0
 39 40  1  0
 40 41  1  0
 41 42  2  0
 43 42  1  0
 43 47  1  0
 44 43  2  0
 45 40  2  0
 45 44  1  0
 46 45  1  0
 48 49  1  0
 49 52  1  0
 49 51  1  0
 50 48  2  0
 53 28  1  0
 53 54  1  0
 55 53  1  0
 56  3  1  0
 57 56  1  0
 58 69  2  0
 59 57  1  0
 59 64  1  0
 60 68  1  0
 60 70  1  0
 61 67  1  0
 61 63  1  0
 62 68  1  0
 63 62  1  0
 64 63  2  0
 65 66  1  0
 65 59  2  0
 66 61  2  0
 67 60  1  0
 68 58  1  0
 70 72  2  0
 71 70  1  0
 73 71  1  0
 74 83  2  0
 74 79  1  0
 75 71  1  0
 75 79  1  0
 76 75  1  0
 77 78  1  0
 77 76  1  0
 78 74  1  0
 79 80  2  0
 80 81  1  0
 82 81  2  0
 83 82  1  0
 84 58  1  0
 84 89  1  0
 84 85  1  0
 85 88  1  1
 85 86  1  0
 87 85  1  0
 89 92  1  0
 90 94  1  0
 90 89  1  0
 91 90  2  0
 94 93  1  0
 96 94  1  0
 96 97  1  0
 96 95  1  0
M  ISO  4  18 100  26 100  56 101  57 101
M  END
>  <TORSDO>  (74) 
F 26

>  <SCORE>  (74) 
-10.159

>  <name>  (74) 
74

>  <ligand_id>  (74) 
74

>  <original_smiles>  (74) 
[H]c1c([H])c([H])c2c(c1[H])C([H])([H])C([H])([H])C([H])([H])C2([H])N([H])C(=O)C1([H])N(C(=O)C([H])(N([H])C(=O)C([H])(N([H])C([H])([H])[H])C([H])([H])[H])C(C([H])([H])[H])(C([H])([H])[H])C([H])([H])[H])C([H])([H])c2c([H])c(OC([H])([H])c3c(C([H])([H])C([H])([H])C([H])([H])C([H])([H])C([H])([H])C([H])([H])C([H])([H])C([H])([H])C([H])([H])N([H])C(=O)N4C([H])([H])C([H])([H])C([H])([H])C([H])(n5nc(-c6c([H])c([H])c(Oc7c([H])c([H])c(F)c([H])c7F)c([H])c6[H])c(C(=O)N([H])[H])c5N([H])[H])C4([H])[H])nc(C([H])([H])[H])c([H])c3C([H])([H])[H])c([H])c([H])c2C1([H])[H]

>  <smiles>  (74) 
[H]c1c([H])c([H])c2c(c1[H])C([H])([H])C([H])([H])C([H])([H])C2([H])N([H])C(=O)C1([H])N(C(=O)C([H])(N([H])C(=O)C([H])(N([H])C([H])([H])[H])C([H])([H])[H])C(C([H])([H])[H])(C([H])([H])[H])C([H])([H])[H])C([H])([H])c2c([H])c(OC([H])([H])c3c(C([H])([H])C([H])([H])C([H])([H])C([H])([H])C([H])([H])C([H])([H])C([H])([H])C([H])([H])C([H])([H])N([H])C(=O)N4C([H])([H])C([H])([H])C([H])([H])C([H])(n5nc(-c6c([H])c([H])c(Oc7c([H])c([H])c(F)c([H])c7F)c([H])c6[H])c(C(=O)N([H])[H])c5N([H])[H])C4([H])[H])nc(C([H])([H])[H])c([H])c3C([H])([H])[H])c([H])c([H])c2C1([H])[H]

$$$$
75:0:0
     RDKit          3D

106114  0  0  1  0  0  0  0  0999 V2000
  -26.6350  -23.5030   21.2930 C   0  0  0  0  0  2  0  0  0  0  0  0
  -27.9850  -25.6420   21.4120 C   0  0  0  0  0  2  0  0  0  0  0  0
  -27.5360  -23.1170   20.0710 C   0  0  0  0  0  3  0  0  0  0  0  0
  -28.0940  -24.3360   19.2570 C   0  0  0  0  0  3  0  0  0  0  0  0
  -27.6360  -25.6460   19.9320 C   0  0  0  0  0  3  0  0  0  0  0  0
  -27.0840  -24.6820   22.1210 N   0  0  1  0  0  4  0  0  0  0  0  0
  -27.6330  -24.3030   22.8810 H   0  0  0  0  0  0  0  0  0  0  0  0
  -25.9390  -25.4210   22.7360 C   0  0  0  0  0  2  0  0  0  0  0  0
  -24.8650  -24.5300   23.3900 C   0  0  0  0  0  2  0  0  0  0  0  0
  -23.5270  -25.2380   23.6640 C   0  0  0  0  0  2  0  0  0  0  0  0
  -23.5720  -26.6780   24.2120 C   0  0  0  0  0  2  0  0  0  0  0  0
  -24.2920  -26.9050   25.5610 C   0  0  0  0  0  2  0  0  0  0  0  0
  -25.7710  -27.3430   25.4630 C   0  0  0  0  0  2  0  0  0  0  0  0
  -26.7800  -26.1950   25.6700 C   0  0  0  0  0  2  0  0  0  0  0  0
  -28.0350  -26.3000   24.7770 C   0  0  0  0  0  2  0  0  0  0  0  0
  -28.6850  -24.9240   24.5590 C   0  0  0  0  0  2  0  0  0  0  0  0
  -29.8790  -24.8840   23.5820 C   0  0  0  0  0  2  0  0  0  0  0  0
  -30.2300  -23.4200   23.2650 C   0  0  0  0  0  2  0  0  0  0  0  0
  -31.4860  -23.1680   22.4090 C   0  0  0  0  0  2  0  0  0  0  0  0
  -31.5850  -21.6590   22.1370 C   0  0  0  0  0  2  0  0  0  0  0  0
  -32.7890  -21.1550   21.3240 C   0  0  0  0  0  2  0  0  0  0  0  0
  -32.6410  -19.6280   21.1660 C   0  0  0  0  0  2  0  0  0  0  0  0
  -33.4730  -18.9450   20.0710 C   0  0  0  0  0  0  0  0  0  0  0  0
  -33.7540  -16.9650   18.6140 C   0  0  0  0  0  2  0  0  0  0  0  0
  -32.7040  -16.9750   17.4860 C   0  0  0  0  0  2  0  0  0  0  0  0
  -31.3860  -16.3270   17.9560 C   0  0  0  0  0  2  0  0  0  0  0  0
  -30.8950  -16.8890   19.3160 C   0  0  0  0  0  3  0  0  0  0  0  0
  -32.0480  -16.8890   20.3430 C   0  0  0  0  0  2  0  0  0  0  0  0
  -33.1740  -17.6530   19.7730 N   0  0  0  0  0  0  0  0  0  0  0  0
  -34.3460  -19.5890   19.4810 O   0  0  0  0  0  0  0  0  0  0  0  0
  -28.4390  -16.6180   20.0480 C   0  0  0  0  0  0  0  0  0  0  0  0
  -27.7120  -15.5200   20.4310 C   0  0  0  0  0  0  0  0  0  0  0  0
  -28.6220  -14.4190   20.3960 C   0  0  0  0  0  0  0  0  0  0  0  0
  -29.7260  -16.1620   19.8060 N   0  0  0  0  0  0  0  0  0  0  0  0
  -29.8370  -14.8350   20.0690 N   0  0  0  0  0  0  0  0  0  0  0  0
  -28.3940  -12.9810   20.5960 C   0  0  0  0  0  0  0  0  0  0  0  0
  -29.3700  -12.1540   21.1920 C   0  0  0  0  0  3  0  0  0  0  0  0
  -29.1170  -10.7790   21.3880 C   0  0  0  0  0  3  0  0  0  0  0  0
  -27.8780  -10.2210   20.9920 C   0  0  0  0  0  0  0  0  0  0  0  0
  -26.9200  -11.0460   20.3780 C   0  0  0  0  0  3  0  0  0  0  0  0
  -27.1760  -12.4120   20.1770 C   0  0  0  0  0  3  0  0  0  0  0  0
  -27.5590   -8.8900   21.1190 O   0  0  0  0  0  0  0  0  0  0  0  0
  -28.3530   -8.0240   21.8260 C   0  0  0  0  0  0  0  0  0  0  0  0
  -28.9130   -8.3730   23.0740 C   0  0  0  0  0  3  0  0  0  0  0  0
  -29.6650   -7.4280   23.7970 C   0  0  0  0  0  3  0  0  0  0  0  0
  -29.8500   -6.1310   23.2820 C   0  0  0  0  0  0  0  0  0  0  0  0
  -29.2890   -5.7790   22.0420 C   0  0  0  0  0  3  0  0  0  0  0  0
  -28.5400   -6.7220   21.3180 C   0  0  0  0  0  0  0  0  0  0  0  0
  -27.9830   -6.3720   20.1320 F   0  0  0  0  0  0  0  0  0  0  0  0
  -30.5660   -5.2190   23.9800 F   0  0  0  0  0  0  0  0  0  0  0  0
  -26.2400  -15.4780   20.7210 C   0  0  0  0  0  0  0  0  0  0  0  0
  -25.8170  -14.5890   21.6130 N   0  0  0  0  0  0  0  0  0  0  0  0
  -25.4590  -16.2670   20.1930 O   0  0  0  0  0  0  0  0  0  0  0  0
  -26.4600  -13.9570   22.0670 H   0  0  0  0  0  0  0  0  0  0  0  0
  -24.8360  -14.5450   21.8500 H   0  0  0  0  0  0  0  0  0  0  0  0
  -28.1060  -17.9560   19.8680 N   0  0  0  0  0  0  0  0  0  0  0  0
  -27.1600  -18.3010   19.9910 H   0  0  0  0  0  0  0  0  0  0  0  0
  -28.7490  -18.6670   19.5400 H   0  0  0  0  0  0  0  0  0  0  0  0
  -27.8840  -26.9020   19.2640 O   0  0  0  0  0  0  0  0  0  0  0  0
  -24.5960  -31.8970   23.1580 C   0  0  0  0  0  0  0  0  0  0  0  0
  -26.8060  -27.7610   19.3720 C   0  0  0  0  0  0  0  0  0  0  0  0
  -23.2110  -30.7300   21.4790 C   0  0  0  0  0  3  0  0  0  0  0  0
  -24.4880  -29.3250   19.7820 C   0  0  0  0  0  0  0  0  0  0  0  0
  -25.7360  -31.0150   21.1320 C   0  0  0  0  0  2  0  0  0  0  0  0
  -25.7130  -29.7290   20.3290 C   0  0  0  0  0  0  0  0  0  0  0  0
  -26.8810  -28.9480   20.1380 C   0  0  0  0  0  3  0  0  0  0  0  0
  -25.5690  -27.4130   18.7750 C   0  0  0  0  0  3  0  0  0  0  0  0
  -24.4050  -28.1590   19.0140 C   0  0  0  0  0  3  0  0  0  0  0  0
  -23.2940  -30.2200   20.0160 C   0  0  0  0  0  2  0  0  0  0  0  0
  -24.5370  -31.2210   21.9780 N   0  0  0  0  0  0  0  0  0  0  0  0
  -23.5710  -32.1470   23.8060 O   0  0  0  0  0  0  0  0  0  0  0  0
  -22.5970  -29.6240   22.3640 C   0  0  0  0  0  0  0  0  0  0  0  0
  -21.2660  -29.4670   22.2760 N   0  0  0  0  0  0  0  0  0  0  0  0
  -23.3100  -28.9190   23.0830 O   0  0  0  0  0  0  0  0  0  0  0  0
  -20.7600  -30.0950   21.6660 H   0  0  0  0  0  0  0  0  0  0  0  0
  -17.9020  -28.2240   22.7650 C   0  0  0  0  0  0  0  0  0  0  0  0
  -20.4670  -28.4740   22.9980 C   0  0  0  0  0  3  0  0  0  0  0  0
  -20.5610  -27.0840   22.3330 C   0  0  0  0  0  2  0  0  0  0  0  0
  -19.4380  -26.8250   21.3210 C   0  0  0  0  0  2  0  0  0  0  0  0
  -18.0660  -26.9190   21.9980 C   0  0  0  0  0  2  0  0  0  0  0  0
  -19.0290  -28.9580   23.2200 C   0  0  0  0  0  0  0  0  0  0  0  0
  -18.8220  -30.1770   23.9010 C   0  0  0  0  0  3  0  0  0  0  0  0
  -17.5210  -30.6620   24.1300 C   0  0  0  0  0  3  0  0  0  0  0  0
  -16.4080  -29.9280   23.6900 C   0  0  0  0  0  3  0  0  0  0  0  0
  -16.5990  -28.7100   23.0120 C   0  0  0  0  0  3  0  0  0  0  0  0
  -25.9500  -32.4120   23.7340 C   0  0  0  0  0  3  0  0  0  0  0  0
  -25.7290  -33.7780   24.2220 N   0  0  0  0  0  0  0  0  0  0  0  0
  -26.0940  -34.8880   23.5690 C   0  0  0  0  0  0  0  0  0  0  0  0
  -26.7270  -34.8640   22.5110 O   0  0  0  0  0  0  0  0  0  0  0  0
  -25.1770  -33.8690   25.0620 H   0  0  0  0  0  0  0  0  0  0  0  0
  -24.4640  -36.8020   23.4560 C   0  0  0  0  0  1  0  0  0  0  0  0
  -25.6930  -36.2410   24.1890 C   0  0  0  0  0  3  0  0  0  0  0  0
  -27.8890  -36.9050   25.0590 C   0  0  0  0  0  1  0  0  0  0  0  0
  -26.7810  -37.2430   24.1690 N   0  0  0  0  0  0  0  0  0  0  0  0
  -26.4340  -38.1600   24.4370 H   0  0  0  0  0  0  0  0  0  0  0  0
  -26.5260  -31.4910   24.8790 C   0  0  1  0  0  0  0  0  0  0  0  0
  -25.5100  -31.1860   26.0030 C   0  0  0  0  0  1  0  0  0  0  0  0
  -27.0090  -30.1370   24.3030 C   0  0  0  0  0  1  0  0  0  0  0  0
  -27.7600  -32.1660   25.5240 C   0  0  0  0  0  1  0  0  0  0  0  0
  -29.6270  -24.1980   19.0720 C   0  0  0  0  0  2  0  0  0  0  0  0
  -30.0190  -23.4750   17.7620 C   0  0  0  0  0  2  0  0  0  0  0  0
  -30.6150  -21.0710   18.4190 C   0  0  0  0  0  1  0  0  0  0  0  0
  -31.1310  -22.4310   17.9280 C   0  0  0  0  0  2  0  0  0  0  0  0
  -26.9190  -22.0310   19.1230 C   0  0  0  0  0  2  0  0  0  0  0  0
  -24.9190  -20.8950   18.0050 C   0  0  0  0  0  1  0  0  0  0  0  0
  -25.3890  -21.8430   19.1220 C   0  0  0  0  0  2  0  0  0  0  0  0
  1  6  1  0
  2  6  1  0
  3104  1  0
  3  1  1  0
  4100  1  0
  4  5  1  0
  4  3  1  0
  5 59  1  0
  5  2  1  0
  6  8  1  0
  6  7  1  1
  8  9  1  0
  9 10  1  0
 10 11  1  0
 11 12  1  0
 13 12  1  0
 13 14  1  0
 15 14  1  0
 16 15  1  0
 17 16  1  0
 18 17  1  0
 19 18  1  0
 20 19  1  0
 21 20  1  0
 22 21  1  0
 23 22  1  0
 24 29  1  0
 25 26  1  0
 25 24  1  0
 27 26  1  0
 27 34  1  0
 27 28  1  0
 29 23  1  0
 29 28  1  0
 30 23  2  0
 31 32  2  0
 32 51  1  0
 33 32  1  0
 33 36  1  0
 34 31  1  0
 34 35  1  0
 35 33  2  0
 36 37  1  0
 37 38  2  0
 39 42  1  0
 39 38  1  0
 40 39  2  0
 41 40  1  0
 41 36  2  0
 42 43  1  0
 43 44  1  0
 44 45  2  0
 46 45  1  0
 46 50  1  0
 47 46  2  0
 48 43  2  0
 48 47  1  0
 49 48  1  0
 51 52  1  0
 52 55  1  0
 52 54  1  0
 53 51  2  0
 56 57  1  0
 56 31  1  0
 58 56  1  0
 59 61  1  0
 60 71  2  0
 61 66  1  0
 62 70  1  0
 62 72  1  0
 63 69  1  0
 63 65  1  0
 64 70  1  0
 65 64  1  0
 66 65  2  0
 67 68  1  0
 67 61  2  0
 68 63  2  0
 69 62  1  0
 70 60  1  0
 72 74  2  0
 73 72  1  0
 75 73  1  0
 76 85  2  0
 76 81  1  0
 77 73  1  0
 77 81  1  0
 78 77  1  0
 79 80  1  0
 79 78  1  0
 80 76  1  0
 81 82  2  0
 82 83  1  0
 84 83  2  0
 85 84  1  0
 86 60  1  0
 86 87  1  0
 86 96  1  0
 87 90  1  0
 88 92  1  0
 88 87  1  0
 89 88  2  0
 92 91  1  0
 94 92  1  0
 94 95  1  0
 94 93  1  0
 96 99  1  1
 96 97  1  0
 98 96  1  0
101103  1  0
101100  1  0
103102  1  0
105106  1  0
106104  1  0
M  ISO  4   5 101  22 100  23 100  59 101
M  END
>  <TORSDO>  (75) 
F 36

>  <SCORE>  (75) 
-4.855

>  <name>  (75) 
75

>  <ligand_id>  (75) 
75

>  <original_smiles>  (75) 
[H]c1c([H])c([H])c2c(c1[H])C([H])([H])C([H])([H])C([H])([H])C2([H])N([H])C(=O)C1([H])N(C(=O)C([H])(N([H])C(=O)C([H])(N([H])C([H])([H])[H])C([H])([H])[H])C(C([H])([H])[H])(C([H])([H])[H])C([H])([H])[H])C([H])([H])c2c([H])c(OC3([H])C([H])(C([H])([H])C([H])([H])C([H])([H])C([H])([H])[H])C([H])(C([H])([H])C([H])([H])C([H])([H])[H])C([H])([H])[N+]([H])(C([H])([H])C([H])([H])C([H])([H])C([H])([H])C([H])([H])C([H])([H])C([H])([H])C([H])([H])C([H])([H])C([H])([H])C([H])([H])C([H])([H])C([H])([H])C([H])([H])C([H])([H])C(=O)N4C([H])([H])C([H])([H])C([H])([H])C([H])(n5nc(-c6c([H])c([H])c(Oc7c([H])c([H])c(F)c([H])c7F)c([H])c6[H])c(C(=O)N([H])[H])c5N([H])[H])C4([H])[H])C3([H])[H])c([H])c([H])c2C1([H])[H]

>  <smiles>  (75) 
[H]c1c([H])c([H])c2c(c1[H])C([H])([H])C([H])([H])C([H])([H])C2([H])N([H])C(=O)C1([H])N(C(=O)C([H])(N([H])C(=O)C([H])(N([H])C([H])([H])[H])C([H])([H])[H])C(C([H])([H])[H])(C([H])([H])[H])C([H])([H])[H])C([H])([H])c2c([H])c(OC3([H])C([H])(C([H])([H])C([H])([H])C([H])([H])C([H])([H])[H])C([H])(C([H])([H])C([H])([H])C([H])([H])[H])C([H])([H])[N+]([H])(C([H])([H])C([H])([H])C([H])([H])C([H])([H])C([H])([H])C([H])([H])C([H])([H])C([H])([H])C([H])([H])C([H])([H])C([H])([H])C([H])([H])C([H])([H])C([H])([H])C([H])([H])C(=O)N4C([H])([H])C([H])([H])C([H])([H])C([H])(n5nc(-c6c([H])c([H])c(Oc7c([H])c([H])c(F)c([H])c7F)c([H])c6[H])c(C(=O)N([H])[H])c5N([H])[H])C4([H])[H])C3([H])[H])c([H])c([H])c2C1([H])[H]

$$$$
76:0:0
     RDKit          3D

 93101  0  0  1  0  0  0  0  0999 V2000
  -29.6480  -19.9230   20.9320 C   0  0  0  0  0  3  0  0  0  0  0  0
  -29.5780  -21.1180   18.8500 C   0  0  0  0  0  3  0  0  0  0  0  0
  -29.3650  -21.1570   20.2390 C   0  0  0  0  0  0  0  0  0  0  0  0
  -30.1310  -18.7360   20.2560 C   0  0  0  0  0  0  0  0  0  0  0  0
  -30.3250  -18.8740   18.8500 C   0  0  0  0  0  0  0  0  0  0  0  0
  -30.0440  -20.0350   18.1960 N   0  0  0  0  0  0  0  0  0  0  0  0
  -30.9170  -17.7530   17.9660 C   0  0  1  0  0  0  0  0  0  0  0  0
  -30.1210  -16.6840   17.9420 F   0  0  0  0  0  0  0  0  0  0  0  0
  -31.0720  -18.1560   16.6990 F   0  0  0  0  0  0  0  0  0  0  0  0
  -32.1200  -17.3880   18.4140 F   0  0  0  0  0  0  0  0  0  0  0  0
  -28.7550  -22.4550   20.9250 C   0  0  0  0  0  2  0  0  0  0  0  0
  -29.0370  -23.9410   20.3550 C   0  0  0  0  0  3  0  0  0  0  0  0
  -28.1270  -25.1620   20.8930 C   0  0  0  0  0  3  0  0  0  0  0  0
  -28.3390  -26.5510   20.3750 O   0  0  0  0  0  0  0  0  0  0  0  0
  -24.5060  -31.9910   23.2220 C   0  0  0  0  0  0  0  0  0  0  0  0
  -27.2280  -27.4110   20.2970 C   0  0  0  0  0  0  0  0  0  0  0  0
  -23.3550  -30.5640   21.5670 C   0  0  0  0  0  3  0  0  0  0  0  0
  -24.8550  -29.0110   20.1820 C   0  0  0  0  0  0  0  0  0  0  0  0
  -25.8970  -30.9010   21.4390 C   0  0  0  0  0  2  0  0  0  0  0  0
  -26.0010  -29.5130   20.8170 C   0  0  0  0  0  0  0  0  0  0  0  0
  -27.1920  -28.7260   20.8600 C   0  0  0  0  0  3  0  0  0  0  0  0
  -26.0670  -26.9710   19.6250 C   0  0  0  0  0  3  0  0  0  0  0  0
  -24.8970  -27.7510   19.5640 C   0  0  0  0  0  3  0  0  0  0  0  0
  -23.6070  -29.8760   20.1960 C   0  0  0  0  0  2  0  0  0  0  0  0
  -24.6050  -31.1710   22.1330 N   0  0  0  0  0  0  0  0  0  0  0  0
  -23.4090  -32.2650   23.7290 O   0  0  0  0  0  0  0  0  0  0  0  0
  -22.6820  -29.5520   22.5280 C   0  0  0  0  0  0  0  0  0  0  0  0
  -21.3600  -29.3580   22.3720 N   0  0  0  0  0  0  0  0  0  0  0  0
  -23.3510  -28.9410   23.3660 O   0  0  0  0  0  0  0  0  0  0  0  0
  -20.8840  -29.9100   21.6710 H   0  0  0  0  0  0  0  0  0  0  0  0
  -17.9750  -28.1820   22.8690 C   0  0  0  0  0  0  0  0  0  0  0  0
  -20.5350  -28.4210   23.1360 C   0  0  0  0  0  3  0  0  0  0  0  0
  -20.6260  -26.9930   22.5500 C   0  0  0  0  0  2  0  0  0  0  0  0
  -19.5210  -26.6860   21.5350 C   0  0  0  0  0  2  0  0  0  0  0  0
  -18.1400  -26.8350   22.1830 C   0  0  0  0  0  2  0  0  0  0  0  0
  -19.0990  -28.9330   23.3030 C   0  0  0  0  0  0  0  0  0  0  0  0
  -18.8900  -30.1910   23.9070 C   0  0  0  0  0  3  0  0  0  0  0  0
  -17.5890  -30.6960   24.0820 C   0  0  0  0  0  3  0  0  0  0  0  0
  -16.4780  -29.9430   23.6630 C   0  0  0  0  0  3  0  0  0  0  0  0
  -16.6730  -28.6880   23.0580 C   0  0  0  0  0  3  0  0  0  0  0  0
  -25.7680  -32.6510   23.8600 C   0  0  0  0  0  3  0  0  0  0  0  0
  -25.4330  -34.0480   24.1740 N   0  0  0  0  0  0  0  0  0  0  0  0
  -25.7670  -35.1020   23.4200 C   0  0  0  0  0  0  0  0  0  0  0  0
  -26.4580  -35.0010   22.4030 O   0  0  0  0  0  0  0  0  0  0  0  0
  -24.8130  -34.1950   24.9570 H   0  0  0  0  0  0  0  0  0  0  0  0
  -24.0270  -36.8800   23.0150 C   0  0  0  0  0  1  0  0  0  0  0  0
  -25.2490  -36.4880   23.8590 C   0  0  0  0  0  3  0  0  0  0  0  0
  -27.3490  -37.4030   24.7440 C   0  0  0  0  0  1  0  0  0  0  0  0
  -26.2720  -37.5530   23.7700 N   0  0  0  0  0  0  0  0  0  0  0  0
  -25.8500  -38.4670   23.9080 H   0  0  0  0  0  0  0  0  0  0  0  0
  -26.2660  -31.9010   25.1580 C   0  0  1  0  0  0  0  0  0  0  0  0
  -25.1480  -31.6180   26.1900 C   0  0  0  0  0  1  0  0  0  0  0  0
  -26.9140  -30.5460   24.7920 C   0  0  0  0  0  1  0  0  0  0  0  0
  -27.3610  -32.7370   25.8610 C   0  0  0  0  0  1  0  0  0  0  0  0
  -30.5730  -17.4430   21.0740 C   0  0  0  0  0  2  0  0  0  0  0  0
  -30.8180  -14.8950   20.5850 C   0  0  0  0  0  0  0  0  0  0  0  0
  -30.5900  -12.6800   19.4680 C   0  0  0  0  0  2  0  0  0  0  0  0
  -29.6560  -12.8250   18.2500 C   0  0  0  0  0  2  0  0  0  0  0  0
  -28.1790  -12.6550   18.6540 C   0  0  0  0  0  2  0  0  0  0  0  0
  -27.8030  -13.4830   19.9110 C   0  0  0  0  0  3  0  0  0  0  0  0
  -28.8570  -13.3370   21.0290 C   0  0  0  0  0  2  0  0  0  0  0  0
  -30.1640  -13.6930   20.4580 N   0  0  0  0  0  0  0  0  0  0  0  0
  -32.0160  -14.9840   20.3160 O   0  0  0  0  0  0  0  0  0  0  0  0
  -30.0710  -16.0340   20.8100 N   0  0  0  0  0  0  0  0  0  0  0  0
  -29.0840  -15.8860   20.9570 H   0  0  0  0  0  0  0  0  0  0  0  0
  -25.3900  -14.0160   20.6110 C   0  0  0  0  0  0  0  0  0  0  0  0
  -24.3360  -13.2200   20.9560 C   0  0  0  0  0  0  0  0  0  0  0  0
  -24.8230  -11.8750   20.9110 C   0  0  0  0  0  0  0  0  0  0  0  0
  -26.4590  -13.1640   20.3840 N   0  0  0  0  0  0  0  0  0  0  0  0
  -26.1190  -11.8690   20.6310 N   0  0  0  0  0  0  0  0  0  0  0  0
  -24.1140  -10.6010   21.0730 C   0  0  0  0  0  0  0  0  0  0  0  0
  -24.5120   -9.6500   22.0380 C   0  0  0  0  0  3  0  0  0  0  0  0
  -23.8010   -8.4400   22.1850 C   0  0  0  0  0  3  0  0  0  0  0  0
  -22.6790   -8.1700   21.3690 C   0  0  0  0  0  0  0  0  0  0  0  0
  -22.2990   -9.1110   20.3970 C   0  0  0  0  0  3  0  0  0  0  0  0
  -23.0100  -10.3120   20.2480 C   0  0  0  0  0  3  0  0  0  0  0  0
  -21.9400   -7.0100   21.4260 O   0  0  0  0  0  0  0  0  0  0  0  0
  -21.8020   -6.3010   22.5930 C   0  0  0  0  0  0  0  0  0  0  0  0
  -21.1980   -6.8600   23.7390 C   0  0  0  0  0  3  0  0  0  0  0  0
  -21.0170   -6.0740   24.8950 C   0  0  0  0  0  3  0  0  0  0  0  0
  -21.4290   -4.7290   24.9040 C   0  0  0  0  0  0  0  0  0  0  0  0
  -22.0250   -4.1670   23.7610 C   0  0  0  0  0  3  0  0  0  0  0  0
  -22.2080   -4.9510   22.6070 C   0  0  0  0  0  0  0  0  0  0  0  0
  -22.7670   -4.4030   21.5030 F   0  0  0  0  0  0  0  0  0  0  0  0
  -21.2440   -3.9680   26.0090 F   0  0  0  0  0  0  0  0  0  0  0  0
  -22.9250  -13.6640   21.2100 C   0  0  0  0  0  0  0  0  0  0  0  0
  -22.1960  -12.9440   22.0520 N   0  0  0  0  0  0  0  0  0  0  0  0
  -22.4800  -14.6900   20.6980 O   0  0  0  0  0  0  0  0  0  0  0  0
  -22.5670  -12.1110   22.4920 H   0  0  0  0  0  0  0  0  0  0  0  0
  -21.2480  -13.2220   22.2620 H   0  0  0  0  0  0  0  0  0  0  0  0
  -25.5230  -15.3950   20.4390 N   0  0  0  0  0  0  0  0  0  0  0  0
  -24.7210  -16.0140   20.5070 H   0  0  0  0  0  0  0  0  0  0  0  0
  -26.3460  -15.8550   20.0660 H   0  0  0  0  0  0  0  0  0  0  0  0
  2  3  1  0
  3 11  1  0
  3  1  2  0
  4  1  1  0
  4 55  1  0
  5  4  2  0
  6  2  2  0
  6  5  1  0
  7 10  1  1
  7  5  1  0
  8  7  1  0
  9  7  1  0
 12 13  2  0
 12 11  1  0
 14 13  1  0
 15 26  2  0
 16 14  1  0
 16 21  1  0
 17 25  1  0
 17 27  1  0
 18 24  1  0
 18 20  1  0
 19 25  1  0
 20 21  2  0
 20 19  1  0
 22 16  2  0
 23 22  1  0
 23 18  2  0
 24 17  1  0
 25 15  1  0
 27 29  2  0
 28 27  1  0
 30 28  1  0
 31 40  2  0
 31 36  1  0
 32 28  1  0
 32 36  1  0
 33 32  1  0
 34 35  1  0
 34 33  1  0
 35 31  1  0
 36 37  2  0
 37 38  1  0
 39 38  2  0
 40 39  1  0
 41 15  1  0
 41 42  1  0
 41 51  1  0
 42 45  1  0
 43 47  1  0
 43 42  1  0
 44 43  2  0
 47 46  1  0
 49 47  1  0
 49 50  1  0
 49 48  1  0
 51 54  1  1
 51 52  1  0
 53 51  1  0
 56 64  1  0
 57 62  1  0
 58 59  1  0
 58 57  1  0
 60 59  1  0
 60 69  1  0
 60 61  1  0
 62 56  1  0
 62 61  1  0
 63 56  2  0
 64 65  1  0
 64 55  1  0
 66 67  2  0
 67 86  1  0
 68 67  1  0
 68 71  1  0
 69 66  1  0
 69 70  1  0
 70 68  2  0
 71 72  1  0
 72 73  2  0
 74 77  1  0
 74 73  1  0
 75 74  2  0
 76 75  1  0
 76 71  2  0
 77 78  1  0
 78 83  2  0
 78 79  1  0
 79 80  2  0
 80 81  1  0
 81 85  1  0
 82 81  2  0
 83 82  1  0
 84 83  1  0
 86 87  1  0
 87 90  1  0
 87 89  1  0
 88 86  2  0
 91 92  1  0
 91 66  1  0
 93 91  1  0
M  ISO  4  13 101  14 101  56 100  64 100
M  END
>  <TORSDO>  (76) 
F 21

>  <SCORE>  (76) 
-13.371

>  <name>  (76) 
76

>  <ligand_id>  (76) 
76

>  <original_smiles>  (76) 
[H]c1nc(C(F)(F)F)c(C([H])([H])N([H])C(=O)N2C([H])([H])C([H])([H])C([H])([H])C([H])(n3nc(-c4c([H])c([H])c(Oc5c([H])c([H])c(F)c([H])c5F)c([H])c4[H])c(C(=O)N([H])[H])c3N([H])[H])C2([H])[H])c([H])c1C([H])([H])C([H])([H])C([H])([H])Oc1c([H])c([H])c2c(c1[H])C([H])([H])N(C(=O)C([H])(N([H])C(=O)C([H])(N([H])C([H])([H])[H])C([H])([H])[H])C(C([H])([H])[H])(C([H])([H])[H])C([H])([H])[H])C([H])(C(=O)N([H])C1([H])c3c([H])c([H])c([H])c([H])c3C([H])([H])C([H])([H])C1([H])[H])C2([H])[H]

>  <smiles>  (76) 
[H]c1nc(C(F)(F)F)c(C([H])([H])N([H])C(=O)N2C([H])([H])C([H])([H])C([H])([H])C([H])(n3nc(-c4c([H])c([H])c(Oc5c([H])c([H])c(F)c([H])c5F)c([H])c4[H])c(C(=O)N([H])[H])c3N([H])[H])C2([H])[H])c([H])c1C([H])([H])C([H])([H])C([H])([H])Oc1c([H])c([H])c2c(c1[H])C([H])([H])N(C(=O)C([H])(N([H])C(=O)C([H])(N([H])C([H])([H])[H])C([H])([H])[H])C(C([H])([H])[H])(C([H])([H])[H])C([H])([H])[H])C([H])(C(=O)N([H])C1([H])c3c([H])c([H])c([H])c([H])c3C([H])([H])C([H])([H])C1([H])[H])C2([H])[H]

$$$$
77:0:0
     RDKit          3D

 91 99  0  0  1  0  0  0  0  0999 V2000
  -28.7100  -20.2850   19.7340 C   0  0  0  0  0  3  0  0  0  0  0  0
  -29.9680  -20.8550   21.6670 C   0  0  0  0  0  3  0  0  0  0  0  0
  -29.5110  -19.8280   20.8070 C   0  0  0  0  0  0  0  0  0  0  0  0
  -28.3260  -21.6600   19.6360 C   0  0  0  0  0  0  0  0  0  0  0  0
  -28.8050  -22.6140   20.5820 C   0  0  0  0  0  0  0  0  0  0  0  0
  -29.6520  -22.1780   21.5520 N   0  0  0  0  0  0  0  0  0  0  0  0
  -25.9420  -21.4290   18.8310 C   0  0  0  0  0  1  0  0  0  0  0  0
  -27.3230  -22.0310   18.5510 C   0  0  0  0  0  2  0  0  0  0  0  0
  -29.7860  -18.3190   21.1680 C   0  0  0  0  0  3  0  0  0  0  0  0
  -29.5270  -17.1450   20.1430 C   0  0  0  0  0  3  0  0  0  0  0  0
  -30.4610  -14.7220   20.2150 C   0  0  0  0  0  0  0  0  0  0  0  0
  -30.2110  -12.5620   19.0110 C   0  0  0  0  0  2  0  0  0  0  0  0
  -29.1960  -12.7740   17.8660 C   0  0  0  0  0  2  0  0  0  0  0  0
  -27.7520  -12.5760   18.3670 C   0  0  0  0  0  2  0  0  0  0  0  0
  -27.4650  -13.3340   19.6900 C   0  0  0  0  0  3  0  0  0  0  0  0
  -28.5880  -13.0990   20.7270 C   0  0  0  0  0  2  0  0  0  0  0  0
  -29.8640  -13.4930   20.1070 N   0  0  0  0  0  0  0  0  0  0  0  0
  -31.5750  -14.9480   19.7390 O   0  0  0  0  0  0  0  0  0  0  0  0
  -29.6490  -15.7310   20.6430 N   0  0  0  0  0  0  0  0  0  0  0  0
  -28.8190  -15.3880   21.0980 H   0  0  0  0  0  0  0  0  0  0  0  0
  -25.0880  -13.8410   20.5340 C   0  0  0  0  0  0  0  0  0  0  0  0
  -24.0620  -13.0260   20.9320 C   0  0  0  0  0  0  0  0  0  0  0  0
  -24.5620  -11.6920   20.8350 C   0  0  0  0  0  0  0  0  0  0  0  0
  -26.1470  -13.0000   20.2270 N   0  0  0  0  0  0  0  0  0  0  0  0
  -25.8370  -11.7030   20.4660 N   0  0  0  0  0  0  0  0  0  0  0  0
  -23.8830  -10.4030   21.0190 C   0  0  0  0  0  0  0  0  0  0  0  0
  -24.3580   -9.4410   21.9390 C   0  0  0  0  0  3  0  0  0  0  0  0
  -23.6780   -8.2170   22.1100 C   0  0  0  0  0  3  0  0  0  0  0  0
  -22.5080   -7.9430   21.3610 C   0  0  0  0  0  0  0  0  0  0  0  0
  -22.0520   -8.8920   20.4290 C   0  0  0  0  0  3  0  0  0  0  0  0
  -22.7340  -10.1090   20.2560 C   0  0  0  0  0  3  0  0  0  0  0  0
  -21.7980   -6.7680   21.4420 O   0  0  0  0  0  0  0  0  0  0  0  0
  -21.7620   -6.0280   22.5950 C   0  0  0  0  0  0  0  0  0  0  0  0
  -21.2340   -6.5520   23.7970 C   0  0  0  0  0  3  0  0  0  0  0  0
  -21.1470   -5.7340   24.9410 C   0  0  0  0  0  3  0  0  0  0  0  0
  -21.5790   -4.3960   24.8860 C   0  0  0  0  0  0  0  0  0  0  0  0
  -22.0950   -3.8720   23.6900 C   0  0  0  0  0  3  0  0  0  0  0  0
  -22.1850   -4.6850   22.5470 C   0  0  0  0  0  0  0  0  0  0  0  0
  -22.6660   -4.1710   21.3900 F   0  0  0  0  0  0  0  0  0  0  0  0
  -21.4890   -3.6070   25.9840 F   0  0  0  0  0  0  0  0  0  0  0  0
  -22.6660  -13.4530   21.2790 C   0  0  0  0  0  0  0  0  0  0  0  0
  -21.9960  -12.7120   22.1560 N   0  0  0  0  0  0  0  0  0  0  0  0
  -22.1790  -14.4820   20.8140 O   0  0  0  0  0  0  0  0  0  0  0  0
  -22.4020  -11.8770   22.5560 H   0  0  0  0  0  0  0  0  0  0  0  0
  -21.0630  -12.9860   22.4290 H   0  0  0  0  0  0  0  0  0  0  0  0
  -25.2070  -15.2190   20.3870 N   0  0  0  0  0  0  0  0  0  0  0  0
  -24.4250  -15.8450   20.5340 H   0  0  0  0  0  0  0  0  0  0  0  0
  -26.0020  -15.6860   19.9770 H   0  0  0  0  0  0  0  0  0  0  0  0
  -28.2580  -24.0920   20.7480 C   0  0  0  0  0  2  0  0  0  0  0  0
  -28.7480  -25.2770   19.8070 C   0  0  0  0  0  2  0  0  0  0  0  0
  -28.6160  -26.6830   20.2740 O   0  0  0  0  0  0  0  0  0  0  0  0
  -24.6490  -31.9050   23.2440 C   0  0  0  0  0  0  0  0  0  0  0  0
  -27.4400  -27.4440   20.1980 C   0  0  0  0  0  0  0  0  0  0  0  0
  -23.5140  -30.5030   21.5550 C   0  0  0  0  0  3  0  0  0  0  0  0
  -25.0320  -28.9960   20.1460 C   0  0  0  0  0  0  0  0  0  0  0  0
  -26.0480  -30.8810   21.4320 C   0  0  0  0  0  2  0  0  0  0  0  0
  -26.1730  -29.5090   20.7760 C   0  0  0  0  0  0  0  0  0  0  0  0
  -27.3740  -28.7440   20.7910 C   0  0  0  0  0  3  0  0  0  0  0  0
  -26.2720  -26.9710   19.5600 C   0  0  0  0  0  3  0  0  0  0  0  0
  -25.0830  -27.7320   19.5300 C   0  0  0  0  0  3  0  0  0  0  0  0
  -23.7760  -29.8450   20.1730 C   0  0  0  0  0  2  0  0  0  0  0  0
  -24.7550  -31.1140   22.1360 N   0  0  0  0  0  0  0  0  0  0  0  0
  -23.5480  -32.1530   23.7550 O   0  0  0  0  0  0  0  0  0  0  0  0
  -22.8490  -29.4610   22.4840 C   0  0  0  0  0  0  0  0  0  0  0  0
  -21.5240  -29.2850   22.3450 N   0  0  0  0  0  0  0  0  0  0  0  0
  -23.5210  -28.8200   23.2950 O   0  0  0  0  0  0  0  0  0  0  0  0
  -21.0410  -29.8560   21.6650 H   0  0  0  0  0  0  0  0  0  0  0  0
  -18.1360  -28.1240   22.8480 C   0  0  0  0  0  0  0  0  0  0  0  0
  -20.7030  -28.3260   23.0840 C   0  0  0  0  0  3  0  0  0  0  0  0
  -20.7690  -26.9200   22.4410 C   0  0  0  0  0  2  0  0  0  0  0  0
  -19.6440  -26.6660   21.4320 C   0  0  0  0  0  2  0  0  0  0  0  0
  -18.2760  -26.8050   22.1070 C   0  0  0  0  0  2  0  0  0  0  0  0
  -19.2770  -28.8450   23.2930 C   0  0  0  0  0  0  0  0  0  0  0  0
  -19.0890  -30.0840   23.9470 C   0  0  0  0  0  3  0  0  0  0  0  0
  -17.7950  -30.5990   24.1580 C   0  0  0  0  0  3  0  0  0  0  0  0
  -16.6710  -29.8730   23.7270 C   0  0  0  0  0  3  0  0  0  0  0  0
  -16.8430  -28.6370   23.0780 C   0  0  0  0  0  3  0  0  0  0  0  0
  -25.9030  -32.5530   23.9080 C   0  0  0  0  0  3  0  0  0  0  0  0
  -25.5750  -33.9550   24.2040 N   0  0  0  0  0  0  0  0  0  0  0  0
  -25.9190  -34.9980   23.4340 C   0  0  0  0  0  0  0  0  0  0  0  0
  -26.6140  -34.8810   22.4210 O   0  0  0  0  0  0  0  0  0  0  0  0
  -24.9610  -34.1200   24.9880 H   0  0  0  0  0  0  0  0  0  0  0  0
  -24.1850  -36.7690   23.0020 C   0  0  0  0  0  1  0  0  0  0  0  0
  -25.4080  -36.3900   23.8540 C   0  0  0  0  0  3  0  0  0  0  0  0
  -27.5040  -37.3160   24.7360 C   0  0  0  0  0  1  0  0  0  0  0  0
  -26.4360  -37.4490   23.7480 N   0  0  0  0  0  0  0  0  0  0  0  0
  -26.0160  -38.3690   23.8570 H   0  0  0  0  0  0  0  0  0  0  0  0
  -26.3700  -31.8060   25.2170 C   0  0  1  0  0  0  0  0  0  0  0  0
  -25.2330  -31.5730   26.2390 C   0  0  0  0  0  1  0  0  0  0  0  0
  -26.9790  -30.4290   24.8690 C   0  0  0  0  0  1  0  0  0  0  0  0
  -27.4850  -32.6180   25.9170 C   0  0  0  0  0  1  0  0  0  0  0  0
  1  3  1  0
  3  9  1  0
  3  2  2  0
  4  1  2  0
  4  5  1  0
  5 49  1  0
  5  6  2  0
  6  2  1  0
  8  7  1  0
  8  4  1  0
 10 19  1  0
 10  9  2  0
 11 19  1  0
 12 17  1  0
 13 14  1  0
 13 12  1  0
 15 14  1  0
 15 24  1  0
 15 16  1  0
 17 11  1  0
 17 16  1  0
 18 11  2  0
 19 20  1  0
 21 22  2  0
 22 41  1  0
 23 22  1  0
 23 26  1  0
 24 25  1  0
 24 21  1  0
 25 23  2  0
 26 27  1  0
 27 28  2  0
 29 32  1  0
 29 28  1  0
 30 29  2  0
 31 30  1  0
 31 26  2  0
 32 33  1  0
 33 34  1  0
 34 35  2  0
 36 35  1  0
 36 40  1  0
 37 36  2  0
 38 33  2  0
 38 37  1  0
 39 38  1  0
 41 42  1  0
 42 45  1  0
 42 44  1  0
 43 41  2  0
 46 47  1  0
 46 21  1  0
 48 46  1  0
 50 51  1  0
 50 49  1  0
 52 63  2  0
 53 51  1  0
 53 58  1  0
 54 62  1  0
 54 64  1  0
 55 61  1  0
 55 57  1  0
 56 62  1  0
 57 58  2  0
 57 56  1  0
 59 53  2  0
 60 59  1  0
 60 55  2  0
 61 54  1  0
 62 52  1  0
 64 66  2  0
 65 64  1  0
 67 65  1  0
 68 77  2  0
 68 73  1  0
 69 65  1  0
 69 73  1  0
 70 69  1  0
 71 72  1  0
 71 70  1  0
 72 68  1  0
 73 74  2  0
 74 75  1  0
 76 75  2  0
 77 76  1  0
 78 52  1  0
 78 79  1  0
 78 88  1  0
 79 82  1  0
 80 84  1  0
 80 79  1  0
 81 80  2  0
 84 83  1  0
 86 84  1  0
 86 87  1  0
 86 85  1  0
 88 91  1  1
 88 89  1  0
 90 88  1  0
M  ISO  4  11 100  19 100  50 101  51 101
M  END
>  <TORSDO>  (77) 
F 21

>  <SCORE>  (77) 
-13.307

>  <name>  (77) 
77

>  <ligand_id>  (77) 
77

>  <original_smiles>  (77) 
[H]c1nc(C([H])([H])C([H])([H])Oc2c([H])c([H])c3c(c2[H])C([H])([H])N(C(=O)C([H])(N([H])C(=O)C([H])(N([H])C([H])([H])[H])C([H])([H])[H])C(C([H])([H])[H])(C([H])([H])[H])C([H])([H])[H])C([H])(C(=O)N([H])C2([H])c4c([H])c([H])c([H])c([H])c4C([H])([H])C([H])([H])C2([H])[H])C3([H])[H])c(C([H])([H])C([H])([H])[H])c([H])c1C([H])([H])C([H])([H])N([H])C(=O)N1C([H])([H])C([H])([H])C([H])([H])C([H])(n2nc(-c3c([H])c([H])c(Oc4c([H])c([H])c(F)c([H])c4F)c([H])c3[H])c(C(=O)N([H])[H])c2N([H])[H])C1([H])[H]

>  <smiles>  (77) 
[H]c1nc(C([H])([H])C([H])([H])Oc2c([H])c([H])c3c(c2[H])C([H])([H])N(C(=O)C([H])(N([H])C(=O)C([H])(N([H])C([H])([H])[H])C([H])([H])[H])C(C([H])([H])[H])(C([H])([H])[H])C([H])([H])[H])C([H])(C(=O)N([H])C2([H])c4c([H])c([H])c([H])c([H])c4C([H])([H])C([H])([H])C2([H])[H])C3([H])[H])c(C([H])([H])C([H])([H])[H])c([H])c1C([H])([H])C([H])([H])N([H])C(=O)N1C([H])([H])C([H])([H])C([H])([H])C([H])(n2nc(-c3c([H])c([H])c(Oc4c([H])c([H])c(F)c([H])c4F)c([H])c3[H])c(C(=O)N([H])[H])c2N([H])[H])C1([H])[H]

$$$$
78:0:0
     RDKit          3D

 96104  0  0  1  0  0  0  0  0999 V2000
  -27.5750  -25.2710   17.0110 C   0  0  0  0  0  3  0  0  0  0  0  0
  -28.0260  -24.2120   19.1480 C   0  0  0  0  0  3  0  0  0  0  0  0
  -28.2080  -25.2880   18.2670 C   0  0  0  0  0  0  0  0  0  0  0  0
  -26.7140  -24.2100   16.6560 C   0  0  0  0  0  0  0  0  0  0  0  0
  -27.1280  -23.1710   18.8410 C   0  0  0  0  0  0  0  0  0  0  0  0
  -26.4460  -23.1720   17.5920 C   0  0  0  0  0  0  0  0  0  0  0  0
  -26.1040  -24.2180   15.2640 C   0  0  0  0  0  1  0  0  0  0  0  0
  -25.4330  -22.0750   17.2710 C   0  0  0  0  0  1  0  0  0  0  0  0
  -26.9520  -22.0740   19.8820 C   0  0  0  0  0  2  0  0  0  0  0  0
  -27.8670  -20.9660   19.5690 N   0  0  0  0  0  4  0  0  0  0  0  0
  -28.7720  -21.3710   19.3700 H   0  0  0  0  0  0  0  0  0  0  0  0
  -27.5430  -20.5420   18.7150 H   0  0  0  0  0  0  0  0  0  0  0  0
  -28.0350  -19.9370   20.6240 C   0  0  0  0  0  2  0  0  0  0  0  0
  -28.9020  -18.8020   20.0510 C   0  0  0  0  0  2  0  0  0  0  0  0
  -29.4350  -17.7490   21.0330 C   0  0  0  0  0  2  0  0  0  0  0  0
  -30.2810  -16.7560   20.2230 C   0  0  0  0  0  2  0  0  0  0  0  0
  -31.1430  -14.5150   20.2240 C   0  0  0  0  0  0  0  0  0  0  0  0
  -30.6810  -12.4970   18.9090 C   0  0  0  0  0  2  0  0  0  0  0  0
  -29.7010  -12.8500   17.7710 C   0  0  0  0  0  2  0  0  0  0  0  0
  -28.2390  -12.7440   18.2490 C   0  0  0  0  0  2  0  0  0  0  0  0
  -27.9920  -13.4990   19.5800 C   0  0  0  0  0  3  0  0  0  0  0  0
  -29.0730  -13.1380   20.6280 C   0  0  0  0  0  2  0  0  0  0  0  0
  -30.4040  -13.3950   20.0420 N   0  0  0  0  0  0  0  0  0  0  0  0
  -32.2020  -14.7450   19.6270 O   0  0  0  0  0  0  0  0  0  0  0  0
  -30.5310  -15.4910   20.8990 N   0  0  0  0  0  0  0  0  0  0  0  0
  -30.5920  -15.4610   21.9100 H   0  0  0  0  0  0  0  0  0  0  0  0
  -25.6180  -14.1540   20.3530 C   0  0  0  0  0  0  0  0  0  0  0  0
  -24.5420  -13.3940   20.7370 C   0  0  0  0  0  0  0  0  0  0  0  0
  -24.9750  -12.0360   20.6790 C   0  0  0  0  0  0  0  0  0  0  0  0
  -26.6420  -13.2520   20.0890 N   0  0  0  0  0  0  0  0  0  0  0  0
  -26.2550  -11.9730   20.3340 N   0  0  0  0  0  0  0  0  0  0  0  0
  -24.2300  -10.7860   20.8810 C   0  0  0  0  0  0  0  0  0  0  0  0
  -24.6160   -9.8460   21.8600 C   0  0  0  0  0  3  0  0  0  0  0  0
  -23.8780   -8.6570   22.0440 C   0  0  0  0  0  3  0  0  0  0  0  0
  -22.7340   -8.4040   21.2520 C   0  0  0  0  0  0  0  0  0  0  0  0
  -22.3680   -9.3380   20.2660 C   0  0  0  0  0  3  0  0  0  0  0  0
  -23.1050  -10.5180   20.0820 C   0  0  0  0  0  3  0  0  0  0  0  0
  -21.9610   -7.2710   21.3430 O   0  0  0  0  0  0  0  0  0  0  0  0
  -21.7870   -6.6130   22.5360 C   0  0  0  0  0  0  0  0  0  0  0  0
  -21.2420   -7.2540   23.6700 C   0  0  0  0  0  3  0  0  0  0  0  0
  -21.0270   -6.5190   24.8540 C   0  0  0  0  0  3  0  0  0  0  0  0
  -21.3400   -5.1490   24.9010 C   0  0  0  0  0  0  0  0  0  0  0  0
  -21.8730   -4.5100   23.7680 C   0  0  0  0  0  3  0  0  0  0  0  0
  -22.0940   -5.2390   22.5890 C   0  0  0  0  0  0  0  0  0  0  0  0
  -22.5890   -4.6150   21.4940 F   0  0  0  0  0  0  0  0  0  0  0  0
  -21.1190   -4.4410   26.0320 F   0  0  0  0  0  0  0  0  0  0  0  0
  -23.1620  -13.8980   21.0520 C   0  0  0  0  0  0  0  0  0  0  0  0
  -22.4440  -13.2120   21.9390 N   0  0  0  0  0  0  0  0  0  0  0  0
  -22.7250  -14.9290   20.5490 O   0  0  0  0  0  0  0  0  0  0  0  0
  -22.8100  -12.3780   22.3680 H   0  0  0  0  0  0  0  0  0  0  0  0
  -21.5140  -13.5210   22.1830 H   0  0  0  0  0  0  0  0  0  0  0  0
  -25.8080  -15.5220   20.1940 N   0  0  0  0  0  0  0  0  0  0  0  0
  -25.0500  -16.1850   20.3260 H   0  0  0  0  0  0  0  0  0  0  0  0
  -26.6660  -15.9510   19.8730 H   0  0  0  0  0  0  0  0  0  0  0  0
  -29.0000  -26.4990   18.7380 C   0  0  0  0  0  2  0  0  0  0  0  0
  -28.6020  -26.9760   20.0310 O   0  0  0  0  0  0  0  0  0  0  0  0
  -24.7540  -32.0010   23.3040 C   0  0  0  0  0  0  0  0  0  0  0  0
  -27.3990  -27.6430   20.1070 C   0  0  0  0  0  0  0  0  0  0  0  0
  -23.5330  -30.6040   21.6710 C   0  0  0  0  0  3  0  0  0  0  0  0
  -24.9770  -29.0990   20.2140 C   0  0  0  0  0  0  0  0  0  0  0  0
  -26.0540  -30.9870   21.4350 C   0  0  0  0  0  2  0  0  0  0  0  0
  -26.1410  -29.6250   20.7850 C   0  0  0  0  0  0  0  0  0  0  0  0
  -27.3520  -28.9010   20.7450 C   0  0  0  0  0  3  0  0  0  0  0  0
  -26.2020  -27.1070   19.5790 C   0  0  0  0  0  3  0  0  0  0  0  0
  -24.9970  -27.8260   19.6250 C   0  0  0  0  0  3  0  0  0  0  0  0
  -23.7310  -29.9490   20.2810 C   0  0  0  0  0  2  0  0  0  0  0  0
  -24.8000  -31.2130   22.1930 N   0  0  0  0  0  0  0  0  0  0  0  0
  -23.6790  -32.2530   23.8650 O   0  0  0  0  0  0  0  0  0  0  0  0
  -22.9080  -29.5580   22.6250 C   0  0  0  0  0  0  0  0  0  0  0  0
  -21.5910  -29.3340   22.4890 N   0  0  0  0  0  0  0  0  0  0  0  0
  -23.6060  -28.9510   23.4420 O   0  0  0  0  0  0  0  0  0  0  0  0
  -21.0850  -29.8830   21.8040 H   0  0  0  0  0  0  0  0  0  0  0  0
  -18.2550  -28.0290   22.9460 C   0  0  0  0  0  0  0  0  0  0  0  0
  -20.7940  -28.3810   23.2640 C   0  0  0  0  0  3  0  0  0  0  0  0
  -20.9600  -26.9420   22.7240 C   0  0  0  0  0  2  0  0  0  0  0  0
  -19.8930  -26.5590   21.6940 C   0  0  0  0  0  2  0  0  0  0  0  0
  -18.4950  -26.6720   22.3080 C   0  0  0  0  0  2  0  0  0  0  0  0
  -19.3340  -28.8360   23.3860 C   0  0  0  0  0  0  0  0  0  0  0  0
  -19.0640  -30.1040   23.9440 C   0  0  0  0  0  3  0  0  0  0  0  0
  -17.7360  -30.5600   24.0780 C   0  0  0  0  0  3  0  0  0  0  0  0
  -16.6670  -29.7450   23.6620 C   0  0  0  0  0  3  0  0  0  0  0  0
  -16.9280  -28.4850   23.0960 C   0  0  0  0  0  3  0  0  0  0  0  0
  -26.0450  -32.6390   23.9050 C   0  0  0  0  0  3  0  0  0  0  0  0
  -25.7240  -34.0230   24.2710 N   0  0  0  0  0  0  0  0  0  0  0  0
  -26.0000  -35.0920   23.5150 C   0  0  0  0  0  0  0  0  0  0  0  0
  -26.6270  -35.0210   22.4540 O   0  0  0  0  0  0  0  0  0  0  0  0
  -25.1620  -34.1560   25.0990 H   0  0  0  0  0  0  0  0  0  0  0  0
  -24.2170  -36.8480   23.2700 C   0  0  0  0  0  1  0  0  0  0  0  0
  -25.5010  -36.4620   24.0170 C   0  0  0  0  0  3  0  0  0  0  0  0
  -27.6500  -37.3840   24.7690 C   0  0  0  0  0  1  0  0  0  0  0  0
  -26.5040  -37.5400   23.8760 N   0  0  0  0  0  0  0  0  0  0  0  0
  -26.0840  -38.4470   24.0620 H   0  0  0  0  0  0  0  0  0  0  0  0
  -26.6030  -31.8500   25.1500 C   0  0  1  0  0  0  0  0  0  0  0  0
  -25.5410  -31.5710   26.2380 C   0  0  0  0  0  1  0  0  0  0  0  0
  -27.2020  -30.4930   24.7120 C   0  0  0  0  0  1  0  0  0  0  0  0
  -27.7570  -32.6500   25.7990 C   0  0  0  0  0  1  0  0  0  0  0  0
  1  3  1  0
  3 55  1  0
  3  2  2  0
  4  1  2  0
  4  6  1  0
  5  2  1  0
  5  9  1  0
  6  5  2  0
  7  4  1  0
  8  6  1  0
 10  9  1  0
 10 13  1  0
 11 10  1  0
 12 10  1  0
 14 13  1  0
 14 15  1  0
 16 25  1  0
 16 15  1  0
 17 25  1  0
 18 23  1  0
 19 20  1  0
 19 18  1  0
 21 20  1  0
 21 30  1  0
 21 22  1  0
 23 17  1  0
 23 22  1  0
 24 17  2  0
 25 26  1  0
 27 28  2  0
 28 47  1  0
 29 28  1  0
 29 32  1  0
 30 31  1  0
 30 27  1  0
 31 29  2  0
 32 33  1  0
 33 34  2  0
 35 38  1  0
 35 34  1  0
 36 35  2  0
 37 36  1  0
 37 32  2  0
 38 39  1  0
 39 44  2  0
 39 40  1  0
 40 41  2  0
 41 42  1  0
 42 46  1  0
 43 42  2  0
 44 43  1  0
 45 44  1  0
 47 48  1  0
 48 51  1  0
 48 50  1  0
 49 47  2  0
 52 53  1  0
 52 27  1  0
 54 52  1  0
 55 56  1  0
 56 58  1  0
 57 68  2  0
 58 63  1  0
 59 67  1  0
 59 69  1  0
 60 66  1  0
 60 62  1  0
 61 67  1  0
 62 61  1  0
 63 62  2  0
 64 65  1  0
 64 58  2  0
 65 60  2  0
 66 59  1  0
 67 57  1  0
 69 71  2  0
 70 69  1  0
 72 70  1  0
 73 82  2  0
 73 78  1  0
 74 70  1  0
 74 78  1  0
 75 74  1  0
 76 77  1  0
 76 75  1  0
 77 73  1  0
 78 79  2  0
 79 80  1  0
 81 80  2  0
 82 81  1  0
 83 57  1  0
 83 84  1  0
 83 93  1  0
 84 87  1  0
 85 89  1  0
 85 84  1  0
 86 85  2  0
 89 88  1  0
 91 89  1  0
 91 92  1  0
 91 90  1  0
 93 96  1  1
 93 94  1  0
 95 93  1  0
M  ISO  4  17 100  25 100  55 101  56 101
M  END
>  <TORSDO>  (78) 
F 23

>  <SCORE>  (78) 
-10.500

>  <name>  (78) 
78

>  <ligand_id>  (78) 
78

>  <original_smiles>  (78) 
[H]c1c([H])c([H])c2c(c1[H])C([H])([H])C([H])([H])C([H])([H])C2([H])N([H])C(=O)C1([H])N(C(=O)C([H])(N([H])C(=O)C([H])(N([H])C([H])([H])[H])C([H])([H])[H])C(C([H])([H])[H])(C([H])([H])[H])C([H])([H])[H])C([H])([H])c2c([H])c(OC([H])([H])c3c([H])c(C([H])([H])[H])c(C([H])([H])[H])c(C([H])([H])[N+]([H])([H])C([H])([H])C([H])([H])C([H])([H])C([H])([H])N([H])C(=O)N4C([H])([H])C([H])([H])C([H])([H])C([H])(n5nc(-c6c([H])c([H])c(Oc7c([H])c([H])c(F)c([H])c7F)c([H])c6[H])c(C(=O)N([H])[H])c5N([H])[H])C4([H])[H])c3[H])c([H])c([H])c2C1([H])[H]

>  <smiles>  (78) 
[H]c1c([H])c([H])c2c(c1[H])C([H])([H])C([H])([H])C([H])([H])C2([H])N([H])C(=O)C1([H])N(C(=O)C([H])(N([H])C(=O)C([H])(N([H])C([H])([H])[H])C([H])([H])[H])C(C([H])([H])[H])(C([H])([H])[H])C([H])([H])[H])C([H])([H])c2c([H])c(OC([H])([H])c3c([H])c(C([H])([H])[H])c(C([H])([H])[H])c(C([H])([H])[N+]([H])([H])C([H])([H])C([H])([H])C([H])([H])C([H])([H])N([H])C(=O)N4C([H])([H])C([H])([H])C([H])([H])C([H])(n5nc(-c6c([H])c([H])c(Oc7c([H])c([H])c(F)c([H])c7F)c([H])c6[H])c(C(=O)N([H])[H])c5N([H])[H])C4([H])[H])c3[H])c([H])c([H])c2C1([H])[H]

$$$$
79:0:0
     RDKit          3D

 94102  0  0  1  0  0  0  0  0999 V2000
  -30.0390  -20.4310   21.8910 C   0  0  0  0  0  3  0  0  0  0  0  0
  -28.3510  -19.9160   19.8000 C   0  0  0  0  0  3  0  0  0  0  0  0
  -29.8900  -19.0810   21.4840 C   0  0  0  0  0  0  0  0  0  0  0  0
  -29.4150  -21.5350   21.2530 C   0  0  0  0  0  0  0  0  0  0  0  0
  -28.4340  -21.3460   20.2380 C   0  0  0  0  0  0  0  0  0  0  0  0
  -29.0990  -18.7410   20.3620 C   0  0  0  0  0  0  0  0  0  0  0  0
  -30.6830  -18.0230   22.2310 C   0  0  0  0  0  1  0  0  0  0  0  0
  -27.7470  -22.6980   19.5290 C   0  0  0  0  0  2  0  0  0  0  0  0
  -27.1300  -24.1280   20.2320 C   0  0  0  0  0  2  0  0  0  0  0  0
  -27.5100  -25.6230   19.9210 O   0  0  0  0  0  0  0  0  0  0  0  0
  -24.7360  -31.4800   23.5160 C   0  0  0  0  0  0  0  0  0  0  0  0
  -26.5790  -26.7280   20.0240 C   0  0  0  0  0  0  0  0  0  0  0  0
  -23.3130  -30.3870   21.8270 C   0  0  0  0  0  3  0  0  0  0  0  0
  -24.4980  -28.7600   20.2230 C   0  0  0  0  0  0  0  0  0  0  0  0
  -25.8740  -30.3370   21.5730 C   0  0  0  0  0  2  0  0  0  0  0  0
  -25.7450  -29.0000   20.8160 C   0  0  0  0  0  0  0  0  0  0  0  0
  -26.7880  -28.0020   20.6970 C   0  0  0  0  0  3  0  0  0  0  0  0
  -25.3200  -26.6010   19.3990 C   0  0  0  0  0  3  0  0  0  0  0  0
  -24.3010  -27.5760   19.4960 C   0  0  0  0  0  3  0  0  0  0  0  0
  -23.4010  -29.8020   20.3900 C   0  0  0  0  0  2  0  0  0  0  0  0
  -24.6660  -30.7500   22.3610 N   0  0  0  0  0  0  0  0  0  0  0  0
  -23.7130  -31.8550   24.1100 O   0  0  0  0  0  0  0  0  0  0  0  0
  -22.5420  -29.3970   22.7370 C   0  0  0  0  0  0  0  0  0  0  0  0
  -21.2050  -29.3480   22.5960 N   0  0  0  0  0  0  0  0  0  0  0  0
  -23.1510  -28.6790   23.5340 O   0  0  0  0  0  0  0  0  0  0  0  0
  -20.7770  -29.9790   21.9330 H   0  0  0  0  0  0  0  0  0  0  0  0
  -17.7410  -28.3420   22.9420 C   0  0  0  0  0  0  0  0  0  0  0  0
  -20.2980  -28.4500   23.3150 C   0  0  0  0  0  3  0  0  0  0  0  0
  -20.3370  -27.0230   22.7200 C   0  0  0  0  0  2  0  0  0  0  0  0
  -19.2620  -26.7800   21.6570 C   0  0  0  0  0  2  0  0  0  0  0  0
  -17.8660  -26.9970   22.2470 C   0  0  0  0  0  2  0  0  0  0  0  0
  -18.8840  -29.0320   23.4280 C   0  0  0  0  0  0  0  0  0  0  0  0
  -18.7120  -30.2940   24.0360 C   0  0  0  0  0  3  0  0  0  0  0  0
  -17.4310  -30.8640   24.1650 C   0  0  0  0  0  3  0  0  0  0  0  0
  -16.3030  -30.1720   23.6940 C   0  0  0  0  0  3  0  0  0  0  0  0
  -16.4590  -28.9120   23.0890 C   0  0  0  0  0  3  0  0  0  0  0  0
  -26.1040  -31.8970   24.1370 C   0  0  0  0  0  3  0  0  0  0  0  0
  -25.9730  -33.2780   24.6290 N   0  0  0  0  0  0  0  0  0  0  0  0
  -26.4590  -34.3600   24.0070 C   0  0  0  0  0  0  0  0  0  0  0  0
  -27.1300  -34.2920   22.9750 O   0  0  0  0  0  0  0  0  0  0  0  0
  -25.3910  -33.4140   25.4410 H   0  0  0  0  0  0  0  0  0  0  0  0
  -25.0110  -36.4150   23.8530 C   0  0  0  0  0  1  0  0  0  0  0  0
  -26.1520  -35.7390   24.6290 C   0  0  0  0  0  3  0  0  0  0  0  0
  -28.3530  -36.2110   25.6110 C   0  0  0  0  0  1  0  0  0  0  0  0
  -27.3230  -36.6410   24.6700 N   0  0  0  0  0  0  0  0  0  0  0  0
  -27.0410  -37.5850   24.9180 H   0  0  0  0  0  0  0  0  0  0  0  0
  -26.5730  -30.9410   25.3030 C   0  0  1  0  0  0  0  0  0  0  0  0
  -25.5070  -30.7260   26.4030 C   0  0  0  0  0  1  0  0  0  0  0  0
  -26.9610  -29.5500   24.7510 C   0  0  0  0  0  1  0  0  0  0  0  0
  -27.8440  -31.5150   25.9730 C   0  0  0  0  0  1  0  0  0  0  0  0
  -29.9480  -22.9200   21.6370 C   0  0  0  0  0  2  0  0  0  0  0  0
  -32.3010  -23.3010   20.7360 C   0  0  0  0  0  1  0  0  0  0  0  0
  -30.4300  -23.2940   19.0910 C   0  0  0  0  0  1  0  0  0  0  0  0
  -30.6540  -25.1760   20.7200 C   0  0  0  0  0  1  0  0  0  0  0  0
  -30.8130  -23.6520   20.5480 C   0  0  1  0  0  0  0  0  0  0  0  0
  -29.1990  -17.2030   19.7300 C   0  0  0  0  0  2  0  0  0  0  0  0
  -30.0820  -14.6270   20.3010 C   0  0  0  0  0  0  0  0  0  0  0  0
  -30.1030  -12.1930   19.5800 C   0  0  0  0  0  2  0  0  0  0  0  0
  -29.1680  -12.0030   18.3610 C   0  0  0  0  0  2  0  0  0  0  0  0
  -27.7150  -11.7640   18.8130 C   0  0  0  0  0  2  0  0  0  0  0  0
  -27.2730  -12.7360   19.9400 C   0  0  0  0  0  3  0  0  0  0  0  0
  -28.3390  -12.8850   21.0490 C   0  0  0  0  0  2  0  0  0  0  0  0
  -29.5800  -13.3250   20.4000 N   0  0  0  0  0  0  0  0  0  0  0  0
  -31.2500  -14.7400   19.9160 O   0  0  0  0  0  0  0  0  0  0  0  0
  -29.2360  -15.7670   20.4260 N   0  0  0  0  0  0  0  0  0  0  0  0
  -28.3530  -15.5290   20.8510 H   0  0  0  0  0  0  0  0  0  0  0  0
  -24.9160  -13.2440   20.7980 C   0  0  0  0  0  0  0  0  0  0  0  0
  -23.8810  -12.4380   21.1830 C   0  0  0  0  0  0  0  0  0  0  0  0
  -24.3620  -11.0980   21.0820 C   0  0  0  0  0  0  0  0  0  0  0  0
  -25.9620  -12.3930   20.4790 N   0  0  0  0  0  0  0  0  0  0  0  0
  -25.6410  -11.0920   20.7170 N   0  0  0  0  0  0  0  0  0  0  0  0
  -23.6600   -9.8160   21.2560 C   0  0  0  0  0  0  0  0  0  0  0  0
  -24.1550   -8.8110   22.1160 C   0  0  0  0  0  3  0  0  0  0  0  0
  -23.4510   -7.6000   22.2830 C   0  0  0  0  0  3  0  0  0  0  0  0
  -22.2350   -7.3840   21.5890 C   0  0  0  0  0  0  0  0  0  0  0  0
  -21.7580   -8.3800   20.7190 C   0  0  0  0  0  3  0  0  0  0  0  0
  -22.4640   -9.5820   20.5500 C   0  0  0  0  0  3  0  0  0  0  0  0
  -21.4970   -6.2290   21.6710 O   0  0  0  0  0  0  0  0  0  0  0  0
  -21.5590   -5.4080   22.7690 C   0  0  0  0  0  0  0  0  0  0  0  0
  -21.1740   -5.8530   24.0520 C   0  0  0  0  0  3  0  0  0  0  0  0
  -21.1850   -4.9570   25.1390 C   0  0  0  0  0  3  0  0  0  0  0  0
  -21.5720   -3.6170   24.9460 C   0  0  0  0  0  0  0  0  0  0  0  0
  -21.9480   -3.1710   23.6670 C   0  0  0  0  0  3  0  0  0  0  0  0
  -21.9380   -4.0640   22.5800 C   0  0  0  0  0  0  0  0  0  0  0  0
  -22.2810   -3.6220   21.3470 F   0  0  0  0  0  0  0  0  0  0  0  0
  -21.5750   -2.7550   25.9890 F   0  0  0  0  0  0  0  0  0  0  0  0
  -22.4880  -12.8840   21.5270 C   0  0  0  0  0  0  0  0  0  0  0  0
  -21.8060  -12.1480   22.3980 N   0  0  0  0  0  0  0  0  0  0  0  0
  -22.0150  -13.9180   21.0570 O   0  0  0  0  0  0  0  0  0  0  0  0
  -22.2060  -11.3140   22.8020 H   0  0  0  0  0  0  0  0  0  0  0  0
  -20.8720  -12.4250   22.6670 H   0  0  0  0  0  0  0  0  0  0  0  0
  -25.0540  -14.6220   20.6650 N   0  0  0  0  0  0  0  0  0  0  0  0
  -24.2940  -15.2630   20.8630 H   0  0  0  0  0  0  0  0  0  0  0  0
  -25.8710  -15.0800   20.2820 H   0  0  0  0  0  0  0  0  0  0  0  0
  2  5  2  0
  2  6  1  0
  3  1  1  0
  3  7  1  0
  4 51  1  0
  4  1  2  0
  5  4  1  0
  6  3  2  0
  8  9  1  0
  8  5  1  0
 10 12  1  0
 10  9  1  0
 11 22  2  0
 12 17  1  0
 13 21  1  0
 13 23  1  0
 14 20  1  0
 14 16  1  0
 15 21  1  0
 16 15  1  0
 17 16  2  0
 18 19  1  0
 18 12  2  0
 19 14  2  0
 20 13  1  0
 21 11  1  0
 23 25  2  0
 24 23  1  0
 26 24  1  0
 27 36  2  0
 27 32  1  0
 28 24  1  0
 28 32  1  0
 29 28  1  0
 30 31  1  0
 30 29  1  0
 31 27  1  0
 32 33  2  0
 33 34  1  0
 35 34  2  0
 36 35  1  0
 37 11  1  0
 37 38  1  0
 37 47  1  0
 38 41  1  0
 39 38  1  0
 39 43  1  0
 40 39  2  0
 43 42  1  0
 43 45  1  0
 45 46  1  0
 45 44  1  0
 47 50  1  1
 47 48  1  0
 49 47  1  0
 55 53  1  6
 55 54  1  0
 55 52  1  0
 55 51  1  0
 56  6  1  0
 56 65  1  0
 57 63  1  0
 57 65  1  0
 58 63  1  0
 59 60  1  0
 59 58  1  0
 61 60  1  0
 61 70  1  0
 61 62  1  0
 63 62  1  0
 64 57  2  0
 65 66  1  0
 67 68  2  0
 68 87  1  0
 69 68  1  0
 69 72  1  0
 70 71  1  0
 70 67  1  0
 71 69  2  0
 72 73  1  0
 73 74  2  0
 75 78  1  0
 75 74  1  0
 76 75  2  0
 77 76  1  0
 77 72  2  0
 78 79  1  0
 79 80  1  0
 80 81  2  0
 82 81  1  0
 82 86  1  0
 83 82  2  0
 84 79  2  0
 84 83  1  0
 85 84  1  0
 87 88  1  0
 88 91  1  0
 88 90  1  0
 89 87  2  0
 92 67  1  0
 92 93  1  0
 94 92  1  0
M  ISO  4   9 101  10 101  57 100  65 100
M  END
>  <TORSDO>  (79) 
F 21

>  <SCORE>  (79) 
-11.337

>  <name>  (79) 
79

>  <ligand_id>  (79) 
79

>  <original_smiles>  (79) 
[H]c1c([H])c([H])c2c(c1[H])C([H])([H])C([H])([H])C([H])([H])C2([H])N([H])C(=O)C1([H])N(C(=O)C([H])(N([H])C(=O)C([H])(N([H])C([H])([H])[H])C([H])([H])[H])C(C([H])([H])[H])(C([H])([H])[H])C([H])([H])[H])C([H])([H])c2c([H])c(OC([H])([H])C([H])([H])c3c([H])c(C([H])([H])N([H])C(=O)N4C([H])([H])C([H])([H])C([H])([H])C([H])(n5nc(-c6c([H])c([H])c(Oc7c([H])c([H])c(F)c([H])c7F)c([H])c6[H])c(C(=O)N([H])[H])c5N([H])[H])C4([H])[H])c(C([H])([H])[H])c([H])c3C([H])([H])C(C([H])([H])[H])(C([H])([H])[H])C([H])([H])[H])c([H])c([H])c2C1([H])[H]

>  <smiles>  (79) 
[H]c1c([H])c([H])c2c(c1[H])C([H])([H])C([H])([H])C([H])([H])C2([H])N([H])C(=O)C1([H])N(C(=O)C([H])(N([H])C(=O)C([H])(N([H])C([H])([H])[H])C([H])([H])[H])C(C([H])([H])[H])(C([H])([H])[H])C([H])([H])[H])C([H])([H])c2c([H])c(OC([H])([H])C([H])([H])c3c([H])c(C([H])([H])N([H])C(=O)N4C([H])([H])C([H])([H])C([H])([H])C([H])(n5nc(-c6c([H])c([H])c(Oc7c([H])c([H])c(F)c([H])c7F)c([H])c6[H])c(C(=O)N([H])[H])c5N([H])[H])C4([H])[H])c(C([H])([H])[H])c([H])c3C([H])([H])C(C([H])([H])[H])(C([H])([H])[H])C([H])([H])[H])c([H])c([H])c2C1([H])[H]

$$$$
80:0:0
     RDKit          3D

 94102  0  0  1  0  0  0  0  0999 V2000
  -29.6010  -20.3250   18.4030 C   0  0  0  0  0  3  0  0  0  0  0  0
  -29.9890  -22.4460   20.1910 C   0  0  0  0  0  3  0  0  0  0  0  0
  -28.9950  -21.5730   18.1400 C   0  0  0  0  0  0  0  0  0  0  0  0
  -30.3970  -20.1310   19.5500 C   0  0  0  0  0  0  0  0  0  0  0  0
  -29.1880  -22.6490   19.0460 C   0  0  0  0  0  0  0  0  0  0  0  0
  -30.5980  -21.2060   20.4430 C   0  0  0  0  0  0  0  0  0  0  0  0
  -28.1370  -21.7110   16.8930 C   0  0  0  0  0  1  0  0  0  0  0  0
  -31.5960  -21.0450   21.8450 Cl  0  0  0  0  0  0  0  0  0  0  0  0
  -31.0740  -18.7880   19.7850 C   0  0  0  0  0  2  0  0  0  0  0  0
  -30.4380  -17.9360   20.9040 C   0  0  0  0  0  2  0  0  0  0  0  0
  -31.5100  -17.1220   21.6530 C   0  0  0  0  0  2  0  0  0  0  0  0
  -31.0340  -15.8370   22.3480 C   0  0  0  0  0  2  0  0  0  0  0  0
  -30.7300  -14.2790   20.3620 C   0  0  0  0  0  0  0  0  0  0  0  0
  -30.2830  -12.3290   18.9040 C   0  0  0  0  0  2  0  0  0  0  0  0
  -29.2830  -12.6460   17.7750 C   0  0  0  0  0  2  0  0  0  0  0  0
  -27.8260  -12.5070   18.2590 C   0  0  0  0  0  2  0  0  0  0  0  0
  -27.5750  -13.2520   19.5950 C   0  0  0  0  0  3  0  0  0  0  0  0
  -28.6560  -12.8750   20.6260 C   0  0  0  0  0  2  0  0  0  0  0  0
  -29.9770  -13.1970   20.0480 N   0  0  0  0  0  0  0  0  0  0  0  0
  -31.7300  -14.6260   19.7210 O   0  0  0  0  0  0  0  0  0  0  0  0
  -30.3340  -14.8850   21.4910 N   0  0  0  0  0  0  0  0  0  0  0  0
  -29.4950  -14.4880   21.8880 H   0  0  0  0  0  0  0  0  0  0  0  0
  -25.2020  -13.8780   20.3770 C   0  0  0  0  0  0  0  0  0  0  0  0
  -24.1410  -13.1100   20.7820 C   0  0  0  0  0  0  0  0  0  0  0  0
  -24.5950  -11.7580   20.7360 C   0  0  0  0  0  0  0  0  0  0  0  0
  -26.2330  -12.9910   20.1120 N   0  0  0  0  0  0  0  0  0  0  0  0
  -25.8730  -11.7090   20.3820 N   0  0  0  0  0  0  0  0  0  0  0  0
  -23.8700  -10.5000   20.9500 C   0  0  0  0  0  0  0  0  0  0  0  0
  -24.3230   -9.5340   21.8770 C   0  0  0  0  0  3  0  0  0  0  0  0
  -23.5970   -8.3400   22.0770 C   0  0  0  0  0  3  0  0  0  0  0  0
  -22.4070   -8.1040   21.3500 C   0  0  0  0  0  0  0  0  0  0  0  0
  -21.9750   -9.0560   20.4110 C   0  0  0  0  0  3  0  0  0  0  0  0
  -22.7010  -10.2420   20.2080 C   0  0  0  0  0  3  0  0  0  0  0  0
  -21.6500   -6.9620   21.4620 O   0  0  0  0  0  0  0  0  0  0  0  0
  -21.6220   -6.2260   22.6180 C   0  0  0  0  0  0  0  0  0  0  0  0
  -21.2260   -6.7890   23.8510 C   0  0  0  0  0  3  0  0  0  0  0  0
  -21.1450   -5.9800   25.0020 C   0  0  0  0  0  3  0  0  0  0  0  0
  -21.4490   -4.6080   24.9210 C   0  0  0  0  0  0  0  0  0  0  0  0
  -21.8390   -4.0450   23.6940 C   0  0  0  0  0  3  0  0  0  0  0  0
  -21.9220   -4.8500   22.5450 C   0  0  0  0  0  0  0  0  0  0  0  0
  -22.2770   -4.2980   21.3600 F   0  0  0  0  0  0  0  0  0  0  0  0
  -21.3640   -3.8280   26.0240 F   0  0  0  0  0  0  0  0  0  0  0  0
  -22.7580  -13.5950   21.0990 C   0  0  0  0  0  0  0  0  0  0  0  0
  -22.0550  -12.8970   21.9860 N   0  0  0  0  0  0  0  0  0  0  0  0
  -22.3070  -14.6250   20.5990 O   0  0  0  0  0  0  0  0  0  0  0  0
  -22.4310  -12.0620   22.4080 H   0  0  0  0  0  0  0  0  0  0  0  0
  -21.1250  -13.2020   22.2420 H   0  0  0  0  0  0  0  0  0  0  0  0
  -25.3660  -15.2480   20.1980 N   0  0  0  0  0  0  0  0  0  0  0  0
  -24.6090  -15.9060   20.3470 H   0  0  0  0  0  0  0  0  0  0  0  0
  -26.2080  -15.6860   19.8450 H   0  0  0  0  0  0  0  0  0  0  0  0
  -28.5490  -24.0280   18.8680 C   0  0  0  0  0  2  0  0  0  0  0  0
  -29.5830  -25.1600   18.6940 C   0  0  0  0  0  2  0  0  0  0  0  0
  -28.9870  -26.5720   18.8180 C   0  0  0  0  0  2  0  0  0  0  0  0
  -28.5000  -26.8180   20.1410 O   0  0  0  0  0  0  0  0  0  0  0  0
  -24.6060  -31.9220   23.2610 C   0  0  0  0  0  0  0  0  0  0  0  0
  -27.3140  -27.5050   20.1960 C   0  0  0  0  0  0  0  0  0  0  0  0
  -23.4220  -30.4980   21.6230 C   0  0  0  0  0  3  0  0  0  0  0  0
  -24.8940  -28.9550   20.2290 C   0  0  0  0  0  0  0  0  0  0  0  0
  -25.9490  -30.8670   21.4520 C   0  0  0  0  0  2  0  0  0  0  0  0
  -26.0420  -29.4950   20.8200 C   0  0  0  0  0  0  0  0  0  0  0  0
  -27.2550  -28.7720   20.8150 C   0  0  0  0  0  3  0  0  0  0  0  0
  -26.1420  -26.9580   19.6310 C   0  0  0  0  0  3  0  0  0  0  0  0
  -24.9350  -27.6790   19.6400 C   0  0  0  0  0  3  0  0  0  0  0  0
  -23.6420  -29.8030   20.2560 C   0  0  0  0  0  2  0  0  0  0  0  0
  -24.6750  -31.1120   22.1670 N   0  0  0  0  0  0  0  0  0  0  0  0
  -23.5200  -32.1960   23.7880 O   0  0  0  0  0  0  0  0  0  0  0  0
  -22.7710  -29.4800   22.5880 C   0  0  0  0  0  0  0  0  0  0  0  0
  -21.4520  -29.2760   22.4390 N   0  0  0  0  0  0  0  0  0  0  0  0
  -23.4500  -28.8780   23.4240 O   0  0  0  0  0  0  0  0  0  0  0  0
  -20.9690  -29.8170   21.7350 H   0  0  0  0  0  0  0  0  0  0  0  0
  -18.0870  -28.0410   22.8810 C   0  0  0  0  0  0  0  0  0  0  0  0
  -20.6340  -28.3370   23.2050 C   0  0  0  0  0  3  0  0  0  0  0  0
  -20.7660  -26.9030   22.6480 C   0  0  0  0  0  2  0  0  0  0  0  0
  -19.6910  -26.5500   21.6140 C   0  0  0  0  0  2  0  0  0  0  0  0
  -18.2950  -26.6840   22.2290 C   0  0  0  0  0  2  0  0  0  0  0  0
  -19.1860  -28.8240   23.3240 C   0  0  0  0  0  0  0  0  0  0  0  0
  -18.9390  -30.0940   23.8890 C   0  0  0  0  0  3  0  0  0  0  0  0
  -17.6250  -30.5810   24.0190 C   0  0  0  0  0  3  0  0  0  0  0  0
  -16.5390  -29.7930   23.6040 C   0  0  0  0  0  3  0  0  0  0  0  0
  -16.7710  -28.5260   23.0370 C   0  0  0  0  0  3  0  0  0  0  0  0
  -25.8840  -32.5620   23.8870 C   0  0  0  0  0  3  0  0  0  0  0  0
  -25.5630  -33.9600   24.2000 N   0  0  0  0  0  0  0  0  0  0  0  0
  -25.9020  -35.0070   23.4350 C   0  0  0  0  0  0  0  0  0  0  0  0
  -26.5870  -34.8990   22.4150 O   0  0  0  0  0  0  0  0  0  0  0  0
  -24.9490  -34.1160   24.9860 H   0  0  0  0  0  0  0  0  0  0  0  0
  -24.1720  -36.7900   23.0360 C   0  0  0  0  0  1  0  0  0  0  0  0
  -25.3980  -36.3950   23.8720 C   0  0  0  0  0  3  0  0  0  0  0  0
  -27.5160  -37.2960   24.7350 C   0  0  0  0  0  1  0  0  0  0  0  0
  -26.4300  -37.4510   23.7710 N   0  0  0  0  0  0  0  0  0  0  0  0
  -26.0140  -38.3720   23.8990 H   0  0  0  0  0  0  0  0  0  0  0  0
  -26.3990  -31.8040   25.1740 C   0  0  1  0  0  0  0  0  0  0  0  0
  -25.3010  -31.5580   26.2360 C   0  0  0  0  0  1  0  0  0  0  0  0
  -27.0030  -30.4310   24.8000 C   0  0  0  0  0  1  0  0  0  0  0  0
  -27.5380  -32.6160   25.8340 C   0  0  0  0  0  1  0  0  0  0  0  0
  1  4  1  0
  2  6  1  0
  3  1  2  0
  3  5  1  0
  4  9  1  0
  4  6  2  0
  5  2  2  0
  6  8  1  0
  7  3  1  0
  9 10  1  0
 10 11  1  0
 11 12  1  0
 13 21  1  0
 14 19  1  0
 15 16  1  0
 15 14  1  0
 17 16  1  0
 17 26  1  0
 17 18  1  0
 19 13  1  0
 19 18  1  0
 20 13  2  0
 21 22  1  0
 21 12  1  0
 23 24  2  0
 24 43  1  0
 25 24  1  0
 25 28  1  0
 26 23  1  0
 26 27  1  0
 27 25  2  0
 28 29  1  0
 29 30  2  0
 31 34  1  0
 31 30  1  0
 32 31  2  0
 33 32  1  0
 33 28  2  0
 34 35  1  0
 35 36  1  0
 36 37  2  0
 38 37  1  0
 38 42  1  0
 39 38  2  0
 40 35  2  0
 40 39  1  0
 41 40  1  0
 43 44  1  0
 44 47  1  0
 44 46  1  0
 45 43  2  0
 48 49  1  0
 48 23  1  0
 50 48  1  0
 51  5  1  0
 52 53  1  0
 52 51  1  0
 53 54  1  0
 54 56  1  0
 55 66  2  0
 56 61  1  0
 57 65  1  0
 57 67  1  0
 58 64  1  0
 58 60  1  0
 59 65  1  0
 60 59  1  0
 61 60  2  0
 62 63  1  0
 62 56  2  0
 63 58  2  0
 64 57  1  0
 65 55  1  0
 67 69  2  0
 68 67  1  0
 70 68  1  0
 71 80  2  0
 71 76  1  0
 72 68  1  0
 72 76  1  0
 73 72  1  0
 74 75  1  0
 74 73  1  0
 75 71  1  0
 76 77  2  0
 77 78  1  0
 79 78  2  0
 80 79  1  0
 81 55  1  0
 81 82  1  0
 81 91  1  0
 82 85  1  0
 83 87  1  0
 83 82  1  0
 84 83  2  0
 87 86  1  0
 89 87  1  0
 89 90  1  0
 89 88  1  0
 91 94  1  1
 91 92  1  0
 93 91  1  0
M  ISO  4  13 100  21 100  53 101  54 101
M  END
>  <TORSDO>  (80) 
F 23

>  <SCORE>  (80) 
-11.972

>  <name>  (80) 
80

>  <ligand_id>  (80) 
80

>  <original_smiles>  (80) 
[H]c1c([H])c([H])c2c(c1[H])C([H])([H])C([H])([H])C([H])([H])C2([H])N([H])C(=O)C1([H])N(C(=O)C([H])(N([H])C(=O)C([H])(N([H])C([H])([H])[H])C([H])([H])[H])C(C([H])([H])[H])(C([H])([H])[H])C([H])([H])[H])C([H])([H])c2c([H])c(OC([H])([H])C([H])([H])C([H])([H])c3c([H])c(Cl)c(C([H])([H])C([H])([H])C([H])([H])C([H])([H])N([H])C(=O)N4C([H])([H])C([H])([H])C([H])([H])C([H])(n5nc(-c6c([H])c([H])c(Oc7c([H])c([H])c(F)c([H])c7F)c([H])c6[H])c(C(=O)N([H])[H])c5N([H])[H])C4([H])[H])c([H])c3C([H])([H])[H])c([H])c([H])c2C1([H])[H]

>  <smiles>  (80) 
[H]c1c([H])c([H])c2c(c1[H])C([H])([H])C([H])([H])C([H])([H])C2([H])N([H])C(=O)C1([H])N(C(=O)C([H])(N([H])C(=O)C([H])(N([H])C([H])([H])[H])C([H])([H])[H])C(C([H])([H])[H])(C([H])([H])[H])C([H])([H])[H])C([H])([H])c2c([H])c(OC([H])([H])C([H])([H])C([H])([H])c3c([H])c(Cl)c(C([H])([H])C([H])([H])C([H])([H])C([H])([H])N([H])C(=O)N4C([H])([H])C([H])([H])C([H])([H])C([H])(n5nc(-c6c([H])c([H])c(Oc7c([H])c([H])c(F)c([H])c7F)c([H])c6[H])c(C(=O)N([H])[H])c5N([H])[H])C4([H])[H])c([H])c3C([H])([H])[H])c([H])c([H])c2C1([H])[H]

$$$$
81:0:0
     RDKit          3D

 92100  0  0  1  0  0  0  0  0999 V2000
  -31.9900  -24.0700   21.0520 C   0  0  0  0  0  3  0  0  0  0  0  0
  -29.6370  -23.8520   20.5780 C   0  0  0  0  0  3  0  0  0  0  0  0
  -30.7560  -24.6850   20.7740 C   0  0  0  0  0  0  0  0  0  0  0  0
  -32.0910  -22.6680   21.0170 C   0  0  0  0  0  0  0  0  0  0  0  0
  -30.9360  -21.9160   20.7020 C   0  0  0  0  0  0  0  0  0  0  0  0
  -33.4550  -22.0200   21.2060 C   0  0  0  0  0  1  0  0  0  0  0  0
  -29.7270  -22.5020   20.5420 N   0  0  0  0  0  0  0  0  0  0  0  0
  -30.7230  -26.2020   20.5800 C   0  0  0  0  0  2  0  0  0  0  0  0
  -29.4350  -26.9840   20.9090 C   0  0  0  0  0  2  0  0  0  0  0  0
  -28.3460  -26.6850   20.0320 O   0  0  0  0  0  0  0  0  0  0  0  0
  -24.5890  -31.8710   23.2450 C   0  0  0  0  0  0  0  0  0  0  0  0
  -27.2060  -27.4650   20.1120 C   0  0  0  0  0  0  0  0  0  0  0  0
  -23.3550  -30.4870   21.6020 C   0  0  0  0  0  3  0  0  0  0  0  0
  -24.7910  -28.9510   20.1520 C   0  0  0  0  0  0  0  0  0  0  0  0
  -25.8720  -30.8450   21.3760 C   0  0  0  0  0  2  0  0  0  0  0  0
  -25.9470  -29.4750   20.7380 C   0  0  0  0  0  0  0  0  0  0  0  0
  -27.1500  -28.7410   20.7260 C   0  0  0  0  0  3  0  0  0  0  0  0
  -26.0310  -26.9530   19.5200 C   0  0  0  0  0  3  0  0  0  0  0  0
  -24.8250  -27.6840   19.5410 C   0  0  0  0  0  3  0  0  0  0  0  0
  -23.5450  -29.8090   20.2160 C   0  0  0  0  0  2  0  0  0  0  0  0
  -24.6240  -31.0820   22.1340 N   0  0  0  0  0  0  0  0  0  0  0  0
  -23.5160  -32.1450   23.8010 O   0  0  0  0  0  0  0  0  0  0  0  0
  -22.7080  -29.4650   22.5640 C   0  0  0  0  0  0  0  0  0  0  0  0
  -21.3820  -29.2880   22.4440 N   0  0  0  0  0  0  0  0  0  0  0  0
  -23.3960  -28.8330   23.3710 O   0  0  0  0  0  0  0  0  0  0  0  0
  -20.8900  -29.8540   21.7660 H   0  0  0  0  0  0  0  0  0  0  0  0
  -18.0080  -28.1000   22.9380 C   0  0  0  0  0  0  0  0  0  0  0  0
  -20.5660  -28.3500   23.2110 C   0  0  0  0  0  3  0  0  0  0  0  0
  -20.6640  -26.9200   22.6300 C   0  0  0  0  0  2  0  0  0  0  0  0
  -19.5620  -26.6040   21.6140 C   0  0  0  0  0  2  0  0  0  0  0  0
  -18.1810  -26.7510   22.2600 C   0  0  0  0  0  2  0  0  0  0  0  0
  -19.1280  -28.8570   23.3710 C   0  0  0  0  0  0  0  0  0  0  0  0
  -18.9140  -30.1210   23.9620 C   0  0  0  0  0  3  0  0  0  0  0  0
  -17.6100  -30.6270   24.1260 C   0  0  0  0  0  3  0  0  0  0  0  0
  -16.5040  -29.8650   23.7120 C   0  0  0  0  0  3  0  0  0  0  0  0
  -16.7030  -28.6030   23.1240 C   0  0  0  0  0  3  0  0  0  0  0  0
  -25.8870  -32.4850   23.8570 C   0  0  0  0  0  3  0  0  0  0  0  0
  -25.5930  -33.8800   24.2080 N   0  0  0  0  0  0  0  0  0  0  0  0
  -25.9250  -34.9390   23.4570 C   0  0  0  0  0  0  0  0  0  0  0  0
  -26.5810  -34.8430   22.4170 O   0  0  0  0  0  0  0  0  0  0  0  0
  -25.0050  -34.0270   25.0150 H   0  0  0  0  0  0  0  0  0  0  0  0
  -24.2020  -36.7440   23.1480 C   0  0  0  0  0  1  0  0  0  0  0  0
  -25.4520  -36.3240   23.9370 C   0  0  0  0  0  3  0  0  0  0  0  0
  -27.6040  -37.1860   24.7490 C   0  0  0  0  0  1  0  0  0  0  0  0
  -26.4900  -37.3720   23.8220 N   0  0  0  0  0  0  0  0  0  0  0  0
  -26.0920  -38.2930   23.9880 H   0  0  0  0  0  0  0  0  0  0  0  0
  -26.4200  -31.6910   25.1120 C   0  0  1  0  0  0  0  0  0  0  0  0
  -25.3420  -31.4440   26.1920 C   0  0  0  0  0  1  0  0  0  0  0  0
  -26.9880  -30.3170   24.6850 C   0  0  0  0  0  1  0  0  0  0  0  0
  -27.5870  -32.4670   25.7680 C   0  0  0  0  0  1  0  0  0  0  0  0
  -31.0290  -20.4560   20.2530 C   0  0  0  0  0  2  0  0  0  0  0  0
  -30.4720  -19.3500   21.1810 C   0  0  0  0  0  2  0  0  0  0  0  0
  -30.5660  -17.9950   20.4330 C   0  0  0  0  0  2  0  0  0  0  0  0
  -29.8290  -16.7730   21.0540 C   0  0  0  0  0  2  0  0  0  0  0  0
  -30.5490  -14.5200   20.2410 C   0  0  0  0  0  0  0  0  0  0  0  0
  -30.3010  -12.2790   19.2690 C   0  0  0  0  0  2  0  0  0  0  0  0
  -29.3380  -12.3690   18.0670 C   0  0  0  0  0  2  0  0  0  0  0  0
  -27.8620  -12.2840   18.5200 C   0  0  0  0  0  2  0  0  0  0  0  0
  -27.5230  -13.1520   19.7670 C   0  0  0  0  0  3  0  0  0  0  0  0
  -28.6110  -13.0340   20.8570 C   0  0  0  0  0  2  0  0  0  0  0  0
  -29.9090  -13.3190   20.2280 N   0  0  0  0  0  0  0  0  0  0  0  0
  -31.7540  -14.6420   20.0060 O   0  0  0  0  0  0  0  0  0  0  0  0
  -29.2410  -15.9760   18.8070 C   0  0  0  0  0  1  0  0  0  0  0  0
  -29.7310  -15.6020   20.1480 N   0  0  0  0  0  0  0  0  0  0  0  0
  -25.1350  -13.7580   20.4880 C   0  0  0  0  0  0  0  0  0  0  0  0
  -24.0780  -12.9830   20.8790 C   0  0  0  0  0  0  0  0  0  0  0  0
  -24.5580  -11.6380   20.8850 C   0  0  0  0  0  0  0  0  0  0  0  0
  -26.1890  -12.8790   20.2790 N   0  0  0  0  0  0  0  0  0  0  0  0
  -25.8470  -11.6020   20.5770 N   0  0  0  0  0  0  0  0  0  0  0  0
  -23.8540  -10.3720   21.1070 C   0  0  0  0  0  0  0  0  0  0  0  0
  -24.3090   -9.4360   22.0620 C   0  0  0  0  0  3  0  0  0  0  0  0
  -23.6070   -8.2300   22.2720 C   0  0  0  0  0  3  0  0  0  0  0  0
  -22.4370   -7.9520   21.5250 C   0  0  0  0  0  0  0  0  0  0  0  0
  -22.0050   -8.8750   20.5560 C   0  0  0  0  0  3  0  0  0  0  0  0
  -22.7070  -10.0730   20.3440 C   0  0  0  0  0  3  0  0  0  0  0  0
  -21.7050   -6.7960   21.6410 O   0  0  0  0  0  0  0  0  0  0  0  0
  -21.6700   -6.0810   22.8110 C   0  0  0  0  0  0  0  0  0  0  0  0
  -21.2340   -6.6590   24.0240 C   0  0  0  0  0  3  0  0  0  0  0  0
  -21.1510   -5.8710   25.1890 C   0  0  0  0  0  3  0  0  0  0  0  0
  -21.4910   -4.5050   25.1420 C   0  0  0  0  0  0  0  0  0  0  0  0
  -21.9200   -3.9270   23.9340 C   0  0  0  0  0  3  0  0  0  0  0  0
  -22.0050   -4.7130   22.7710 C   0  0  0  0  0  0  0  0  0  0  0  0
  -22.4000   -4.1460   21.6060 F   0  0  0  0  0  0  0  0  0  0  0  0
  -21.4030   -3.7460   26.2580 F   0  0  0  0  0  0  0  0  0  0  0  0
  -22.6750  -13.4490   21.1390 C   0  0  0  0  0  0  0  0  0  0  0  0
  -21.9560  -12.7690   22.0230 N   0  0  0  0  0  0  0  0  0  0  0  0
  -22.2230  -14.4540   20.5900 O   0  0  0  0  0  0  0  0  0  0  0  0
  -22.3310  -11.9600   22.4940 H   0  0  0  0  0  0  0  0  0  0  0  0
  -21.0110  -13.0630   22.2300 H   0  0  0  0  0  0  0  0  0  0  0  0
  -25.2820  -15.1270   20.2710 N   0  0  0  0  0  0  0  0  0  0  0  0
  -24.5060  -15.7770   20.3430 H   0  0  0  0  0  0  0  0  0  0  0  0
  -26.1440  -15.5720   19.9820 H   0  0  0  0  0  0  0  0  0  0  0  0
  2  3  1  0
  3  1  2  0
  4  1  1  0
  4  6  1  0
  5  4  2  0
  7  2  2  0
  7  5  1  0
  8  3  1  0
  8  9  1  0
 10 12  1  0
 10  9  1  0
 11 22  2  0
 12 17  1  0
 13 21  1  0
 13 23  1  0
 14 20  1  0
 14 16  1  0
 15 21  1  0
 16 15  1  0
 17 16  2  0
 18 19  1  0
 18 12  2  0
 19 14  2  0
 20 13  1  0
 21 11  1  0
 23 25  2  0
 24 23  1  0
 26 24  1  0
 27 36  2  0
 27 32  1  0
 28 24  1  0
 28 32  1  0
 29 28  1  0
 30 31  1  0
 30 29  1  0
 31 27  1  0
 32 33  2  0
 33 34  1  0
 35 34  2  0
 36 35  1  0
 37 11  1  0
 37 38  1  0
 37 47  1  0
 38 41  1  0
 39 43  1  0
 39 38  1  0
 40 39  2  0
 43 42  1  0
 45 43  1  0
 45 46  1  0
 45 44  1  0
 47 50  1  1
 47 48  1  0
 49 47  1  0
 51  5  1  0
 51 52  1  0
 53 54  1  0
 53 52  1  0
 56 61  1  0
 57 58  1  0
 57 56  1  0
 59 58  1  0
 59 68  1  0
 59 60  1  0
 61 55  1  0
 61 60  1  0
 62 55  2  0
 63 64  1  0
 64 55  1  0
 64 54  1  0
 65 66  2  0
 66 67  1  0
 66 85  1  0
 67 70  1  0
 68 65  1  0
 68 69  1  0
 69 67  2  0
 70 71  1  0
 71 72  2  0
 73 76  1  0
 73 72  1  0
 74 73  2  0
 75 74  1  0
 75 70  2  0
 76 77  1  0
 77 78  1  0
 78 79  2  0
 80 79  1  0
 80 84  1  0
 81 80  2  0
 82 77  2  0
 82 81  1  0
 83 82  1  0
 85 86  1  0
 86 89  1  0
 86 88  1  0
 87 85  2  0
 90 91  1  0
 90 65  1  0
 92 90  1  0
M  ISO  4   9 101  10 101  55 100  64 100
M  END
>  <TORSDO>  (81) 
F 22

>  <SCORE>  (81) 
-11.788

>  <name>  (81) 
81

>  <ligand_id>  (81) 
81

>  <original_smiles>  (81) 
[H]c1nc(C([H])([H])C([H])([H])C([H])([H])C([H])([H])N(C(=O)N2C([H])([H])C([H])([H])C([H])([H])C([H])(n3nc(-c4c([H])c([H])c(Oc5c([H])c([H])c(F)c([H])c5F)c([H])c4[H])c(C(=O)N([H])[H])c3N([H])[H])C2([H])[H])C([H])([H])[H])c(C([H])([H])[H])c([H])c1C([H])([H])C([H])([H])Oc1c([H])c([H])c2c(c1[H])C([H])([H])N(C(=O)C([H])(N([H])C(=O)C([H])(N([H])C([H])([H])[H])C([H])([H])[H])C(C([H])([H])[H])(C([H])([H])[H])C([H])([H])[H])C([H])(C(=O)N([H])C1([H])c3c([H])c([H])c([H])c([H])c3C([H])([H])C([H])([H])C1([H])[H])C2([H])[H]

>  <smiles>  (81) 
[H]c1nc(C([H])([H])C([H])([H])C([H])([H])C([H])([H])N(C(=O)N2C([H])([H])C([H])([H])C([H])([H])C([H])(n3nc(-c4c([H])c([H])c(Oc5c([H])c([H])c(F)c([H])c5F)c([H])c4[H])c(C(=O)N([H])[H])c3N([H])[H])C2([H])[H])C([H])([H])[H])c(C([H])([H])[H])c([H])c1C([H])([H])C([H])([H])Oc1c([H])c([H])c2c(c1[H])C([H])([H])N(C(=O)C([H])(N([H])C(=O)C([H])(N([H])C([H])([H])[H])C([H])([H])[H])C(C([H])([H])[H])(C([H])([H])[H])C([H])([H])[H])C([H])(C(=O)N([H])C1([H])c3c([H])c([H])c([H])c([H])c3C([H])([H])C([H])([H])C1([H])[H])C2([H])[H]

$$$$
82:0:0
     RDKit          3D

 92100  0  0  1  0  0  0  0  0999 V2000
  -27.6950  -22.2170   20.1880 C   0  0  0  0  0  3  0  0  0  0  0  0
  -25.9650  -21.6780   18.0900 C   0  0  0  0  0  3  0  0  0  0  0  0
  -27.0290  -23.2940   19.5740 C   0  0  0  0  0  0  0  0  0  0  0  0
  -26.1070  -23.0060   18.5270 C   0  0  0  0  0  0  0  0  0  0  0  0
  -27.4140  -20.9190   19.7310 C   0  0  0  0  0  0  0  0  0  0  0  0
  -25.2230  -24.0850   17.9020 C   0  0  0  0  0  1  0  0  0  0  0  0
  -26.6050  -20.6510   18.6800 N   0  0  0  0  0  0  0  0  0  0  0  0
  -27.2030  -24.7390   20.0040 C   0  0  0  0  0  3  0  0  0  0  0  0
  -28.5580  -25.4050   20.3800 C   0  0  0  0  0  3  0  0  0  0  0  0
  -28.6180  -26.8680   20.4830 O   0  0  0  0  0  0  0  0  0  0  0  0
  -24.5970  -31.9960   23.4140 C   0  0  0  0  0  0  0  0  0  0  0  0
  -27.4720  -27.6420   20.3950 C   0  0  0  0  0  0  0  0  0  0  0  0
  -23.5030  -30.5590   21.7330 C   0  0  0  0  0  3  0  0  0  0  0  0
  -25.0500  -29.1050   20.3510 C   0  0  0  0  0  0  0  0  0  0  0  0
  -26.0260  -30.9890   21.6560 C   0  0  0  0  0  2  0  0  0  0  0  0
  -26.1680  -29.6220   21.0250 C   0  0  0  0  0  0  0  0  0  0  0  0
  -27.3680  -28.8730   21.0970 C   0  0  0  0  0  3  0  0  0  0  0  0
  -26.3920  -27.2840   19.5630 C   0  0  0  0  0  3  0  0  0  0  0  0
  -25.1490  -27.9150   19.6340 C   0  0  0  0  0  3  0  0  0  0  0  0
  -23.7850  -29.9150   20.3570 C   0  0  0  0  0  2  0  0  0  0  0  0
  -24.7220  -31.1990   22.3200 N   0  0  0  0  0  0  0  0  0  0  0  0
  -23.4850  -32.2330   23.9090 O   0  0  0  0  0  0  0  0  0  0  0  0
  -22.8550  -29.5070   22.6580 C   0  0  0  0  0  0  0  0  0  0  0  0
  -21.5420  -29.2840   22.4780 N   0  0  0  0  0  0  0  0  0  0  0  0
  -23.5290  -28.9080   23.5030 O   0  0  0  0  0  0  0  0  0  0  0  0
  -21.0780  -29.7950   21.7410 H   0  0  0  0  0  0  0  0  0  0  0  0
  -18.1670  -28.0560   22.9000 C   0  0  0  0  0  0  0  0  0  0  0  0
  -20.7210  -28.3340   23.2140 C   0  0  0  0  0  3  0  0  0  0  0  0
  -20.8530  -26.9250   22.6080 C   0  0  0  0  0  2  0  0  0  0  0  0
  -19.7700  -26.6060   21.5720 C   0  0  0  0  0  2  0  0  0  0  0  0
  -18.3770  -26.7260   22.1970 C   0  0  0  0  0  2  0  0  0  0  0  0
  -19.2710  -28.8170   23.3700 C   0  0  0  0  0  0  0  0  0  0  0  0
  -19.0280  -30.0600   23.9920 C   0  0  0  0  0  3  0  0  0  0  0  0
  -17.7160  -30.5390   24.1600 C   0  0  0  0  0  3  0  0  0  0  0  0
  -16.6230  -29.7740   23.7080 C   0  0  0  0  0  3  0  0  0  0  0  0
  -16.8520  -28.5420   23.0750 C   0  0  0  0  0  3  0  0  0  0  0  0
  -25.8380  -32.6710   24.0760 C   0  0  0  0  0  3  0  0  0  0  0  0
  -25.4920  -34.0730   24.3380 N   0  0  0  0  0  0  0  0  0  0  0  0
  -25.8490  -35.1020   23.5540 C   0  0  0  0  0  0  0  0  0  0  0  0
  -26.5730  -34.9640   22.5610 O   0  0  0  0  0  0  0  0  0  0  0  0
  -24.8430  -34.2530   25.0910 H   0  0  0  0  0  0  0  0  0  0  0  0
  -24.1100  -36.8430   23.0360 C   0  0  0  0  0  1  0  0  0  0  0  0
  -25.3170  -36.4970   23.9270 C   0  0  0  0  0  3  0  0  0  0  0  0
  -27.3900  -37.4480   24.8280 C   0  0  0  0  0  1  0  0  0  0  0  0
  -26.3350  -37.5640   23.8210 N   0  0  0  0  0  0  0  0  0  0  0  0
  -25.9100  -38.4800   23.9160 H   0  0  0  0  0  0  0  0  0  0  0  0
  -26.2980  -31.9550   25.4040 C   0  0  1  0  0  0  0  0  0  0  0  0
  -25.1450  -31.7140   26.4060 C   0  0  0  0  0  1  0  0  0  0  0  0
  -26.9480  -30.5860   25.0980 C   0  0  0  0  0  1  0  0  0  0  0  0
  -27.3810  -32.8050   26.1150 C   0  0  0  0  0  1  0  0  0  0  0  0
  -27.9270  -19.7050   20.4720 C   0  0  0  0  0  2  0  0  0  0  0  0
  -29.0580  -18.9550   19.7550 C   0  0  0  0  0  2  0  0  0  0  0  0
  -29.1910  -17.5370   20.3270 C   0  0  0  0  0  2  0  0  0  0  0  0
  -30.4840  -16.8250   19.9340 C   0  0  0  0  0  2  0  0  0  0  0  0
  -31.0840  -14.4290   19.8510 C   0  0  0  0  0  0  0  0  0  0  0  0
  -30.7100  -12.2140   18.8600 C   0  0  0  0  0  2  0  0  0  0  0  0
  -29.7030  -12.3610   17.7010 C   0  0  0  0  0  2  0  0  0  0  0  0
  -28.2550  -12.2720   18.2210 C   0  0  0  0  0  2  0  0  0  0  0  0
  -28.0010  -13.1910   19.4460 C   0  0  0  0  0  3  0  0  0  0  0  0
  -29.1100  -13.0060   20.5060 C   0  0  0  0  0  2  0  0  0  0  0  0
  -30.4140  -13.2500   19.8580 N   0  0  0  0  0  0  0  0  0  0  0  0
  -32.1500  -14.6160   19.2590 O   0  0  0  0  0  0  0  0  0  0  0  0
  -30.3870  -15.4430   20.3680 N   0  0  0  0  0  0  0  0  0  0  0  0
  -29.5490  -15.1730   20.8600 H   0  0  0  0  0  0  0  0  0  0  0  0
  -25.6790  -13.8820   20.3140 C   0  0  0  0  0  0  0  0  0  0  0  0
  -24.6060  -13.1470   20.7380 C   0  0  0  0  0  0  0  0  0  0  0  0
  -25.0050  -11.7780   20.6520 C   0  0  0  0  0  0  0  0  0  0  0  0
  -26.6720  -12.9630   20.0080 N   0  0  0  0  0  0  0  0  0  0  0  0
  -26.2720  -11.6910   20.2630 N   0  0  0  0  0  0  0  0  0  0  0  0
  -24.2450  -10.5430   20.8720 C   0  0  0  0  0  0  0  0  0  0  0  0
  -24.6410   -9.5940   21.8410 C   0  0  0  0  0  3  0  0  0  0  0  0
  -23.8820   -8.4210   22.0440 C   0  0  0  0  0  3  0  0  0  0  0  0
  -22.7150   -8.1890   21.2750 C   0  0  0  0  0  0  0  0  0  0  0  0
  -22.3380   -9.1290   20.3000 C   0  0  0  0  0  3  0  0  0  0  0  0
  -23.0970  -10.2930   20.0960 C   0  0  0  0  0  3  0  0  0  0  0  0
  -21.9320   -7.0660   21.3880 O   0  0  0  0  0  0  0  0  0  0  0  0
  -21.7660   -6.4180   22.5860 C   0  0  0  0  0  0  0  0  0  0  0  0
  -21.2330   -7.0720   23.7200 C   0  0  0  0  0  3  0  0  0  0  0  0
  -21.0130   -6.3500   24.9090 C   0  0  0  0  0  3  0  0  0  0  0  0
  -21.3180   -4.9770   24.9660 C   0  0  0  0  0  0  0  0  0  0  0  0
  -21.8430   -4.3240   23.8380 C   0  0  0  0  0  3  0  0  0  0  0  0
  -22.0630   -5.0420   22.6500 C   0  0  0  0  0  0  0  0  0  0  0  0
  -22.5490   -4.4030   21.5590 F   0  0  0  0  0  0  0  0  0  0  0  0
  -21.1010   -4.2830   26.1080 F   0  0  0  0  0  0  0  0  0  0  0  0
  -23.2510  -13.6740   21.1090 C   0  0  0  0  0  0  0  0  0  0  0  0
  -22.5590  -12.9980   22.0170 N   0  0  0  0  0  0  0  0  0  0  0  0
  -22.8170  -14.7190   20.6270 O   0  0  0  0  0  0  0  0  0  0  0  0
  -22.9280  -12.1530   22.4260 H   0  0  0  0  0  0  0  0  0  0  0  0
  -21.6510  -13.3310   22.3090 H   0  0  0  0  0  0  0  0  0  0  0  0
  -25.8850  -15.2480   20.1560 N   0  0  0  0  0  0  0  0  0  0  0  0
  -25.1420  -15.9160   20.3230 H   0  0  0  0  0  0  0  0  0  0  0  0
  -26.7280  -15.6730   19.7950 H   0  0  0  0  0  0  0  0  0  0  0  0
  2  4  2  0
  2  7  1  0
  3  8  1  0
  3  1  2  0
  4  3  1  0
  5  1  1  0
  5 51  1  0
  6  4  1  0
  7  5  2  0
  8  9  2  0
  9 10  1  0
 11 22  2  0
 12 10  1  0
 12 17  1  0
 13 21  1  0
 13 23  1  0
 14 20  1  0
 14 16  1  0
 15 21  1  0
 16 17  2  0
 16 15  1  0
 18 19  1  0
 18 12  2  0
 19 14  2  0
 20 13  1  0
 21 11  1  0
 23 25  2  0
 24 23  1  0
 26 24  1  0
 27 36  2  0
 27 32  1  0
 28 24  1  0
 28 32  1  0
 29 28  1  0
 30 31  1  0
 30 29  1  0
 31 27  1  0
 32 33  2  0
 33 34  1  0
 35 34  2  0
 36 35  1  0
 37 11  1  0
 37 38  1  0
 37 47  1  0
 38 41  1  0
 39 43  1  0
 39 38  1  0
 40 39  2  0
 43 42  1  0
 45 46  1  0
 45 43  1  0
 45 44  1  0
 47 50  1  1
 47 48  1  0
 49 47  1  0
 52 53  1  0
 52 51  1  0
 54 53  1  0
 54 63  1  0
 55 61  1  0
 55 63  1  0
 56 61  1  0
 57 58  1  0
 57 56  1  0
 59 58  1  0
 59 68  1  0
 59 60  1  0
 61 60  1  0
 62 55  2  0
 63 64  1  0
 65 66  2  0
 66 85  1  0
 67 66  1  0
 67 70  1  0
 68 69  1  0
 68 65  1  0
 69 67  2  0
 70 71  1  0
 71 72  2  0
 73 76  1  0
 73 72  1  0
 74 73  2  0
 75 74  1  0
 75 70  2  0
 76 77  1  0
 77 82  2  0
 77 78  1  0
 78 79  2  0
 79 80  1  0
 80 84  1  0
 81 80  2  0
 82 81  1  0
 83 82  1  0
 85 86  1  0
 86 89  1  0
 86 88  1  0
 87 85  2  0
 90 65  1  0
 90 91  1  0
 92 90  1  0
M  ISO  4   9 101  10 101  55 100  63 100
M  END
>  <TORSDO>  (82) 
F 22

>  <SCORE>  (82) 
-12.490

>  <name>  (82) 
82

>  <ligand_id>  (82) 
82

>  <original_smiles>  (82) 
[H]c1nc(C([H])([H])C([H])([H])C([H])([H])C([H])([H])N([H])C(=O)N2C([H])([H])C([H])([H])C([H])([H])C([H])(n3nc(-c4c([H])c([H])c(Oc5c([H])c([H])c(F)c([H])c5F)c([H])c4[H])c(C(=O)N([H])[H])c3N([H])[H])C2([H])[H])c([H])c(C([H])([H])C([H])([H])Oc2c([H])c([H])c3c(c2[H])C([H])([H])N(C(=O)C([H])(N([H])C(=O)C([H])(N([H])C([H])([H])[H])C([H])([H])[H])C(C([H])([H])[H])(C([H])([H])[H])C([H])([H])[H])C([H])(C(=O)N([H])C2([H])c4c([H])c([H])c([H])c([H])c4C([H])([H])C([H])([H])C2([H])[H])C3([H])[H])c1C([H])([H])[H]

>  <smiles>  (82) 
[H]c1nc(C([H])([H])C([H])([H])C([H])([H])C([H])([H])N([H])C(=O)N2C([H])([H])C([H])([H])C([H])([H])C([H])(n3nc(-c4c([H])c([H])c(Oc5c([H])c([H])c(F)c([H])c5F)c([H])c4[H])c(C(=O)N([H])[H])c3N([H])[H])C2([H])[H])c([H])c(C([H])([H])C([H])([H])Oc2c([H])c([H])c3c(c2[H])C([H])([H])N(C(=O)C([H])(N([H])C(=O)C([H])(N([H])C([H])([H])[H])C([H])([H])[H])C(C([H])([H])[H])(C([H])([H])[H])C([H])([H])[H])C([H])(C(=O)N([H])C2([H])c4c([H])c([H])c([H])c([H])c4C([H])([H])C([H])([H])C2([H])[H])C3([H])[H])c1C([H])([H])[H]

$$$$
83:0:0
     RDKit          3D

 89 97  0  0  1  0  0  0  0  0999 V2000
  -29.1580  -21.3430   19.6280 C   0  0  0  0  0  3  0  0  0  0  0  0
  -29.7890  -21.4880   22.1860 C   0  0  0  0  0  3  0  0  0  0  0  0
  -28.9710  -22.7690   20.2130 C   0  0  0  0  0  0  0  0  0  0  0  0
  -29.3470  -22.7200   21.5800 C   0  0  0  0  0  0  0  0  0  0  0  0
  -29.6450  -20.0420   20.3170 C   0  0  0  0  0  0  0  0  0  0  0  0
  -29.9280  -20.2510   21.6200 N   0  0  0  0  0  0  0  0  0  0  0  0
  -29.7990  -23.9830   23.5870 C   0  0  0  0  0  1  0  0  0  0  0  0
  -29.2330  -23.9030   22.2830 O   0  0  0  0  0  0  0  0  0  0  0  0
  -28.2390  -24.2720   19.6060 C   0  0  0  0  0  2  0  0  0  0  0  0
  -28.3590  -25.9050   19.9580 O   0  0  0  0  0  0  0  0  0  0  0  0
  -24.6740  -31.7740   23.0390 C   0  0  0  0  0  0  0  0  0  0  0  0
  -27.3310  -27.0050   19.8770 C   0  0  0  0  0  0  0  0  0  0  0  0
  -23.4970  -30.3650   21.3980 C   0  0  0  0  0  3  0  0  0  0  0  0
  -24.9720  -28.8380   19.9100 C   0  0  0  0  0  0  0  0  0  0  0  0
  -26.0530  -30.6560   21.2110 C   0  0  0  0  0  2  0  0  0  0  0  0
  -26.1570  -29.2600   20.5240 C   0  0  0  0  0  0  0  0  0  0  0  0
  -27.3230  -28.3630   20.4880 C   0  0  0  0  0  3  0  0  0  0  0  0
  -26.1130  -26.7560   19.2020 C   0  0  0  0  0  3  0  0  0  0  0  0
  -24.9770  -27.6100   19.2270 C   0  0  0  0  0  3  0  0  0  0  0  0
  -23.7230  -29.7170   20.0040 C   0  0  0  0  0  2  0  0  0  0  0  0
  -24.7630  -30.9610   21.9350 N   0  0  0  0  0  0  0  0  0  0  0  0
  -23.5860  -32.0170   23.5860 O   0  0  0  0  0  0  0  0  0  0  0  0
  -22.8560  -29.3310   22.3610 C   0  0  0  0  0  0  0  0  0  0  0  0
  -21.5340  -29.1060   22.2480 N   0  0  0  0  0  0  0  0  0  0  0  0
  -23.5580  -28.7310   23.1810 O   0  0  0  0  0  0  0  0  0  0  0  0
  -21.0180  -29.6430   21.5650 H   0  0  0  0  0  0  0  0  0  0  0  0
  -18.2270  -27.6960   22.7450 C   0  0  0  0  0  0  0  0  0  0  0  0
  -20.7640  -28.1220   23.0190 C   0  0  0  0  0  3  0  0  0  0  0  0
  -20.9560  -26.6970   22.4490 C   0  0  0  0  0  2  0  0  0  0  0  0
  -19.8810  -26.3040   21.4300 C   0  0  0  0  0  2  0  0  0  0  0  0
  -18.4900  -26.3610   22.0680 C   0  0  0  0  0  2  0  0  0  0  0  0
  -19.2940  -28.5290   23.1760 C   0  0  0  0  0  0  0  0  0  0  0  0
  -18.9900  -29.7720   23.7730 C   0  0  0  0  0  3  0  0  0  0  0  0
  -17.6540  -30.1850   23.9390 C   0  0  0  0  0  3  0  0  0  0  0  0
  -16.6030  -29.3510   23.5210 C   0  0  0  0  0  3  0  0  0  0  0  0
  -16.8900  -28.1070   22.9300 C   0  0  0  0  0  3  0  0  0  0  0  0
  -25.9330  -32.4520   23.6590 C   0  0  0  0  0  3  0  0  0  0  0  0
  -26.5070  -31.6710   24.9060 C   0  0  1  0  0  0  0  0  0  0  0  0
  -25.4490  -31.3680   25.9930 C   0  0  0  0  0  1  0  0  0  0  0  0
  -27.1340  -30.3240   24.4770 C   0  0  0  0  0  1  0  0  0  0  0  0
  -27.6440  -32.4930   25.5590 C   0  0  0  0  0  1  0  0  0  0  0  0
  -25.5640  -33.8250   24.0500 N   0  0  0  0  0  0  0  0  0  0  0  0
  -25.8380  -34.9280   23.3390 C   0  0  0  0  0  0  0  0  0  0  0  0
  -26.4880  -34.8980   22.2910 O   0  0  0  0  0  0  0  0  0  0  0  0
  -24.9830  -33.9190   24.8690 H   0  0  0  0  0  0  0  0  0  0  0  0
  -24.0240  -36.6620   23.1230 C   0  0  0  0  0  1  0  0  0  0  0  0
  -25.3090  -36.2740   23.8740 C   0  0  0  0  0  3  0  0  0  0  0  0
  -27.4320  -37.2190   24.6700 C   0  0  0  0  0  1  0  0  0  0  0  0
  -26.2910  -37.3770   23.7730 N   0  0  0  0  0  0  0  0  0  0  0  0
  -25.8520  -38.2710   23.9720 H   0  0  0  0  0  0  0  0  0  0  0  0
  -30.0650  -18.4150   19.7580 C   0  0  0  0  0  2  0  0  0  0  0  0
  -30.6710  -15.5380   20.3070 C   0  0  0  0  0  0  0  0  0  0  0  0
  -30.7330  -13.0110   19.6550 C   0  0  0  0  0  2  0  0  0  0  0  0
  -29.8850  -12.6670   18.4010 C   0  0  0  0  0  2  0  0  0  0  0  0
  -28.4220  -12.4010   18.7890 C   0  0  0  0  0  2  0  0  0  0  0  0
  -27.8980  -13.4440   19.8060 C   0  0  0  0  0  3  0  0  0  0  0  0
  -28.8820  -13.7210   20.9640 C   0  0  0  0  0  2  0  0  0  0  0  0
  -30.1300  -14.2120   20.3560 N   0  0  0  0  0  0  0  0  0  0  0  0
  -31.8920  -15.5220   20.0880 O   0  0  0  0  0  0  0  0  0  0  0  0
  -29.9000  -16.8230   20.3060 N   0  0  0  0  0  0  0  0  0  0  0  0
  -28.9430  -16.6550   20.5780 H   0  0  0  0  0  0  0  0  0  0  0  0
  -25.5080  -14.0270   20.4630 C   0  0  0  0  0  0  0  0  0  0  0  0
  -24.4280  -13.2640   20.8060 C   0  0  0  0  0  0  0  0  0  0  0  0
  -24.8860  -11.9100   20.8160 C   0  0  0  0  0  0  0  0  0  0  0  0
  -26.5520  -13.1410   20.2720 N   0  0  0  0  0  0  0  0  0  0  0  0
  -26.1880  -11.8620   20.5530 N   0  0  0  0  0  0  0  0  0  0  0  0
  -24.1410  -10.6570   21.0000 C   0  0  0  0  0  0  0  0  0  0  0  0
  -24.5410   -9.6910   21.9500 C   0  0  0  0  0  3  0  0  0  0  0  0
  -23.7950   -8.5060   22.1230 C   0  0  0  0  0  3  0  0  0  0  0  0
  -22.6330   -8.2780   21.3460 C   0  0  0  0  0  0  0  0  0  0  0  0
  -22.2520   -9.2310   20.3870 C   0  0  0  0  0  3  0  0  0  0  0  0
  -22.9990  -10.4090   20.2120 C   0  0  0  0  0  3  0  0  0  0  0  0
  -21.8610   -7.1430   21.4290 O   0  0  0  0  0  0  0  0  0  0  0  0
  -21.7990   -6.3970   22.5780 C   0  0  0  0  0  0  0  0  0  0  0  0
  -21.3840   -6.9540   23.8070 C   0  0  0  0  0  3  0  0  0  0  0  0
  -21.2690   -6.1350   24.9490 C   0  0  0  0  0  3  0  0  0  0  0  0
  -21.5560   -4.7590   24.8610 C   0  0  0  0  0  0  0  0  0  0  0  0
  -21.9630   -4.2020   23.6360 C   0  0  0  0  0  3  0  0  0  0  0  0
  -22.0810   -5.0180   22.4970 C   0  0  0  0  0  0  0  0  0  0  0  0
  -22.4530   -4.4710   21.3140 F   0  0  0  0  0  0  0  0  0  0  0  0
  -21.4380   -3.9700   25.9540 F   0  0  0  0  0  0  0  0  0  0  0  0
  -23.0260  -13.7570   21.0110 C   0  0  0  0  0  0  0  0  0  0  0  0
  -22.2630  -13.0910   21.8700 N   0  0  0  0  0  0  0  0  0  0  0  0
  -22.6160  -14.7700   20.4450 O   0  0  0  0  0  0  0  0  0  0  0  0
  -22.6060  -12.2710   22.3490 H   0  0  0  0  0  0  0  0  0  0  0  0
  -21.3210  -13.4060   22.0520 H   0  0  0  0  0  0  0  0  0  0  0  0
  -25.6850  -15.3940   20.2640 N   0  0  0  0  0  0  0  0  0  0  0  0
  -24.9130  -16.0480   20.3260 H   0  0  0  0  0  0  0  0  0  0  0  0
  -26.5350  -15.8190   19.9200 H   0  0  0  0  0  0  0  0  0  0  0  0
  1  3  2  0
  1  5  1  0
  3  4  1  0
  4  2  2  0
  4  8  1  0
  5  6  2  0
  6  2  1  0
  8  7  1  0
  9 10  1  0
  9  3  1  0
 11 22  2  0
 12 10  1  0
 12 17  1  0
 13 21  1  0
 13 23  1  0
 14 20  1  0
 14 16  1  0
 15 21  1  0
 16 15  1  0
 17 16  2  0
 18 19  1  0
 18 12  2  0
 19 14  2  0
 20 13  1  0
 21 11  1  0
 23 25  2  0
 24 23  1  0
 26 24  1  0
 27 36  2  0
 27 32  1  0
 28 24  1  0
 28 32  1  0
 29 28  1  0
 30 31  1  0
 30 29  1  0
 31 27  1  0
 32 33  2  0
 33 34  1  0
 35 34  2  0
 36 35  1  0
 37 11  1  0
 37 42  1  0
 37 38  1  0
 38 41  1  1
 38 39  1  0
 40 38  1  0
 42 45  1  0
 43 47  1  0
 43 42  1  0
 44 43  2  0
 47 46  1  0
 49 47  1  0
 49 50  1  0
 49 48  1  0
 51 60  1  0
 51  5  1  0
 52 58  1  0
 53 58  1  0
 54 55  1  0
 54 53  1  0
 56 55  1  0
 56 65  1  0
 56 57  1  0
 58 57  1  0
 59 52  2  0
 60 52  1  0
 60 61  1  0
 62 63  2  0
 63 64  1  0
 63 82  1  0
 64 67  1  0
 65 62  1  0
 65 66  1  0
 66 64  2  0
 67 68  1  0
 68 69  2  0
 70 73  1  0
 70 69  1  0
 71 70  2  0
 72 71  1  0
 72 67  2  0
 73 74  1  0
 74 75  1  0
 75 76  2  0
 77 76  1  0
 77 81  1  0
 78 77  2  0
 79 74  2  0
 79 78  1  0
 80 79  1  0
 82 83  1  0
 83 86  1  0
 83 85  1  0
 84 82  2  0
 87 88  1  0
 87 62  1  0
 89 87  1  0
M  ISO  4   9 101  10 101  52 100  60 100
M  END
>  <TORSDO>  (83) 
F 19

>  <SCORE>  (83) 
-15.455

>  <name>  (83) 
83

>  <ligand_id>  (83) 
83

>  <original_smiles>  (83) 
[H]c1nc(C([H])([H])N([H])C(=O)N2C([H])([H])C([H])([H])C([H])([H])C([H])(n3nc(-c4c([H])c([H])c(Oc5c([H])c([H])c(F)c([H])c5F)c([H])c4[H])c(C(=O)N([H])[H])c3N([H])[H])C2([H])[H])c([H])c(C([H])([H])Oc2c([H])c([H])c3c(c2[H])C([H])([H])N(C(=O)C([H])(N([H])C(=O)C([H])(N([H])C([H])([H])[H])C([H])([H])[H])C(C([H])([H])[H])(C([H])([H])[H])C([H])([H])[H])C([H])(C(=O)N([H])C2([H])c4c([H])c([H])c([H])c([H])c4C([H])([H])C([H])([H])C2([H])[H])C3([H])[H])c1OC([H])([H])[H]

>  <smiles>  (83) 
[H]c1nc(C([H])([H])N([H])C(=O)N2C([H])([H])C([H])([H])C([H])([H])C([H])(n3nc(-c4c([H])c([H])c(Oc5c([H])c([H])c(F)c([H])c5F)c([H])c4[H])c(C(=O)N([H])[H])c3N([H])[H])C2([H])[H])c([H])c(C([H])([H])Oc2c([H])c([H])c3c(c2[H])C([H])([H])N(C(=O)C([H])(N([H])C(=O)C([H])(N([H])C([H])([H])[H])C([H])([H])[H])C(C([H])([H])[H])(C([H])([H])[H])C([H])([H])[H])C([H])(C(=O)N([H])C2([H])c4c([H])c([H])c([H])c([H])c4C([H])([H])C([H])([H])C2([H])[H])C3([H])[H])c1OC([H])([H])[H]

$$$$
84:0:0
     RDKit          3D

 96105  0  0  1  0  0  0  0  0999 V2000
  -32.2930  -18.2780   21.0000 C   0  0  0  0  0  3  0  0  0  0  0  0
  -29.9680  -18.4480   21.5780 C   0  0  0  0  0  3  0  0  0  0  0  0
  -31.1250  -17.6590   21.4860 C   0  0  0  0  0  0  0  0  0  0  0  0
  -32.2900  -19.6560   20.6820 C   0  0  0  0  0  0  0  0  0  0  0  0
  -31.0940  -20.3920   20.9080 C   0  0  0  0  0  0  0  0  0  0  0  0
  -29.9510  -19.7650   21.2830 N   0  0  0  0  0  0  0  0  0  0  0  0
  -30.1070  -22.6200   21.7870 C   0  0  0  0  0  2  0  0  0  0  0  0
  -30.4690  -22.2210   19.2420 C   0  0  0  0  0  2  0  0  0  0  0  0
  -29.7030  -24.0770   21.4630 C   0  0  0  0  0  2  0  0  0  0  0  0
  -30.0900  -23.7020   19.0120 C   0  0  0  0  0  2  0  0  0  0  0  0
  -30.9590  -21.9170   20.6810 C   0  0  0  0  0  3  0  0  0  0  0  0
  -29.0600  -24.1120   20.0720 C   0  0  0  0  0  3  0  0  0  0  0  0
  -28.1050  -25.2740   19.7260 C   0  0  0  0  0  2  0  0  0  0  0  0
  -28.3690  -26.6590   20.0410 O   0  0  0  0  0  0  0  0  0  0  0  0
  -24.6290  -31.8800   23.2170 C   0  0  0  0  0  0  0  0  0  0  0  0
  -27.2250  -27.4560   20.0300 C   0  0  0  0  0  0  0  0  0  0  0  0
  -23.4040  -30.5040   21.5730 C   0  0  0  0  0  3  0  0  0  0  0  0
  -24.8380  -29.0020   20.1040 C   0  0  0  0  0  0  0  0  0  0  0  0
  -25.9350  -30.8530   21.3580 C   0  0  0  0  0  2  0  0  0  0  0  0
  -26.0110  -29.4940   20.6920 C   0  0  0  0  0  0  0  0  0  0  0  0
  -27.2070  -28.7290   20.6550 C   0  0  0  0  0  3  0  0  0  0  0  0
  -26.0200  -27.0110   19.4180 C   0  0  0  0  0  3  0  0  0  0  0  0
  -24.8390  -27.7580   19.4680 C   0  0  0  0  0  3  0  0  0  0  0  0
  -23.5970  -29.8590   20.1790 C   0  0  0  0  0  2  0  0  0  0  0  0
  -24.6750  -31.0920   22.1060 N   0  0  0  0  0  0  0  0  0  0  0  0
  -23.5530  -32.1460   23.7690 O   0  0  0  0  0  0  0  0  0  0  0  0
  -22.7640  -29.4630   22.5210 C   0  0  0  0  0  0  0  0  0  0  0  0
  -21.4370  -29.2870   22.4110 N   0  0  0  0  0  0  0  0  0  0  0  0
  -23.4570  -28.8210   23.3140 O   0  0  0  0  0  0  0  0  0  0  0  0
  -20.9400  -29.8600   21.7420 H   0  0  0  0  0  0  0  0  0  0  0  0
  -18.0660  -28.0950   22.9360 C   0  0  0  0  0  0  0  0  0  0  0  0
  -20.6270  -28.3400   23.1780 C   0  0  0  0  0  3  0  0  0  0  0  0
  -20.7180  -26.9170   22.5820 C   0  0  0  0  0  2  0  0  0  0  0  0
  -19.6020  -26.6120   21.5770 C   0  0  0  0  0  2  0  0  0  0  0  0
  -18.2280  -26.7540   22.2390 C   0  0  0  0  0  2  0  0  0  0  0  0
  -19.1920  -28.8470   23.3610 C   0  0  0  0  0  0  0  0  0  0  0  0
  -18.9860  -30.1030   23.9720 C   0  0  0  0  0  3  0  0  0  0  0  0
  -17.6850  -30.6070   24.1600 C   0  0  0  0  0  3  0  0  0  0  0  0
  -16.5730  -29.8520   23.7520 C   0  0  0  0  0  3  0  0  0  0  0  0
  -16.7630  -28.5970   23.1460 C   0  0  0  0  0  3  0  0  0  0  0  0
  -25.9220  -32.5020   23.8300 C   0  0  0  0  0  3  0  0  0  0  0  0
  -26.4570  -31.7100   25.0850 C   0  0  1  0  0  0  0  0  0  0  0  0
  -25.3780  -31.4510   26.1620 C   0  0  0  0  0  1  0  0  0  0  0  0
  -27.0390  -30.3400   24.6620 C   0  0  0  0  0  1  0  0  0  0  0  0
  -27.6140  -32.4960   25.7440 C   0  0  0  0  0  1  0  0  0  0  0  0
  -25.6150  -33.8930   24.1830 N   0  0  0  0  0  0  0  0  0  0  0  0
  -25.9200  -34.9550   23.4260 C   0  0  0  0  0  0  0  0  0  0  0  0
  -26.5630  -34.8660   22.3760 O   0  0  0  0  0  0  0  0  0  0  0  0
  -25.0490  -34.0380   25.0060 H   0  0  0  0  0  0  0  0  0  0  0  0
  -24.1670  -36.7330   23.1370 C   0  0  0  0  0  1  0  0  0  0  0  0
  -25.4360  -36.3350   23.9090 C   0  0  0  0  0  3  0  0  0  0  0  0
  -27.5840  -37.2330   24.6860 C   0  0  0  0  0  1  0  0  0  0  0  0
  -26.4560  -37.3970   23.7720 N   0  0  0  0  0  0  0  0  0  0  0  0
  -26.0460  -38.3130   23.9340 H   0  0  0  0  0  0  0  0  0  0  0  0
  -33.9980  -19.5710   18.8030 C   0  0  0  0  0  1  0  0  0  0  0  0
  -34.7020  -20.3040   21.1280 C   0  0  0  0  0  1  0  0  0  0  0  0
  -33.5640  -20.2780   20.0980 C   0  0  0  0  0  3  0  0  0  0  0  0
  -31.1560  -16.2130   21.9930 C   0  0  0  0  0  2  0  0  0  0  0  0
  -30.6310  -14.4970   20.2670 C   0  0  0  0  0  0  0  0  0  0  0  0
  -30.1560  -12.4980   18.8970 C   0  0  0  0  0  2  0  0  0  0  0  0
  -29.1440  -12.7970   17.7760 C   0  0  0  0  0  2  0  0  0  0  0  0
  -27.7040  -12.6220   18.2890 C   0  0  0  0  0  2  0  0  0  0  0  0
  -27.4510  -13.3740   19.6220 C   0  0  0  0  0  3  0  0  0  0  0  0
  -28.5690  -13.0760   20.6480 C   0  0  0  0  0  2  0  0  0  0  0  0
  -29.8700  -13.3940   20.0290 N   0  0  0  0  0  0  0  0  0  0  0  0
  -31.6250  -14.7830   19.5950 O   0  0  0  0  0  0  0  0  0  0  0  0
  -30.2810  -15.2410   21.3260 N   0  0  0  0  0  0  0  0  0  0  0  0
  -29.4610  -14.9380   21.8290 H   0  0  0  0  0  0  0  0  0  0  0  0
  -25.0780  -13.9280   20.4510 C   0  0  0  0  0  0  0  0  0  0  0  0
  -24.0400  -13.1310   20.8570 C   0  0  0  0  0  0  0  0  0  0  0  0
  -24.5210  -11.7880   20.7800 C   0  0  0  0  0  0  0  0  0  0  0  0
  -26.1260  -13.0690   20.1590 N   0  0  0  0  0  0  0  0  0  0  0  0
  -25.7960  -11.7760   20.4130 N   0  0  0  0  0  0  0  0  0  0  0  0
  -23.8250  -10.5120   20.9830 C   0  0  0  0  0  0  0  0  0  0  0  0
  -24.2970   -9.5490   21.9020 C   0  0  0  0  0  3  0  0  0  0  0  0
  -23.6000   -8.3370   22.0910 C   0  0  0  0  0  3  0  0  0  0  0  0
  -22.4150   -8.0770   21.3610 C   0  0  0  0  0  0  0  0  0  0  0  0
  -21.9610   -9.0280   20.4310 C   0  0  0  0  0  3  0  0  0  0  0  0
  -22.6610  -10.2320   20.2390 C   0  0  0  0  0  3  0  0  0  0  0  0
  -21.6850   -6.9170   21.4610 O   0  0  0  0  0  0  0  0  0  0  0  0
  -21.6610   -6.1800   22.6180 C   0  0  0  0  0  0  0  0  0  0  0  0
  -21.2230   -6.7300   23.8430 C   0  0  0  0  0  3  0  0  0  0  0  0
  -21.1480   -5.9180   24.9920 C   0  0  0  0  0  3  0  0  0  0  0  0
  -21.4990   -4.5560   24.9170 C   0  0  0  0  0  0  0  0  0  0  0  0
  -21.9290   -4.0060   23.6970 C   0  0  0  0  0  3  0  0  0  0  0  0
  -22.0070   -4.8160   22.5510 C   0  0  0  0  0  0  0  0  0  0  0  0
  -22.4020   -4.2760   21.3730 F   0  0  0  0  0  0  0  0  0  0  0  0
  -21.4190   -3.7740   26.0180 F   0  0  0  0  0  0  0  0  0  0  0  0
  -22.6500  -13.5810   21.2040 C   0  0  0  0  0  0  0  0  0  0  0  0
  -21.9740  -12.8540   22.0870 N   0  0  0  0  0  0  0  0  0  0  0  0
  -22.1740  -14.6110   20.7290 O   0  0  0  0  0  0  0  0  0  0  0  0
  -22.3710  -12.0200   22.4920 H   0  0  0  0  0  0  0  0  0  0  0  0
  -21.0440  -13.1380   22.3630 H   0  0  0  0  0  0  0  0  0  0  0  0
  -25.2130  -15.3040   20.2900 N   0  0  0  0  0  0  0  0  0  0  0  0
  -24.4430  -15.9460   20.4400 H   0  0  0  0  0  0  0  0  0  0  0  0
  -26.0470  -15.7610   19.9400 H   0  0  0  0  0  0  0  0  0  0  0  0
  1  3  1  0
  3  2  2  0
  3 58  1  0
  4  5  1  0
  4  1  2  0
  5  6  2  0
  6  2  1  0
  8 11  1  0
  9  7  1  0
 10  8  1  0
 10 12  1  0
 11  5  1  0
 11  7  1  0
 12 13  1  0
 12  9  1  0
 13 14  1  0
 15 26  2  0
 16 14  1  0
 16 21  1  0
 17 25  1  0
 17 27  1  0
 18 24  1  0
 18 20  1  0
 19 25  1  0
 20 19  1  0
 21 20  2  0
 22 23  1  0
 22 16  2  0
 23 18  2  0
 24 17  1  0
 25 15  1  0
 27 29  2  0
 28 27  1  0
 30 28  1  0
 31 40  2  0
 31 36  1  0
 32 28  1  0
 32 36  1  0
 33 32  1  0
 34 35  1  0
 34 33  1  0
 35 31  1  0
 36 37  2  0
 37 38  1  0
 39 38  2  0
 40 39  1  0
 41 15  1  0
 41 46  1  0
 41 42  1  0
 42 45  1  1
 42 43  1  0
 44 42  1  0
 46 49  1  0
 47 51  1  0
 47 46  1  0
 48 47  2  0
 51 50  1  0
 53 51  1  0
 53 54  1  0
 53 52  1  0
 55 57  1  0
 57  4  1  0
 57 56  1  0
 59 67  1  0
 60 65  1  0
 61 62  1  0
 61 60  1  0
 63 62  1  0
 63 72  1  0
 63 64  1  0
 65 59  1  0
 65 64  1  0
 66 59  2  0
 67 68  1  0
 67 58  1  0
 69 70  2  0
 70 89  1  0
 71 70  1  0
 71 74  1  0
 72 73  1  0
 72 69  1  0
 73 71  2  0
 74 75  1  0
 75 76  2  0
 77 80  1  0
 77 76  1  0
 78 77  2  0
 79 78  1  0
 79 74  2  0
 80 81  1  0
 81 82  1  0
 82 83  2  0
 84 83  1  0
 84 88  1  0
 85 84  2  0
 86 81  2  0
 86 85  1  0
 87 86  1  0
 89 90  1  0
 90 93  1  0
 90 92  1  0
 91 89  2  0
 94 95  1  0
 94 69  1  0
 96 94  1  0
M  ISO  4  13 101  14 101  59 100  67 100
M  END
>  <TORSDO>  (84) 
F 20

>  <SCORE>  (84) 
-13.773

>  <name>  (84) 
84

>  <ligand_id>  (84) 
84

>  <original_smiles>  (84) 
[H]c1nc(C2([H])C([H])([H])C([H])([H])C([H])(C([H])([H])Oc3c([H])c([H])c4c(c3[H])C([H])([H])N(C(=O)C([H])(N([H])C(=O)C([H])(N([H])C([H])([H])[H])C([H])([H])[H])C(C([H])([H])[H])(C([H])([H])[H])C([H])([H])[H])C([H])(C(=O)N([H])C3([H])c5c([H])c([H])c([H])c([H])c5C([H])([H])C([H])([H])C3([H])[H])C4([H])[H])C([H])([H])C2([H])[H])c(C([H])(C([H])([H])[H])C([H])([H])[H])c([H])c1C([H])([H])N([H])C(=O)N1C([H])([H])C([H])([H])C([H])([H])C([H])(n2nc(-c3c([H])c([H])c(Oc4c([H])c([H])c(F)c([H])c4F)c([H])c3[H])c(C(=O)N([H])[H])c2N([H])[H])C1([H])[H]

>  <smiles>  (84) 
[H]c1nc(C2([H])C([H])([H])C([H])([H])C([H])(C([H])([H])Oc3c([H])c([H])c4c(c3[H])C([H])([H])N(C(=O)C([H])(N([H])C(=O)C([H])(N([H])C([H])([H])[H])C([H])([H])[H])C(C([H])([H])[H])(C([H])([H])[H])C([H])([H])[H])C([H])(C(=O)N([H])C3([H])c5c([H])c([H])c([H])c([H])c5C([H])([H])C([H])([H])C3([H])[H])C4([H])[H])C([H])([H])C2([H])[H])c(C([H])(C([H])([H])[H])C([H])([H])[H])c([H])c1C([H])([H])N([H])C(=O)N1C([H])([H])C([H])([H])C([H])([H])C([H])(n2nc(-c3c([H])c([H])c(Oc4c([H])c([H])c(F)c([H])c4F)c([H])c3[H])c(C(=O)N([H])[H])c2N([H])[H])C1([H])[H]

$$$$
85:0:0
     RDKit          3D

 92100  0  0  1  0  0  0  0  0999 V2000
  -28.8950  -25.1590   21.1190 C   0  0  0  0  0  3  0  0  0  0  0  0
  -29.0040  -23.9500   21.8300 C   0  0  0  0  0  3  0  0  0  0  0  0
  -29.4570  -23.9760   19.0700 C   0  0  0  0  0  3  0  0  0  0  0  0
  -29.1090  -25.1880   19.7290 C   0  0  0  0  0  0  0  0  0  0  0  0
  -29.3250  -22.7410   21.1740 C   0  0  0  0  0  0  0  0  0  0  0  0
  -29.5680  -22.7420   19.7720 C   0  0  0  0  0  0  0  0  0  0  0  0
  -27.9670  -21.0850   22.5390 C   0  0  0  0  0  1  0  0  0  0  0  0
  -29.3570  -21.4720   22.0190 C   0  0  0  0  0  2  0  0  0  0  0  0
  -29.8390  -21.4300   19.0030 C   0  0  0  0  0  2  0  0  0  0  0  0
  -31.1190  -20.6220   19.3850 C   0  0  0  0  0  2  0  0  0  0  0  0
  -30.9090  -19.0750   19.3640 C   0  0  0  0  0  2  0  0  0  0  0  0
  -32.0890  -18.2280   19.9260 C   0  0  0  0  0  2  0  0  0  0  0  0
  -32.4670  -15.7220   20.0540 C   0  0  0  0  0  0  0  0  0  0  0  0
  -32.2440  -13.3250   19.5030 C   0  0  0  0  0  2  0  0  0  0  0  0
  -31.3690  -13.1870   18.2390 C   0  0  0  0  0  2  0  0  0  0  0  0
  -29.8730  -13.1550   18.6070 C   0  0  0  0  0  2  0  0  0  0  0  0
  -29.4700  -14.2920   19.5820 C   0  0  0  0  0  3  0  0  0  0  0  0
  -30.4580  -14.3770   20.7670 C   0  0  0  0  0  2  0  0  0  0  0  0
  -31.8120  -14.5390   20.2130 N   0  0  0  0  0  0  0  0  0  0  0  0
  -33.6260  -15.7920   19.6370 O   0  0  0  0  0  0  0  0  0  0  0  0
  -31.7110  -16.8290   20.2220 N   0  0  0  0  0  0  0  0  0  0  0  0
  -30.7700  -16.6700   20.5490 H   0  0  0  0  0  0  0  0  0  0  0  0
  -27.1350  -15.1240   20.2760 C   0  0  0  0  0  0  0  0  0  0  0  0
  -25.9890  -14.4570   20.6120 C   0  0  0  0  0  0  0  0  0  0  0  0
  -26.3120  -13.0660   20.5530 C   0  0  0  0  0  0  0  0  0  0  0  0
  -28.0890  -14.1470   20.0370 N   0  0  0  0  0  0  0  0  0  0  0  0
  -27.5950  -12.9020   20.2610 N   0  0  0  0  0  0  0  0  0  0  0  0
  -25.4580  -11.8810   20.7010 C   0  0  0  0  0  0  0  0  0  0  0  0
  -25.7090  -10.9100   21.6960 C   0  0  0  0  0  3  0  0  0  0  0  0
  -24.8640   -9.7870   21.8310 C   0  0  0  0  0  3  0  0  0  0  0  0
  -23.7530   -9.6300   20.9690 C   0  0  0  0  0  0  0  0  0  0  0  0
  -23.5210  -10.5860   19.9650 C   0  0  0  0  0  3  0  0  0  0  0  0
  -24.3660  -11.7000   19.8290 C   0  0  0  0  0  3  0  0  0  0  0  0
  -22.8920   -8.5590   21.0110 O   0  0  0  0  0  0  0  0  0  0  0  0
  -22.5410   -7.9630   22.1960 C   0  0  0  0  0  0  0  0  0  0  0  0
  -21.8940   -8.6780   23.2270 C   0  0  0  0  0  3  0  0  0  0  0  0
  -21.4890   -8.0090   24.4000 C   0  0  0  0  0  3  0  0  0  0  0  0
  -21.7200   -6.6280   24.5390 C   0  0  0  0  0  0  0  0  0  0  0  0
  -22.3600   -5.9130   23.5100 C   0  0  0  0  0  3  0  0  0  0  0  0
  -22.7660   -6.5790   22.3410 C   0  0  0  0  0  0  0  0  0  0  0  0
  -23.3620   -5.8810   21.3430 F   0  0  0  0  0  0  0  0  0  0  0  0
  -21.3250   -5.9830   25.6610 F   0  0  0  0  0  0  0  0  0  0  0  0
  -24.6430  -15.0660   20.8780 C   0  0  0  0  0  0  0  0  0  0  0  0
  -23.8400  -14.4330   21.7260 N   0  0  0  0  0  0  0  0  0  0  0  0
  -24.3140  -16.1380   20.3700 O   0  0  0  0  0  0  0  0  0  0  0  0
  -24.1180  -13.5650   22.1590 H   0  0  0  0  0  0  0  0  0  0  0  0
  -22.9350  -14.8220   21.9460 H   0  0  0  0  0  0  0  0  0  0  0  0
  -27.4420  -16.4750   20.1340 N   0  0  0  0  0  0  0  0  0  0  0  0
  -26.7450  -17.2030   20.2460 H   0  0  0  0  0  0  0  0  0  0  0  0
  -28.3370  -16.8300   19.8210 H   0  0  0  0  0  0  0  0  0  0  0  0
  -29.0110  -26.5120   18.9530 C   0  0  0  0  0  2  0  0  0  0  0  0
  -28.7660  -27.7000   19.7420 O   0  0  0  0  0  0  0  0  0  0  0  0
  -24.5480  -32.0240   23.5270 C   0  0  0  0  0  0  0  0  0  0  0  0
  -27.5060  -28.2700   19.8440 C   0  0  0  0  0  0  0  0  0  0  0  0
  -23.4320  -30.7470   21.7270 C   0  0  0  0  0  3  0  0  0  0  0  0
  -24.9810  -29.5480   20.0930 C   0  0  0  0  0  0  0  0  0  0  0  0
  -25.9120  -31.3540   21.5480 C   0  0  0  0  0  2  0  0  0  0  0  0
  -26.1030  -30.0910   20.7280 C   0  0  0  0  0  0  0  0  0  0  0  0
  -27.3630  -29.4600   20.6000 C   0  0  0  0  0  3  0  0  0  0  0  0
  -26.3550  -27.7340   19.2210 C   0  0  0  0  0  3  0  0  0  0  0  0
  -25.1030  -28.3690   19.3380 C   0  0  0  0  0  3  0  0  0  0  0  0
  -23.6670  -30.2780   20.2660 C   0  0  0  0  0  2  0  0  0  0  0  0
  -24.6490  -31.3850   22.3270 N   0  0  0  0  0  0  0  0  0  0  0  0
  -23.4600  -32.1220   24.1120 O   0  0  0  0  0  0  0  0  0  0  0  0
  -22.8980  -29.5530   22.5500 C   0  0  0  0  0  0  0  0  0  0  0  0
  -21.6200  -29.2030   22.3370 N   0  0  0  0  0  0  0  0  0  0  0  0
  -23.6320  -28.9490   23.3380 O   0  0  0  0  0  0  0  0  0  0  0  0
  -21.0810  -29.7510   21.6800 H   0  0  0  0  0  0  0  0  0  0  0  0
  -18.4680  -27.4400   22.4570 C   0  0  0  0  0  0  0  0  0  0  0  0
  -20.9170  -28.0860   22.9690 C   0  0  0  0  0  3  0  0  0  0  0  0
  -21.3030  -26.7420   22.3100 C   0  0  0  0  0  2  0  0  0  0  0  0
  -20.3510  -26.3280   21.1840 C   0  0  0  0  0  2  0  0  0  0  0  0
  -18.9200  -26.1940   21.7110 C   0  0  0  0  0  2  0  0  0  0  0  0
  -19.4060  -28.3360   23.0330 C   0  0  0  0  0  0  0  0  0  0  0  0
  -18.9340  -29.4950   23.6850 C   0  0  0  0  0  3  0  0  0  0  0  0
  -17.5550  -29.7640   23.7680 C   0  0  0  0  0  3  0  0  0  0  0  0
  -16.6300  -28.8650   23.2090 C   0  0  0  0  0  3  0  0  0  0  0  0
  -17.0860  -27.7050   22.5590 C   0  0  0  0  0  3  0  0  0  0  0  0
  -25.7870  -32.6820   24.2110 C   0  0  0  0  0  3  0  0  0  0  0  0
  -25.4360  -34.0770   24.5140 N   0  0  0  0  0  0  0  0  0  0  0  0
  -25.7920  -35.1300   23.7670 C   0  0  0  0  0  0  0  0  0  0  0  0
  -26.5200  -35.0330   22.7760 O   0  0  0  0  0  0  0  0  0  0  0  0
  -24.7980  -34.2250   25.2810 H   0  0  0  0  0  0  0  0  0  0  0  0
  -24.0500  -36.8850   23.3070 C   0  0  0  0  0  1  0  0  0  0  0  0
  -25.2560  -36.5130   24.1860 C   0  0  0  0  0  3  0  0  0  0  0  0
  -27.3270  -37.4450   25.1180 C   0  0  0  0  0  1  0  0  0  0  0  0
  -26.2720  -37.5840   24.1170 N   0  0  0  0  0  0  0  0  0  0  0  0
  -25.8410  -38.4980   24.2340 H   0  0  0  0  0  0  0  0  0  0  0  0
  -26.2510  -31.9280   25.5170 C   0  0  1  0  0  0  0  0  0  0  0  0
  -25.1020  -31.6420   26.5120 C   0  0  0  0  0  1  0  0  0  0  0  0
  -26.9150  -30.5780   25.1610 C   0  0  0  0  0  1  0  0  0  0  0  0
  -27.3230  -32.7670   26.2530 C   0  0  0  0  0  1  0  0  0  0  0  0
  1  2  1  0
  3  4  1  0
  3  6  2  0
  4  1  2  0
  5  2  2  0
  5  8  1  0
  6  5  1  0
  8  7  1  0
  9 10  1  0
  9  6  1  0
 11 10  1  0
 11 12  1  0
 12 21  1  0
 13 19  1  0
 13 21  1  0
 14 19  1  0
 15 16  1  0
 15 14  1  0
 17 16  1  0
 17 26  1  0
 17 18  1  0
 19 18  1  0
 20 13  2  0
 21 22  1  0
 23 24  2  0
 24 43  1  0
 25 24  1  0
 25 28  1  0
 26 27  1  0
 26 23  1  0
 27 25  2  0
 28 29  1  0
 29 30  2  0
 31 34  1  0
 31 30  1  0
 32 31  2  0
 33 32  1  0
 33 28  2  0
 34 35  1  0
 35 40  2  0
 35 36  1  0
 36 37  2  0
 37 38  1  0
 38 42  1  0
 39 38  2  0
 40 39  1  0
 41 40  1  0
 43 44  1  0
 44 47  1  0
 44 46  1  0
 45 43  2  0
 48 49  1  0
 48 23  1  0
 50 48  1  0
 51  4  1  0
 51 52  1  0
 52 54  1  0
 53 64  2  0
 54 59  1  0
 55 63  1  0
 55 65  1  0
 56 62  1  0
 56 58  1  0
 57 63  1  0
 58 57  1  0
 59 58  2  0
 60 61  1  0
 60 54  2  0
 61 56  2  0
 62 55  1  0
 63 53  1  0
 65 67  2  0
 66 65  1  0
 68 66  1  0
 69 78  2  0
 69 74  1  0
 70 66  1  0
 70 74  1  0
 71 70  1  0
 72 73  1  0
 72 71  1  0
 73 69  1  0
 74 75  2  0
 75 76  1  0
 77 76  2  0
 78 77  1  0
 79 53  1  0
 79 80  1  0
 79 89  1  0
 80 83  1  0
 81 85  1  0
 81 80  1  0
 82 81  2  0
 85 84  1  0
 87 85  1  0
 87 88  1  0
 87 86  1  0
 89 92  1  1
 89 90  1  0
 91 89  1  0
M  ISO  4  13 100  21 100  51 101  52 101
M  END
>  <TORSDO>  (85) 
F 22

>  <SCORE>  (85) 
-6.723

>  <name>  (85) 
85

>  <ligand_id>  (85) 
85

>  <original_smiles>  (85) 
[H]c1c([H])c([H])c2c(c1[H])C([H])([H])C([H])([H])C([H])([H])C2([H])N([H])C(=O)C1([H])N(C(=O)C([H])(N([H])C(=O)C([H])(N([H])C([H])([H])[H])C([H])([H])[H])C(C([H])([H])[H])(C([H])([H])[H])C([H])([H])[H])C([H])([H])c2c([H])c(OC([H])([H])c3c([H])c([H])c(C([H])([H])C([H])([H])[H])c(C([H])([H])C([H])([H])C([H])([H])C([H])([H])N([H])C(=O)N4C([H])([H])C([H])([H])C([H])([H])C([H])(n5nc(-c6c([H])c([H])c(Oc7c([H])c([H])c(F)c([H])c7F)c([H])c6[H])c(C(=O)N([H])[H])c5N([H])[H])C4([H])[H])c3[H])c([H])c([H])c2C1([H])[H]

>  <smiles>  (85) 
[H]c1c([H])c([H])c2c(c1[H])C([H])([H])C([H])([H])C([H])([H])C2([H])N([H])C(=O)C1([H])N(C(=O)C([H])(N([H])C(=O)C([H])(N([H])C([H])([H])[H])C([H])([H])[H])C(C([H])([H])[H])(C([H])([H])[H])C([H])([H])[H])C([H])([H])c2c([H])c(OC([H])([H])c3c([H])c([H])c(C([H])([H])C([H])([H])[H])c(C([H])([H])C([H])([H])C([H])([H])C([H])([H])N([H])C(=O)N4C([H])([H])C([H])([H])C([H])([H])C([H])(n5nc(-c6c([H])c([H])c(Oc7c([H])c([H])c(F)c([H])c7F)c([H])c6[H])c(C(=O)N([H])[H])c5N([H])[H])C4([H])[H])c3[H])c([H])c([H])c2C1([H])[H]

$$$$
86:0:0
     RDKit          3D

 96104  0  0  1  0  0  0  0  0999 V2000
  -28.1590  -24.6150   18.7070 C   0  0  0  0  0  3  0  0  0  0  0  0
  -26.6680  -23.8440   20.4490 C   0  0  0  0  0  3  0  0  0  0  0  0
  -27.7730  -24.6200   20.0580 C   0  0  0  0  0  0  0  0  0  0  0  0
  -27.4100  -23.8550   17.7870 C   0  0  0  0  0  0  0  0  0  0  0  0
  -26.3150  -23.0980   18.2770 C   0  0  0  0  0  0  0  0  0  0  0  0
  -25.9480  -23.1120   19.5760 N   0  0  0  0  0  0  0  0  0  0  0  0
  -27.1300  -25.0390   15.5610 C   0  0  0  0  0  1  0  0  0  0  0  0
  -27.8060  -23.8880   16.3160 C   0  0  0  0  0  2  0  0  0  0  0  0
  -28.4680  -25.5300   21.0500 C   0  0  0  0  0  2  0  0  0  0  0  0
  -28.5650  -26.8830   20.5980 O   0  0  0  0  0  0  0  0  0  0  0  0
  -24.6150  -32.0110   23.5170 C   0  0  0  0  0  0  0  0  0  0  0  0
  -27.3840  -27.5880   20.5480 C   0  0  0  0  0  0  0  0  0  0  0  0
  -23.4780  -30.6170   21.8190 C   0  0  0  0  0  3  0  0  0  0  0  0
  -24.9890  -29.0840   20.4630 C   0  0  0  0  0  0  0  0  0  0  0  0
  -26.0110  -30.9700   21.7400 C   0  0  0  0  0  2  0  0  0  0  0  0
  -26.1190  -29.6020   21.1080 C   0  0  0  0  0  0  0  0  0  0  0  0
  -27.3180  -28.8600   21.1510 C   0  0  0  0  0  3  0  0  0  0  0  0
  -26.2420  -27.0950   19.8740 C   0  0  0  0  0  3  0  0  0  0  0  0
  -25.0450  -27.8270   19.8440 C   0  0  0  0  0  3  0  0  0  0  0  0
  -23.7460  -29.9410   20.4510 C   0  0  0  0  0  2  0  0  0  0  0  0
  -24.7170  -31.2120   22.4170 N   0  0  0  0  0  0  0  0  0  0  0  0
  -23.5110  -32.2840   24.0070 O   0  0  0  0  0  0  0  0  0  0  0  0
  -22.7830  -29.5930   22.7450 C   0  0  0  0  0  0  0  0  0  0  0  0
  -21.4700  -29.4000   22.5400 N   0  0  0  0  0  0  0  0  0  0  0  0
  -23.4240  -28.9750   23.6010 O   0  0  0  0  0  0  0  0  0  0  0  0
  -21.0140  -29.9500   21.8250 H   0  0  0  0  0  0  0  0  0  0  0  0
  -18.0780  -28.2060   22.8680 C   0  0  0  0  0  0  0  0  0  0  0  0
  -20.6190  -28.4600   23.2680 C   0  0  0  0  0  3  0  0  0  0  0  0
  -20.7490  -27.0300   22.6940 C   0  0  0  0  0  2  0  0  0  0  0  0
  -19.6980  -26.7090   21.6260 C   0  0  0  0  0  2  0  0  0  0  0  0
  -18.2860  -26.8560   22.2000 C   0  0  0  0  0  2  0  0  0  0  0  0
  -19.1750  -28.9650   23.3560 C   0  0  0  0  0  0  0  0  0  0  0  0
  -18.9300  -30.2280   23.9360 C   0  0  0  0  0  3  0  0  0  0  0  0
  -17.6210  -30.7350   24.0330 C   0  0  0  0  0  3  0  0  0  0  0  0
  -16.5370  -29.9720   23.5670 C   0  0  0  0  0  3  0  0  0  0  0  0
  -16.7650  -28.7080   22.9920 C   0  0  0  0  0  3  0  0  0  0  0  0
  -25.8740  -32.6360   24.1940 C   0  0  0  0  0  3  0  0  0  0  0  0
  -26.2920  -31.9040   25.5270 C   0  0  1  0  0  0  0  0  0  0  0  0
  -25.1260  -31.7100   26.5250 C   0  0  0  0  0  1  0  0  0  0  0  0
  -26.8890  -30.5100   25.2250 C   0  0  0  0  0  1  0  0  0  0  0  0
  -27.4050  -32.7090   26.2390 C   0  0  0  0  0  1  0  0  0  0  0  0
  -25.5820  -34.0530   24.4460 N   0  0  0  0  0  0  0  0  0  0  0  0
  -25.9560  -35.0600   23.6440 C   0  0  0  0  0  0  0  0  0  0  0  0
  -26.6560  -34.8930   22.6410 O   0  0  0  0  0  0  0  0  0  0  0  0
  -24.9720  -34.2580   25.2230 H   0  0  0  0  0  0  0  0  0  0  0  0
  -24.2550  -36.8470   23.1610 C   0  0  0  0  0  1  0  0  0  0  0  0
  -25.4800  -36.4780   24.0140 C   0  0  0  0  0  3  0  0  0  0  0  0
  -27.6070  -37.3900   24.8340 C   0  0  0  0  0  1  0  0  0  0  0  0
  -26.5280  -37.5090   23.8560 N   0  0  0  0  0  0  0  0  0  0  0  0
  -26.1320  -38.4430   23.9330 H   0  0  0  0  0  0  0  0  0  0  0  0
  -25.5200  -22.1200   17.4160 C   0  0  0  0  0  2  0  0  0  0  0  0
  -25.7870  -20.6560   17.8200 C   0  0  0  0  0  2  0  0  0  0  0  0
  -27.2820  -20.2870   17.9040 C   0  0  0  0  0  2  0  0  0  0  0  0
  -27.5480  -19.1010   18.8360 C   0  0  0  0  0  2  0  0  0  0  0  0
  -29.0110  -19.0490   19.2900 C   0  0  0  0  0  2  0  0  0  0  0  0
  -29.2250  -18.0270   20.4070 C   0  0  0  0  0  2  0  0  0  0  0  0
  -30.6920  -17.9710   20.8650 C   0  0  0  0  0  2  0  0  0  0  0  0
  -30.9600  -16.9210   21.9610 C   0  0  0  0  0  2  0  0  0  0  0  0
  -30.9580  -14.8240   20.6100 C   0  0  0  0  0  0  0  0  0  0  0  0
  -30.6640  -12.7210   19.3600 C   0  0  0  0  0  2  0  0  0  0  0  0
  -29.7480  -12.9230   18.1400 C   0  0  0  0  0  2  0  0  0  0  0  0
  -28.2700  -12.7540   18.5370 C   0  0  0  0  0  2  0  0  0  0  0  0
  -27.8910  -13.6000   19.7800 C   0  0  0  0  0  3  0  0  0  0  0  0
  -28.9120  -13.3830   20.9170 C   0  0  0  0  0  2  0  0  0  0  0  0
  -30.2640  -13.6790   20.4010 N   0  0  0  0  0  0  0  0  0  0  0  0
  -31.9710  -15.1370   19.9760 O   0  0  0  0  0  0  0  0  0  0  0  0
  -30.4760  -15.5960   21.5910 N   0  0  0  0  0  0  0  0  0  0  0  0
  -29.6730  -15.2400   22.0900 H   0  0  0  0  0  0  0  0  0  0  0  0
  -25.4740  -14.1890   20.4520 C   0  0  0  0  0  0  0  0  0  0  0  0
  -24.4020  -13.4060   20.7820 C   0  0  0  0  0  0  0  0  0  0  0  0
  -24.8660  -12.0560   20.7240 C   0  0  0  0  0  0  0  0  0  0  0  0
  -26.5260  -13.3160   20.2200 N   0  0  0  0  0  0  0  0  0  0  0  0
  -26.1600  -12.0260   20.4370 N   0  0  0  0  0  0  0  0  0  0  0  0
  -24.1400  -10.7870   20.8690 C   0  0  0  0  0  0  0  0  0  0  0  0
  -24.5070   -9.8330   21.8440 C   0  0  0  0  0  3  0  0  0  0  0  0
  -23.7820   -8.6300   21.9760 C   0  0  0  0  0  3  0  0  0  0  0  0
  -22.6770   -8.3710   21.1310 C   0  0  0  0  0  0  0  0  0  0  0  0
  -22.3300   -9.3140   20.1470 C   0  0  0  0  0  3  0  0  0  0  0  0
  -23.0550  -10.5090   20.0140 C   0  0  0  0  0  3  0  0  0  0  0  0
  -21.9300   -7.2180   21.1690 O   0  0  0  0  0  0  0  0  0  0  0  0
  -21.7390   -6.5220   22.3350 C   0  0  0  0  0  0  0  0  0  0  0  0
  -21.1150   -7.1080   23.4590 C   0  0  0  0  0  3  0  0  0  0  0  0
  -20.8750   -6.3360   24.6130 C   0  0  0  0  0  3  0  0  0  0  0  0
  -21.2500   -4.9800   24.6440 C   0  0  0  0  0  0  0  0  0  0  0  0
  -21.8660   -4.3930   23.5250 C   0  0  0  0  0  3  0  0  0  0  0  0
  -22.1070   -5.1620   22.3720 C   0  0  0  0  0  0  0  0  0  0  0  0
  -22.6830   -4.5880   21.2890 F   0  0  0  0  0  0  0  0  0  0  0  0
  -21.0130   -4.2350   25.7500 F   0  0  0  0  0  0  0  0  0  0  0  0
  -22.9980  -13.8720   21.0460 C   0  0  0  0  0  0  0  0  0  0  0  0
  -22.2620  -13.1550   21.8860 N   0  0  0  0  0  0  0  0  0  0  0  0
  -22.5630  -14.9070   20.5430 O   0  0  0  0  0  0  0  0  0  0  0  0
  -22.6260  -12.3160   22.3130 H   0  0  0  0  0  0  0  0  0  0  0  0
  -21.3210  -13.4480   22.1060 H   0  0  0  0  0  0  0  0  0  0  0  0
  -25.6380  -15.5650   20.3140 N   0  0  0  0  0  0  0  0  0  0  0  0
  -24.8660  -16.2130   20.4250 H   0  0  0  0  0  0  0  0  0  0  0  0
  -26.4990  -16.0170   20.0310 H   0  0  0  0  0  0  0  0  0  0  0  0
  1  3  1  0
  3  2  2  0
  3  9  1  0
  4  5  1  0
  4  1  2  0
  5  6  2  0
  6  2  1  0
  7  8  1  0
  8  4  1  0
 10  9  1  0
 11 22  2  0
 12 10  1  0
 12 17  1  0
 13 21  1  0
 13 23  1  0
 14 16  1  0
 15 21  1  0
 16 17  2  0
 16 15  1  0
 18 12  2  0
 19 18  1  0
 19 14  2  0
 20 14  1  0
 20 13  1  0
 21 11  1  0
 23 25  2  0
 24 23  1  0
 26 24  1  0
 27 36  2  0
 27 32  1  0
 28 24  1  0
 28 32  1  0
 29 28  1  0
 30 31  1  0
 30 29  1  0
 31 27  1  0
 32 33  2  0
 33 34  1  0
 35 34  2  0
 36 35  1  0
 37 11  1  0
 37 42  1  0
 37 38  1  0
 38 41  1  1
 38 39  1  0
 40 38  1  0
 42 45  1  0
 43 47  1  0
 43 42  1  0
 44 43  2  0
 47 46  1  0
 49 50  1  0
 49 47  1  0
 49 48  1  0
 51 52  1  0
 51  5  1  0
 52 53  1  0
 53 54  1  0
 54 55  1  0
 55 56  1  0
 56 57  1  0
 57 58  1  0
 59 67  1  0
 60 65  1  0
 61 62  1  0
 61 60  1  0
 63 62  1  0
 63 72  1  0
 63 64  1  0
 65 59  1  0
 65 64  1  0
 66 59  2  0
 67 58  1  0
 67 68  1  0
 69 70  2  0
 70 89  1  0
 71 70  1  0
 71 74  1  0
 72 73  1  0
 72 69  1  0
 73 71  2  0
 74 75  1  0
 75 76  2  0
 77 80  1  0
 77 76  1  0
 78 77  2  0
 79 78  1  0
 79 74  2  0
 80 81  1  0
 81 86  2  0
 81 82  1  0
 82 83  2  0
 83 84  1  0
 84 88  1  0
 85 84  2  0
 86 85  1  0
 87 86  1  0
 89 90  1  0
 90 93  1  0
 90 92  1  0
 91 89  2  0
 94 95  1  0
 94 69  1  0
 96 94  1  0
M  ISO  4   9 101  10 101  59 100  67 100
M  END
>  <TORSDO>  (86) 
F 26

>  <SCORE>  (86) 
-11.140

>  <name>  (86) 
86

>  <ligand_id>  (86) 
86

>  <original_smiles>  (86) 
[H]c1nc(C([H])([H])C([H])([H])C([H])([H])C([H])([H])C([H])([H])C([H])([H])C([H])([H])C([H])([H])N([H])C(=O)N2C([H])([H])C([H])([H])C([H])([H])C([H])(n3nc(-c4c([H])c([H])c(Oc5c([H])c([H])c(F)c([H])c5F)c([H])c4[H])c(C(=O)N([H])[H])c3N([H])[H])C2([H])[H])c(C([H])([H])C([H])([H])[H])c([H])c1C([H])([H])Oc1c([H])c([H])c2c(c1[H])C([H])([H])N(C(=O)C([H])(N([H])C(=O)C([H])(N([H])C([H])([H])[H])C([H])([H])[H])C(C([H])([H])[H])(C([H])([H])[H])C([H])([H])[H])C([H])(C(=O)N([H])C1([H])c3c([H])c([H])c([H])c([H])c3C([H])([H])C([H])([H])C1([H])[H])C2([H])[H]

>  <smiles>  (86) 
[H]c1nc(C([H])([H])C([H])([H])C([H])([H])C([H])([H])C([H])([H])C([H])([H])C([H])([H])C([H])([H])N([H])C(=O)N2C([H])([H])C([H])([H])C([H])([H])C([H])(n3nc(-c4c([H])c([H])c(Oc5c([H])c([H])c(F)c([H])c5F)c([H])c4[H])c(C(=O)N([H])[H])c3N([H])[H])C2([H])[H])c(C([H])([H])C([H])([H])[H])c([H])c1C([H])([H])Oc1c([H])c([H])c2c(c1[H])C([H])([H])N(C(=O)C([H])(N([H])C(=O)C([H])(N([H])C([H])([H])[H])C([H])([H])[H])C(C([H])([H])[H])(C([H])([H])[H])C([H])([H])[H])C([H])(C(=O)N([H])C1([H])c3c([H])c([H])c([H])c([H])c3C([H])([H])C([H])([H])C1([H])[H])C2([H])[H]

$$$$
87:0:0
     RDKit          3D

 98100  0  0  1  0  0  0  0  0999 V2000
  -26.8450  -11.8230   21.3910 C   0  0  0  0  0  2  0  0  0  0  0  0
  -26.0820  -13.5890   18.7210 C   0  0  0  0  0 15  0  0  0  0  0  0
  -27.3980  -14.9820   21.2930 C   0  0  0  0  0  2  0  0  0  0  0  0
  -26.1300  -11.6720   19.7140 C   0  0  0  0  0  1  0  0  0  0  0  0
  -27.4030  -13.4010   22.1600 C   0  0  0  0  0  0  0  0  0  0  0  0
  -26.7690  -15.3370   19.6520 C   0  0  0  0  0  1  0  0  0  0  0  0
  -21.4750   -7.5370   19.0390 C   0  0  0  0  0  3  0  0  0  0  0  0
  -23.2350   -7.5510   18.2890 C   0  0  0  0  0  3  0  0  0  0  0  0
  -20.8300   -8.4340   20.6060 C   0  0  0  0  0  3  0  0  0  0  0  0
  -24.7300   -8.6920   18.6010 C   0  0  0  0  0  3  0  0  0  0  0  0
  -21.9230   -9.5980   21.6760 C   0  0  0  0  0  1  0  0  0  0  0  0
  -24.8970   -9.9470   19.9990 C   0  0  0  0  0  1  0  0  0  0  0  0
  -27.8730  -13.3270   23.6280 C   0  0  0  0  0  3  0  0  0  0  0  0
  -28.2960  -14.6110   24.4010 C   0  0  0  0  0  2  0  0  0  0  0  0
  -29.5140  -15.5340   24.0280 C   0  0  0  0  0  2  0  0  0  0  0  0
  -30.7260  -15.0490   23.1910 C   0  0  0  0  0  2  0  0  0  0  0  0
  -30.9120  -14.2070   20.8030 C   0  0  0  0  0  0  0  0  0  0  0  0
  -30.8400  -12.3860   19.0810 C   0  0  0  0  0  2  0  0  0  0  0  0
  -29.7870  -12.5730   17.9780 C   0  0  0  0  0  2  0  0  0  0  0  0
  -28.3490  -12.3870   18.4570 C   0  0  0  0  0  2  0  0  0  0  0  0
  -27.9730  -13.1900   19.8770 C   0  0  0  0  0  2  0  0  0  0  0  0
  -29.2080  -12.4520   20.6570 C   0  0  0  0  0  2  0  0  0  0  0  0
  -30.4070  -13.0830   20.2690 N   0  0  0  0  0  0  0  0  0  0  0  0
  -31.9170  -14.7550   20.3560 O   0  0  0  0  0  0  0  0  0  0  0  0
  -30.2520  -14.5560   21.9170 N   0  0  0  0  0  0  0  0  0  0  0  0
  -29.3210  -14.1600   21.9870 H   0  0  0  0  0  0  0  0  0  0  0  0
  -24.6170  -14.5300   21.2680 C   0  0  2  0  0  0  0  0  0  0  0  0
  -23.6220  -13.7190   21.7650 C   0  0  1  0  0  0  0  0  0  0  0  0
  -24.1400  -12.4620   21.7130 C   0  0  0  0  0  3  0  0  0  0  0  0
  -25.5440  -13.6380   20.8670 N   0  0  0  0  0  2  0  0  0  0  0  0
  -24.4440  -12.9240   20.6430 N   0  0  1  0  0  4  0  0  0  0  0  0
  -23.6280  -11.2160   21.4930 C   0  0  0  0  0  0  0  0  0  0  0  0
  -24.2370  -10.0440   22.3530 C   0  0  0  0  0  3  0  0  0  0  0  0
  -24.1210   -8.5700   21.9890 C   0  0  0  0  0  3  0  0  0  0  0  0
  -23.3620   -8.1680   20.7350 C   0  0  0  0  0  0  0  0  0  0  0  0
  -22.7120   -9.5670   19.6080 C   0  0  0  0  0  3  0  0  0  0  0  0
  -22.8350  -11.0440   20.1000 C   0  0  0  0  0  3  0  0  0  0  0  0
  -22.6740   -6.8690   21.0990 O   0  0  0  0  0  0  0  0  0  0  0  0
  -22.1960   -6.1840   22.3140 C   0  0  0  0  0  0  0  0  0  0  0  0
  -21.8180   -6.6740   23.6170 C   0  0  0  0  0  3  0  0  0  0  0  0
  -21.5230   -5.8160   24.7260 C   0  0  0  0  0  3  0  0  0  0  0  0
  -21.6090   -4.4160   24.5940 C   0  0  0  0  0  0  0  0  0  0  0  0
  -21.8400   -3.9000   23.3110 C   0  0  0  0  0  3  0  0  0  0  0  0
  -22.0750   -4.7640   22.2080 C   0  0  0  0  0  0  0  0  0  0  0  0
  -22.2390   -4.1900   20.9970 F   0  0  0  0  0  0  0  0  0  0  0  0
  -21.4710   -3.5830   25.6620 F   0  0  0  0  0  0  0  0  0  0  0  0
  -22.2020  -13.9270   21.5110 C   0  0  0  0  0  0  0  0  0  0  0  0
  -21.4010  -13.1140   22.1750 N   0  0  0  0  0  0  0  0  0  0  0  0
  -21.8610  -14.7360   20.6580 O   0  0  0  0  0  0  0  0  0  0  0  0
  -21.7420  -12.4860   22.8830 H   0  0  0  0  0  0  0  0  0  0  0  0
  -20.4040  -13.1830   22.0280 H   0  0  0  0  0  0  0  0  0  0  0  0
  -24.6660  -15.8840   21.0470 N   0  0  0  0  0  0  0  0  0  0  0  0
  -25.4680  -16.1700   20.4970 H   0  0  0  0  0  0  0  0  0  0  0  0
  -23.7960  -16.2800   20.7090 H   0  0  0  0  0  0  0  0  0  0  0  0
  -26.8190  -17.5500   19.3530 C   0  0  0  0  0 15  0  0  0  0  0  0
  -26.9950  -19.8320   20.0120 C   0  0  0  0  0 15  0  0  0  0  0  0
  -27.1340  -22.1920   19.6840 C   0  0  0  0  0 15  0  0  0  0  0  0
  -27.3810  -24.2610   20.1710 O   0  0  0  0  0  1  0  0  0  0  0  0
  -24.7450  -31.7220   23.1070 C   0  0  0  0  0  0  0  0  0  0  0  0
  -26.8090  -25.9080   20.1420 C   0  0  0  0  0  0  0  0  0  0  0  0
  -23.5670  -30.3320   21.4880 C   0  0  0  0  0  3  0  0  0  0  0  0
  -24.9280  -28.5380   20.0800 C   0  0  0  0  0  0  0  0  0  0  0  0
  -26.1550  -30.1530   21.4830 C   0  0  0  0  0  2  0  0  0  0  0  0
  -26.1130  -28.6530   20.8040 C   0  0  0  0  0  0  0  0  0  0  0  0
  -27.0200  -27.3720   20.8060 C   0  0  0  0  0  3  0  0  0  0  0  0
  -25.6840  -26.2240   19.3240 C   0  0  0  0  0  3  0  0  0  0  0  0
  -24.8040  -27.3680   19.3130 C   0  0  0  0  0  3  0  0  0  0  0  0
  -23.8220  -29.6290   20.1170 C   0  0  0  0  0  2  0  0  0  0  0  0
  -24.8640  -30.7880   22.0770 N   0  0  0  0  0  0  0  0  0  0  0  0
  -23.6380  -32.0730   23.5610 O   0  0  0  0  0  0  0  0  0  0  0  0
  -22.7920  -29.3970   22.4570 C   0  0  0  0  0  0  0  0  0  0  0  0
  -21.4540  -29.2980   22.3340 N   0  0  0  0  0  0  0  0  0  0  0  0
  -23.4120  -28.7640   23.3160 O   0  0  0  0  0  0  0  0  0  0  0  0
  -20.9950  -29.8560   21.6280 H   0  0  0  0  0  0  0  0  0  0  0  0
  -18.0380  -28.1490   22.8440 C   0  0  0  0  0  0  0  0  0  0  0  0
  -20.6030  -28.3830   23.1090 C   0  0  0  0  0  3  0  0  0  0  0  0
  -20.6830  -26.9450   22.5420 C   0  0  0  0  0  2  0  0  0  0  0  0
  -19.5810  -26.6370   21.5260 C   0  0  0  0  0  2  0  0  0  0  0  0
  -18.1980  -26.8010   22.1620 C   0  0  0  0  0  2  0  0  0  0  0  0
  -19.1660  -28.9000   23.2740 C   0  0  0  0  0  0  0  0  0  0  0  0
  -18.9540  -30.1580   23.8780 C   0  0  0  0  0  3  0  0  0  0  0  0
  -17.6520  -30.6640   24.0560 C   0  0  0  0  0  3  0  0  0  0  0  0
  -16.5410  -29.9100   23.6380 C   0  0  0  0  0  3  0  0  0  0  0  0
  -16.7350  -28.6560   23.0340 C   0  0  0  0  0  3  0  0  0  0  0  0
  -25.9750  -32.4100   23.7760 C   0  0  0  0  0  3  0  0  0  0  0  0
  -25.6070  -33.7970   24.1580 N   0  0  0  0  0  0  0  0  0  0  0  0
  -25.9210  -34.9110   23.4800 C   0  0  0  0  0  0  0  0  0  0  0  0
  -26.5920  -34.8800   22.4480 O   0  0  0  0  0  0  0  0  0  0  0  0
  -25.0010  -33.8920   24.9600 H   0  0  0  0  0  0  0  0  0  0  0  0
  -24.1510  -36.7010   23.2660 C   0  0  0  0  0  1  0  0  0  0  0  0
  -25.4180  -36.2720   24.0230 C   0  0  0  0  0  3  0  0  0  0  0  0
  -27.5580  -37.1660   24.8460 C   0  0  0  0  0  1  0  0  0  0  0  0
  -26.4260  -37.3550   23.9430 N   0  0  0  0  0  0  0  0  0  0  0  0
  -26.0060  -38.2580   24.1430 H   0  0  0  0  0  0  0  0  0  0  0  0
  -26.4720  -31.6470   25.0700 C   0  0  1  0  0  0  0  0  0  0  0  0
  -25.3570  -31.3960   26.1150 C   0  0  0  0  0  1  0  0  0  0  0  0
  -27.0760  -30.2750   24.7110 C   0  0  0  0  0  1  0  0  0  0  0  0
  -27.6070  -32.4490   25.7490 C   0  0  0  0  0  1  0  0  0  0  0  0
  1  5  1  0
  3  5  1  0
  4  1  1  0
  5 13  2  0
  6  3  1  0
  7  9  2  0
  8 10  2  0
  8  7  1  0
  9 11  1  0
 10 12  1  0
 13 14  1  0
 15 14  1  0
 16 15  1  0
 17 25  1  0
 18 23  1  0
 19 20  1  0
 19 18  1  0
 20 21  1  0
 21 22  1  0
 23 22  1  0
 23 17  1  0
 24 17  2  0
 25 26  1  0
 25 16  1  0
 27 52  1  1
 27 28  1  0
 28 47  1  1
 29 32  1  0
 29 28  1  0
 30 27  1  0
 31 30  1  6
 31 27  1  0
 31 29  1  0
 31 28  1  0
 32 33  1  0
 34 33  2  0
 35 38  1  0
 35 34  1  0
 36 37  1  0
 36 35  2  0
 37 32  2  0
 38 39  1  0
 39 40  1  0
 40 41  2  0
 42 41  1  0
 42 46  1  0
 43 42  2  0
 44 39  2  0
 44 43  1  0
 45 44  1  0
 47 48  1  0
 48 50  1  0
 49 47  2  0
 51 48  1  0
 53 52  1  0
 54 52  1  0
 59 70  2  0
 60 58  1  0
 60 65  1  0
 61 69  1  0
 61 71  1  0
 62 68  1  0
 62 64  1  0
 63 69  1  0
 64 65  2  0
 64 63  1  0
 66 60  2  0
 67 66  1  0
 67 62  2  0
 68 61  1  0
 69 59  1  0
 71 73  2  0
 72 71  1  0
 74 72  1  0
 75 84  2  0
 75 80  1  0
 76 72  1  0
 76 80  1  0
 77 76  1  0
 78 79  1  0
 78 77  1  0
 79 75  1  0
 80 81  2  0
 81 82  1  0
 83 82  2  0
 84 83  1  0
 85 59  1  0
 85 86  1  0
 85 95  1  0
 86 89  1  0
 87 91  1  0
 87 86  1  0
 88 87  2  0
 91 90  1  0
 93 91  1  0
 93 94  1  0
 93 92  1  0
 95 98  1  1
 95 96  1  0
 97 95  1  0
M  ISO  4  17 100  25 100  57 101  58 101
M  END
>  <TORSDO>  (87) 
F 24

>  <SCORE>  (87) 
30.538

>  <name>  (87) 
87

>  <ligand_id>  (87) 
87

>  <original_smiles>  (87) 
[H]c1c([H])c([H])c2c(c1[H])C([H])([H])C([H])([H])C([H])([H])C2([H])N([H])C(=O)C1([H])N(C(=O)C([H])(N([H])C(=O)C([H])(N([H])C([H])([H])[H])C([H])([H])[H])C(C([H])([H])[H])(C([H])([H])[H])C([H])([H])[H])C([H])([H])c2c([H])c(OC([H])([H])C([H])([H])C([H])([H])c3c([H])c(C([H])([H])C([H])([H])C([H])([H])C([H])([H])N([H])C(=O)N4C([H])([H])C([H])([H])C([H])([H])C([H])(n5nc(-c6c([H])c([H])c(Oc7c([H])c([H])c(F)c([H])c7F)c([H])c6[H])c(C(=O)N([H])[H])c5N([H])[H])C4([H])[H])c([H])c(C4([H])C([H])([H])C([H])([H])C([H])([H])C([H])([H])C4([H])[H])c3[H])c([H])c([H])c2C1([H])[H]

>  <smiles>  (87) 
[H]c1c([H])c([H])c2c(c1[H])C([H])([H])C([H])([H])C([H])([H])C2([H])N([H])C(=O)C1([H])N(C(=O)C([H])(N([H])C(=O)C([H])(N([H])C([H])([H])[H])C([H])([H])[H])C(C([H])([H])[H])(C([H])([H])[H])C([H])([H])[H])C([H])([H])c2c([H])c(OC([H])([H])C([H])([H])C([H])([H])c3c([H])c(C([H])([H])C([H])([H])C([H])([H])C([H])([H])N([H])C(=O)N4C([H])([H])C([H])([H])C([H])([H])C([H])(n5nc(-c6c([H])c([H])c(Oc7c([H])c([H])c(F)c([H])c7F)c([H])c6[H])c(C(=O)N([H])[H])c5N([H])[H])C4([H])[H])c([H])c(C4([H])C([H])([H])C([H])([H])C([H])([H])C([H])([H])C4([H])[H])c3[H])c([H])c([H])c2C1([H])[H]

$$$$
88:0:0
     RDKit          3D

 94102  0  0  1  0  0  0  0  0999 V2000
  -27.0920  -22.2800   18.8390 C   0  0  0  0  0  3  0  0  0  0  0  0
  -27.8830  -24.5220   18.4460 C   0  0  0  0  0  3  0  0  0  0  0  0
  -27.3710  -23.3120   17.9340 C   0  0  0  0  0  0  0  0  0  0  0  0
  -27.3700  -22.4630   20.2070 C   0  0  0  0  0  0  0  0  0  0  0  0
  -28.1250  -24.6320   19.8330 C   0  0  0  0  0  0  0  0  0  0  0  0
  -27.1430  -23.1140   16.4470 C   0  0  0  0  0  1  0  0  0  0  0  0
  -27.8840  -23.6150   20.6910 N   0  0  0  0  0  0  0  0  0  0  0  0
  -27.1480  -21.3270   21.1960 C   0  0  0  0  0  2  0  0  0  0  0  0
  -27.8910  -20.0230   20.8140 C   0  0  0  0  0  2  0  0  0  0  0  0
  -29.4230  -20.1620   20.6530 C   0  0  0  0  0  2  0  0  0  0  0  0
  -30.1450  -18.8350   20.3050 C   0  0  0  0  0  2  0  0  0  0  0  0
  -31.5310  -18.6510   20.9580 C   0  0  0  0  0  2  0  0  0  0  0  0
  -31.9120  -17.1720   21.2200 C   0  0  0  0  0  2  0  0  0  0  0  0
  -32.6170  -16.4420   20.0390 C   0  0  0  0  0  2  0  0  0  0  0  0
  -32.4910  -14.0630   19.2660 C   0  0  0  0  0  0  0  0  0  0  0  0
  -31.9380  -11.6730   18.8710 C   0  0  0  0  0  2  0  0  0  0  0  0
  -30.8730  -11.5610   17.7600 C   0  0  0  0  0  2  0  0  0  0  0  0
  -29.4660  -11.6910   18.3750 C   0  0  0  0  0  2  0  0  0  0  0  0
  -29.3300  -12.9590   19.2560 C   0  0  0  0  0  3  0  0  0  0  0  0
  -30.4740  -12.9900   20.2900 C   0  0  0  0  0  2  0  0  0  0  0  0
  -31.7320  -12.9720   19.5260 N   0  0  0  0  0  0  0  0  0  0  0  0
  -33.6240  -13.9740   18.7530 O   0  0  0  0  0  0  0  0  0  0  0  0
  -31.9000  -15.2500   19.5400 N   0  0  0  0  0  0  0  0  0  0  0  0
  -30.9080  -15.2680   19.6040 H   0  0  0  0  0  0  0  0  0  0  0  0
  -27.3260  -14.1480   20.3300 C   0  0  0  0  0  0  0  0  0  0  0  0
  -26.1120  -13.6750   20.7740 C   0  0  0  0  0  0  0  0  0  0  0  0
  -26.1460  -12.2640   20.5680 C   0  0  0  0  0  0  0  0  0  0  0  0
  -28.0210  -13.0330   19.8910 N   0  0  0  0  0  0  0  0  0  0  0  0
  -27.3240  -11.8880   20.0900 N   0  0  0  0  0  0  0  0  0  0  0  0
  -25.1010  -11.2480   20.7430 C   0  0  0  0  0  0  0  0  0  0  0  0
  -25.3150  -10.0910   21.5230 C   0  0  0  0  0  3  0  0  0  0  0  0
  -24.2830   -9.1430   21.6960 C   0  0  0  0  0  3  0  0  0  0  0  0
  -23.0250   -9.3460   21.0890 C   0  0  0  0  0  0  0  0  0  0  0  0
  -22.8250  -10.4860   20.2920 C   0  0  0  0  0  3  0  0  0  0  0  0
  -23.8530  -11.4280   20.1150 C   0  0  0  0  0  3  0  0  0  0  0  0
  -21.9800   -8.4590   21.1710 O   0  0  0  0  0  0  0  0  0  0  0  0
  -21.8040   -7.6630   22.2750 C   0  0  0  0  0  0  0  0  0  0  0  0
  -21.6550   -8.2080   23.5680 C   0  0  0  0  0  3  0  0  0  0  0  0
  -21.4060   -7.3590   24.6650 C   0  0  0  0  0  3  0  0  0  0  0  0
  -21.2960   -5.9690   24.4700 C   0  0  0  0  0  0  0  0  0  0  0  0
  -21.4380   -5.4260   23.1810 C   0  0  0  0  0  3  0  0  0  0  0  0
  -21.6870   -6.2720   22.0870 C   0  0  0  0  0  0  0  0  0  0  0  0
  -21.8050   -5.7440   20.8450 F   0  0  0  0  0  0  0  0  0  0  0  0
  -21.0480   -5.1550   25.5240 F   0  0  0  0  0  0  0  0  0  0  0  0
  -24.9600  -14.4960   21.2610 C   0  0  0  0  0  0  0  0  0  0  0  0
  -24.1670  -13.9510   22.1810 N   0  0  0  0  0  0  0  0  0  0  0  0
  -24.7790  -15.6480   20.8660 O   0  0  0  0  0  0  0  0  0  0  0  0
  -24.3150  -13.0050   22.4980 H   0  0  0  0  0  0  0  0  0  0  0  0
  -23.4070  -14.4820   22.5790 H   0  0  0  0  0  0  0  0  0  0  0  0
  -27.8770  -15.4180   20.2570 N   0  0  0  0  0  0  0  0  0  0  0  0
  -27.3880  -16.2410   20.5890 H   0  0  0  0  0  0  0  0  0  0  0  0
  -28.7900  -15.6370   19.8680 H   0  0  0  0  0  0  0  0  0  0  0  0
  -28.7240  -25.9070   20.4290 C   0  0  0  0  0  2  0  0  0  0  0  0
  -28.6780  -27.0550   19.5730 O   0  0  0  0  0  0  0  0  0  0  0  0
  -24.7900  -31.6230   23.3450 C   0  0  0  0  0  0  0  0  0  0  0  0
  -27.4990  -27.7500   19.6610 C   0  0  0  0  0  0  0  0  0  0  0  0
  -23.5870  -30.3980   21.5650 C   0  0  0  0  0  3  0  0  0  0  0  0
  -25.0530  -29.1250   19.9160 C   0  0  0  0  0  0  0  0  0  0  0  0
  -26.0900  -30.8940   21.3510 C   0  0  0  0  0  2  0  0  0  0  0  0
  -26.2080  -29.6270   20.5320 C   0  0  0  0  0  0  0  0  0  0  0  0
  -27.4380  -28.9500   20.3990 C   0  0  0  0  0  3  0  0  0  0  0  0
  -26.3360  -27.2640   19.0300 C   0  0  0  0  0  3  0  0  0  0  0  0
  -25.1130  -27.9450   19.1570 C   0  0  0  0  0  3  0  0  0  0  0  0
  -23.7720  -29.9020   20.1080 C   0  0  0  0  0  2  0  0  0  0  0  0
  -24.8430  -30.9780   22.1450 N   0  0  0  0  0  0  0  0  0  0  0  0
  -23.7170  -31.7840   23.9420 O   0  0  0  0  0  0  0  0  0  0  0  0
  -23.0040  -29.2380   22.4030 C   0  0  0  0  0  0  0  0  0  0  0  0
  -21.6990  -28.9740   22.2250 N   0  0  0  0  0  0  0  0  0  0  0  0
  -23.7230  -28.5800   23.1610 O   0  0  0  0  0  0  0  0  0  0  0  0
  -21.1820  -29.5630   21.5870 H   0  0  0  0  0  0  0  0  0  0  0  0
  -18.4470  -27.4230   22.4160 C   0  0  0  0  0  0  0  0  0  0  0  0
  -20.9420  -27.9070   22.8740 C   0  0  0  0  0  3  0  0  0  0  0  0
  -21.2220  -26.5400   22.2120 C   0  0  0  0  0  2  0  0  0  0  0  0
  -20.2230  -26.1900   21.1030 C   0  0  0  0  0  2  0  0  0  0  0  0
  -18.7990  -26.1490   21.6660 C   0  0  0  0  0  2  0  0  0  0  0  0
  -19.4520  -28.2560   22.9700 C   0  0  0  0  0  0  0  0  0  0  0  0
  -19.0740  -29.4460   23.6270 C   0  0  0  0  0  3  0  0  0  0  0  0
  -17.7160  -29.8030   23.7410 C   0  0  0  0  0  3  0  0  0  0  0  0
  -16.7220  -28.9660   23.2020 C   0  0  0  0  0  3  0  0  0  0  0  0
  -17.0890  -27.7780   22.5460 C   0  0  0  0  0  3  0  0  0  0  0  0
  -26.0710  -32.2130   24.0090 C   0  0  0  0  0  3  0  0  0  0  0  0
  -25.7350  -33.5650   24.4740 N   0  0  0  0  0  0  0  0  0  0  0  0
  -26.0860  -34.6950   23.8450 C   0  0  0  0  0  0  0  0  0  0  0  0
  -26.7930  -34.7070   22.8330 O   0  0  0  0  0  0  0  0  0  0  0  0
  -25.0780  -33.6290   25.2390 H   0  0  0  0  0  0  0  0  0  0  0  0
  -24.3470  -36.5010   23.6310 C   0  0  0  0  0  1  0  0  0  0  0  0
  -25.5690  -36.0250   24.4290 C   0  0  0  0  0  3  0  0  0  0  0  0
  -27.6750  -36.8320   25.4010 C   0  0  0  0  0  1  0  0  0  0  0  0
  -26.5930  -37.0930   24.4550 N   0  0  0  0  0  0  0  0  0  0  0  0
  -26.1750  -37.9880   24.6900 H   0  0  0  0  0  0  0  0  0  0  0  0
  -26.6300  -31.3250   25.1870 C   0  0  1  0  0  0  0  0  0  0  0  0
  -25.5620  -30.9540   26.2440 C   0  0  0  0  0  1  0  0  0  0  0  0
  -27.2240  -30.0040   24.6450 C   0  0  0  0  0  1  0  0  0  0  0  0
  -27.7930  -32.0600   25.8910 C   0  0  0  0  0  1  0  0  0  0  0  0
  1  4  1  0
  2  5  2  0
  3  2  1  0
  3  1  2  0
  4  7  2  0
  4  8  1  0
  5 53  1  0
  5  7  1  0
  6  3  1  0
  9  8  1  0
 10  9  1  0
 11 10  1  0
 11 12  1  0
 12 13  1  0
 14 13  1  0
 15 21  1  0
 15 23  1  0
 16 21  1  0
 17 18  1  0
 17 16  1  0
 19 18  1  0
 19 28  1  0
 19 20  1  0
 21 20  1  0
 22 15  2  0
 23 24  1  0
 23 14  1  0
 25 26  2  0
 26 45  1  0
 27 30  1  0
 27 26  1  0
 28 29  1  0
 28 25  1  0
 29 27  2  0
 30 31  1  0
 31 32  2  0
 33 36  1  0
 33 32  1  0
 34 33  2  0
 35 34  1  0
 35 30  2  0
 36 37  1  0
 37 38  1  0
 38 39  2  0
 40 39  1  0
 40 44  1  0
 41 40  2  0
 42 37  2  0
 42 41  1  0
 43 42  1  0
 45 46  1  0
 46 48  1  0
 46 49  1  0
 47 45  2  0
 50 25  1  0
 50 51  1  0
 52 50  1  0
 54 56  1  0
 54 53  1  0
 55 66  2  0
 56 61  1  0
 57 65  1  0
 57 67  1  0
 58 64  1  0
 58 60  1  0
 59 65  1  0
 60 59  1  0
 61 60  2  0
 62 63  1  0
 62 56  2  0
 63 58  2  0
 64 57  1  0
 65 55  1  0
 67 69  2  0
 68 67  1  0
 70 68  1  0
 71 80  2  0
 71 76  1  0
 72 68  1  0
 72 76  1  0
 73 72  1  0
 74 75  1  0
 74 73  1  0
 75 71  1  0
 76 77  2  0
 77 78  1  0
 79 78  2  0
 80 79  1  0
 81 55  1  0
 81 82  1  0
 81 91  1  0
 82 85  1  0
 83 87  1  0
 83 82  1  0
 84 83  2  0
 87 86  1  0
 87 89  1  0
 89 90  1  0
 89 88  1  0
 91 94  1  1
 91 92  1  0
 93 91  1  0
M  ISO  4  15 100  23 100  53 101  54 101
M  END
>  <TORSDO>  (88) 
F 24

>  <SCORE>  (88) 
-7.307

>  <name>  (88) 
88

>  <ligand_id>  (88) 
88

>  <original_smiles>  (88) 
[H]c1c([H])c([H])c2c(c1[H])C([H])([H])C([H])([H])C([H])([H])C2([H])N([H])C(=O)C1([H])N(C(=O)C([H])(N([H])C(=O)C([H])(N([H])C([H])([H])[H])C([H])([H])[H])C(C([H])([H])[H])(C([H])([H])[H])C([H])([H])[H])C([H])([H])c2c([H])c(OC([H])([H])c3nc(C([H])([H])C([H])([H])C([H])([H])C([H])([H])C([H])([H])C([H])([H])C([H])([H])N([H])C(=O)N4C([H])([H])C([H])([H])C([H])([H])C([H])(n5nc(-c6c([H])c([H])c(Oc7c([H])c([H])c(F)c([H])c7F)c([H])c6[H])c(C(=O)N([H])[H])c5N([H])[H])C4([H])[H])c([H])c(C([H])([H])[H])c3[H])c([H])c([H])c2C1([H])[H]

>  <smiles>  (88) 
[H]c1c([H])c([H])c2c(c1[H])C([H])([H])C([H])([H])C([H])([H])C2([H])N([H])C(=O)C1([H])N(C(=O)C([H])(N([H])C(=O)C([H])(N([H])C([H])([H])[H])C([H])([H])[H])C(C([H])([H])[H])(C([H])([H])[H])C([H])([H])[H])C([H])([H])c2c([H])c(OC([H])([H])c3nc(C([H])([H])C([H])([H])C([H])([H])C([H])([H])C([H])([H])C([H])([H])C([H])([H])N([H])C(=O)N4C([H])([H])C([H])([H])C([H])([H])C([H])(n5nc(-c6c([H])c([H])c(Oc7c([H])c([H])c(F)c([H])c7F)c([H])c6[H])c(C(=O)N([H])[H])c5N([H])[H])C4([H])[H])c([H])c(C([H])([H])[H])c3[H])c([H])c([H])c2C1([H])[H]

$$$$
89:0:0
     RDKit          3D

 95 98  0  0  1  0  0  0  0  0999 V2000
  -21.1690  -26.8860   20.0190 C   0  0  0  0  0  3  0  0  0  0  0  0
  -21.2900  -25.4160   22.8370 C   0  0  0  0  0  1  0  0  0  0  0  0
  -20.2960  -26.7240   21.3550 C   0  0  0  0  0  2  0  0  0  0  0  0
  -22.5570  -26.2120   19.8000 C   0  0  0  0  0  0  0  0  0  0  0  0
  -22.9150  -24.8370   22.1710 C   0  0  0  0  0  0  0  0  0  0  0  0
  -23.4420  -25.4100   20.7950 C   0  0  0  0  0  3  0  0  0  0  0  0
  -25.4020  -24.0380   21.3620 C   0  0  0  0  0  2  0  0  0  0  0  0
  -18.9520  -27.4860   20.9650 C   0  0  0  0  0  1  0  0  0  0  0  0
  -23.0090  -26.2010   18.3430 C   0  0  0  0  0  1  0  0  0  0  0  0
  -24.2110  -23.9000   22.2950 N   0  0  0  0  0  0  0  0  0  0  0  0
  -24.9660  -25.2380   20.7350 N   0  0  0  0  0  0  0  0  0  0  0  0
  -26.9680  -23.0290   20.6770 C   0  0  0  0  0 15  0  0  0  0  0  0
  -28.9190  -22.4170   20.7630 C   0  0  0  0  0 15  0  0  0  0  0  0
  -30.5690  -21.8920   19.6590 C   0  0  0  0  0  1  0  0  0  0  0  0
  -33.6420  -20.6510   18.9940 C   0  0  0  0  0  0  0  0  0  0  0  0
  -35.4280  -18.9280   17.8370 C   0  0  0  0  0  2  0  0  0  0  0  0
  -34.8310  -18.0650   16.6730 C   0  0  0  0  0  2  0  0  0  0  0  0
  -33.9070  -16.9610   17.2190 C   0  0  0  0  0  2  0  0  0  0  0  0
  -33.0830  -17.5120   18.4050 C   0  0  0  0  0  3  0  0  0  0  0  0
  -33.9420  -18.1660   19.4820 C   0  0  0  0  0  2  0  0  0  0  0  0
  -34.3380  -19.3820   18.8400 N   0  0  0  0  0  0  0  0  0  0  0  0
  -34.4570  -21.4770   18.4850 O   0  0  0  0  0  0  0  0  0  0  0  0
  -32.1430  -20.8930   19.5680 N   0  0  0  0  0  0  0  0  0  0  0  0
  -31.9110  -20.0080   20.0000 H   0  0  0  0  0  0  0  0  0  0  0  0
  -30.9570  -16.8190   19.5360 C   0  0  0  0  0  0  0  0  0  0  0  0
  -30.5290  -15.6200   20.0160 C   0  0  0  0  0  0  0  0  0  0  0  0
  -31.6030  -14.7000   19.7970 C   0  0  0  0  0  0  0  0  0  0  0  0
  -32.2150  -16.5720   19.0330 N   0  0  0  0  0  0  0  0  0  0  0  0
  -32.6470  -15.3140   19.2650 N   0  0  0  0  0  0  0  0  0  0  0  0
  -31.6710  -13.2540   19.9900 C   0  0  0  0  0  0  0  0  0  0  0  0
  -32.7430  -12.6530   20.6860 C   0  0  0  0  0  3  0  0  0  0  0  0
  -32.7710  -11.2560   20.8740 C   0  0  0  0  0  3  0  0  0  0  0  0
  -31.7240  -10.4530   20.3630 C   0  0  0  0  0  0  0  0  0  0  0  0
  -30.6750  -11.0550   19.6490 C   0  0  0  0  0  3  0  0  0  0  0  0
  -30.6490  -12.4450   19.4580 C   0  0  0  0  0  3  0  0  0  0  0  0
  -31.6790   -9.0840   20.4750 O   0  0  0  0  0  0  0  0  0  0  0  0
  -32.3590   -8.4230   21.4650 C   0  0  0  0  0  0  0  0  0  0  0  0
  -32.1430   -8.7030   22.8330 C   0  0  0  0  0  3  0  0  0  0  0  0
  -32.8130   -7.9500   23.8180 C   0  0  0  0  0  3  0  0  0  0  0  0
  -33.6870   -6.9150   23.4390 C   0  0  0  0  0  0  0  0  0  0  0  0
  -33.9000   -6.6320   22.0790 C   0  0  0  0  0  3  0  0  0  0  0  0
  -33.2330   -7.3820   21.0940 C   0  0  0  0  0  0  0  0  0  0  0  0
  -33.4240   -7.0950   19.7840 F   0  0  0  0  0  0  0  0  0  0  0  0
  -34.3240   -6.1850   24.3860 F   0  0  0  0  0  0  0  0  0  0  0  0
  -29.1580  -15.3250   20.5400 C   0  0  0  0  0  0  0  0  0  0  0  0
  -29.0530  -14.3900   21.4740 N   0  0  0  0  0  0  0  0  0  0  0  0
  -28.1780  -15.9610   20.1500 O   0  0  0  0  0  0  0  0  0  0  0  0
  -29.8620  -13.8870   21.8060 H   0  0  0  0  0  0  0  0  0  0  0  0
  -28.1490  -14.1760   21.8710 H   0  0  0  0  0  0  0  0  0  0  0  0
  -30.3750  -18.0830   19.4550 N   0  0  0  0  0  0  0  0  0  0  0  0
  -29.3940  -18.1920   19.6930 H   0  0  0  0  0  0  0  0  0  0  0  0
  -30.6980  -18.7900   18.8070 H   0  0  0  0  0  0  0  0  0  0  0  0
  -25.9480  -26.1910   20.0040 C   0  0  0  0  0  2  0  0  0  0  0  0
  -26.7950  -27.3840   20.7880 C   0  0  0  0  0  2  0  0  0  0  0  0
  -27.1770  -28.7910   20.2760 O   0  0  0  0  0  0  0  0  0  0  0  0
  -28.3130  -33.5790   25.3150 C   0  0  0  0  0  0  0  0  0  0  0  0
  -26.5230  -29.7340   21.0240 C   0  0  0  0  0  0  0  0  0  0  0  0
  -26.6270  -31.8530   25.6000 C   0  0  0  0  0  3  0  0  0  0  0  0
  -25.7250  -30.7420   23.4890 C   0  0  0  0  0  0  0  0  0  0  0  0
  -27.0520  -32.8360   23.2810 C   0  0  0  0  0  2  0  0  0  0  0  0
  -26.5960  -31.5060   22.7040 C   0  0  0  0  0  0  0  0  0  0  0  0
  -27.0440  -30.9890   21.4540 C   0  0  0  0  0  3  0  0  0  0  0  0
  -25.4310  -29.1800   21.6800 C   0  0  0  0  0  3  0  0  0  0  0  0
  -25.1100  -29.6140   22.9620 C   0  0  0  0  0  3  0  0  0  0  0  0
  -25.4200  -31.1920   24.8940 C   0  0  0  0  0  2  0  0  0  0  0  0
  -27.3520  -32.8110   24.7340 N   0  0  0  0  0  0  0  0  0  0  0  0
  -28.5370  -33.5370   26.5370 O   0  0  0  0  0  0  0  0  0  0  0  0
  -27.6290  -30.8070   26.0740 C   0  0  0  0  0  0  0  0  0  0  0  0
  -27.5260  -30.3910   27.3170 N   0  0  0  0  0  0  0  0  0  0  0  0
  -28.4730  -30.3340   25.3060 O   0  0  0  0  0  0  0  0  0  0  0  0
  -26.8290  -30.7580   27.9480 H   0  0  0  0  0  0  0  0  0  0  0  0
  -27.6640  -28.0280   30.3840 C   0  0  0  0  0  0  0  0  0  0  0  0
  -28.1350  -29.1210   27.5920 C   0  0  0  0  0  3  0  0  0  0  0  0
  -27.1060  -28.0030   26.3710 C   0  0  0  0  0  1  0  0  0  0  0  0
  -25.8080  -25.8790   28.3980 C   0  0  0  0  0 15  0  0  0  0  0  0
  -26.6660  -26.5210   30.1210 C   0  0  0  0  0  1  0  0  0  0  0  0
  -28.2510  -29.0530   29.3530 C   0  0  0  0  0  0  0  0  0  0  0  0
  -28.7420  -30.3110   29.9000 C   0  0  0  0  0  3  0  0  0  0  0  0
  -28.7310  -30.6910   31.2640 C   0  0  0  0  0  3  0  0  0  0  0  0
  -28.2290  -29.7790   32.1960 C   0  0  0  0  0  3  0  0  0  0  0  0
  -27.7200  -28.5180   31.7560 C   0  0  0  0  0  3  0  0  0  0  0  0
  -29.1580  -34.5590   24.4680 C   0  0  0  0  0  3  0  0  0  0  0  0
  -29.4240  -35.7100   25.3340 N   0  0  0  0  0  0  0  0  0  0  0  0
  -28.7120  -36.8410   25.3130 C   0  0  0  0  0  0  0  0  0  0  0  0
  -27.8190  -37.0560   24.4880 O   0  0  0  0  0  0  0  0  0  0  0  0
  -30.0950  -35.5770   26.0770 H   0  0  0  0  0  0  0  0  0  0  0  0
  -28.0130  -37.8700   27.4970 C   0  0  0  0  0  1  0  0  0  0  0  0
  -29.0540  -37.9060   26.3680 C   0  0  0  0  0  3  0  0  0  0  0  0
  -30.2540  -39.4390   24.8750 C   0  0  0  0  0  1  0  0  0  0  0  0
  -29.1430  -39.2710   25.8090 N   0  0  0  0  0  0  0  0  0  0  0  0
  -29.2480  -39.9560   26.5520 H   0  0  0  0  0  0  0  0  0  0  0  0
  -30.5000  -33.9280   23.9360 C   0  0  1  0  0  0  0  0  0  0  0  0
  -31.3390  -33.2200   25.0240 C   0  0  0  0  0  1  0  0  0  0  0  0
  -30.2300  -32.8970   22.8130 C   0  0  0  0  0  1  0  0  0  0  0  0
  -31.3620  -35.0450   23.3090 C   0  0  0  0  0  1  0  0  0  0  0  0
  1  3  1  0
  4  1  2  0
  5 10  2  0
  5  2  1  0
  6  4  1  0
  6  5  1  0
  7 10  1  0
  8  3  1  0
  9  4  1  0
 11  6  1  0
 11  7  1  0
 15 23  1  0
 16 21  1  0
 17 18  1  0
 17 16  1  0
 19 18  1  0
 19 28  1  0
 19 20  1  0
 21 15  1  0
 21 20  1  0
 22 15  2  0
 23 14  1  0
 23 24  1  0
 25 26  2  0
 26 45  1  0
 27 30  1  0
 27 26  1  0
 28 29  1  0
 28 25  1  0
 29 27  2  0
 30 31  1  0
 31 32  2  0
 33 36  1  0
 33 32  1  0
 34 33  2  0
 35 34  1  0
 35 30  2  0
 36 37  1  0
 37 38  1  0
 38 39  2  0
 40 39  1  0
 40 44  1  0
 41 40  2  0
 42 37  2  0
 42 41  1  0
 43 42  1  0
 45 46  1  0
 46 48  1  0
 46 49  1  0
 47 45  2  0
 50 25  1  0
 50 51  1  0
 52 50  1  0
 53 11  1  0
 53 54  1  0
 55 54  1  0
 55 57  1  0
 56 67  2  0
 57 62  2  0
 57 63  1  0
 58 68  1  0
 59 65  1  0
 60 66  1  0
 61 60  1  0
 61 59  2  0
 62 61  1  0
 63 64  2  0
 64 59  1  0
 65 58  1  0
 66 56  1  0
 66 58  1  0
 68 69  1  0
 69 73  1  0
 69 71  1  0
 70 68  2  0
 72 81  1  0
 73 74  1  0
 73 77  1  0
 76 72  1  0
 77 78  1  0
 77 72  2  0
 78 79  2  0
 79 80  1  0
 81 80  2  0
 82 56  1  0
 82 83  1  0
 83 86  1  0
 84 83  1  0
 84 88  1  0
 85 84  2  0
 88 87  1  0
 89 90  1  0
 90 88  1  0
 90 91  1  0
 92 82  1  0
 92 93  1  1
 94 92  1  0
 95 92  1  0
M  ISO  4  15 100  23 100  54 101  55 101
M  END
>  <TORSDO>  (89) 
F 21

>  <SCORE>  (89) 
-4.752

>  <name>  (89) 
89

>  <ligand_id>  (89) 
89

>  <original_smiles>  (89) 
[H]c1c([H])c([H])c2c(c1[H])C([H])([H])C([H])([H])C([H])([H])C2([H])N([H])C(=O)C1([H])N(C(=O)C([H])(N([H])C(=O)C([H])(N([H])C([H])([H])[H])C([H])([H])[H])C(C([H])([H])[H])(C([H])([H])[H])C([H])([H])[H])C([H])([H])c2c([H])c(OC([H])([H])C([H])([H])n3c(C([H])([H])C([H])([H])C([H])([H])N([H])C(=O)N4C([H])([H])C([H])([H])C([H])([H])C([H])(n5nc(-c6c([H])c([H])c(Oc7c([H])c([H])c(F)c([H])c7F)c([H])c6[H])c(C(=O)N([H])[H])c5N([H])[H])C4([H])[H])nc4c([H])c(C([H])([H])[H])c([H])c(C([H])([H])[H])c43)c([H])c([H])c2C1([H])[H]

>  <smiles>  (89) 
[H]c1c([H])c([H])c2c(c1[H])C([H])([H])C([H])([H])C([H])([H])C2([H])N([H])C(=O)C1([H])N(C(=O)C([H])(N([H])C(=O)C([H])(N([H])C([H])([H])[H])C([H])([H])[H])C(C([H])([H])[H])(C([H])([H])[H])C([H])([H])[H])C([H])([H])c2c([H])c(OC([H])([H])C([H])([H])n3c(C([H])([H])C([H])([H])C([H])([H])N([H])C(=O)N4C([H])([H])C([H])([H])C([H])([H])C([H])(n5nc(-c6c([H])c([H])c(Oc7c([H])c([H])c(F)c([H])c7F)c([H])c6[H])c(C(=O)N([H])[H])c5N([H])[H])C4([H])[H])nc4c([H])c(C([H])([H])[H])c([H])c(C([H])([H])[H])c43)c([H])c([H])c2C1([H])[H]

$$$$
90:0:0
     RDKit          3D

 95103  0  0  1  0  0  0  0  0999 V2000
  -27.3580  -21.2040   18.9840 C   0  0  0  0  0  3  0  0  0  0  0  0
  -27.3060  -21.8930   20.2100 C   0  0  0  0  0  3  0  0  0  0  0  0
  -29.6390  -22.5320   19.9370 C   0  0  0  0  0  3  0  0  0  0  0  0
  -28.5560  -21.1590   18.2360 C   0  0  0  0  0  0  0  0  0  0  0  0
  -29.6840  -21.8920   18.6850 C   0  0  0  0  0  0  0  0  0  0  0  0
  -28.4650  -22.5250   20.7100 C   0  0  0  0  0  0  0  0  0  0  0  0
  -30.9780  -21.9770   17.8950 C   0  0  0  0  0  1  0  0  0  0  0  0
  -28.6330  -20.2260   17.0300 C   0  0  0  0  0  2  0  0  0  0  0  0
  -29.6430  -19.0690   17.2230 C   0  0  0  0  0  2  0  0  0  0  0  0
  -29.6980  -18.4650   18.6450 C   0  0  0  0  0  2  0  0  0  0  0  0
  -30.9060  -17.5400   18.8430 C   0  0  0  0  0  2  0  0  0  0  0  0
  -30.5420  -16.0610   18.7730 C   0  0  0  0  0  2  0  0  0  0  0  0
  -30.9020  -14.6090   20.6840 C   0  0  0  0  0  0  0  0  0  0  0  0
  -30.6920  -12.3770   19.7950 C   0  0  0  0  0  2  0  0  0  0  0  0
  -29.8370  -12.5180   18.5150 C   0  0  0  0  0  2  0  0  0  0  0  0
  -28.3300  -12.4450   18.8390 C   0  0  0  0  0  2  0  0  0  0  0  0
  -27.9030  -13.3390   20.0360 C   0  0  0  0  0  3  0  0  0  0  0  0
  -28.8930  -13.2200   21.2240 C   0  0  0  0  0  2  0  0  0  0  0  0
  -30.2630  -13.4220   20.7310 N   0  0  0  0  0  0  0  0  0  0  0  0
  -32.1260  -14.7460   20.6370 O   0  0  0  0  0  0  0  0  0  0  0  0
  -30.1350  -15.5160   20.0710 N   0  0  0  0  0  0  0  0  0  0  0  0
  -29.1470  -15.3410   20.1640 H   0  0  0  0  0  0  0  0  0  0  0  0
  -25.4630  -13.9570   20.5870 C   0  0  0  0  0  0  0  0  0  0  0  0
  -24.3770  -13.1840   20.8980 C   0  0  0  0  0  0  0  0  0  0  0  0
  -24.8440  -11.8350   20.9270 C   0  0  0  0  0  0  0  0  0  0  0  0
  -26.5250  -13.0740   20.4430 N   0  0  0  0  0  0  0  0  0  0  0  0
  -26.1520  -11.7970   20.7080 N   0  0  0  0  0  0  0  0  0  0  0  0
  -24.1160  -10.5710   21.0880 C   0  0  0  0  0  0  0  0  0  0  0  0
  -24.4940   -9.6190   22.0600 C   0  0  0  0  0  3  0  0  0  0  0  0
  -23.7630   -8.4200   22.2090 C   0  0  0  0  0  3  0  0  0  0  0  0
  -22.6420   -8.1650   21.3850 C   0  0  0  0  0  0  0  0  0  0  0  0
  -22.2850   -9.1060   20.4030 C   0  0  0  0  0  3  0  0  0  0  0  0
  -23.0160  -10.2960   20.2520 C   0  0  0  0  0  3  0  0  0  0  0  0
  -21.8910   -7.0160   21.4410 O   0  0  0  0  0  0  0  0  0  0  0  0
  -21.7790   -6.2870   22.5980 C   0  0  0  0  0  0  0  0  0  0  0  0
  -21.2700   -6.8530   23.7870 C   0  0  0  0  0  3  0  0  0  0  0  0
  -21.1040   -6.0490   24.9340 C   0  0  0  0  0  3  0  0  0  0  0  0
  -21.4370   -4.6820   24.8900 C   0  0  0  0  0  0  0  0  0  0  0  0
  -21.9370   -4.1150   23.7050 C   0  0  0  0  0  3  0  0  0  0  0  0
  -22.1030   -4.9160   22.5600 C   0  0  0  0  0  0  0  0  0  0  0  0
  -22.5660   -4.3610   21.4150 F   0  0  0  0  0  0  0  0  0  0  0  0
  -21.2690   -3.9090   25.9870 F   0  0  0  0  0  0  0  0  0  0  0  0
  -22.9610  -13.6560   21.0670 C   0  0  0  0  0  0  0  0  0  0  0  0
  -22.1810  -12.9740   21.8950 N   0  0  0  0  0  0  0  0  0  0  0  0
  -22.5550  -14.6700   20.4980 O   0  0  0  0  0  0  0  0  0  0  0  0
  -22.5190  -12.1530   22.3760 H   0  0  0  0  0  0  0  0  0  0  0  0
  -21.2280  -13.2740   22.0500 H   0  0  0  0  0  0  0  0  0  0  0  0
  -25.6310  -15.3250   20.3940 N   0  0  0  0  0  0  0  0  0  0  0  0
  -24.8490  -15.9710   20.4290 H   0  0  0  0  0  0  0  0  0  0  0  0
  -26.4970  -15.7740   20.1270 H   0  0  0  0  0  0  0  0  0  0  0  0
  -28.5030  -23.1130   21.9470 O   0  0  0  0  0  0  0  0  0  0  0  0
  -27.6130  -24.2040   22.1450 C   0  0  0  0  0  2  0  0  0  0  0  0
  -28.2870  -25.5240   21.7330 C   0  0  0  0  0  2  0  0  0  0  0  0
  -28.4010  -25.7240   20.2070 C   0  0  0  0  0  2  0  0  0  0  0  0
  -28.3830  -27.1020   19.8710 O   0  0  0  0  0  0  0  0  0  0  0  0
  -24.5500  -31.9720   23.3150 C   0  0  0  0  0  0  0  0  0  0  0  0
  -27.1750  -27.7490   19.9570 C   0  0  0  0  0  0  0  0  0  0  0  0
  -23.3170  -30.6440   21.6310 C   0  0  0  0  0  3  0  0  0  0  0  0
  -24.7550  -29.1910   20.1060 C   0  0  0  0  0  0  0  0  0  0  0  0
  -25.8330  -31.0460   21.3900 C   0  0  0  0  0  2  0  0  0  0  0  0
  -25.9180  -29.7090   20.6910 C   0  0  0  0  0  0  0  0  0  0  0  0
  -27.1330  -28.9940   20.6100 C   0  0  0  0  0  3  0  0  0  0  0  0
  -25.9950  -27.2330   19.3730 C   0  0  0  0  0  3  0  0  0  0  0  0
  -24.7870  -27.9510   19.4440 C   0  0  0  0  0  3  0  0  0  0  0  0
  -23.5070  -30.0420   20.2140 C   0  0  0  0  0  2  0  0  0  0  0  0
  -24.5860  -31.2300   22.1740 N   0  0  0  0  0  0  0  0  0  0  0  0
  -23.4790  -32.2110   23.8900 O   0  0  0  0  0  0  0  0  0  0  0  0
  -22.6950  -29.5700   22.5500 C   0  0  0  0  0  0  0  0  0  0  0  0
  -21.3720  -29.3740   22.4230 N   0  0  0  0  0  0  0  0  0  0  0  0
  -23.3990  -28.9160   23.3240 O   0  0  0  0  0  0  0  0  0  0  0  0
  -20.8770  -29.9570   21.7640 H   0  0  0  0  0  0  0  0  0  0  0  0
  -18.0150  -28.1000   22.8670 C   0  0  0  0  0  0  0  0  0  0  0  0
  -20.5690  -28.3920   23.1500 C   0  0  0  0  0  3  0  0  0  0  0  0
  -20.6990  -26.9900   22.5120 C   0  0  0  0  0  2  0  0  0  0  0  0
  -19.6010  -26.6870   21.4890 C   0  0  0  0  0  2  0  0  0  0  0  0
  -18.2140  -26.7830   22.1360 C   0  0  0  0  0  2  0  0  0  0  0  0
  -19.1210  -28.8640   23.3260 C   0  0  0  0  0  0  0  0  0  0  0  0
  -18.8810  -30.0990   23.9660 C   0  0  0  0  0  3  0  0  0  0  0  0
  -17.5690  -30.5730   24.1500 C   0  0  0  0  0  3  0  0  0  0  0  0
  -16.4780  -29.8050   23.7120 C   0  0  0  0  0  3  0  0  0  0  0  0
  -16.7010  -28.5700   23.0740 C   0  0  0  0  0  3  0  0  0  0  0  0
  -25.8460  -32.5790   23.9420 C   0  0  0  0  0  3  0  0  0  0  0  0
  -26.3800  -31.7640   25.1820 C   0  0  1  0  0  0  0  0  0  0  0  0
  -25.3000  -31.4740   26.2520 C   0  0  0  0  0  1  0  0  0  0  0  0
  -26.9640  -30.4080   24.7210 C   0  0  0  0  0  1  0  0  0  0  0  0
  -27.5430  -32.5350   25.8530 C   0  0  0  0  0  1  0  0  0  0  0  0
  -25.5520  -33.9660   24.3200 N   0  0  0  0  0  0  0  0  0  0  0  0
  -25.8880  -35.0390   23.5900 C   0  0  0  0  0  0  0  0  0  0  0  0
  -26.5560  -34.9630   22.5550 O   0  0  0  0  0  0  0  0  0  0  0  0
  -24.9710  -34.1020   25.1360 H   0  0  0  0  0  0  0  0  0  0  0  0
  -24.1790  -36.8540   23.2680 C   0  0  0  0  0  1  0  0  0  0  0  0
  -25.4040  -36.4140   24.0870 C   0  0  0  0  0  3  0  0  0  0  0  0
  -27.5380  -37.2360   24.9720 C   0  0  0  0  0  1  0  0  0  0  0  0
  -26.4440  -37.4630   24.0300 N   0  0  0  0  0  0  0  0  0  0  0  0
  -26.0450  -38.3780   24.2250 H   0  0  0  0  0  0  0  0  0  0  0  0
  1  2  1  0
  2  6  2  0
  3  6  1  0
  4  5  1  0
  4  1  2  0
  5  3  2  0
  6 51  1  0
  7  5  1  0
  8  9  1  0
  8  4  1  0
  9 10  1  0
 10 11  1  0
 12 11  1  0
 12 21  1  0
 13 19  1  0
 14 19  1  0
 15 16  1  0
 15 14  1  0
 17 16  1  0
 17 26  1  0
 17 18  1  0
 19 18  1  0
 20 13  2  0
 21 22  1  0
 21 13  1  0
 23 24  2  0
 24 25  1  0
 24 43  1  0
 25 28  1  0
 26 23  1  0
 26 27  1  0
 27 25  2  0
 28 29  1  0
 29 30  2  0
 31 34  1  0
 31 30  1  0
 32 31  2  0
 33 32  1  0
 33 28  2  0
 34 35  1  0
 35 36  1  0
 36 37  2  0
 38 37  1  0
 38 42  1  0
 39 38  2  0
 40 35  2  0
 40 39  1  0
 41 40  1  0
 43 44  1  0
 44 47  1  0
 44 46  1  0
 45 43  2  0
 48 49  1  0
 48 23  1  0
 50 48  1  0
 51 52  1  0
 53 52  1  0
 54 53  1  0
 55 57  1  0
 55 54  1  0
 56 67  2  0
 57 62  1  0
 58 66  1  0
 58 68  1  0
 59 65  1  0
 59 61  1  0
 60 66  1  0
 61 60  1  0
 62 61  2  0
 63 64  1  0
 63 57  2  0
 64 59  2  0
 65 58  1  0
 66 56  1  0
 68 70  2  0
 69 68  1  0
 71 69  1  0
 72 81  2  0
 72 77  1  0
 73 69  1  0
 73 77  1  0
 74 73  1  0
 75 76  1  0
 75 74  1  0
 76 72  1  0
 77 78  2  0
 78 79  1  0
 80 79  2  0
 81 80  1  0
 82 56  1  0
 82 87  1  0
 82 83  1  0
 83 86  1  1
 83 84  1  0
 85 83  1  0
 87 90  1  0
 88 92  1  0
 88 87  1  0
 89 88  2  0
 92 91  1  0
 94 92  1  0
 94 95  1  0
 94 93  1  0
M  ISO  4  13 100  21 100  54 101  55 101
M  END
>  <TORSDO>  (90) 
F 25

>  <SCORE>  (90) 
-11.780

>  <name>  (90) 
90

>  <ligand_id>  (90) 
90

>  <original_smiles>  (90) 
[H]c1c([H])c([H])c2c(c1[H])C([H])([H])C([H])([H])C([H])([H])C2([H])N([H])C(=O)C1([H])N(C(=O)C([H])(N([H])C(=O)C([H])(N([H])C([H])([H])[H])C([H])([H])[H])C(C([H])([H])[H])(C([H])([H])[H])C([H])([H])[H])C([H])([H])c2c([H])c(OC([H])([H])C([H])([H])C([H])([H])Oc3c([H])c([H])c(C([H])([H])C([H])([H])C([H])([H])C([H])([H])C([H])([H])N([H])C(=O)N4C([H])([H])C([H])([H])C([H])([H])C([H])(n5nc(-c6c([H])c([H])c(Oc7c([H])c([H])c(F)c([H])c7F)c([H])c6[H])c(C(=O)N([H])[H])c5N([H])[H])C4([H])[H])c(C([H])([H])[H])c3[H])c([H])c([H])c2C1([H])[H]

>  <smiles>  (90) 
[H]c1c([H])c([H])c2c(c1[H])C([H])([H])C([H])([H])C([H])([H])C2([H])N([H])C(=O)C1([H])N(C(=O)C([H])(N([H])C(=O)C([H])(N([H])C([H])([H])[H])C([H])([H])[H])C(C([H])([H])[H])(C([H])([H])[H])C([H])([H])[H])C([H])([H])c2c([H])c(OC([H])([H])C([H])([H])C([H])([H])Oc3c([H])c([H])c(C([H])([H])C([H])([H])C([H])([H])C([H])([H])C([H])([H])N([H])C(=O)N4C([H])([H])C([H])([H])C([H])([H])C([H])(n5nc(-c6c([H])c([H])c(Oc7c([H])c([H])c(F)c([H])c7F)c([H])c6[H])c(C(=O)N([H])[H])c5N([H])[H])C4([H])[H])c(C([H])([H])[H])c3[H])c([H])c([H])c2C1([H])[H]

$$$$
92:0:0
     RDKit          3D

 95103  0  0  1  0  0  0  0  0999 V2000
  -30.8330  -27.4590   23.2560 C   0  0  0  0  0  3  0  0  0  0  0  0
  -30.3690  -26.3980   22.5270 C   0  0  0  0  0  0  0  0  0  0  0  0
  -29.8350  -25.5180   23.5130 C   0  0  0  0  0  0  0  0  0  0  0  0
  -29.9570  -26.0020   24.7420 N   0  0  0  0  0  0  0  0  0  0  0  0
  -30.5500  -27.2050   24.5790 N   0  0  0  0  0  0  0  0  0  0  0  0
  -29.5890  -29.0580   25.8760 C   0  0  0  0  0  1  0  0  0  0  0  0
  -30.7560  -28.0740   25.7210 C   0  0  0  0  0  2  0  0  0  0  0  0
  -30.3430  -26.2340   21.0240 C   0  0  0  0  0  2  0  0  0  0  0  0
  -29.6390  -27.4400   20.3880 C   0  0  0  0  0  2  0  0  0  0  0  0
  -28.6120  -27.0570   19.4680 O   0  0  0  0  0  0  0  0  0  0  0  0
  -24.7060  -31.7760   23.0790 C   0  0  0  0  0  0  0  0  0  0  0  0
  -27.4420  -27.7870   19.5450 C   0  0  0  0  0  0  0  0  0  0  0  0
  -23.5090  -30.5280   21.3020 C   0  0  0  0  0  3  0  0  0  0  0  0
  -24.9850  -29.1800   19.7130 C   0  0  0  0  0  0  0  0  0  0  0  0
  -26.0120  -30.9800   21.1190 C   0  0  0  0  0  2  0  0  0  0  0  0
  -26.1250  -29.6920   20.3380 C   0  0  0  0  0  0  0  0  0  0  0  0
  -27.3500  -29.0130   20.2470 C   0  0  0  0  0  3  0  0  0  0  0  0
  -26.2880  -27.2850   18.9080 C   0  0  0  0  0  3  0  0  0  0  0  0
  -25.0580  -27.9730   18.9900 C   0  0  0  0  0  3  0  0  0  0  0  0
  -23.7210  -29.9930   19.8570 C   0  0  0  0  0  2  0  0  0  0  0  0
  -24.7600  -31.1010   21.8950 N   0  0  0  0  0  0  0  0  0  0  0  0
  -23.6270  -31.9700   23.6550 O   0  0  0  0  0  0  0  0  0  0  0  0
  -22.8880  -29.4010   22.1550 C   0  0  0  0  0  0  0  0  0  0  0  0
  -21.5570  -29.2560   22.0670 N   0  0  0  0  0  0  0  0  0  0  0  0
  -23.5980  -28.6650   22.8470 O   0  0  0  0  0  0  0  0  0  0  0  0
  -21.0460  -29.9010   21.4810 H   0  0  0  0  0  0  0  0  0  0  0  0
  -18.1800  -28.1040   22.6140 C   0  0  0  0  0  0  0  0  0  0  0  0
  -20.7570  -28.2380   22.7460 C   0  0  0  0  0  3  0  0  0  0  0  0
  -20.7670  -26.9070   21.9610 C   0  0  0  0  0  2  0  0  0  0  0  0
  -19.5920  -26.7720   20.9870 C   0  0  0  0  0  2  0  0  0  0  0  0
  -18.2600  -26.8640   21.7380 C   0  0  0  0  0  2  0  0  0  0  0  0
  -19.3530  -28.7580   23.0740 C   0  0  0  0  0  0  0  0  0  0  0  0
  -19.2260  -29.9270   23.8540 C   0  0  0  0  0  3  0  0  0  0  0  0
  -17.9560  -30.4410   24.1780 C   0  0  0  0  0  3  0  0  0  0  0  0
  -16.7980  -29.7800   23.7360 C   0  0  0  0  0  3  0  0  0  0  0  0
  -16.9120  -28.6130   22.9600 C   0  0  0  0  0  3  0  0  0  0  0  0
  -25.9910  -32.3570   23.7520 C   0  0  0  0  0  3  0  0  0  0  0  0
  -26.5650  -31.4350   24.8990 C   0  0  1  0  0  0  0  0  0  0  0  0
  -25.5090  -31.0140   25.9460 C   0  0  0  0  0  1  0  0  0  0  0  0
  -27.1780  -30.1460   24.3030 C   0  0  0  0  0  1  0  0  0  0  0  0
  -27.7100  -32.1610   25.6430 C   0  0  0  0  0  1  0  0  0  0  0  0
  -25.6540  -33.6880   24.2690 N   0  0  0  0  0  0  0  0  0  0  0  0
  -25.9900  -34.8410   23.6730 C   0  0  0  0  0  0  0  0  0  0  0  0
  -26.6880  -34.8910   22.6560 O   0  0  0  0  0  0  0  0  0  0  0  0
  -25.0290  -33.7270   25.0600 H   0  0  0  0  0  0  0  0  0  0  0  0
  -24.2490  -36.6500   23.5120 C   0  0  0  0  0  1  0  0  0  0  0  0
  -25.4670  -36.1460   24.3030 C   0  0  0  0  0  3  0  0  0  0  0  0
  -27.5600  -36.9170   25.3260 C   0  0  0  0  0  1  0  0  0  0  0  0
  -26.4890  -37.2130   24.3790 N   0  0  0  0  0  0  0  0  0  0  0  0
  -26.0670  -38.0990   24.6450 H   0  0  0  0  0  0  0  0  0  0  0  0
  -29.2030  -24.1720   23.2960 C   0  0  0  0  0  2  0  0  0  0  0  0
  -30.2380  -23.0410   23.4120 C   0  0  0  0  0  2  0  0  0  0  0  0
  -29.8860  -21.8540   22.5080 C   0  0  0  0  0  2  0  0  0  0  0  0
  -30.8390  -20.6570   22.6430 C   0  0  0  0  0  2  0  0  0  0  0  0
  -30.5370  -19.6090   21.5620 C   0  0  0  0  0  2  0  0  0  0  0  0
  -31.0490  -18.1960   21.8740 C   0  0  0  0  0  2  0  0  0  0  0  0
  -30.6510  -17.2300   20.7520 C   0  0  0  0  0  2  0  0  0  0  0  0
  -31.3740  -14.8630   20.6190 C   0  0  0  0  0  0  0  0  0  0  0  0
  -31.1410  -12.6490   19.5790 C   0  0  0  0  0  2  0  0  0  0  0  0
  -30.2690  -12.8070   18.3150 C   0  0  0  0  0  2  0  0  0  0  0  0
  -28.7690  -12.7030   18.6630 C   0  0  0  0  0  2  0  0  0  0  0  0
  -28.3720  -13.6100   19.8590 C   0  0  0  0  0  3  0  0  0  0  0  0
  -29.3580  -13.4140   21.0350 C   0  0  0  0  0  2  0  0  0  0  0  0
  -30.7240  -13.6740   20.5420 N   0  0  0  0  0  0  0  0  0  0  0  0
  -32.4700  -15.0860   20.0930 O   0  0  0  0  0  0  0  0  0  0  0  0
  -30.6490  -15.8350   21.1780 N   0  0  0  0  0  0  0  0  0  0  0  0
  -29.8150  -15.5220   21.6520 H   0  0  0  0  0  0  0  0  0  0  0  0
  -25.9530  -14.2880   20.4410 C   0  0  0  0  0  0  0  0  0  0  0  0
  -24.8510  -13.5460   20.7700 C   0  0  0  0  0  0  0  0  0  0  0  0
  -25.2820  -12.1830   20.7750 C   0  0  0  0  0  0  0  0  0  0  0  0
  -26.9870  -13.3800   20.2700 N   0  0  0  0  0  0  0  0  0  0  0  0
  -26.5810  -12.1100   20.5240 N   0  0  0  0  0  0  0  0  0  0  0  0
  -24.5200  -10.9410   20.9480 C   0  0  0  0  0  0  0  0  0  0  0  0
  -24.8540  -10.0020   21.9500 C   0  0  0  0  0  3  0  0  0  0  0  0
  -24.0960   -8.8230   22.1080 C   0  0  0  0  0  3  0  0  0  0  0  0
  -22.9890   -8.5710   21.2610 C   0  0  0  0  0  0  0  0  0  0  0  0
  -22.6760   -9.4960   20.2500 C   0  0  0  0  0  3  0  0  0  0  0  0
  -23.4360  -10.6680   20.0910 C   0  0  0  0  0  3  0  0  0  0  0  0
  -22.2130   -7.4390   21.3230 O   0  0  0  0  0  0  0  0  0  0  0  0
  -21.9970   -6.7800   22.5060 C   0  0  0  0  0  0  0  0  0  0  0  0
  -21.4140   -7.4210   23.6210 C   0  0  0  0  0  3  0  0  0  0  0  0
  -21.1460   -6.6870   24.7940 C   0  0  0  0  0  3  0  0  0  0  0  0
  -21.4490   -5.3130   24.8500 C   0  0  0  0  0  0  0  0  0  0  0  0
  -22.0240   -4.6720   23.7380 C   0  0  0  0  0  3  0  0  0  0  0  0
  -22.2940   -5.4040   22.5680 C   0  0  0  0  0  0  0  0  0  0  0  0
  -22.8280   -4.7760   21.4940 F   0  0  0  0  0  0  0  0  0  0  0  0
  -21.1830   -4.6050   25.9730 F   0  0  0  0  0  0  0  0  0  0  0  0
  -23.4550  -14.0570   20.9760 C   0  0  0  0  0  0  0  0  0  0  0  0
  -22.6790  -13.4000   21.8300 N   0  0  0  0  0  0  0  0  0  0  0  0
  -23.0580  -15.0790   20.4160 O   0  0  0  0  0  0  0  0  0  0  0  0
  -23.0110  -12.5750   22.3080 H   0  0  0  0  0  0  0  0  0  0  0  0
  -21.7410  -13.7260   22.0100 H   0  0  0  0  0  0  0  0  0  0  0  0
  -26.1580  -15.6530   20.2560 N   0  0  0  0  0  0  0  0  0  0  0  0
  -25.4050  -16.3270   20.3270 H   0  0  0  0  0  0  0  0  0  0  0  0
  -27.0360  -16.0670   19.9700 H   0  0  0  0  0  0  0  0  0  0  0  0
  1  5  1  0
  2  1  2  0
  2  3  1  0
  3  4  2  0
  5  4  1  0
  5  7  1  0
  7  6  1  0
  8  2  1  0
  9  8  1  0
 10 12  1  0
 10  9  1  0
 11 22  2  0
 12 17  1  0
 13 21  1  0
 13 23  1  0
 14 20  1  0
 14 16  1  0
 15 21  1  0
 16 15  1  0
 17 16  2  0
 18 19  1  0
 18 12  2  0
 19 14  2  0
 20 13  1  0
 21 11  1  0
 23 25  2  0
 24 23  1  0
 26 24  1  0
 27 36  2  0
 27 32  1  0
 28 24  1  0
 28 32  1  0
 29 28  1  0
 30 31  1  0
 30 29  1  0
 31 27  1  0
 32 33  2  0
 33 34  1  0
 35 34  2  0
 36 35  1  0
 37 11  1  0
 37 42  1  0
 37 38  1  0
 38 41  1  1
 38 39  1  0
 40 38  1  0
 42 45  1  0
 43 42  1  0
 43 47  1  0
 44 43  2  0
 47 46  1  0
 47 49  1  0
 49 50  1  0
 49 48  1  0
 51 52  1  0
 51  3  1  0
 53 54  1  0
 53 52  1  0
 55 56  1  0
 55 54  1  0
 57 66  1  0
 57 56  1  0
 58 66  1  0
 59 64  1  0
 60 61  1  0
 60 59  1  0
 62 61  1  0
 62 71  1  0
 62 63  1  0
 64 58  1  0
 64 63  1  0
 65 58  2  0
 66 67  1  0
 68 69  2  0
 69 70  1  0
 69 88  1  0
 70 73  1  0
 71 68  1  0
 71 72  1  0
 72 70  2  0
 73 74  1  0
 74 75  2  0
 76 79  1  0
 76 75  1  0
 77 76  2  0
 78 77  1  0
 78 73  2  0
 79 80  1  0
 80 85  2  0
 80 81  1  0
 81 82  2  0
 82 83  1  0
 83 87  1  0
 84 83  2  0
 85 84  1  0
 86 85  1  0
 88 89  1  0
 89 92  1  0
 89 91  1  0
 90 88  2  0
 93 94  1  0
 93 68  1  0
 95 93  1  0
M  ISO  4   9 101  10 101  58 100  66 100
M  END
>  <TORSDO>  (91) 
F 26

>  <SCORE>  (91) 
-9.260

>  <name>  (91) 
92

>  <ligand_id>  (91) 
92

>  <original_smiles>  (91) 
[H]c1c([H])c([H])c2c(c1[H])C([H])([H])C([H])([H])C([H])([H])C2([H])N([H])C(=O)C1([H])N(C(=O)C([H])(N([H])C(=O)C([H])(N([H])C([H])([H])[H])C([H])([H])[H])C(C([H])([H])[H])(C([H])([H])[H])C([H])([H])[H])C([H])([H])c2c([H])c(OC([H])([H])C([H])([H])c3c(C([H])([H])C([H])([H])C([H])([H])C([H])([H])C([H])([H])C([H])([H])C([H])([H])N([H])C(=O)N4C([H])([H])C([H])([H])C([H])([H])C([H])(n5nc(-c6c([H])c([H])c(Oc7c([H])c([H])c(F)c([H])c7F)c([H])c6[H])c(C(=O)N([H])[H])c5N([H])[H])C4([H])[H])nn(C([H])([H])C([H])([H])[H])c3[H])c([H])c([H])c2C1([H])[H]

>  <smiles>  (91) 
[H]c1c([H])c([H])c2c(c1[H])C([H])([H])C([H])([H])C([H])([H])C2([H])N([H])C(=O)C1([H])N(C(=O)C([H])(N([H])C(=O)C([H])(N([H])C([H])([H])[H])C([H])([H])[H])C(C([H])([H])[H])(C([H])([H])[H])C([H])([H])[H])C([H])([H])c2c([H])c(OC([H])([H])C([H])([H])c3c(C([H])([H])C([H])([H])C([H])([H])C([H])([H])C([H])([H])C([H])([H])C([H])([H])N([H])C(=O)N4C([H])([H])C([H])([H])C([H])([H])C([H])(n5nc(-c6c([H])c([H])c(Oc7c([H])c([H])c(F)c([H])c7F)c([H])c6[H])c(C(=O)N([H])[H])c5N([H])[H])C4([H])[H])nn(C([H])([H])C([H])([H])[H])c3[H])c([H])c([H])c2C1([H])[H]

$$$$
93:0:0
     RDKit          3D

 92100  0  0  1  0  0  0  0  0999 V2000
  -30.8800  -21.4350   20.9120 C   0  0  0  0  0  3  0  0  0  0  0  0
  -29.2850  -19.8250   20.0630 C   0  0  0  0  0  3  0  0  0  0  0  0
  -29.6070  -21.2040   20.3530 C   0  0  0  0  0  0  0  0  0  0  0  0
  -31.7870  -20.3730   21.1690 C   0  0  0  0  0  0  0  0  0  0  0  0
  -30.1600  -18.7010   20.3290 C   0  0  0  0  0  0  0  0  0  0  0  0
  -31.4250  -19.0070   20.9130 C   0  0  0  0  0  0  0  0  0  0  0  0
  -32.4020  -17.8730   21.2070 C   0  0  0  0  0  1  0  0  0  0  0  0
  -33.3130  -20.8020   23.1970 C   0  0  0  0  0  1  0  0  0  0  0  0
  -33.1820  -20.7700   21.6660 C   0  0  0  0  0  2  0  0  0  0  0  0
  -28.6190  -22.4050   20.0260 C   0  0  0  0  0  2  0  0  0  0  0  0
  -28.9820  -23.9520   20.3050 C   0  0  0  0  0  3  0  0  0  0  0  0
  -27.9030  -25.0700   19.9000 C   0  0  0  0  0  3  0  0  0  0  0  0
  -28.1240  -26.5180   20.1910 O   0  0  0  0  0  0  0  0  0  0  0  0
  -24.5090  -31.9890   23.2610 C   0  0  0  0  0  0  0  0  0  0  0  0
  -27.0150  -27.3890   20.1590 C   0  0  0  0  0  0  0  0  0  0  0  0
  -23.2560  -30.5950   21.6600 C   0  0  0  0  0  3  0  0  0  0  0  0
  -24.6590  -29.0250   20.2120 C   0  0  0  0  0  0  0  0  0  0  0  0
  -25.7940  -30.8890   21.4120 C   0  0  0  0  0  2  0  0  0  0  0  0
  -25.8490  -29.5050   20.7750 C   0  0  0  0  0  0  0  0  0  0  0  0
  -27.0270  -28.6970   20.7450 C   0  0  0  0  0  3  0  0  0  0  0  0
  -25.8000  -26.9770   19.5600 C   0  0  0  0  0  3  0  0  0  0  0  0
  -24.6350  -27.7650   19.6010 C   0  0  0  0  0  3  0  0  0  0  0  0
  -23.4330  -29.9130   20.2810 C   0  0  0  0  0  2  0  0  0  0  0  0
  -24.5410  -31.1730   22.1680 N   0  0  0  0  0  0  0  0  0  0  0  0
  -23.4410  -32.2790   23.8190 O   0  0  0  0  0  0  0  0  0  0  0  0
  -22.6090  -29.5840   22.6370 C   0  0  0  0  0  0  0  0  0  0  0  0
  -21.2890  -29.3700   22.5000 N   0  0  0  0  0  0  0  0  0  0  0  0
  -23.2930  -28.9970   23.4800 O   0  0  0  0  0  0  0  0  0  0  0  0
  -20.7940  -29.9060   21.7980 H   0  0  0  0  0  0  0  0  0  0  0  0
  -17.9390  -28.0930   22.9730 C   0  0  0  0  0  0  0  0  0  0  0  0
  -20.4820  -28.4350   23.2850 C   0  0  0  0  0  3  0  0  0  0  0  0
  -20.6350  -26.9870   22.7630 C   0  0  0  0  0  2  0  0  0  0  0  0
  -19.5630  -26.5990   21.7390 C   0  0  0  0  0  2  0  0  0  0  0  0
  -18.1650  -26.7260   22.3480 C   0  0  0  0  0  2  0  0  0  0  0  0
  -19.0260  -28.9020   23.3990 C   0  0  0  0  0  0  0  0  0  0  0  0
  -18.7590  -30.1780   23.9390 C   0  0  0  0  0  3  0  0  0  0  0  0
  -17.4370  -30.6450   24.0630 C   0  0  0  0  0  3  0  0  0  0  0  0
  -16.3640  -29.8350   23.6540 C   0  0  0  0  0  3  0  0  0  0  0  0
  -16.6150  -28.5610   23.1130 C   0  0  0  0  0  3  0  0  0  0  0  0
  -25.8090  -32.6120   23.8520 C   0  0  0  0  0  3  0  0  0  0  0  0
  -25.5180  -34.0140   24.1850 N   0  0  0  0  0  0  0  0  0  0  0  0
  -25.8410  -35.0630   23.4170 C   0  0  0  0  0  0  0  0  0  0  0  0
  -26.4900  -34.9510   22.3720 O   0  0  0  0  0  0  0  0  0  0  0  0
  -24.9300  -34.1730   24.9910 H   0  0  0  0  0  0  0  0  0  0  0  0
  -24.1240  -36.8750   23.0850 C   0  0  0  0  0  1  0  0  0  0  0  0
  -25.3720  -36.4580   23.8790 C   0  0  0  0  0  3  0  0  0  0  0  0
  -27.5210  -37.3280   24.6860 C   0  0  0  0  0  1  0  0  0  0  0  0
  -26.4130  -37.5010   23.7520 N   0  0  0  0  0  0  0  0  0  0  0  0
  -26.0150  -38.4250   23.8980 H   0  0  0  0  0  0  0  0  0  0  0  0
  -26.3490  -31.8380   25.1190 C   0  0  1  0  0  0  0  0  0  0  0  0
  -25.2730  -31.5880   26.2030 C   0  0  0  0  0  1  0  0  0  0  0  0
  -26.9300  -30.4630   24.7120 C   0  0  0  0  0  1  0  0  0  0  0  0
  -27.5080  -32.6320   25.7660 C   0  0  0  0  0  1  0  0  0  0  0  0
  -29.8020  -17.2430   19.7790 C   0  0  0  0  0  2  0  0  0  0  0  0
  -30.5720  -14.7910   20.1670 C   0  0  0  0  0  0  0  0  0  0  0  0
  -30.3040  -12.5380   19.1430 C   0  0  0  0  0  2  0  0  0  0  0  0
  -29.3140  -12.6380   17.9590 C   0  0  0  0  0  2  0  0  0  0  0  0
  -27.8620  -12.4730   18.4440 C   0  0  0  0  0  2  0  0  0  0  0  0
  -27.5460  -13.3340   19.6970 C   0  0  0  0  0  3  0  0  0  0  0  0
  -28.6500  -13.2240   20.7760 C   0  0  0  0  0  2  0  0  0  0  0  0
  -29.9340  -13.5710   20.1410 N   0  0  0  0  0  0  0  0  0  0  0  0
  -31.6950  -14.9070   19.6740 O   0  0  0  0  0  0  0  0  0  0  0  0
  -29.8560  -15.9150   20.5280 N   0  0  0  0  0  0  0  0  0  0  0  0
  -29.0160  -15.7070   21.0490 H   0  0  0  0  0  0  0  0  0  0  0  0
  -25.1800  -13.9050   20.5200 C   0  0  0  0  0  0  0  0  0  0  0  0
  -24.1260  -13.1160   20.9020 C   0  0  0  0  0  0  0  0  0  0  0  0
  -24.5890  -11.7670   20.8180 C   0  0  0  0  0  0  0  0  0  0  0  0
  -26.2180  -13.0330   20.2280 N   0  0  0  0  0  0  0  0  0  0  0  0
  -25.8700  -11.7440   20.4680 N   0  0  0  0  0  0  0  0  0  0  0  0
  -23.8710  -10.4980   21.0020 C   0  0  0  0  0  0  0  0  0  0  0  0
  -24.3080   -9.5270   21.9320 C   0  0  0  0  0  3  0  0  0  0  0  0
  -23.5880   -8.3240   22.1050 C   0  0  0  0  0  3  0  0  0  0  0  0
  -22.4200   -8.0810   21.3460 C   0  0  0  0  0  0  0  0  0  0  0  0
  -22.0030   -9.0390   20.4040 C   0  0  0  0  0  3  0  0  0  0  0  0
  -22.7230  -10.2340   20.2300 C   0  0  0  0  0  3  0  0  0  0  0  0
  -21.6710   -6.9300   21.4290 O   0  0  0  0  0  0  0  0  0  0  0  0
  -21.5880   -6.2070   22.5910 C   0  0  0  0  0  0  0  0  0  0  0  0
  -21.0760   -6.7670   23.7830 C   0  0  0  0  0  3  0  0  0  0  0  0
  -20.9470   -5.9690   24.9370 C   0  0  0  0  0  3  0  0  0  0  0  0
  -21.3200   -4.6100   24.8980 C   0  0  0  0  0  0  0  0  0  0  0  0
  -21.8280   -4.0500   23.7140 C   0  0  0  0  0  3  0  0  0  0  0  0
  -21.9600   -4.8470   22.5630 C   0  0  0  0  0  0  0  0  0  0  0  0
  -22.4280   -4.2980   21.4150 F   0  0  0  0  0  0  0  0  0  0  0  0
  -21.1910   -3.8420   26.0040 F   0  0  0  0  0  0  0  0  0  0  0  0
  -22.7380  -13.5820   21.2410 C   0  0  0  0  0  0  0  0  0  0  0  0
  -22.0440  -12.8460   22.1030 N   0  0  0  0  0  0  0  0  0  0  0  0
  -22.2810  -14.6250   20.7780 O   0  0  0  0  0  0  0  0  0  0  0  0
  -22.4340  -12.0000   22.4900 H   0  0  0  0  0  0  0  0  0  0  0  0
  -21.1150  -13.1290   22.3810 H   0  0  0  0  0  0  0  0  0  0  0  0
  -25.3400  -15.2770   20.3690 N   0  0  0  0  0  0  0  0  0  0  0  0
  -24.5940  -15.9450   20.5340 H   0  0  0  0  0  0  0  0  0  0  0  0
  -26.1840  -15.7050   20.0060 H   0  0  0  0  0  0  0  0  0  0  0  0
  1  4  1  0
  2  5  2  0
  2  3  1  0
  3  1  2  0
  4  9  1  0
  5  6  1  0
  6  4  2  0
  6  7  1  0
  9  8  1  0
 10 11  1  0
 10  3  1  0
 12 13  1  0
 12 11  2  0
 14 25  2  0
 15 13  1  0
 15 20  1  0
 16 24  1  0
 16 26  1  0
 17 23  1  0
 17 19  1  0
 18 24  1  0
 19 18  1  0
 20 19  2  0
 21 22  1  0
 21 15  2  0
 22 17  2  0
 23 16  1  0
 24 14  1  0
 26 28  2  0
 27 26  1  0
 29 27  1  0
 30 39  2  0
 30 35  1  0
 31 27  1  0
 31 35  1  0
 32 31  1  0
 33 34  1  0
 33 32  1  0
 34 30  1  0
 35 36  2  0
 36 37  1  0
 38 37  2  0
 39 38  1  0
 40 14  1  0
 40 41  1  0
 40 50  1  0
 41 44  1  0
 42 46  1  0
 42 41  1  0
 43 42  2  0
 46 45  1  0
 48 46  1  0
 48 49  1  0
 48 47  1  0
 50 53  1  1
 50 51  1  0
 52 50  1  0
 54  5  1  0
 54 63  1  0
 55 63  1  0
 56 61  1  0
 57 58  1  0
 57 56  1  0
 59 58  1  0
 59 68  1  0
 59 60  1  0
 61 55  1  0
 61 60  1  0
 62 55  2  0
 63 64  1  0
 65 66  2  0
 66 85  1  0
 67 66  1  0
 67 70  1  0
 68 69  1  0
 68 65  1  0
 69 67  2  0
 70 71  1  0
 71 72  2  0
 73 76  1  0
 73 72  1  0
 74 73  2  0
 75 74  1  0
 75 70  2  0
 76 77  1  0
 77 78  1  0
 78 79  2  0
 80 79  1  0
 80 84  1  0
 81 80  2  0
 82 77  2  0
 82 81  1  0
 83 82  1  0
 85 86  1  0
 86 89  1  0
 86 88  1  0
 87 85  2  0
 90 65  1  0
 90 91  1  0
 92 90  1  0
M  ISO  4  12 101  13 101  55 100  63 100
M  END
>  <TORSDO>  (92) 
F 21

>  <SCORE>  (92) 
-13.409

>  <name>  (92) 
93

>  <ligand_id>  (92) 
93

>  <original_smiles>  (92) 
[H]c1c([H])c([H])c2c(c1[H])C([H])([H])C([H])([H])C([H])([H])C2([H])N([H])C(=O)C1([H])N(C(=O)C([H])(N([H])C(=O)C([H])(N([H])C([H])([H])[H])C([H])([H])[H])C(C([H])([H])[H])(C([H])([H])[H])C([H])([H])[H])C([H])([H])c2c([H])c(OC([H])([H])C([H])([H])C([H])([H])c3c([H])c(C([H])([H])N([H])C(=O)N4C([H])([H])C([H])([H])C([H])([H])C([H])(n5nc(-c6c([H])c([H])c(Oc7c([H])c([H])c(F)c([H])c7F)c([H])c6[H])c(C(=O)N([H])[H])c5N([H])[H])C4([H])[H])c(C([H])([H])[H])c(C([H])([H])C([H])([H])[H])c3[H])c([H])c([H])c2C1([H])[H]

>  <smiles>  (92) 
[H]c1c([H])c([H])c2c(c1[H])C([H])([H])C([H])([H])C([H])([H])C2([H])N([H])C(=O)C1([H])N(C(=O)C([H])(N([H])C(=O)C([H])(N([H])C([H])([H])[H])C([H])([H])[H])C(C([H])([H])[H])(C([H])([H])[H])C([H])([H])[H])C([H])([H])c2c([H])c(OC([H])([H])C([H])([H])C([H])([H])c3c([H])c(C([H])([H])N([H])C(=O)N4C([H])([H])C([H])([H])C([H])([H])C([H])(n5nc(-c6c([H])c([H])c(Oc7c([H])c([H])c(F)c([H])c7F)c([H])c6[H])c(C(=O)N([H])[H])c5N([H])[H])C4([H])[H])c(C([H])([H])[H])c(C([H])([H])C([H])([H])[H])c3[H])c([H])c([H])c2C1([H])[H]

$$$$
94:0:0
     RDKit          3D

 90 98  0  0  1  0  0  0  0  0999 V2000
  -30.2740  -21.3470   21.3110 C   0  0  0  0  0  3  0  0  0  0  0  0
  -30.9580  -20.2420   21.8570 C   0  0  0  0  0  3  0  0  0  0  0  0
  -28.8200  -19.7840   20.1480 C   0  0  0  0  0  3  0  0  0  0  0  0
  -29.1880  -21.1710   20.4350 C   0  0  0  0  0  0  0  0  0  0  0  0
  -30.5950  -18.9050   21.5690 C   0  0  0  0  0  0  0  0  0  0  0  0
  -29.5050  -18.6160   20.7030 C   0  0  0  0  0  0  0  0  0  0  0  0
  -31.3960  -17.8000   22.2380 C   0  0  0  0  0  1  0  0  0  0  0  0
  -28.6280  -22.4830   19.7110 C   0  0  0  0  0  2  0  0  0  0  0  0
  -27.8400  -23.7150   20.4270 C   0  0  0  0  0  2  0  0  0  0  0  0
  -28.4520  -25.1620   20.8560 C   0  0  0  0  0  2  0  0  0  0  0  0
  -28.3660  -26.4890   20.1490 O   0  0  0  0  0  0  0  0  0  0  0  0
  -24.6210  -31.9460   23.2390 C   0  0  0  0  0  0  0  0  0  0  0  0
  -27.2420  -27.3370   20.2230 C   0  0  0  0  0  0  0  0  0  0  0  0
  -23.4270  -30.5360   21.6020 C   0  0  0  0  0  3  0  0  0  0  0  0
  -24.8840  -28.9720   20.1910 C   0  0  0  0  0  0  0  0  0  0  0  0
  -25.9670  -30.8540   21.4210 C   0  0  0  0  0  2  0  0  0  0  0  0
  -26.0540  -29.4630   20.7880 C   0  0  0  0  0  0  0  0  0  0  0  0
  -27.2410  -28.6610   20.7810 C   0  0  0  0  0  3  0  0  0  0  0  0
  -26.0520  -26.9040   19.6120 C   0  0  0  0  0  3  0  0  0  0  0  0
  -24.8890  -27.7030   19.5860 C   0  0  0  0  0  3  0  0  0  0  0  0
  -23.6470  -29.8500   20.2270 C   0  0  0  0  0  2  0  0  0  0  0  0
  -24.6920  -31.1310   22.1440 N   0  0  0  0  0  0  0  0  0  0  0  0
  -23.5360  -32.2210   23.7720 O   0  0  0  0  0  0  0  0  0  0  0  0
  -22.7630  -29.5250   22.5690 C   0  0  0  0  0  0  0  0  0  0  0  0
  -21.4370  -29.3450   22.4430 N   0  0  0  0  0  0  0  0  0  0  0  0
  -23.4420  -28.9040   23.3910 O   0  0  0  0  0  0  0  0  0  0  0  0
  -20.9480  -29.8980   21.7530 H   0  0  0  0  0  0  0  0  0  0  0  0
  -18.0630  -28.1350   22.9450 C   0  0  0  0  0  0  0  0  0  0  0  0
  -20.6200  -28.4080   23.2170 C   0  0  0  0  0  3  0  0  0  0  0  0
  -20.7280  -26.9730   22.6470 C   0  0  0  0  0  2  0  0  0  0  0  0
  -19.6290  -26.6420   21.6310 C   0  0  0  0  0  2  0  0  0  0  0  0
  -18.2460  -26.7850   22.2750 C   0  0  0  0  0  2  0  0  0  0  0  0
  -19.1780  -28.9040   23.3730 C   0  0  0  0  0  0  0  0  0  0  0  0
  -18.9530  -30.1670   23.9630 C   0  0  0  0  0  3  0  0  0  0  0  0
  -17.6450  -30.6630   24.1260 C   0  0  0  0  0  3  0  0  0  0  0  0
  -16.5450  -29.8910   23.7140 C   0  0  0  0  0  3  0  0  0  0  0  0
  -16.7550  -28.6290   23.1310 C   0  0  0  0  0  3  0  0  0  0  0  0
  -25.8970  -32.5910   23.8630 C   0  0  0  0  0  3  0  0  0  0  0  0
  -26.4140  -31.8290   25.1460 C   0  0  1  0  0  0  0  0  0  0  0  0
  -25.3220  -31.5880   26.2160 C   0  0  0  0  0  1  0  0  0  0  0  0
  -27.0020  -30.4510   24.7610 C   0  0  0  0  0  1  0  0  0  0  0  0
  -27.5610  -32.6300   25.8050 C   0  0  0  0  0  1  0  0  0  0  0  0
  -25.5790  -33.9890   24.1870 N   0  0  0  0  0  0  0  0  0  0  0  0
  -25.9130  -35.0430   23.4300 C   0  0  0  0  0  0  0  0  0  0  0  0
  -26.5880  -34.9390   22.4010 O   0  0  0  0  0  0  0  0  0  0  0  0
  -24.9780  -34.1410   24.9830 H   0  0  0  0  0  0  0  0  0  0  0  0
  -24.1840  -36.8350   23.0620 C   0  0  0  0  0  1  0  0  0  0  0  0
  -25.4200  -36.4310   23.8820 C   0  0  0  0  0  3  0  0  0  0  0  0
  -27.5490  -37.3230   24.7230 C   0  0  0  0  0  1  0  0  0  0  0  0
  -26.4520  -37.4850   23.7730 N   0  0  0  0  0  0  0  0  0  0  0  0
  -26.0430  -38.4050   23.9160 H   0  0  0  0  0  0  0  0  0  0  0  0
  -29.0620  -17.0830   20.4840 C   0  0  0  0  0  2  0  0  0  0  0  0
  -30.5900  -14.8470   20.1400 C   0  0  0  0  0  0  0  0  0  0  0  0
  -30.2970  -12.5750   19.1350 C   0  0  0  0  0  2  0  0  0  0  0  0
  -29.3370  -12.6070   17.9300 C   0  0  0  0  0  2  0  0  0  0  0  0
  -27.8870  -12.4180   18.4100 C   0  0  0  0  0  2  0  0  0  0  0  0
  -27.5330  -13.3290   19.6150 C   0  0  0  0  0  3  0  0  0  0  0  0
  -28.6230  -13.3150   20.7060 C   0  0  0  0  0  2  0  0  0  0  0  0
  -29.8780  -13.6710   20.0430 N   0  0  0  0  0  0  0  0  0  0  0  0
  -31.7960  -14.8180   19.9050 O   0  0  0  0  0  0  0  0  0  0  0  0
  -30.0080  -16.0760   19.8520 N   0  0  0  0  0  0  0  0  0  0  0  0
  -30.6960  -16.6020   19.3340 H   0  0  0  0  0  0  0  0  0  0  0  0
  -25.1650  -13.8860   20.4090 C   0  0  0  0  0  0  0  0  0  0  0  0
  -24.1180  -13.1000   20.8000 C   0  0  0  0  0  0  0  0  0  0  0  0
  -24.5970  -11.7530   20.7610 C   0  0  0  0  0  0  0  0  0  0  0  0
  -26.2120  -13.0210   20.1480 N   0  0  0  0  0  0  0  0  0  0  0  0
  -25.8820  -11.7330   20.4280 N   0  0  0  0  0  0  0  0  0  0  0  0
  -23.8900  -10.4820   20.9640 C   0  0  0  0  0  0  0  0  0  0  0  0
  -24.3430   -9.5260   21.8990 C   0  0  0  0  0  3  0  0  0  0  0  0
  -23.6350   -8.3210   22.0900 C   0  0  0  0  0  3  0  0  0  0  0  0
  -22.4590   -8.0620   21.3470 C   0  0  0  0  0  0  0  0  0  0  0  0
  -22.0260   -9.0070   20.3990 C   0  0  0  0  0  3  0  0  0  0  0  0
  -22.7360  -10.2050   20.2060 C   0  0  0  0  0  3  0  0  0  0  0  0
  -21.7190   -6.9100   21.4500 O   0  0  0  0  0  0  0  0  0  0  0  0
  -21.6810   -6.1800   22.6100 C   0  0  0  0  0  0  0  0  0  0  0  0
  -21.2530   -6.7430   23.8320 C   0  0  0  0  0  3  0  0  0  0  0  0
  -21.1620   -5.9370   24.9840 C   0  0  0  0  0  3  0  0  0  0  0  0
  -21.4900   -4.5710   24.9170 C   0  0  0  0  0  0  0  0  0  0  0  0
  -21.9120   -4.0070   23.7000 C   0  0  0  0  0  3  0  0  0  0  0  0
  -22.0040   -4.8080   22.5490 C   0  0  0  0  0  0  0  0  0  0  0  0
  -22.3900   -4.2550   21.3740 F   0  0  0  0  0  0  0  0  0  0  0  0
  -21.3960   -3.7950   26.0230 F   0  0  0  0  0  0  0  0  0  0  0  0
  -22.7200  -13.5600   21.0970 C   0  0  0  0  0  0  0  0  0  0  0  0
  -22.0170  -12.8520   21.9730 N   0  0  0  0  0  0  0  0  0  0  0  0
  -22.2600  -14.5810   20.5840 O   0  0  0  0  0  0  0  0  0  0  0  0
  -22.4030  -12.0240   22.4030 H   0  0  0  0  0  0  0  0  0  0  0  0
  -21.0810  -13.1390   22.2190 H   0  0  0  0  0  0  0  0  0  0  0  0
  -25.3130  -15.2580   20.2210 N   0  0  0  0  0  0  0  0  0  0  0  0
  -24.5490  -15.9130   20.3450 H   0  0  0  0  0  0  0  0  0  0  0  0
  -26.1520  -15.6900   19.8580 H   0  0  0  0  0  0  0  0  0  0  0  0
  1  2  1  0
  3  4  1  0
  3  6  2  0
  4  1  2  0
  5  2  2  0
  5  7  1  0
  6  5  1  0
  8  9  1  0
  8  4  1  0
  9 10  1  0
 11 13  1  0
 11 10  1  0
 12 23  2  0
 13 18  1  0
 14 22  1  0
 14 24  1  0
 15 21  1  0
 15 17  1  0
 16 22  1  0
 17 16  1  0
 18 17  2  0
 19 13  2  0
 20 19  1  0
 20 15  2  0
 21 14  1  0
 22 12  1  0
 24 26  2  0
 25 24  1  0
 27 25  1  0
 28 37  2  0
 28 33  1  0
 29 25  1  0
 29 33  1  0
 30 29  1  0
 31 32  1  0
 31 30  1  0
 32 28  1  0
 33 34  2  0
 34 35  1  0
 36 35  2  0
 37 36  1  0
 38 12  1  0
 38 43  1  0
 38 39  1  0
 39 42  1  1
 39 40  1  0
 41 39  1  0
 43 46  1  0
 44 48  1  0
 44 43  1  0
 45 44  2  0
 48 47  1  0
 50 48  1  0
 50 51  1  0
 50 49  1  0
 52  6  1  0
 54 59  1  0
 55 56  1  0
 55 54  1  0
 57 56  1  0
 57 66  1  0
 57 58  1  0
 59 53  1  0
 59 58  1  0
 60 53  2  0
 61 53  1  0
 61 52  1  0
 62 61  1  0
 63 64  2  0
 64 83  1  0
 65 64  1  0
 65 68  1  0
 66 63  1  0
 66 67  1  0
 67 65  2  0
 68 69  1  0
 69 70  2  0
 71 74  1  0
 71 70  1  0
 72 71  2  0
 73 72  1  0
 73 68  2  0
 74 75  1  0
 75 76  1  0
 76 77  2  0
 78 77  1  0
 78 82  1  0
 79 78  2  0
 80 75  2  0
 80 79  1  0
 81 80  1  0
 83 84  1  0
 84 87  1  0
 84 86  1  0
 85 83  2  0
 88 89  1  0
 88 63  1  0
 90 88  1  0
M  ISO  4  10 101  11 101  53 100  61 100
M  END
>  <TORSDO>  (93) 
F 20

>  <SCORE>  (93) 
-13.748

>  <name>  (93) 
94

>  <ligand_id>  (93) 
94

>  <original_smiles>  (93) 
[H]c1c([H])c([H])c2c(c1[H])C([H])([H])C([H])([H])C([H])([H])C2([H])N([H])C(=O)C1([H])N(C(=O)C([H])(N([H])C(=O)C([H])(N([H])C([H])([H])[H])C([H])([H])[H])C(C([H])([H])[H])(C([H])([H])[H])C([H])([H])[H])C([H])([H])c2c([H])c(OC([H])([H])C([H])([H])C([H])([H])c3c([H])c([H])c(C([H])([H])[H])c(C([H])([H])N([H])C(=O)N4C([H])([H])C([H])([H])C([H])([H])C([H])(n5nc(-c6c([H])c([H])c(Oc7c([H])c([H])c(F)c([H])c7F)c([H])c6[H])c(C(=O)N([H])[H])c5N([H])[H])C4([H])[H])c3[H])c([H])c([H])c2C1([H])[H]

>  <smiles>  (93) 
[H]c1c([H])c([H])c2c(c1[H])C([H])([H])C([H])([H])C([H])([H])C2([H])N([H])C(=O)C1([H])N(C(=O)C([H])(N([H])C(=O)C([H])(N([H])C([H])([H])[H])C([H])([H])[H])C(C([H])([H])[H])(C([H])([H])[H])C([H])([H])[H])C([H])([H])c2c([H])c(OC([H])([H])C([H])([H])C([H])([H])c3c([H])c([H])c(C([H])([H])[H])c(C([H])([H])N([H])C(=O)N4C([H])([H])C([H])([H])C([H])([H])C([H])(n5nc(-c6c([H])c([H])c(Oc7c([H])c([H])c(F)c([H])c7F)c([H])c6[H])c(C(=O)N([H])[H])c5N([H])[H])C4([H])[H])c3[H])c([H])c([H])c2C1([H])[H]

$$$$
95:0:0
     RDKit          3D

 93101  0  0  1  0  0  0  0  0999 V2000
  -28.1790  -20.4840   18.2290 C   0  0  0  0  0  3  0  0  0  0  0  0
  -28.8270  -19.5960   19.0930 C   0  0  0  0  0  3  0  0  0  0  0  0
  -28.6180  -21.8130   18.0990 C   0  0  0  0  0  0  0  0  0  0  0  0
  -29.9530  -19.9990   19.8410 C   0  0  0  0  0  0  0  0  0  0  0  0
  -30.4640  -21.3180   19.6510 C   0  0  0  0  0  0  0  0  0  0  0  0
  -29.7760  -22.2520   18.8040 C   0  0  0  0  0  0  0  0  0  0  0  0
  -27.8060  -22.7200   17.1820 C   0  0  0  0  0  1  0  0  0  0  0  0
  -31.7710  -21.6790   20.3550 C   0  0  0  0  0  1  0  0  0  0  0  0
  -30.5580  -19.0240   20.8770 C   0  0  0  0  0  3  0  0  0  0  0  0
  -30.2090  -17.5260   20.6790 C   0  0  0  0  0  3  0  0  0  0  0  0
  -30.7410  -16.5410   21.7350 C   0  0  0  0  0  2  0  0  0  0  0  0
  -30.7610  -14.3420   20.5430 C   0  0  0  0  0  0  0  0  0  0  0  0
  -30.3670  -12.2960   19.2280 C   0  0  0  0  0  2  0  0  0  0  0  0
  -29.4080  -12.5650   18.0490 C   0  0  0  0  0  2  0  0  0  0  0  0
  -27.9400  -12.4490   18.4960 C   0  0  0  0  0  2  0  0  0  0  0  0
  -27.6370  -13.2290   19.8010 C   0  0  0  0  0  3  0  0  0  0  0  0
  -28.6950  -12.9280   20.8820 C   0  0  0  0  0  2  0  0  0  0  0  0
  -30.0290  -13.2200   20.3210 N   0  0  0  0  0  0  0  0  0  0  0  0
  -31.8060  -14.6050   19.9470 O   0  0  0  0  0  0  0  0  0  0  0  0
  -30.2440  -15.1950   21.4400 N   0  0  0  0  0  0  0  0  0  0  0  0
  -29.3660  -14.9230   21.8590 H   0  0  0  0  0  0  0  0  0  0  0  0
  -25.2340  -13.8440   20.4930 C   0  0  0  0  0  0  0  0  0  0  0  0
  -24.1630  -13.0750   20.8600 C   0  0  0  0  0  0  0  0  0  0  0  0
  -24.6210  -11.7210   20.8330 C   0  0  0  0  0  0  0  0  0  0  0  0
  -26.2790  -12.9580   20.2750 N   0  0  0  0  0  0  0  0  0  0  0  0
  -25.9130  -11.6750   20.5320 N   0  0  0  0  0  0  0  0  0  0  0  0
  -23.8920  -10.4630   21.0280 C   0  0  0  0  0  0  0  0  0  0  0  0
  -24.3210   -9.4950   21.9640 C   0  0  0  0  0  3  0  0  0  0  0  0
  -23.5950   -8.2970   22.1450 C   0  0  0  0  0  3  0  0  0  0  0  0
  -22.4230   -8.0580   21.3880 C   0  0  0  0  0  0  0  0  0  0  0  0
  -22.0100   -9.0150   20.4420 C   0  0  0  0  0  3  0  0  0  0  0  0
  -22.7370  -10.2040   20.2630 C   0  0  0  0  0  3  0  0  0  0  0  0
  -21.6640   -6.9170   21.4780 O   0  0  0  0  0  0  0  0  0  0  0  0
  -21.6170   -6.1750   22.6290 C   0  0  0  0  0  0  0  0  0  0  0  0
  -21.1940   -6.7310   23.8560 C   0  0  0  0  0  3  0  0  0  0  0  0
  -21.0930   -5.9160   25.0010 C   0  0  0  0  0  3  0  0  0  0  0  0
  -21.4030   -4.5470   24.9210 C   0  0  0  0  0  0  0  0  0  0  0  0
  -21.8250   -3.9910   23.7010 C   0  0  0  0  0  3  0  0  0  0  0  0
  -21.9260   -4.8010   22.5570 C   0  0  0  0  0  0  0  0  0  0  0  0
  -22.3090   -4.2550   21.3790 F   0  0  0  0  0  0  0  0  0  0  0  0
  -21.3050   -3.7640   26.0220 F   0  0  0  0  0  0  0  0  0  0  0  0
  -22.7670  -13.5560   21.1320 C   0  0  0  0  0  0  0  0  0  0  0  0
  -22.0410  -12.8600   22.0000 N   0  0  0  0  0  0  0  0  0  0  0  0
  -22.3270  -14.5820   20.6110 O   0  0  0  0  0  0  0  0  0  0  0  0
  -22.4080  -12.0280   22.4380 H   0  0  0  0  0  0  0  0  0  0  0  0
  -21.1070  -13.1630   22.2360 H   0  0  0  0  0  0  0  0  0  0  0  0
  -25.3970  -15.2150   20.3120 N   0  0  0  0  0  0  0  0  0  0  0  0
  -24.6330  -15.8750   20.4210 H   0  0  0  0  0  0  0  0  0  0  0  0
  -26.2550  -15.6520   19.9980 H   0  0  0  0  0  0  0  0  0  0  0  0
  -30.2810  -23.6990   18.6190 C   0  0  0  0  0  2  0  0  0  0  0  0
  -29.8150  -24.7210   19.6990 C   0  0  0  0  0  2  0  0  0  0  0  0
  -28.6380  -25.6440   19.2740 C   0  0  0  0  0  2  0  0  0  0  0  0
  -28.4050  -26.7190   20.2060 O   0  0  0  0  0  0  0  0  0  0  0  0
  -24.5480  -31.9050   23.2370 C   0  0  0  0  0  0  0  0  0  0  0  0
  -27.2120  -27.4280   20.1710 C   0  0  0  0  0  0  0  0  0  0  0  0
  -23.3460  -30.4950   21.6000 C   0  0  0  0  0  3  0  0  0  0  0  0
  -24.8040  -28.9460   20.1900 C   0  0  0  0  0  0  0  0  0  0  0  0
  -25.8780  -30.8380   21.4190 C   0  0  0  0  0  2  0  0  0  0  0  0
  -25.9620  -29.4640   20.7830 C   0  0  0  0  0  0  0  0  0  0  0  0
  -27.1580  -28.7080   20.7790 C   0  0  0  0  0  3  0  0  0  0  0  0
  -26.0240  -26.9300   19.5760 C   0  0  0  0  0  3  0  0  0  0  0  0
  -24.8330  -27.6780   19.5870 C   0  0  0  0  0  3  0  0  0  0  0  0
  -23.5590  -29.8020   20.2280 C   0  0  0  0  0  2  0  0  0  0  0  0
  -24.6080  -31.0960   22.1430 N   0  0  0  0  0  0  0  0  0  0  0  0
  -23.4640  -32.1880   23.7680 O   0  0  0  0  0  0  0  0  0  0  0  0
  -22.6860  -29.4850   22.5660 C   0  0  0  0  0  0  0  0  0  0  0  0
  -21.3600  -29.3090   22.4350 N   0  0  0  0  0  0  0  0  0  0  0  0
  -23.3610  -28.8600   23.3880 O   0  0  0  0  0  0  0  0  0  0  0  0
  -20.8760  -29.8610   21.7410 H   0  0  0  0  0  0  0  0  0  0  0  0
  -17.9770  -28.1500   22.9430 C   0  0  0  0  0  0  0  0  0  0  0  0
  -20.5380  -28.3810   23.2080 C   0  0  0  0  0  3  0  0  0  0  0  0
  -20.6240  -26.9490   22.6330 C   0  0  0  0  0  2  0  0  0  0  0  0
  -19.5160  -26.6360   21.6210 C   0  0  0  0  0  2  0  0  0  0  0  0
  -18.1380  -26.7970   22.2690 C   0  0  0  0  0  2  0  0  0  0  0  0
  -19.1040  -28.9000   23.3690 C   0  0  0  0  0  0  0  0  0  0  0  0
  -18.9020  -30.1660   23.9590 C   0  0  0  0  0  3  0  0  0  0  0  0
  -17.6040  -30.6830   24.1280 C   0  0  0  0  0  3  0  0  0  0  0  0
  -16.4900  -29.9300   23.7200 C   0  0  0  0  0  3  0  0  0  0  0  0
  -16.6770  -28.6660   23.1330 C   0  0  0  0  0  3  0  0  0  0  0  0
  -25.8340  -32.5360   23.8610 C   0  0  0  0  0  3  0  0  0  0  0  0
  -25.5260  -33.9360   24.1830 N   0  0  0  0  0  0  0  0  0  0  0  0
  -25.8630  -34.9840   23.4210 C   0  0  0  0  0  0  0  0  0  0  0  0
  -26.5370  -34.8760   22.3930 O   0  0  0  0  0  0  0  0  0  0  0  0
  -24.9300  -34.0960   24.9820 H   0  0  0  0  0  0  0  0  0  0  0  0
  -24.1420  -36.7790   23.0470 C   0  0  0  0  0  1  0  0  0  0  0  0
  -25.3750  -36.3750   23.8710 C   0  0  0  0  0  3  0  0  0  0  0  0
  -27.5030  -37.2550   24.7190 C   0  0  0  0  0  1  0  0  0  0  0  0
  -26.4100  -37.4240   23.7650 N   0  0  0  0  0  0  0  0  0  0  0  0
  -26.0060  -38.3460   23.9060 H   0  0  0  0  0  0  0  0  0  0  0  0
  -26.3490  -31.7680   25.1380 C   0  0  1  0  0  0  0  0  0  0  0  0
  -25.2540  -31.5340   26.2030 C   0  0  0  0  0  1  0  0  0  0  0  0
  -26.9340  -30.3880   24.7520 C   0  0  0  0  0  1  0  0  0  0  0  0
  -27.5000  -32.5630   25.7990 C   0  0  0  0  0  1  0  0  0  0  0  0
  1  2  1  0
  2  4  2  0
  3  1  2  0
  3  6  1  0
  4  9  1  0
  5  4  1  0
  5  8  1  0
  6  5  2  0
  7  3  1  0
 10  9  2  0
 10 11  1  0
 12 20  1  0
 13 18  1  0
 14 15  1  0
 14 13  1  0
 16 15  1  0
 16 25  1  0
 16 17  1  0
 18 12  1  0
 18 17  1  0
 19 12  2  0
 20 11  1  0
 20 21  1  0
 22 23  2  0
 23 42  1  0
 24 23  1  0
 24 27  1  0
 25 22  1  0
 25 26  1  0
 26 24  2  0
 27 28  1  0
 28 29  2  0
 30 33  1  0
 30 29  1  0
 31 30  2  0
 32 31  1  0
 32 27  2  0
 33 34  1  0
 34 35  1  0
 35 36  2  0
 37 36  1  0
 37 41  1  0
 38 37  2  0
 39 34  2  0
 39 38  1  0
 40 39  1  0
 42 43  1  0
 43 46  1  0
 43 45  1  0
 44 42  2  0
 47 48  1  0
 47 22  1  0
 49 47  1  0
 50  6  1  0
 50 51  1  0
 52 51  1  0
 52 53  1  0
 54 65  2  0
 55 53  1  0
 55 60  1  0
 56 64  1  0
 56 66  1  0
 57 63  1  0
 57 59  1  0
 58 64  1  0
 59 58  1  0
 60 59  2  0
 61 62  1  0
 61 55  2  0
 62 57  2  0
 63 56  1  0
 64 54  1  0
 66 68  2  0
 67 66  1  0
 69 67  1  0
 70 79  2  0
 70 75  1  0
 71 67  1  0
 71 75  1  0
 72 71  1  0
 73 74  1  0
 73 72  1  0
 74 70  1  0
 75 76  2  0
 76 77  1  0
 78 77  2  0
 79 78  1  0
 80 54  1  0
 80 81  1  0
 80 90  1  0
 81 84  1  0
 82 86  1  0
 82 81  1  0
 83 82  2  0
 86 85  1  0
 88 86  1  0
 88 89  1  0
 88 87  1  0
 90 93  1  1
 90 91  1  0
 92 90  1  0
M  ISO  4  12 100  20 100  52 101  53 101
M  END
>  <TORSDO>  (94) 
F 22

>  <SCORE>  (94) 
-13.010

>  <name>  (94) 
95

>  <ligand_id>  (94) 
95

>  <original_smiles>  (94) 
[H]c1c([H])c([H])c2c(c1[H])C([H])([H])C([H])([H])C([H])([H])C2([H])N([H])C(=O)C1([H])N(C(=O)C([H])(N([H])C(=O)C([H])(N([H])C([H])([H])[H])C([H])([H])[H])C(C([H])([H])[H])(C([H])([H])[H])C([H])([H])[H])C([H])([H])c2c([H])c(OC([H])([H])C([H])([H])C([H])([H])c3c(C([H])([H])[H])c([H])c([H])c(C([H])([H])C([H])([H])C([H])([H])N([H])C(=O)N4C([H])([H])C([H])([H])C([H])([H])C([H])(n5nc(-c6c([H])c([H])c(Oc7c([H])c([H])c(F)c([H])c7F)c([H])c6[H])c(C(=O)N([H])[H])c5N([H])[H])C4([H])[H])c3C([H])([H])[H])c([H])c([H])c2C1([H])[H]

>  <smiles>  (94) 
[H]c1c([H])c([H])c2c(c1[H])C([H])([H])C([H])([H])C([H])([H])C2([H])N([H])C(=O)C1([H])N(C(=O)C([H])(N([H])C(=O)C([H])(N([H])C([H])([H])[H])C([H])([H])[H])C(C([H])([H])[H])(C([H])([H])[H])C([H])([H])[H])C([H])([H])c2c([H])c(OC([H])([H])C([H])([H])C([H])([H])c3c(C([H])([H])[H])c([H])c([H])c(C([H])([H])C([H])([H])C([H])([H])N([H])C(=O)N4C([H])([H])C([H])([H])C([H])([H])C([H])(n5nc(-c6c([H])c([H])c(Oc7c([H])c([H])c(F)c([H])c7F)c([H])c6[H])c(C(=O)N([H])[H])c5N([H])[H])C4([H])[H])c3C([H])([H])[H])c([H])c([H])c2C1([H])[H]

$$$$
96:0:0
     RDKit          3D

 92101  0  0  1  0  0  0  0  0999 V2000
  -30.2800  -21.1840   19.6360 C   0  0  0  0  0  3  0  0  0  0  0  0
  -31.0560  -20.6990   21.7050 C   0  0  0  0  0  3  0  0  0  0  0  0
  -30.8220  -21.7270   20.8230 C   0  0  0  0  0  0  0  0  0  0  0  0
  -30.1940  -19.8240   19.8170 C   0  0  0  0  0  0  0  0  0  0  0  0
  -29.7300  -18.7690   18.9980 C   0  0  0  0  0  3  0  0  0  0  0  0
  -30.7010  -18.2050   21.5560 C   0  0  0  0  0  3  0  0  0  0  0  0
  -29.7190  -17.4710   19.4660 C   0  0  0  0  0  0  0  0  0  0  0  0
  -30.2170  -17.1640   20.7760 C   0  0  0  0  0  0  0  0  0  0  0  0
  -29.1120  -16.4250   18.5530 C   0  0  0  0  0  1  0  0  0  0  0  0
  -30.6780  -19.4970   21.1030 N   0  0  0  0  0  0  0  0  0  0  0  0
  -31.1270  -23.1880   21.0500 C   0  0  0  0  0  2  0  0  0  0  0  0
  -29.8950  -24.1240   21.0220 C   0  0  0  0  0  2  0  0  0  0  0  0
  -30.2950  -25.6120   21.1560 C   0  0  0  0  0  2  0  0  0  0  0  0
  -29.1330  -26.6200   21.2930 C   0  0  0  0  0  2  0  0  0  0  0  0
  -28.3810  -26.7230   20.0850 O   0  0  0  0  0  0  0  0  0  0  0  0
  -24.5750  -31.8880   23.2550 C   0  0  0  0  0  0  0  0  0  0  0  0
  -27.2380  -27.4910   20.1440 C   0  0  0  0  0  0  0  0  0  0  0  0
  -23.3650  -30.4900   21.6070 C   0  0  0  0  0  3  0  0  0  0  0  0
  -24.8240  -28.9650   20.1690 C   0  0  0  0  0  0  0  0  0  0  0  0
  -25.8840  -30.8660   21.4010 C   0  0  0  0  0  2  0  0  0  0  0  0
  -25.9760  -29.4970   20.7610 C   0  0  0  0  0  0  0  0  0  0  0  0
  -27.1830  -28.7650   20.7560 C   0  0  0  0  0  3  0  0  0  0  0  0
  -26.0730  -26.9770   19.5360 C   0  0  0  0  0  3  0  0  0  0  0  0
  -24.8650  -27.7010   19.5550 C   0  0  0  0  0  3  0  0  0  0  0  0
  -23.5730  -29.8150   20.2230 C   0  0  0  0  0  2  0  0  0  0  0  0
  -24.6260  -31.0960   22.1470 N   0  0  0  0  0  0  0  0  0  0  0  0
  -23.4950  -32.1530   23.8020 O   0  0  0  0  0  0  0  0  0  0  0  0
  -22.7210  -29.4640   22.5640 C   0  0  0  0  0  0  0  0  0  0  0  0
  -21.3980  -29.2770   22.4390 N   0  0  0  0  0  0  0  0  0  0  0  0
  -23.4090  -28.8380   23.3750 O   0  0  0  0  0  0  0  0  0  0  0  0
  -20.9050  -29.8340   21.7550 H   0  0  0  0  0  0  0  0  0  0  0  0
  -18.0290  -28.0680   22.9330 C   0  0  0  0  0  0  0  0  0  0  0  0
  -20.5850  -28.3320   23.2040 C   0  0  0  0  0  3  0  0  0  0  0  0
  -20.6930  -26.9050   22.6190 C   0  0  0  0  0  2  0  0  0  0  0  0
  -19.5910  -26.5850   21.6040 C   0  0  0  0  0  2  0  0  0  0  0  0
  -18.2090  -26.7230   22.2500 C   0  0  0  0  0  2  0  0  0  0  0  0
  -19.1450  -28.8300   23.3670 C   0  0  0  0  0  0  0  0  0  0  0  0
  -18.9240  -30.0910   23.9630 C   0  0  0  0  0  3  0  0  0  0  0  0
  -17.6190  -30.5880   24.1320 C   0  0  0  0  0  3  0  0  0  0  0  0
  -16.5160  -29.8220   23.7170 C   0  0  0  0  0  3  0  0  0  0  0  0
  -16.7230  -28.5640   23.1230 C   0  0  0  0  0  3  0  0  0  0  0  0
  -25.8640  -32.5160   23.8730 C   0  0  0  0  0  3  0  0  0  0  0  0
  -25.5600  -33.9140   24.2030 N   0  0  0  0  0  0  0  0  0  0  0  0
  -25.8950  -34.9650   23.4430 C   0  0  0  0  0  0  0  0  0  0  0  0
  -26.5650  -34.8590   22.4110 O   0  0  0  0  0  0  0  0  0  0  0  0
  -24.9650  -34.0720   25.0040 H   0  0  0  0  0  0  0  0  0  0  0  0
  -24.1770  -36.7640   23.0740 C   0  0  0  0  0  1  0  0  0  0  0  0
  -25.4090  -36.3540   23.8970 C   0  0  0  0  0  3  0  0  0  0  0  0
  -27.5380  -37.2300   24.7510 C   0  0  0  0  0  1  0  0  0  0  0  0
  -26.4470  -37.4030   23.7940 N   0  0  0  0  0  0  0  0  0  0  0  0
  -26.0440  -38.3260   23.9390 H   0  0  0  0  0  0  0  0  0  0  0  0
  -26.3860  -31.7410   25.1450 C   0  0  1  0  0  0  0  0  0  0  0  0
  -25.2960  -31.5000   26.2150 C   0  0  0  0  0  1  0  0  0  0  0  0
  -26.9660  -30.3640   24.7450 C   0  0  0  0  0  1  0  0  0  0  0  0
  -27.5380  -32.5320   25.8060 C   0  0  0  0  0  1  0  0  0  0  0  0
  -30.0820  -15.7600   21.4190 C   0  0  0  0  0  2  0  0  0  0  0  0
  -30.8520  -14.5740   20.7630 C   0  0  0  0  0  0  0  0  0  0  0  0
  -30.6550  -12.4090   19.5730 C   0  0  0  0  0  2  0  0  0  0  0  0
  -29.7530  -12.5860   18.3320 C   0  0  0  0  0  2  0  0  0  0  0  0
  -28.2580  -12.4660   18.6980 C   0  0  0  0  0  2  0  0  0  0  0  0
  -27.8700  -13.2850   19.9590 C   0  0  0  0  0  3  0  0  0  0  0  0
  -28.8820  -13.0380   21.0990 C   0  0  0  0  0  2  0  0  0  0  0  0
  -30.2210  -13.3780   20.5910 N   0  0  0  0  0  0  0  0  0  0  0  0
  -31.9920  -14.7750   20.3290 O   0  0  0  0  0  0  0  0  0  0  0  0
  -25.4370  -13.9030   20.5370 C   0  0  0  0  0  0  0  0  0  0  0  0
  -24.3540  -13.1310   20.8640 C   0  0  0  0  0  0  0  0  0  0  0  0
  -24.8210  -11.7820   20.8730 C   0  0  0  0  0  0  0  0  0  0  0  0
  -26.4950  -13.0200   20.3730 N   0  0  0  0  0  0  0  0  0  0  0  0
  -26.1240  -11.7420   20.6310 N   0  0  0  0  0  0  0  0  0  0  0  0
  -24.0930  -10.5190   21.0450 C   0  0  0  0  0  0  0  0  0  0  0  0
  -24.4900   -9.5630   22.0040 C   0  0  0  0  0  3  0  0  0  0  0  0
  -23.7650   -8.3630   22.1630 C   0  0  0  0  0  3  0  0  0  0  0  0
  -22.6270   -8.1110   21.3600 C   0  0  0  0  0  0  0  0  0  0  0  0
  -22.2490   -9.0550   20.3900 C   0  0  0  0  0  3  0  0  0  0  0  0
  -22.9760  -10.2480   20.2300 C   0  0  0  0  0  3  0  0  0  0  0  0
  -21.8750   -6.9630   21.4270 O   0  0  0  0  0  0  0  0  0  0  0  0
  -21.7790   -6.2330   22.5840 C   0  0  0  0  0  0  0  0  0  0  0  0
  -21.2910   -6.7950   23.7830 C   0  0  0  0  0  3  0  0  0  0  0  0
  -21.1430   -5.9900   24.9300 C   0  0  0  0  0  3  0  0  0  0  0  0
  -21.4750   -4.6230   24.8780 C   0  0  0  0  0  0  0  0  0  0  0  0
  -21.9560   -4.0590   23.6830 C   0  0  0  0  0  3  0  0  0  0  0  0
  -22.1050   -4.8620   22.5390 C   0  0  0  0  0  0  0  0  0  0  0  0
  -22.5500   -4.3090   21.3840 F   0  0  0  0  0  0  0  0  0  0  0  0
  -21.3250   -3.8470   25.9780 F   0  0  0  0  0  0  0  0  0  0  0  0
  -22.9420  -13.6050   21.0630 C   0  0  0  0  0  0  0  0  0  0  0  0
  -22.1770  -12.9130   21.9000 N   0  0  0  0  0  0  0  0  0  0  0  0
  -22.5240  -14.6220   20.5110 O   0  0  0  0  0  0  0  0  0  0  0  0
  -22.5280  -12.0910   22.3680 H   0  0  0  0  0  0  0  0  0  0  0  0
  -21.2270  -13.2110   22.0760 H   0  0  0  0  0  0  0  0  0  0  0  0
  -25.6050  -15.2720   20.3510 N   0  0  0  0  0  0  0  0  0  0  0  0
  -24.8340  -15.9260   20.4230 H   0  0  0  0  0  0  0  0  0  0  0  0
  -26.4740  -15.7150   20.0820 H   0  0  0  0  0  0  0  0  0  0  0  0
  1  4  2  0
  1  3  1  0
  3 11  1  0
  3  2  2  0
  4 10  1  0
  5  7  2  0
  5  4  1  0
  7  8  1  0
  8 56  1  0
  8  6  2  0
  9  7  1  0
 10  6  1  0
 10  2  1  0
 12 11  1  0
 12 13  1  0
 13 14  1  0
 15 17  1  0
 15 14  1  0
 16 27  2  0
 17 22  1  0
 18 26  1  0
 18 28  1  0
 19 25  1  0
 19 21  1  0
 20 26  1  0
 21 20  1  0
 22 21  2  0
 23 24  1  0
 23 17  2  0
 24 19  2  0
 25 18  1  0
 26 16  1  0
 28 30  2  0
 29 28  1  0
 31 29  1  0
 32 41  2  0
 32 37  1  0
 33 29  1  0
 33 37  1  0
 34 33  1  0
 35 36  1  0
 35 34  1  0
 36 32  1  0
 37 38  2  0
 38 39  1  0
 40 39  2  0
 41 40  1  0
 42 16  1  0
 42 43  1  0
 42 52  1  0
 43 46  1  0
 44 48  1  0
 44 43  1  0
 45 44  2  0
 48 47  1  0
 50 48  1  0
 50 51  1  0
 50 49  1  0
 52 55  1  1
 52 53  1  0
 54 52  1  0
 57 56  1  0
 58 63  1  0
 59 60  1  0
 59 58  1  0
 61 60  1  0
 61 68  1  0
 61 62  1  0
 63 57  1  0
 63 62  1  0
 64 57  2  0
 65 66  2  0
 66 67  1  0
 66 85  1  0
 67 70  1  0
 68 65  1  0
 68 69  1  0
 69 67  2  0
 70 71  1  0
 71 72  2  0
 73 76  1  0
 73 72  1  0
 74 73  2  0
 75 74  1  0
 75 70  2  0
 76 77  1  0
 77 78  1  0
 78 79  2  0
 80 79  1  0
 80 84  1  0
 81 80  2  0
 82 77  2  0
 82 81  1  0
 83 82  1  0
 85 86  1  0
 86 89  1  0
 86 88  1  0
 87 85  2  0
 90 91  1  0
 90 65  1  0
 92 90  1  0
M  ISO  4  14 101  15 101  56 100  57 100
M  END
>  <TORSDO>  (95) 
F 21

>  <SCORE>  (95) 
-13.329

>  <name>  (95) 
96

>  <ligand_id>  (95) 
96

>  <original_smiles>  (95) 
[H]c1c([H])c([H])c2c(c1[H])C([H])([H])C([H])([H])C([H])([H])C2([H])N([H])C(=O)C1([H])N(C(=O)C([H])(N([H])C(=O)C([H])(N([H])C([H])([H])[H])C([H])([H])[H])C(C([H])([H])[H])(C([H])([H])[H])C([H])([H])[H])C([H])([H])c2c([H])c(OC([H])([H])C([H])([H])C([H])([H])C([H])([H])c3c([H])c4c([H])c(C([H])([H])[H])c(C([H])([H])C(=O)N5C([H])([H])C([H])([H])C([H])([H])C([H])(n6nc(-c7c([H])c([H])c(Oc8c([H])c([H])c(F)c([H])c8F)c([H])c7[H])c(C(=O)N([H])[H])c6N([H])[H])C5([H])[H])c([H])n4c3[H])c([H])c([H])c2C1([H])[H]

>  <smiles>  (95) 
[H]c1c([H])c([H])c2c(c1[H])C([H])([H])C([H])([H])C([H])([H])C2([H])N([H])C(=O)C1([H])N(C(=O)C([H])(N([H])C(=O)C([H])(N([H])C([H])([H])[H])C([H])([H])[H])C(C([H])([H])[H])(C([H])([H])[H])C([H])([H])[H])C([H])([H])c2c([H])c(OC([H])([H])C([H])([H])C([H])([H])C([H])([H])c3c([H])c4c([H])c(C([H])([H])[H])c(C([H])([H])C(=O)N5C([H])([H])C([H])([H])C([H])([H])C([H])(n6nc(-c7c([H])c([H])c(Oc8c([H])c([H])c(F)c([H])c8F)c([H])c7[H])c(C(=O)N([H])[H])c6N([H])[H])C5([H])[H])c([H])n4c3[H])c([H])c([H])c2C1([H])[H]

$$$$
97:0:0
     RDKit          3D

 92100  0  0  1  0  0  0  0  0999 V2000
  -31.7510  -21.3560   17.8070 C   0  0  0  0  0  3  0  0  0  0  0  0
  -30.0060  -19.8450   19.2400 C   0  0  0  0  0  0  0  0  0  0  0  0
  -30.7800  -19.3340   18.1690 C   0  0  0  0  0  0  0  0  0  0  0  0
  -29.9930  -21.3190   19.3180 C   0  0  0  0  0  0  0  0  0  0  0  0
  -31.6960  -20.0700   17.5220 N   0  0  0  0  0  0  0  0  0  0  0  0
  -30.8930  -22.0080   18.5830 N   0  0  0  0  0  0  0  0  0  0  0  0
  -29.7510  -18.2060   16.1830 C   0  0  0  0  0  1  0  0  0  0  0  0
  -30.5100  -17.9910   17.5000 C   0  0  0  0  0  2  0  0  0  0  0  0
  -29.3020  -18.7550   20.1440 C   0  0  0  0  0  2  0  0  0  0  0  0
  -30.2230  -17.5060   20.6900 C   0  0  0  0  0  2  0  0  0  0  0  0
  -30.5780  -14.9190   20.3880 C   0  0  0  0  0  0  0  0  0  0  0  0
  -30.4240  -12.6450   19.3540 C   0  0  0  0  0  2  0  0  0  0  0  0
  -29.4900  -12.6550   18.1240 C   0  0  0  0  0  2  0  0  0  0  0  0
  -28.0330  -12.4350   18.5640 C   0  0  0  0  0  2  0  0  0  0  0  0
  -27.6220  -13.3730   19.7230 C   0  0  0  0  0  3  0  0  0  0  0  0
  -28.6620  -13.3540   20.8590 C   0  0  0  0  0  2  0  0  0  0  0  0
  -29.9540  -13.7030   20.2750 N   0  0  0  0  0  0  0  0  0  0  0  0
  -31.7760  -15.0220   20.1290 O   0  0  0  0  0  0  0  0  0  0  0  0
  -29.7880  -16.0490   20.5880 N   0  0  0  0  0  0  0  0  0  0  0  0
  -28.7950  -15.8840   20.6630 H   0  0  0  0  0  0  0  0  0  0  0  0
  -25.2330  -13.9410   20.4600 C   0  0  0  0  0  0  0  0  0  0  0  0
  -24.1820  -13.1550   20.8350 C   0  0  0  0  0  0  0  0  0  0  0  0
  -24.6670  -11.8080   20.8190 C   0  0  0  0  0  0  0  0  0  0  0  0
  -26.2870  -13.0740   20.2240 N   0  0  0  0  0  0  0  0  0  0  0  0
  -25.9580  -11.7920   20.5150 N   0  0  0  0  0  0  0  0  0  0  0  0
  -23.9670  -10.5350   21.0070 C   0  0  0  0  0  0  0  0  0  0  0  0
  -24.4080   -9.5880   21.9560 C   0  0  0  0  0  3  0  0  0  0  0  0
  -23.7080   -8.3760   22.1360 C   0  0  0  0  0  3  0  0  0  0  0  0
  -22.5530   -8.1020   21.3650 C   0  0  0  0  0  0  0  0  0  0  0  0
  -22.1340   -9.0380   20.4000 C   0  0  0  0  0  3  0  0  0  0  0  0
  -22.8340  -10.2410   20.2180 C   0  0  0  0  0  3  0  0  0  0  0  0
  -21.8240   -6.9420   21.4520 O   0  0  0  0  0  0  0  0  0  0  0  0
  -21.7650   -6.2130   22.6140 C   0  0  0  0  0  0  0  0  0  0  0  0
  -21.2860   -6.7700   23.8210 C   0  0  0  0  0  3  0  0  0  0  0  0
  -21.1790   -5.9660   24.9740 C   0  0  0  0  0  3  0  0  0  0  0  0
  -21.5400   -4.6070   24.9180 C   0  0  0  0  0  0  0  0  0  0  0  0
  -22.0090   -4.0480   23.7170 C   0  0  0  0  0  3  0  0  0  0  0  0
  -22.1180   -4.8490   22.5670 C   0  0  0  0  0  0  0  0  0  0  0  0
  -22.5540   -4.3030   21.4050 F   0  0  0  0  0  0  0  0  0  0  0  0
  -21.4280   -3.8320   26.0220 F   0  0  0  0  0  0  0  0  0  0  0  0
  -22.7730  -13.6020   21.0940 C   0  0  0  0  0  0  0  0  0  0  0  0
  -22.0520  -12.8930   21.9510 N   0  0  0  0  0  0  0  0  0  0  0  0
  -22.3190  -14.6160   20.5570 O   0  0  0  0  0  0  0  0  0  0  0  0
  -22.4340  -12.0770   22.4110 H   0  0  0  0  0  0  0  0  0  0  0  0
  -21.1020  -13.1670   22.1600 H   0  0  0  0  0  0  0  0  0  0  0  0
  -25.3780  -15.3140   20.2780 N   0  0  0  0  0  0  0  0  0  0  0  0
  -24.6040  -15.9570   20.3920 H   0  0  0  0  0  0  0  0  0  0  0  0
  -26.2160  -15.7610   19.9350 H   0  0  0  0  0  0  0  0  0  0  0  0
  -28.9260  -22.3120   19.9470 C   0  0  0  0  0  2  0  0  0  0  0  0
  -29.2780  -23.8890   20.2400 C   0  0  0  0  0  3  0  0  0  0  0  0
  -28.3230  -25.1000   19.7140 C   0  0  0  0  0  3  0  0  0  0  0  0
  -28.4030  -26.5320   20.1980 O   0  0  0  0  0  0  0  0  0  0  0  0
  -24.6240  -31.9680   23.2840 C   0  0  0  0  0  0  0  0  0  0  0  0
  -27.2750  -27.4010   20.1600 C   0  0  0  0  0  0  0  0  0  0  0  0
  -23.4320  -30.5690   21.6360 C   0  0  0  0  0  3  0  0  0  0  0  0
  -24.8890  -29.0310   20.1990 C   0  0  0  0  0  0  0  0  0  0  0  0
  -25.9740  -30.8780   21.4640 C   0  0  0  0  0  2  0  0  0  0  0  0
  -26.0590  -29.5010   20.8100 C   0  0  0  0  0  0  0  0  0  0  0  0
  -27.2450  -28.6940   20.7890 C   0  0  0  0  0  3  0  0  0  0  0  0
  -26.0770  -27.0130   19.5090 C   0  0  0  0  0  3  0  0  0  0  0  0
  -24.9050  -27.7930   19.5450 C   0  0  0  0  0  3  0  0  0  0  0  0
  -23.6500  -29.9050   20.2500 C   0  0  0  0  0  2  0  0  0  0  0  0
  -24.6960  -31.1590   22.1830 N   0  0  0  0  0  0  0  0  0  0  0  0
  -23.5360  -32.2370   23.8160 O   0  0  0  0  0  0  0  0  0  0  0  0
  -22.7720  -29.5470   22.5900 C   0  0  0  0  0  0  0  0  0  0  0  0
  -21.4480  -29.3520   22.4550 N   0  0  0  0  0  0  0  0  0  0  0  0
  -23.4500  -28.9270   23.4140 O   0  0  0  0  0  0  0  0  0  0  0  0
  -20.9580  -29.8970   21.7590 H   0  0  0  0  0  0  0  0  0  0  0  0
  -18.0860  -28.0890   22.9160 C   0  0  0  0  0  0  0  0  0  0  0  0
  -20.6350  -28.4040   23.2190 C   0  0  0  0  0  3  0  0  0  0  0  0
  -20.7730  -26.9690   22.6590 C   0  0  0  0  0  2  0  0  0  0  0  0
  -19.6950  -26.6190   21.6300 C   0  0  0  0  0  2  0  0  0  0  0  0
  -18.3000  -26.7400   22.2500 C   0  0  0  0  0  2  0  0  0  0  0  0
  -19.1830  -28.8790   23.3560 C   0  0  0  0  0  0  0  0  0  0  0  0
  -18.9290  -30.1390   23.9360 C   0  0  0  0  0  3  0  0  0  0  0  0
  -17.6110  -30.6130   24.0820 C   0  0  0  0  0  3  0  0  0  0  0  0
  -16.5290  -29.8220   23.6580 C   0  0  0  0  0  3  0  0  0  0  0  0
  -16.7680  -28.5620   23.0810 C   0  0  0  0  0  3  0  0  0  0  0  0
  -25.8990  -32.6110   23.9090 C   0  0  0  0  0  3  0  0  0  0  0  0
  -25.5880  -34.0140   24.2230 N   0  0  0  0  0  0  0  0  0  0  0  0
  -25.9180  -35.0590   23.4540 C   0  0  0  0  0  0  0  0  0  0  0  0
  -26.5850  -34.9460   22.4230 O   0  0  0  0  0  0  0  0  0  0  0  0
  -24.9990  -34.1730   25.0280 H   0  0  0  0  0  0  0  0  0  0  0  0
  -24.1860  -36.8460   23.0910 C   0  0  0  0  0  1  0  0  0  0  0  0
  -25.4320  -36.4550   23.9010 C   0  0  0  0  0  3  0  0  0  0  0  0
  -27.5690  -37.3490   24.7100 C   0  0  0  0  0  1  0  0  0  0  0  0
  -26.4630  -37.5070   23.7710 N   0  0  0  0  0  0  0  0  0  0  0  0
  -26.0570  -38.4280   23.9140 H   0  0  0  0  0  0  0  0  0  0  0  0
  -26.4060  -31.8560   25.1990 C   0  0  1  0  0  0  0  0  0  0  0  0
  -25.3080  -31.6310   26.2650 C   0  0  0  0  0  1  0  0  0  0  0  0
  -26.9930  -30.4750   24.8280 C   0  0  0  0  0  1  0  0  0  0  0  0
  -27.5540  -32.6580   25.8560 C   0  0  0  0  0  1  0  0  0  0  0  0
  1  6  1  0
  2  4  1  0
  2  9  1  0
  3  2  2  0
  4 49  1  0
  5  1  2  0
  5  3  1  0
  6  4  2  0
  7  8  1  0
  8  3  1  0
  9 10  1  0
 11 19  1  0
 12 17  1  0
 13 14  1  0
 13 12  1  0
 15 14  1  0
 15 24  1  0
 15 16  1  0
 17 11  1  0
 17 16  1  0
 18 11  2  0
 19 20  1  0
 19 10  1  0
 21 22  2  0
 22 41  1  0
 23 22  1  0
 23 26  1  0
 24 21  1  0
 24 25  1  0
 25 23  2  0
 26 27  1  0
 27 28  2  0
 29 32  1  0
 29 28  1  0
 30 29  2  0
 31 30  1  0
 31 26  2  0
 32 33  1  0
 33 34  1  0
 34 35  2  0
 36 35  1  0
 36 40  1  0
 37 36  2  0
 38 33  2  0
 38 37  1  0
 39 38  1  0
 41 42  1  0
 42 45  1  0
 42 44  1  0
 43 41  2  0
 46 47  1  0
 46 21  1  0
 48 46  1  0
 49 50  1  0
 51 52  1  0
 51 50  2  0
 53 64  2  0
 54 52  1  0
 54 59  1  0
 55 63  1  0
 55 65  1  0
 56 62  1  0
 56 58  1  0
 57 63  1  0
 58 57  1  0
 59 58  2  0
 60 61  1  0
 60 54  2  0
 61 56  2  0
 62 55  1  0
 63 53  1  0
 65 67  2  0
 66 65  1  0
 68 66  1  0
 69 78  2  0
 69 74  1  0
 70 66  1  0
 70 74  1  0
 71 70  1  0
 72 73  1  0
 72 71  1  0
 73 69  1  0
 74 75  2  0
 75 76  1  0
 77 76  2  0
 78 77  1  0
 79 53  1  0
 79 80  1  0
 79 89  1  0
 80 83  1  0
 81 85  1  0
 81 80  1  0
 82 81  2  0
 85 84  1  0
 87 85  1  0
 87 88  1  0
 87 86  1  0
 89 92  1  1
 89 90  1  0
 91 89  1  0
M  ISO  4  11 100  19 100  51 101  52 101
M  END
>  <TORSDO>  (96) 
F 22

>  <SCORE>  (96) 
-12.836

>  <name>  (96) 
97

>  <ligand_id>  (96) 
97

>  <original_smiles>  (96) 
[H]c1nc(C([H])([H])C([H])([H])[H])c(C([H])([H])C([H])([H])N([H])C(=O)N2C([H])([H])C([H])([H])C([H])([H])C([H])(n3nc(-c4c([H])c([H])c(Oc5c([H])c([H])c(F)c([H])c5F)c([H])c4[H])c(C(=O)N([H])[H])c3N([H])[H])C2([H])[H])c(C([H])([H])C([H])([H])C([H])([H])Oc2c([H])c([H])c3c(c2[H])C([H])([H])N(C(=O)C([H])(N([H])C(=O)C([H])(N([H])C([H])([H])[H])C([H])([H])[H])C(C([H])([H])[H])(C([H])([H])[H])C([H])([H])[H])C([H])(C(=O)N([H])C2([H])c4c([H])c([H])c([H])c([H])c4C([H])([H])C([H])([H])C2([H])[H])C3([H])[H])n1

>  <smiles>  (96) 
[H]c1nc(C([H])([H])C([H])([H])[H])c(C([H])([H])C([H])([H])N([H])C(=O)N2C([H])([H])C([H])([H])C([H])([H])C([H])(n3nc(-c4c([H])c([H])c(Oc5c([H])c([H])c(F)c([H])c5F)c([H])c4[H])c(C(=O)N([H])[H])c3N([H])[H])C2([H])[H])c(C([H])([H])C([H])([H])C([H])([H])Oc2c([H])c([H])c3c(c2[H])C([H])([H])N(C(=O)C([H])(N([H])C(=O)C([H])(N([H])C([H])([H])[H])C([H])([H])[H])C(C([H])([H])[H])(C([H])([H])[H])C([H])([H])[H])C([H])(C(=O)N([H])C2([H])c4c([H])c([H])c([H])c([H])c4C([H])([H])C([H])([H])C2([H])[H])C3([H])[H])n1

$$$$
98:0:0
     RDKit          3D

 93102  0  0  1  0  0  0  0  0999 V2000
  -29.6740  -20.4390   19.8600 C   0  0  0  0  0  3  0  0  0  0  0  0
  -29.8610  -19.1350   20.3560 C   0  0  0  0  0  0  0  0  0  0  0  0
  -28.9340  -20.1480   18.6610 C   0  0  0  0  0  0  0  0  0  0  0  0
  -30.5220  -18.7520   21.5310 C   0  0  0  0  0  3  0  0  0  0  0  0
  -29.4120  -16.8320   19.7710 C   0  0  0  0  0  3  0  0  0  0  0  0
  -30.1540  -16.5150   20.9590 C   0  0  0  0  0  0  0  0  0  0  0  0
  -28.7270  -18.8270   18.4680 N   0  0  0  0  0  0  0  0  0  0  0  0
  -30.6530  -17.4440   21.8260 N   0  0  0  0  0  0  0  0  0  0  0  0
  -29.3160  -18.1980   19.5250 N   0  0  0  0  0  0  0  0  0  0  0  0
  -30.7750  -14.3220   20.2070 C   0  0  0  0  0  0  0  0  0  0  0  0
  -30.2640  -12.3230   18.8590 C   0  0  0  0  0  2  0  0  0  0  0  0
  -29.2500  -12.6320   17.7440 C   0  0  0  0  0  2  0  0  0  0  0  0
  -27.8100  -12.4810   18.2680 C   0  0  0  0  0  2  0  0  0  0  0  0
  -27.5760  -13.2510   19.5920 C   0  0  0  0  0  3  0  0  0  0  0  0
  -28.6930  -12.9450   20.6140 C   0  0  0  0  0  2  0  0  0  0  0  0
  -29.9980  -13.2280   19.9870 N   0  0  0  0  0  0  0  0  0  0  0  0
  -31.7630  -14.5960   19.5170 O   0  0  0  0  0  0  0  0  0  0  0  0
  -30.8410  -14.7380   22.5670 C   0  0  0  0  0  1  0  0  0  0  0  0
  -30.4000  -15.1310   21.2220 N   0  0  0  0  0  0  0  0  0  0  0  0
  -25.2270  -13.8560   20.4540 C   0  0  0  0  0  0  0  0  0  0  0  0
  -24.1780  -13.0810   20.8700 C   0  0  0  0  0  0  0  0  0  0  0  0
  -24.6300  -11.7280   20.7840 C   0  0  0  0  0  0  0  0  0  0  0  0
  -26.2520  -12.9760   20.1440 N   0  0  0  0  0  0  0  0  0  0  0  0
  -25.8980  -11.6900   20.3980 N   0  0  0  0  0  0  0  0  0  0  0  0
  -23.9110  -10.4650   20.9910 C   0  0  0  0  0  0  0  0  0  0  0  0
  -24.3870   -9.4830   21.8880 C   0  0  0  0  0  3  0  0  0  0  0  0
  -23.6680   -8.2850   22.0830 C   0  0  0  0  0  3  0  0  0  0  0  0
  -22.4600   -8.0600   21.3820 C   0  0  0  0  0  0  0  0  0  0  0  0
  -22.0030   -9.0300   20.4740 C   0  0  0  0  0  3  0  0  0  0  0  0
  -22.7210  -10.2210   20.2760 C   0  0  0  0  0  3  0  0  0  0  0  0
  -21.7080   -6.9150   21.4890 O   0  0  0  0  0  0  0  0  0  0  0  0
  -21.6990   -6.1640   22.6380 C   0  0  0  0  0  0  0  0  0  0  0  0
  -21.3380   -6.7170   23.8860 C   0  0  0  0  0  3  0  0  0  0  0  0
  -21.2750   -5.8940   25.0280 C   0  0  0  0  0  3  0  0  0  0  0  0
  -21.5620   -4.5210   24.9240 C   0  0  0  0  0  0  0  0  0  0  0  0
  -21.9170   -3.9670   23.6820 C   0  0  0  0  0  3  0  0  0  0  0  0
  -21.9820   -4.7870   22.5410 C   0  0  0  0  0  0  0  0  0  0  0  0
  -22.3040   -4.2450   21.3410 F   0  0  0  0  0  0  0  0  0  0  0  0
  -21.4930   -3.7280   26.0200 F   0  0  0  0  0  0  0  0  0  0  0  0
  -22.8020  -13.5570   21.2370 C   0  0  0  0  0  0  0  0  0  0  0  0
  -22.1310  -12.8550   22.1430 N   0  0  0  0  0  0  0  0  0  0  0  0
  -22.3330  -14.5880   20.7550 O   0  0  0  0  0  0  0  0  0  0  0  0
  -22.5250  -12.0210   22.5540 H   0  0  0  0  0  0  0  0  0  0  0  0
  -21.2110  -13.1550   22.4310 H   0  0  0  0  0  0  0  0  0  0  0  0
  -25.3860  -15.2300   20.2960 N   0  0  0  0  0  0  0  0  0  0  0  0
  -24.6280  -15.8840   20.4600 H   0  0  0  0  0  0  0  0  0  0  0  0
  -26.2160  -15.6760   19.9260 H   0  0  0  0  0  0  0  0  0  0  0  0
  -28.3850  -21.0980   17.6240 C   0  0  0  0  0  2  0  0  0  0  0  0
  -28.8740  -22.5530   17.7490 C   0  0  0  0  0  2  0  0  0  0  0  0
  -28.2210  -23.3380   18.9010 C   0  0  0  0  0  2  0  0  0  0  0  0
  -28.6280  -24.8180   18.9190 C   0  0  0  0  0  2  0  0  0  0  0  0
  -28.3910  -25.4520   20.2970 C   0  0  0  0  0  2  0  0  0  0  0  0
  -28.4470  -26.8740   20.2200 O   0  0  0  0  0  0  0  0  0  0  0  0
  -24.5480  -31.9600   23.2400 C   0  0  0  0  0  0  0  0  0  0  0  0
  -27.2460  -27.5460   20.1960 C   0  0  0  0  0  0  0  0  0  0  0  0
  -23.3540  -30.5260   21.6150 C   0  0  0  0  0  3  0  0  0  0  0  0
  -24.8230  -28.9960   20.2020 C   0  0  0  0  0  0  0  0  0  0  0  0
  -25.8720  -30.9240   21.4030 C   0  0  0  0  0  2  0  0  0  0  0  0
  -25.9730  -29.5500   20.7770 C   0  0  0  0  0  0  0  0  0  0  0  0
  -27.1880  -28.8340   20.7680 C   0  0  0  0  0  3  0  0  0  0  0  0
  -26.0770  -26.9990   19.6160 C   0  0  0  0  0  3  0  0  0  0  0  0
  -24.8680  -27.7180   19.6210 C   0  0  0  0  0  3  0  0  0  0  0  0
  -23.5670  -29.8350   20.2430 C   0  0  0  0  0  2  0  0  0  0  0  0
  -24.6090  -31.1520   22.1450 N   0  0  0  0  0  0  0  0  0  0  0  0
  -23.4660  -32.2240   23.7810 O   0  0  0  0  0  0  0  0  0  0  0  0
  -22.7230  -29.5040   22.5880 C   0  0  0  0  0  0  0  0  0  0  0  0
  -21.4010  -29.3000   22.4620 N   0  0  0  0  0  0  0  0  0  0  0  0
  -23.4160  -28.8990   23.4090 O   0  0  0  0  0  0  0  0  0  0  0  0
  -20.9040  -29.8410   21.7690 H   0  0  0  0  0  0  0  0  0  0  0  0
  -18.0460  -28.0590   22.9620 C   0  0  0  0  0  0  0  0  0  0  0  0
  -20.5970  -28.3600   23.2430 C   0  0  0  0  0  3  0  0  0  0  0  0
  -20.7260  -26.9230   22.6860 C   0  0  0  0  0  2  0  0  0  0  0  0
  -19.6330  -26.5690   21.6720 C   0  0  0  0  0  2  0  0  0  0  0  0
  -18.2470  -26.7030   22.3070 C   0  0  0  0  0  2  0  0  0  0  0  0
  -19.1500  -28.8440   23.3870 C   0  0  0  0  0  0  0  0  0  0  0  0
  -18.9110  -30.1140   23.9570 C   0  0  0  0  0  3  0  0  0  0  0  0
  -17.5980  -30.5980   24.1080 C   0  0  0  0  0  3  0  0  0  0  0  0
  -16.5070  -29.8100   23.7010 C   0  0  0  0  0  3  0  0  0  0  0  0
  -16.7320  -28.5430   23.1350 C   0  0  0  0  0  3  0  0  0  0  0  0
  -25.8290  -32.6120   23.8490 C   0  0  0  0  0  3  0  0  0  0  0  0
  -25.5030  -34.0060   24.1740 N   0  0  0  0  0  0  0  0  0  0  0  0
  -25.8120  -35.0580   23.4030 C   0  0  0  0  0  0  0  0  0  0  0  0
  -26.4750  -34.9570   22.3660 O   0  0  0  0  0  0  0  0  0  0  0  0
  -24.9140  -34.1580   24.9790 H   0  0  0  0  0  0  0  0  0  0  0  0
  -24.0480  -36.8150   23.0530 C   0  0  0  0  0  1  0  0  0  0  0  0
  -25.3060  -36.4410   23.8530 C   0  0  0  0  0  3  0  0  0  0  0  0
  -27.4360  -37.3670   24.6460 C   0  0  0  0  0  1  0  0  0  0  0  0
  -26.3180  -37.5110   23.7190 N   0  0  0  0  0  0  0  0  0  0  0  0
  -25.8980  -38.4250   23.8660 H   0  0  0  0  0  0  0  0  0  0  0  0
  -26.3690  -31.8530   25.1230 C   0  0  1  0  0  0  0  0  0  0  0  0
  -25.2870  -31.5960   26.1980 C   0  0  0  0  0  1  0  0  0  0  0  0
  -26.9750  -30.4860   24.7260 C   0  0  0  0  0  1  0  0  0  0  0  0
  -27.5090  -32.6700   25.7760 C   0  0  0  0  0  1  0  0  0  0  0  0
  1  2  2  0
  2  4  1  0
  3  1  1  0
  4  8  2  0
  5  6  2  0
  6 19  1  0
  6  8  1  0
  7  3  2  0
  7  9  1  0
  9  5  1  0
  9  2  1  0
 10 19  1  0
 11 16  1  0
 12 13  1  0
 12 11  1  0
 14 13  1  0
 14 23  1  0
 14 15  1  0
 16 10  1  0
 16 15  1  0
 17 10  2  0
 19 18  1  0
 20 21  2  0
 21 40  1  0
 22 21  1  0
 22 25  1  0
 23 24  1  0
 23 20  1  0
 24 22  2  0
 25 26  1  0
 26 27  2  0
 28 31  1  0
 28 27  1  0
 29 28  2  0
 30 29  1  0
 30 25  2  0
 31 32  1  0
 32 33  1  0
 33 34  2  0
 35 34  1  0
 35 39  1  0
 36 35  2  0
 37 32  2  0
 37 36  1  0
 38 37  1  0
 40 41  1  0
 41 44  1  0
 41 43  1  0
 42 40  2  0
 45 20  1  0
 45 46  1  0
 47 45  1  0
 48 49  1  0
 48  3  1  0
 49 50  1  0
 50 51  1  0
 51 52  1  0
 53 52  1  0
 54 65  2  0
 55 53  1  0
 55 60  1  0
 56 64  1  0
 56 66  1  0
 57 63  1  0
 57 59  1  0
 58 64  1  0
 59 58  1  0
 60 59  2  0
 61 62  1  0
 61 55  2  0
 62 57  2  0
 63 56  1  0
 64 54  1  0
 66 68  2  0
 67 66  1  0
 69 67  1  0
 70 79  2  0
 70 75  1  0
 71 67  1  0
 71 75  1  0
 72 71  1  0
 73 74  1  0
 73 72  1  0
 74 70  1  0
 75 76  2  0
 76 77  1  0
 78 77  2  0
 79 78  1  0
 80 54  1  0
 80 81  1  0
 80 90  1  0
 81 84  1  0
 82 86  1  0
 82 81  1  0
 83 82  2  0
 86 85  1  0
 88 86  1  0
 88 89  1  0
 88 87  1  0
 90 93  1  1
 90 91  1  0
 92 90  1  0
M  ISO  4  10 100  19 100  52 101  53 101
M  END
>  <TORSDO>  (97) 
F 21

>  <SCORE>  (97) 
-12.358

>  <name>  (97) 
98

>  <ligand_id>  (97) 
98

>  <original_smiles>  (97) 
[H]c1c([H])c([H])c2c(c1[H])C([H])([H])C([H])([H])C([H])([H])C2([H])N([H])C(=O)C1([H])N(C(=O)C([H])(N([H])C(=O)C([H])(N([H])C([H])([H])[H])C([H])([H])[H])C(C([H])([H])[H])(C([H])([H])[H])C([H])([H])[H])C([H])([H])c2c([H])c(OC([H])([H])C([H])([H])C([H])([H])C([H])([H])C([H])([H])c3nn4c([H])c(N(C(=O)N5C([H])([H])C([H])([H])C([H])([H])C([H])(n6nc(-c7c([H])c([H])c(Oc8c([H])c([H])c(F)c([H])c8F)c([H])c7[H])c(C(=O)N([H])[H])c6N([H])[H])C5([H])[H])C([H])([H])[H])nc([H])c4c3[H])c([H])c([H])c2C1([H])[H]

>  <smiles>  (97) 
[H]c1c([H])c([H])c2c(c1[H])C([H])([H])C([H])([H])C([H])([H])C2([H])N([H])C(=O)C1([H])N(C(=O)C([H])(N([H])C(=O)C([H])(N([H])C([H])([H])[H])C([H])([H])[H])C(C([H])([H])[H])(C([H])([H])[H])C([H])([H])[H])C([H])([H])c2c([H])c(OC([H])([H])C([H])([H])C([H])([H])C([H])([H])C([H])([H])c3nn4c([H])c(N(C(=O)N5C([H])([H])C([H])([H])C([H])([H])C([H])(n6nc(-c7c([H])c([H])c(Oc8c([H])c([H])c(F)c([H])c8F)c([H])c7[H])c(C(=O)N([H])[H])c6N([H])[H])C5([H])[H])C([H])([H])[H])nc([H])c4c3[H])c([H])c([H])c2C1([H])[H]

$$$$
99:0:0
     RDKit          3D

 91 99  0  0  1  0  0  0  0  0999 V2000
  -29.5370  -22.7720   19.2320 C   0  0  0  0  0  2  0  0  0  0  0  0
  -30.0620  -22.2990   21.7030 C   0  0  0  0  0  2  0  0  0  0  0  0
  -29.5360  -24.2780   19.5630 C   0  0  0  0  0  2  0  0  0  0  0  0
  -30.0000  -23.8010   21.9520 C   0  0  0  0  0  2  0  0  0  0  0  0
  -30.3410  -21.9030   20.2360 C   0  0  0  0  0  3  0  0  0  0  0  0
  -29.0040  -24.4900   20.9960 C   0  0  0  0  0  3  0  0  0  0  0  0
  -29.9670  -20.4220   20.0190 C   0  0  0  0  0  2  0  0  0  0  0  0
  -30.6890  -19.4050   20.9300 C   0  0  0  0  0  2  0  0  0  0  0  0
  -29.9610  -18.0520   20.9930 C   0  0  0  0  0  2  0  0  0  0  0  0
  -30.9050  -16.8420   20.9620 C   0  0  0  0  0  2  0  0  0  0  0  0
  -30.1360  -15.5020   21.1020 C   0  0  0  0  0  2  0  0  0  0  0  0
  -30.7210  -14.3380   20.2810 C   0  0  0  0  0  0  0  0  0  0  0  0
  -30.2790  -12.2610   19.0270 C   0  0  0  0  0  2  0  0  0  0  0  0
  -29.3220  -12.5910   17.8670 C   0  0  0  0  0  2  0  0  0  0  0  0
  -27.8560  -12.4760   18.3300 C   0  0  0  0  0  2  0  0  0  0  0  0
  -27.5860  -13.2500   19.6520 C   0  0  0  0  0  3  0  0  0  0  0  0
  -28.6720  -12.9500   20.7120 C   0  0  0  0  0  2  0  0  0  0  0  0
  -29.9890  -13.2080   20.1110 N   0  0  0  0  0  0  0  0  0  0  0  0
  -31.8110  -14.5010   19.7250 O   0  0  0  0  0  0  0  0  0  0  0  0
  -25.2070  -13.8680   20.4130 C   0  0  0  0  0  0  0  0  0  0  0  0
  -24.1440  -13.0970   20.8070 C   0  0  0  0  0  0  0  0  0  0  0  0
  -24.6000  -11.7450   20.7660 C   0  0  0  0  0  0  0  0  0  0  0  0
  -26.2430  -12.9800   20.1640 N   0  0  0  0  0  0  0  0  0  0  0  0
  -25.8820  -11.7000   20.4310 N   0  0  0  0  0  0  0  0  0  0  0  0
  -23.8740  -10.4860   20.9710 C   0  0  0  0  0  0  0  0  0  0  0  0
  -24.3230   -9.5200   21.8950 C   0  0  0  0  0  3  0  0  0  0  0  0
  -23.5990   -8.3250   22.0940 C   0  0  0  0  0  3  0  0  0  0  0  0
  -22.4100   -8.0890   21.3630 C   0  0  0  0  0  0  0  0  0  0  0  0
  -21.9760   -9.0440   20.4250 C   0  0  0  0  0  3  0  0  0  0  0  0
  -22.7020  -10.2300   20.2270 C   0  0  0  0  0  3  0  0  0  0  0  0
  -21.6520   -6.9470   21.4700 O   0  0  0  0  0  0  0  0  0  0  0  0
  -21.6230   -6.2070   22.6240 C   0  0  0  0  0  0  0  0  0  0  0  0
  -21.2170   -6.7660   23.8560 C   0  0  0  0  0  3  0  0  0  0  0  0
  -21.1280   -5.9530   25.0010 C   0  0  0  0  0  3  0  0  0  0  0  0
  -21.4400   -4.5830   24.9210 C   0  0  0  0  0  0  0  0  0  0  0  0
  -21.8370   -4.0220   23.6940 C   0  0  0  0  0  3  0  0  0  0  0  0
  -21.9250   -4.8320   22.5480 C   0  0  0  0  0  0  0  0  0  0  0  0
  -22.2860   -4.2830   21.3630 F   0  0  0  0  0  0  0  0  0  0  0  0
  -21.3460   -3.7990   26.0210 F   0  0  0  0  0  0  0  0  0  0  0  0
  -22.7580  -13.5800   21.1200 C   0  0  0  0  0  0  0  0  0  0  0  0
  -22.0530  -12.8770   22.0020 N   0  0  0  0  0  0  0  0  0  0  0  0
  -22.3090  -14.6060   20.6170 O   0  0  0  0  0  0  0  0  0  0  0  0
  -22.4430  -12.0490   22.4290 H   0  0  0  0  0  0  0  0  0  0  0  0
  -21.1190  -13.1660   22.2500 H   0  0  0  0  0  0  0  0  0  0  0  0
  -25.3720  -15.2350   20.2230 N   0  0  0  0  0  0  0  0  0  0  0  0
  -24.6180  -15.9060   20.3340 H   0  0  0  0  0  0  0  0  0  0  0  0
  -26.2320  -15.6590   19.8940 H   0  0  0  0  0  0  0  0  0  0  0  0
  -28.7220  -25.9570   21.4300 C   0  0  0  0  0  3  0  0  0  0  0  0
  -27.4460  -27.1170   23.4880 C   0  0  0  0  0  1  0  0  0  0  0  0
  -27.7090  -25.8790   22.6250 C   0  0  0  0  0  2  0  0  0  0  0  0
  -28.3560  -26.6850   20.2410 O   0  0  0  0  0  0  0  0  0  0  0  0
  -24.5620  -31.8720   23.2610 C   0  0  0  0  0  0  0  0  0  0  0  0
  -27.2140  -27.4370   20.2370 C   0  0  0  0  0  0  0  0  0  0  0  0
  -23.3660  -30.4670   21.6160 C   0  0  0  0  0  3  0  0  0  0  0  0
  -24.8270  -28.9240   20.2090 C   0  0  0  0  0  0  0  0  0  0  0  0
  -25.8890  -30.8440   21.4100 C   0  0  0  0  0  2  0  0  0  0  0  0
  -25.9840  -29.4720   20.7780 C   0  0  0  0  0  0  0  0  0  0  0  0
  -27.1900  -28.7460   20.7620 C   0  0  0  0  0  3  0  0  0  0  0  0
  -26.0530  -26.9050   19.6460 C   0  0  0  0  0  3  0  0  0  0  0  0
  -24.8570  -27.6430   19.6330 C   0  0  0  0  0  3  0  0  0  0  0  0
  -23.5790  -29.7750   20.2440 C   0  0  0  0  0  2  0  0  0  0  0  0
  -24.6260  -31.0740   22.1560 N   0  0  0  0  0  0  0  0  0  0  0  0
  -23.4760  -32.1470   23.7930 O   0  0  0  0  0  0  0  0  0  0  0  0
  -22.7070  -29.4470   22.5740 C   0  0  0  0  0  0  0  0  0  0  0  0
  -21.3850  -29.2670   22.4300 N   0  0  0  0  0  0  0  0  0  0  0  0
  -23.3830  -28.8210   23.3940 O   0  0  0  0  0  0  0  0  0  0  0  0
  -20.9060  -29.8230   21.7350 H   0  0  0  0  0  0  0  0  0  0  0  0
  -18.0060  -28.0630   22.8640 C   0  0  0  0  0  0  0  0  0  0  0  0
  -20.5550  -28.3300   23.1870 C   0  0  0  0  0  3  0  0  0  0  0  0
  -20.6760  -26.8980   22.6220 C   0  0  0  0  0  2  0  0  0  0  0  0
  -19.5920  -26.5570   21.5970 C   0  0  0  0  0  2  0  0  0  0  0  0
  -18.2000  -26.7040   22.2150 C   0  0  0  0  0  2  0  0  0  0  0  0
  -19.1120  -28.8330   23.3060 C   0  0  0  0  0  0  0  0  0  0  0  0
  -18.8810  -30.1040   23.8740 C   0  0  0  0  0  3  0  0  0  0  0  0
  -17.5730  -30.6030   24.0130 C   0  0  0  0  0  3  0  0  0  0  0  0
  -16.4780  -29.8280   23.5910 C   0  0  0  0  0  3  0  0  0  0  0  0
  -16.6950  -28.5610   23.0190 C   0  0  0  0  0  3  0  0  0  0  0  0
  -25.8440  -32.5030   23.8890 C   0  0  0  0  0  3  0  0  0  0  0  0
  -25.5440  -33.9060   24.2050 N   0  0  0  0  0  0  0  0  0  0  0  0
  -25.8950  -34.9460   23.4340 C   0  0  0  0  0  0  0  0  0  0  0  0
  -26.5760  -34.8250   22.4120 O   0  0  0  0  0  0  0  0  0  0  0  0
  -24.9500  -34.0880   25.0010 H   0  0  0  0  0  0  0  0  0  0  0  0
  -24.1850  -36.7400   23.0310 C   0  0  0  0  0  1  0  0  0  0  0  0
  -25.4090  -36.3400   23.8710 C   0  0  0  0  0  3  0  0  0  0  0  0
  -27.5340  -37.2110   24.7310 C   0  0  0  0  0  1  0  0  0  0  0  0
  -26.4500  -37.3840   23.7690 N   0  0  0  0  0  0  0  0  0  0  0  0
  -26.0490  -38.3090   23.9020 H   0  0  0  0  0  0  0  0  0  0  0  0
  -26.3570  -31.7350   25.1700 C   0  0  1  0  0  0  0  0  0  0  0  0
  -25.2540  -31.4770   26.2220 C   0  0  0  0  0  1  0  0  0  0  0  0
  -26.9490  -30.3690   24.7690 C   0  0  0  0  0  1  0  0  0  0  0  0
  -27.5060  -32.5260   25.8390 C   0  0  0  0  0  1  0  0  0  0  0  0
  1  3  1  0
  1  5  1  0
  2  4  1  0
  3  6  1  0
  5  7  1  0
  5  2  1  0
  6 48  1  0
  6  4  1  0
  7  8  1  0
  8  9  1  0
 10  9  1  0
 10 11  1  0
 12 11  1  0
 13 18  1  0
 14 15  1  0
 14 13  1  0
 16 15  1  0
 16 23  1  0
 16 17  1  0
 18 12  1  0
 18 17  1  0
 19 12  2  0
 20 21  2  0
 21 40  1  0
 22 21  1  0
 22 25  1  0
 23 20  1  0
 23 24  1  0
 24 22  2  0
 25 26  1  0
 26 27  2  0
 28 31  1  0
 28 27  1  0
 29 28  2  0
 30 29  1  0
 30 25  2  0
 31 32  1  0
 32 33  1  0
 33 34  2  0
 35 34  1  0
 35 39  1  0
 36 35  2  0
 37 32  2  0
 37 36  1  0
 38 37  1  0
 40 41  1  0
 41 44  1  0
 41 43  1  0
 42 40  2  0
 45 46  1  0
 45 20  1  0
 47 45  1  0
 48 50  1  0
 50 49  1  0
 51 48  1  0
 52 63  2  0
 53 51  1  0
 53 58  1  0
 54 62  1  0
 54 64  1  0
 55 61  1  0
 55 57  1  0
 56 62  1  0
 57 56  1  0
 58 57  2  0
 59 53  2  0
 60 59  1  0
 60 55  2  0
 61 54  1  0
 62 52  1  0
 64 66  2  0
 65 64  1  0
 67 65  1  0
 68 77  2  0
 68 73  1  0
 69 65  1  0
 69 73  1  0
 70 69  1  0
 71 72  1  0
 71 70  1  0
 72 68  1  0
 73 74  2  0
 74 75  1  0
 76 75  2  0
 77 76  1  0
 78 52  1  0
 78 79  1  0
 78 88  1  0
 79 82  1  0
 80 84  1  0
 80 79  1  0
 81 80  2  0
 84 83  1  0
 86 84  1  0
 86 87  1  0
 86 85  1  0
 88 91  1  1
 88 89  1  0
 90 88  1  0
M  ISO  4  11 100  12 100  48 101  51 101
M  END
>  <TORSDO>  (98) 
F 23

>  <SCORE>  (98) 
-12.975

>  <name>  (98) 
99

>  <ligand_id>  (98) 
99

>  <original_smiles>  (98) 
[H]c1c([H])c([H])c2c(c1[H])C([H])([H])C([H])([H])C([H])([H])C2([H])N([H])C(=O)C1([H])N(C(=O)C([H])(N([H])C(=O)C([H])(N([H])C([H])([H])[H])C([H])([H])[H])C(C([H])([H])[H])(C([H])([H])[H])C([H])([H])[H])C([H])([H])c2c([H])c(OC([H])(C([H])([H])C([H])([H])[H])C3([H])C([H])([H])C([H])([H])C([H])(C([H])([H])C([H])([H])C([H])([H])C([H])([H])C([H])([H])C(=O)N4C([H])([H])C([H])([H])C([H])([H])C([H])(n5nc(-c6c([H])c([H])c(Oc7c([H])c([H])c(F)c([H])c7F)c([H])c6[H])c(C(=O)N([H])[H])c5N([H])[H])C4([H])[H])C([H])([H])C3([H])[H])c([H])c([H])c2C1([H])[H]

>  <smiles>  (98) 
[H]c1c([H])c([H])c2c(c1[H])C([H])([H])C([H])([H])C([H])([H])C2([H])N([H])C(=O)C1([H])N(C(=O)C([H])(N([H])C(=O)C([H])(N([H])C([H])([H])[H])C([H])([H])[H])C(C([H])([H])[H])(C([H])([H])[H])C([H])([H])[H])C([H])([H])c2c([H])c(OC([H])(C([H])([H])C([H])([H])[H])C3([H])C([H])([H])C([H])([H])C([H])(C([H])([H])C([H])([H])C([H])([H])C([H])([H])C([H])([H])C(=O)N4C([H])([H])C([H])([H])C([H])([H])C([H])(n5nc(-c6c([H])c([H])c(Oc7c([H])c([H])c(F)c([H])c7F)c([H])c6[H])c(C(=O)N([H])[H])c5N([H])[H])C4([H])[H])C([H])([H])C3([H])[H])c([H])c([H])c2C1([H])[H]

$$$$
