0:0:0
     RDKit          3D

 90 98  0  0  1  0  0  0  0  0999 V2000
  -28.9040  -22.4420   19.9360 C   0  0  0  0  0  3  0  0  0  0  0  0
  -30.0390  -24.0550   21.3160 C   0  0  0  0  0  3  0  0  0  0  0  0
  -29.0270  -23.8140   20.3740 C   0  0  0  0  0  0  0  0  0  0  0  0
  -29.7640  -21.3890   20.4250 C   0  0  0  0  0  0  0  0  0  0  0  0
  -30.7360  -21.8080   21.3670 C   0  0  0  0  0  0  0  0  0  0  0  0
  -31.7680  -20.8590   21.9530 C   0  0  0  0  0  1  0  0  0  0  0  0
  -30.8560  -23.0880   21.7970 N   0  0  0  0  0  0  0  0  0  0  0  0
  -29.7790  -19.9180   19.8170 C   0  0  0  0  0  2  0  0  0  0  0  0
  -29.6310  -18.5610   20.6840 C   0  0  0  0  0  3  0  0  0  0  0  0
  -30.2750  -17.2260   20.0510 C   0  0  0  0  0  3  0  0  0  0  0  0
  -30.6260  -14.6830   20.3540 C   0  0  0  0  0  0  0  0  0  0  0  0
  -30.3530  -12.4290   19.3460 C   0  0  0  0  0  2  0  0  0  0  0  0
  -29.4180  -12.5410   18.1220 C   0  0  0  0  0  2  0  0  0  0  0  0
  -27.9460  -12.3940   18.5500 C   0  0  0  0  0  2  0  0  0  0  0  0
  -27.5880  -13.2760   19.7760 C   0  0  0  0  0  3  0  0  0  0  0  0
  -28.6500  -13.1720   20.8950 C   0  0  0  0  0  2  0  0  0  0  0  0
  -29.9570  -13.4840   20.3050 N   0  0  0  0  0  0  0  0  0  0  0  0
  -31.8020  -14.7550   19.9910 O   0  0  0  0  0  0  0  0  0  0  0  0
  -29.9030  -15.8390   20.5570 N   0  0  0  0  0  0  0  0  0  0  0  0
  -28.9450  -15.7080   20.8480 H   0  0  0  0  0  0  0  0  0  0  0  0
  -25.1990  -13.8780   20.4980 C   0  0  0  0  0  0  0  0  0  0  0  0
  -24.1320  -13.1100   20.8730 C   0  0  0  0  0  0  0  0  0  0  0  0
  -24.5920  -11.7580   20.8520 C   0  0  0  0  0  0  0  0  0  0  0  0
  -26.2420  -12.9960   20.2690 N   0  0  0  0  0  0  0  0  0  0  0  0
  -25.8830  -11.7150   20.5460 N   0  0  0  0  0  0  0  0  0  0  0  0
  -23.8620  -10.4990   21.0490 C   0  0  0  0  0  0  0  0  0  0  0  0
  -24.3000   -9.5250   21.9730 C   0  0  0  0  0  3  0  0  0  0  0  0
  -23.5690   -8.3310   22.1590 C   0  0  0  0  0  3  0  0  0  0  0  0
  -22.3850   -8.1030   21.4190 C   0  0  0  0  0  0  0  0  0  0  0  0
  -21.9660   -9.0630   20.4820 C   0  0  0  0  0  3  0  0  0  0  0  0
  -22.6970  -10.2490   20.2960 C   0  0  0  0  0  3  0  0  0  0  0  0
  -21.6250   -6.9610   21.5140 O   0  0  0  0  0  0  0  0  0  0  0  0
  -21.6010   -6.2060   22.6590 C   0  0  0  0  0  0  0  0  0  0  0  0
  -21.2230   -6.7520   23.9060 C   0  0  0  0  0  3  0  0  0  0  0  0
  -21.1440   -5.9230   25.0420 C   0  0  0  0  0  3  0  0  0  0  0  0
  -21.4340   -4.5500   24.9350 C   0  0  0  0  0  0  0  0  0  0  0  0
  -21.8050   -4.0040   23.6940 C   0  0  0  0  0  3  0  0  0  0  0  0
  -21.8860   -4.8290   22.5590 C   0  0  0  0  0  0  0  0  0  0  0  0
  -22.2240   -4.2930   21.3620 F   0  0  0  0  0  0  0  0  0  0  0  0
  -21.3510   -3.7520   26.0250 F   0  0  0  0  0  0  0  0  0  0  0  0
  -22.7350  -13.5910   21.1380 C   0  0  0  0  0  0  0  0  0  0  0  0
  -22.0050  -12.9030   22.0080 N   0  0  0  0  0  0  0  0  0  0  0  0
  -22.2990  -14.6120   20.6080 O   0  0  0  0  0  0  0  0  0  0  0  0
  -22.3740  -12.0790   22.4610 H   0  0  0  0  0  0  0  0  0  0  0  0
  -21.0660  -13.2050   22.2250 H   0  0  0  0  0  0  0  0  0  0  0  0
  -25.3660  -15.2480   20.3070 N   0  0  0  0  0  0  0  0  0  0  0  0
  -24.5960  -15.9010   20.4010 H   0  0  0  0  0  0  0  0  0  0  0  0
  -26.2060  -15.6800   19.9440 H   0  0  0  0  0  0  0  0  0  0  0  0
  -28.0560  -24.9660   19.9000 C   0  0  0  0  0  2  0  0  0  0  0  0
  -28.2930  -26.4070   20.2160 O   0  0  0  0  0  0  0  0  0  0  0  0
  -24.6050  -31.8720   23.2260 C   0  0  0  0  0  0  0  0  0  0  0  0
  -27.1910  -27.2910   20.1460 C   0  0  0  0  0  0  0  0  0  0  0  0
  -23.3900  -30.4770   21.5930 C   0  0  0  0  0  3  0  0  0  0  0  0
  -24.8300  -28.9280   20.1540 C   0  0  0  0  0  0  0  0  0  0  0  0
  -25.9320  -30.7810   21.4010 C   0  0  0  0  0  2  0  0  0  0  0  0
  -26.0050  -29.4040   20.7490 C   0  0  0  0  0  0  0  0  0  0  0  0
  -27.1860  -28.5980   20.7370 C   0  0  0  0  0  3  0  0  0  0  0  0
  -25.9900  -26.8880   19.5110 C   0  0  0  0  0  3  0  0  0  0  0  0
  -24.8270  -27.6770   19.5230 C   0  0  0  0  0  3  0  0  0  0  0  0
  -23.5950  -29.8040   20.2120 C   0  0  0  0  0  2  0  0  0  0  0  0
  -24.6620  -31.0610   22.1290 N   0  0  0  0  0  0  0  0  0  0  0  0
  -23.5240  -32.1520   23.7660 O   0  0  0  0  0  0  0  0  0  0  0  0
  -22.7290  -29.4610   22.5560 C   0  0  0  0  0  0  0  0  0  0  0  0
  -21.4020  -29.2860   22.4310 N   0  0  0  0  0  0  0  0  0  0  0  0
  -23.4070  -28.8350   23.3740 O   0  0  0  0  0  0  0  0  0  0  0  0
  -20.9130  -29.8460   21.7460 H   0  0  0  0  0  0  0  0  0  0  0  0
  -18.0260  -28.0810   22.9290 C   0  0  0  0  0  0  0  0  0  0  0  0
  -20.5820  -28.3500   23.2040 C   0  0  0  0  0  3  0  0  0  0  0  0
  -20.6900  -26.9150   22.6400 C   0  0  0  0  0  2  0  0  0  0  0  0
  -19.5930  -26.5810   21.6250 C   0  0  0  0  0  2  0  0  0  0  0  0
  -18.2080  -26.7270   22.2640 C   0  0  0  0  0  2  0  0  0  0  0  0
  -19.1410  -28.8500   23.3560 C   0  0  0  0  0  0  0  0  0  0  0  0
  -18.9160  -30.1160   23.9390 C   0  0  0  0  0  3  0  0  0  0  0  0
  -17.6090  -30.6130   24.1000 C   0  0  0  0  0  3  0  0  0  0  0  0
  -16.5090  -29.8400   23.6890 C   0  0  0  0  0  3  0  0  0  0  0  0
  -16.7180  -28.5770   23.1070 C   0  0  0  0  0  3  0  0  0  0  0  0
  -25.8910  -32.5020   23.8430 C   0  0  0  0  0  3  0  0  0  0  0  0
  -26.4150  -31.7280   25.1150 C   0  0  1  0  0  0  0  0  0  0  0  0
  -25.3290  -31.4910   26.1910 C   0  0  0  0  0  1  0  0  0  0  0  0
  -26.9920  -30.3490   24.7180 C   0  0  0  0  0  1  0  0  0  0  0  0
  -27.5700  -32.5190   25.7700 C   0  0  0  0  0  1  0  0  0  0  0  0
  -25.5840  -33.9000   24.1800 N   0  0  0  0  0  0  0  0  0  0  0  0
  -25.9080  -34.9550   23.4230 C   0  0  0  0  0  0  0  0  0  0  0  0
  -26.5670  -34.8560   22.3840 O   0  0  0  0  0  0  0  0  0  0  0  0
  -24.9980  -34.0510   24.9880 H   0  0  0  0  0  0  0  0  0  0  0  0
  -24.1720  -36.7490   23.0990 C   0  0  0  0  0  1  0  0  0  0  0  0
  -25.4260  -36.3420   23.8910 C   0  0  0  0  0  3  0  0  0  0  0  0
  -27.5720  -37.2250   24.6940 C   0  0  0  0  0  1  0  0  0  0  0  0
  -26.4560  -37.3970   23.7680 N   0  0  0  0  0  0  0  0  0  0  0  0
  -26.0510  -38.3160   23.9250 H   0  0  0  0  0  0  0  0  0  0  0  0
  1  3  2  0
  1  4  1  0
  2  7  2  0
  3  2  1  0
  4  5  2  0
  5  7  1  0
  5  6  1  0
  8  4  1  0
  8  9  1  0
 10 19  1  0
 10  9  2  0
 11 19  1  0
 12 17  1  0
 13 14  1  0
 13 12  1  0
 15 14  1  0
 15 24  1  0
 15 16  1  0
 17 11  1  0
 17 16  1  0
 18 11  2  0
 19 20  1  0
 21 22  2  0
 22 41  1  0
 23 22  1  0
 23 26  1  0
 24 21  1  0
 24 25  1  0
 25 23  2  0
 26 27  1  0
 27 28  2  0
 29 32  1  0
 29 28  1  0
 30 29  2  0
 31 30  1  0
 31 26  2  0
 32 33  1  0
 33 34  1  0
 34 35  2  0
 36 35  1  0
 36 40  1  0
 37 36  2  0
 38 33  2  0
 38 37  1  0
 39 38  1  0
 41 42  1  0
 42 45  1  0
 42 44  1  0
 43 41  2  0
 46 47  1  0
 46 21  1  0
 48 46  1  0
 49 50  1  0
 49  3  1  0
 51 62  2  0
 52 50  1  0
 52 57  1  0
 53 61  1  0
 53 63  1  0
 54 60  1  0
 54 56  1  0
 55 61  1  0
 56 55  1  0
 57 56  2  0
 58 59  1  0
 58 52  2  0
 59 54  2  0
 60 53  1  0
 61 51  1  0
 63 65  2  0
 64 63  1  0
 66 64  1  0
 67 76  2  0
 67 72  1  0
 68 64  1  0
 68 72  1  0
 69 68  1  0
 70 71  1  0
 70 69  1  0
 71 67  1  0
 72 73  2  0
 73 74  1  0
 75 74  2  0
 76 75  1  0
 77 51  1  0
 77 82  1  0
 77 78  1  0
 78 81  1  1
 78 79  1  0
 80 78  1  0
 82 85  1  0
 83 87  1  0
 83 82  1  0
 84 83  2  0
 87 86  1  0
 89 87  1  0
 89 90  1  0
 89 88  1  0
M  ISO  4  11 100  19 100  49 101  50 101
M  END
>  <TORSDO>  (1) 
F 20

>  <SCORE>  (1) 
-13.843

>  <name>  (1) 
0

>  <ligand_id>  (1) 
0

>  <original_smiles>  (1) 
[H]c1nc(C([H])([H])[H])c(C([H])([H])C([H])([H])C([H])([H])N([H])C(=O)N2C([H])([H])C([H])([H])C([H])([H])C([H])(n3nc(-c4c([H])c([H])c(Oc5c([H])c([H])c(F)c([H])c5F)c([H])c4[H])c(C(=O)N([H])[H])c3N([H])[H])C2([H])[H])c([H])c1C([H])([H])Oc1c([H])c([H])c2c(c1[H])C([H])([H])N(C(=O)C([H])(N([H])C(=O)C([H])(N([H])C([H])([H])[H])C([H])([H])[H])C(C([H])([H])[H])(C([H])([H])[H])C([H])([H])[H])C([H])(C(=O)N([H])C1([H])c3c([H])c([H])c([H])c([H])c3C([H])([H])C([H])([H])C1([H])[H])C2([H])[H]

>  <smiles>  (1) 
[H]c1nc(C([H])([H])[H])c(C([H])([H])C([H])([H])C([H])([H])N([H])C(=O)N2C([H])([H])C([H])([H])C([H])([H])C([H])(n3nc(-c4c([H])c([H])c(Oc5c([H])c([H])c(F)c([H])c5F)c([H])c4[H])c(C(=O)N([H])[H])c3N([H])[H])C2([H])[H])c([H])c1C([H])([H])Oc1c([H])c([H])c2c(c1[H])C([H])([H])N(C(=O)C([H])(N([H])C(=O)C([H])(N([H])C([H])([H])[H])C([H])([H])[H])C(C([H])([H])[H])(C([H])([H])[H])C([H])([H])[H])C([H])(C(=O)N([H])C1([H])c3c([H])c([H])c([H])c([H])c3C([H])([H])C([H])([H])C1([H])[H])C2([H])[H]

$$$$
1:0:0
     RDKit          3D

 94103  0  0  1  0  0  0  0  0999 V2000
  -29.9810  -22.6410   20.9430 C   0  0  0  0  0  2  0  0  0  0  0  0
  -29.2370  -21.9710   18.6360 C   0  0  0  0  0  2  0  0  0  0  0  0
  -29.7880  -24.1280   20.5920 C   0  0  0  0  0  2  0  0  0  0  0  0
  -29.0470  -23.4560   18.2520 C   0  0  0  0  0  2  0  0  0  0  0  0
  -30.3450  -21.8200   19.6930 C   0  0  0  0  0  3  0  0  0  0  0  0
  -28.7490  -24.3600   19.4720 C   0  0  0  0  0  3  0  0  0  0  0  0
  -32.3970  -18.6150   20.1350 C   0  0  0  0  0  3  0  0  0  0  0  0
  -32.0350  -19.9170   19.7550 C   0  0  0  0  0  3  0  0  0  0  0  0
  -31.4400  -17.7950   20.7650 C   0  0  0  0  0  0  0  0  0  0  0  0
  -30.7290  -20.3720   20.0110 C   0  0  0  0  0  0  0  0  0  0  0  0
  -30.1400  -18.3230   20.9590 C   0  0  0  0  0  0  0  0  0  0  0  0
  -29.0480  -17.5170   21.6390 C   0  0  0  0  0  1  0  0  0  0  0  0
  -29.7950  -19.5790   20.5860 N   0  0  0  0  0  0  0  0  0  0  0  0
  -31.8610  -16.4150   21.2760 C   0  0  0  0  0  2  0  0  0  0  0  0
  -31.4550  -14.4260   19.8130 C   0  0  0  0  0  0  0  0  0  0  0  0
  -30.8800  -12.3390   18.6250 C   0  0  0  0  0  2  0  0  0  0  0  0
  -29.8710  -12.6060   17.4920 C   0  0  0  0  0  2  0  0  0  0  0  0
  -28.4260  -12.5660   18.0280 C   0  0  0  0  0  2  0  0  0  0  0  0
  -28.2410  -13.4390   19.2960 C   0  0  0  0  0  3  0  0  0  0  0  0
  -29.3450  -13.1400   20.3320 C   0  0  0  0  0  2  0  0  0  0  0  0
  -30.6540  -13.3360   19.6810 N   0  0  0  0  0  0  0  0  0  0  0  0
  -32.4720  -14.6060   19.1350 O   0  0  0  0  0  0  0  0  0  0  0  0
  -31.0780  -15.2920   20.7620 N   0  0  0  0  0  0  0  0  0  0  0  0
  -30.2350  -15.0520   21.2630 H   0  0  0  0  0  0  0  0  0  0  0  0
  -25.9600  -14.2330   20.1900 C   0  0  0  0  0  0  0  0  0  0  0  0
  -24.8610  -13.5450   20.6260 C   0  0  0  0  0  0  0  0  0  0  0  0
  -25.2000  -12.1590   20.5380 C   0  0  0  0  0  0  0  0  0  0  0  0
  -26.9060  -13.2720   19.8670 N   0  0  0  0  0  0  0  0  0  0  0  0
  -26.4550  -12.0180   20.1300 N   0  0  0  0  0  0  0  0  0  0  0  0
  -24.3860  -10.9580   20.7610 C   0  0  0  0  0  0  0  0  0  0  0  0
  -24.7660   -9.9690   21.6940 C   0  0  0  0  0  3  0  0  0  0  0  0
  -23.9550   -8.8330   21.9010 C   0  0  0  0  0  3  0  0  0  0  0  0
  -22.7500   -8.6780   21.1750 C   0  0  0  0  0  0  0  0  0  0  0  0
  -22.3890   -9.6540   20.2310 C   0  0  0  0  0  3  0  0  0  0  0  0
  -23.2000  -10.7820   20.0210 C   0  0  0  0  0  3  0  0  0  0  0  0
  -21.9120   -7.5950   21.2940 O   0  0  0  0  0  0  0  0  0  0  0  0
  -21.7770   -6.9160   22.4780 C   0  0  0  0  0  0  0  0  0  0  0  0
  -21.3670   -7.5620   23.6650 C   0  0  0  0  0  3  0  0  0  0  0  0
  -21.1730   -6.8120   24.8440 C   0  0  0  0  0  3  0  0  0  0  0  0
  -21.3810   -5.4200   24.8350 C   0  0  0  0  0  0  0  0  0  0  0  0
  -21.7830   -4.7750   23.6530 C   0  0  0  0  0  3  0  0  0  0  0  0
  -21.9790   -5.5200   22.4780 C   0  0  0  0  0  0  0  0  0  0  0  0
  -22.3480   -4.8910   21.3350 F   0  0  0  0  0  0  0  0  0  0  0  0
  -21.1870   -4.6990   25.9640 F   0  0  0  0  0  0  0  0  0  0  0  0
  -23.5340  -14.1300   21.0150 C   0  0  0  0  0  0  0  0  0  0  0  0
  -22.8240  -13.4860   21.9330 N   0  0  0  0  0  0  0  0  0  0  0  0
  -23.1420  -15.1960   20.5380 O   0  0  0  0  0  0  0  0  0  0  0  0
  -23.1520  -12.6210   22.3340 H   0  0  0  0  0  0  0  0  0  0  0  0
  -21.9370  -13.8620   22.2380 H   0  0  0  0  0  0  0  0  0  0  0  0
  -26.2260  -15.5880   20.0210 N   0  0  0  0  0  0  0  0  0  0  0  0
  -25.5200  -16.2980   20.1840 H   0  0  0  0  0  0  0  0  0  0  0  0
  -27.0820  -15.9630   19.6310 H   0  0  0  0  0  0  0  0  0  0  0  0
  -28.7240  -25.8510   19.0700 C   0  0  0  0  0  2  0  0  0  0  0  0
  -28.3800  -26.6950   20.1740 O   0  0  0  0  0  0  0  0  0  0  0  0
  -24.3750  -31.7230   23.2250 C   0  0  0  0  0  0  0  0  0  0  0  0
  -27.1610  -27.3380   20.1780 C   0  0  0  0  0  0  0  0  0  0  0  0
  -23.2230  -30.3000   21.5610 C   0  0  0  0  0  3  0  0  0  0  0  0
  -24.7290  -28.7810   20.1750 C   0  0  0  0  0  0  0  0  0  0  0  0
  -25.7450  -30.7020   21.4110 C   0  0  0  0  0  2  0  0  0  0  0  0
  -25.8650  -29.3310   20.7800 C   0  0  0  0  0  0  0  0  0  0  0  0
  -27.0800  -28.6100   20.7860 C   0  0  0  0  0  3  0  0  0  0  0  0
  -25.9930  -26.7850   19.5990 C   0  0  0  0  0  3  0  0  0  0  0  0
  -24.7850  -27.5050   19.5900 C   0  0  0  0  0  3  0  0  0  0  0  0
  -23.4710  -29.6170   20.1900 C   0  0  0  0  0  2  0  0  0  0  0  0
  -24.4640  -30.9230   22.1250 N   0  0  0  0  0  0  0  0  0  0  0  0
  -23.2790  -31.9790   23.7440 O   0  0  0  0  0  0  0  0  0  0  0  0
  -22.5710  -29.2690   22.5100 C   0  0  0  0  0  0  0  0  0  0  0  0
  -21.2520  -29.0650   22.3590 N   0  0  0  0  0  0  0  0  0  0  0  0
  -23.2500  -28.6550   23.3380 O   0  0  0  0  0  0  0  0  0  0  0  0
  -20.7630  -29.6170   21.6690 H   0  0  0  0  0  0  0  0  0  0  0  0
  -17.8910  -27.8160   22.7860 C   0  0  0  0  0  0  0  0  0  0  0  0
  -20.4370  -28.1140   23.1150 C   0  0  0  0  0  3  0  0  0  0  0  0
  -20.5750  -26.6840   22.5450 C   0  0  0  0  0  2  0  0  0  0  0  0
  -19.5020  -26.3410   21.5060 C   0  0  0  0  0  2  0  0  0  0  0  0
  -18.1040  -26.4690   22.1160 C   0  0  0  0  0  2  0  0  0  0  0  0
  -18.9880  -28.5970   23.2400 C   0  0  0  0  0  0  0  0  0  0  0  0
  -18.7370  -29.8590   23.8200 C   0  0  0  0  0  3  0  0  0  0  0  0
  -17.4210  -30.3420   23.9500 C   0  0  0  0  0  3  0  0  0  0  0  0
  -16.3380  -29.5570   23.5170 C   0  0  0  0  0  3  0  0  0  0  0  0
  -16.5740  -28.2960   22.9400 C   0  0  0  0  0  3  0  0  0  0  0  0
  -25.6380  -32.3770   23.8690 C   0  0  0  0  0  3  0  0  0  0  0  0
  -26.1330  -31.6270   25.1670 C   0  0  1  0  0  0  0  0  0  0  0  0
  -25.0120  -31.3670   26.1990 C   0  0  0  0  0  1  0  0  0  0  0  0
  -26.7630  -30.2630   24.8010 C   0  0  0  0  0  1  0  0  0  0  0  0
  -27.2440  -32.4510   25.8600 C   0  0  0  0  0  1  0  0  0  0  0  0
  -25.3110  -33.7760   24.1710 N   0  0  0  0  0  0  0  0  0  0  0  0
  -25.6510  -34.8190   23.4010 C   0  0  0  0  0  0  0  0  0  0  0  0
  -26.3420  -34.7050   22.3860 O   0  0  0  0  0  0  0  0  0  0  0  0
  -24.6970  -33.9390   24.9570 H   0  0  0  0  0  0  0  0  0  0  0  0
  -23.9120  -36.5860   22.9790 C   0  0  0  0  0  1  0  0  0  0  0  0
  -25.1380  -36.2090   23.8250 C   0  0  0  0  0  3  0  0  0  0  0  0
  -27.2450  -37.1280   24.6880 C   0  0  0  0  0  1  0  0  0  0  0  0
  -26.1620  -37.2710   23.7200 N   0  0  0  0  0  0  0  0  0  0  0  0
  -25.7430  -38.1890   23.8470 H   0  0  0  0  0  0  0  0  0  0  0  0
  2  5  1  0
  3  1  1  0
  4  2  1  0
  4  6  1  0
  5 10  1  0
  5  1  1  0
  6 53  1  0
  6  3  1  0
  7  9  1  0
  8 10  1  0
  8  7  2  0
  9 11  2  0
  9 14  1  0
 10 13  2  0
 11 12  1  0
 13 11  1  0
 15 23  1  0
 16 21  1  0
 17 18  1  0
 17 16  1  0
 19 18  1  0
 19 28  1  0
 19 20  1  0
 21 15  1  0
 21 20  1  0
 22 15  2  0
 23 24  1  0
 23 14  1  0
 25 26  2  0
 26 45  1  0
 27 26  1  0
 27 30  1  0
 28 29  1  0
 28 25  1  0
 29 27  2  0
 30 31  1  0
 31 32  2  0
 33 36  1  0
 33 32  1  0
 34 33  2  0
 35 34  1  0
 35 30  2  0
 36 37  1  0
 37 38  1  0
 38 39  2  0
 40 39  1  0
 40 44  1  0
 41 40  2  0
 42 37  2  0
 42 41  1  0
 43 42  1  0
 45 46  1  0
 46 49  1  0
 46 48  1  0
 47 45  2  0
 50 51  1  0
 50 25  1  0
 52 50  1  0
 53 54  1  0
 54 56  1  0
 55 66  2  0
 56 61  1  0
 57 65  1  0
 57 67  1  0
 58 64  1  0
 58 60  1  0
 59 65  1  0
 60 61  2  0
 60 59  1  0
 62 56  2  0
 63 62  1  0
 63 58  2  0
 64 57  1  0
 65 55  1  0
 67 69  2  0
 68 67  1  0
 70 68  1  0
 71 80  2  0
 71 76  1  0
 72 68  1  0
 72 76  1  0
 73 72  1  0
 74 75  1  0
 74 73  1  0
 75 71  1  0
 76 77  2  0
 77 78  1  0
 79 78  2  0
 80 79  1  0
 81 55  1  0
 81 86  1  0
 81 82  1  0
 82 85  1  1
 82 83  1  0
 84 82  1  0
 86 89  1  0
 87 91  1  0
 87 86  1  0
 88 87  2  0
 91 90  1  0
 93 91  1  0
 93 94  1  0
 93 92  1  0
M  ISO  4  15 100  23 100  53 101  54 101
M  END
>  <TORSDO>  (2) 
F 19

>  <SCORE>  (2) 
-12.307

>  <name>  (2) 
1

>  <ligand_id>  (2) 
1

>  <original_smiles>  (2) 
[H]c1c(C2([H])C([H])([H])C([H])([H])C([H])(C([H])([H])Oc3c([H])c([H])c4c(c3[H])C([H])([H])N(C(=O)C([H])(N([H])C(=O)C([H])(N([H])C([H])([H])[H])C([H])([H])[H])C(C([H])([H])[H])(C([H])([H])[H])C([H])([H])[H])C([H])(C(=O)N([H])C3([H])c5c([H])c([H])c([H])c([H])c5C([H])([H])C([H])([H])C3([H])[H])C4([H])[H])C([H])([H])C2([H])[H])nc(C([H])([H])[H])c(C([H])([H])N([H])C(=O)N2C([H])([H])C([H])([H])C([H])([H])C([H])(n3nc(-c4c([H])c([H])c(Oc5c([H])c([H])c(F)c([H])c5F)c([H])c4[H])c(C(=O)N([H])[H])c3N([H])[H])C2([H])[H])c1[H]

>  <smiles>  (2) 
[H]c1c(C2([H])C([H])([H])C([H])([H])C([H])(C([H])([H])Oc3c([H])c([H])c4c(c3[H])C([H])([H])N(C(=O)C([H])(N([H])C(=O)C([H])(N([H])C([H])([H])[H])C([H])([H])[H])C(C([H])([H])[H])(C([H])([H])[H])C([H])([H])[H])C([H])(C(=O)N([H])C3([H])c5c([H])c([H])c([H])c([H])c5C([H])([H])C([H])([H])C3([H])[H])C4([H])[H])C([H])([H])C2([H])[H])nc(C([H])([H])[H])c(C([H])([H])N([H])C(=O)N2C([H])([H])C([H])([H])C([H])([H])C([H])(n3nc(-c4c([H])c([H])c(Oc5c([H])c([H])c(F)c([H])c5F)c([H])c4[H])c(C(=O)N([H])[H])c3N([H])[H])C2([H])[H])c1[H]

$$$$
2:0:0
     RDKit          3D

 91 99  0  0  1  0  0  0  0  0999 V2000
  -29.7550  -23.9360   18.9630 C   0  0  0  0  0  3  0  0  0  0  0  0
  -28.9350  -22.4630   20.7110 C   0  0  0  0  0  3  0  0  0  0  0  0
  -28.9550  -23.7830   20.1120 C   0  0  0  0  0  0  0  0  0  0  0  0
  -30.5160  -22.8570   18.4480 C   0  0  0  0  0  0  0  0  0  0  0  0
  -29.6950  -21.3350   20.2100 C   0  0  0  0  0  0  0  0  0  0  0  0
  -30.4960  -21.5790   19.0660 C   0  0  0  0  0  0  0  0  0  0  0  0
  -31.4030  -23.0960   17.2370 C   0  0  0  0  0  1  0  0  0  0  0  0
  -31.5260  -20.3280   18.4500 Cl  0  0  0  0  0  0  0  0  0  0  0  0
  -29.8470  -19.9540   20.9810 C   0  0  0  0  0  2  0  0  0  0  0  0
  -29.4660  -18.5120   20.3620 C   0  0  0  0  0  3  0  0  0  0  0  0
  -30.3740  -17.2530   20.7990 C   0  0  0  0  0  3  0  0  0  0  0  0
  -30.6030  -14.6910   20.3730 C   0  0  0  0  0  0  0  0  0  0  0  0
  -30.3420  -12.4410   19.3360 C   0  0  0  0  0  2  0  0  0  0  0  0
  -29.4080  -12.5680   18.1160 C   0  0  0  0  0  2  0  0  0  0  0  0
  -27.9420  -12.3850   18.5570 C   0  0  0  0  0  2  0  0  0  0  0  0
  -27.5810  -13.2620   19.7870 C   0  0  0  0  0  3  0  0  0  0  0  0
  -28.6440  -13.1610   20.9010 C   0  0  0  0  0  2  0  0  0  0  0  0
  -29.9440  -13.4890   20.2990 N   0  0  0  0  0  0  0  0  0  0  0  0
  -31.7860  -14.7800   20.0340 O   0  0  0  0  0  0  0  0  0  0  0  0
  -29.8700  -15.8270   20.6410 N   0  0  0  0  0  0  0  0  0  0  0  0
  -28.8950  -15.6670   20.8450 H   0  0  0  0  0  0  0  0  0  0  0  0
  -25.1970  -13.8570   20.5280 C   0  0  0  0  0  0  0  0  0  0  0  0
  -24.1340  -13.0830   20.9060 C   0  0  0  0  0  0  0  0  0  0  0  0
  -24.5990  -11.7320   20.8740 C   0  0  0  0  0  0  0  0  0  0  0  0
  -26.2390  -12.9770   20.2850 N   0  0  0  0  0  0  0  0  0  0  0  0
  -25.8860  -11.6940   20.5550 N   0  0  0  0  0  0  0  0  0  0  0  0
  -23.8760  -10.4680   21.0680 C   0  0  0  0  0  0  0  0  0  0  0  0
  -24.3230   -9.4930   21.9850 C   0  0  0  0  0  3  0  0  0  0  0  0
  -23.5980   -8.2960   22.1670 C   0  0  0  0  0  3  0  0  0  0  0  0
  -22.4120   -8.0650   21.4310 C   0  0  0  0  0  0  0  0  0  0  0  0
  -21.9840   -9.0290   20.5010 C   0  0  0  0  0  3  0  0  0  0  0  0
  -22.7100  -10.2170   20.3170 C   0  0  0  0  0  3  0  0  0  0  0  0
  -21.6570   -6.9200   21.5250 O   0  0  0  0  0  0  0  0  0  0  0  0
  -21.6380   -6.1600   22.6660 C   0  0  0  0  0  0  0  0  0  0  0  0
  -21.2590   -6.7000   23.9150 C   0  0  0  0  0  3  0  0  0  0  0  0
  -21.1870   -5.8660   25.0490 C   0  0  0  0  0  3  0  0  0  0  0  0
  -21.4850   -4.4950   24.9360 C   0  0  0  0  0  0  0  0  0  0  0  0
  -21.8570   -3.9550   23.6920 C   0  0  0  0  0  3  0  0  0  0  0  0
  -21.9290   -4.7840   22.5600 C   0  0  0  0  0  0  0  0  0  0  0  0
  -22.2670   -4.2550   21.3600 F   0  0  0  0  0  0  0  0  0  0  0  0
  -21.4090   -3.6920   26.0220 F   0  0  0  0  0  0  0  0  0  0  0  0
  -22.7380  -13.5580   21.1850 C   0  0  0  0  0  0  0  0  0  0  0  0
  -22.0150  -12.8610   22.0540 N   0  0  0  0  0  0  0  0  0  0  0  0
  -22.2980  -14.5830   20.6670 O   0  0  0  0  0  0  0  0  0  0  0  0
  -22.3850  -12.0310   22.4940 H   0  0  0  0  0  0  0  0  0  0  0  0
  -21.0760  -13.1580   22.2790 H   0  0  0  0  0  0  0  0  0  0  0  0
  -25.3600  -15.2280   20.3470 N   0  0  0  0  0  0  0  0  0  0  0  0
  -24.5910  -15.8820   20.4460 H   0  0  0  0  0  0  0  0  0  0  0  0
  -26.2040  -15.6620   19.9980 H   0  0  0  0  0  0  0  0  0  0  0  0
  -28.1140  -25.0120   20.6620 C   0  0  0  0  0  2  0  0  0  0  0  0
  -28.3370  -26.4120   20.1720 O   0  0  0  0  0  0  0  0  0  0  0  0
  -24.6430  -31.8810   23.2180 C   0  0  0  0  0  0  0  0  0  0  0  0
  -27.2320  -27.2890   20.1710 C   0  0  0  0  0  0  0  0  0  0  0  0
  -23.4270  -30.4800   21.5880 C   0  0  0  0  0  3  0  0  0  0  0  0
  -24.8680  -28.9180   20.1620 C   0  0  0  0  0  0  0  0  0  0  0  0
  -25.9670  -30.7910   21.3850 C   0  0  0  0  0  2  0  0  0  0  0  0
  -26.0430  -29.4070   20.7470 C   0  0  0  0  0  0  0  0  0  0  0  0
  -27.2300  -28.6060   20.7380 C   0  0  0  0  0  3  0  0  0  0  0  0
  -26.0330  -26.8620   19.5610 C   0  0  0  0  0  3  0  0  0  0  0  0
  -24.8650  -27.6490   19.5620 C   0  0  0  0  0  3  0  0  0  0  0  0
  -23.6340  -29.7960   20.2100 C   0  0  0  0  0  2  0  0  0  0  0  0
  -24.6990  -31.0700   22.1190 N   0  0  0  0  0  0  0  0  0  0  0  0
  -23.5640  -32.1600   23.7600 O   0  0  0  0  0  0  0  0  0  0  0  0
  -22.7670  -29.4680   22.5570 C   0  0  0  0  0  0  0  0  0  0  0  0
  -21.4410  -29.2950   22.4420 N   0  0  0  0  0  0  0  0  0  0  0  0
  -23.4520  -28.8430   23.3730 O   0  0  0  0  0  0  0  0  0  0  0  0
  -20.9470  -29.8520   21.7600 H   0  0  0  0  0  0  0  0  0  0  0  0
  -18.0640  -28.0980   22.9670 C   0  0  0  0  0  0  0  0  0  0  0  0
  -20.6250  -28.3610   23.2210 C   0  0  0  0  0  3  0  0  0  0  0  0
  -20.7250  -26.9260   22.6520 C   0  0  0  0  0  2  0  0  0  0  0  0
  -19.6180  -26.6000   21.6440 C   0  0  0  0  0  2  0  0  0  0  0  0
  -18.2380  -26.7470   22.2940 C   0  0  0  0  0  2  0  0  0  0  0  0
  -19.1860  -28.8620   23.3880 C   0  0  0  0  0  0  0  0  0  0  0  0
  -18.9690  -30.1260   23.9750 C   0  0  0  0  0  3  0  0  0  0  0  0
  -17.6650  -30.6280   24.1470 C   0  0  0  0  0  3  0  0  0  0  0  0
  -16.5590  -29.8610   23.7430 C   0  0  0  0  0  3  0  0  0  0  0  0
  -16.7590  -28.5980   23.1590 C   0  0  0  0  0  3  0  0  0  0  0  0
  -25.9310  -32.5150   23.8300 C   0  0  0  0  0  3  0  0  0  0  0  0
  -26.4620  -31.7400   25.0970 C   0  0  1  0  0  0  0  0  0  0  0  0
  -25.3810  -31.4970   26.1750 C   0  0  0  0  0  1  0  0  0  0  0  0
  -27.0420  -30.3650   24.6920 C   0  0  0  0  0  1  0  0  0  0  0  0
  -27.6180  -32.5330   25.7520 C   0  0  0  0  0  1  0  0  0  0  0  0
  -25.6210  -33.9110   24.1720 N   0  0  0  0  0  0  0  0  0  0  0  0
  -25.9360  -34.9700   23.4130 C   0  0  0  0  0  0  0  0  0  0  0  0
  -26.5890  -34.8750   22.3690 O   0  0  0  0  0  0  0  0  0  0  0  0
  -25.0530  -34.0600   24.9910 H   0  0  0  0  0  0  0  0  0  0  0  0
  -24.1930  -36.7560   23.0940 C   0  0  0  0  0  1  0  0  0  0  0  0
  -25.4480  -36.3540   23.8850 C   0  0  0  0  0  3  0  0  0  0  0  0
  -27.5940  -37.2420   24.6850 C   0  0  0  0  0  1  0  0  0  0  0  0
  -26.4750  -37.4130   23.7620 N   0  0  0  0  0  0  0  0  0  0  0  0
  -26.0670  -38.3290   23.9230 H   0  0  0  0  0  0  0  0  0  0  0  0
  1  3  1  0
  3 50  1  0
  3  2  2  0
  4  1  2  0
  4  6  1  0
  5  2  1  0
  5  9  1  0
  6  5  2  0
  7  4  1  0
  8  6  1  0
 10 11  2  0
 10  9  1  0
 12 20  1  0
 13 18  1  0
 14 15  1  0
 14 13  1  0
 16 15  1  0
 16 25  1  0
 16 17  1  0
 18 12  1  0
 18 17  1  0
 19 12  2  0
 20 11  1  0
 20 21  1  0
 22 23  2  0
 23 42  1  0
 24 23  1  0
 24 27  1  0
 25 22  1  0
 25 26  1  0
 26 24  2  0
 27 28  1  0
 28 29  2  0
 30 33  1  0
 30 29  1  0
 31 30  2  0
 32 31  1  0
 32 27  2  0
 33 34  1  0
 34 35  1  0
 35 36  2  0
 37 36  1  0
 37 41  1  0
 38 37  2  0
 39 34  2  0
 39 38  1  0
 40 39  1  0
 42 43  1  0
 43 46  1  0
 43 45  1  0
 44 42  2  0
 47 48  1  0
 47 22  1  0
 49 47  1  0
 51 50  1  0
 52 63  2  0
 53 51  1  0
 53 58  1  0
 54 62  1  0
 54 64  1  0
 55 61  1  0
 55 57  1  0
 56 62  1  0
 57 56  1  0
 58 57  2  0
 59 60  1  0
 59 53  2  0
 60 55  2  0
 61 54  1  0
 62 52  1  0
 64 66  2  0
 65 64  1  0
 67 65  1  0
 68 77  2  0
 68 73  1  0
 69 65  1  0
 69 73  1  0
 70 69  1  0
 71 72  1  0
 71 70  1  0
 72 68  1  0
 73 74  2  0
 74 75  1  0
 76 75  2  0
 77 76  1  0
 78 52  1  0
 78 83  1  0
 78 79  1  0
 79 82  1  1
 79 80  1  0
 81 79  1  0
 83 86  1  0
 84 88  1  0
 84 83  1  0
 85 84  2  0
 88 87  1  0
 90 88  1  0
 90 91  1  0
 90 89  1  0
M  ISO  4  12 100  20 100  50 101  51 101
M  END
>  <TORSDO>  (3) 
F 20

>  <SCORE>  (3) 
-13.734

>  <name>  (3) 
2

>  <ligand_id>  (3) 
2

>  <original_smiles>  (3) 
[H]c1c([H])c([H])c2c(c1[H])C([H])([H])C([H])([H])C([H])([H])C2([H])N([H])C(=O)C1([H])N(C(=O)C([H])(N([H])C(=O)C([H])(N([H])C([H])([H])[H])C([H])([H])[H])C(C([H])([H])[H])(C([H])([H])[H])C([H])([H])[H])C([H])([H])c2c([H])c(OC([H])([H])c3c([H])c(C([H])([H])[H])c(Cl)c(C([H])([H])C([H])([H])C([H])([H])N([H])C(=O)N4C([H])([H])C([H])([H])C([H])([H])C([H])(n5nc(-c6c([H])c([H])c(Oc7c([H])c([H])c(F)c([H])c7F)c([H])c6[H])c(C(=O)N([H])[H])c5N([H])[H])C4([H])[H])c3[H])c([H])c([H])c2C1([H])[H]

>  <smiles>  (3) 
[H]c1c([H])c([H])c2c(c1[H])C([H])([H])C([H])([H])C([H])([H])C2([H])N([H])C(=O)C1([H])N(C(=O)C([H])(N([H])C(=O)C([H])(N([H])C([H])([H])[H])C([H])([H])[H])C(C([H])([H])[H])(C([H])([H])[H])C([H])([H])[H])C([H])([H])c2c([H])c(OC([H])([H])c3c([H])c(C([H])([H])[H])c(Cl)c(C([H])([H])C([H])([H])C([H])([H])N([H])C(=O)N4C([H])([H])C([H])([H])C([H])([H])C([H])(n5nc(-c6c([H])c([H])c(Oc7c([H])c([H])c(F)c([H])c7F)c([H])c6[H])c(C(=O)N([H])[H])c5N([H])[H])C4([H])[H])c3[H])c([H])c([H])c2C1([H])[H]

$$$$
3:0:0
     RDKit          3D

 92100  0  0  1  0  0  0  0  0999 V2000
  -30.8340  -23.3460   21.5890 C   0  0  0  0  0  3  0  0  0  0  0  0
  -28.9620  -22.4040   20.3880 C   0  0  0  0  0  3  0  0  0  0  0  0
  -29.7810  -23.5160   20.6690 C   0  0  0  0  0  0  0  0  0  0  0  0
  -31.0160  -22.0910   22.1960 C   0  0  0  0  0  0  0  0  0  0  0  0
  -29.2290  -21.1790   21.0300 C   0  0  0  0  0  0  0  0  0  0  0  0
  -32.1700  -21.8440   23.1440 C   0  0  0  0  0  1  0  0  0  0  0  0
  -30.2190  -21.0330   21.9390 N   0  0  0  0  0  0  0  0  0  0  0  0
  -29.5950  -24.8420   19.9490 C   0  0  0  0  0  2  0  0  0  0  0  0
  -29.0930  -25.9740   20.8620 C   0  0  0  0  0  2  0  0  0  0  0  0
  -29.0210  -27.1770   20.1020 O   0  0  0  0  0  0  0  0  0  0  0  0
  -24.7590  -31.6850   23.5870 C   0  0  0  0  0  0  0  0  0  0  0  0
  -27.8170  -27.8280   20.1640 C   0  0  0  0  0  0  0  0  0  0  0  0
  -23.7360  -30.4780   21.6840 C   0  0  0  0  0  3  0  0  0  0  0  0
  -25.3590  -29.2010   20.1880 C   0  0  0  0  0  0  0  0  0  0  0  0
  -26.2470  -30.9640   21.7260 C   0  0  0  0  0  2  0  0  0  0  0  0
  -26.4410  -29.6930   20.9280 C   0  0  0  0  0  0  0  0  0  0  0  0
  -27.6770  -29.0100   20.9200 C   0  0  0  0  0  3  0  0  0  0  0  0
  -26.7250  -27.3370   19.4240 C   0  0  0  0  0  3  0  0  0  0  0  0
  -25.4910  -28.0200   19.4360 C   0  0  0  0  0  3  0  0  0  0  0  0
  -24.0740  -29.9970   20.2470 C   0  0  0  0  0  2  0  0  0  0  0  0
  -24.9270  -31.0490   22.3950 N   0  0  0  0  0  0  0  0  0  0  0  0
  -23.6300  -31.8440   24.0740 O   0  0  0  0  0  0  0  0  0  0  0  0
  -23.0670  -29.3160   22.4480 C   0  0  0  0  0  0  0  0  0  0  0  0
  -21.7690  -29.0940   22.1820 N   0  0  0  0  0  0  0  0  0  0  0  0
  -23.7140  -28.6190   23.2330 O   0  0  0  0  0  0  0  0  0  0  0  0
  -21.3090  -29.7130   21.5290 H   0  0  0  0  0  0  0  0  0  0  0  0
  -18.4280  -27.7280   22.2440 C   0  0  0  0  0  0  0  0  0  0  0  0
  -20.9440  -28.0310   22.7510 C   0  0  0  0  0  3  0  0  0  0  0  0
  -21.1540  -26.6980   21.9970 C   0  0  0  0  0  2  0  0  0  0  0  0
  -20.1460  -26.4830   20.8640 C   0  0  0  0  0  2  0  0  0  0  0  0
  -18.7150  -26.4900   21.4080 C   0  0  0  0  0  2  0  0  0  0  0  0
  -19.4760  -28.4590   22.8610 C   0  0  0  0  0  0  0  0  0  0  0  0
  -19.1590  -29.6230   23.5960 C   0  0  0  0  0  3  0  0  0  0  0  0
  -17.8240  -30.0520   23.7230 C   0  0  0  0  0  3  0  0  0  0  0  0
  -16.7890  -29.3130   23.1230 C   0  0  0  0  0  3  0  0  0  0  0  0
  -17.0920  -28.1530   22.3880 C   0  0  0  0  0  3  0  0  0  0  0  0
  -25.9680  -32.2690   24.3830 C   0  0  0  0  0  3  0  0  0  0  0  0
  -25.6290  -33.6500   24.7450 N   0  0  0  0  0  0  0  0  0  0  0  0
  -26.0510  -34.7350   24.0830 C   0  0  0  0  0  0  0  0  0  0  0  0
  -26.8360  -34.6750   23.1310 O   0  0  0  0  0  0  0  0  0  0  0  0
  -24.9420  -33.7700   25.4750 H   0  0  0  0  0  0  0  0  0  0  0  0
  -24.3940  -36.5670   23.6160 C   0  0  0  0  0  1  0  0  0  0  0  0
  -25.5220  -36.1030   24.5520 C   0  0  0  0  0  3  0  0  0  0  0  0
  -27.5350  -36.9230   25.6930 C   0  0  0  0  0  1  0  0  0  0  0  0
  -26.5690  -37.1460   24.6210 N   0  0  0  0  0  0  0  0  0  0  0  0
  -26.1520  -38.0640   24.7540 H   0  0  0  0  0  0  0  0  0  0  0  0
  -26.3340  -31.4270   25.6640 C   0  0  1  0  0  0  0  0  0  0  0  0
  -25.1200  -31.1180   26.5720 C   0  0  0  0  0  1  0  0  0  0  0  0
  -26.9830  -30.0790   25.2660 C   0  0  0  0  0  1  0  0  0  0  0  0
  -27.3820  -32.1860   26.5090 C   0  0  0  0  0  1  0  0  0  0  0  0
  -28.4940  -19.9090   20.6330 C   0  0  0  0  0  2  0  0  0  0  0  0
  -29.4980  -18.8670   20.1080 C   0  0  0  0  0  2  0  0  0  0  0  0
  -28.9780  -17.4280   19.9900 C   0  0  0  0  0  2  0  0  0  0  0  0
  -30.1620  -16.4730   19.7590 C   0  0  0  0  0  2  0  0  0  0  0  0
  -30.4940  -14.0420   19.5050 C   0  0  0  0  0  0  0  0  0  0  0  0
  -30.3440  -11.6410   18.9780 C   0  0  0  0  0  2  0  0  0  0  0  0
  -29.3200  -11.4220   17.8490 C   0  0  0  0  0  2  0  0  0  0  0  0
  -27.8910  -11.2990   18.4160 C   0  0  0  0  0  2  0  0  0  0  0  0
  -27.5450  -12.4340   19.4170 C   0  0  0  0  0  3  0  0  0  0  0  0
  -28.6710  -12.5940   20.4610 C   0  0  0  0  0  2  0  0  0  0  0  0
  -29.9320  -12.8300   19.7350 N   0  0  0  0  0  0  0  0  0  0  0  0
  -31.5050  -14.2060   18.8130 O   0  0  0  0  0  0  0  0  0  0  0  0
  -29.8210  -15.0810   20.0160 N   0  0  0  0  0  0  0  0  0  0  0  0
  -28.9950  -14.8790   20.5600 H   0  0  0  0  0  0  0  0  0  0  0  0
  -25.3150  -13.1280   20.5080 C   0  0  0  0  0  0  0  0  0  0  0  0
  -24.2540  -12.3920   20.9640 C   0  0  0  0  0  0  0  0  0  0  0  0
  -24.6040  -11.0230   20.7550 C   0  0  0  0  0  0  0  0  0  0  0  0
  -26.2500  -12.2080   20.0570 N   0  0  0  0  0  0  0  0  0  0  0  0
  -25.8320  -10.9310   20.2600 N   0  0  0  0  0  0  0  0  0  0  0  0
  -23.8220   -9.7940   20.9410 C   0  0  0  0  0  0  0  0  0  0  0  0
  -24.2020   -8.8160   21.8840 C   0  0  0  0  0  3  0  0  0  0  0  0
  -23.4260   -7.6510   22.0590 C   0  0  0  0  0  3  0  0  0  0  0  0
  -22.2540   -7.4580   21.2910 C   0  0  0  0  0  0  0  0  0  0  0  0
  -21.8920   -8.4230   20.3360 C   0  0  0  0  0  3  0  0  0  0  0  0
  -22.6690   -9.5800   20.1600 C   0  0  0  0  0  3  0  0  0  0  0  0
  -21.4520   -6.3450   21.3740 O   0  0  0  0  0  0  0  0  0  0  0  0
  -21.2360   -5.7010   22.5660 C   0  0  0  0  0  0  0  0  0  0  0  0
  -20.6220   -6.3450   23.6620 C   0  0  0  0  0  3  0  0  0  0  0  0
  -20.3570   -5.6250   24.8430 C   0  0  0  0  0  3  0  0  0  0  0  0
  -20.6940   -4.2610   24.9280 C   0  0  0  0  0  0  0  0  0  0  0  0
  -21.2990   -3.6160   23.8350 C   0  0  0  0  0  3  0  0  0  0  0  0
  -21.5660   -4.3340   22.6560 C   0  0  0  0  0  0  0  0  0  0  0  0
  -22.1300   -3.7020   21.5990 F   0  0  0  0  0  0  0  0  0  0  0  0
  -20.4320   -3.5660   26.0600 F   0  0  0  0  0  0  0  0  0  0  0  0
  -22.9450  -12.9250   21.4720 C   0  0  0  0  0  0  0  0  0  0  0  0
  -22.2950  -12.1960   22.3720 N   0  0  0  0  0  0  0  0  0  0  0  0
  -22.5170  -14.0200   21.1110 O   0  0  0  0  0  0  0  0  0  0  0  0
  -22.6580  -11.3080   22.6880 H   0  0  0  0  0  0  0  0  0  0  0  0
  -21.4190  -12.5280   22.7510 H   0  0  0  0  0  0  0  0  0  0  0  0
  -25.5540  -14.4960   20.4200 N   0  0  0  0  0  0  0  0  0  0  0  0
  -24.8620  -15.1860   20.6910 H   0  0  0  0  0  0  0  0  0  0  0  0
  -26.3820  -14.9060   20.0070 H   0  0  0  0  0  0  0  0  0  0  0  0
  1  4  1  0
  2  3  1  0
  2  5  2  0
  3  1  2  0
  4  6  1  0
  5  7  1  0
  7  4  2  0
  8  3  1  0
  8  9  1  0
 10 12  1  0
 10  9  1  0
 11 22  2  0
 12 17  1  0
 13 21  1  0
 13 23  1  0
 14 20  1  0
 14 16  1  0
 15 21  1  0
 16 15  1  0
 17 16  2  0
 18 19  1  0
 18 12  2  0
 19 14  2  0
 20 13  1  0
 21 11  1  0
 23 25  2  0
 24 23  1  0
 26 24  1  0
 27 36  2  0
 27 32  1  0
 28 24  1  0
 28 32  1  0
 29 28  1  0
 30 31  1  0
 30 29  1  0
 31 27  1  0
 32 33  2  0
 33 34  1  0
 35 34  2  0
 36 35  1  0
 37 11  1  0
 37 38  1  0
 37 47  1  0
 38 41  1  0
 39 43  1  0
 39 38  1  0
 40 39  2  0
 43 42  1  0
 43 45  1  0
 45 46  1  0
 45 44  1  0
 47 50  1  1
 47 48  1  0
 49 47  1  0
 51  5  1  0
 52 51  1  0
 53 52  1  0
 54 53  1  0
 54 63  1  0
 55 61  1  0
 55 63  1  0
 56 61  1  0
 57 58  1  0
 57 56  1  0
 59 58  1  0
 59 68  1  0
 59 60  1  0
 61 60  1  0
 62 55  2  0
 63 64  1  0
 65 66  2  0
 66 85  1  0
 67 70  1  0
 67 66  1  0
 68 69  1  0
 68 65  1  0
 69 67  2  0
 70 71  1  0
 71 72  2  0
 73 76  1  0
 73 72  1  0
 74 73  2  0
 75 74  1  0
 75 70  2  0
 76 77  1  0
 77 82  2  0
 77 78  1  0
 78 79  2  0
 79 80  1  0
 80 84  1  0
 81 80  2  0
 82 81  1  0
 83 82  1  0
 85 86  1  0
 86 88  1  0
 86 89  1  0
 87 85  2  0
 90 65  1  0
 90 91  1  0
 92 90  1  0
M  ISO  4   9 101  10 101  55 100  63 100
M  END
>  <TORSDO>  (4) 
F 22

>  <SCORE>  (4) 
-9.595

>  <name>  (4) 
3

>  <ligand_id>  (4) 
3

>  <original_smiles>  (4) 
[H]c1c([H])c([H])c2c(c1[H])C([H])([H])C([H])([H])C([H])([H])C2([H])N([H])C(=O)C1([H])N(C(=O)C([H])(N([H])C(=O)C([H])(N([H])C([H])([H])[H])C([H])([H])[H])C(C([H])([H])[H])(C([H])([H])[H])C([H])([H])[H])C([H])([H])c2c([H])c(OC([H])([H])C([H])([H])c3c([H])c(C([H])([H])[H])nc(C([H])([H])C([H])([H])C([H])([H])C([H])([H])N([H])C(=O)N4C([H])([H])C([H])([H])C([H])([H])C([H])(n5nc(-c6c([H])c([H])c(Oc7c([H])c([H])c(F)c([H])c7F)c([H])c6[H])c(C(=O)N([H])[H])c5N([H])[H])C4([H])[H])c3[H])c([H])c([H])c2C1([H])[H]

>  <smiles>  (4) 
[H]c1c([H])c([H])c2c(c1[H])C([H])([H])C([H])([H])C([H])([H])C2([H])N([H])C(=O)C1([H])N(C(=O)C([H])(N([H])C(=O)C([H])(N([H])C([H])([H])[H])C([H])([H])[H])C(C([H])([H])[H])(C([H])([H])[H])C([H])([H])[H])C([H])([H])c2c([H])c(OC([H])([H])C([H])([H])c3c([H])c(C([H])([H])[H])nc(C([H])([H])C([H])([H])C([H])([H])C([H])([H])N([H])C(=O)N4C([H])([H])C([H])([H])C([H])([H])C([H])(n5nc(-c6c([H])c([H])c(Oc7c([H])c([H])c(F)c([H])c7F)c([H])c6[H])c(C(=O)N([H])[H])c5N([H])[H])C4([H])[H])c3[H])c([H])c([H])c2C1([H])[H]

$$$$
4:0:0
     RDKit          3D

 91 99  0  0  1  0  0  0  0  0999 V2000
  -31.0760  -19.4290   20.2780 C   0  0  0  0  0  3  0  0  0  0  0  0
  -28.3810  -20.0540   20.0400 C   0  0  0  0  0  3  0  0  0  0  0  0
  -30.6860  -20.7680   19.9800 C   0  0  0  0  0  0  0  0  0  0  0  0
  -30.1450  -18.3710   20.4580 C   0  0  0  0  0  0  0  0  0  0  0  0
  -29.3130  -21.1110   19.8480 C   0  0  0  0  0  0  0  0  0  0  0  0
  -28.7750  -18.7200   20.3440 C   0  0  0  0  0  0  0  0  0  0  0  0
  -31.7680  -21.8170   19.7990 C   0  0  0  0  0  1  0  0  0  0  0  0
  -27.5470  -17.5340   20.6010 Cl  0  0  0  0  0  0  0  0  0  0  0  0
  -28.8060  -22.5060   19.3420 C   0  0  0  0  0  2  0  0  0  0  0  0
  -29.1000  -23.8720   20.0920 C   0  0  0  0  0  2  0  0  0  0  0  0
  -28.1670  -25.0430   19.5810 C   0  0  0  0  0  2  0  0  0  0  0  0
  -28.3550  -26.4550   19.9710 O   0  0  0  0  0  0  0  0  0  0  0  0
  -24.5470  -31.7260   23.0780 C   0  0  0  0  0  0  0  0  0  0  0  0
  -27.2230  -27.2850   19.9200 C   0  0  0  0  0  0  0  0  0  0  0  0
  -23.3600  -30.3370   21.4190 C   0  0  0  0  0  3  0  0  0  0  0  0
  -24.8300  -28.8490   19.9550 C   0  0  0  0  0  0  0  0  0  0  0  0
  -25.8940  -30.7040   21.2340 C   0  0  0  0  0  2  0  0  0  0  0  0
  -25.9930  -29.3440   20.5610 C   0  0  0  0  0  0  0  0  0  0  0  0
  -27.1900  -28.5700   20.5410 C   0  0  0  0  0  3  0  0  0  0  0  0
  -26.0380  -26.8560   19.2730 C   0  0  0  0  0  3  0  0  0  0  0  0
  -24.8530  -27.6090   19.3050 C   0  0  0  0  0  3  0  0  0  0  0  0
  -23.5780  -29.6960   20.0250 C   0  0  0  0  0  2  0  0  0  0  0  0
  -24.6190  -30.9380   21.9670 N   0  0  0  0  0  0  0  0  0  0  0  0
  -23.4610  -31.9760   23.6210 O   0  0  0  0  0  0  0  0  0  0  0  0
  -22.7220  -29.2880   22.3610 C   0  0  0  0  0  0  0  0  0  0  0  0
  -21.3970  -29.0990   22.2460 N   0  0  0  0  0  0  0  0  0  0  0  0
  -23.4170  -28.6490   23.1540 O   0  0  0  0  0  0  0  0  0  0  0  0
  -20.8970  -29.6690   21.5770 H   0  0  0  0  0  0  0  0  0  0  0  0
  -18.0330  -27.8780   22.7680 C   0  0  0  0  0  0  0  0  0  0  0  0
  -20.5940  -28.1390   23.0040 C   0  0  0  0  0  3  0  0  0  0  0  0
  -20.6920  -26.7230   22.3890 C   0  0  0  0  0  2  0  0  0  0  0  0
  -19.5750  -26.4230   21.3850 C   0  0  0  0  0  2  0  0  0  0  0  0
  -18.2040  -26.5460   22.0550 C   0  0  0  0  0  2  0  0  0  0  0  0
  -19.1560  -28.6320   23.1990 C   0  0  0  0  0  0  0  0  0  0  0  0
  -18.9430  -29.8780   23.8270 C   0  0  0  0  0  3  0  0  0  0  0  0
  -17.6400  -30.3700   24.0280 C   0  0  0  0  0  3  0  0  0  0  0  0
  -16.5320  -29.6110   23.6160 C   0  0  0  0  0  3  0  0  0  0  0  0
  -16.7280  -28.3680   22.9900 C   0  0  0  0  0  3  0  0  0  0  0  0
  -25.8220  -32.3690   23.7050 C   0  0  0  0  0  3  0  0  0  0  0  0
  -26.3610  -31.5790   24.9600 C   0  0  1  0  0  0  0  0  0  0  0  0
  -25.2800  -31.2950   26.0290 C   0  0  0  0  0  1  0  0  0  0  0  0
  -26.9690  -30.2220   24.5330 C   0  0  0  0  0  1  0  0  0  0  0  0
  -27.5010  -32.3800   25.6320 C   0  0  0  0  0  1  0  0  0  0  0  0
  -25.4870  -33.7520   24.0700 N   0  0  0  0  0  0  0  0  0  0  0  0
  -25.8000  -34.8290   23.3390 C   0  0  0  0  0  0  0  0  0  0  0  0
  -26.4720  -34.7640   22.3050 O   0  0  0  0  0  0  0  0  0  0  0  0
  -24.8900  -33.8760   24.8750 H   0  0  0  0  0  0  0  0  0  0  0  0
  -24.0390  -36.5980   23.0260 C   0  0  0  0  0  1  0  0  0  0  0  0
  -25.2840  -36.1960   23.8300 C   0  0  0  0  0  3  0  0  0  0  0  0
  -27.3990  -37.1000   24.6900 C   0  0  0  0  0  1  0  0  0  0  0  0
  -26.2980  -37.2710   23.7460 N   0  0  0  0  0  0  0  0  0  0  0  0
  -25.8740  -38.1790   23.9130 H   0  0  0  0  0  0  0  0  0  0  0  0
  -30.6720  -16.9690   20.9220 C   0  0  0  0  0  2  0  0  0  0  0  0
  -30.6330  -14.5790   20.0570 C   0  0  0  0  0  0  0  0  0  0  0  0
  -30.2500  -12.4100   18.9190 C   0  0  0  0  0  2  0  0  0  0  0  0
  -29.2390  -12.5930   17.7690 C   0  0  0  0  0  2  0  0  0  0  0  0
  -27.7970  -12.4370   18.2890 C   0  0  0  0  0  2  0  0  0  0  0  0
  -27.5280  -13.2700   19.5720 C   0  0  0  0  0  3  0  0  0  0  0  0
  -28.6550  -13.0920   20.6140 C   0  0  0  0  0  2  0  0  0  0  0  0
  -29.9270  -13.4120   19.9520 N   0  0  0  0  0  0  0  0  0  0  0  0
  -31.7680  -14.6800   19.5870 O   0  0  0  0  0  0  0  0  0  0  0  0
  -30.0020  -15.6760   20.5660 N   0  0  0  0  0  0  0  0  0  0  0  0
  -29.0450  -15.5620   20.8660 H   0  0  0  0  0  0  0  0  0  0  0  0
  -25.1830  -13.8520   20.4460 C   0  0  0  0  0  0  0  0  0  0  0  0
  -24.1390  -13.0720   20.8630 C   0  0  0  0  0  0  0  0  0  0  0  0
  -24.5970  -11.7220   20.7780 C   0  0  0  0  0  0  0  0  0  0  0  0
  -26.2110  -12.9770   20.1340 N   0  0  0  0  0  0  0  0  0  0  0  0
  -25.8680  -11.6890   20.3940 N   0  0  0  0  0  0  0  0  0  0  0  0
  -23.8800  -10.4560   20.9840 C   0  0  0  0  0  0  0  0  0  0  0  0
  -24.3470   -9.4820   21.8930 C   0  0  0  0  0  3  0  0  0  0  0  0
  -23.6280   -8.2810   22.0880 C   0  0  0  0  0  3  0  0  0  0  0  0
  -22.4300   -8.0480   21.3740 C   0  0  0  0  0  0  0  0  0  0  0  0
  -21.9820   -9.0120   20.4530 C   0  0  0  0  0  3  0  0  0  0  0  0
  -22.7000  -10.2030   20.2570 C   0  0  0  0  0  3  0  0  0  0  0  0
  -21.6800   -6.9010   21.4790 O   0  0  0  0  0  0  0  0  0  0  0  0
  -21.6600   -6.1590   22.6320 C   0  0  0  0  0  0  0  0  0  0  0  0
  -21.2560   -6.7100   23.8670 C   0  0  0  0  0  3  0  0  0  0  0  0
  -21.1840   -5.8930   25.0140 C   0  0  0  0  0  3  0  0  0  0  0  0
  -21.5050   -4.5260   24.9250 C   0  0  0  0  0  0  0  0  0  0  0  0
  -21.9020   -3.9730   23.6940 C   0  0  0  0  0  3  0  0  0  0  0  0
  -21.9760   -4.7880   22.5510 C   0  0  0  0  0  0  0  0  0  0  0  0
  -22.3380   -4.2450   21.3630 F   0  0  0  0  0  0  0  0  0  0  0  0
  -21.4280   -3.7390   26.0240 F   0  0  0  0  0  0  0  0  0  0  0  0
  -22.7610  -13.5450   21.2270 C   0  0  0  0  0  0  0  0  0  0  0  0
  -22.0860  -12.8340   22.1230 N   0  0  0  0  0  0  0  0  0  0  0  0
  -22.2940  -14.5800   20.7550 O   0  0  0  0  0  0  0  0  0  0  0  0
  -22.4770  -11.9950   22.5260 H   0  0  0  0  0  0  0  0  0  0  0  0
  -21.1650  -13.1320   22.4110 H   0  0  0  0  0  0  0  0  0  0  0  0
  -25.3370  -15.2240   20.2860 N   0  0  0  0  0  0  0  0  0  0  0  0
  -24.5920  -15.8800   20.4920 H   0  0  0  0  0  0  0  0  0  0  0  0
  -26.1870  -15.6820   19.9830 H   0  0  0  0  0  0  0  0  0  0  0  0
  1  4  1  0
  2  6  1  0
  3  1  2  0
  4 53  1  0
  5  3  1  0
  5  2  2  0
  6  4  2  0
  6  8  1  0
  7  3  1  0
  9  5  1  0
  9 10  1  0
 11 12  1  0
 11 10  1  0
 13 24  2  0
 14 12  1  0
 14 19  1  0
 15 23  1  0
 15 25  1  0
 16 22  1  0
 16 18  1  0
 17 23  1  0
 18 17  1  0
 19 18  2  0
 20 21  1  0
 20 14  2  0
 21 16  2  0
 22 15  1  0
 23 13  1  0
 25 27  2  0
 26 25  1  0
 28 26  1  0
 29 38  2  0
 29 34  1  0
 30 26  1  0
 30 34  1  0
 31 30  1  0
 32 33  1  0
 32 31  1  0
 33 29  1  0
 34 35  2  0
 35 36  1  0
 37 36  2  0
 38 37  1  0
 39 13  1  0
 39 44  1  0
 39 40  1  0
 40 43  1  1
 40 41  1  0
 42 40  1  0
 44 47  1  0
 45 49  1  0
 45 44  1  0
 46 45  2  0
 49 48  1  0
 51 49  1  0
 51 52  1  0
 51 50  1  0
 54 62  1  0
 55 60  1  0
 56 57  1  0
 56 55  1  0
 58 57  1  0
 58 67  1  0
 58 59  1  0
 60 54  1  0
 60 59  1  0
 61 54  2  0
 62 63  1  0
 62 53  1  0
 64 65  2  0
 65 84  1  0
 66 65  1  0
 66 69  1  0
 67 68  1  0
 67 64  1  0
 68 66  2  0
 69 70  1  0
 70 71  2  0
 72 75  1  0
 72 71  1  0
 73 72  2  0
 74 73  1  0
 74 69  2  0
 75 76  1  0
 76 77  1  0
 77 78  2  0
 79 78  1  0
 79 83  1  0
 80 79  2  0
 81 76  2  0
 81 80  1  0
 82 81  1  0
 84 85  1  0
 85 88  1  0
 85 87  1  0
 86 84  2  0
 89 64  1  0
 89 90  1  0
 91 89  1  0
M  ISO  4  11 101  12 101  54 100  62 100
M  END
>  <TORSDO>  (5) 
F 20

>  <SCORE>  (5) 
-13.614

>  <name>  (5) 
4

>  <ligand_id>  (5) 
4

>  <original_smiles>  (5) 
[H]c1c([H])c([H])c2c(c1[H])C([H])([H])C([H])([H])C([H])([H])C2([H])N([H])C(=O)C1([H])N(C(=O)C([H])(N([H])C(=O)C([H])(N([H])C([H])([H])[H])C([H])([H])[H])C(C([H])([H])[H])(C([H])([H])[H])C([H])([H])[H])C([H])([H])c2c([H])c(OC([H])([H])C([H])([H])C([H])([H])c3c([H])c(Cl)c(C([H])([H])N([H])C(=O)N4C([H])([H])C([H])([H])C([H])([H])C([H])(n5nc(-c6c([H])c([H])c(Oc7c([H])c([H])c(F)c([H])c7F)c([H])c6[H])c(C(=O)N([H])[H])c5N([H])[H])C4([H])[H])c([H])c3C([H])([H])[H])c([H])c([H])c2C1([H])[H]

>  <smiles>  (5) 
[H]c1c([H])c([H])c2c(c1[H])C([H])([H])C([H])([H])C([H])([H])C2([H])N([H])C(=O)C1([H])N(C(=O)C([H])(N([H])C(=O)C([H])(N([H])C([H])([H])[H])C([H])([H])[H])C(C([H])([H])[H])(C([H])([H])[H])C([H])([H])[H])C([H])([H])c2c([H])c(OC([H])([H])C([H])([H])C([H])([H])c3c([H])c(Cl)c(C([H])([H])N([H])C(=O)N4C([H])([H])C([H])([H])C([H])([H])C([H])(n5nc(-c6c([H])c([H])c(Oc7c([H])c([H])c(F)c([H])c7F)c([H])c6[H])c(C(=O)N([H])[H])c5N([H])[H])C4([H])[H])c([H])c3C([H])([H])[H])c([H])c([H])c2C1([H])[H]

$$$$
5:0:0
     RDKit          3D

 92100  0  0  1  0  0  0  0  0999 V2000
  -29.7860  -19.4260   20.9210 C   0  0  0  0  0  3  0  0  0  0  0  0
  -29.1690  -20.4330   20.1320 C   0  0  0  0  0  0  0  0  0  0  0  0
  -28.6450  -20.0250   18.8760 C   0  0  0  0  0  0  0  0  0  0  0  0
  -29.8470  -18.0840   20.4640 C   0  0  0  0  0  0  0  0  0  0  0  0
  -28.7710  -18.6640   18.4920 C   0  0  0  0  0  0  0  0  0  0  0  0
  -27.9490  -21.0140   17.9450 C   0  0  0  0  0  1  0  0  0  0  0  0
  -28.2570  -18.1520   17.1580 C   0  0  0  0  0  1  0  0  0  0  0  0
  -29.3460  -17.7230   19.2670 N   0  0  0  0  0  0  0  0  0  0  0  0
  -29.0090  -21.8780   20.6780 C   0  0  0  0  0  3  0  0  0  0  0  0
  -29.7580  -23.0210   19.9190 C   0  0  0  0  0  3  0  0  0  0  0  0
  -29.5890  -24.4820   20.4680 C   0  0  0  0  0  2  0  0  0  0  0  0
  -28.3350  -25.2790   20.0040 C   0  0  0  0  0  2  0  0  0  0  0  0
  -28.4120  -26.6980   20.3050 O   0  0  0  0  0  0  0  0  0  0  0  0
  -24.5890  -31.9730   23.2630 C   0  0  0  0  0  0  0  0  0  0  0  0
  -27.2450  -27.4540   20.2540 C   0  0  0  0  0  0  0  0  0  0  0  0
  -23.3920  -30.5500   21.6370 C   0  0  0  0  0  3  0  0  0  0  0  0
  -24.8520  -28.9930   20.2350 C   0  0  0  0  0  0  0  0  0  0  0  0
  -25.9230  -30.8950   21.4480 C   0  0  0  0  0  2  0  0  0  0  0  0
  -26.0100  -29.5130   20.8230 C   0  0  0  0  0  0  0  0  0  0  0  0
  -27.2080  -28.7520   20.8280 C   0  0  0  0  0  3  0  0  0  0  0  0
  -26.0620  -26.9630   19.6490 C   0  0  0  0  0  3  0  0  0  0  0  0
  -24.8760  -27.7190   19.6450 C   0  0  0  0  0  3  0  0  0  0  0  0
  -23.6090  -29.8550   20.2670 C   0  0  0  0  0  2  0  0  0  0  0  0
  -24.6530  -31.1550   22.1740 N   0  0  0  0  0  0  0  0  0  0  0  0
  -23.5050  -32.2520   23.7950 O   0  0  0  0  0  0  0  0  0  0  0  0
  -22.7340  -29.5410   22.6070 C   0  0  0  0  0  0  0  0  0  0  0  0
  -21.4110  -29.3560   22.4750 N   0  0  0  0  0  0  0  0  0  0  0  0
  -23.4130  -28.9270   23.4350 O   0  0  0  0  0  0  0  0  0  0  0  0
  -20.9230  -29.9020   21.7780 H   0  0  0  0  0  0  0  0  0  0  0  0
  -18.0340  -28.1690   22.9780 C   0  0  0  0  0  0  0  0  0  0  0  0
  -20.5910  -28.4290   23.2550 C   0  0  0  0  0  3  0  0  0  0  0  0
  -20.6930  -26.9910   22.6960 C   0  0  0  0  0  2  0  0  0  0  0  0
  -19.5950  -26.6560   21.6810 C   0  0  0  0  0  2  0  0  0  0  0  0
  -18.2120  -26.8100   22.3190 C   0  0  0  0  0  2  0  0  0  0  0  0
  -19.1520  -28.9340   23.4030 C   0  0  0  0  0  0  0  0  0  0  0  0
  -18.9330  -30.2050   23.9780 C   0  0  0  0  0  3  0  0  0  0  0  0
  -17.6280  -30.7100   24.1320 C   0  0  0  0  0  3  0  0  0  0  0  0
  -16.5250  -29.9420   23.7240 C   0  0  0  0  0  3  0  0  0  0  0  0
  -16.7280  -28.6720   23.1530 C   0  0  0  0  0  3  0  0  0  0  0  0
  -25.8720  -32.6150   23.8790 C   0  0  0  0  0  3  0  0  0  0  0  0
  -25.5580  -34.0140   24.1980 N   0  0  0  0  0  0  0  0  0  0  0  0
  -25.8940  -35.0610   23.4330 C   0  0  0  0  0  0  0  0  0  0  0  0
  -26.5730  -34.9520   22.4090 O   0  0  0  0  0  0  0  0  0  0  0  0
  -24.9560  -34.1730   24.9930 H   0  0  0  0  0  0  0  0  0  0  0  0
  -24.1690  -36.8500   23.0450 C   0  0  0  0  0  1  0  0  0  0  0  0
  -25.3990  -36.4520   23.8770 C   0  0  0  0  0  3  0  0  0  0  0  0
  -27.5220  -37.3400   24.7350 C   0  0  0  0  0  1  0  0  0  0  0  0
  -26.4330  -37.5050   23.7740 N   0  0  0  0  0  0  0  0  0  0  0  0
  -26.0250  -38.4250   23.9140 H   0  0  0  0  0  0  0  0  0  0  0  0
  -26.3920  -31.8560   25.1600 C   0  0  1  0  0  0  0  0  0  0  0  0
  -25.2990  -31.6190   26.2290 C   0  0  0  0  0  1  0  0  0  0  0  0
  -26.9850  -30.4820   24.7770 C   0  0  0  0  0  1  0  0  0  0  0  0
  -27.5370  -32.6620   25.8180 C   0  0  0  0  0  1  0  0  0  0  0  0
  -30.5110  -16.9680   21.2940 C   0  0  0  0  0  2  0  0  0  0  0  0
  -30.7120  -14.5900   20.4430 C   0  0  0  0  0  0  0  0  0  0  0  0
  -30.4140  -12.4480   19.2410 C   0  0  0  0  0  2  0  0  0  0  0  0
  -29.4660  -12.6600   18.0430 C   0  0  0  0  0  2  0  0  0  0  0  0
  -27.9980  -12.5010   18.4780 C   0  0  0  0  0  2  0  0  0  0  0  0
  -27.6590  -13.3200   19.7510 C   0  0  0  0  0  3  0  0  0  0  0  0
  -28.7180  -13.0920   20.8540 C   0  0  0  0  0  2  0  0  0  0  0  0
  -30.0370  -13.4160   20.2850 N   0  0  0  0  0  0  0  0  0  0  0  0
  -31.8420  -14.7690   19.9800 O   0  0  0  0  0  0  0  0  0  0  0  0
  -30.0350  -15.5890   21.0430 N   0  0  0  0  0  0  0  0  0  0  0  0
  -29.0880  -15.3920   21.3240 H   0  0  0  0  0  0  0  0  0  0  0  0
  -25.2530  -13.9100   20.4450 C   0  0  0  0  0  0  0  0  0  0  0  0
  -24.1910  -13.1300   20.8150 C   0  0  0  0  0  0  0  0  0  0  0  0
  -24.6640  -11.7830   20.7980 C   0  0  0  0  0  0  0  0  0  0  0  0
  -26.3080  -13.0360   20.2270 N   0  0  0  0  0  0  0  0  0  0  0  0
  -25.9570  -11.7530   20.4980 N   0  0  0  0  0  0  0  0  0  0  0  0
  -23.9500  -10.5150   20.9970 C   0  0  0  0  0  0  0  0  0  0  0  0
  -24.3820   -9.5640   21.9470 C   0  0  0  0  0  3  0  0  0  0  0  0
  -23.6660   -8.3620   22.1320 C   0  0  0  0  0  3  0  0  0  0  0  0
  -22.5060   -8.1010   21.3670 C   0  0  0  0  0  0  0  0  0  0  0  0
  -22.0930   -9.0400   20.4060 C   0  0  0  0  0  3  0  0  0  0  0  0
  -22.8080  -10.2350   20.2200 C   0  0  0  0  0  3  0  0  0  0  0  0
  -21.7630   -6.9490   21.4590 O   0  0  0  0  0  0  0  0  0  0  0  0
  -21.7070   -6.2200   22.6200 C   0  0  0  0  0  0  0  0  0  0  0  0
  -21.2620   -6.7860   23.8350 C   0  0  0  0  0  3  0  0  0  0  0  0
  -21.1530   -5.9830   24.9880 C   0  0  0  0  0  3  0  0  0  0  0  0
  -21.4790   -4.6160   24.9280 C   0  0  0  0  0  0  0  0  0  0  0  0
  -21.9190   -4.0490   23.7180 C   0  0  0  0  0  3  0  0  0  0  0  0
  -22.0270   -4.8470   22.5670 C   0  0  0  0  0  0  0  0  0  0  0  0
  -22.4300   -4.2920   21.3990 F   0  0  0  0  0  0  0  0  0  0  0  0
  -21.3680   -3.8430   26.0330 F   0  0  0  0  0  0  0  0  0  0  0  0
  -22.7870  -13.5960   21.0770 C   0  0  0  0  0  0  0  0  0  0  0  0
  -22.0630  -12.8960   21.9440 N   0  0  0  0  0  0  0  0  0  0  0  0
  -22.3410  -14.6130   20.5490 O   0  0  0  0  0  0  0  0  0  0  0  0
  -22.4360  -12.0690   22.3870 H   0  0  0  0  0  0  0  0  0  0  0  0
  -21.1240  -13.1920   22.1710 H   0  0  0  0  0  0  0  0  0  0  0  0
  -25.4110  -15.2800   20.2540 N   0  0  0  0  0  0  0  0  0  0  0  0
  -24.6450  -15.9360   20.3540 H   0  0  0  0  0  0  0  0  0  0  0  0
  -26.2630  -15.7180   19.9290 H   0  0  0  0  0  0  0  0  0  0  0  0
  2  9  1  0
  2  1  2  0
  3  2  1  0
  4  1  1  0
  4 54  1  0
  5  3  2  0
  5  8  1  0
  6  3  1  0
  7  5  1  0
  8  4  2  0
 10 11  1  0
 10  9  2  0
 12 13  1  0
 12 11  1  0
 14 25  2  0
 15 13  1  0
 15 20  1  0
 16 24  1  0
 16 26  1  0
 17 23  1  0
 17 19  1  0
 18 24  1  0
 19 20  2  0
 19 18  1  0
 21 15  2  0
 22 21  1  0
 22 17  2  0
 23 16  1  0
 24 14  1  0
 26 28  2  0
 27 26  1  0
 29 27  1  0
 30 39  2  0
 30 35  1  0
 31 27  1  0
 31 35  1  0
 32 31  1  0
 33 34  1  0
 33 32  1  0
 34 30  1  0
 35 36  2  0
 36 37  1  0
 38 37  2  0
 39 38  1  0
 40 14  1  0
 40 41  1  0
 40 50  1  0
 41 44  1  0
 42 46  1  0
 42 41  1  0
 43 42  2  0
 46 45  1  0
 48 46  1  0
 48 49  1  0
 48 47  1  0
 50 53  1  1
 50 51  1  0
 52 50  1  0
 55 63  1  0
 56 61  1  0
 57 58  1  0
 57 56  1  0
 59 58  1  0
 59 68  1  0
 59 60  1  0
 61 55  1  0
 61 60  1  0
 62 55  2  0
 63 54  1  0
 63 64  1  0
 65 66  2  0
 66 85  1  0
 67 66  1  0
 67 70  1  0
 68 65  1  0
 68 69  1  0
 69 67  2  0
 70 71  1  0
 71 72  2  0
 73 76  1  0
 73 72  1  0
 74 73  2  0
 75 74  1  0
 75 70  2  0
 76 77  1  0
 77 78  1  0
 78 79  2  0
 80 79  1  0
 80 84  1  0
 81 80  2  0
 82 77  2  0
 82 81  1  0
 83 82  1  0
 85 86  1  0
 86 89  1  0
 86 88  1  0
 87 85  2  0
 90 91  1  0
 90 65  1  0
 92 90  1  0
M  ISO  4  12 101  13 101  55 100  63 100
M  END
>  <TORSDO>  (6) 
F 21

>  <SCORE>  (6) 
-13.608

>  <name>  (6) 
5

>  <ligand_id>  (6) 
5

>  <original_smiles>  (6) 
[H]c1c([H])c([H])c2c(c1[H])C([H])([H])C([H])([H])C([H])([H])C2([H])N([H])C(=O)C1([H])N(C(=O)C([H])(N([H])C(=O)C([H])(N([H])C([H])([H])[H])C([H])([H])[H])C(C([H])([H])[H])(C([H])([H])[H])C([H])([H])[H])C([H])([H])c2c([H])c(OC([H])([H])C([H])([H])C([H])([H])C([H])([H])c3c([H])c(C([H])([H])N([H])C(=O)N4C([H])([H])C([H])([H])C([H])([H])C([H])(n5nc(-c6c([H])c([H])c(Oc7c([H])c([H])c(F)c([H])c7F)c([H])c6[H])c(C(=O)N([H])[H])c5N([H])[H])C4([H])[H])nc(C([H])([H])[H])c3C([H])([H])[H])c([H])c([H])c2C1([H])[H]

>  <smiles>  (6) 
[H]c1c([H])c([H])c2c(c1[H])C([H])([H])C([H])([H])C([H])([H])C2([H])N([H])C(=O)C1([H])N(C(=O)C([H])(N([H])C(=O)C([H])(N([H])C([H])([H])[H])C([H])([H])[H])C(C([H])([H])[H])(C([H])([H])[H])C([H])([H])[H])C([H])([H])c2c([H])c(OC([H])([H])C([H])([H])C([H])([H])C([H])([H])c3c([H])c(C([H])([H])N([H])C(=O)N4C([H])([H])C([H])([H])C([H])([H])C([H])(n5nc(-c6c([H])c([H])c(Oc7c([H])c([H])c(F)c([H])c7F)c([H])c6[H])c(C(=O)N([H])[H])c5N([H])[H])C4([H])[H])nc(C([H])([H])[H])c3C([H])([H])[H])c([H])c([H])c2C1([H])[H]

$$$$
6:0:0
     RDKit          3D

 95104  0  0  1  0  0  0  0  0999 V2000
  -28.9960  -23.0990   19.9260 C   0  0  0  0  0  3  0  0  0  0  0  0
  -30.9370  -21.6950   20.2150 C   0  0  0  0  0  3  0  0  0  0  0  0
  -29.5440  -21.8580   20.2990 C   0  0  0  0  0  0  0  0  0  0  0  0
  -29.8560  -24.1280   19.4860 C   0  0  0  0  0  0  0  0  0  0  0  0
  -31.7200  -22.7740   19.7700 C   0  0  0  0  0  0  0  0  0  0  0  0
  -28.6580  -20.7170   20.7580 C   0  0  0  0  0  1  0  0  0  0  0  0
  -31.1950  -23.9680   19.4160 N   0  0  0  0  0  0  0  0  0  0  0  0
  -28.9120  -26.2990   20.3590 C   0  0  0  0  0  2  0  0  0  0  0  0
  -28.1490  -25.3550   18.0550 C   0  0  0  0  0  2  0  0  0  0  0  0
  -28.0840  -27.5610   20.0640 C   0  0  0  0  0  2  0  0  0  0  0  0
  -27.3580  -26.6580   17.8430 C   0  0  0  0  0  2  0  0  0  0  0  0
  -29.2970  -25.4940   19.0910 C   0  0  0  0  0  3  0  0  0  0  0  0
  -26.8800  -27.1670   19.2080 C   0  0  0  0  0  3  0  0  0  0  0  0
  -25.9590  -28.2530   19.1040 O   0  0  0  0  0  0  0  0  0  0  0  0
  -26.7230  -32.1570   24.9810 C   0  0  0  0  0  0  0  0  0  0  0  0
  -25.4140  -28.6180   20.3130 C   0  0  0  0  0  0  0  0  0  0  0  0
  -24.9730  -30.4120   25.0650 C   0  0  0  0  0  3  0  0  0  0  0  0
  -24.3800  -29.3310   22.8370 C   0  0  0  0  0  0  0  0  0  0  0  0
  -25.6330  -31.4950   22.8430 C   0  0  0  0  0  2  0  0  0  0  0  0
  -25.2560  -30.1960   22.1680 C   0  0  0  0  0  0  0  0  0  0  0  0
  -25.7680  -29.8490   20.8990 C   0  0  0  0  0  3  0  0  0  0  0  0
  -24.5250  -27.7570   20.9960 C   0  0  0  0  0  3  0  0  0  0  0  0
  -24.0100  -28.1080   22.2560 C   0  0  0  0  0  3  0  0  0  0  0  0
  -23.8640  -29.7830   24.1810 C   0  0  0  0  0  2  0  0  0  0  0  0
  -25.8350  -31.3740   24.3060 N   0  0  0  0  0  0  0  0  0  0  0  0
  -26.8010  -32.1180   26.2170 O   0  0  0  0  0  0  0  0  0  0  0  0
  -25.7720  -29.2740   25.7400 C   0  0  0  0  0  0  0  0  0  0  0  0
  -25.6490  -29.1700   27.0720 N   0  0  0  0  0  0  0  0  0  0  0  0
  -26.4590  -28.4990   25.0700 O   0  0  0  0  0  0  0  0  0  0  0  0
  -25.0690  -29.8470   27.5480 H   0  0  0  0  0  0  0  0  0  0  0  0
  -26.6640  -28.4250   30.4600 C   0  0  0  0  0  0  0  0  0  0  0  0
  -26.2810  -28.1570   27.9180 C   0  0  0  0  0  3  0  0  0  0  0  0
  -25.2790  -27.0400   28.2890 C   0  0  0  0  0  2  0  0  0  0  0  0
  -24.5630  -27.2890   29.6210 C   0  0  0  0  0  2  0  0  0  0  0  0
  -25.5780  -27.4060   30.7620 C   0  0  0  0  0  2  0  0  0  0  0  0
  -26.9830  -28.7890   29.1250 C   0  0  0  0  0  0  0  0  0  0  0  0
  -27.9760  -29.7680   28.9010 C   0  0  0  0  0  3  0  0  0  0  0  0
  -28.6460  -30.3740   29.9800 C   0  0  0  0  0  3  0  0  0  0  0  0
  -28.3360  -29.9990   31.3000 C   0  0  0  0  0  3  0  0  0  0  0  0
  -27.3510  -29.0240   31.5360 C   0  0  0  0  0  3  0  0  0  0  0  0
  -27.6640  -33.1560   24.2350 C   0  0  0  0  0  3  0  0  0  0  0  0
  -29.1830  -32.9870   24.6270 C   0  0  1  0  0  0  0  0  0  0  0  0
  -29.5630  -33.6840   25.9520 C   0  0  0  0  0  1  0  0  0  0  0  0
  -29.5500  -31.4900   24.7590 C   0  0  0  0  0  1  0  0  0  0  0  0
  -30.0800  -33.5630   23.5060 C   0  0  0  0  0  1  0  0  0  0  0  0
  -27.1960  -34.5130   24.5420 N   0  0  0  0  0  0  0  0  0  0  0  0
  -26.5450  -35.3060   23.6810 C   0  0  0  0  0  0  0  0  0  0  0  0
  -26.3370  -34.9880   22.5060 O   0  0  0  0  0  0  0  0  0  0  0  0
  -27.2860  -34.8160   25.5000 H   0  0  0  0  0  0  0  0  0  0  0  0
  -24.5760  -36.8680   23.7860 C   0  0  0  0  0  1  0  0  0  0  0  0
  -26.0410  -36.6640   24.2060 C   0  0  0  0  0  3  0  0  0  0  0  0
  -28.2710  -37.6860   24.0880 C   0  0  0  0  0  1  0  0  0  0  0  0
  -26.8560  -37.8090   23.7460 N   0  0  0  0  0  0  0  0  0  0  0  0
  -26.5100  -38.6810   24.1380 H   0  0  0  0  0  0  0  0  0  0  0  0
  -33.2080  -22.5980   19.5580 C   0  0  0  0  0  2  0  0  0  0  0  0
  -33.7160  -23.6370   18.5560 C   0  0  0  0  0  2  0  0  0  0  0  0
  -33.6020  -23.2000   17.0910 C   0  0  0  0  0  2  0  0  0  0  0  0
  -35.0790  -24.6480   15.7720 C   0  0  0  0  0  0  0  0  0  0  0  0
  -36.8210  -26.3730   15.7320 C   0  0  0  0  0  2  0  0  0  0  0  0
  -38.1920  -25.6920   15.9180 C   0  0  0  0  0  2  0  0  0  0  0  0
  -38.5250  -25.5270   17.4140 C   0  0  0  0  0  2  0  0  0  0  0  0
  -37.3600  -24.9040   18.2300 C   0  0  0  0  0  3  0  0  0  0  0  0
  -36.0220  -25.6070   17.9030 C   0  0  0  0  0  2  0  0  0  0  0  0
  -35.8250  -25.5600   16.4420 N   0  0  0  0  0  0  0  0  0  0  0  0
  -34.9090  -24.6560   14.5530 O   0  0  0  0  0  0  0  0  0  0  0  0
  -34.8610  -23.5150   16.4370 N   0  0  0  0  0  0  0  0  0  0  0  0
  -35.1430  -22.7340   15.8630 H   0  0  0  0  0  0  0  0  0  0  0  0
  -37.7600  -23.8600   20.5510 C   0  0  0  0  0  0  0  0  0  0  0  0
  -38.1040  -24.4120   21.7550 C   0  0  0  0  0  0  0  0  0  0  0  0
  -38.1930  -25.8200   21.5320 C   0  0  0  0  0  0  0  0  0  0  0  0
  -37.6440  -24.9180   19.6640 N   0  0  0  0  0  0  0  0  0  0  0  0
  -37.8580  -26.1080   20.2820 N   0  0  0  0  0  0  0  0  0  0  0  0
  -38.6300  -26.9040   22.4200 C   0  0  0  0  0  0  0  0  0  0  0  0
  -37.7060  -27.7980   23.0050 C   0  0  0  0  0  3  0  0  0  0  0  0
  -38.1480  -28.8240   23.8670 C   0  0  0  0  0  3  0  0  0  0  0  0
  -39.5270  -28.9590   24.1590 C   0  0  0  0  0  0  0  0  0  0  0  0
  -40.4450  -28.0810   23.5570 C   0  0  0  0  0  3  0  0  0  0  0  0
  -40.0040  -27.0650   22.6920 C   0  0  0  0  0  3  0  0  0  0  0  0
  -40.0500  -29.9380   24.9660 O   0  0  0  0  0  0  0  0  0  0  0  0
  -39.5180  -30.2170   26.2000 C   0  0  0  0  0  0  0  0  0  0  0  0
  -39.7000  -29.3530   27.3020 C   0  0  0  0  0  3  0  0  0  0  0  0
  -39.1940  -29.7110   28.5670 C   0  0  0  0  0  3  0  0  0  0  0  0
  -38.5170  -30.9340   28.7360 C   0  0  0  0  0  0  0  0  0  0  0  0
  -38.3430  -31.7970   27.6420 C   0  0  0  0  0  3  0  0  0  0  0  0
  -38.8450  -31.4410   26.3780 C   0  0  0  0  0  0  0  0  0  0  0  0
  -38.6890  -32.2860   25.3300 F   0  0  0  0  0  0  0  0  0  0  0  0
  -38.0370  -31.2820   29.9540 F   0  0  0  0  0  0  0  0  0  0  0  0
  -38.4310  -23.6720   23.0210 C   0  0  0  0  0  0  0  0  0  0  0  0
  -38.0740  -24.2360   24.1690 N   0  0  0  0  0  0  0  0  0  0  0  0
  -38.9610  -22.5610   22.9950 O   0  0  0  0  0  0  0  0  0  0  0  0
  -37.6200  -25.1380   24.1870 H   0  0  0  0  0  0  0  0  0  0  0  0
  -38.2500  -23.7570   25.0410 H   0  0  0  0  0  0  0  0  0  0  0  0
  -37.5540  -22.5480   20.1310 N   0  0  0  0  0  0  0  0  0  0  0  0
  -37.6660  -21.7570   20.7540 H   0  0  0  0  0  0  0  0  0  0  0  0
  -37.3080  -22.2820   19.1850 H   0  0  0  0  0  0  0  0  0  0  0  0
  1  3  1  0
  2  3  2  0
  3  6  1  0
  4  1  2  0
  5  2  1  0
  7  4  1  0
  7  5  2  0
  9 12  1  0
 10  8  1  0
 11  9  1  0
 11 13  1  0
 12  4  1  0
 12  8  1  0
 13 14  1  0
 13 10  1  0
 14 16  1  0
 15 26  2  0
 16 21  2  0
 16 22  1  0
 17 27  1  0
 18 24  1  0
 19 25  1  0
 20 18  2  0
 20 19  1  0
 21 20  1  0
 22 23  2  0
 23 18  1  0
 24 17  1  0
 25 15  1  0
 25 17  1  0
 27 28  1  0
 28 30  1  0
 29 27  2  0
 31 35  1  0
 31 40  1  0
 32 28  1  0
 32 33  1  0
 32 36  1  0
 33 34  1  0
 34 35  1  0
 36 31  2  0
 37 36  1  0
 37 38  2  0
 38 39  1  0
 39 40  2  0
 41 46  1  0
 41 42  1  0
 41 15  1  0
 42 44  1  1
 42 43  1  0
 45 42  1  0
 46 49  1  0
 47 51  1  0
 47 46  1  0
 48 47  2  0
 51 50  1  0
 53 52  1  0
 53 54  1  0
 53 51  1  0
 55  5  1  0
 56 55  1  0
 57 56  1  0
 58 66  1  0
 58 64  1  0
 59 60  1  0
 59 64  1  0
 60 61  1  0
 62 61  1  0
 62 71  1  0
 63 62  1  0
 64 63  1  0
 65 58  2  0
 66 57  1  0
 67 66  1  0
 68 69  2  0
 69 88  1  0
 70 69  1  0
 70 73  1  0
 71 72  1  0
 71 68  1  0
 72 70  2  0
 73 78  2  0
 73 74  1  0
 74 75  2  0
 75 76  1  0
 76 79  1  0
 77 76  2  0
 78 77  1  0
 79 80  1  0
 80 85  2  0
 80 81  1  0
 81 82  2  0
 82 83  1  0
 83 87  1  0
 84 83  2  0
 85 84  1  0
 86 85  1  0
 88 89  1  0
 89 91  1  0
 89 92  1  0
 90 88  2  0
 93 68  1  0
 93 94  1  0
 95 93  1  0
M  ISO  4  13 101  14 101  58 100  66 100
M  END
>  <TORSDO>  (7) 
F 20

>  <SCORE>  (7) 
-7.152

>  <name>  (7) 
6

>  <ligand_id>  (7) 
6

>  <original_smiles>  (7) 
[H]c1c([H])c([H])c2c(c1[H])C([H])([H])C([H])([H])C([H])([H])C2([H])N([H])C(=O)C1([H])N(C(=O)C([H])(N([H])C(=O)C([H])(N([H])C([H])([H])[H])C([H])([H])[H])C(C([H])([H])[H])(C([H])([H])[H])C([H])([H])[H])C([H])([H])c2c([H])c(OC3([H])C([H])([H])C([H])([H])C([H])(c4nc(C([H])([H])C([H])([H])C([H])([H])N([H])C(=O)N5C([H])([H])C([H])([H])C([H])([H])C([H])(n6nc(-c7c([H])c([H])c(Oc8c([H])c([H])c(F)c([H])c8F)c([H])c7[H])c(C(=O)N([H])[H])c6N([H])[H])C5([H])[H])c([H])c(C([H])([H])[H])c4[H])C([H])([H])C3([H])[H])c([H])c([H])c2C1([H])[H]

>  <smiles>  (7) 
[H]c1c([H])c([H])c2c(c1[H])C([H])([H])C([H])([H])C([H])([H])C2([H])N([H])C(=O)C1([H])N(C(=O)C([H])(N([H])C(=O)C([H])(N([H])C([H])([H])[H])C([H])([H])[H])C(C([H])([H])[H])(C([H])([H])[H])C([H])([H])[H])C([H])([H])c2c([H])c(OC3([H])C([H])([H])C([H])([H])C([H])(c4nc(C([H])([H])C([H])([H])C([H])([H])N([H])C(=O)N5C([H])([H])C([H])([H])C([H])([H])C([H])(n6nc(-c7c([H])c([H])c(Oc8c([H])c([H])c(F)c([H])c8F)c([H])c7[H])c(C(=O)N([H])[H])c6N([H])[H])C5([H])[H])c([H])c(C([H])([H])[H])c4[H])C([H])([H])C3([H])[H])c([H])c([H])c2C1([H])[H]

$$$$
7:0:0
     RDKit          3D

 92100  0  0  1  0  0  0  0  0999 V2000
  -30.8680  -20.7570   21.3320 C   0  0  0  0  0  3  0  0  0  0  0  0
  -28.6030  -21.4320   20.7810 C   0  0  0  0  0  3  0  0  0  0  0  0
  -29.5440  -20.3910   21.0360 C   0  0  0  0  0  0  0  0  0  0  0  0
  -31.2490  -22.1120   21.4260 C   0  0  0  0  0  0  0  0  0  0  0  0
  -28.9540  -22.8120   20.8640 C   0  0  0  0  0  0  0  0  0  0  0  0
  -30.2940  -23.1500   21.2220 C   0  0  0  0  0  0  0  0  0  0  0  0
  -32.6910  -22.4110   21.8110 C   0  0  0  0  0  1  0  0  0  0  0  0
  -30.7100  -24.6070   21.4510 C   0  0  0  0  0  1  0  0  0  0  0  0
  -29.1240  -18.9070   21.1530 C   0  0  0  0  0  2  0  0  0  0  0  0
  -29.9500  -17.8390   20.3510 C   0  0  0  0  0  2  0  0  0  0  0  0
  -30.4560  -16.6000   21.1700 C   0  0  0  0  0  2  0  0  0  0  0  0
  -30.5800  -14.3030   20.0880 C   0  0  0  0  0  0  0  0  0  0  0  0
  -30.2140  -12.1610   18.9040 C   0  0  0  0  0  2  0  0  0  0  0  0
  -29.1740  -12.3580   17.7840 C   0  0  0  0  0  2  0  0  0  0  0  0
  -27.7330  -12.2250   18.3170 C   0  0  0  0  0  2  0  0  0  0  0  0
  -27.4970  -13.0350   19.6210 C   0  0  0  0  0  3  0  0  0  0  0  0
  -28.6360  -12.7910   20.6360 C   0  0  0  0  0  2  0  0  0  0  0  0
  -29.9070  -13.1280   19.9700 N   0  0  0  0  0  0  0  0  0  0  0  0
  -31.6710  -14.5070   19.5460 O   0  0  0  0  0  0  0  0  0  0  0  0
  -29.9330  -15.2800   20.7570 N   0  0  0  0  0  0  0  0  0  0  0  0
  -29.0300  -15.0160   21.1260 H   0  0  0  0  0  0  0  0  0  0  0  0
  -25.1610  -13.6410   20.5090 C   0  0  0  0  0  0  0  0  0  0  0  0
  -24.1230  -12.8660   20.9510 C   0  0  0  0  0  0  0  0  0  0  0  0
  -24.5810  -11.5120   20.8850 C   0  0  0  0  0  0  0  0  0  0  0  0
  -26.1870  -12.7570   20.2020 N   0  0  0  0  0  0  0  0  0  0  0  0
  -25.8470  -11.4750   20.4900 N   0  0  0  0  0  0  0  0  0  0  0  0
  -23.8730  -10.2510   21.1260 C   0  0  0  0  0  0  0  0  0  0  0  0
  -24.3490   -9.3040   22.0580 C   0  0  0  0  0  3  0  0  0  0  0  0
  -23.6390   -8.1060   22.2880 C   0  0  0  0  0  3  0  0  0  0  0  0
  -22.4390   -7.8450   21.5870 C   0  0  0  0  0  0  0  0  0  0  0  0
  -21.9830   -8.7800   20.6430 C   0  0  0  0  0  3  0  0  0  0  0  0
  -22.6920   -9.9700   20.4090 C   0  0  0  0  0  3  0  0  0  0  0  0
  -21.6990   -6.6950   21.7240 O   0  0  0  0  0  0  0  0  0  0  0  0
  -21.6780   -5.9880   22.9000 C   0  0  0  0  0  0  0  0  0  0  0  0
  -21.2240   -6.5640   24.1080 C   0  0  0  0  0  3  0  0  0  0  0  0
  -21.1510   -5.7820   25.2780 C   0  0  0  0  0  3  0  0  0  0  0  0
  -21.5240   -4.4230   25.2400 C   0  0  0  0  0  0  0  0  0  0  0  0
  -21.9740   -3.8480   24.0400 C   0  0  0  0  0  3  0  0  0  0  0  0
  -22.0490   -4.6290   22.8700 C   0  0  0  0  0  0  0  0  0  0  0  0
  -22.4580   -4.0630   21.7100 F   0  0  0  0  0  0  0  0  0  0  0  0
  -21.4500   -3.6680   26.3610 F   0  0  0  0  0  0  0  0  0  0  0  0
  -22.7480  -13.3380   21.3210 C   0  0  0  0  0  0  0  0  0  0  0  0
  -22.0860  -12.6380   22.2360 N   0  0  0  0  0  0  0  0  0  0  0  0
  -22.2660  -14.3610   20.8320 O   0  0  0  0  0  0  0  0  0  0  0  0
  -22.4910  -11.8110   22.6480 H   0  0  0  0  0  0  0  0  0  0  0  0
  -21.1620  -12.9300   22.5250 H   0  0  0  0  0  0  0  0  0  0  0  0
  -25.3100  -15.0110   20.3190 N   0  0  0  0  0  0  0  0  0  0  0  0
  -24.5490  -15.6600   20.4910 H   0  0  0  0  0  0  0  0  0  0  0  0
  -26.1290  -15.4600   19.9280 H   0  0  0  0  0  0  0  0  0  0  0  0
  -27.8650  -23.9090   20.6790 C   0  0  0  0  0  2  0  0  0  0  0  0
  -28.0530  -24.9020   19.4770 C   0  0  0  0  0  2  0  0  0  0  0  0
  -28.0780  -26.3280   19.7910 O   0  0  0  0  0  0  0  0  0  0  0  0
  -24.6010  -31.5960   23.1200 C   0  0  0  0  0  0  0  0  0  0  0  0
  -26.9320  -27.1140   19.8110 C   0  0  0  0  0  0  0  0  0  0  0  0
  -23.2850  -30.3170   21.4680 C   0  0  0  0  0  3  0  0  0  0  0  0
  -24.6200  -28.7740   19.9330 C   0  0  0  0  0  0  0  0  0  0  0  0
  -25.8200  -30.5600   21.2030 C   0  0  0  0  0  2  0  0  0  0  0  0
  -25.8220  -29.2110   20.5040 C   0  0  0  0  0  0  0  0  0  0  0  0
  -26.9770  -28.3920   20.4340 C   0  0  0  0  0  3  0  0  0  0  0  0
  -25.7090  -26.7030   19.2330 C   0  0  0  0  0  3  0  0  0  0  0  0
  -24.5650  -27.5270   19.2870 C   0  0  0  0  0  3  0  0  0  0  0  0
  -23.4170  -29.6850   20.0550 C   0  0  0  0  0  2  0  0  0  0  0  0
  -24.5900  -30.8370   21.9880 N   0  0  0  0  0  0  0  0  0  0  0  0
  -23.5490  -31.8970   23.7040 O   0  0  0  0  0  0  0  0  0  0  0  0
  -22.6190  -29.2880   22.4070 C   0  0  0  0  0  0  0  0  0  0  0  0
  -21.2880  -29.1430   22.2930 N   0  0  0  0  0  0  0  0  0  0  0  0
  -23.2960  -28.6220   23.1950 O   0  0  0  0  0  0  0  0  0  0  0  0
  -20.8040  -29.7270   21.6260 H   0  0  0  0  0  0  0  0  0  0  0  0
  -17.8980  -27.9970   22.7870 C   0  0  0  0  0  0  0  0  0  0  0  0
  -20.4600  -28.2050   23.0510 C   0  0  0  0  0  3  0  0  0  0  0  0
  -20.5320  -26.7840   22.4470 C   0  0  0  0  0  2  0  0  0  0  0  0
  -19.4210  -26.5010   21.4310 C   0  0  0  0  0  2  0  0  0  0  0  0
  -18.0460  -26.6600   22.0840 C   0  0  0  0  0  2  0  0  0  0  0  0
  -19.0310  -28.7310   23.2270 C   0  0  0  0  0  0  0  0  0  0  0  0
  -18.8370  -29.9860   23.8440 C   0  0  0  0  0  3  0  0  0  0  0  0
  -17.5410  -30.5090   24.0210 C   0  0  0  0  0  3  0  0  0  0  0  0
  -16.4220  -29.7720   23.5950 C   0  0  0  0  0  3  0  0  0  0  0  0
  -16.6020  -28.5170   22.9860 C   0  0  0  0  0  3  0  0  0  0  0  0
  -25.9320  -32.1470   23.7230 C   0  0  0  0  0  3  0  0  0  0  0  0
  -25.6960  -33.5440   24.1130 N   0  0  0  0  0  0  0  0  0  0  0  0
  -26.0670  -34.6100   23.3900 C   0  0  0  0  0  0  0  0  0  0  0  0
  -26.7160  -34.5170   22.3450 O   0  0  0  0  0  0  0  0  0  0  0  0
  -25.1180  -33.6960   24.9270 H   0  0  0  0  0  0  0  0  0  0  0  0
  -24.4350  -36.5020   23.1180 C   0  0  0  0  0  1  0  0  0  0  0  0
  -25.6540  -35.9990   23.9090 C   0  0  0  0  0  3  0  0  0  0  0  0
  -27.8270  -36.7400   24.7820 C   0  0  0  0  0  1  0  0  0  0  0  0
  -26.7400  -37.0010   23.8400 N   0  0  0  0  0  0  0  0  0  0  0  0
  -26.3830  -37.9350   24.0160 H   0  0  0  0  0  0  0  0  0  0  0  0
  -26.4550  -31.3060   24.9510 C   0  0  1  0  0  0  0  0  0  0  0  0
  -25.3830  -31.0750   26.0430 C   0  0  0  0  0  1  0  0  0  0  0  0
  -26.9620  -29.9200   24.4870 C   0  0  0  0  0  1  0  0  0  0  0  0
  -27.6620  -32.0230   25.5990 C   0  0  0  0  0  1  0  0  0  0  0  0
  1  4  1  0
  2  5  2  0
  2  3  1  0
  3  9  1  0
  3  1  2  0
  4  7  1  0
  5  6  1  0
  6  4  2  0
  6  8  1  0
 10  9  1  0
 10 11  1  0
 12 20  1  0
 13 18  1  0
 14 15  1  0
 14 13  1  0
 16 15  1  0
 16 25  1  0
 16 17  1  0
 18 12  1  0
 18 17  1  0
 19 12  2  0
 20 21  1  0
 20 11  1  0
 22 23  2  0
 23 42  1  0
 24 23  1  0
 24 27  1  0
 25 26  1  0
 25 22  1  0
 26 24  2  0
 27 28  1  0
 28 29  2  0
 30 33  1  0
 30 29  1  0
 31 30  2  0
 32 31  1  0
 32 27  2  0
 33 34  1  0
 34 35  1  0
 35 36  2  0
 37 36  1  0
 37 41  1  0
 38 37  2  0
 39 34  2  0
 39 38  1  0
 40 39  1  0
 42 43  1  0
 43 46  1  0
 43 45  1  0
 44 42  2  0
 47 48  1  0
 47 22  1  0
 49 47  1  0
 50  5  1  0
 51 52  1  0
 51 50  1  0
 52 54  1  0
 53 64  2  0
 54 59  1  0
 55 63  1  0
 55 65  1  0
 56 62  1  0
 56 58  1  0
 57 63  1  0
 58 57  1  0
 59 58  2  0
 60 61  1  0
 60 54  2  0
 61 56  2  0
 62 55  1  0
 63 53  1  0
 65 67  2  0
 66 65  1  0
 68 66  1  0
 69 78  2  0
 69 74  1  0
 70 66  1  0
 70 74  1  0
 71 70  1  0
 72 73  1  0
 72 71  1  0
 73 69  1  0
 74 75  2  0
 75 76  1  0
 77 76  2  0
 78 77  1  0
 79 53  1  0
 79 80  1  0
 79 89  1  0
 80 83  1  0
 81 85  1  0
 81 80  1  0
 82 81  2  0
 85 84  1  0
 87 85  1  0
 87 88  1  0
 87 86  1  0
 89 92  1  1
 89 90  1  0
 91 89  1  0
M  ISO  4  12 100  20 100  51 101  52 101
M  END
>  <TORSDO>  (8) 
F 21

>  <SCORE>  (8) 
-11.610

>  <name>  (8) 
7

>  <ligand_id>  (8) 
7

>  <original_smiles>  (8) 
[H]c1c([H])c([H])c2c(c1[H])C([H])([H])C([H])([H])C([H])([H])C2([H])N([H])C(=O)C1([H])N(C(=O)C([H])(N([H])C(=O)C([H])(N([H])C([H])([H])[H])C([H])([H])[H])C(C([H])([H])[H])(C([H])([H])[H])C([H])([H])[H])C([H])([H])c2c([H])c(OC([H])([H])C([H])([H])c3c([H])c(C([H])([H])C([H])([H])C([H])([H])N([H])C(=O)N4C([H])([H])C([H])([H])C([H])([H])C([H])(n5nc(-c6c([H])c([H])c(Oc7c([H])c([H])c(F)c([H])c7F)c([H])c6[H])c(C(=O)N([H])[H])c5N([H])[H])C4([H])[H])c([H])c(C([H])([H])[H])c3C([H])([H])[H])c([H])c([H])c2C1([H])[H]

>  <smiles>  (8) 
[H]c1c([H])c([H])c2c(c1[H])C([H])([H])C([H])([H])C([H])([H])C2([H])N([H])C(=O)C1([H])N(C(=O)C([H])(N([H])C(=O)C([H])(N([H])C([H])([H])[H])C([H])([H])[H])C(C([H])([H])[H])(C([H])([H])[H])C([H])([H])[H])C([H])([H])c2c([H])c(OC([H])([H])C([H])([H])c3c([H])c(C([H])([H])C([H])([H])C([H])([H])N([H])C(=O)N4C([H])([H])C([H])([H])C([H])([H])C([H])(n5nc(-c6c([H])c([H])c(Oc7c([H])c([H])c(F)c([H])c7F)c([H])c6[H])c(C(=O)N([H])[H])c5N([H])[H])C4([H])[H])c([H])c(C([H])([H])[H])c3C([H])([H])[H])c([H])c([H])c2C1([H])[H]

$$$$
8:0:0
     RDKit          3D

 90 98  0  0  1  0  0  0  0  0999 V2000
  -30.2740  -21.3470   21.3110 C   0  0  0  0  0  3  0  0  0  0  0  0
  -30.9580  -20.2420   21.8570 C   0  0  0  0  0  3  0  0  0  0  0  0
  -28.8200  -19.7840   20.1480 C   0  0  0  0  0  3  0  0  0  0  0  0
  -29.1880  -21.1710   20.4350 C   0  0  0  0  0  0  0  0  0  0  0  0
  -30.5950  -18.9050   21.5690 C   0  0  0  0  0  0  0  0  0  0  0  0
  -29.5050  -18.6160   20.7030 C   0  0  0  0  0  0  0  0  0  0  0  0
  -31.3960  -17.8000   22.2380 C   0  0  0  0  0  1  0  0  0  0  0  0
  -28.6280  -22.4830   19.7110 C   0  0  0  0  0  2  0  0  0  0  0  0
  -27.8400  -23.7150   20.4270 C   0  0  0  0  0  2  0  0  0  0  0  0
  -28.4520  -25.1620   20.8560 C   0  0  0  0  0  2  0  0  0  0  0  0
  -28.3660  -26.4890   20.1490 O   0  0  0  0  0  0  0  0  0  0  0  0
  -24.6210  -31.9460   23.2390 C   0  0  0  0  0  0  0  0  0  0  0  0
  -27.2420  -27.3370   20.2230 C   0  0  0  0  0  0  0  0  0  0  0  0
  -23.4270  -30.5360   21.6020 C   0  0  0  0  0  3  0  0  0  0  0  0
  -24.8840  -28.9720   20.1910 C   0  0  0  0  0  0  0  0  0  0  0  0
  -25.9670  -30.8540   21.4210 C   0  0  0  0  0  2  0  0  0  0  0  0
  -26.0540  -29.4630   20.7880 C   0  0  0  0  0  0  0  0  0  0  0  0
  -27.2410  -28.6610   20.7810 C   0  0  0  0  0  3  0  0  0  0  0  0
  -26.0520  -26.9040   19.6120 C   0  0  0  0  0  3  0  0  0  0  0  0
  -24.8890  -27.7030   19.5860 C   0  0  0  0  0  3  0  0  0  0  0  0
  -23.6470  -29.8500   20.2270 C   0  0  0  0  0  2  0  0  0  0  0  0
  -24.6920  -31.1310   22.1440 N   0  0  0  0  0  0  0  0  0  0  0  0
  -23.5360  -32.2210   23.7720 O   0  0  0  0  0  0  0  0  0  0  0  0
  -22.7630  -29.5250   22.5690 C   0  0  0  0  0  0  0  0  0  0  0  0
  -21.4370  -29.3450   22.4430 N   0  0  0  0  0  0  0  0  0  0  0  0
  -23.4420  -28.9040   23.3910 O   0  0  0  0  0  0  0  0  0  0  0  0
  -20.9480  -29.8980   21.7530 H   0  0  0  0  0  0  0  0  0  0  0  0
  -18.0630  -28.1350   22.9450 C   0  0  0  0  0  0  0  0  0  0  0  0
  -20.6200  -28.4080   23.2170 C   0  0  0  0  0  3  0  0  0  0  0  0
  -20.7280  -26.9730   22.6470 C   0  0  0  0  0  2  0  0  0  0  0  0
  -19.6290  -26.6420   21.6310 C   0  0  0  0  0  2  0  0  0  0  0  0
  -18.2460  -26.7850   22.2750 C   0  0  0  0  0  2  0  0  0  0  0  0
  -19.1780  -28.9040   23.3730 C   0  0  0  0  0  0  0  0  0  0  0  0
  -18.9530  -30.1670   23.9630 C   0  0  0  0  0  3  0  0  0  0  0  0
  -17.6450  -30.6630   24.1260 C   0  0  0  0  0  3  0  0  0  0  0  0
  -16.5450  -29.8910   23.7140 C   0  0  0  0  0  3  0  0  0  0  0  0
  -16.7550  -28.6290   23.1310 C   0  0  0  0  0  3  0  0  0  0  0  0
  -25.8970  -32.5910   23.8630 C   0  0  0  0  0  3  0  0  0  0  0  0
  -26.4140  -31.8290   25.1460 C   0  0  1  0  0  0  0  0  0  0  0  0
  -25.3220  -31.5880   26.2160 C   0  0  0  0  0  1  0  0  0  0  0  0
  -27.0020  -30.4510   24.7610 C   0  0  0  0  0  1  0  0  0  0  0  0
  -27.5610  -32.6300   25.8050 C   0  0  0  0  0  1  0  0  0  0  0  0
  -25.5790  -33.9890   24.1870 N   0  0  0  0  0  0  0  0  0  0  0  0
  -25.9130  -35.0430   23.4300 C   0  0  0  0  0  0  0  0  0  0  0  0
  -26.5880  -34.9390   22.4010 O   0  0  0  0  0  0  0  0  0  0  0  0
  -24.9780  -34.1410   24.9830 H   0  0  0  0  0  0  0  0  0  0  0  0
  -24.1840  -36.8350   23.0620 C   0  0  0  0  0  1  0  0  0  0  0  0
  -25.4200  -36.4310   23.8820 C   0  0  0  0  0  3  0  0  0  0  0  0
  -27.5490  -37.3230   24.7230 C   0  0  0  0  0  1  0  0  0  0  0  0
  -26.4520  -37.4850   23.7730 N   0  0  0  0  0  0  0  0  0  0  0  0
  -26.0430  -38.4050   23.9160 H   0  0  0  0  0  0  0  0  0  0  0  0
  -29.0620  -17.0830   20.4840 C   0  0  0  0  0  2  0  0  0  0  0  0
  -30.5900  -14.8470   20.1400 C   0  0  0  0  0  0  0  0  0  0  0  0
  -30.2970  -12.5750   19.1350 C   0  0  0  0  0  2  0  0  0  0  0  0
  -29.3370  -12.6070   17.9300 C   0  0  0  0  0  2  0  0  0  0  0  0
  -27.8870  -12.4180   18.4100 C   0  0  0  0  0  2  0  0  0  0  0  0
  -27.5330  -13.3290   19.6150 C   0  0  0  0  0  3  0  0  0  0  0  0
  -28.6230  -13.3150   20.7060 C   0  0  0  0  0  2  0  0  0  0  0  0
  -29.8780  -13.6710   20.0430 N   0  0  0  0  0  0  0  0  0  0  0  0
  -31.7960  -14.8180   19.9050 O   0  0  0  0  0  0  0  0  0  0  0  0
  -30.0080  -16.0760   19.8520 N   0  0  0  0  0  0  0  0  0  0  0  0
  -30.6960  -16.6020   19.3340 H   0  0  0  0  0  0  0  0  0  0  0  0
  -25.1650  -13.8860   20.4090 C   0  0  0  0  0  0  0  0  0  0  0  0
  -24.1180  -13.1000   20.8000 C   0  0  0  0  0  0  0  0  0  0  0  0
  -24.5970  -11.7530   20.7610 C   0  0  0  0  0  0  0  0  0  0  0  0
  -26.2120  -13.0210   20.1480 N   0  0  0  0  0  0  0  0  0  0  0  0
  -25.8820  -11.7330   20.4280 N   0  0  0  0  0  0  0  0  0  0  0  0
  -23.8900  -10.4820   20.9640 C   0  0  0  0  0  0  0  0  0  0  0  0
  -24.3430   -9.5260   21.8990 C   0  0  0  0  0  3  0  0  0  0  0  0
  -23.6350   -8.3210   22.0900 C   0  0  0  0  0  3  0  0  0  0  0  0
  -22.4590   -8.0620   21.3470 C   0  0  0  0  0  0  0  0  0  0  0  0
  -22.0260   -9.0070   20.3990 C   0  0  0  0  0  3  0  0  0  0  0  0
  -22.7360  -10.2050   20.2060 C   0  0  0  0  0  3  0  0  0  0  0  0
  -21.7190   -6.9100   21.4500 O   0  0  0  0  0  0  0  0  0  0  0  0
  -21.6810   -6.1800   22.6100 C   0  0  0  0  0  0  0  0  0  0  0  0
  -21.2530   -6.7430   23.8320 C   0  0  0  0  0  3  0  0  0  0  0  0
  -21.1620   -5.9370   24.9840 C   0  0  0  0  0  3  0  0  0  0  0  0
  -21.4900   -4.5710   24.9170 C   0  0  0  0  0  0  0  0  0  0  0  0
  -21.9120   -4.0070   23.7000 C   0  0  0  0  0  3  0  0  0  0  0  0
  -22.0040   -4.8080   22.5490 C   0  0  0  0  0  0  0  0  0  0  0  0
  -22.3900   -4.2550   21.3740 F   0  0  0  0  0  0  0  0  0  0  0  0
  -21.3960   -3.7950   26.0230 F   0  0  0  0  0  0  0  0  0  0  0  0
  -22.7200  -13.5600   21.0970 C   0  0  0  0  0  0  0  0  0  0  0  0
  -22.0170  -12.8520   21.9730 N   0  0  0  0  0  0  0  0  0  0  0  0
  -22.2600  -14.5810   20.5840 O   0  0  0  0  0  0  0  0  0  0  0  0
  -22.4030  -12.0240   22.4030 H   0  0  0  0  0  0  0  0  0  0  0  0
  -21.0810  -13.1390   22.2190 H   0  0  0  0  0  0  0  0  0  0  0  0
  -25.3130  -15.2580   20.2210 N   0  0  0  0  0  0  0  0  0  0  0  0
  -24.5490  -15.9130   20.3450 H   0  0  0  0  0  0  0  0  0  0  0  0
  -26.1520  -15.6900   19.8580 H   0  0  0  0  0  0  0  0  0  0  0  0
  1  2  1  0
  3  4  1  0
  3  6  2  0
  4  1  2  0
  5  2  2  0
  5  7  1  0
  6  5  1  0
  8  9  1  0
  8  4  1  0
  9 10  1  0
 11 13  1  0
 11 10  1  0
 12 23  2  0
 13 18  1  0
 14 22  1  0
 14 24  1  0
 15 21  1  0
 15 17  1  0
 16 22  1  0
 17 16  1  0
 18 17  2  0
 19 13  2  0
 20 19  1  0
 20 15  2  0
 21 14  1  0
 22 12  1  0
 24 26  2  0
 25 24  1  0
 27 25  1  0
 28 37  2  0
 28 33  1  0
 29 25  1  0
 29 33  1  0
 30 29  1  0
 31 32  1  0
 31 30  1  0
 32 28  1  0
 33 34  2  0
 34 35  1  0
 36 35  2  0
 37 36  1  0
 38 12  1  0
 38 43  1  0
 38 39  1  0
 39 42  1  1
 39 40  1  0
 41 39  1  0
 43 46  1  0
 44 48  1  0
 44 43  1  0
 45 44  2  0
 48 47  1  0
 50 48  1  0
 50 51  1  0
 50 49  1  0
 52  6  1  0
 54 59  1  0
 55 56  1  0
 55 54  1  0
 57 56  1  0
 57 66  1  0
 57 58  1  0
 59 53  1  0
 59 58  1  0
 60 53  2  0
 61 53  1  0
 61 52  1  0
 62 61  1  0
 63 64  2  0
 64 83  1  0
 65 64  1  0
 65 68  1  0
 66 63  1  0
 66 67  1  0
 67 65  2  0
 68 69  1  0
 69 70  2  0
 71 74  1  0
 71 70  1  0
 72 71  2  0
 73 72  1  0
 73 68  2  0
 74 75  1  0
 75 76  1  0
 76 77  2  0
 78 77  1  0
 78 82  1  0
 79 78  2  0
 80 75  2  0
 80 79  1  0
 81 80  1  0
 83 84  1  0
 84 87  1  0
 84 86  1  0
 85 83  2  0
 88 89  1  0
 88 63  1  0
 90 88  1  0
M  ISO  4  10 101  11 101  53 100  61 100
M  END
>  <TORSDO>  (9) 
F 20

>  <SCORE>  (9) 
-13.748

>  <name>  (9) 
8

>  <ligand_id>  (9) 
8

>  <original_smiles>  (9) 
[H]c1c([H])c([H])c2c(c1[H])C([H])([H])C([H])([H])C([H])([H])C2([H])N([H])C(=O)C1([H])N(C(=O)C([H])(N([H])C(=O)C([H])(N([H])C([H])([H])[H])C([H])([H])[H])C(C([H])([H])[H])(C([H])([H])[H])C([H])([H])[H])C([H])([H])c2c([H])c(OC([H])([H])C([H])([H])C([H])([H])c3c([H])c([H])c(C([H])([H])[H])c(C([H])([H])N([H])C(=O)N4C([H])([H])C([H])([H])C([H])([H])C([H])(n5nc(-c6c([H])c([H])c(Oc7c([H])c([H])c(F)c([H])c7F)c([H])c6[H])c(C(=O)N([H])[H])c5N([H])[H])C4([H])[H])c3[H])c([H])c([H])c2C1([H])[H]

>  <smiles>  (9) 
[H]c1c([H])c([H])c2c(c1[H])C([H])([H])C([H])([H])C([H])([H])C2([H])N([H])C(=O)C1([H])N(C(=O)C([H])(N([H])C(=O)C([H])(N([H])C([H])([H])[H])C([H])([H])[H])C(C([H])([H])[H])(C([H])([H])[H])C([H])([H])[H])C([H])([H])c2c([H])c(OC([H])([H])C([H])([H])C([H])([H])c3c([H])c([H])c(C([H])([H])[H])c(C([H])([H])N([H])C(=O)N4C([H])([H])C([H])([H])C([H])([H])C([H])(n5nc(-c6c([H])c([H])c(Oc7c([H])c([H])c(F)c([H])c7F)c([H])c6[H])c(C(=O)N([H])[H])c5N([H])[H])C4([H])[H])c3[H])c([H])c([H])c2C1([H])[H]

$$$$
9:0:0
     RDKit          3D

 98106  0  0  1  0  0  0  0  0999 V2000
  -28.6460  -23.7090   22.2770 C   0  0  0  0  0  3  0  0  0  0  0  0
  -29.5450  -22.8300   22.9060 C   0  0  0  0  0  3  0  0  0  0  0  0
  -29.4820  -22.9990   20.1030 C   0  0  0  0  0  3  0  0  0  0  0  0
  -28.6270  -23.8210   20.8690 C   0  0  0  0  0  0  0  0  0  0  0  0
  -30.4350  -22.0470   22.1440 C   0  0  0  0  0  0  0  0  0  0  0  0
  -30.3960  -22.1230   20.7280 C   0  0  0  0  0  0  0  0  0  0  0  0
  -31.3250  -21.2950   19.8540 C   0  0  0  0  0  1  0  0  0  0  0  0
  -27.7100  -24.7660   20.1780 C   0  0  0  0  0  0  0  0  0  0  0  0
  -26.9270  -24.4130   19.2860 O   0  0  0  0  0  0  0  0  0  0  0  0
  -27.8430  -26.2450   20.5620 C   0  0  0  0  0  2  0  0  0  0  0  0
  -27.5550  -27.0890   19.4480 O   0  0  0  0  0  0  0  0  0  0  0  0
  -24.6280  -32.1240   23.4960 C   0  0  0  0  0  0  0  0  0  0  0  0
  -26.4660  -27.8850   19.6770 C   0  0  0  0  0  0  0  0  0  0  0  0
  -23.0990  -30.9750   21.9260 C   0  0  0  0  0  3  0  0  0  0  0  0
  -24.2160  -29.4950   20.1760 C   0  0  0  0  0  0  0  0  0  0  0  0
  -25.5870  -31.1990   21.3920 C   0  0  0  0  0  2  0  0  0  0  0  0
  -25.4790  -29.8970   20.6310 C   0  0  0  0  0  0  0  0  0  0  0  0
  -26.6120  -29.0920   20.3850 C   0  0  0  0  0  3  0  0  0  0  0  0
  -25.1950  -27.4840   19.2210 C   0  0  0  0  0  3  0  0  0  0  0  0
  -24.0650  -28.2860   19.4730 C   0  0  0  0  0  3  0  0  0  0  0  0
  -23.0600  -30.4200   20.4780 C   0  0  0  0  0  2  0  0  0  0  0  0
  -24.4660  -31.4390   22.3300 N   0  0  0  0  0  0  0  0  0  0  0  0
  -23.6580  -32.4140   24.2100 O   0  0  0  0  0  0  0  0  0  0  0  0
  -22.5070  -29.9110   22.8760 C   0  0  0  0  0  0  0  0  0  0  0  0
  -21.2110  -29.6090   22.6990 N   0  0  0  0  0  0  0  0  0  0  0  0
  -23.2130  -29.3570   23.7240 O   0  0  0  0  0  0  0  0  0  0  0  0
  -20.7020  -30.1110   21.9850 H   0  0  0  0  0  0  0  0  0  0  0  0
  -18.0240  -27.9190   22.8870 C   0  0  0  0  0  0  0  0  0  0  0  0
  -20.4500  -28.6110   23.4500 C   0  0  0  0  0  3  0  0  0  0  0  0
  -20.8490  -27.1780   23.0320 C   0  0  0  0  0  2  0  0  0  0  0  0
  -19.9610  -26.6050   21.9240 C   0  0  0  0  0  2  0  0  0  0  0  0
  -18.4960  -26.5700   22.3730 C   0  0  0  0  0  2  0  0  0  0  0  0
  -18.9430  -28.8850   23.3770 C   0  0  0  0  0  0  0  0  0  0  0  0
  -18.4570  -30.1360   23.8100 C   0  0  0  0  0  3  0  0  0  0  0  0
  -17.0810  -30.4300   23.7620 C   0  0  0  0  0  3  0  0  0  0  0  0
  -16.1730  -29.4650   23.2910 C   0  0  0  0  0  3  0  0  0  0  0  0
  -16.6460  -28.2120   22.8590 C   0  0  0  0  0  3  0  0  0  0  0  0
  -26.0370  -32.6010   23.9770 C   0  0  0  0  0  3  0  0  0  0  0  0
  -26.6220  -31.7210   25.1470 C   0  0  1  0  0  0  0  0  0  0  0  0
  -25.6370  -31.5120   26.3210 C   0  0  0  0  0  1  0  0  0  0  0  0
  -27.0390  -30.3270   24.6240 C   0  0  0  0  0  1  0  0  0  0  0  0
  -27.9060  -32.3800   25.7080 C   0  0  0  0  0  1  0  0  0  0  0  0
  -25.9110  -34.0030   24.3910 N   0  0  0  0  0  0  0  0  0  0  0  0
  -26.3670  -35.0450   23.6830 C   0  0  0  0  0  0  0  0  0  0  0  0
  -27.0060  -34.9170   22.6350 O   0  0  0  0  0  0  0  0  0  0  0  0
  -25.3510  -34.1860   25.2110 H   0  0  0  0  0  0  0  0  0  0  0  0
  -24.9060  -37.0750   23.4190 C   0  0  0  0  0  1  0  0  0  0  0  0
  -26.0610  -36.4560   24.2220 C   0  0  0  0  0  3  0  0  0  0  0  0
  -28.2780  -36.9770   25.1380 C   0  0  0  0  0  1  0  0  0  0  0  0
  -27.2300  -37.3620   24.1960 N   0  0  0  0  0  0  0  0  0  0  0  0
  -26.9500  -38.3160   24.4060 H   0  0  0  0  0  0  0  0  0  0  0  0
  -31.4220  -21.1560   22.8840 C   0  0  0  0  0  2  0  0  0  0  0  0
  -30.7490  -19.9840   23.4720 N   0  0  0  0  0  4  0  0  0  0  0  0
  -30.0380  -19.6510   22.8450 H   0  0  0  0  0  0  0  0  0  0  0  0
  -30.2860  -20.2870   24.3130 H   0  0  0  0  0  0  0  0  0  0  0  0
  -31.6640  -18.8800   23.8210 C   0  0  0  0  0  2  0  0  0  0  0  0
  -31.0180  -17.4930   23.6450 C   0  0  0  0  0  2  0  0  0  0  0  0
  -31.1560  -16.8730   22.2390 C   0  0  0  0  0  2  0  0  0  0  0  0
  -30.8510  -15.3650   22.2740 C   0  0  0  0  0  2  0  0  0  0  0  0
  -31.7030  -14.4830   21.3350 C   0  0  0  0  0  2  0  0  0  0  0  0
  -31.4890  -13.6530   19.0180 C   0  0  0  0  0  0  0  0  0  0  0  0
  -30.8590  -11.3600   18.3390 C   0  0  0  0  0  2  0  0  0  0  0  0
  -29.7200  -11.3410   17.3040 C   0  0  0  0  0  2  0  0  0  0  0  0
  -28.3450  -11.3860   17.9970 C   0  0  0  0  0  2  0  0  0  0  0  0
  -28.2550  -12.5170   19.0530 C   0  0  0  0  0  3  0  0  0  0  0  0
  -29.4780  -12.4780   19.9910 C   0  0  0  0  0  2  0  0  0  0  0  0
  -30.7120  -12.5500   19.1890 N   0  0  0  0  0  0  0  0  0  0  0  0
  -32.2870  -13.7750   18.0850 O   0  0  0  0  0  0  0  0  0  0  0  0
  -31.3560  -14.6400   19.9190 N   0  0  0  0  0  0  0  0  0  0  0  0
  -31.6900  -15.5180   19.5500 H   0  0  0  0  0  0  0  0  0  0  0  0
  -26.2690  -13.4750   20.3910 C   0  0  0  0  0  0  0  0  0  0  0  0
  -25.1520  -12.8870   20.9180 C   0  0  0  0  0  0  0  0  0  0  0  0
  -25.2630  -11.4930   20.6200 C   0  0  0  0  0  0  0  0  0  0  0  0
  -27.0040  -12.4520   19.8100 N   0  0  0  0  0  0  0  0  0  0  0  0
  -26.4110  -11.2450   20.0010 N   0  0  0  0  0  0  0  0  0  0  0  0
  -24.3190  -10.3920   20.8350 C   0  0  0  0  0  0  0  0  0  0  0  0
  -24.6640   -9.2630   21.6090 C   0  0  0  0  0  3  0  0  0  0  0  0
  -23.7330   -8.2220   21.8180 C   0  0  0  0  0  3  0  0  0  0  0  0
  -22.4370   -8.3080   21.2530 C   0  0  0  0  0  0  0  0  0  0  0  0
  -22.1060   -9.4230   20.4630 C   0  0  0  0  0  3  0  0  0  0  0  0
  -23.0370  -10.4540   20.2520 C   0  0  0  0  0  3  0  0  0  0  0  0
  -21.4760   -7.3350   21.3790 O   0  0  0  0  0  0  0  0  0  0  0  0
  -21.3360   -6.6070   22.5340 C   0  0  0  0  0  0  0  0  0  0  0  0
  -21.2270   -7.2270   23.7970 C   0  0  0  0  0  3  0  0  0  0  0  0
  -21.0130   -6.4440   24.9500 C   0  0  0  0  0  3  0  0  0  0  0  0
  -20.8970   -5.0460   24.8400 C   0  0  0  0  0  0  0  0  0  0  0  0
  -21.0010   -4.4280   23.5820 C   0  0  0  0  0  3  0  0  0  0  0  0
  -21.2140   -5.2070   22.4320 C   0  0  0  0  0  0  0  0  0  0  0  0
  -21.2900   -4.6060   21.2180 F   0  0  0  0  0  0  0  0  0  0  0  0
  -20.6840   -4.2950   25.9460 F   0  0  0  0  0  0  0  0  0  0  0  0
  -23.9960  -13.5840   21.5780 C   0  0  0  0  0  0  0  0  0  0  0  0
  -23.3860  -12.9560   22.5770 N   0  0  0  0  0  0  0  0  0  0  0  0
  -23.6550  -14.7170   21.2380 O   0  0  0  0  0  0  0  0  0  0  0  0
  -23.6750  -12.0350   22.8700 H   0  0  0  0  0  0  0  0  0  0  0  0
  -22.6130  -13.4000   23.0520 H   0  0  0  0  0  0  0  0  0  0  0  0
  -26.7130  -14.7940   20.3410 N   0  0  0  0  0  0  0  0  0  0  0  0
  -26.1610  -15.5620   20.7100 H   0  0  0  0  0  0  0  0  0  0  0  0
  -27.5620  -15.0960   19.8830 H   0  0  0  0  0  0  0  0  0  0  0  0
  1  2  1  0
  3  6  2  0
  3  4  1  0
  4  1  2  0
  5 52  1  0
  5  2  2  0
  6  5  1  0
  7  6  1  0
  8 10  1  0
  8  4  1  0
  9  8  2  0
 11 13  1  0
 11 10  1  0
 12 23  2  0
 13 18  1  0
 14 22  1  0
 14 24  1  0
 15 21  1  0
 15 17  1  0
 16 22  1  0
 17 16  1  0
 18 17  2  0
 19 20  1  0
 19 13  2  0
 20 15  2  0
 21 14  1  0
 22 12  1  0
 24 26  2  0
 25 24  1  0
 27 25  1  0
 28 33  1  0
 29 25  1  0
 30 29  1  0
 31 32  1  0
 31 30  1  0
 32 28  1  0
 33 29  1  0
 33 34  2  0
 35 34  1  0
 36 35  2  0
 37 28  2  0
 37 36  1  0
 38 12  1  0
 38 43  1  0
 38 39  1  0
 39 42  1  1
 39 40  1  0
 41 39  1  0
 43 46  1  0
 44 48  1  0
 44 43  1  0
 45 44  2  0
 48 47  1  0
 50 48  1  0
 50 51  1  0
 50 49  1  0
 52 53  1  0
 53 56  1  0
 53 55  1  0
 54 53  1  0
 57 56  1  0
 58 59  1  0
 58 57  1  0
 60 59  1  0
 61 67  1  0
 61 69  1  0
 62 67  1  0
 63 64  1  0
 63 62  1  0
 65 64  1  0
 65 74  1  0
 65 66  1  0
 67 66  1  0
 68 61  2  0
 69 60  1  0
 70 69  1  0
 71 72  2  0
 72 91  1  0
 73 76  1  0
 73 72  1  0
 74 75  1  0
 74 71  1  0
 75 73  2  0
 76 77  1  0
 77 78  2  0
 79 82  1  0
 79 78  1  0
 80 79  2  0
 81 80  1  0
 81 76  2  0
 82 83  1  0
 83 84  1  0
 84 85  2  0
 86 85  1  0
 86 90  1  0
 87 86  2  0
 88 83  2  0
 88 87  1  0
 89 88  1  0
 91 92  1  0
 92 94  1  0
 92 95  1  0
 93 91  2  0
 96 71  1  0
 96 97  1  0
 98 96  1  0
M  ISO  4  10 101  11 101  61 100  69 100
M  END
>  <TORSDO>  (10) 
F 25

>  <SCORE>  (10) 
-7.519

>  <name>  (10) 
9

>  <ligand_id>  (10) 
9

>  <original_smiles>  (10) 
[H]c1c([H])c([H])c2c(c1[H])C([H])([H])C([H])([H])C([H])([H])C2([H])N([H])C(=O)C1([H])N(C(=O)C([H])(N([H])C(=O)C([H])(N([H])C([H])([H])[H])C([H])([H])[H])C(C([H])([H])[H])(C([H])([H])[H])C([H])([H])[H])C([H])([H])c2c([H])c(OC([H])([H])C(=O)c3c([H])c([H])c(C([H])([H])[N+]([H])([H])C([H])([H])C([H])([H])C([H])([H])C([H])([H])C([H])([H])N([H])C(=O)N4C([H])([H])C([H])([H])C([H])([H])C([H])(n5nc(-c6c([H])c([H])c(Oc7c([H])c([H])c(F)c([H])c7F)c([H])c6[H])c(C(=O)N([H])[H])c5N([H])[H])C4([H])[H])c(C([H])([H])[H])c3[H])c([H])c([H])c2C1([H])[H]

>  <smiles>  (10) 
[H]c1c([H])c([H])c2c(c1[H])C([H])([H])C([H])([H])C([H])([H])C2([H])N([H])C(=O)C1([H])N(C(=O)C([H])(N([H])C(=O)C([H])(N([H])C([H])([H])[H])C([H])([H])[H])C(C([H])([H])[H])(C([H])([H])[H])C([H])([H])[H])C([H])([H])c2c([H])c(OC([H])([H])C(=O)c3c([H])c([H])c(C([H])([H])[N+]([H])([H])C([H])([H])C([H])([H])C([H])([H])C([H])([H])C([H])([H])N([H])C(=O)N4C([H])([H])C([H])([H])C([H])([H])C([H])(n5nc(-c6c([H])c([H])c(Oc7c([H])c([H])c(F)c([H])c7F)c([H])c6[H])c(C(=O)N([H])[H])c5N([H])[H])C4([H])[H])c(C([H])([H])[H])c3[H])c([H])c([H])c2C1([H])[H]

$$$$
10:0:0
     RDKit          3D

 91 99  0  0  1  0  0  0  0  0999 V2000
  -28.3290  -19.9280   20.9570 C   0  0  0  0  0  3  0  0  0  0  0  0
  -28.4500  -18.5620   20.6230 C   0  0  0  0  0  3  0  0  0  0  0  0
  -30.6680  -20.2620   20.3930 C   0  0  0  0  0  3  0  0  0  0  0  0
  -29.4310  -20.8020   20.8100 C   0  0  0  0  0  0  0  0  0  0  0  0
  -29.6730  -18.0400   20.1420 C   0  0  0  0  0  0  0  0  0  0  0  0
  -30.7990  -18.8950   20.0650 C   0  0  0  0  0  0  0  0  0  0  0  0
  -32.1450  -18.3780   19.5870 C   0  0  0  0  0  1  0  0  0  0  0  0
  -29.3400  -22.3050   21.1000 C   0  0  0  0  0  2  0  0  0  0  0  0
  -27.9450  -22.9550   20.9160 C   0  0  0  0  0  2  0  0  0  0  0  0
  -27.9040  -24.4920   21.1330 C   0  0  0  0  0  2  0  0  0  0  0  0
  -28.4920  -25.3380   19.9760 C   0  0  0  0  0  2  0  0  0  0  0  0
  -28.4600  -26.7530   20.2280 O   0  0  0  0  0  0  0  0  0  0  0  0
  -24.5900  -31.8900   23.2400 C   0  0  0  0  0  0  0  0  0  0  0  0
  -27.2660  -27.4480   20.1860 C   0  0  0  0  0  0  0  0  0  0  0  0
  -23.4010  -30.4870   21.5860 C   0  0  0  0  0  3  0  0  0  0  0  0
  -24.8670  -28.9550   20.1720 C   0  0  0  0  0  0  0  0  0  0  0  0
  -25.9260  -30.8520   21.4090 C   0  0  0  0  0  2  0  0  0  0  0  0
  -26.0180  -29.4810   20.7700 C   0  0  0  0  0  0  0  0  0  0  0  0
  -27.2180  -28.7350   20.7710 C   0  0  0  0  0  3  0  0  0  0  0  0
  -26.0930  -26.9360   19.5820 C   0  0  0  0  0  3  0  0  0  0  0  0
  -24.9010  -27.6840   19.5730 C   0  0  0  0  0  3  0  0  0  0  0  0
  -23.6210  -29.8090   20.2080 C   0  0  0  0  0  2  0  0  0  0  0  0
  -24.6570  -31.0910   22.1370 N   0  0  0  0  0  0  0  0  0  0  0  0
  -23.5030  -32.1590   23.7710 O   0  0  0  0  0  0  0  0  0  0  0  0
  -22.7430  -29.4640   22.5400 C   0  0  0  0  0  0  0  0  0  0  0  0
  -21.4180  -29.2840   22.4040 N   0  0  0  0  0  0  0  0  0  0  0  0
  -23.4210  -28.8350   23.3580 O   0  0  0  0  0  0  0  0  0  0  0  0
  -20.9360  -29.8460   21.7170 H   0  0  0  0  0  0  0  0  0  0  0  0
  -18.0400  -28.0930   22.8710 C   0  0  0  0  0  0  0  0  0  0  0  0
  -20.5950  -28.3440   23.1630 C   0  0  0  0  0  3  0  0  0  0  0  0
  -20.7000  -26.9150   22.5790 C   0  0  0  0  0  2  0  0  0  0  0  0
  -19.6030  -26.5990   21.5580 C   0  0  0  0  0  2  0  0  0  0  0  0
  -18.2170  -26.7450   22.1930 C   0  0  0  0  0  2  0  0  0  0  0  0
  -19.1570  -28.8500   23.3130 C   0  0  0  0  0  0  0  0  0  0  0  0
  -18.9370  -30.1120   23.9070 C   0  0  0  0  0  3  0  0  0  0  0  0
  -17.6330  -30.6160   24.0650 C   0  0  0  0  0  3  0  0  0  0  0  0
  -16.5300  -29.8550   23.6410 C   0  0  0  0  0  3  0  0  0  0  0  0
  -16.7340  -28.5960   23.0510 C   0  0  0  0  0  3  0  0  0  0  0  0
  -25.8700  -32.5210   23.8740 C   0  0  0  0  0  3  0  0  0  0  0  0
  -25.5560  -33.9170   24.2050 N   0  0  0  0  0  0  0  0  0  0  0  0
  -25.8940  -34.9720   23.4520 C   0  0  0  0  0  0  0  0  0  0  0  0
  -26.5750  -34.8730   22.4260 O   0  0  0  0  0  0  0  0  0  0  0  0
  -24.9530  -34.0670   25.0010 H   0  0  0  0  0  0  0  0  0  0  0  0
  -24.1670  -36.7640   23.0830 C   0  0  0  0  0  1  0  0  0  0  0  0
  -25.3980  -36.3580   23.9070 C   0  0  0  0  0  3  0  0  0  0  0  0
  -27.5210  -37.2410   24.7680 C   0  0  0  0  0  1  0  0  0  0  0  0
  -26.4310  -37.4120   23.8120 N   0  0  0  0  0  0  0  0  0  0  0  0
  -26.0210  -38.3310   23.9590 H   0  0  0  0  0  0  0  0  0  0  0  0
  -26.3800  -31.7500   25.1530 C   0  0  1  0  0  0  0  0  0  0  0  0
  -25.2780  -31.5090   26.2140 C   0  0  0  0  0  1  0  0  0  0  0  0
  -26.9690  -30.3740   24.7610 C   0  0  0  0  0  1  0  0  0  0  0  0
  -27.5210  -32.5450   25.8270 C   0  0  0  0  0  1  0  0  0  0  0  0
  -29.7110  -16.6180   19.5820 C   0  0  0  0  0  2  0  0  0  0  0  0
  -30.6840  -14.4870   20.2690 C   0  0  0  0  0  0  0  0  0  0  0  0
  -30.3870  -12.3280   19.1480 C   0  0  0  0  0  2  0  0  0  0  0  0
  -29.4330  -12.5820   17.9590 C   0  0  0  0  0  2  0  0  0  0  0  0
  -27.9600  -12.4570   18.4000 C   0  0  0  0  0  2  0  0  0  0  0  0
  -27.6500  -13.2670   19.6880 C   0  0  0  0  0  3  0  0  0  0  0  0
  -28.7180  -13.0040   20.7770 C   0  0  0  0  0  2  0  0  0  0  0  0
  -30.0430  -13.2910   20.2030 N   0  0  0  0  0  0  0  0  0  0  0  0
  -31.8180  -14.6760   19.8210 O   0  0  0  0  0  0  0  0  0  0  0  0
  -29.8680  -15.5180   20.5420 N   0  0  0  0  0  0  0  0  0  0  0  0
  -29.0230  -15.2620   21.0290 H   0  0  0  0  0  0  0  0  0  0  0  0
  -25.2620  -13.8930   20.4150 C   0  0  0  0  0  0  0  0  0  0  0  0
  -24.1950  -13.1270   20.8030 C   0  0  0  0  0  0  0  0  0  0  0  0
  -24.6510  -11.7740   20.7730 C   0  0  0  0  0  0  0  0  0  0  0  0
  -26.3010  -13.0050   20.1810 N   0  0  0  0  0  0  0  0  0  0  0  0
  -25.9360  -11.7270   20.4510 N   0  0  0  0  0  0  0  0  0  0  0  0
  -23.9260  -10.5150   20.9780 C   0  0  0  0  0  0  0  0  0  0  0  0
  -24.3690   -9.5530   21.9120 C   0  0  0  0  0  3  0  0  0  0  0  0
  -23.6440   -8.3560   22.1030 C   0  0  0  0  0  3  0  0  0  0  0  0
  -22.4630   -8.1150   21.3610 C   0  0  0  0  0  0  0  0  0  0  0  0
  -22.0400   -9.0670   20.4170 C   0  0  0  0  0  3  0  0  0  0  0  0
  -22.7650  -10.2550   20.2230 C   0  0  0  0  0  3  0  0  0  0  0  0
  -21.7090   -6.9700   21.4620 O   0  0  0  0  0  0  0  0  0  0  0  0
  -21.6720   -6.2330   22.6180 C   0  0  0  0  0  0  0  0  0  0  0  0
  -21.2600   -6.7940   23.8470 C   0  0  0  0  0  3  0  0  0  0  0  0
  -21.1700   -5.9830   24.9960 C   0  0  0  0  0  3  0  0  0  0  0  0
  -21.4820   -4.6120   24.9180 C   0  0  0  0  0  0  0  0  0  0  0  0
  -21.8880   -4.0500   23.6940 C   0  0  0  0  0  3  0  0  0  0  0  0
  -21.9790   -4.8590   22.5470 C   0  0  0  0  0  0  0  0  0  0  0  0
  -22.3500   -4.3090   21.3660 F   0  0  0  0  0  0  0  0  0  0  0  0
  -21.3880   -3.8310   26.0180 F   0  0  0  0  0  0  0  0  0  0  0  0
  -22.8030  -13.6090   21.0870 C   0  0  0  0  0  0  0  0  0  0  0  0
  -22.0820  -12.9200   21.9660 N   0  0  0  0  0  0  0  0  0  0  0  0
  -22.3630  -14.6340   20.5680 O   0  0  0  0  0  0  0  0  0  0  0  0
  -22.4510  -12.0940   22.4110 H   0  0  0  0  0  0  0  0  0  0  0  0
  -21.1460  -13.2260   22.1940 H   0  0  0  0  0  0  0  0  0  0  0  0
  -25.4300  -15.2630   20.2260 N   0  0  0  0  0  0  0  0  0  0  0  0
  -24.6650  -15.9190   20.3300 H   0  0  0  0  0  0  0  0  0  0  0  0
  -26.2680  -15.6920   19.8590 H   0  0  0  0  0  0  0  0  0  0  0  0
  2  1  2  0
  3  4  2  0
  4  1  1  0
  4  8  1  0
  5  2  1  0
  6  5  2  0
  6  3  1  0
  7  6  1  0
  9  8  1  0
  9 10  1  0
 11 12  1  0
 11 10  1  0
 13 24  2  0
 14 12  1  0
 14 19  1  0
 15 23  1  0
 15 25  1  0
 16 22  1  0
 16 18  1  0
 17 23  1  0
 18 19  2  0
 18 17  1  0
 20 14  2  0
 21 20  1  0
 21 16  2  0
 22 15  1  0
 23 13  1  0
 25 27  2  0
 26 25  1  0
 28 26  1  0
 29 38  2  0
 29 34  1  0
 30 26  1  0
 30 34  1  0
 31 30  1  0
 32 33  1  0
 32 31  1  0
 33 29  1  0
 34 35  2  0
 35 36  1  0
 37 36  2  0
 38 37  1  0
 39 13  1  0
 39 40  1  0
 39 49  1  0
 40 43  1  0
 41 45  1  0
 41 40  1  0
 42 41  2  0
 45 44  1  0
 47 45  1  0
 47 48  1  0
 47 46  1  0
 49 52  1  1
 49 50  1  0
 51 49  1  0
 53  5  1  0
 53 62  1  0
 54 62  1  0
 55 60  1  0
 56 57  1  0
 56 55  1  0
 58 57  1  0
 58 67  1  0
 58 59  1  0
 60 54  1  0
 60 59  1  0
 61 54  2  0
 62 63  1  0
 64 65  2  0
 65 84  1  0
 66 65  1  0
 66 69  1  0
 67 64  1  0
 67 68  1  0
 68 66  2  0
 69 70  1  0
 70 71  2  0
 72 75  1  0
 72 71  1  0
 73 72  2  0
 74 73  1  0
 74 69  2  0
 75 76  1  0
 76 77  1  0
 77 78  2  0
 79 78  1  0
 79 83  1  0
 80 79  2  0
 81 76  2  0
 81 80  1  0
 82 81  1  0
 84 85  1  0
 85 88  1  0
 85 87  1  0
 86 84  2  0
 89 90  1  0
 89 64  1  0
 91 89  1  0
M  ISO  4  11 101  12 101  54 100  62 100
M  END
>  <TORSDO>  (11) 
F 21

>  <SCORE>  (11) 
-13.386

>  <name>  (11) 
10

>  <ligand_id>  (11) 
10

>  <original_smiles>  (11) 
[H]c1c([H])c([H])c2c(c1[H])C([H])([H])C([H])([H])C([H])([H])C2([H])N([H])C(=O)C1([H])N(C(=O)C([H])(N([H])C(=O)C([H])(N([H])C([H])([H])[H])C([H])([H])[H])C(C([H])([H])[H])(C([H])([H])[H])C([H])([H])[H])C([H])([H])c2c([H])c(OC([H])([H])C([H])([H])C([H])([H])C([H])([H])c3c([H])c([H])c(C([H])([H])N([H])C(=O)N4C([H])([H])C([H])([H])C([H])([H])C([H])(n5nc(-c6c([H])c([H])c(Oc7c([H])c([H])c(F)c([H])c7F)c([H])c6[H])c(C(=O)N([H])[H])c5N([H])[H])C4([H])[H])c(C([H])([H])[H])c3[H])c([H])c([H])c2C1([H])[H]

>  <smiles>  (11) 
[H]c1c([H])c([H])c2c(c1[H])C([H])([H])C([H])([H])C([H])([H])C2([H])N([H])C(=O)C1([H])N(C(=O)C([H])(N([H])C(=O)C([H])(N([H])C([H])([H])[H])C([H])([H])[H])C(C([H])([H])[H])(C([H])([H])[H])C([H])([H])[H])C([H])([H])c2c([H])c(OC([H])([H])C([H])([H])C([H])([H])C([H])([H])c3c([H])c([H])c(C([H])([H])N([H])C(=O)N4C([H])([H])C([H])([H])C([H])([H])C([H])(n5nc(-c6c([H])c([H])c(Oc7c([H])c([H])c(F)c([H])c7F)c([H])c6[H])c(C(=O)N([H])[H])c5N([H])[H])C4([H])[H])c(C([H])([H])[H])c3[H])c([H])c([H])c2C1([H])[H]

$$$$
11:0:0
     RDKit          3D

 91 99  0  0  1  0  0  0  0  0999 V2000
  -28.4890  -21.4960   19.7640 C   0  0  0  0  0  3  0  0  0  0  0  0
  -27.8770  -20.2600   19.6610 C   0  0  0  0  0  0  0  0  0  0  0  0
  -26.6710  -20.5770   18.9570 C   0  0  0  0  0  0  0  0  0  0  0  0
  -26.6130  -21.9050   18.6050 C   0  0  0  0  0  0  0  0  0  0  0  0
  -25.5990  -22.6600   17.7960 C   0  0  0  0  0  1  0  0  0  0  0  0
  -27.7500  -22.5060   19.1290 N   0  0  0  0  0  0  0  0  0  0  0  0
  -25.4220  -19.4340   18.6140 Cl  0  0  0  0  0  0  0  0  0  0  0  0
  -28.3490  -18.8910   20.2390 C   0  0  0  0  0  2  0  0  0  0  0  0
  -29.3740  -18.0100   19.4120 C   0  0  0  0  0  2  0  0  0  0  0  0
  -30.4060  -17.1240   20.2300 C   0  0  0  0  0  2  0  0  0  0  0  0
  -30.8370  -14.6220   20.3950 C   0  0  0  0  0  0  0  0  0  0  0  0
  -30.5900  -12.3700   19.4310 C   0  0  0  0  0  2  0  0  0  0  0  0
  -29.7020  -12.5430   18.1830 C   0  0  0  0  0  2  0  0  0  0  0  0
  -28.2100  -12.4410   18.5640 C   0  0  0  0  0  2  0  0  0  0  0  0
  -27.8470  -13.3140   19.7940 C   0  0  0  0  0  3  0  0  0  0  0  0
  -28.8680  -13.1370   20.9380 C   0  0  0  0  0  2  0  0  0  0  0  0
  -30.2000  -13.4180   20.3870 N   0  0  0  0  0  0  0  0  0  0  0  0
  -32.0150  -14.7360   20.0290 O   0  0  0  0  0  0  0  0  0  0  0  0
  -30.0550  -15.7160   20.5850 N   0  0  0  0  0  0  0  0  0  0  0  0
  -29.1430  -15.5650   20.9940 H   0  0  0  0  0  0  0  0  0  0  0  0
  -25.4600  -13.9850   20.4550 C   0  0  0  0  0  0  0  0  0  0  0  0
  -24.3650  -13.2420   20.8040 C   0  0  0  0  0  0  0  0  0  0  0  0
  -24.7910  -11.8790   20.7930 C   0  0  0  0  0  0  0  0  0  0  0  0
  -26.4820  -13.0740   20.2470 N   0  0  0  0  0  0  0  0  0  0  0  0
  -26.0840  -11.8040   20.5070 N   0  0  0  0  0  0  0  0  0  0  0  0
  -24.0300  -10.6370   20.9800 C   0  0  0  0  0  0  0  0  0  0  0  0
  -24.4230   -9.6590   21.9200 C   0  0  0  0  0  3  0  0  0  0  0  0
  -23.6570   -8.4860   22.0940 C   0  0  0  0  0  3  0  0  0  0  0  0
  -22.4880   -8.2840   21.3250 C   0  0  0  0  0  0  0  0  0  0  0  0
  -22.1140   -9.2480   20.3740 C   0  0  0  0  0  3  0  0  0  0  0  0
  -22.8810  -10.4120   20.1970 C   0  0  0  0  0  3  0  0  0  0  0  0
  -21.6990   -7.1610   21.4080 O   0  0  0  0  0  0  0  0  0  0  0  0
  -21.6160   -6.4220   22.5590 C   0  0  0  0  0  0  0  0  0  0  0  0
  -21.1880   -6.9900   23.7800 C   0  0  0  0  0  3  0  0  0  0  0  0
  -21.0470   -6.1780   24.9220 C   0  0  0  0  0  3  0  0  0  0  0  0
  -21.3270   -4.8000   24.8470 C   0  0  0  0  0  0  0  0  0  0  0  0
  -21.7500   -4.2330   23.6320 C   0  0  0  0  0  3  0  0  0  0  0  0
  -21.8900   -5.0410   22.4900 C   0  0  0  0  0  0  0  0  0  0  0  0
  -22.2770   -4.4850   21.3170 F   0  0  0  0  0  0  0  0  0  0  0  0
  -21.1850   -4.0190   25.9420 F   0  0  0  0  0  0  0  0  0  0  0  0
  -22.9790  -13.7610   21.0490 C   0  0  0  0  0  0  0  0  0  0  0  0
  -22.2260  -13.0990   21.9230 N   0  0  0  0  0  0  0  0  0  0  0  0
  -22.5740  -14.7840   20.5020 O   0  0  0  0  0  0  0  0  0  0  0  0
  -22.5740  -12.2730   22.3870 H   0  0  0  0  0  0  0  0  0  0  0  0
  -21.2910  -13.4240   22.1310 H   0  0  0  0  0  0  0  0  0  0  0  0
  -25.6610  -15.3470   20.2730 N   0  0  0  0  0  0  0  0  0  0  0  0
  -24.8980  -16.0050   20.3680 H   0  0  0  0  0  0  0  0  0  0  0  0
  -26.5220  -15.7770   19.9650 H   0  0  0  0  0  0  0  0  0  0  0  0
  -28.1560  -23.9460   18.9750 C   0  0  0  0  0  3  0  0  0  0  0  0
  -27.9200  -24.8850   20.2470 C   0  0  0  0  0  3  0  0  0  0  0  0
  -28.2670  -26.3350   20.2350 O   0  0  0  0  0  0  0  0  0  0  0  0
  -24.5870  -31.8040   23.2620 C   0  0  0  0  0  0  0  0  0  0  0  0
  -27.1990  -27.2280   20.2200 C   0  0  0  0  0  0  0  0  0  0  0  0
  -23.4180  -30.4030   21.5980 C   0  0  0  0  0  3  0  0  0  0  0  0
  -24.8870  -28.8790   20.1830 C   0  0  0  0  0  0  0  0  0  0  0  0
  -25.9650  -30.7210   21.4670 C   0  0  0  0  0  2  0  0  0  0  0  0
  -26.0500  -29.3440   20.8050 C   0  0  0  0  0  0  0  0  0  0  0  0
  -27.2220  -28.5270   20.8090 C   0  0  0  0  0  3  0  0  0  0  0  0
  -26.0150  -26.8070   19.5890 C   0  0  0  0  0  3  0  0  0  0  0  0
  -24.8780  -27.6250   19.5570 C   0  0  0  0  0  3  0  0  0  0  0  0
  -23.6590  -29.7510   20.2140 C   0  0  0  0  0  2  0  0  0  0  0  0
  -24.6760  -30.9940   22.1660 N   0  0  0  0  0  0  0  0  0  0  0  0
  -23.4870  -32.0820   23.7670 O   0  0  0  0  0  0  0  0  0  0  0  0
  -22.7350  -29.3810   22.5370 C   0  0  0  0  0  0  0  0  0  0  0  0
  -21.4030  -29.2490   22.4200 N   0  0  0  0  0  0  0  0  0  0  0  0
  -23.4040  -28.7260   23.3360 O   0  0  0  0  0  0  0  0  0  0  0  0
  -20.9140  -29.8500   21.7680 H   0  0  0  0  0  0  0  0  0  0  0  0
  -17.9920  -28.1770   22.9480 C   0  0  0  0  0  0  0  0  0  0  0  0
  -20.5660  -28.3260   23.1790 C   0  0  0  0  0  3  0  0  0  0  0  0
  -20.6030  -26.9250   22.5260 C   0  0  0  0  0  2  0  0  0  0  0  0
  -19.4520  -26.7050   21.5310 C   0  0  0  0  0  2  0  0  0  0  0  0
  -18.1190  -26.8250   22.2710 C   0  0  0  0  0  2  0  0  0  0  0  0
  -19.1450  -28.8860   23.3710 C   0  0  0  0  0  0  0  0  0  0  0  0
  -18.9790  -30.1480   23.9740 C   0  0  0  0  0  3  0  0  0  0  0  0
  -17.6990  -30.7050   24.1500 C   0  0  0  0  0  3  0  0  0  0  0  0
  -16.5610  -29.9970   23.7400 C   0  0  0  0  0  3  0  0  0  0  0  0
  -16.7100  -28.7300   23.1490 C   0  0  0  0  0  3  0  0  0  0  0  0
  -25.8540  -32.4360   23.9120 C   0  0  0  0  0  3  0  0  0  0  0  0
  -25.5370  -33.8360   24.2340 N   0  0  0  0  0  0  0  0  0  0  0  0
  -25.8750  -34.8840   23.4720 C   0  0  0  0  0  0  0  0  0  0  0  0
  -26.5560  -34.7710   22.4500 O   0  0  0  0  0  0  0  0  0  0  0  0
  -24.9260  -34.0030   25.0200 H   0  0  0  0  0  0  0  0  0  0  0  0
  -24.1330  -36.6630   23.1100 C   0  0  0  0  0  1  0  0  0  0  0  0
  -25.3830  -36.2760   23.9140 C   0  0  0  0  0  3  0  0  0  0  0  0
  -27.5150  -37.1830   24.7230 C   0  0  0  0  0  1  0  0  0  0  0  0
  -26.4070  -37.3330   23.7840 N   0  0  0  0  0  0  0  0  0  0  0  0
  -25.9960  -38.2520   23.9190 H   0  0  0  0  0  0  0  0  0  0  0  0
  -26.3280  -31.6680   25.2030 C   0  0  1  0  0  0  0  0  0  0  0  0
  -25.1990  -31.4260   26.2320 C   0  0  0  0  0  1  0  0  0  0  0  0
  -26.9170  -30.2900   24.8300 C   0  0  0  0  0  1  0  0  0  0  0  0
  -27.4500  -32.4660   25.9060 C   0  0  0  0  0  1  0  0  0  0  0  0
  2  1  2  0
  2  8  1  0
  3  2  1  0
  4  3  2  0
  4  6  1  0
  5  4  1  0
  6  1  1  0
  7  3  1  0
  9 10  1  0
  9  8  1  0
 10 19  1  0
 11 19  1  0
 12 17  1  0
 13 14  1  0
 13 12  1  0
 15 14  1  0
 15 24  1  0
 15 16  1  0
 17 11  1  0
 17 16  1  0
 18 11  2  0
 19 20  1  0
 21 22  2  0
 22 41  1  0
 23 22  1  0
 23 26  1  0
 24 21  1  0
 24 25  1  0
 25 23  2  0
 26 27  1  0
 27 28  2  0
 29 32  1  0
 29 28  1  0
 30 29  2  0
 31 30  1  0
 31 26  2  0
 32 33  1  0
 33 34  1  0
 34 35  2  0
 36 35  1  0
 36 40  1  0
 37 36  2  0
 38 33  2  0
 38 37  1  0
 39 38  1  0
 41 42  1  0
 42 45  1  0
 42 44  1  0
 43 41  2  0
 46 47  1  0
 46 21  1  0
 48 46  1  0
 49  6  1  0
 49 50  2  0
 51 50  1  0
 52 63  2  0
 53 51  1  0
 53 58  1  0
 54 62  1  0
 54 64  1  0
 55 61  1  0
 55 57  1  0
 56 62  1  0
 57 58  2  0
 57 56  1  0
 59 53  2  0
 60 59  1  0
 60 55  2  0
 61 54  1  0
 62 52  1  0
 64 66  2  0
 65 64  1  0
 67 65  1  0
 68 77  2  0
 68 73  1  0
 69 65  1  0
 69 73  1  0
 70 69  1  0
 71 72  1  0
 71 70  1  0
 72 68  1  0
 73 74  2  0
 74 75  1  0
 76 75  2  0
 77 76  1  0
 78 52  1  0
 78 79  1  0
 78 88  1  0
 79 82  1  0
 80 84  1  0
 80 79  1  0
 81 80  2  0
 84 83  1  0
 86 84  1  0
 86 87  1  0
 86 85  1  0
 88 91  1  1
 88 89  1  0
 90 88  1  0
M  ISO  4  11 100  19 100  50 101  51 101
M  END
>  <TORSDO>  (12) 
F 21

>  <SCORE>  (12) 
-12.888

>  <name>  (12) 
11

>  <ligand_id>  (12) 
11

>  <original_smiles>  (12) 
[H]c1c([H])c([H])c2c(c1[H])C([H])([H])C([H])([H])C([H])([H])C2([H])N([H])C(=O)C1([H])N(C(=O)C([H])(N([H])C(=O)C([H])(N([H])C([H])([H])[H])C([H])([H])[H])C(C([H])([H])[H])(C([H])([H])[H])C([H])([H])[H])C([H])([H])c2c([H])c(OC([H])([H])C([H])([H])n3c([H])c(C([H])([H])C([H])([H])C([H])([H])N([H])C(=O)N4C([H])([H])C([H])([H])C([H])([H])C([H])(n5nc(-c6c([H])c([H])c(Oc7c([H])c([H])c(F)c([H])c7F)c([H])c6[H])c(C(=O)N([H])[H])c5N([H])[H])C4([H])[H])c(Cl)c3C([H])([H])[H])c([H])c([H])c2C1([H])[H]

>  <smiles>  (12) 
[H]c1c([H])c([H])c2c(c1[H])C([H])([H])C([H])([H])C([H])([H])C2([H])N([H])C(=O)C1([H])N(C(=O)C([H])(N([H])C(=O)C([H])(N([H])C([H])([H])[H])C([H])([H])[H])C(C([H])([H])[H])(C([H])([H])[H])C([H])([H])[H])C([H])([H])c2c([H])c(OC([H])([H])C([H])([H])n3c([H])c(C([H])([H])C([H])([H])C([H])([H])N([H])C(=O)N4C([H])([H])C([H])([H])C([H])([H])C([H])(n5nc(-c6c([H])c([H])c(Oc7c([H])c([H])c(F)c([H])c7F)c([H])c6[H])c(C(=O)N([H])[H])c5N([H])[H])C4([H])[H])c(Cl)c3C([H])([H])[H])c([H])c([H])c2C1([H])[H]

$$$$
12:0:0
     RDKit          3D

 90 98  0  0  1  0  0  0  0  0999 V2000
  -27.2870  -19.8240   18.8900 C   0  0  0  0  0  3  0  0  0  0  0  0
  -28.0800  -18.7670   19.3800 C   0  0  0  0  0  3  0  0  0  0  0  0
  -27.5600  -21.1990   19.1200 C   0  0  0  0  0  0  0  0  0  0  0  0
  -29.2540  -19.0130   20.1130 C   0  0  0  0  0  0  0  0  0  0  0  0
  -29.5350  -20.4670   20.3320 C   0  0  0  0  0  0  0  0  0  0  0  0
  -28.6830  -21.6210   19.8970 C   0  0  0  0  0  0  0  0  0  0  0  0
  -26.6220  -22.1780   18.4290 C   0  0  0  0  0  1  0  0  0  0  0  0
  -30.8560  -20.8040   21.0020 C   0  0  0  0  0  1  0  0  0  0  0  0
  -28.9810  -23.2530   20.1850 C   0  0  0  0  0  3  0  0  0  0  0  0
  -27.9740  -24.6180   19.9530 C   0  0  0  0  0  3  0  0  0  0  0  0
  -28.2270  -26.1460   20.2370 O   0  0  0  0  0  0  0  0  0  0  0  0
  -24.6100  -31.8880   23.2490 C   0  0  0  0  0  0  0  0  0  0  0  0
  -27.1770  -27.1480   20.1880 C   0  0  0  0  0  0  0  0  0  0  0  0
  -23.4120  -30.4980   21.6070 C   0  0  0  0  0  3  0  0  0  0  0  0
  -24.8550  -28.9150   20.1830 C   0  0  0  0  0  0  0  0  0  0  0  0
  -25.9720  -30.7380   21.4570 C   0  0  0  0  0  2  0  0  0  0  0  0
  -26.0390  -29.3490   20.7920 C   0  0  0  0  0  0  0  0  0  0  0  0
  -27.2000  -28.4830   20.7770 C   0  0  0  0  0  3  0  0  0  0  0  0
  -25.9640  -26.8220   19.5460 C   0  0  0  0  0  3  0  0  0  0  0  0
  -24.8310  -27.6660   19.5490 C   0  0  0  0  0  3  0  0  0  0  0  0
  -23.6340  -29.8220   20.2300 C   0  0  0  0  0  2  0  0  0  0  0  0
  -24.6850  -31.0640   22.1580 N   0  0  0  0  0  0  0  0  0  0  0  0
  -23.5220  -32.1760   23.7720 O   0  0  0  0  0  0  0  0  0  0  0  0
  -22.7260  -29.4950   22.5680 C   0  0  0  0  0  0  0  0  0  0  0  0
  -21.3970  -29.3260   22.4340 N   0  0  0  0  0  0  0  0  0  0  0  0
  -23.3900  -28.8650   23.3950 O   0  0  0  0  0  0  0  0  0  0  0  0
  -20.9180  -29.8760   21.7340 H   0  0  0  0  0  0  0  0  0  0  0  0
  -18.0100  -28.1370   22.9320 C   0  0  0  0  0  0  0  0  0  0  0  0
  -20.5690  -28.3910   23.2040 C   0  0  0  0  0  3  0  0  0  0  0  0
  -20.6680  -26.9570   22.6330 C   0  0  0  0  0  2  0  0  0  0  0  0
  -19.5690  -26.6370   21.6170 C   0  0  0  0  0  2  0  0  0  0  0  0
  -18.1850  -26.7870   22.2560 C   0  0  0  0  0  2  0  0  0  0  0  0
  -19.1290  -28.8970   23.3640 C   0  0  0  0  0  0  0  0  0  0  0  0
  -18.9080  -30.1600   23.9570 C   0  0  0  0  0  3  0  0  0  0  0  0
  -17.6020  -30.6590   24.1230 C   0  0  0  0  0  3  0  0  0  0  0  0
  -16.5000  -29.8950   23.7060 C   0  0  0  0  0  3  0  0  0  0  0  0
  -16.7040  -28.6360   23.1140 C   0  0  0  0  0  3  0  0  0  0  0  0
  -25.8870  -32.5230   23.8800 C   0  0  0  0  0  3  0  0  0  0  0  0
  -26.3830  -31.7590   25.1700 C   0  0  1  0  0  0  0  0  0  0  0  0
  -25.2750  -31.5370   26.2270 C   0  0  0  0  0  1  0  0  0  0  0  0
  -26.9610  -30.3740   24.8040 C   0  0  0  0  0  1  0  0  0  0  0  0
  -27.5340  -32.5500   25.8350 C   0  0  0  0  0  1  0  0  0  0  0  0
  -25.5800  -33.9260   24.2050 N   0  0  0  0  0  0  0  0  0  0  0  0
  -25.9120  -34.9750   23.4420 C   0  0  0  0  0  0  0  0  0  0  0  0
  -26.5740  -34.8630   22.4060 O   0  0  0  0  0  0  0  0  0  0  0  0
  -24.9940  -34.0890   25.0100 H   0  0  0  0  0  0  0  0  0  0  0  0
  -24.1950  -36.7790   23.0880 C   0  0  0  0  0  1  0  0  0  0  0  0
  -25.4390  -36.3690   23.8960 C   0  0  0  0  0  3  0  0  0  0  0  0
  -27.5810  -37.2450   24.7190 C   0  0  0  0  0  1  0  0  0  0  0  0
  -26.4780  -37.4160   23.7760 N   0  0  0  0  0  0  0  0  0  0  0  0
  -26.0790  -38.3390   23.9220 H   0  0  0  0  0  0  0  0  0  0  0  0
  -30.1560  -17.6980   20.5520 C   0  0  0  0  0  2  0  0  0  0  0  0
  -30.5260  -14.9840   20.3830 C   0  0  0  0  0  0  0  0  0  0  0  0
  -30.4140  -12.6300   19.4510 C   0  0  0  0  0  2  0  0  0  0  0  0
  -29.4850  -12.5660   18.2210 C   0  0  0  0  0  2  0  0  0  0  0  0
  -28.0160  -12.3730   18.6480 C   0  0  0  0  0  2  0  0  0  0  0  0
  -27.6030  -13.2940   19.8270 C   0  0  0  0  0  3  0  0  0  0  0  0
  -28.6610  -13.3120   20.9490 C   0  0  0  0  0  2  0  0  0  0  0  0
  -29.9260  -13.7290   20.3300 N   0  0  0  0  0  0  0  0  0  0  0  0
  -31.7370  -15.0440   20.1510 O   0  0  0  0  0  0  0  0  0  0  0  0
  -29.7540  -16.1710   20.4880 N   0  0  0  0  0  0  0  0  0  0  0  0
  -28.7700  -16.0010   20.6140 H   0  0  0  0  0  0  0  0  0  0  0  0
  -25.2210  -13.8550   20.5760 C   0  0  0  0  0  0  0  0  0  0  0  0
  -24.1600  -13.0730   20.9390 C   0  0  0  0  0  0  0  0  0  0  0  0
  -24.6330  -11.7240   20.9050 C   0  0  0  0  0  0  0  0  0  0  0  0
  -26.2690  -12.9830   20.3300 N   0  0  0  0  0  0  0  0  0  0  0  0
  -25.9240  -11.6960   20.5910 N   0  0  0  0  0  0  0  0  0  0  0  0
  -23.9130  -10.4580   21.0900 C   0  0  0  0  0  0  0  0  0  0  0  0
  -24.3550   -9.4860   22.0170 C   0  0  0  0  0  3  0  0  0  0  0  0
  -23.6350   -8.2850   22.1900 C   0  0  0  0  0  3  0  0  0  0  0  0
  -22.4570   -8.0480   21.4400 C   0  0  0  0  0  0  0  0  0  0  0  0
  -22.0370   -9.0080   20.5000 C   0  0  0  0  0  3  0  0  0  0  0  0
  -22.7570  -10.2010   20.3250 C   0  0  0  0  0  3  0  0  0  0  0  0
  -21.7110   -6.8990   21.5200 O   0  0  0  0  0  0  0  0  0  0  0  0
  -21.6670   -6.1470   22.6680 C   0  0  0  0  0  0  0  0  0  0  0  0
  -21.2290   -6.6880   23.8950 C   0  0  0  0  0  3  0  0  0  0  0  0
  -21.1330   -5.8630   25.0340 C   0  0  0  0  0  3  0  0  0  0  0  0
  -21.4690   -4.4990   24.9450 C   0  0  0  0  0  0  0  0  0  0  0  0
  -21.9020   -3.9570   23.7240 C   0  0  0  0  0  3  0  0  0  0  0  0
  -21.9980   -4.7780   22.5860 C   0  0  0  0  0  0  0  0  0  0  0  0
  -22.3970   -4.2470   21.4050 F   0  0  0  0  0  0  0  0  0  0  0  0
  -21.3690   -3.7040   26.0360 F   0  0  0  0  0  0  0  0  0  0  0  0
  -22.7600  -13.5430   21.2060 C   0  0  0  0  0  0  0  0  0  0  0  0
  -22.0350  -12.8400   22.0680 N   0  0  0  0  0  0  0  0  0  0  0  0
  -22.3170  -14.5660   20.6840 O   0  0  0  0  0  0  0  0  0  0  0  0
  -22.4110  -12.0200   22.5210 H   0  0  0  0  0  0  0  0  0  0  0  0
  -21.0920  -13.1300   22.2800 H   0  0  0  0  0  0  0  0  0  0  0  0
  -25.3760  -15.2280   20.4020 N   0  0  0  0  0  0  0  0  0  0  0  0
  -24.6030  -15.8760   20.5010 H   0  0  0  0  0  0  0  0  0  0  0  0
  -26.2050  -15.6660   20.0250 H   0  0  0  0  0  0  0  0  0  0  0  0
  1  3  2  0
  1  2  1  0
  2  4  2  0
  3  6  1  0
  4  5  1  0
  4 52  1  0
  5  8  1  0
  6  9  1  0
  6  5  2  0
  7  3  1  0
 10  9  2  0
 10 11  1  0
 12 23  2  0
 13 11  1  0
 13 18  1  0
 14 22  1  0
 14 24  1  0
 15 21  1  0
 15 17  1  0
 16 22  1  0
 17 16  1  0
 18 17  2  0
 19 20  1  0
 19 13  2  0
 20 15  2  0
 21 14  1  0
 22 12  1  0
 24 26  2  0
 25 24  1  0
 27 25  1  0
 28 37  2  0
 28 33  1  0
 29 25  1  0
 29 33  1  0
 30 29  1  0
 31 32  1  0
 31 30  1  0
 32 28  1  0
 33 34  2  0
 34 35  1  0
 36 35  2  0
 37 36  1  0
 38 12  1  0
 38 43  1  0
 38 39  1  0
 39 42  1  1
 39 40  1  0
 41 39  1  0
 43 46  1  0
 44 48  1  0
 44 43  1  0
 45 44  2  0
 48 47  1  0
 50 48  1  0
 50 51  1  0
 50 49  1  0
 53 61  1  0
 54 59  1  0
 55 56  1  0
 55 54  1  0
 57 56  1  0
 57 66  1  0
 57 58  1  0
 59 53  1  0
 59 58  1  0
 60 53  2  0
 61 52  1  0
 61 62  1  0
 63 64  2  0
 64 83  1  0
 65 64  1  0
 65 68  1  0
 66 63  1  0
 66 67  1  0
 67 65  2  0
 68 69  1  0
 69 70  2  0
 71 74  1  0
 71 70  1  0
 72 71  2  0
 73 72  1  0
 73 68  2  0
 74 75  1  0
 75 76  1  0
 76 77  2  0
 78 77  1  0
 78 82  1  0
 79 78  2  0
 80 75  2  0
 80 79  1  0
 81 80  1  0
 83 84  1  0
 84 87  1  0
 84 86  1  0
 85 83  2  0
 88 89  1  0
 88 63  1  0
 90 88  1  0
M  ISO  4  10 101  11 101  53 100  61 100
M  END
>  <TORSDO>  (13) 
F 19

>  <SCORE>  (13) 
-15.253

>  <name>  (13) 
12

>  <ligand_id>  (13) 
12

>  <original_smiles>  (13) 
[H]c1c([H])c([H])c2c(c1[H])C([H])([H])C([H])([H])C([H])([H])C2([H])N([H])C(=O)C1([H])N(C(=O)C([H])(N([H])C(=O)C([H])(N([H])C([H])([H])[H])C([H])([H])[H])C(C([H])([H])[H])(C([H])([H])[H])C([H])([H])[H])C([H])([H])c2c([H])c(OC([H])([H])C([H])([H])c3c(C([H])([H])[H])c([H])c([H])c(C([H])([H])N([H])C(=O)N4C([H])([H])C([H])([H])C([H])([H])C([H])(n5nc(-c6c([H])c([H])c(Oc7c([H])c([H])c(F)c([H])c7F)c([H])c6[H])c(C(=O)N([H])[H])c5N([H])[H])C4([H])[H])c3C([H])([H])[H])c([H])c([H])c2C1([H])[H]

>  <smiles>  (13) 
[H]c1c([H])c([H])c2c(c1[H])C([H])([H])C([H])([H])C([H])([H])C2([H])N([H])C(=O)C1([H])N(C(=O)C([H])(N([H])C(=O)C([H])(N([H])C([H])([H])[H])C([H])([H])[H])C(C([H])([H])[H])(C([H])([H])[H])C([H])([H])[H])C([H])([H])c2c([H])c(OC([H])([H])C([H])([H])c3c(C([H])([H])[H])c([H])c([H])c(C([H])([H])N([H])C(=O)N4C([H])([H])C([H])([H])C([H])([H])C([H])(n5nc(-c6c([H])c([H])c(Oc7c([H])c([H])c(F)c([H])c7F)c([H])c6[H])c(C(=O)N([H])[H])c5N([H])[H])C4([H])[H])c3C([H])([H])[H])c([H])c([H])c2C1([H])[H]

$$$$
13:0:0
     RDKit          3D

 90 98  0  0  1  0  0  0  0  0999 V2000
  -26.3930  -23.8550   20.1870 C   0  0  0  0  0  3  0  0  0  0  0  0
  -26.9180  -21.2950   19.5050 C   0  0  0  0  0  3  0  0  0  0  0  0
  -27.7560  -23.5000   20.2690 C   0  0  0  0  0  0  0  0  0  0  0  0
  -28.0380  -22.0090   20.0080 C   0  0  0  0  0  0  0  0  0  0  0  0
  -25.4020  -22.9970   19.7180 C   0  0  0  0  0  0  0  0  0  0  0  0
  -23.9560  -23.4400   19.6280 C   0  0  0  0  0  1  0  0  0  0  0  0
  -25.6660  -21.7470   19.3400 N   0  0  0  0  0  0  0  0  0  0  0  0
  -29.2950  -20.9320   20.1770 C   0  0  0  0  0  2  0  0  0  0  0  0
  -29.0870  -19.2180   20.0880 C   0  0  0  0  0  3  0  0  0  0  0  0
  -30.2070  -17.9430   20.2240 C   0  0  0  0  0  3  0  0  0  0  0  0
  -30.6260  -15.1890   20.1330 C   0  0  0  0  0  0  0  0  0  0  0  0
  -30.5060  -12.8160   19.2280 C   0  0  0  0  0  2  0  0  0  0  0  0
  -29.5640  -12.7390   18.0040 C   0  0  0  0  0  2  0  0  0  0  0  0
  -28.1040  -12.5320   18.4510 C   0  0  0  0  0  2  0  0  0  0  0  0
  -27.7040  -13.4780   19.6130 C   0  0  0  0  0  3  0  0  0  0  0  0
  -28.7670  -13.5170   20.7310 C   0  0  0  0  0  2  0  0  0  0  0  0
  -30.0290  -13.9280   20.1030 N   0  0  0  0  0  0  0  0  0  0  0  0
  -31.8280  -15.2420   19.8480 O   0  0  0  0  0  0  0  0  0  0  0  0
  -29.8550  -16.3860   20.2770 N   0  0  0  0  0  0  0  0  0  0  0  0
  -28.8800  -16.1950   20.4560 H   0  0  0  0  0  0  0  0  0  0  0  0
  -25.3370  -14.0690   20.3820 C   0  0  0  0  0  0  0  0  0  0  0  0
  -24.2730  -13.3000   20.7630 C   0  0  0  0  0  0  0  0  0  0  0  0
  -24.7290  -11.9450   20.7250 C   0  0  0  0  0  0  0  0  0  0  0  0
  -26.3720  -13.1840   20.1280 N   0  0  0  0  0  0  0  0  0  0  0  0
  -26.0160  -11.9020   20.4000 N   0  0  0  0  0  0  0  0  0  0  0  0
  -23.9970  -10.6880   20.9200 C   0  0  0  0  0  0  0  0  0  0  0  0
  -24.4060   -9.7350   21.8790 C   0  0  0  0  0  3  0  0  0  0  0  0
  -23.6710   -8.5420   22.0610 C   0  0  0  0  0  3  0  0  0  0  0  0
  -22.5140   -8.2950   21.2850 C   0  0  0  0  0  0  0  0  0  0  0  0
  -22.1240   -9.2370   20.3170 C   0  0  0  0  0  3  0  0  0  0  0  0
  -22.8590  -10.4200   20.1330 C   0  0  0  0  0  3  0  0  0  0  0  0
  -21.7530   -7.1550   21.3760 O   0  0  0  0  0  0  0  0  0  0  0  0
  -21.6460   -6.4530   22.5500 C   0  0  0  0  0  0  0  0  0  0  0  0
  -21.1390   -7.0440   23.7280 C   0  0  0  0  0  3  0  0  0  0  0  0
  -20.9810   -6.2670   24.8930 C   0  0  0  0  0  3  0  0  0  0  0  0
  -21.3190   -4.9010   24.8800 C   0  0  0  0  0  0  0  0  0  0  0  0
  -21.8190   -4.3100   23.7080 C   0  0  0  0  0  3  0  0  0  0  0  0
  -21.9790   -5.0830   22.5440 C   0  0  0  0  0  0  0  0  0  0  0  0
  -22.4400   -4.5030   21.4100 F   0  0  0  0  0  0  0  0  0  0  0  0
  -21.1610   -4.1520   25.9980 F   0  0  0  0  0  0  0  0  0  0  0  0
  -22.8820  -13.7860   21.0470 C   0  0  0  0  0  0  0  0  0  0  0  0
  -22.1610  -13.1000   21.9270 N   0  0  0  0  0  0  0  0  0  0  0  0
  -22.4430  -14.8080   20.5220 O   0  0  0  0  0  0  0  0  0  0  0  0
  -22.5290  -12.2730   22.3730 H   0  0  0  0  0  0  0  0  0  0  0  0
  -21.2280  -13.4080   22.1600 H   0  0  0  0  0  0  0  0  0  0  0  0
  -25.5060  -15.4390   20.2020 N   0  0  0  0  0  0  0  0  0  0  0  0
  -24.7380  -16.0910   20.3170 H   0  0  0  0  0  0  0  0  0  0  0  0
  -26.3380  -15.8710   19.8240 H   0  0  0  0  0  0  0  0  0  0  0  0
  -28.5620  -24.8330   20.7990 C   0  0  0  0  0  2  0  0  0  0  0  0
  -28.3850  -26.3600   20.3940 O   0  0  0  0  0  0  0  0  0  0  0  0
  -24.6200  -32.0270   23.3910 C   0  0  0  0  0  0  0  0  0  0  0  0
  -27.2790  -27.2910   20.4510 C   0  0  0  0  0  0  0  0  0  0  0  0
  -23.4630  -30.6200   21.7310 C   0  0  0  0  0  3  0  0  0  0  0  0
  -24.9480  -29.0440   20.3470 C   0  0  0  0  0  0  0  0  0  0  0  0
  -26.0180  -30.8910   21.6240 C   0  0  0  0  0  2  0  0  0  0  0  0
  -26.1100  -29.4890   20.9910 C   0  0  0  0  0  0  0  0  0  0  0  0
  -27.2750  -28.6290   21.0270 C   0  0  0  0  0  3  0  0  0  0  0  0
  -26.1110  -26.9790   19.7230 C   0  0  0  0  0  3  0  0  0  0  0  0
  -24.9630  -27.8000   19.6970 C   0  0  0  0  0  3  0  0  0  0  0  0
  -23.7190  -29.9380   20.3590 C   0  0  0  0  0  2  0  0  0  0  0  0
  -24.7190  -31.2040   22.3020 N   0  0  0  0  0  0  0  0  0  0  0  0
  -23.5210  -32.3070   23.8940 O   0  0  0  0  0  0  0  0  0  0  0  0
  -22.7710  -29.6100   22.6810 C   0  0  0  0  0  0  0  0  0  0  0  0
  -21.4490  -29.4200   22.5180 N   0  0  0  0  0  0  0  0  0  0  0  0
  -23.4270  -29.0010   23.5290 O   0  0  0  0  0  0  0  0  0  0  0  0
  -20.9760  -29.9640   21.8100 H   0  0  0  0  0  0  0  0  0  0  0  0
  -18.0690  -28.1950   22.9570 C   0  0  0  0  0  0  0  0  0  0  0  0
  -20.6200  -28.4770   23.2730 C   0  0  0  0  0  3  0  0  0  0  0  0
  -20.7430  -27.0450   22.7020 C   0  0  0  0  0  2  0  0  0  0  0  0
  -19.6640  -26.7130   21.6670 C   0  0  0  0  0  2  0  0  0  0  0  0
  -18.2690  -26.8480   22.2840 C   0  0  0  0  0  2  0  0  0  0  0  0
  -19.1720  -28.9670   23.4080 C   0  0  0  0  0  0  0  0  0  0  0  0
  -18.9310  -30.2260   23.9980 C   0  0  0  0  0  3  0  0  0  0  0  0
  -17.6190  -30.7150   24.1420 C   0  0  0  0  0  3  0  0  0  0  0  0
  -16.5290  -29.9410   23.7070 C   0  0  0  0  0  3  0  0  0  0  0  0
  -16.7540  -28.6830   23.1200 C   0  0  0  0  0  3  0  0  0  0  0  0
  -25.8800  -32.6740   24.0410 C   0  0  0  0  0  3  0  0  0  0  0  0
  -26.3350  -31.9460   25.3660 C   0  0  1  0  0  0  0  0  0  0  0  0
  -25.1930  -31.7460   26.3900 C   0  0  0  0  0  1  0  0  0  0  0  0
  -26.9330  -30.5550   25.0540 C   0  0  0  0  0  1  0  0  0  0  0  0
  -27.4550  -32.7630   26.0530 C   0  0  0  0  0  1  0  0  0  0  0  0
  -25.5700  -34.0860   24.3140 N   0  0  0  0  0  0  0  0  0  0  0  0
  -25.9170  -35.1120   23.5260 C   0  0  0  0  0  0  0  0  0  0  0  0
  -26.5990  -34.9700   22.5070 O   0  0  0  0  0  0  0  0  0  0  0  0
  -24.9640  -34.2710   25.1010 H   0  0  0  0  0  0  0  0  0  0  0  0
  -24.1890  -36.8950   23.1080 C   0  0  0  0  0  1  0  0  0  0  0  0
  -25.4340  -36.5200   23.9290 C   0  0  0  0  0  3  0  0  0  0  0  0
  -27.5690  -37.4410   24.7180 C   0  0  0  0  0  1  0  0  0  0  0  0
  -26.4670  -37.5670   23.7690 N   0  0  0  0  0  0  0  0  0  0  0  0
  -26.0610  -38.4930   23.8750 H   0  0  0  0  0  0  0  0  0  0  0  0
  1  3  1  0
  2  4  1  0
  3 49  1  0
  4  8  1  0
  4  3  2  0
  5  1  2  0
  6  5  1  0
  7  2  2  0
  7  5  1  0
  9  8  1  0
  9 10  2  0
 10 19  1  0
 11 19  1  0
 12 17  1  0
 13 14  1  0
 13 12  1  0
 15 14  1  0
 15 24  1  0
 15 16  1  0
 17 11  1  0
 17 16  1  0
 18 11  2  0
 19 20  1  0
 21 22  2  0
 22 41  1  0
 23 22  1  0
 23 26  1  0
 24 21  1  0
 24 25  1  0
 25 23  2  0
 26 27  1  0
 27 28  2  0
 29 32  1  0
 29 28  1  0
 30 29  2  0
 31 30  1  0
 31 26  2  0
 32 33  1  0
 33 34  1  0
 34 35  2  0
 36 35  1  0
 36 40  1  0
 37 36  2  0
 38 33  2  0
 38 37  1  0
 39 38  1  0
 41 42  1  0
 42 45  1  0
 42 44  1  0
 43 41  2  0
 46 47  1  0
 46 21  1  0
 48 46  1  0
 50 52  1  0
 50 49  1  0
 51 62  2  0
 52 57  1  0
 53 61  1  0
 53 63  1  0
 54 60  1  0
 54 56  1  0
 55 61  1  0
 56 57  2  0
 56 55  1  0
 58 52  2  0
 59 58  1  0
 59 54  2  0
 60 53  1  0
 61 51  1  0
 63 65  2  0
 64 63  1  0
 66 64  1  0
 67 76  2  0
 67 72  1  0
 68 64  1  0
 68 72  1  0
 69 68  1  0
 70 71  1  0
 70 69  1  0
 71 67  1  0
 72 73  2  0
 73 74  1  0
 75 74  2  0
 76 75  1  0
 77 51  1  0
 77 82  1  0
 77 78  1  0
 78 81  1  1
 78 79  1  0
 80 78  1  0
 82 85  1  0
 83 87  1  0
 83 82  1  0
 84 83  2  0
 87 86  1  0
 89 90  1  0
 89 87  1  0
 89 88  1  0
M  ISO  4  11 100  19 100  49 101  50 101
M  END
>  <TORSDO>  (14) 
F 20

>  <SCORE>  (14) 
-14.324

>  <name>  (14) 
13

>  <ligand_id>  (14) 
13

>  <original_smiles>  (14) 
[H]c1nc(C([H])([H])[H])c([H])c(C([H])([H])Oc2c([H])c([H])c3c(c2[H])C([H])([H])N(C(=O)C([H])(N([H])C(=O)C([H])(N([H])C([H])([H])[H])C([H])([H])[H])C(C([H])([H])[H])(C([H])([H])[H])C([H])([H])[H])C([H])(C(=O)N([H])C2([H])c4c([H])c([H])c([H])c([H])c4C([H])([H])C([H])([H])C2([H])[H])C3([H])[H])c1C([H])([H])C([H])([H])C([H])([H])N([H])C(=O)N1C([H])([H])C([H])([H])C([H])([H])C([H])(n2nc(-c3c([H])c([H])c(Oc4c([H])c([H])c(F)c([H])c4F)c([H])c3[H])c(C(=O)N([H])[H])c2N([H])[H])C1([H])[H]

>  <smiles>  (14) 
[H]c1nc(C([H])([H])[H])c([H])c(C([H])([H])Oc2c([H])c([H])c3c(c2[H])C([H])([H])N(C(=O)C([H])(N([H])C(=O)C([H])(N([H])C([H])([H])[H])C([H])([H])[H])C(C([H])([H])[H])(C([H])([H])[H])C([H])([H])[H])C([H])(C(=O)N([H])C2([H])c4c([H])c([H])c([H])c([H])c4C([H])([H])C([H])([H])C2([H])[H])C3([H])[H])c1C([H])([H])C([H])([H])C([H])([H])N([H])C(=O)N1C([H])([H])C([H])([H])C([H])([H])C([H])(n2nc(-c3c([H])c([H])c(Oc4c([H])c([H])c(F)c([H])c4F)c([H])c3[H])c(C(=O)N([H])[H])c2N([H])[H])C1([H])[H]

$$$$
14:0:0
     RDKit          3D

 96104  0  0  1  0  0  0  0  0999 V2000
  -31.9930  -24.5280   20.0100 C   0  0  0  0  0  3  0  0  0  0  0  0
  -31.4160  -23.4750   19.3680 C   0  0  0  0  0  0  0  0  0  0  0  0
  -30.1600  -23.9360   18.8600 C   0  0  0  0  0  0  0  0  0  0  0  0
  -30.0080  -25.2510   19.2340 C   0  0  0  0  0  0  0  0  0  0  0  0
  -29.1580  -23.1270   18.0700 C   0  0  0  0  0  1  0  0  0  0  0  0
  -31.1310  -25.6000   19.9880 N   0  0  0  0  0  0  0  0  0  0  0  0
  -31.3710  -26.6410   22.1990 C   0  0  0  0  0  1  0  0  0  0  0  0
  -31.4330  -26.8440   20.6760 C   0  0  0  0  0  2  0  0  0  0  0  0
  -32.0240  -22.0980   19.2770 C   0  0  0  0  0  2  0  0  0  0  0  0
  -31.4750  -21.2570   20.3520 N   0  0  0  0  0  4  0  0  0  0  0  0
  -30.4770  -21.3930   20.3580 H   0  0  0  0  0  0  0  0  0  0  0  0
  -31.8370  -21.5900   21.2300 H   0  0  0  0  0  0  0  0  0  0  0  0
  -31.7700  -19.8200   20.1900 C   0  0  0  0  0  2  0  0  0  0  0  0
  -31.1460  -18.9500   21.2970 C   0  0  0  0  0  2  0  0  0  0  0  0
  -30.8020  -17.5460   20.7850 C   0  0  0  0  0  2  0  0  0  0  0  0
  -30.6870  -16.4950   21.9010 C   0  0  0  0  0  2  0  0  0  0  0  0
  -30.6950  -14.4000   20.5450 C   0  0  0  0  0  0  0  0  0  0  0  0
  -30.3530  -12.3560   19.2180 C   0  0  0  0  0  2  0  0  0  0  0  0
  -29.4150  -12.6460   18.0300 C   0  0  0  0  0  2  0  0  0  0  0  0
  -27.9370  -12.5140   18.4490 C   0  0  0  0  0  2  0  0  0  0  0  0
  -27.6140  -13.2780   19.7600 C   0  0  0  0  0  3  0  0  0  0  0  0
  -28.6550  -12.9490   20.8500 C   0  0  0  0  0  2  0  0  0  0  0  0
  -29.9910  -13.2670   20.3100 N   0  0  0  0  0  0  0  0  0  0  0  0
  -31.7630  -14.6650   19.9870 O   0  0  0  0  0  0  0  0  0  0  0  0
  -30.1250  -15.2380   21.4190 N   0  0  0  0  0  0  0  0  0  0  0  0
  -29.2360  -14.9530   21.8020 H   0  0  0  0  0  0  0  0  0  0  0  0
  -25.1950  -13.8750   20.4110 C   0  0  0  0  0  0  0  0  0  0  0  0
  -24.1320  -13.0980   20.7810 C   0  0  0  0  0  0  0  0  0  0  0  0
  -24.6100  -11.7520   20.7830 C   0  0  0  0  0  0  0  0  0  0  0  0
  -26.2540  -13.0020   20.2180 N   0  0  0  0  0  0  0  0  0  0  0  0
  -25.9030  -11.7200   20.4930 N   0  0  0  0  0  0  0  0  0  0  0  0
  -23.8950  -10.4860   20.9870 C   0  0  0  0  0  0  0  0  0  0  0  0
  -24.3340   -9.5370   21.9370 C   0  0  0  0  0  3  0  0  0  0  0  0
  -23.6210   -8.3340   22.1300 C   0  0  0  0  0  3  0  0  0  0  0  0
  -22.4540   -8.0720   21.3720 C   0  0  0  0  0  0  0  0  0  0  0  0
  -22.0380   -9.0090   20.4110 C   0  0  0  0  0  3  0  0  0  0  0  0
  -22.7510  -10.2030   20.2180 C   0  0  0  0  0  3  0  0  0  0  0  0
  -21.7130   -6.9200   21.4700 O   0  0  0  0  0  0  0  0  0  0  0  0
  -21.6760   -6.1850   22.6290 C   0  0  0  0  0  0  0  0  0  0  0  0
  -21.2530   -6.7450   23.8540 C   0  0  0  0  0  3  0  0  0  0  0  0
  -21.1660   -5.9380   25.0060 C   0  0  0  0  0  3  0  0  0  0  0  0
  -21.4890   -4.5690   24.9320 C   0  0  0  0  0  0  0  0  0  0  0  0
  -21.9040   -4.0090   23.7110 C   0  0  0  0  0  3  0  0  0  0  0  0
  -21.9960   -4.8130   22.5630 C   0  0  0  0  0  0  0  0  0  0  0  0
  -22.3760   -4.2640   21.3850 F   0  0  0  0  0  0  0  0  0  0  0  0
  -21.3970   -3.7920   26.0350 F   0  0  0  0  0  0  0  0  0  0  0  0
  -22.7260  -13.5650   21.0340 C   0  0  0  0  0  0  0  0  0  0  0  0
  -22.0010  -12.8690   21.9020 N   0  0  0  0  0  0  0  0  0  0  0  0
  -22.2830  -14.5780   20.4970 O   0  0  0  0  0  0  0  0  0  0  0  0
  -22.3760  -12.0480   22.3550 H   0  0  0  0  0  0  0  0  0  0  0  0
  -21.0570  -13.1570   22.1160 H   0  0  0  0  0  0  0  0  0  0  0  0
  -25.3510  -15.2440   20.2050 N   0  0  0  0  0  0  0  0  0  0  0  0
  -24.5840  -15.9000   20.2930 H   0  0  0  0  0  0  0  0  0  0  0  0
  -26.2100  -15.6770   19.8880 H   0  0  0  0  0  0  0  0  0  0  0  0
  -28.8760  -26.1960   18.8960 C   0  0  0  0  0  2  0  0  0  0  0  0
  -28.3950  -26.7760   20.1050 O   0  0  0  0  0  0  0  0  0  0  0  0
  -24.5180  -31.8500   23.1830 C   0  0  0  0  0  0  0  0  0  0  0  0
  -27.2080  -27.4750   20.0570 C   0  0  0  0  0  0  0  0  0  0  0  0
  -23.3180  -30.4580   21.5210 C   0  0  0  0  0  3  0  0  0  0  0  0
  -24.7860  -28.9410   20.0850 C   0  0  0  0  0  0  0  0  0  0  0  0
  -25.8420  -30.8330   21.3380 C   0  0  0  0  0  2  0  0  0  0  0  0
  -25.9340  -29.4690   20.6880 C   0  0  0  0  0  0  0  0  0  0  0  0
  -27.1400  -28.7370   20.6810 C   0  0  0  0  0  3  0  0  0  0  0  0
  -26.0380  -26.9450   19.4610 C   0  0  0  0  0  3  0  0  0  0  0  0
  -24.8310  -27.6740   19.4740 C   0  0  0  0  0  3  0  0  0  0  0  0
  -23.5340  -29.7890   20.1360 C   0  0  0  0  0  2  0  0  0  0  0  0
  -24.5750  -31.0620   22.0720 N   0  0  0  0  0  0  0  0  0  0  0  0
  -23.4360  -32.1160   23.7230 O   0  0  0  0  0  0  0  0  0  0  0  0
  -22.6670  -29.4290   22.4740 C   0  0  0  0  0  0  0  0  0  0  0  0
  -21.3440  -29.2460   22.3400 N   0  0  0  0  0  0  0  0  0  0  0  0
  -23.3490  -28.8000   23.2860 O   0  0  0  0  0  0  0  0  0  0  0  0
  -20.8540  -29.8050   21.6560 H   0  0  0  0  0  0  0  0  0  0  0  0
  -17.9710  -28.0440   22.8190 C   0  0  0  0  0  0  0  0  0  0  0  0
  -20.5270  -28.3020   23.1030 C   0  0  0  0  0  3  0  0  0  0  0  0
  -20.6340  -26.8760   22.5190 C   0  0  0  0  0  2  0  0  0  0  0  0
  -19.5380  -26.5600   21.4960 C   0  0  0  0  0  2  0  0  0  0  0  0
  -18.1520  -26.7000   22.1330 C   0  0  0  0  0  2  0  0  0  0  0  0
  -19.0870  -28.8040   23.2600 C   0  0  0  0  0  0  0  0  0  0  0  0
  -18.8650  -30.0620   23.8590 C   0  0  0  0  0  3  0  0  0  0  0  0
  -17.5600  -30.5610   24.0260 C   0  0  0  0  0  3  0  0  0  0  0  0
  -16.4580  -29.7980   23.6020 C   0  0  0  0  0  3  0  0  0  0  0  0
  -16.6650  -28.5420   23.0050 C   0  0  0  0  0  3  0  0  0  0  0  0
  -25.8030  -32.4770   23.8090 C   0  0  0  0  0  3  0  0  0  0  0  0
  -25.4940  -33.8730   24.1460 N   0  0  0  0  0  0  0  0  0  0  0  0
  -25.8360  -34.9300   23.3980 C   0  0  0  0  0  0  0  0  0  0  0  0
  -26.5180  -34.8340   22.3750 O   0  0  0  0  0  0  0  0  0  0  0  0
  -24.8910  -34.0220   24.9410 H   0  0  0  0  0  0  0  0  0  0  0  0
  -24.1190  -36.7320   23.0290 C   0  0  0  0  0  1  0  0  0  0  0  0
  -25.3430  -36.3150   23.8600 C   0  0  0  0  0  3  0  0  0  0  0  0
  -27.4680  -37.1810   24.7380 C   0  0  0  0  0  1  0  0  0  0  0  0
  -26.3800  -37.3670   23.7800 N   0  0  0  0  0  0  0  0  0  0  0  0
  -25.9720  -38.2840   23.9390 H   0  0  0  0  0  0  0  0  0  0  0  0
  -26.3220  -31.6970   25.0790 C   0  0  1  0  0  0  0  0  0  0  0  0
  -25.2320  -31.4530   26.1470 C   0  0  0  0  0  1  0  0  0  0  0  0
  -26.9040  -30.3210   24.6770 C   0  0  0  0  0  1  0  0  0  0  0  0
  -27.4720  -32.4880   25.7470 C   0  0  0  0  0  1  0  0  0  0  0  0
  2  1  2  0
  3  4  2  0
  3  2  1  0
  4  6  1  0
  5  3  1  0
  6  1  1  0
  6  8  1  0
  8  7  1  0
  9  2  1  0
  9 10  1  0
 10 11  1  0
 10 12  1  0
 13 10  1  0
 13 14  1  0
 15 14  1  0
 15 16  1  0
 17 25  1  0
 18 23  1  0
 19 20  1  0
 19 18  1  0
 21 20  1  0
 21 30  1  0
 21 22  1  0
 23 17  1  0
 23 22  1  0
 24 17  2  0
 25 26  1  0
 25 16  1  0
 27 28  2  0
 28 29  1  0
 28 47  1  0
 29 32  1  0
 30 27  1  0
 30 31  1  0
 31 29  2  0
 32 33  1  0
 33 34  2  0
 35 38  1  0
 35 34  1  0
 36 35  2  0
 37 36  1  0
 37 32  2  0
 38 39  1  0
 39 40  1  0
 40 41  2  0
 42 41  1  0
 42 46  1  0
 43 42  2  0
 44 39  2  0
 44 43  1  0
 45 44  1  0
 47 48  1  0
 48 51  1  0
 48 50  1  0
 49 47  2  0
 52 53  1  0
 52 27  1  0
 54 52  1  0
 55  4  1  0
 55 56  1  0
 57 68  2  0
 58 56  1  0
 58 63  1  0
 59 67  1  0
 59 69  1  0
 60 66  1  0
 60 62  1  0
 61 67  1  0
 62 61  1  0
 63 62  2  0
 64 65  1  0
 64 58  2  0
 65 60  2  0
 66 59  1  0
 67 57  1  0
 69 71  2  0
 70 69  1  0
 72 70  1  0
 73 82  2  0
 73 78  1  0
 74 70  1  0
 74 78  1  0
 75 74  1  0
 76 77  1  0
 76 75  1  0
 77 73  1  0
 78 79  2  0
 79 80  1  0
 81 80  2  0
 82 81  1  0
 83 57  1  0
 83 84  1  0
 83 93  1  0
 84 87  1  0
 85 89  1  0
 85 84  1  0
 86 85  2  0
 89 88  1  0
 91 89  1  0
 91 92  1  0
 91 90  1  0
 93 96  1  1
 93 94  1  0
 95 93  1  0
M  ISO  4  17 100  25 100  55 101  56 101
M  END
>  <TORSDO>  (15) 
F 24

>  <SCORE>  (15) 
-12.371

>  <name>  (15) 
14

>  <ligand_id>  (15) 
14

>  <original_smiles>  (15) 
[H]c1c([H])c([H])c2c(c1[H])C([H])([H])C([H])([H])C([H])([H])C2([H])N([H])C(=O)C1([H])N(C(=O)C([H])(N([H])C(=O)C([H])(N([H])C([H])([H])[H])C([H])([H])[H])C(C([H])([H])[H])(C([H])([H])[H])C([H])([H])[H])C([H])([H])c2c([H])c(OC([H])([H])c3c(C([H])([H])[H])c(C([H])([H])[N+]([H])([H])C([H])([H])C([H])([H])C([H])([H])C([H])([H])N([H])C(=O)N4C([H])([H])C([H])([H])C([H])([H])C([H])(n5nc(-c6c([H])c([H])c(Oc7c([H])c([H])c(F)c([H])c7F)c([H])c6[H])c(C(=O)N([H])[H])c5N([H])[H])C4([H])[H])c([H])n3C([H])([H])C([H])([H])[H])c([H])c([H])c2C1([H])[H]

>  <smiles>  (15) 
[H]c1c([H])c([H])c2c(c1[H])C([H])([H])C([H])([H])C([H])([H])C2([H])N([H])C(=O)C1([H])N(C(=O)C([H])(N([H])C(=O)C([H])(N([H])C([H])([H])[H])C([H])([H])[H])C(C([H])([H])[H])(C([H])([H])[H])C([H])([H])[H])C([H])([H])c2c([H])c(OC([H])([H])c3c(C([H])([H])[H])c(C([H])([H])[N+]([H])([H])C([H])([H])C([H])([H])C([H])([H])C([H])([H])N([H])C(=O)N4C([H])([H])C([H])([H])C([H])([H])C([H])(n5nc(-c6c([H])c([H])c(Oc7c([H])c([H])c(F)c([H])c7F)c([H])c6[H])c(C(=O)N([H])[H])c5N([H])[H])C4([H])[H])c([H])n3C([H])([H])C([H])([H])[H])c([H])c([H])c2C1([H])[H]

$$$$
15:0:0
     RDKit          3D

 91 99  0  0  1  0  0  0  0  0999 V2000
  -28.7670  -21.2530   19.3510 C   0  0  0  0  0  2  0  0  0  0  0  0
  -29.6380  -19.9010   19.3480 C   0  0  0  0  0  2  0  0  0  0  0  0
  -29.5170  -21.6970   21.5990 C   0  0  0  0  0  2  0  0  0  0  0  0
  -29.3170  -22.4370   20.2300 C   0  0  0  0  0  3  0  0  0  0  0  0
  -29.8590  -19.1440   20.7210 C   0  0  0  0  0  3  0  0  0  0  0  0
  -30.3690  -20.3510   21.6230 C   0  0  0  0  0  3  0  0  0  0  0  0
  -30.5530  -19.9200   23.0890 C   0  0  0  0  0  1  0  0  0  0  0  0
  -28.4980  -23.8690   20.4070 C   0  0  0  0  0  2  0  0  0  0  0  0
  -28.4910  -25.1410   19.3860 C   0  0  0  0  0  2  0  0  0  0  0  0
  -28.4340  -26.5920   19.8370 O   0  0  0  0  0  0  0  0  0  0  0  0
  -24.7000  -31.9300   23.0830 C   0  0  0  0  0  0  0  0  0  0  0  0
  -27.2930  -27.4330   19.8310 C   0  0  0  0  0  0  0  0  0  0  0  0
  -23.4720  -30.5440   21.4510 C   0  0  0  0  0  3  0  0  0  0  0  0
  -24.9050  -29.0440   19.9400 C   0  0  0  0  0  0  0  0  0  0  0  0
  -26.0040  -30.8940   21.2060 C   0  0  0  0  0  2  0  0  0  0  0  0
  -26.0850  -29.5290   20.5140 C   0  0  0  0  0  0  0  0  0  0  0  0
  -27.2750  -28.7340   20.4510 C   0  0  0  0  0  3  0  0  0  0  0  0
  -26.0820  -27.0140   19.2370 C   0  0  0  0  0  3  0  0  0  0  0  0
  -24.9090  -27.7970   19.2940 C   0  0  0  0  0  3  0  0  0  0  0  0
  -23.6590  -29.9020   20.0470 C   0  0  0  0  0  2  0  0  0  0  0  0
  -24.7450  -31.1430   21.9680 N   0  0  0  0  0  0  0  0  0  0  0  0
  -23.6290  -32.1750   23.6590 O   0  0  0  0  0  0  0  0  0  0  0  0
  -22.8590  -29.4950   22.4100 C   0  0  0  0  0  0  0  0  0  0  0  0
  -21.5330  -29.2860   22.3150 N   0  0  0  0  0  0  0  0  0  0  0  0
  -23.5730  -28.8760   23.2020 O   0  0  0  0  0  0  0  0  0  0  0  0
  -21.0130  -29.8420   21.6500 H   0  0  0  0  0  0  0  0  0  0  0  0
  -18.2090  -27.9630   22.8580 C   0  0  0  0  0  0  0  0  0  0  0  0
  -20.7600  -28.3130   23.0930 C   0  0  0  0  0  3  0  0  0  0  0  0
  -20.9060  -26.8900   22.5100 C   0  0  0  0  0  2  0  0  0  0  0  0
  -19.8040  -26.5320   21.5080 C   0  0  0  0  0  2  0  0  0  0  0  0
  -18.4260  -26.6260   22.1710 C   0  0  0  0  0  2  0  0  0  0  0  0
  -19.3060  -28.7620   23.2780 C   0  0  0  0  0  0  0  0  0  0  0  0
  -19.0500  -30.0110   23.8850 C   0  0  0  0  0  3  0  0  0  0  0  0
  -17.7300  -30.4630   24.0710 C   0  0  0  0  0  3  0  0  0  0  0  0
  -16.6480  -29.6610   23.6680 C   0  0  0  0  0  3  0  0  0  0  0  0
  -16.8880  -28.4120   23.0670 C   0  0  0  0  0  3  0  0  0  0  0  0
  -25.9890  -32.5760   23.6740 C   0  0  0  0  0  3  0  0  0  0  0  0
  -25.6620  -33.9590   24.0550 N   0  0  0  0  0  0  0  0  0  0  0  0
  -25.9600  -35.0430   23.3260 C   0  0  0  0  0  0  0  0  0  0  0  0
  -26.6100  -34.9850   22.2780 O   0  0  0  0  0  0  0  0  0  0  0  0
  -25.0840  -34.0750   24.8750 H   0  0  0  0  0  0  0  0  0  0  0  0
  -24.2000  -36.8180   23.0560 C   0  0  0  0  0  1  0  0  0  0  0  0
  -25.4590  -36.4070   23.8360 C   0  0  0  0  0  3  0  0  0  0  0  0
  -27.5920  -37.2980   24.6680 C   0  0  0  0  0  1  0  0  0  0  0  0
  -26.4730  -37.4800   23.7440 N   0  0  0  0  0  0  0  0  0  0  0  0
  -26.0560  -38.3880   23.9300 H   0  0  0  0  0  0  0  0  0  0  0  0
  -26.5680  -31.7870   24.9110 C   0  0  1  0  0  0  0  0  0  0  0  0
  -25.5200  -31.5050   26.0120 C   0  0  0  0  0  1  0  0  0  0  0  0
  -27.1610  -30.4290   24.4700 C   0  0  0  0  0  1  0  0  0  0  0  0
  -27.7300  -32.5860   25.5470 C   0  0  0  0  0  1  0  0  0  0  0  0
  -30.8260  -17.7860   20.8280 C   0  0  0  0  0  2  0  0  0  0  0  0
  -31.2870  -15.2360   20.5890 C   0  0  0  0  0  0  0  0  0  0  0  0
  -31.1390  -12.8830   19.7590 C   0  0  0  0  0  2  0  0  0  0  0  0
  -30.2840  -12.8210   18.4770 C   0  0  0  0  0  2  0  0  0  0  0  0
  -28.7920  -12.6640   18.8260 C   0  0  0  0  0  2  0  0  0  0  0  0
  -28.3290  -13.6330   19.9460 C   0  0  0  0  0  3  0  0  0  0  0  0
  -29.3150  -13.6890   21.1280 C   0  0  0  0  0  2  0  0  0  0  0  0
  -30.6220  -14.0230   20.5520 N   0  0  0  0  0  0  0  0  0  0  0  0
  -32.5210  -15.2130   20.6370 O   0  0  0  0  0  0  0  0  0  0  0  0
  -30.6730  -16.4200   20.0970 N   0  0  0  0  0  0  0  0  0  0  0  0
  -25.9220  -14.2830   20.5340 C   0  0  0  0  0  0  0  0  0  0  0  0
  -24.8130  -13.5350   20.8220 C   0  0  0  0  0  0  0  0  0  0  0  0
  -25.2410  -12.1730   20.8120 C   0  0  0  0  0  0  0  0  0  0  0  0
  -26.9540  -13.3770   20.3620 N   0  0  0  0  0  0  0  0  0  0  0  0
  -26.5500  -12.1030   20.5960 N   0  0  0  0  0  0  0  0  0  0  0  0
  -24.4710  -10.9300   20.9410 C   0  0  0  0  0  0  0  0  0  0  0  0
  -24.8120   -9.9460   21.8950 C   0  0  0  0  0  3  0  0  0  0  0  0
  -24.0420   -8.7680   22.0150 C   0  0  0  0  0  3  0  0  0  0  0  0
  -22.9180   -8.5650   21.1790 C   0  0  0  0  0  0  0  0  0  0  0  0
  -22.5950   -9.5400   20.2180 C   0  0  0  0  0  3  0  0  0  0  0  0
  -23.3640  -10.7080   20.0970 C   0  0  0  0  0  3  0  0  0  0  0  0
  -22.1280   -7.4400   21.2050 O   0  0  0  0  0  0  0  0  0  0  0  0
  -21.9560   -6.7110   22.3540 C   0  0  0  0  0  0  0  0  0  0  0  0
  -21.4530   -7.2940   23.5380 C   0  0  0  0  0  3  0  0  0  0  0  0
  -21.2250   -6.4910   24.6730 C   0  0  0  0  0  3  0  0  0  0  0  0
  -21.4930   -5.1090   24.6260 C   0  0  0  0  0  0  0  0  0  0  0  0
  -21.9910   -4.5280   23.4470 C   0  0  0  0  0  3  0  0  0  0  0  0
  -22.2200   -5.3270   22.3130 C   0  0  0  0  0  0  0  0  0  0  0  0
  -22.6780   -4.7590   21.1720 F   0  0  0  0  0  0  0  0  0  0  0  0
  -21.2670   -4.3370   25.7140 F   0  0  0  0  0  0  0  0  0  0  0  0
  -23.4160  -14.0500   20.9950 C   0  0  0  0  0  0  0  0  0  0  0  0
  -22.6120  -13.3820   21.8140 N   0  0  0  0  0  0  0  0  0  0  0  0
  -23.0420  -15.0820   20.4370 O   0  0  0  0  0  0  0  0  0  0  0  0
  -22.9230  -12.5470   22.2860 H   0  0  0  0  0  0  0  0  0  0  0  0
  -21.6720  -13.7160   21.9730 H   0  0  0  0  0  0  0  0  0  0  0  0
  -26.1310  -15.6500   20.3800 N   0  0  0  0  0  0  0  0  0  0  0  0
  -25.3720  -16.3190   20.4340 H   0  0  0  0  0  0  0  0  0  0  0  0
  -27.0110  -16.0730   20.1160 H   0  0  0  0  0  0  0  0  0  0  0  0
  -31.0710  -16.6510   18.6740 C   0  0  0  0  0  3  0  0  0  0  0  0
  -28.5660  -17.3760   18.1530 C   0  0  0  0  0  1  0  0  0  0  0  0
  -29.9900  -17.0980   17.6530 C   0  0  0  0  0  3  0  0  0  0  0  0
  1  4  1  0
  2  1  1  0
  2  5  1  0
  3  6  1  0
  4  8  1  0
  4  3  1  0
  5 51  1  0
  5  6  1  0
  6  7  1  0
  9 10  1  0
  9  8  1  0
 11 22  2  0
 12 10  1  0
 12 17  1  0
 13 21  1  0
 13 23  1  0
 14 20  1  0
 14 16  1  0
 15 21  1  0
 16 15  1  0
 17 16  2  0
 18 19  1  0
 18 12  2  0
 19 14  2  0
 20 13  1  0
 21 11  1  0
 23 25  2  0
 24 23  1  0
 26 24  1  0
 27 36  2  0
 27 32  1  0
 28 24  1  0
 28 32  1  0
 29 28  1  0
 30 31  1  0
 30 29  1  0
 31 27  1  0
 32 33  2  0
 33 34  1  0
 35 34  2  0
 36 35  1  0
 37 11  1  0
 37 38  1  0
 37 47  1  0
 38 41  1  0
 39 43  1  0
 39 38  1  0
 40 39  2  0
 43 42  1  0
 45 43  1  0
 45 46  1  0
 45 44  1  0
 47 50  1  1
 47 48  1  0
 49 47  1  0
 52 59  2  0
 53 58  1  0
 54 55  1  0
 54 53  1  0
 56 55  1  0
 56 64  1  0
 56 57  1  0
 58 52  1  0
 58 57  1  0
 60 52  1  0
 60 51  1  0
 61 62  2  0
 62 81  1  0
 63 62  1  0
 63 66  1  0
 64 61  1  0
 64 65  1  0
 65 63  2  0
 66 67  1  0
 67 68  2  0
 69 72  1  0
 69 68  1  0
 70 69  2  0
 71 70  1  0
 71 66  2  0
 72 73  1  0
 73 74  1  0
 74 75  2  0
 76 75  1  0
 76 80  1  0
 77 76  2  0
 78 73  2  0
 78 77  1  0
 79 78  1  0
 81 82  1  0
 82 85  1  0
 82 84  1  0
 83 81  2  0
 86 87  1  0
 86 61  1  0
 88 86  1  0
 89 60  1  0
 91 90  1  0
 91 89  2  0
M  ISO  4   9 101  10 101  52 100  60 100
M  END
>  <TORSDO>  (16) 
F 21

>  <SCORE>  (16) 
-11.723

>  <name>  (16) 
15

>  <ligand_id>  (16) 
15

>  <original_smiles>  (16) 
[H]c1c([H])c([H])c2c(c1[H])C([H])([H])C([H])([H])C([H])([H])C2([H])N([H])C(=O)C1([H])N(C(=O)C([H])(N([H])C(=O)C([H])(N([H])C([H])([H])[H])C([H])([H])[H])C(C([H])([H])[H])(C([H])([H])[H])C([H])([H])[H])C([H])([H])c2c([H])c(OC([H])([H])C([H])([H])C3([H])C([H])([H])C([H])([H])C([H])(C([H])([H])N(C(=O)N4C([H])([H])C([H])([H])C([H])([H])C([H])(n5nc(-c6c([H])c([H])c(Oc7c([H])c([H])c(F)c([H])c7F)c([H])c6[H])c(C(=O)N([H])[H])c5N([H])[H])C4([H])[H])C([H])([H])C([H])([H])C([H])([H])[H])C([H])(C([H])([H])[H])C3([H])[H])c([H])c([H])c2C1([H])[H]

>  <smiles>  (16) 
[H]c1c([H])c([H])c2c(c1[H])C([H])([H])C([H])([H])C([H])([H])C2([H])N([H])C(=O)C1([H])N(C(=O)C([H])(N([H])C(=O)C([H])(N([H])C([H])([H])[H])C([H])([H])[H])C(C([H])([H])[H])(C([H])([H])[H])C([H])([H])[H])C([H])([H])c2c([H])c(OC([H])([H])C([H])([H])C3([H])C([H])([H])C([H])([H])C([H])(C([H])([H])N(C(=O)N4C([H])([H])C([H])([H])C([H])([H])C([H])(n5nc(-c6c([H])c([H])c(Oc7c([H])c([H])c(F)c([H])c7F)c([H])c6[H])c(C(=O)N([H])[H])c5N([H])[H])C4([H])[H])C([H])([H])C([H])([H])C([H])([H])[H])C([H])(C([H])([H])[H])C3([H])[H])c([H])c([H])c2C1([H])[H]

$$$$
16:0:0
     RDKit          3D

 92100  0  0  1  0  0  0  0  0999 V2000
  -28.9760  -20.2810   19.7220 C   0  0  0  0  0  3  0  0  0  0  0  0
  -31.2410  -20.0020   20.5580 C   0  0  0  0  0  3  0  0  0  0  0  0
  -30.1900  -20.8470   20.1600 C   0  0  0  0  0  0  0  0  0  0  0  0
  -28.8360  -18.8860   19.5870 C   0  0  0  0  0  0  0  0  0  0  0  0
  -29.9460  -18.0420   19.8640 C   0  0  0  0  0  0  0  0  0  0  0  0
  -31.1290  -18.6090   20.4070 C   0  0  0  0  0  0  0  0  0  0  0  0
  -27.5050  -18.3550   19.0790 C   0  0  0  0  0  1  0  0  0  0  0  0
  -32.4990  -17.6420   20.8210 Cl  0  0  0  0  0  0  0  0  0  0  0  0
  -30.4120  -22.3480   20.1020 C   0  0  0  0  0  2  0  0  0  0  0  0
  -29.2720  -23.1880   20.6900 C   0  0  0  0  0  2  0  0  0  0  0  0
  -29.4940  -24.6810   20.4230 C   0  0  0  0  0  2  0  0  0  0  0  0
  -28.2740  -25.5110   20.8000 C   0  0  0  0  0  2  0  0  0  0  0  0
  -28.4010  -26.8040   20.2190 O   0  0  0  0  0  0  0  0  0  0  0  0
  -24.5510  -31.9150   23.2560 C   0  0  0  0  0  0  0  0  0  0  0  0
  -27.2300  -27.5130   20.1970 C   0  0  0  0  0  0  0  0  0  0  0  0
  -23.3590  -30.5060   21.6070 C   0  0  0  0  0  3  0  0  0  0  0  0
  -24.8270  -28.9800   20.1910 C   0  0  0  0  0  0  0  0  0  0  0  0
  -25.8810  -30.8860   21.4220 C   0  0  0  0  0  2  0  0  0  0  0  0
  -25.9760  -29.5190   20.7830 C   0  0  0  0  0  0  0  0  0  0  0  0
  -27.1840  -28.7940   20.7810 C   0  0  0  0  0  3  0  0  0  0  0  0
  -26.0700  -26.9830   19.5890 C   0  0  0  0  0  3  0  0  0  0  0  0
  -24.8660  -27.7090   19.5910 C   0  0  0  0  0  3  0  0  0  0  0  0
  -23.5760  -29.8260   20.2300 C   0  0  0  0  0  2  0  0  0  0  0  0
  -24.6140  -31.1150   22.1540 N   0  0  0  0  0  0  0  0  0  0  0  0
  -23.4660  -32.1820   23.7900 O   0  0  0  0  0  0  0  0  0  0  0  0
  -22.7090  -29.4810   22.5640 C   0  0  0  0  0  0  0  0  0  0  0  0
  -21.3840  -29.3020   22.4350 N   0  0  0  0  0  0  0  0  0  0  0  0
  -23.3910  -28.8520   23.3760 O   0  0  0  0  0  0  0  0  0  0  0  0
  -20.8960  -29.8620   21.7500 H   0  0  0  0  0  0  0  0  0  0  0  0
  -18.0030  -28.1420   22.9450 C   0  0  0  0  0  0  0  0  0  0  0  0
  -20.5640  -28.3660   23.2020 C   0  0  0  0  0  3  0  0  0  0  0  0
  -20.6470  -26.9390   22.6110 C   0  0  0  0  0  2  0  0  0  0  0  0
  -19.5350  -26.6400   21.6000 C   0  0  0  0  0  2  0  0  0  0  0  0
  -18.1590  -26.7970   22.2530 C   0  0  0  0  0  2  0  0  0  0  0  0
  -19.1330  -28.8850   23.3750 C   0  0  0  0  0  0  0  0  0  0  0  0
  -18.9340  -30.1470   23.9770 C   0  0  0  0  0  3  0  0  0  0  0  0
  -17.6370  -30.6630   24.1560 C   0  0  0  0  0  3  0  0  0  0  0  0
  -16.5210  -29.9140   23.7440 C   0  0  0  0  0  3  0  0  0  0  0  0
  -16.7050  -28.6550   23.1450 C   0  0  0  0  0  3  0  0  0  0  0  0
  -25.8330  -32.5490   23.8810 C   0  0  0  0  0  3  0  0  0  0  0  0
  -25.5270  -33.9510   24.1920 N   0  0  0  0  0  0  0  0  0  0  0  0
  -25.8780  -34.9930   23.4270 C   0  0  0  0  0  0  0  0  0  0  0  0
  -26.5680  -34.8760   22.4110 O   0  0  0  0  0  0  0  0  0  0  0  0
  -24.9190  -34.1160   24.9820 H   0  0  0  0  0  0  0  0  0  0  0  0
  -24.1770  -36.7950   22.9990 C   0  0  0  0  0  1  0  0  0  0  0  0
  -25.3830  -36.3870   23.8590 C   0  0  0  0  0  3  0  0  0  0  0  0
  -27.4930  -37.2560   24.7660 C   0  0  0  0  0  1  0  0  0  0  0  0
  -26.4270  -37.4330   23.7840 N   0  0  0  0  0  0  0  0  0  0  0  0
  -26.0210  -38.3540   23.9210 H   0  0  0  0  0  0  0  0  0  0  0  0
  -26.3400  -31.7890   25.1680 C   0  0  1  0  0  0  0  0  0  0  0  0
  -25.2370  -31.5530   26.2250 C   0  0  0  0  0  1  0  0  0  0  0  0
  -26.9310  -30.4110   24.7900 C   0  0  0  0  0  1  0  0  0  0  0  0
  -27.4830  -32.5900   25.8350 C   0  0  0  0  0  1  0  0  0  0  0  0
  -29.9470  -16.5930   19.3880 C   0  0  0  0  0  2  0  0  0  0  0  0
  -30.6680  -14.4570   20.2740 C   0  0  0  0  0  0  0  0  0  0  0  0
  -30.3150  -12.3120   19.1690 C   0  0  0  0  0  2  0  0  0  0  0  0
  -29.3700  -12.5800   17.9810 C   0  0  0  0  0  2  0  0  0  0  0  0
  -27.9000  -12.4620   18.4260 C   0  0  0  0  0  2  0  0  0  0  0  0
  -27.5910  -13.2770   19.7100 C   0  0  0  0  0  3  0  0  0  0  0  0
  -28.6610  -13.0330   20.8030 C   0  0  0  0  0  2  0  0  0  0  0  0
  -29.9860  -13.2870   20.2170 N   0  0  0  0  0  0  0  0  0  0  0  0
  -31.8300  -14.5810   19.8840 O   0  0  0  0  0  0  0  0  0  0  0  0
  -29.8760  -15.5310   20.3980 N   0  0  0  0  0  0  0  0  0  0  0  0
  -28.9640  -15.3590   20.7910 H   0  0  0  0  0  0  0  0  0  0  0  0
  -25.2070  -13.8880   20.4660 C   0  0  0  0  0  0  0  0  0  0  0  0
  -24.1410  -13.1150   20.8400 C   0  0  0  0  0  0  0  0  0  0  0  0
  -24.5990  -11.7620   20.7900 C   0  0  0  0  0  0  0  0  0  0  0  0
  -26.2440  -13.0050   20.2080 N   0  0  0  0  0  0  0  0  0  0  0  0
  -25.8820  -11.7210   20.4610 N   0  0  0  0  0  0  0  0  0  0  0  0
  -23.8750  -10.5000   20.9800 C   0  0  0  0  0  0  0  0  0  0  0  0
  -24.3060   -9.5310   21.9160 C   0  0  0  0  0  3  0  0  0  0  0  0
  -23.5780   -8.3340   22.0900 C   0  0  0  0  0  3  0  0  0  0  0  0
  -22.4080   -8.0960   21.3310 C   0  0  0  0  0  0  0  0  0  0  0  0
  -21.9990   -9.0530   20.3850 C   0  0  0  0  0  3  0  0  0  0  0  0
  -22.7260  -10.2410   20.2090 C   0  0  0  0  0  3  0  0  0  0  0  0
  -21.6530   -6.9500   21.4120 O   0  0  0  0  0  0  0  0  0  0  0  0
  -21.5870   -6.2160   22.5700 C   0  0  0  0  0  0  0  0  0  0  0  0
  -21.1260   -6.7760   23.7820 C   0  0  0  0  0  3  0  0  0  0  0  0
  -21.0100   -5.9690   24.9310 C   0  0  0  0  0  3  0  0  0  0  0  0
  -21.3420   -4.6010   24.8670 C   0  0  0  0  0  0  0  0  0  0  0  0
  -21.7950   -4.0410   23.6600 C   0  0  0  0  0  3  0  0  0  0  0  0
  -21.9160   -4.8450   22.5140 C   0  0  0  0  0  0  0  0  0  0  0  0
  -22.3340   -4.2970   21.3480 F   0  0  0  0  0  0  0  0  0  0  0  0
  -21.2210   -3.8250   25.9690 F   0  0  0  0  0  0  0  0  0  0  0  0
  -22.7500  -13.5930   21.1380 C   0  0  0  0  0  0  0  0  0  0  0  0
  -22.0310  -12.8830   21.9990 N   0  0  0  0  0  0  0  0  0  0  0  0
  -22.3110  -14.6310   20.6410 O   0  0  0  0  0  0  0  0  0  0  0  0
  -22.4010  -12.0440   22.4210 H   0  0  0  0  0  0  0  0  0  0  0  0
  -21.0990  -13.1850   22.2460 H   0  0  0  0  0  0  0  0  0  0  0  0
  -25.3760  -15.2600   20.3080 N   0  0  0  0  0  0  0  0  0  0  0  0
  -24.6120  -15.9150   20.4360 H   0  0  0  0  0  0  0  0  0  0  0  0
  -26.2280  -15.7020   19.9910 H   0  0  0  0  0  0  0  0  0  0  0  0
  1  3  1  0
  3  2  2  0
  4  1  2  0
  4  5  1  0
  5  6  2  0
  6  2  1  0
  6  8  1  0
  7  4  1  0
  9  3  1  0
  9 10  1  0
 11 10  1  0
 11 12  1  0
 13 12  1  0
 14 25  2  0
 15 13  1  0
 15 20  1  0
 16 24  1  0
 16 26  1  0
 17 23  1  0
 17 19  1  0
 18 24  1  0
 19 18  1  0
 20 19  2  0
 21 22  1  0
 21 15  2  0
 22 17  2  0
 23 16  1  0
 24 14  1  0
 26 28  2  0
 27 26  1  0
 29 27  1  0
 30 39  2  0
 30 35  1  0
 31 27  1  0
 31 35  1  0
 32 31  1  0
 33 34  1  0
 33 32  1  0
 34 30  1  0
 35 36  2  0
 36 37  1  0
 38 37  2  0
 39 38  1  0
 40 14  1  0
 40 41  1  0
 40 50  1  0
 41 44  1  0
 42 46  1  0
 42 41  1  0
 43 42  2  0
 46 45  1  0
 48 46  1  0
 48 49  1  0
 48 47  1  0
 50 53  1  1
 50 51  1  0
 52 50  1  0
 54  5  1  0
 54 63  1  0
 55 63  1  0
 56 61  1  0
 57 58  1  0
 57 56  1  0
 59 58  1  0
 59 68  1  0
 59 60  1  0
 61 55  1  0
 61 60  1  0
 62 55  2  0
 63 64  1  0
 65 66  2  0
 66 85  1  0
 67 66  1  0
 67 70  1  0
 68 69  1  0
 68 65  1  0
 69 67  2  0
 70 71  1  0
 71 72  2  0
 73 76  1  0
 73 72  1  0
 74 73  2  0
 75 74  1  0
 75 70  2  0
 76 77  1  0
 77 78  1  0
 78 79  2  0
 80 79  1  0
 80 84  1  0
 81 80  2  0
 82 77  2  0
 82 81  1  0
 83 82  1  0
 85 86  1  0
 86 89  1  0
 86 88  1  0
 87 85  2  0
 90 91  1  0
 90 65  1  0
 92 90  1  0
M  ISO  4  12 101  13 101  55 100  63 100
M  END
>  <TORSDO>  (17) 
F 21

>  <SCORE>  (17) 
-13.604

>  <name>  (17) 
16

>  <ligand_id>  (17) 
16

>  <original_smiles>  (17) 
[H]c1c([H])c([H])c2c(c1[H])C([H])([H])C([H])([H])C([H])([H])C2([H])N([H])C(=O)C1([H])N(C(=O)C([H])(N([H])C(=O)C([H])(N([H])C([H])([H])[H])C([H])([H])[H])C(C([H])([H])[H])(C([H])([H])[H])C([H])([H])[H])C([H])([H])c2c([H])c(OC([H])([H])C([H])([H])C([H])([H])C([H])([H])c3c([H])c(Cl)c(C([H])([H])N([H])C(=O)N4C([H])([H])C([H])([H])C([H])([H])C([H])(n5nc(-c6c([H])c([H])c(Oc7c([H])c([H])c(F)c([H])c7F)c([H])c6[H])c(C(=O)N([H])[H])c5N([H])[H])C4([H])[H])c(C([H])([H])[H])c3[H])c([H])c([H])c2C1([H])[H]

>  <smiles>  (17) 
[H]c1c([H])c([H])c2c(c1[H])C([H])([H])C([H])([H])C([H])([H])C2([H])N([H])C(=O)C1([H])N(C(=O)C([H])(N([H])C(=O)C([H])(N([H])C([H])([H])[H])C([H])([H])[H])C(C([H])([H])[H])(C([H])([H])[H])C([H])([H])[H])C([H])([H])c2c([H])c(OC([H])([H])C([H])([H])C([H])([H])C([H])([H])c3c([H])c(Cl)c(C([H])([H])N([H])C(=O)N4C([H])([H])C([H])([H])C([H])([H])C([H])(n5nc(-c6c([H])c([H])c(Oc7c([H])c([H])c(F)c([H])c7F)c([H])c6[H])c(C(=O)N([H])[H])c5N([H])[H])C4([H])[H])c(C([H])([H])[H])c3[H])c([H])c([H])c2C1([H])[H]

$$$$
17:0:0
     RDKit          3D

 89 97  0  0  1  0  0  0  0  0999 V2000
  -28.9750  -21.2140   21.2270 C   0  0  0  0  0  3  0  0  0  0  0  0
  -29.2670  -20.0380   20.4200 C   0  0  0  0  0  0  0  0  0  0  0  0
  -29.1240  -22.3610   20.4460 C   0  0  0  0  0  0  0  0  0  0  0  0
  -29.9270  -22.5550   18.0220 C   0  0  0  0  0  1  0  0  0  0  0  0
  -29.5710  -20.4690   19.1990 N   0  0  0  0  0  0  0  0  0  0  0  0
  -29.5220  -21.8390   19.2200 N   0  0  0  0  0  0  0  0  0  0  0  0
  -29.0710  -18.4900   20.7240 C   0  0  0  0  0  3  0  0  0  0  0  0
  -30.1890  -17.3670   20.4000 C   0  0  0  0  0  3  0  0  0  0  0  0
  -30.5880  -14.7610   20.3720 C   0  0  0  0  0  0  0  0  0  0  0  0
  -30.3740  -12.4920   19.3620 C   0  0  0  0  0  2  0  0  0  0  0  0
  -29.4430  -12.5810   18.1340 C   0  0  0  0  0  2  0  0  0  0  0  0
  -27.9710  -12.4080   18.5560 C   0  0  0  0  0  2  0  0  0  0  0  0
  -27.5950  -13.2920   19.7760 C   0  0  0  0  0  3  0  0  0  0  0  0
  -28.6500  -13.2040   20.9000 C   0  0  0  0  0  2  0  0  0  0  0  0
  -29.9520  -13.5420   20.3140 N   0  0  0  0  0  0  0  0  0  0  0  0
  -31.7650  -14.8630   20.0190 O   0  0  0  0  0  0  0  0  0  0  0  0
  -29.8280  -15.8920   20.6110 N   0  0  0  0  0  0  0  0  0  0  0  0
  -28.8700  -15.7110   20.8680 H   0  0  0  0  0  0  0  0  0  0  0  0
  -25.2040  -13.8810   20.4950 C   0  0  0  0  0  0  0  0  0  0  0  0
  -24.1390  -13.1100   20.8690 C   0  0  0  0  0  0  0  0  0  0  0  0
  -24.6040  -11.7590   20.8460 C   0  0  0  0  0  0  0  0  0  0  0  0
  -26.2500  -13.0020   20.2640 N   0  0  0  0  0  0  0  0  0  0  0  0
  -25.8950  -11.7200   20.5380 N   0  0  0  0  0  0  0  0  0  0  0  0
  -23.8780  -10.4960   21.0420 C   0  0  0  0  0  0  0  0  0  0  0  0
  -24.3120   -9.5280   21.9740 C   0  0  0  0  0  3  0  0  0  0  0  0
  -23.5850   -8.3310   22.1550 C   0  0  0  0  0  3  0  0  0  0  0  0
  -22.4100   -8.0930   21.4040 C   0  0  0  0  0  0  0  0  0  0  0  0
  -21.9960   -9.0490   20.4590 C   0  0  0  0  0  3  0  0  0  0  0  0
  -22.7240  -10.2370   20.2760 C   0  0  0  0  0  3  0  0  0  0  0  0
  -21.6540   -6.9500   21.4950 O   0  0  0  0  0  0  0  0  0  0  0  0
  -21.6070   -6.2080   22.6480 C   0  0  0  0  0  0  0  0  0  0  0  0
  -21.1840   -6.7630   23.8750 C   0  0  0  0  0  3  0  0  0  0  0  0
  -21.0870   -5.9460   25.0200 C   0  0  0  0  0  3  0  0  0  0  0  0
  -21.4010   -4.5760   24.9380 C   0  0  0  0  0  0  0  0  0  0  0  0
  -21.8200   -4.0230   23.7150 C   0  0  0  0  0  3  0  0  0  0  0  0
  -21.9190   -4.8360   22.5730 C   0  0  0  0  0  0  0  0  0  0  0  0
  -22.3000   -4.2900   21.3920 F   0  0  0  0  0  0  0  0  0  0  0  0
  -21.3010   -3.7900   26.0350 F   0  0  0  0  0  0  0  0  0  0  0  0
  -22.7400  -13.5840   21.1360 C   0  0  0  0  0  0  0  0  0  0  0  0
  -22.0110  -12.8910   22.0020 N   0  0  0  0  0  0  0  0  0  0  0  0
  -22.3020  -14.6060   20.6050 O   0  0  0  0  0  0  0  0  0  0  0  0
  -22.3750  -12.0630   22.4480 H   0  0  0  0  0  0  0  0  0  0  0  0
  -21.0730  -13.1970   22.2260 H   0  0  0  0  0  0  0  0  0  0  0  0
  -25.3680  -15.2510   20.3070 N   0  0  0  0  0  0  0  0  0  0  0  0
  -24.5980  -15.9060   20.3990 H   0  0  0  0  0  0  0  0  0  0  0  0
  -26.2060  -15.6810   19.9370 H   0  0  0  0  0  0  0  0  0  0  0  0
  -29.0800  -23.9020   20.7760 C   0  0  0  0  0  3  0  0  0  0  0  0
  -28.0370  -24.9380   20.1270 C   0  0  0  0  0  3  0  0  0  0  0  0
  -28.2850  -26.4130   20.2550 O   0  0  0  0  0  0  0  0  0  0  0  0
  -24.6040  -31.8820   23.2280 C   0  0  0  0  0  0  0  0  0  0  0  0
  -27.1950  -27.3030   20.1710 C   0  0  0  0  0  0  0  0  0  0  0  0
  -23.4000  -30.4960   21.5840 C   0  0  0  0  0  3  0  0  0  0  0  0
  -24.8470  -28.9470   20.1540 C   0  0  0  0  0  0  0  0  0  0  0  0
  -25.9430  -30.8060   21.4050 C   0  0  0  0  0  2  0  0  0  0  0  0
  -26.0200  -29.4260   20.7520 C   0  0  0  0  0  0  0  0  0  0  0  0
  -27.1990  -28.6150   20.7480 C   0  0  0  0  0  3  0  0  0  0  0  0
  -26.0030  -26.8930   19.5330 C   0  0  0  0  0  3  0  0  0  0  0  0
  -24.8400  -27.6850   19.5400 C   0  0  0  0  0  3  0  0  0  0  0  0
  -23.6180  -29.8310   20.2010 C   0  0  0  0  0  2  0  0  0  0  0  0
  -24.6700  -31.0760   22.1310 N   0  0  0  0  0  0  0  0  0  0  0  0
  -23.5200  -32.1580   23.7630 O   0  0  0  0  0  0  0  0  0  0  0  0
  -22.7350  -29.4740   22.5360 C   0  0  0  0  0  0  0  0  0  0  0  0
  -21.4080  -29.2960   22.4080 N   0  0  0  0  0  0  0  0  0  0  0  0
  -23.4120  -28.8450   23.3550 O   0  0  0  0  0  0  0  0  0  0  0  0
  -20.9160  -29.8600   21.7290 H   0  0  0  0  0  0  0  0  0  0  0  0
  -18.0320  -28.0950   22.9010 C   0  0  0  0  0  0  0  0  0  0  0  0
  -20.5890  -28.3590   23.1770 C   0  0  0  0  0  3  0  0  0  0  0  0
  -20.6950  -26.9270   22.6040 C   0  0  0  0  0  2  0  0  0  0  0  0
  -19.5960  -26.6000   21.5870 C   0  0  0  0  0  2  0  0  0  0  0  0
  -18.2120  -26.7450   22.2260 C   0  0  0  0  0  2  0  0  0  0  0  0
  -19.1480  -28.8590   23.3320 C   0  0  0  0  0  0  0  0  0  0  0  0
  -18.9260  -30.1220   23.9230 C   0  0  0  0  0  3  0  0  0  0  0  0
  -17.6220  -30.6210   24.0890 C   0  0  0  0  0  3  0  0  0  0  0  0
  -16.5190  -29.8550   23.6700 C   0  0  0  0  0  3  0  0  0  0  0  0
  -16.7250  -28.5950   23.0830 C   0  0  0  0  0  3  0  0  0  0  0  0
  -25.8860  -32.5170   23.8500 C   0  0  0  0  0  3  0  0  0  0  0  0
  -26.4020  -31.7440   25.1250 C   0  0  1  0  0  0  0  0  0  0  0  0
  -25.3090  -31.5060   26.1940 C   0  0  0  0  0  1  0  0  0  0  0  0
  -26.9840  -30.3690   24.7330 C   0  0  0  0  0  1  0  0  0  0  0  0
  -27.5510  -32.5410   25.7880 C   0  0  0  0  0  1  0  0  0  0  0  0
  -25.5790  -33.9150   24.1820 N   0  0  0  0  0  0  0  0  0  0  0  0
  -25.9080  -34.9700   23.4230 C   0  0  0  0  0  0  0  0  0  0  0  0
  -26.5740  -34.8670   22.3890 O   0  0  0  0  0  0  0  0  0  0  0  0
  -24.9980  -34.0710   24.9940 H   0  0  0  0  0  0  0  0  0  0  0  0
  -24.1830  -36.7650   23.0820 C   0  0  0  0  0  1  0  0  0  0  0  0
  -25.4280  -36.3580   23.8860 C   0  0  0  0  0  3  0  0  0  0  0  0
  -27.5650  -37.2380   24.7120 C   0  0  0  0  0  1  0  0  0  0  0  0
  -26.4610  -37.4130   23.7720 N   0  0  0  0  0  0  0  0  0  0  0  0
  -26.0550  -38.3310   23.9300 H   0  0  0  0  0  0  0  0  0  0  0  0
  2  7  1  0
  2  1  1  0
  3 47  1  0
  3  1  2  0
  4  6  1  0
  5  6  1  0
  5  2  2  0
  6  3  1  0
  8 17  1  0
  8  7  2  0
  9 17  1  0
 10 15  1  0
 11 12  1  0
 11 10  1  0
 13 12  1  0
 13 22  1  0
 13 14  1  0
 15  9  1  0
 15 14  1  0
 16  9  2  0
 17 18  1  0
 19 20  2  0
 20 39  1  0
 21 20  1  0
 21 24  1  0
 22 19  1  0
 22 23  1  0
 23 21  2  0
 24 25  1  0
 25 26  2  0
 27 30  1  0
 27 26  1  0
 28 27  2  0
 29 28  1  0
 29 24  2  0
 30 31  1  0
 31 32  1  0
 32 33  2  0
 34 33  1  0
 34 38  1  0
 35 34  2  0
 36 31  2  0
 36 35  1  0
 37 36  1  0
 39 40  1  0
 40 43  1  0
 40 42  1  0
 41 39  2  0
 44 45  1  0
 44 19  1  0
 46 44  1  0
 48 49  1  0
 48 47  2  0
 50 61  2  0
 51 49  1  0
 51 56  1  0
 52 60  1  0
 52 62  1  0
 53 59  1  0
 53 55  1  0
 54 60  1  0
 55 54  1  0
 56 55  2  0
 57 58  1  0
 57 51  2  0
 58 53  2  0
 59 52  1  0
 60 50  1  0
 62 64  2  0
 63 62  1  0
 65 63  1  0
 66 75  2  0
 66 71  1  0
 67 63  1  0
 67 71  1  0
 68 67  1  0
 69 70  1  0
 69 68  1  0
 70 66  1  0
 71 72  2  0
 72 73  1  0
 74 73  2  0
 75 74  1  0
 76 50  1  0
 76 81  1  0
 76 77  1  0
 77 80  1  1
 77 78  1  0
 79 77  1  0
 81 84  1  0
 82 86  1  0
 82 81  1  0
 83 82  2  0
 86 85  1  0
 88 86  1  0
 88 89  1  0
 88 87  1  0
M  ISO  4   9 100  17 100  48 101  49 101
M  END
>  <TORSDO>  (18) 
F 20

>  <SCORE>  (18) 
-13.761

>  <name>  (18) 
17

>  <ligand_id>  (18) 
17

>  <original_smiles>  (18) 
[H]c1c([H])c([H])c2c(c1[H])C([H])([H])C([H])([H])C([H])([H])C2([H])N([H])C(=O)C1([H])N(C(=O)C([H])(N([H])C(=O)C([H])(N([H])C([H])([H])[H])C([H])([H])[H])C(C([H])([H])[H])(C([H])([H])[H])C([H])([H])[H])C([H])([H])c2c([H])c(OC([H])([H])C([H])([H])c3c([H])c(C([H])([H])C([H])([H])N([H])C(=O)N4C([H])([H])C([H])([H])C([H])([H])C([H])(n5nc(-c6c([H])c([H])c(Oc7c([H])c([H])c(F)c([H])c7F)c([H])c6[H])c(C(=O)N([H])[H])c5N([H])[H])C4([H])[H])nn3C([H])([H])[H])c([H])c([H])c2C1([H])[H]

>  <smiles>  (18) 
[H]c1c([H])c([H])c2c(c1[H])C([H])([H])C([H])([H])C([H])([H])C2([H])N([H])C(=O)C1([H])N(C(=O)C([H])(N([H])C(=O)C([H])(N([H])C([H])([H])[H])C([H])([H])[H])C(C([H])([H])[H])(C([H])([H])[H])C([H])([H])[H])C([H])([H])c2c([H])c(OC([H])([H])C([H])([H])c3c([H])c(C([H])([H])C([H])([H])N([H])C(=O)N4C([H])([H])C([H])([H])C([H])([H])C([H])(n5nc(-c6c([H])c([H])c(Oc7c([H])c([H])c(F)c([H])c7F)c([H])c6[H])c(C(=O)N([H])[H])c5N([H])[H])C4([H])[H])nn3C([H])([H])[H])c([H])c([H])c2C1([H])[H]

$$$$
18:0:0
     RDKit          3D

100108  0  0  1  0  0  0  0  0999 V2000
  -32.2320  -21.2770   24.8070 C   0  0  0  0  0  3  0  0  0  0  0  0
  -31.6200  -21.5080   27.1410 C   0  0  0  0  0  3  0  0  0  0  0  0
  -32.4820  -20.9920   26.1580 C   0  0  0  0  0  0  0  0  0  0  0  0
  -31.0470  -21.9240   24.4140 C   0  0  0  0  0  0  0  0  0  0  0  0
  -30.4620  -22.2280   26.7730 C   0  0  0  0  0  0  0  0  0  0  0  0
  -30.1310  -22.3940   25.3970 C   0  0  0  0  0  0  0  0  0  0  0  0
  -30.7900  -22.0320   22.9200 C   0  0  0  0  0  1  0  0  0  0  0  0
  -29.5740  -22.7630   27.8850 C   0  0  0  0  0  1  0  0  0  0  0  0
  -33.6320  -20.0640   26.5230 C   0  0  0  0  0  2  0  0  0  0  0  0
  -33.2740  -18.5640   26.3740 C   0  0  0  0  0  2  0  0  0  0  0  0
  -32.5490  -18.2030   25.0590 C   0  0  0  0  0  2  0  0  0  0  0  0
  -32.4770  -16.7050   24.7540 C   0  0  0  0  0  2  0  0  0  0  0  0
  -31.5630  -16.4010   23.5510 C   0  0  0  0  0  2  0  0  0  0  0  0
  -31.8360  -15.0070   22.9720 C   0  0  0  0  0  2  0  0  0  0  0  0
  -30.8530  -14.2450   20.8040 C   0  0  0  0  0  0  0  0  0  0  0  0
  -30.4080  -12.3050   19.3530 C   0  0  0  0  0  2  0  0  0  0  0  0
  -29.4620  -12.5540   18.1700 C   0  0  0  0  0  2  0  0  0  0  0  0
  -27.9980  -12.3800   18.6050 C   0  0  0  0  0  2  0  0  0  0  0  0
  -27.6630  -13.2040   19.8730 C   0  0  0  0  0  3  0  0  0  0  0  0
  -28.7030  -12.9590   20.9870 C   0  0  0  0  0  2  0  0  0  0  0  0
  -30.0520  -13.2150   20.4480 N   0  0  0  0  0  0  0  0  0  0  0  0
  -31.7630  -14.6890   20.0960 O   0  0  0  0  0  0  0  0  0  0  0  0
  -30.7590  -14.5300   22.1090 N   0  0  0  0  0  0  0  0  0  0  0  0
  -29.9850  -14.0800   22.5780 H   0  0  0  0  0  0  0  0  0  0  0  0
  -25.2600  -13.8160   20.5680 C   0  0  0  0  0  0  0  0  0  0  0  0
  -24.1840  -13.0440   20.9170 C   0  0  0  0  0  0  0  0  0  0  0  0
  -24.6390  -11.6900   20.8730 C   0  0  0  0  0  0  0  0  0  0  0  0
  -26.3030  -12.9330   20.3370 N   0  0  0  0  0  0  0  0  0  0  0  0
  -25.9310  -11.6480   20.5750 N   0  0  0  0  0  0  0  0  0  0  0  0
  -23.9060  -10.4300   21.0410 C   0  0  0  0  0  0  0  0  0  0  0  0
  -24.3610   -9.4210   21.9190 C   0  0  0  0  0  3  0  0  0  0  0  0
  -23.6290   -8.2250   22.0760 C   0  0  0  0  0  3  0  0  0  0  0  0
  -22.4270   -8.0280   21.3550 C   0  0  0  0  0  0  0  0  0  0  0  0
  -21.9910   -9.0260   20.4640 C   0  0  0  0  0  3  0  0  0  0  0  0
  -22.7240  -10.2130   20.3050 C   0  0  0  0  0  3  0  0  0  0  0  0
  -21.6640   -6.8880   21.4240 O   0  0  0  0  0  0  0  0  0  0  0  0
  -21.6850   -6.0740   22.5280 C   0  0  0  0  0  0  0  0  0  0  0  0
  -21.4010   -6.5640   23.8210 C   0  0  0  0  0  3  0  0  0  0  0  0
  -21.3650   -5.6790   24.9170 C   0  0  0  0  0  3  0  0  0  0  0  0
  -21.6050   -4.3060   24.7220 C   0  0  0  0  0  0  0  0  0  0  0  0
  -21.8820   -3.8150   23.4340 C   0  0  0  0  0  3  0  0  0  0  0  0
  -21.9200   -4.6960   22.3400 C   0  0  0  0  0  0  0  0  0  0  0  0
  -22.1660   -4.2150   21.0980 F   0  0  0  0  0  0  0  0  0  0  0  0
  -21.5630   -3.4540   25.7730 F   0  0  0  0  0  0  0  0  0  0  0  0
  -22.7870  -13.5240   21.1850 C   0  0  0  0  0  0  0  0  0  0  0  0
  -22.0510  -12.8230   22.0410 N   0  0  0  0  0  0  0  0  0  0  0  0
  -22.3550  -14.5550   20.6700 O   0  0  0  0  0  0  0  0  0  0  0  0
  -22.4130  -11.9890   22.4790 H   0  0  0  0  0  0  0  0  0  0  0  0
  -21.1140  -13.1270   22.2630 H   0  0  0  0  0  0  0  0  0  0  0  0
  -25.4340  -15.1880   20.4100 N   0  0  0  0  0  0  0  0  0  0  0  0
  -24.6760  -15.8510   20.5250 H   0  0  0  0  0  0  0  0  0  0  0  0
  -26.2980  -15.6230   20.1100 H   0  0  0  0  0  0  0  0  0  0  0  0
  -28.7800  -22.9870   24.9780 C   0  0  0  0  0  2  0  0  0  0  0  0
  -28.9100  -24.3110   24.3380 N   0  0  0  0  0  4  0  0  0  0  0  0
  -29.8930  -24.5060   24.2510 H   0  0  0  0  0  0  0  0  0  0  0  0
  -28.5140  -25.0010   24.9570 H   0  0  0  0  0  0  0  0  0  0  0  0
  -28.2550  -24.3890   23.0110 C   0  0  0  0  0  2  0  0  0  0  0  0
  -28.5340  -25.7030   22.2630 C   0  0  0  0  0  2  0  0  0  0  0  0
  -28.3660  -25.5240   20.7420 C   0  0  0  0  0  2  0  0  0  0  0  0
  -28.4150  -26.7810   20.0750 O   0  0  0  0  0  0  0  0  0  0  0  0
  -24.6070  -31.8720   23.2110 C   0  0  0  0  0  0  0  0  0  0  0  0
  -27.2380  -27.4840   20.0910 C   0  0  0  0  0  0  0  0  0  0  0  0
  -23.3920  -30.4920   21.5530 C   0  0  0  0  0  3  0  0  0  0  0  0
  -24.8410  -28.9650   20.1150 C   0  0  0  0  0  0  0  0  0  0  0  0
  -25.9120  -30.8570   21.3510 C   0  0  0  0  0  2  0  0  0  0  0  0
  -25.9980  -29.4920   20.7040 C   0  0  0  0  0  0  0  0  0  0  0  0
  -27.2010  -28.7590   20.6880 C   0  0  0  0  0  3  0  0  0  0  0  0
  -26.0690  -26.9610   19.4960 C   0  0  0  0  0  3  0  0  0  0  0  0
  -24.8700  -27.6970   19.5070 C   0  0  0  0  0  3  0  0  0  0  0  0
  -23.5960  -29.8210   20.1680 C   0  0  0  0  0  2  0  0  0  0  0  0
  -24.6550  -31.0860   22.0990 N   0  0  0  0  0  0  0  0  0  0  0  0
  -23.5280  -32.1440   23.7550 O   0  0  0  0  0  0  0  0  0  0  0  0
  -22.7370  -29.4650   22.5040 C   0  0  0  0  0  0  0  0  0  0  0  0
  -21.4100  -29.2990   22.3770 N   0  0  0  0  0  0  0  0  0  0  0  0
  -23.4170  -28.8210   23.3060 O   0  0  0  0  0  0  0  0  0  0  0  0
  -20.9260  -29.8680   21.6970 H   0  0  0  0  0  0  0  0  0  0  0  0
  -18.0240  -28.1350   22.8500 C   0  0  0  0  0  0  0  0  0  0  0  0
  -20.5830  -28.3620   23.1350 C   0  0  0  0  0  3  0  0  0  0  0  0
  -20.6730  -26.9360   22.5440 C   0  0  0  0  0  2  0  0  0  0  0  0
  -19.5720  -26.6350   21.5230 C   0  0  0  0  0  2  0  0  0  0  0  0
  -18.1890  -26.7900   22.1630 C   0  0  0  0  0  2  0  0  0  0  0  0
  -19.1490  -28.8800   23.2910 C   0  0  0  0  0  0  0  0  0  0  0  0
  -18.9450  -30.1420   23.8910 C   0  0  0  0  0  3  0  0  0  0  0  0
  -17.6470  -30.6600   24.0550 C   0  0  0  0  0  3  0  0  0  0  0  0
  -16.5340  -29.9110   23.6340 C   0  0  0  0  0  3  0  0  0  0  0  0
  -16.7240  -28.6500   23.0370 C   0  0  0  0  0  3  0  0  0  0  0  0
  -25.8980  -32.4860   23.8380 C   0  0  0  0  0  3  0  0  0  0  0  0
  -25.5830  -33.8650   24.2310 N   0  0  0  0  0  0  0  0  0  0  0  0
  -25.9010  -34.9500   23.5120 C   0  0  0  0  0  0  0  0  0  0  0  0
  -26.5640  -34.8960   22.4720 O   0  0  0  0  0  0  0  0  0  0  0  0
  -24.9890  -33.9820   25.0380 H   0  0  0  0  0  0  0  0  0  0  0  0
  -24.1470  -36.7310   23.2640 C   0  0  0  0  0  1  0  0  0  0  0  0
  -25.4100  -36.3140   24.0340 C   0  0  0  0  0  3  0  0  0  0  0  0
  -27.5570  -37.1810   24.8470 C   0  0  0  0  0  1  0  0  0  0  0  0
  -26.4290  -37.3820   23.9410 N   0  0  0  0  0  0  0  0  0  0  0  0
  -26.0190  -38.2890   24.1480 H   0  0  0  0  0  0  0  0  0  0  0  0
  -26.4420  -31.6630   25.0690 C   0  0  1  0  0  0  0  0  0  0  0  0
  -25.3680  -31.3720   26.1430 C   0  0  0  0  0  1  0  0  0  0  0  0
  -27.0230  -30.3080   24.5980 C   0  0  0  0  0  1  0  0  0  0  0  0
  -27.5990  -32.4340   25.7470 C   0  0  0  0  0  1  0  0  0  0  0  0
  1  3  1  0
  3  9  1  0
  3  2  2  0
  4  1  2  0
  4  6  1  0
  5  2  1  0
  5  8  1  0
  6  5  2  0
  7  4  1  0
 10  9  1  0
 11 10  1  0
 12 11  1  0
 13 12  1  0
 14 13  1  0
 15 23  1  0
 16 21  1  0
 17 18  1  0
 17 16  1  0
 19 18  1  0
 19 28  1  0
 19 20  1  0
 21 15  1  0
 21 20  1  0
 22 15  2  0
 23 24  1  0
 23 14  1  0
 25 26  2  0
 26 45  1  0
 27 26  1  0
 27 30  1  0
 28 25  1  0
 28 29  1  0
 29 27  2  0
 30 31  1  0
 31 32  2  0
 33 36  1  0
 33 32  1  0
 34 33  2  0
 35 34  1  0
 35 30  2  0
 36 37  1  0
 37 38  1  0
 38 39  2  0
 40 39  1  0
 40 44  1  0
 41 40  2  0
 42 37  2  0
 42 41  1  0
 43 42  1  0
 45 46  1  0
 46 49  1  0
 46 48  1  0
 47 45  2  0
 50 51  1  0
 50 25  1  0
 52 50  1  0
 53  6  1  0
 54 56  1  0
 54 53  1  0
 55 54  1  0
 57 54  1  0
 58 57  1  0
 59 58  1  0
 60 62  1  0
 60 59  1  0
 61 72  2  0
 62 67  1  0
 63 71  1  0
 63 73  1  0
 64 70  1  0
 64 66  1  0
 65 71  1  0
 66 65  1  0
 67 66  2  0
 68 69  1  0
 68 62  2  0
 69 64  2  0
 70 63  1  0
 71 61  1  0
 73 75  2  0
 74 73  1  0
 76 74  1  0
 77 86  2  0
 77 82  1  0
 78 74  1  0
 78 82  1  0
 79 78  1  0
 80 81  1  0
 80 79  1  0
 81 77  1  0
 82 83  2  0
 83 84  1  0
 85 84  2  0
 86 85  1  0
 87 61  1  0
 87 88  1  0
 87 97  1  0
 88 91  1  0
 89 93  1  0
 89 88  1  0
 90 89  2  0
 93 92  1  0
 95 93  1  0
 95 96  1  0
 95 94  1  0
 97100  1  1
 97 98  1  0
 99 97  1  0
M  ISO  4  15 100  23 100  59 101  60 101
M  END
>  <TORSDO>  (19) 
F 27

>  <SCORE>  (19) 
43.556

>  <name>  (19) 
18

>  <ligand_id>  (19) 
18

>  <original_smiles>  (19) 
[H]c1c([H])c([H])c2c(c1[H])C([H])([H])C([H])([H])C([H])([H])C2([H])N([H])C(=O)C1([H])N(C(=O)C([H])(N([H])C(=O)C([H])(N([H])C([H])([H])[H])C([H])([H])[H])C(C([H])([H])[H])(C([H])([H])[H])C([H])([H])[H])C([H])([H])c2c([H])c(OC([H])([H])C([H])([H])C([H])([H])[N+]([H])([H])C([H])([H])c3c(C([H])([H])[H])c([H])c(C([H])([H])C([H])([H])C([H])([H])C([H])([H])C([H])([H])C([H])([H])N([H])C(=O)N4C([H])([H])C([H])([H])C([H])([H])C([H])(n5nc(-c6c([H])c([H])c(Oc7c([H])c([H])c(F)c([H])c7F)c([H])c6[H])c(C(=O)N([H])[H])c5N([H])[H])C4([H])[H])c([H])c3C([H])([H])[H])c([H])c([H])c2C1([H])[H]

>  <smiles>  (19) 
[H]c1c([H])c([H])c2c(c1[H])C([H])([H])C([H])([H])C([H])([H])C2([H])N([H])C(=O)C1([H])N(C(=O)C([H])(N([H])C(=O)C([H])(N([H])C([H])([H])[H])C([H])([H])[H])C(C([H])([H])[H])(C([H])([H])[H])C([H])([H])[H])C([H])([H])c2c([H])c(OC([H])([H])C([H])([H])C([H])([H])[N+]([H])([H])C([H])([H])c3c(C([H])([H])[H])c([H])c(C([H])([H])C([H])([H])C([H])([H])C([H])([H])C([H])([H])C([H])([H])N([H])C(=O)N4C([H])([H])C([H])([H])C([H])([H])C([H])(n5nc(-c6c([H])c([H])c(Oc7c([H])c([H])c(F)c([H])c7F)c([H])c6[H])c(C(=O)N([H])[H])c5N([H])[H])C4([H])[H])c([H])c3C([H])([H])[H])c([H])c([H])c2C1([H])[H]

$$$$
19:0:0
     RDKit          3D

 93101  0  0  1  0  0  0  0  0999 V2000
  -28.8760  -22.7150   21.1960 C   0  0  0  0  0  3  0  0  0  0  0  0
  -29.8370  -22.6470   23.7680 C   0  0  0  0  0  3  0  0  0  0  0  0
  -28.9630  -23.9330   21.9070 C   0  0  0  0  0  0  0  0  0  0  0  0
  -29.4690  -23.8950   23.2300 C   0  0  0  0  0  0  0  0  0  0  0  0
  -29.2830  -21.5220   21.8210 C   0  0  0  0  0  0  0  0  0  0  0  0
  -29.7400  -21.4830   23.0910 N   0  0  0  0  0  0  0  0  0  0  0  0
  -29.6360  -25.3170   24.2030 Cl  0  0  0  0  0  0  0  0  0  0  0  0
  -28.4700  -25.2250   21.2610 C   0  0  0  0  0  2  0  0  0  0  0  0
  -29.3150  -25.7010   20.0670 C   0  0  0  0  0  2  0  0  0  0  0  0
  -28.9050  -27.0990   19.5760 C   0  0  0  0  0  2  0  0  0  0  0  0
  -27.7370  -26.9710   18.7660 O   0  0  0  0  0  0  0  0  0  0  0  0
  -24.4350  -31.7090   22.9910 C   0  0  0  0  0  0  0  0  0  0  0  0
  -26.6190  -27.6980   19.1010 C   0  0  0  0  0  0  0  0  0  0  0  0
  -23.0030  -30.4940   21.3790 C   0  0  0  0  0  3  0  0  0  0  0  0
  -24.2430  -29.1370   19.6140 C   0  0  0  0  0  0  0  0  0  0  0  0
  -25.4740  -30.9080   20.8750 C   0  0  0  0  0  2  0  0  0  0  0  0
  -25.4690  -29.6120   20.0960 C   0  0  0  0  0  0  0  0  0  0  0  0
  -26.6600  -28.8980   19.8480 C   0  0  0  0  0  3  0  0  0  0  0  0
  -25.3790  -27.2350   18.6150 C   0  0  0  0  0  3  0  0  0  0  0  0
  -24.1900  -27.9420   18.8760 C   0  0  0  0  0  3  0  0  0  0  0  0
  -23.0180  -29.9690   19.9190 C   0  0  0  0  0  2  0  0  0  0  0  0
  -24.3300  -31.0470   21.8060 N   0  0  0  0  0  0  0  0  0  0  0  0
  -23.4420  -31.9080   23.7030 O   0  0  0  0  0  0  0  0  0  0  0  0
  -22.4830  -29.3680   22.3010 C   0  0  0  0  0  0  0  0  0  0  0  0
  -21.1660  -29.1080   22.2410 N   0  0  0  0  0  0  0  0  0  0  0  0
  -23.2550  -28.7300   23.0200 O   0  0  0  0  0  0  0  0  0  0  0  0
  -20.5980  -29.6790   21.6310 H   0  0  0  0  0  0  0  0  0  0  0  0
  -17.9480  -27.5330   22.7020 C   0  0  0  0  0  0  0  0  0  0  0  0
  -20.4620  -28.0670   22.9860 C   0  0  0  0  0  3  0  0  0  0  0  0
  -20.7250  -26.6710   22.3740 C   0  0  0  0  0  2  0  0  0  0  0  0
  -19.6650  -26.2550   21.3490 C   0  0  0  0  0  2  0  0  0  0  0  0
  -18.2750  -26.2300   21.9910 C   0  0  0  0  0  2  0  0  0  0  0  0
  -18.9750  -28.4030   23.1550 C   0  0  0  0  0  0  0  0  0  0  0  0
  -18.6170  -29.6210   23.7730 C   0  0  0  0  0  3  0  0  0  0  0  0
  -17.2640  -29.9720   23.9460 C   0  0  0  0  0  3  0  0  0  0  0  0
  -16.2520  -29.0990   23.5110 C   0  0  0  0  0  3  0  0  0  0  0  0
  -16.5950  -27.8830   22.8930 C   0  0  0  0  0  3  0  0  0  0  0  0
  -25.8000  -32.2730   23.4960 C   0  0  0  0  0  3  0  0  0  0  0  0
  -25.5590  -33.6250   24.0160 N   0  0  0  0  0  0  0  0  0  0  0  0
  -25.8520  -34.7560   23.3570 C   0  0  0  0  0  0  0  0  0  0  0  0
  -26.4290  -34.7620   22.2660 O   0  0  0  0  0  0  0  0  0  0  0  0
  -25.0350  -33.6910   24.8780 H   0  0  0  0  0  0  0  0  0  0  0  0
  -24.1580  -36.6130   23.3440 C   0  0  0  0  0  1  0  0  0  0  0  0
  -25.4390  -36.0880   24.0110 C   0  0  0  0  0  3  0  0  0  0  0  0
  -27.6500  -36.8200   24.7860 C   0  0  0  0  0  1  0  0  0  0  0  0
  -26.4930  -37.1230   23.9480 N   0  0  0  0  0  0  0  0  0  0  0  0
  -26.1270  -38.0260   24.2370 H   0  0  0  0  0  0  0  0  0  0  0  0
  -26.4770  -31.3590   24.5910 C   0  0  1  0  0  0  0  0  0  0  0  0
  -25.5370  -30.9950   25.7630 C   0  0  0  0  0  1  0  0  0  0  0  0
  -26.9780  -30.0360   23.9650 C   0  0  0  0  0  1  0  0  0  0  0  0
  -27.7220  -32.0700   25.1710 C   0  0  0  0  0  1  0  0  0  0  0  0
  -29.1640  -20.1780   21.1190 C   0  0  0  0  0  2  0  0  0  0  0  0
  -30.4730  -19.3620   21.1450 C   0  0  0  0  0  2  0  0  0  0  0  0
  -30.2460  -17.8790   20.8150 C   0  0  0  0  0  2  0  0  0  0  0  0
  -31.3520  -16.9610   21.3610 C   0  0  0  0  0  2  0  0  0  0  0  0
  -31.4720  -14.6580   20.3820 C   0  0  0  0  0  0  0  0  0  0  0  0
  -31.1100  -12.4510   19.3440 C   0  0  0  0  0  2  0  0  0  0  0  0
  -30.1990  -12.5760   18.1070 C   0  0  0  0  0  2  0  0  0  0  0  0
  -28.7130  -12.5200   18.5090 C   0  0  0  0  0  2  0  0  0  0  0  0
  -28.3750  -13.4870   19.6750 C   0  0  0  0  0  3  0  0  0  0  0  0
  -29.3860  -13.3140   20.8280 C   0  0  0  0  0  2  0  0  0  0  0  0
  -30.7480  -13.5130   20.2900 N   0  0  0  0  0  0  0  0  0  0  0  0
  -32.5160  -14.8660   19.7540 O   0  0  0  0  0  0  0  0  0  0  0  0
  -30.9510  -15.5690   21.2080 N   0  0  0  0  0  0  0  0  0  0  0  0
  -30.1220  -15.2780   21.7050 H   0  0  0  0  0  0  0  0  0  0  0  0
  -26.0210  -14.2640   20.3820 C   0  0  0  0  0  0  0  0  0  0  0  0
  -24.8920  -13.5680   20.7200 C   0  0  0  0  0  0  0  0  0  0  0  0
  -25.2450  -12.1860   20.6460 C   0  0  0  0  0  0  0  0  0  0  0  0
  -26.9970  -13.3130   20.1310 N   0  0  0  0  0  0  0  0  0  0  0  0
  -26.5300  -12.0550   20.3420 N   0  0  0  0  0  0  0  0  0  0  0  0
  -24.4210  -10.9800   20.7920 C   0  0  0  0  0  0  0  0  0  0  0  0
  -24.7430   -9.9750   21.7320 C   0  0  0  0  0  3  0  0  0  0  0  0
  -23.9260   -8.8310   21.8650 C   0  0  0  0  0  3  0  0  0  0  0  0
  -22.7740   -8.6850   21.0560 C   0  0  0  0  0  0  0  0  0  0  0  0
  -22.4720   -9.6770   20.1060 C   0  0  0  0  0  3  0  0  0  0  0  0
  -23.2890  -10.8120   19.9720 C   0  0  0  0  0  3  0  0  0  0  0  0
  -21.9360   -7.5960   21.0970 O   0  0  0  0  0  0  0  0  0  0  0  0
  -21.7130   -6.9040   22.2590 C   0  0  0  0  0  0  0  0  0  0  0  0
  -21.1950   -7.5320   23.4130 C   0  0  0  0  0  3  0  0  0  0  0  0
  -20.9130   -6.7700   24.5650 C   0  0  0  0  0  3  0  0  0  0  0  0
  -21.1410   -5.3810   24.5630 C   0  0  0  0  0  0  0  0  0  0  0  0
  -21.6530   -4.7530   23.4150 C   0  0  0  0  0  3  0  0  0  0  0  0
  -21.9360   -5.5120   22.2650 C   0  0  0  0  0  0  0  0  0  0  0  0
  -22.4090   -4.8990   21.1530 F   0  0  0  0  0  0  0  0  0  0  0  0
  -20.8640   -4.6460   25.6660 F   0  0  0  0  0  0  0  0  0  0  0  0
  -23.5350  -14.1450   21.0050 C   0  0  0  0  0  0  0  0  0  0  0  0
  -22.7630  -13.4980   21.8720 N   0  0  0  0  0  0  0  0  0  0  0  0
  -23.1680  -15.2030   20.4940 O   0  0  0  0  0  0  0  0  0  0  0  0
  -23.0720  -12.6420   22.3080 H   0  0  0  0  0  0  0  0  0  0  0  0
  -21.8520  -13.8670   22.1040 H   0  0  0  0  0  0  0  0  0  0  0  0
  -26.2950  -15.6240   20.2530 N   0  0  0  0  0  0  0  0  0  0  0  0
  -25.5840  -16.3340   20.3860 H   0  0  0  0  0  0  0  0  0  0  0  0
  -27.1850  -16.0040   19.9590 H   0  0  0  0  0  0  0  0  0  0  0  0
  1  5  2  0
  1  3  1  0
  3  4  2  0
  4  2  1  0
  4  7  1  0
  5  6  1  0
  6  2  2  0
  8  3  1  0
  9  8  1  0
 10  9  1  0
 11 13  1  0
 11 10  1  0
 12 23  2  0
 13 18  1  0
 14 22  1  0
 14 24  1  0
 15 21  1  0
 15 17  1  0
 16 22  1  0
 17 16  1  0
 18 17  2  0
 19 20  1  0
 19 13  2  0
 20 15  2  0
 21 14  1  0
 22 12  1  0
 24 26  2  0
 25 24  1  0
 27 25  1  0
 28 37  2  0
 28 33  1  0
 29 25  1  0
 29 33  1  0
 30 29  1  0
 31 32  1  0
 31 30  1  0
 32 28  1  0
 33 34  2  0
 34 35  1  0
 36 35  2  0
 37 36  1  0
 38 12  1  0
 38 39  1  0
 38 48  1  0
 39 42  1  0
 40 44  1  0
 40 39  1  0
 41 40  2  0
 44 43  1  0
 46 44  1  0
 46 47  1  0
 46 45  1  0
 48 51  1  1
 48 49  1  0
 50 48  1  0
 52 53  1  0
 52  5  1  0
 54 53  1  0
 54 55  1  0
 56 64  1  0
 57 62  1  0
 58 59  1  0
 58 57  1  0
 60 59  1  0
 60 69  1  0
 60 61  1  0
 62 56  1  0
 62 61  1  0
 63 56  2  0
 64 55  1  0
 64 65  1  0
 66 67  2  0
 67 86  1  0
 68 67  1  0
 68 71  1  0
 69 70  1  0
 69 66  1  0
 70 68  2  0
 71 72  1  0
 72 73  2  0
 74 77  1  0
 74 73  1  0
 75 74  2  0
 76 75  1  0
 76 71  2  0
 77 78  1  0
 78 83  2  0
 78 79  1  0
 79 80  2  0
 81 80  1  0
 81 85  1  0
 82 81  2  0
 83 82  1  0
 84 83  1  0
 86 87  1  0
 87 90  1  0
 87 89  1  0
 88 86  2  0
 91 66  1  0
 91 92  1  0
 93 91  1  0
M  ISO  4  10 101  11 101  56 100  64 100
M  END
>  <TORSDO>  (20) 
F 23

>  <SCORE>  (20) 
-10.907

>  <name>  (20) 
19

>  <ligand_id>  (20) 
19

>  <original_smiles>  (20) 
[H]c1nc(C([H])([H])C([H])([H])C([H])([H])C([H])([H])N([H])C(=O)N2C([H])([H])C([H])([H])C([H])([H])C([H])(n3nc(-c4c([H])c([H])c(Oc5c([H])c([H])c(F)c([H])c5F)c([H])c4[H])c(C(=O)N([H])[H])c3N([H])[H])C2([H])[H])c([H])c(C([H])([H])C([H])([H])C([H])([H])Oc2c([H])c([H])c3c(c2[H])C([H])([H])N(C(=O)C([H])(N([H])C(=O)C([H])(N([H])C([H])([H])[H])C([H])([H])[H])C(C([H])([H])[H])(C([H])([H])[H])C([H])([H])[H])C([H])(C(=O)N([H])C2([H])c4c([H])c([H])c([H])c([H])c4C([H])([H])C([H])([H])C2([H])[H])C3([H])[H])c1Cl

>  <smiles>  (20) 
[H]c1nc(C([H])([H])C([H])([H])C([H])([H])C([H])([H])N([H])C(=O)N2C([H])([H])C([H])([H])C([H])([H])C([H])(n3nc(-c4c([H])c([H])c(Oc5c([H])c([H])c(F)c([H])c5F)c([H])c4[H])c(C(=O)N([H])[H])c3N([H])[H])C2([H])[H])c([H])c(C([H])([H])C([H])([H])C([H])([H])Oc2c([H])c([H])c3c(c2[H])C([H])([H])N(C(=O)C([H])(N([H])C(=O)C([H])(N([H])C([H])([H])[H])C([H])([H])[H])C(C([H])([H])[H])(C([H])([H])[H])C([H])([H])[H])C([H])(C(=O)N([H])C2([H])c4c([H])c([H])c([H])c([H])c4C([H])([H])C([H])([H])C2([H])[H])C3([H])[H])c1Cl

$$$$
20:0:0
     RDKit          3D

 93101  0  0  1  0  0  0  0  0999 V2000
  -30.6230  -22.7180   20.8880 C   0  0  0  0  0  3  0  0  0  0  0  0
  -28.9550  -23.6600   18.8440 C   0  0  0  0  0  3  0  0  0  0  0  0
  -30.8770  -23.9760   20.3020 C   0  0  0  0  0  0  0  0  0  0  0  0
  -28.7650  -22.3610   19.3600 C   0  0  0  0  0  0  0  0  0  0  0  0
  -29.5430  -21.9230   20.4580 C   0  0  0  0  0  0  0  0  0  0  0  0
  -29.9950  -24.4900   19.3120 C   0  0  0  0  0  0  0  0  0  0  0  0
  -32.1070  -24.7450   20.7440 C   0  0  0  0  0  1  0  0  0  0  0  0
  -27.7550  -21.4470   18.6790 C   0  0  0  0  0  1  0  0  0  0  0  0
  -29.2470  -20.6220   21.1990 C   0  0  0  0  0  2  0  0  0  0  0  0
  -30.2540  -19.5000   20.9060 C   0  0  0  0  0  2  0  0  0  0  0  0
  -29.6910  -18.0790   21.1550 C   0  0  0  0  0  2  0  0  0  0  0  0
  -30.7110  -16.9740   20.8080 C   0  0  0  0  0  2  0  0  0  0  0  0
  -30.7940  -14.5800   20.2030 C   0  0  0  0  0  0  0  0  0  0  0  0
  -30.4380  -12.4510   19.0240 C   0  0  0  0  0  2  0  0  0  0  0  0
  -29.4360  -12.6600   17.8700 C   0  0  0  0  0  2  0  0  0  0  0  0
  -27.9790  -12.5180   18.3590 C   0  0  0  0  0  2  0  0  0  0  0  0
  -27.6950  -13.3270   19.6550 C   0  0  0  0  0  3  0  0  0  0  0  0
  -28.8030  -13.1060   20.7120 C   0  0  0  0  0  2  0  0  0  0  0  0
  -30.1010  -13.4140   20.0880 N   0  0  0  0  0  0  0  0  0  0  0  0
  -31.8760  -14.7620   19.6450 O   0  0  0  0  0  0  0  0  0  0  0  0
  -30.1790  -15.5990   20.8350 N   0  0  0  0  0  0  0  0  0  0  0  0
  -29.2860  -15.4300   21.2680 H   0  0  0  0  0  0  0  0  0  0  0  0
  -25.3280  -13.8910   20.4930 C   0  0  0  0  0  0  0  0  0  0  0  0
  -24.2820  -13.1000   20.8960 C   0  0  0  0  0  0  0  0  0  0  0  0
  -24.7530  -11.7540   20.8130 C   0  0  0  0  0  0  0  0  0  0  0  0
  -26.3680  -13.0230   20.1930 N   0  0  0  0  0  0  0  0  0  0  0  0
  -26.0280  -11.7310   20.4450 N   0  0  0  0  0  0  0  0  0  0  0  0
  -24.0460  -10.4780   21.0110 C   0  0  0  0  0  0  0  0  0  0  0  0
  -24.4840   -9.5300   21.9630 C   0  0  0  0  0  3  0  0  0  0  0  0
  -23.7730   -8.3250   22.1500 C   0  0  0  0  0  3  0  0  0  0  0  0
  -22.6120   -8.0590   21.3890 C   0  0  0  0  0  0  0  0  0  0  0  0
  -22.1970   -8.9940   20.4260 C   0  0  0  0  0  3  0  0  0  0  0  0
  -22.9070  -10.1920   20.2370 C   0  0  0  0  0  3  0  0  0  0  0  0
  -21.8770   -6.9040   21.4800 O   0  0  0  0  0  0  0  0  0  0  0  0
  -21.7720   -6.2050   22.6570 C   0  0  0  0  0  0  0  0  0  0  0  0
  -21.1920   -6.7740   23.8120 C   0  0  0  0  0  3  0  0  0  0  0  0
  -21.0460   -6.0030   24.9820 C   0  0  0  0  0  3  0  0  0  0  0  0
  -21.4650   -4.6580   24.9950 C   0  0  0  0  0  0  0  0  0  0  0  0
  -22.0420   -4.0880   23.8470 C   0  0  0  0  0  3  0  0  0  0  0  0
  -22.1910   -4.8600   22.6800 C   0  0  0  0  0  0  0  0  0  0  0  0
  -22.7240   -4.2970   21.5690 F   0  0  0  0  0  0  0  0  0  0  0  0
  -21.3200   -3.9130   26.1160 F   0  0  0  0  0  0  0  0  0  0  0  0
  -22.8970  -13.5570   21.2480 C   0  0  0  0  0  0  0  0  0  0  0  0
  -22.2120  -12.8290   22.1270 N   0  0  0  0  0  0  0  0  0  0  0  0
  -22.4280  -14.5930   20.7820 O   0  0  0  0  0  0  0  0  0  0  0  0
  -22.6100  -11.9940   22.5330 H   0  0  0  0  0  0  0  0  0  0  0  0
  -21.2850  -13.1140   22.4030 H   0  0  0  0  0  0  0  0  0  0  0  0
  -25.4740  -15.2660   20.3400 N   0  0  0  0  0  0  0  0  0  0  0  0
  -24.7010  -15.9090   20.4860 H   0  0  0  0  0  0  0  0  0  0  0  0
  -26.3060  -15.7160   19.9780 H   0  0  0  0  0  0  0  0  0  0  0  0
  -30.1730  -25.8810   18.6880 C   0  0  0  0  0  2  0  0  0  0  0  0
  -28.9080  -26.7760   18.6530 C   0  0  0  0  0  2  0  0  0  0  0  0
  -28.2120  -26.7840   19.8930 O   0  0  0  0  0  0  0  0  0  0  0  0
  -24.4620  -31.8570   23.1310 C   0  0  0  0  0  0  0  0  0  0  0  0
  -27.0490  -27.5140   19.8980 C   0  0  0  0  0  0  0  0  0  0  0  0
  -23.2180  -30.5040   21.4670 C   0  0  0  0  0  3  0  0  0  0  0  0
  -24.6480  -28.9910   19.9840 C   0  0  0  0  0  0  0  0  0  0  0  0
  -25.7380  -30.8560   21.2470 C   0  0  0  0  0  2  0  0  0  0  0  0
  -25.8080  -29.5010   20.5800 C   0  0  0  0  0  0  0  0  0  0  0  0
  -27.0080  -28.7650   20.5460 C   0  0  0  0  0  3  0  0  0  0  0  0
  -25.8810  -27.0070   19.2940 C   0  0  0  0  0  3  0  0  0  0  0  0
  -24.6780  -27.7430   19.3370 C   0  0  0  0  0  3  0  0  0  0  0  0
  -23.4070  -29.8460   20.0690 C   0  0  0  0  0  2  0  0  0  0  0  0
  -24.4880  -31.0920   22.0040 N   0  0  0  0  0  0  0  0  0  0  0  0
  -23.3950  -32.1230   23.6990 O   0  0  0  0  0  0  0  0  0  0  0  0
  -22.5700  -29.4730   22.4180 C   0  0  0  0  0  0  0  0  0  0  0  0
  -21.2410  -29.3110   22.3120 N   0  0  0  0  0  0  0  0  0  0  0  0
  -23.2610  -28.8160   23.2000 O   0  0  0  0  0  0  0  0  0  0  0  0
  -20.7430  -29.8990   21.6580 H   0  0  0  0  0  0  0  0  0  0  0  0
  -17.8600  -28.1530   22.8510 C   0  0  0  0  0  0  0  0  0  0  0  0
  -20.4280  -28.3630   23.0740 C   0  0  0  0  0  3  0  0  0  0  0  0
  -20.4940  -26.9480   22.4530 C   0  0  0  0  0  2  0  0  0  0  0  0
  -19.3660  -26.6730   21.4530 C   0  0  0  0  0  2  0  0  0  0  0  0
  -18.0000  -26.8210   22.1310 C   0  0  0  0  0  2  0  0  0  0  0  0
  -19.0000  -28.8830   23.2800 C   0  0  0  0  0  0  0  0  0  0  0  0
  -18.8150  -30.1300   23.9140 C   0  0  0  0  0  3  0  0  0  0  0  0
  -17.5240  -30.6500   24.1210 C   0  0  0  0  0  3  0  0  0  0  0  0
  -16.3980  -29.9170   23.7070 C   0  0  0  0  0  3  0  0  0  0  0  0
  -16.5670  -28.6690   23.0790 C   0  0  0  0  0  3  0  0  0  0  0  0
  -25.7670  -32.4590   23.7440 C   0  0  0  0  0  3  0  0  0  0  0  0
  -25.4950  -33.8610   24.0860 N   0  0  0  0  0  0  0  0  0  0  0  0
  -25.8610  -34.9090   23.3350 C   0  0  0  0  0  0  0  0  0  0  0  0
  -26.5330  -34.7980   22.3060 O   0  0  0  0  0  0  0  0  0  0  0  0
  -24.9050  -34.0230   24.8880 H   0  0  0  0  0  0  0  0  0  0  0  0
  -24.2100  -36.7660   22.9580 C   0  0  0  0  0  1  0  0  0  0  0  0
  -25.4090  -36.3060   23.8010 C   0  0  0  0  0  3  0  0  0  0  0  0
  -27.5380  -37.1100   24.7240 C   0  0  0  0  0  1  0  0  0  0  0  0
  -26.4820  -37.3230   23.7380 N   0  0  0  0  0  0  0  0  0  0  0  0
  -26.1010  -38.2560   23.8790 H   0  0  0  0  0  0  0  0  0  0  0  0
  -26.2840  -31.6680   25.0070 C   0  0  1  0  0  0  0  0  0  0  0  0
  -25.1980  -31.4380   26.0830 C   0  0  0  0  0  1  0  0  0  0  0  0
  -26.8430  -30.2860   24.5930 C   0  0  0  0  0  1  0  0  0  0  0  0
  -27.4570  -32.4330   25.6650 C   0  0  0  0  0  1  0  0  0  0  0  0
  2  6  2  0
  2  4  1  0
  3  7  1  0
  3  1  2  0
  4  5  2  0
  5  1  1  0
  5  9  1  0
  6  3  1  0
  8  4  1  0
 10 11  1  0
 10  9  1  0
 12 21  1  0
 12 11  1  0
 13 21  1  0
 14 19  1  0
 15 16  1  0
 15 14  1  0
 17 16  1  0
 17 26  1  0
 17 18  1  0
 19 13  1  0
 19 18  1  0
 20 13  2  0
 21 22  1  0
 23 24  2  0
 24 43  1  0
 25 24  1  0
 25 28  1  0
 26 27  1  0
 26 23  1  0
 27 25  2  0
 28 29  1  0
 29 30  2  0
 31 34  1  0
 31 30  1  0
 32 31  2  0
 33 32  1  0
 33 28  2  0
 34 35  1  0
 35 40  2  0
 35 36  1  0
 36 37  2  0
 37 38  1  0
 38 42  1  0
 39 38  2  0
 40 39  1  0
 41 40  1  0
 43 44  1  0
 44 47  1  0
 44 46  1  0
 45 43  2  0
 48 49  1  0
 48 23  1  0
 50 48  1  0
 51  6  1  0
 52 51  1  0
 52 53  1  0
 53 55  1  0
 54 65  2  0
 55 60  1  0
 56 64  1  0
 56 66  1  0
 57 63  1  0
 57 59  1  0
 58 64  1  0
 59 58  1  0
 60 59  2  0
 61 62  1  0
 61 55  2  0
 62 57  2  0
 63 56  1  0
 64 54  1  0
 66 68  2  0
 67 66  1  0
 69 67  1  0
 70 79  2  0
 70 75  1  0
 71 67  1  0
 71 75  1  0
 72 71  1  0
 73 74  1  0
 73 72  1  0
 74 70  1  0
 75 76  2  0
 76 77  1  0
 78 77  2  0
 79 78  1  0
 80 54  1  0
 80 81  1  0
 80 90  1  0
 81 84  1  0
 82 86  1  0
 82 81  1  0
 83 82  2  0
 86 85  1  0
 88 86  1  0
 88 89  1  0
 88 87  1  0
 90 93  1  1
 90 91  1  0
 92 90  1  0
M  ISO  4  13 100  21 100  52 101  53 101
M  END
>  <TORSDO>  (21) 
F 22

>  <SCORE>  (21) 
-12.760

>  <name>  (21) 
20

>  <ligand_id>  (21) 
20

>  <original_smiles>  (21) 
[H]c1c([H])c([H])c2c(c1[H])C([H])([H])C([H])([H])C([H])([H])C2([H])N([H])C(=O)C1([H])N(C(=O)C([H])(N([H])C(=O)C([H])(N([H])C([H])([H])[H])C([H])([H])[H])C(C([H])([H])[H])(C([H])([H])[H])C([H])([H])[H])C([H])([H])c2c([H])c(OC([H])([H])C([H])([H])c3c([H])c(C([H])([H])[H])c(C([H])([H])C([H])([H])C([H])([H])C([H])([H])N([H])C(=O)N4C([H])([H])C([H])([H])C([H])([H])C([H])(n5nc(-c6c([H])c([H])c(Oc7c([H])c([H])c(F)c([H])c7F)c([H])c6[H])c(C(=O)N([H])[H])c5N([H])[H])C4([H])[H])c([H])c3C([H])([H])[H])c([H])c([H])c2C1([H])[H]

>  <smiles>  (21) 
[H]c1c([H])c([H])c2c(c1[H])C([H])([H])C([H])([H])C([H])([H])C2([H])N([H])C(=O)C1([H])N(C(=O)C([H])(N([H])C(=O)C([H])(N([H])C([H])([H])[H])C([H])([H])[H])C(C([H])([H])[H])(C([H])([H])[H])C([H])([H])[H])C([H])([H])c2c([H])c(OC([H])([H])C([H])([H])c3c([H])c(C([H])([H])[H])c(C([H])([H])C([H])([H])C([H])([H])C([H])([H])N([H])C(=O)N4C([H])([H])C([H])([H])C([H])([H])C([H])(n5nc(-c6c([H])c([H])c(Oc7c([H])c([H])c(F)c([H])c7F)c([H])c6[H])c(C(=O)N([H])[H])c5N([H])[H])C4([H])[H])c([H])c3C([H])([H])[H])c([H])c([H])c2C1([H])[H]

$$$$
21:0:0
     RDKit          3D

 95103  0  0  1  0  0  0  0  0999 V2000
  -27.0810  -23.1340   18.6830 C   0  0  0  0  0  3  0  0  0  0  0  0
  -27.9580  -22.6330   19.6630 C   0  0  0  0  0  0  0  0  0  0  0  0
  -27.9080  -21.2400   19.9560 C   0  0  0  0  0  0  0  0  0  0  0  0
  -26.1700  -22.2710   18.0550 C   0  0  0  0  0  0  0  0  0  0  0  0
  -26.9490  -20.4530   19.2620 C   0  0  0  0  0  0  0  0  0  0  0  0
  -25.1900  -22.7900   17.0230 C   0  0  0  0  0  1  0  0  0  0  0  0
  -26.7840  -18.9650   19.5090 C   0  0  0  0  0  1  0  0  0  0  0  0
  -26.1030  -20.9600   18.3430 N   0  0  0  0  0  0  0  0  0  0  0  0
  -28.8990  -23.6300   20.3350 C   0  0  0  0  0  2  0  0  0  0  0  0
  -28.1850  -24.5600   21.3430 C   0  0  0  0  0  2  0  0  0  0  0  0
  -28.7180  -26.0070   21.3460 C   0  0  0  0  0  2  0  0  0  0  0  0
  -28.3990  -26.6670   20.1210 O   0  0  0  0  0  0  0  0  0  0  0  0
  -24.5660  -31.8070   23.2260 C   0  0  0  0  0  0  0  0  0  0  0  0
  -27.2400  -27.4000   20.1510 C   0  0  0  0  0  0  0  0  0  0  0  0
  -23.3750  -30.4160   21.5610 C   0  0  0  0  0  3  0  0  0  0  0  0
  -24.8410  -28.8830   20.1480 C   0  0  0  0  0  0  0  0  0  0  0  0
  -25.9000  -30.7750   21.3940 C   0  0  0  0  0  2  0  0  0  0  0  0
  -25.9900  -29.4090   20.7530 C   0  0  0  0  0  0  0  0  0  0  0  0
  -27.1950  -28.6750   20.7550 C   0  0  0  0  0  3  0  0  0  0  0  0
  -26.0820  -26.8830   19.5370 C   0  0  0  0  0  3  0  0  0  0  0  0
  -24.8780  -27.6150   19.5400 C   0  0  0  0  0  3  0  0  0  0  0  0
  -23.5950  -29.7380   20.1820 C   0  0  0  0  0  2  0  0  0  0  0  0
  -24.6300  -31.0150   22.1190 N   0  0  0  0  0  0  0  0  0  0  0  0
  -23.4790  -32.0800   23.7530 O   0  0  0  0  0  0  0  0  0  0  0  0
  -22.7110  -29.3920   22.5090 C   0  0  0  0  0  0  0  0  0  0  0  0
  -21.3820  -29.2360   22.3810 N   0  0  0  0  0  0  0  0  0  0  0  0
  -23.3860  -28.7430   23.3130 O   0  0  0  0  0  0  0  0  0  0  0  0
  -20.9020  -29.8090   21.6990 H   0  0  0  0  0  0  0  0  0  0  0  0
  -17.9830  -28.1310   22.8910 C   0  0  0  0  0  0  0  0  0  0  0  0
  -20.5490  -28.3030   23.1370 C   0  0  0  0  0  3  0  0  0  0  0  0
  -20.6020  -26.8860   22.5220 C   0  0  0  0  0  2  0  0  0  0  0  0
  -19.4790  -26.6260   21.5130 C   0  0  0  0  0  2  0  0  0  0  0  0
  -18.1110  -26.7960   22.1780 C   0  0  0  0  0  2  0  0  0  0  0  0
  -19.1290  -28.8480   23.3260 C   0  0  0  0  0  0  0  0  0  0  0  0
  -18.9570  -30.1030   23.9480 C   0  0  0  0  0  3  0  0  0  0  0  0
  -17.6700  -30.6390   24.1450 C   0  0  0  0  0  3  0  0  0  0  0  0
  -16.5380  -29.9160   23.7320 C   0  0  0  0  0  3  0  0  0  0  0  0
  -16.6970  -28.6650   23.1100 C   0  0  0  0  0  3  0  0  0  0  0  0
  -25.8460  -32.4280   23.8680 C   0  0  0  0  0  3  0  0  0  0  0  0
  -25.5440  -33.8280   24.1970 N   0  0  0  0  0  0  0  0  0  0  0  0
  -25.8860  -34.8770   23.4370 C   0  0  0  0  0  0  0  0  0  0  0  0
  -26.5630  -34.7720   22.4120 O   0  0  0  0  0  0  0  0  0  0  0  0
  -24.9460  -33.9860   24.9940 H   0  0  0  0  0  0  0  0  0  0  0  0
  -24.1580  -36.6670   23.0790 C   0  0  0  0  0  1  0  0  0  0  0  0
  -25.4010  -36.2670   23.8910 C   0  0  0  0  0  3  0  0  0  0  0  0
  -27.5400  -37.1510   24.7120 C   0  0  0  0  0  1  0  0  0  0  0  0
  -26.4350  -37.3180   23.7710 N   0  0  0  0  0  0  0  0  0  0  0  0
  -26.0300  -38.2390   23.9160 H   0  0  0  0  0  0  0  0  0  0  0  0
  -26.3430  -31.6500   25.1480 C   0  0  1  0  0  0  0  0  0  0  0  0
  -25.2350  -31.4160   26.2020 C   0  0  0  0  0  1  0  0  0  0  0  0
  -26.9230  -30.2720   24.7530 C   0  0  0  0  0  1  0  0  0  0  0  0
  -27.4890  -32.4360   25.8260 C   0  0  0  0  0  1  0  0  0  0  0  0
  -28.8290  -20.5660   20.9780 C   0  0  0  0  0  2  0  0  0  0  0  0
  -29.8600  -19.6170   20.3260 C   0  0  0  0  0  2  0  0  0  0  0  0
  -30.1740  -18.3580   21.1650 C   0  0  0  0  0  2  0  0  0  0  0  0
  -31.1960  -17.4230   20.4870 C   0  0  0  0  0  2  0  0  0  0  0  0
  -31.5400  -16.1490   21.2950 C   0  0  0  0  0  2  0  0  0  0  0  0
  -31.1040  -14.0910   19.9540 C   0  0  0  0  0  0  0  0  0  0  0  0
  -30.5980  -11.9360   18.8590 C   0  0  0  0  0  2  0  0  0  0  0  0
  -29.6140  -12.1120   17.6890 C   0  0  0  0  0  2  0  0  0  0  0  0
  -28.1610  -12.0450   18.1940 C   0  0  0  0  0  2  0  0  0  0  0  0
  -27.9130  -12.9840   19.4020 C   0  0  0  0  0  3  0  0  0  0  0  0
  -29.0010  -12.7940   20.4840 C   0  0  0  0  0  2  0  0  0  0  0  0
  -30.3230  -12.9810   19.8580 N   0  0  0  0  0  0  0  0  0  0  0  0
  -32.1020  -14.2730   19.2520 O   0  0  0  0  0  0  0  0  0  0  0  0
  -30.7540  -14.9730   20.9020 N   0  0  0  0  0  0  0  0  0  0  0  0
  -29.9400  -14.7490   21.4560 H   0  0  0  0  0  0  0  0  0  0  0  0
  -25.5890  -13.7470   20.2090 C   0  0  0  0  0  0  0  0  0  0  0  0
  -24.4990  -13.0470   20.6490 C   0  0  0  0  0  0  0  0  0  0  0  0
  -24.8790  -11.6700   20.6280 C   0  0  0  0  0  0  0  0  0  0  0  0
  -26.5710  -12.8010   19.9500 N   0  0  0  0  0  0  0  0  0  0  0  0
  -26.1480  -11.5480   20.2590 N   0  0  0  0  0  0  0  0  0  0  0  0
  -24.0920  -10.4580   20.8850 C   0  0  0  0  0  0  0  0  0  0  0  0
  -24.4940   -9.5060   21.8490 C   0  0  0  0  0  3  0  0  0  0  0  0
  -23.7110   -8.3570   22.0900 C   0  0  0  0  0  3  0  0  0  0  0  0
  -22.5110   -8.1500   21.3690 C   0  0  0  0  0  0  0  0  0  0  0  0
  -22.1280   -9.0890   20.3950 C   0  0  0  0  0  3  0  0  0  0  0  0
  -22.9100  -10.2300   20.1520 C   0  0  0  0  0  3  0  0  0  0  0  0
  -21.7010   -7.0510   21.5180 O   0  0  0  0  0  0  0  0  0  0  0  0
  -21.6110   -6.3800   22.7100 C   0  0  0  0  0  0  0  0  0  0  0  0
  -21.2190   -7.0270   23.9030 C   0  0  0  0  0  3  0  0  0  0  0  0
  -21.0730   -6.2850   25.0920 C   0  0  0  0  0  3  0  0  0  0  0  0
  -21.3060   -4.8960   25.0890 C   0  0  0  0  0  0  0  0  0  0  0  0
  -21.6910   -4.2500   23.9020 C   0  0  0  0  0  3  0  0  0  0  0  0
  -21.8400   -4.9880   22.7160 C   0  0  0  0  0  0  0  0  0  0  0  0
  -22.1900   -4.3560   21.5690 F   0  0  0  0  0  0  0  0  0  0  0  0
  -21.1580   -4.1820   26.2290 F   0  0  0  0  0  0  0  0  0  0  0  0
  -23.1470  -13.6110   20.9810 C   0  0  0  0  0  0  0  0  0  0  0  0
  -22.4330  -12.9870   21.9100 N   0  0  0  0  0  0  0  0  0  0  0  0
  -22.7360  -14.6420   20.4480 O   0  0  0  0  0  0  0  0  0  0  0  0
  -22.7790  -12.1550   22.3630 H   0  0  0  0  0  0  0  0  0  0  0  0
  -21.5270  -13.3490   22.1740 H   0  0  0  0  0  0  0  0  0  0  0  0
  -25.8240  -15.1020   19.9920 N   0  0  0  0  0  0  0  0  0  0  0  0
  -25.1010  -15.8020   20.1200 H   0  0  0  0  0  0  0  0  0  0  0  0
  -26.6880  -15.4830   19.6260 H   0  0  0  0  0  0  0  0  0  0  0  0
  1  2  1  0
  2  3  2  0
  2  9  1  0
  3 53  1  0
  4  8  1  0
  4  1  2  0
  5  7  1  0
  5  3  1  0
  6  4  1  0
  8  5  2  0
  9 10  1  0
 10 11  1  0
 12 14  1  0
 12 11  1  0
 13 24  2  0
 14 19  1  0
 15 23  1  0
 15 25  1  0
 16 22  1  0
 16 18  1  0
 17 23  1  0
 18 19  2  0
 18 17  1  0
 20 21  1  0
 20 14  2  0
 21 16  2  0
 22 15  1  0
 23 13  1  0
 25 27  2  0
 26 25  1  0
 28 26  1  0
 29 38  2  0
 29 34  1  0
 30 26  1  0
 30 34  1  0
 31 30  1  0
 32 33  1  0
 32 31  1  0
 33 29  1  0
 34 35  2  0
 35 36  1  0
 37 36  2  0
 38 37  1  0
 39 13  1  0
 39 40  1  0
 39 49  1  0
 40 43  1  0
 41 45  1  0
 41 40  1  0
 42 41  2  0
 45 44  1  0
 47 45  1  0
 47 48  1  0
 47 46  1  0
 49 52  1  1
 49 50  1  0
 51 49  1  0
 54 53  1  0
 54 55  1  0
 56 55  1  0
 56 57  1  0
 58 66  1  0
 59 64  1  0
 60 61  1  0
 60 59  1  0
 62 61  1  0
 62 71  1  0
 62 63  1  0
 64 58  1  0
 64 63  1  0
 65 58  2  0
 66 57  1  0
 66 67  1  0
 68 69  2  0
 69 88  1  0
 70 69  1  0
 70 73  1  0
 71 68  1  0
 71 72  1  0
 72 70  2  0
 73 74  1  0
 74 75  2  0
 76 79  1  0
 76 75  1  0
 77 76  2  0
 78 77  1  0
 78 73  2  0
 79 80  1  0
 80 85  2  0
 80 81  1  0
 81 82  2  0
 83 82  1  0
 83 87  1  0
 84 83  2  0
 85 84  1  0
 86 85  1  0
 88 89  1  0
 89 92  1  0
 89 91  1  0
 90 88  2  0
 93 94  1  0
 93 68  1  0
 95 93  1  0
M  ISO  4  11 101  12 101  58 100  66 100
M  END
>  <TORSDO>  (22) 
F 24

>  <SCORE>  (22) 
-11.740

>  <name>  (22) 
21

>  <ligand_id>  (22) 
21

>  <original_smiles>  (22) 
[H]c1c([H])c([H])c2c(c1[H])C([H])([H])C([H])([H])C([H])([H])C2([H])N([H])C(=O)C1([H])N(C(=O)C([H])(N([H])C(=O)C([H])(N([H])C([H])([H])[H])C([H])([H])[H])C(C([H])([H])[H])(C([H])([H])[H])C([H])([H])[H])C([H])([H])c2c([H])c(OC([H])([H])C([H])([H])C([H])([H])c3c([H])c(C([H])([H])[H])nc(C([H])([H])[H])c3C([H])([H])C([H])([H])C([H])([H])C([H])([H])C([H])([H])N([H])C(=O)N3C([H])([H])C([H])([H])C([H])([H])C([H])(n4nc(-c5c([H])c([H])c(Oc6c([H])c([H])c(F)c([H])c6F)c([H])c5[H])c(C(=O)N([H])[H])c4N([H])[H])C3([H])[H])c([H])c([H])c2C1([H])[H]

>  <smiles>  (22) 
[H]c1c([H])c([H])c2c(c1[H])C([H])([H])C([H])([H])C([H])([H])C2([H])N([H])C(=O)C1([H])N(C(=O)C([H])(N([H])C(=O)C([H])(N([H])C([H])([H])[H])C([H])([H])[H])C(C([H])([H])[H])(C([H])([H])[H])C([H])([H])[H])C([H])([H])c2c([H])c(OC([H])([H])C([H])([H])C([H])([H])c3c([H])c(C([H])([H])[H])nc(C([H])([H])[H])c3C([H])([H])C([H])([H])C([H])([H])C([H])([H])C([H])([H])N([H])C(=O)N3C([H])([H])C([H])([H])C([H])([H])C([H])(n4nc(-c5c([H])c([H])c(Oc6c([H])c([H])c(F)c([H])c6F)c([H])c5[H])c(C(=O)N([H])[H])c4N([H])[H])C3([H])[H])c([H])c([H])c2C1([H])[H]

$$$$
22:0:0
     RDKit          3D

 95104  0  0  1  0  0  0  0  0999 V2000
  -29.7260  -19.9330   19.7530 C   0  0  0  0  0  3  0  0  0  0  0  0
  -30.0510  -21.3440   21.6970 C   0  0  0  0  0  3  0  0  0  0  0  0
  -30.2710  -18.7900   20.4330 C   0  0  0  0  0  0  0  0  0  0  0  0
  -30.6940  -18.9610   21.7760 C   0  0  0  0  0  0  0  0  0  0  0  0
  -29.5900  -21.2230   20.3700 C   0  0  0  0  0  0  0  0  0  0  0  0
  -30.6060  -20.2420   22.3980 C   0  0  0  0  0  0  0  0  0  0  0  0
  -30.4190  -17.3900   19.7340 C   0  0  0  0  0  2  0  0  0  0  0  0
  -31.2080  -17.7600   22.5820 C   0  0  0  0  0  2  0  0  0  0  0  0
  -31.5520  -16.4820   21.7940 C   0  0  0  0  0  2  0  0  0  0  0  0
  -30.5630  -16.1150   20.6730 C   0  0  2  0  0  0  0  0  0  0  0  0
  -31.0900  -14.7590   19.9800 C   0  0  0  0  0  0  0  0  0  0  0  0
  -30.7190  -12.5720   18.8310 C   0  0  0  0  0  2  0  0  0  0  0  0
  -29.7370  -12.7780   17.6570 C   0  0  0  0  0  2  0  0  0  0  0  0
  -28.2760  -12.6600   18.1360 C   0  0  0  0  0  2  0  0  0  0  0  0
  -28.0070  -13.4780   19.4270 C   0  0  0  0  0  3  0  0  0  0  0  0
  -29.1040  -13.2160   20.4840 C   0  0  0  0  0  2  0  0  0  0  0  0
  -30.3940  -13.5710   19.8730 N   0  0  0  0  0  0  0  0  0  0  0  0
  -32.2070  -14.8270   19.4590 O   0  0  0  0  0  0  0  0  0  0  0  0
  -25.6560  -14.1530   20.2080 C   0  0  0  0  0  0  0  0  0  0  0  0
  -24.5760  -13.4130   20.6090 C   0  0  0  0  0  0  0  0  0  0  0  0
  -24.9990  -12.0490   20.5760 C   0  0  0  0  0  0  0  0  0  0  0  0
  -26.6670  -13.2390   19.9530 N   0  0  0  0  0  0  0  0  0  0  0  0
  -26.2780  -11.9690   20.2300 N   0  0  0  0  0  0  0  0  0  0  0  0
  -24.2440  -10.8090   20.7990 C   0  0  0  0  0  0  0  0  0  0  0  0
  -24.6500   -9.8590   21.7630 C   0  0  0  0  0  3  0  0  0  0  0  0
  -23.8980   -8.6840   21.9700 C   0  0  0  0  0  3  0  0  0  0  0  0
  -22.7250   -8.4480   21.2150 C   0  0  0  0  0  0  0  0  0  0  0  0
  -22.3380   -9.3850   20.2400 C   0  0  0  0  0  3  0  0  0  0  0  0
  -23.0910  -10.5530   20.0310 C   0  0  0  0  0  3  0  0  0  0  0  0
  -21.9450   -7.3240   21.3310 O   0  0  0  0  0  0  0  0  0  0  0  0
  -21.8200   -6.6550   22.5230 C   0  0  0  0  0  0  0  0  0  0  0  0
  -21.3520   -7.2950   23.6910 C   0  0  0  0  0  3  0  0  0  0  0  0
  -21.1720   -6.5550   24.8750 C   0  0  0  0  0  3  0  0  0  0  0  0
  -21.4480   -5.1740   24.8920 C   0  0  0  0  0  0  0  0  0  0  0  0
  -21.9090   -4.5340   23.7280 C   0  0  0  0  0  3  0  0  0  0  0  0
  -22.0910   -5.2720   22.5450 C   0  0  0  0  0  0  0  0  0  0  0  0
  -22.5150   -4.6460   21.4210 F   0  0  0  0  0  0  0  0  0  0  0  0
  -21.2680   -4.4610   26.0270 F   0  0  0  0  0  0  0  0  0  0  0  0
  -23.2020  -13.9310   20.9210 C   0  0  0  0  0  0  0  0  0  0  0  0
  -22.4920  -13.2730   21.8330 N   0  0  0  0  0  0  0  0  0  0  0  0
  -22.7670  -14.9530   20.3920 O   0  0  0  0  0  0  0  0  0  0  0  0
  -22.8580  -12.4480   22.2850 H   0  0  0  0  0  0  0  0  0  0  0  0
  -21.5710  -13.6020   22.0860 H   0  0  0  0  0  0  0  0  0  0  0  0
  -25.8630  -15.5150   20.0250 N   0  0  0  0  0  0  0  0  0  0  0  0
  -25.1590  -16.2180   20.2240 H   0  0  0  0  0  0  0  0  0  0  0  0
  -26.7890  -15.9010   19.8650 H   0  0  0  0  0  0  0  0  0  0  0  0
  -29.2650  -15.9830   21.2340 O   0  0  0  0  0  0  0  0  0  0  0  0
  -29.0400  -16.8390   21.5820 H   0  0  0  0  0  0  0  0  0  0  0  0
  -28.9280  -22.4370   19.6200 C   0  0  0  0  0  2  0  0  0  0  0  0
  -28.8950  -23.9110   20.2430 C   0  0  0  0  0  3  0  0  0  0  0  0
  -28.1230  -25.0040   19.3830 C   0  0  0  0  0  3  0  0  0  0  0  0
  -28.1840  -26.4440   19.7450 O   0  0  0  0  0  0  0  0  0  0  0  0
  -24.5440  -31.7100   23.0440 C   0  0  0  0  0  0  0  0  0  0  0  0
  -27.0450  -27.2700   19.7290 C   0  0  0  0  0  0  0  0  0  0  0  0
  -23.2810  -30.3690   21.3990 C   0  0  0  0  0  3  0  0  0  0  0  0
  -24.6780  -28.8820   19.8630 C   0  0  0  0  0  0  0  0  0  0  0  0
  -25.8130  -30.6980   21.1370 C   0  0  0  0  0  2  0  0  0  0  0  0
  -25.8660  -29.3450   20.4400 C   0  0  0  0  0  0  0  0  0  0  0  0
  -27.0480  -28.5470   20.3730 C   0  0  0  0  0  3  0  0  0  0  0  0
  -25.8340  -26.8780   19.1060 C   0  0  0  0  0  3  0  0  0  0  0  0
  -24.6620  -27.6520   19.1900 C   0  0  0  0  0  3  0  0  0  0  0  0
  -23.4440  -29.7540   19.9870 C   0  0  0  0  0  2  0  0  0  0  0  0
  -24.5670  -30.9400   21.9160 N   0  0  0  0  0  0  0  0  0  0  0  0
  -23.4800  -31.9670   23.6240 O   0  0  0  0  0  0  0  0  0  0  0  0
  -22.6570  -29.3140   22.3430 C   0  0  0  0  0  0  0  0  0  0  0  0
  -21.3270  -29.1440   22.2610 N   0  0  0  0  0  0  0  0  0  0  0  0
  -23.3660  -28.6560   23.1080 O   0  0  0  0  0  0  0  0  0  0  0  0
  -20.8130  -29.7270   21.6160 H   0  0  0  0  0  0  0  0  0  0  0  0
  -17.9670  -27.9350   22.8480 C   0  0  0  0  0  0  0  0  0  0  0  0
  -20.5340  -28.1790   23.0280 C   0  0  0  0  0  3  0  0  0  0  0  0
  -20.6110  -26.7700   22.3970 C   0  0  0  0  0  2  0  0  0  0  0  0
  -19.4700  -26.4870   21.4140 C   0  0  0  0  0  2  0  0  0  0  0  0
  -18.1140  -26.6110   22.1150 C   0  0  0  0  0  2  0  0  0  0  0  0
  -19.1040  -28.6780   23.2620 C   0  0  0  0  0  0  0  0  0  0  0  0
  -18.9130  -29.9180   23.9090 C   0  0  0  0  0  3  0  0  0  0  0  0
  -17.6180  -30.4170   24.1420 C   0  0  0  0  0  3  0  0  0  0  0  0
  -16.4950  -29.6690   23.7450 C   0  0  0  0  0  3  0  0  0  0  0  0
  -16.6710  -28.4290   23.1030 C   0  0  0  0  0  3  0  0  0  0  0  0
  -25.8490  -32.3190   23.6390 C   0  0  0  0  0  3  0  0  0  0  0  0
  -25.5440  -33.6940   24.0600 N   0  0  0  0  0  0  0  0  0  0  0  0
  -25.8580  -34.7920   23.3600 C   0  0  0  0  0  0  0  0  0  0  0  0
  -26.5070  -34.7530   22.3110 O   0  0  0  0  0  0  0  0  0  0  0  0
  -24.9640  -33.7980   24.8810 H   0  0  0  0  0  0  0  0  0  0  0  0
  -24.1260  -36.6030   23.1440 C   0  0  0  0  0  1  0  0  0  0  0  0
  -25.3780  -36.1480   23.9120 C   0  0  0  0  0  3  0  0  0  0  0  0
  -27.5230  -36.9790   24.7690 C   0  0  0  0  0  1  0  0  0  0  0  0
  -26.4100  -37.2060   23.8510 N   0  0  0  0  0  0  0  0  0  0  0  0
  -26.0050  -38.1160   24.0590 H   0  0  0  0  0  0  0  0  0  0  0  0
  -26.4310  -31.4840   24.8450 C   0  0  1  0  0  0  0  0  0  0  0  0
  -25.3930  -31.1800   25.9500 C   0  0  0  0  0  1  0  0  0  0  0  0
  -27.0020  -30.1340   24.3520 C   0  0  0  0  0  1  0  0  0  0  0  0
  -27.6110  -32.2500   25.4910 C   0  0  0  0  0  1  0  0  0  0  0  0
  -31.1390  -20.4170   23.8280 C   0  0  0  0  0  2  0  0  0  0  0  0
  -31.5330  -21.8680   25.8970 C   0  0  0  0  0  1  0  0  0  0  0  0
  -30.9630  -21.8050   24.4730 C   0  0  0  0  0  2  0  0  0  0  0  0
  1  5  2  0
  1  3  1  0
  2  6  2  0
  3  4  2  0
  4  6  1  0
  4  8  1  0
  5  2  1  0
  6 93  1  0
  7  3  1  0
  7 10  1  0
  9  8  1  0
 10 11  1  0
 10 47  1  1
 10  9  1  0
 12 17  1  0
 13 14  1  0
 13 12  1  0
 15 14  1  0
 15 22  1  0
 15 16  1  0
 17 11  1  0
 17 16  1  0
 18 11  2  0
 19 20  2  0
 20 39  1  0
 21 20  1  0
 21 24  1  0
 22 19  1  0
 22 23  1  0
 23 21  2  0
 24 25  1  0
 25 26  2  0
 27 30  1  0
 27 26  1  0
 28 27  2  0
 29 28  1  0
 29 24  2  0
 30 31  1  0
 31 36  2  0
 31 32  1  0
 32 33  2  0
 33 34  1  0
 34 38  1  0
 35 34  2  0
 36 35  1  0
 37 36  1  0
 39 40  1  0
 40 43  1  0
 40 42  1  0
 41 39  2  0
 44 19  1  0
 44 45  1  0
 46 44  1  0
 47 48  1  0
 49 50  1  0
 49  5  1  0
 51 52  1  0
 51 50  2  0
 53 64  2  0
 54 52  1  0
 54 59  1  0
 55 63  1  0
 55 65  1  0
 56 62  1  0
 56 58  1  0
 57 63  1  0
 58 57  1  0
 59 58  2  0
 60 61  1  0
 60 54  2  0
 61 56  2  0
 62 55  1  0
 63 53  1  0
 65 67  2  0
 66 65  1  0
 68 66  1  0
 69 78  2  0
 69 74  1  0
 70 66  1  0
 70 74  1  0
 71 70  1  0
 72 73  1  0
 72 71  1  0
 73 69  1  0
 74 75  2  0
 75 76  1  0
 77 76  2  0
 78 77  1  0
 79 53  1  0
 79 80  1  0
 79 89  1  0
 80 83  1  0
 81 85  1  0
 81 80  1  0
 82 81  2  0
 85 84  1  0
 87 85  1  0
 87 88  1  0
 87 86  1  0
 89 92  1  1
 89 90  1  0
 91 89  1  0
 93 95  1  0
 95 94  1  0
M  ISO  4  10 100  11 100  51 101  52 101
M  END
>  <TORSDO>  (23) 
F 22

>  <SCORE>  (23) 
-11.748

>  <name>  (23) 
22

>  <ligand_id>  (23) 
22

>  <original_smiles>  (23) 
[H]OC1(C(=O)N2C([H])([H])C([H])([H])C([H])([H])C([H])(n3nc(-c4c([H])c([H])c(Oc5c([H])c([H])c(F)c([H])c5F)c([H])c4[H])c(C(=O)N([H])[H])c3N([H])[H])C2([H])[H])C([H])([H])c2c([H])c(C([H])([H])C([H])([H])C([H])([H])Oc3c([H])c([H])c4c(c3[H])C([H])([H])N(C(=O)C([H])(N([H])C(=O)C([H])(N([H])C([H])([H])[H])C([H])([H])[H])C(C([H])([H])[H])(C([H])([H])[H])C([H])([H])[H])C([H])(C(=O)N([H])C3([H])c5c([H])c([H])c([H])c([H])c5C([H])([H])C([H])([H])C3([H])[H])C4([H])[H])c([H])c(C([H])([H])C([H])([H])C([H])([H])[H])c2C([H])([H])C1([H])[H]

>  <smiles>  (23) 
[H]OC1(C(=O)N2C([H])([H])C([H])([H])C([H])([H])C([H])(n3nc(-c4c([H])c([H])c(Oc5c([H])c([H])c(F)c([H])c5F)c([H])c4[H])c(C(=O)N([H])[H])c3N([H])[H])C2([H])[H])C([H])([H])c2c([H])c(C([H])([H])C([H])([H])C([H])([H])Oc3c([H])c([H])c4c(c3[H])C([H])([H])N(C(=O)C([H])(N([H])C(=O)C([H])(N([H])C([H])([H])[H])C([H])([H])[H])C(C([H])([H])[H])(C([H])([H])[H])C([H])([H])[H])C([H])(C(=O)N([H])C3([H])c5c([H])c([H])c([H])c([H])c5C([H])([H])C([H])([H])C3([H])[H])C4([H])[H])c([H])c(C([H])([H])C([H])([H])C([H])([H])[H])c2C([H])([H])C1([H])[H]

$$$$
23:0:0
     RDKit          3D

 91 99  0  0  1  0  0  0  0  0999 V2000
  -30.4570  -20.9820   20.7570 C   0  0  0  0  0  3  0  0  0  0  0  0
  -28.3280  -20.0540   20.1430 C   0  0  0  0  0  3  0  0  0  0  0  0
  -29.1300  -21.2050   20.3300 C   0  0  0  0  0  0  0  0  0  0  0  0
  -30.9620  -19.6600   20.9520 C   0  0  0  0  0  0  0  0  0  0  0  0
  -30.1620  -18.4930   20.7050 C   0  0  0  0  0  0  0  0  0  0  0  0
  -28.8150  -18.7340   20.3200 C   0  0  0  0  0  0  0  0  0  0  0  0
  -32.4050  -19.5270   21.4230 C   0  0  0  0  0  1  0  0  0  0  0  0
  -27.7060  -17.4460   20.0320 Cl  0  0  0  0  0  0  0  0  0  0  0  0
  -28.5210  -22.5900   19.9630 C   0  0  0  0  0  2  0  0  0  0  0  0
  -29.0830  -23.9780   20.4600 C   0  0  0  0  0  2  0  0  0  0  0  0
  -28.1450  -25.1440   19.9590 C   0  0  0  0  0  2  0  0  0  0  0  0
  -28.3890  -26.5650   20.2410 O   0  0  0  0  0  0  0  0  0  0  0  0
  -24.6300  -31.8760   23.2680 C   0  0  0  0  0  0  0  0  0  0  0  0
  -27.2690  -27.4050   20.1610 C   0  0  0  0  0  0  0  0  0  0  0  0
  -23.4340  -30.4990   21.6050 C   0  0  0  0  0  3  0  0  0  0  0  0
  -24.8950  -28.9890   20.1570 C   0  0  0  0  0  0  0  0  0  0  0  0
  -25.9700  -30.8440   21.4290 C   0  0  0  0  0  2  0  0  0  0  0  0
  -26.0590  -29.4790   20.7640 C   0  0  0  0  0  0  0  0  0  0  0  0
  -27.2500  -28.6980   20.7580 C   0  0  0  0  0  3  0  0  0  0  0  0
  -26.0820  -26.9720   19.5180 C   0  0  0  0  0  3  0  0  0  0  0  0
  -24.9070  -27.7400   19.5270 C   0  0  0  0  0  3  0  0  0  0  0  0
  -23.6530  -29.8510   20.2130 C   0  0  0  0  0  2  0  0  0  0  0  0
  -24.6970  -31.0870   22.1590 N   0  0  0  0  0  0  0  0  0  0  0  0
  -23.5440  -32.1420   23.8050 O   0  0  0  0  0  0  0  0  0  0  0  0
  -22.7760  -29.4620   22.5450 C   0  0  0  0  0  0  0  0  0  0  0  0
  -21.4510  -29.2830   22.4130 N   0  0  0  0  0  0  0  0  0  0  0  0
  -23.4560  -28.8230   23.3520 O   0  0  0  0  0  0  0  0  0  0  0  0
  -20.9610  -29.8500   21.7340 H   0  0  0  0  0  0  0  0  0  0  0  0
  -18.0710  -28.1010   22.9050 C   0  0  0  0  0  0  0  0  0  0  0  0
  -20.6320  -28.3350   23.1690 C   0  0  0  0  0  3  0  0  0  0  0  0
  -20.7220  -26.9160   22.5640 C   0  0  0  0  0  2  0  0  0  0  0  0
  -19.6130  -26.6210   21.5490 C   0  0  0  0  0  2  0  0  0  0  0  0
  -18.2340  -26.7640   22.2020 C   0  0  0  0  0  2  0  0  0  0  0  0
  -19.1970  -28.8460   23.3460 C   0  0  0  0  0  0  0  0  0  0  0  0
  -18.9900  -30.0980   23.9640 C   0  0  0  0  0  3  0  0  0  0  0  0
  -17.6900  -30.6050   24.1460 C   0  0  0  0  0  3  0  0  0  0  0  0
  -16.5780  -29.8580   23.7230 C   0  0  0  0  0  3  0  0  0  0  0  0
  -16.7690  -28.6080   23.1070 C   0  0  0  0  0  3  0  0  0  0  0  0
  -25.9110  -32.5030   23.9010 C   0  0  0  0  0  3  0  0  0  0  0  0
  -26.4090  -31.7310   25.1830 C   0  0  1  0  0  0  0  0  0  0  0  0
  -25.3020  -31.4990   26.2370 C   0  0  0  0  0  1  0  0  0  0  0  0
  -26.9900  -30.3490   24.7990 C   0  0  0  0  0  1  0  0  0  0  0  0
  -27.5550  -32.5200   25.8580 C   0  0  0  0  0  1  0  0  0  0  0  0
  -25.6060  -33.9030   24.2240 N   0  0  0  0  0  0  0  0  0  0  0  0
  -25.9290  -34.9500   23.4530 C   0  0  0  0  0  0  0  0  0  0  0  0
  -26.5880  -34.8390   22.4150 O   0  0  0  0  0  0  0  0  0  0  0  0
  -25.0160  -34.0640   25.0270 H   0  0  0  0  0  0  0  0  0  0  0  0
  -24.1850  -36.7320   23.1190 C   0  0  0  0  0  1  0  0  0  0  0  0
  -25.4470  -36.3420   23.9050 C   0  0  0  0  0  3  0  0  0  0  0  0
  -27.5940  -37.2470   24.6800 C   0  0  0  0  0  1  0  0  0  0  0  0
  -26.4720  -37.3980   23.7570 N   0  0  0  0  0  0  0  0  0  0  0  0
  -26.0640  -38.3170   23.9050 H   0  0  0  0  0  0  0  0  0  0  0  0
  -30.8200  -17.0720   20.8490 C   0  0  0  0  0  2  0  0  0  0  0  0
  -30.6890  -14.6120   20.2880 C   0  0  0  0  0  0  0  0  0  0  0  0
  -30.2990  -12.4190   19.2020 C   0  0  0  0  0  2  0  0  0  0  0  0
  -29.3390  -12.5670   18.0060 C   0  0  0  0  0  2  0  0  0  0  0  0
  -27.8790  -12.4310   18.4730 C   0  0  0  0  0  2  0  0  0  0  0  0
  -27.5610  -13.3030   19.7180 C   0  0  0  0  0  3  0  0  0  0  0  0
  -28.6510  -13.1790   20.8090 C   0  0  0  0  0  2  0  0  0  0  0  0
  -29.9490  -13.4640   20.1840 N   0  0  0  0  0  0  0  0  0  0  0  0
  -31.8440  -14.6560   19.8690 O   0  0  0  0  0  0  0  0  0  0  0  0
  -30.0920  -15.7640   20.7050 N   0  0  0  0  0  0  0  0  0  0  0  0
  -29.1060  -15.7490   20.9270 H   0  0  0  0  0  0  0  0  0  0  0  0
  -25.1870  -13.8980   20.5000 C   0  0  0  0  0  0  0  0  0  0  0  0
  -24.1250  -13.1280   20.8850 C   0  0  0  0  0  0  0  0  0  0  0  0
  -24.5800  -11.7760   20.8320 C   0  0  0  0  0  0  0  0  0  0  0  0
  -26.2250  -13.0190   20.2400 N   0  0  0  0  0  0  0  0  0  0  0  0
  -25.8650  -11.7350   20.5000 N   0  0  0  0  0  0  0  0  0  0  0  0
  -23.8470  -10.5180   21.0240 C   0  0  0  0  0  0  0  0  0  0  0  0
  -24.2820   -9.5440   21.9500 C   0  0  0  0  0  3  0  0  0  0  0  0
  -23.5480   -8.3520   22.1320 C   0  0  0  0  0  3  0  0  0  0  0  0
  -22.3660   -8.1250   21.3870 C   0  0  0  0  0  0  0  0  0  0  0  0
  -21.9500   -9.0880   20.4510 C   0  0  0  0  0  3  0  0  0  0  0  0
  -22.6840  -10.2710   20.2670 C   0  0  0  0  0  3  0  0  0  0  0  0
  -21.6060   -6.9840   21.4770 O   0  0  0  0  0  0  0  0  0  0  0  0
  -21.5500   -6.2450   22.6310 C   0  0  0  0  0  0  0  0  0  0  0  0
  -21.1050   -6.8010   23.8510 C   0  0  0  0  0  3  0  0  0  0  0  0
  -20.9970   -5.9890   24.9980 C   0  0  0  0  0  3  0  0  0  0  0  0
  -21.3230   -4.6210   24.9250 C   0  0  0  0  0  0  0  0  0  0  0  0
  -21.7610   -4.0640   23.7100 C   0  0  0  0  0  3  0  0  0  0  0  0
  -21.8710   -4.8750   22.5660 C   0  0  0  0  0  0  0  0  0  0  0  0
  -22.2730   -4.3290   21.3940 F   0  0  0  0  0  0  0  0  0  0  0  0
  -21.2120   -3.8390   26.0240 F   0  0  0  0  0  0  0  0  0  0  0  0
  -22.7390  -13.6140   21.1930 C   0  0  0  0  0  0  0  0  0  0  0  0
  -22.0270  -12.9170   22.0700 N   0  0  0  0  0  0  0  0  0  0  0  0
  -22.2970  -14.6470   20.6910 O   0  0  0  0  0  0  0  0  0  0  0  0
  -22.3990  -12.0820   22.5000 H   0  0  0  0  0  0  0  0  0  0  0  0
  -21.0970  -13.2250   22.3170 H   0  0  0  0  0  0  0  0  0  0  0  0
  -25.3400  -15.2680   20.3300 N   0  0  0  0  0  0  0  0  0  0  0  0
  -24.5750  -15.9140   20.4860 H   0  0  0  0  0  0  0  0  0  0  0  0
  -26.2010  -15.7390   20.0740 H   0  0  0  0  0  0  0  0  0  0  0  0
  1  4  1  0
  2  6  2  0
  2  3  1  0
  3  1  2  0
  4  7  1  0
  5 53  1  0
  5  4  2  0
  6  5  1  0
  8  6  1  0
  9  3  1  0
  9 10  1  0
 11 12  1  0
 11 10  1  0
 13 24  2  0
 14 12  1  0
 14 19  1  0
 15 23  1  0
 15 25  1  0
 16 22  1  0
 16 18  1  0
 17 23  1  0
 18 17  1  0
 19 18  2  0
 20 21  1  0
 20 14  2  0
 21 16  2  0
 22 15  1  0
 23 13  1  0
 25 27  2  0
 26 25  1  0
 28 26  1  0
 29 38  2  0
 29 34  1  0
 30 26  1  0
 30 34  1  0
 31 30  1  0
 32 33  1  0
 32 31  1  0
 33 29  1  0
 34 35  2  0
 35 36  1  0
 37 36  2  0
 38 37  1  0
 39 13  1  0
 39 44  1  0
 39 40  1  0
 40 43  1  1
 40 41  1  0
 42 40  1  0
 44 47  1  0
 45 49  1  0
 45 44  1  0
 46 45  2  0
 49 48  1  0
 51 52  1  0
 51 49  1  0
 51 50  1  0
 54 62  1  0
 55 60  1  0
 56 57  1  0
 56 55  1  0
 58 57  1  0
 58 67  1  0
 58 59  1  0
 60 54  1  0
 60 59  1  0
 61 54  2  0
 62 53  1  0
 62 63  1  0
 64 65  2  0
 65 84  1  0
 66 65  1  0
 66 69  1  0
 67 68  1  0
 67 64  1  0
 68 66  2  0
 69 70  1  0
 70 71  2  0
 72 75  1  0
 72 71  1  0
 73 72  2  0
 74 73  1  0
 74 69  2  0
 75 76  1  0
 76 77  1  0
 77 78  2  0
 79 78  1  0
 79 83  1  0
 80 79  2  0
 81 76  2  0
 81 80  1  0
 82 81  1  0
 84 85  1  0
 85 88  1  0
 85 87  1  0
 86 84  2  0
 89 90  1  0
 89 64  1  0
 91 89  1  0
M  ISO  4  11 101  12 101  54 100  62 100
M  END
>  <TORSDO>  (24) 
F 20

>  <SCORE>  (24) 
-14.208

>  <name>  (24) 
23

>  <ligand_id>  (24) 
23

>  <original_smiles>  (24) 
[H]c1c([H])c([H])c2c(c1[H])C([H])([H])C([H])([H])C([H])([H])C2([H])N([H])C(=O)C1([H])N(C(=O)C([H])(N([H])C(=O)C([H])(N([H])C([H])([H])[H])C([H])([H])[H])C(C([H])([H])[H])(C([H])([H])[H])C([H])([H])[H])C([H])([H])c2c([H])c(OC([H])([H])C([H])([H])C([H])([H])c3c([H])c(Cl)c(C([H])([H])N([H])C(=O)N4C([H])([H])C([H])([H])C([H])([H])C([H])(n5nc(-c6c([H])c([H])c(Oc7c([H])c([H])c(F)c([H])c7F)c([H])c6[H])c(C(=O)N([H])[H])c5N([H])[H])C4([H])[H])c(C([H])([H])[H])c3[H])c([H])c([H])c2C1([H])[H]

>  <smiles>  (24) 
[H]c1c([H])c([H])c2c(c1[H])C([H])([H])C([H])([H])C([H])([H])C2([H])N([H])C(=O)C1([H])N(C(=O)C([H])(N([H])C(=O)C([H])(N([H])C([H])([H])[H])C([H])([H])[H])C(C([H])([H])[H])(C([H])([H])[H])C([H])([H])[H])C([H])([H])c2c([H])c(OC([H])([H])C([H])([H])C([H])([H])c3c([H])c(Cl)c(C([H])([H])N([H])C(=O)N4C([H])([H])C([H])([H])C([H])([H])C([H])(n5nc(-c6c([H])c([H])c(Oc7c([H])c([H])c(F)c([H])c7F)c([H])c6[H])c(C(=O)N([H])[H])c5N([H])[H])C4([H])[H])c(C([H])([H])[H])c3[H])c([H])c([H])c2C1([H])[H]

$$$$
24:0:0
     RDKit          3D

 90 98  0  0  1  0  0  0  0  0999 V2000
  -29.3410  -19.7050   20.5810 C   0  0  0  0  0  3  0  0  0  0  0  0
  -30.7210  -20.0200   18.2600 C   0  0  0  0  0  3  0  0  0  0  0  0
  -30.0960  -18.5620   20.1190 C   0  0  0  0  0  0  0  0  0  0  0  0
  -30.8040  -18.7680   18.9100 C   0  0  0  0  0  0  0  0  0  0  0  0
  -29.3260  -20.9650   19.8710 C   0  0  0  0  0  0  0  0  0  0  0  0
  -31.7040  -17.6930   18.3160 C   0  0  0  0  0  1  0  0  0  0  0  0
  -30.0060  -21.0740   18.7120 N   0  0  0  0  0  0  0  0  0  0  0  0
  -30.3100  -17.2440   20.9740 C   0  0  0  0  0  2  0  0  0  0  0  0
  -30.6210  -14.7190   20.3810 C   0  0  0  0  0  0  0  0  0  0  0  0
  -30.3770  -12.4620   19.3530 C   0  0  0  0  0  2  0  0  0  0  0  0
  -29.4280  -12.5580   18.1370 C   0  0  0  0  0  2  0  0  0  0  0  0
  -27.9590  -12.3960   18.5790 C   0  0  0  0  0  2  0  0  0  0  0  0
  -27.6000  -13.2810   19.8010 C   0  0  0  0  0  3  0  0  0  0  0  0
  -28.6690  -13.1840   20.9110 C   0  0  0  0  0  2  0  0  0  0  0  0
  -29.9620  -13.5160   20.3000 N   0  0  0  0  0  0  0  0  0  0  0  0
  -31.8230  -14.7960   20.1260 O   0  0  0  0  0  0  0  0  0  0  0  0
  -29.8660  -15.8580   20.5520 N   0  0  0  0  0  0  0  0  0  0  0  0
  -28.8720  -15.7090   20.5920 H   0  0  0  0  0  0  0  0  0  0  0  0
  -25.2110  -13.8820   20.5200 C   0  0  0  0  0  0  0  0  0  0  0  0
  -24.1420  -13.1110   20.8870 C   0  0  0  0  0  0  0  0  0  0  0  0
  -24.6050  -11.7590   20.8670 C   0  0  0  0  0  0  0  0  0  0  0  0
  -26.2560  -13.0000   20.2950 N   0  0  0  0  0  0  0  0  0  0  0  0
  -25.8990  -11.7190   20.5670 N   0  0  0  0  0  0  0  0  0  0  0  0
  -23.8780  -10.4990   21.0590 C   0  0  0  0  0  0  0  0  0  0  0  0
  -24.3150   -9.5260   21.9850 C   0  0  0  0  0  3  0  0  0  0  0  0
  -23.5860   -8.3320   22.1680 C   0  0  0  0  0  3  0  0  0  0  0  0
  -22.4040   -8.1000   21.4240 C   0  0  0  0  0  0  0  0  0  0  0  0
  -21.9830   -9.0630   20.4910 C   0  0  0  0  0  3  0  0  0  0  0  0
  -22.7130  -10.2500   20.3060 C   0  0  0  0  0  3  0  0  0  0  0  0
  -21.6440   -6.9590   21.5170 O   0  0  0  0  0  0  0  0  0  0  0  0
  -21.6190   -6.2040   22.6620 C   0  0  0  0  0  0  0  0  0  0  0  0
  -21.2430   -6.7500   23.9090 C   0  0  0  0  0  3  0  0  0  0  0  0
  -21.1610   -5.9220   25.0460 C   0  0  0  0  0  3  0  0  0  0  0  0
  -21.4490   -4.5470   24.9380 C   0  0  0  0  0  0  0  0  0  0  0  0
  -21.8190   -4.0000   23.6970 C   0  0  0  0  0  3  0  0  0  0  0  0
  -21.9020   -4.8270   22.5620 C   0  0  0  0  0  0  0  0  0  0  0  0
  -22.2370   -4.2910   21.3630 F   0  0  0  0  0  0  0  0  0  0  0  0
  -21.3650   -3.7490   26.0270 F   0  0  0  0  0  0  0  0  0  0  0  0
  -22.7440  -13.5900   21.1460 C   0  0  0  0  0  0  0  0  0  0  0  0
  -22.0130  -12.9010   22.0130 N   0  0  0  0  0  0  0  0  0  0  0  0
  -22.3120  -14.6120   20.6160 O   0  0  0  0  0  0  0  0  0  0  0  0
  -22.3770  -12.0720   22.4600 H   0  0  0  0  0  0  0  0  0  0  0  0
  -21.0780  -13.2090   22.2380 H   0  0  0  0  0  0  0  0  0  0  0  0
  -25.3770  -15.2510   20.3300 N   0  0  0  0  0  0  0  0  0  0  0  0
  -24.6090  -15.9050   20.4310 H   0  0  0  0  0  0  0  0  0  0  0  0
  -26.2170  -15.6840   19.9710 H   0  0  0  0  0  0  0  0  0  0  0  0
  -28.4090  -22.2120   20.2060 C   0  0  0  0  0  2  0  0  0  0  0  0
  -28.9870  -23.7160   20.3190 C   0  0  0  0  0  3  0  0  0  0  0  0
  -27.9380  -24.9130   20.0910 C   0  0  0  0  0  3  0  0  0  0  0  0
  -28.2550  -26.3760   20.2280 O   0  0  0  0  0  0  0  0  0  0  0  0
  -24.6120  -31.9000   23.2370 C   0  0  0  0  0  0  0  0  0  0  0  0
  -27.1680  -27.2830   20.1750 C   0  0  0  0  0  0  0  0  0  0  0  0
  -23.3960  -30.5060   21.6080 C   0  0  0  0  0  3  0  0  0  0  0  0
  -24.8310  -28.9500   20.1750 C   0  0  0  0  0  0  0  0  0  0  0  0
  -25.9450  -30.7970   21.4210 C   0  0  0  0  0  2  0  0  0  0  0  0
  -26.0090  -29.4160   20.7680 C   0  0  0  0  0  0  0  0  0  0  0  0
  -27.1850  -28.5940   20.7580 C   0  0  0  0  0  3  0  0  0  0  0  0
  -25.9620  -26.8890   19.5510 C   0  0  0  0  0  3  0  0  0  0  0  0
  -24.8120  -27.6950   19.5560 C   0  0  0  0  0  3  0  0  0  0  0  0
  -23.6010  -29.8330   20.2270 C   0  0  0  0  0  2  0  0  0  0  0  0
  -24.6720  -31.0870   22.1430 N   0  0  0  0  0  0  0  0  0  0  0  0
  -23.5290  -32.1840   23.7730 O   0  0  0  0  0  0  0  0  0  0  0  0
  -22.7310  -29.4900   22.5690 C   0  0  0  0  0  0  0  0  0  0  0  0
  -21.4020  -29.3170   22.4460 N   0  0  0  0  0  0  0  0  0  0  0  0
  -23.4070  -28.8590   23.3860 O   0  0  0  0  0  0  0  0  0  0  0  0
  -20.9150  -29.8800   21.7640 H   0  0  0  0  0  0  0  0  0  0  0  0
  -18.0200  -28.1300   22.9560 C   0  0  0  0  0  0  0  0  0  0  0  0
  -20.5790  -28.3850   23.2210 C   0  0  0  0  0  3  0  0  0  0  0  0
  -20.6740  -26.9490   22.6540 C   0  0  0  0  0  2  0  0  0  0  0  0
  -19.5720  -26.6250   21.6410 C   0  0  0  0  0  2  0  0  0  0  0  0
  -18.1910  -26.7760   22.2870 C   0  0  0  0  0  2  0  0  0  0  0  0
  -19.1420  -28.8920   23.3790 C   0  0  0  0  0  0  0  0  0  0  0  0
  -18.9250  -30.1580   23.9650 C   0  0  0  0  0  3  0  0  0  0  0  0
  -17.6200  -30.6630   24.1260 C   0  0  0  0  0  3  0  0  0  0  0  0
  -16.5140  -29.9000   23.7180 C   0  0  0  0  0  3  0  0  0  0  0  0
  -16.7160  -28.6330   23.1410 C   0  0  0  0  0  3  0  0  0  0  0  0
  -25.8970  -32.5300   23.8560 C   0  0  0  0  0  3  0  0  0  0  0  0
  -26.4170  -31.7540   25.1280 C   0  0  1  0  0  0  0  0  0  0  0  0
  -25.3300  -31.5140   26.2030 C   0  0  0  0  0  1  0  0  0  0  0  0
  -26.9960  -30.3740   24.7330 C   0  0  0  0  0  1  0  0  0  0  0  0
  -27.5760  -32.5440   25.7800 C   0  0  0  0  0  1  0  0  0  0  0  0
  -25.5860  -33.9270   24.1920 N   0  0  0  0  0  0  0  0  0  0  0  0
  -25.9120  -34.9810   23.4330 C   0  0  0  0  0  0  0  0  0  0  0  0
  -26.5710  -34.8800   22.3950 O   0  0  0  0  0  0  0  0  0  0  0  0
  -24.9950  -34.0780   24.9950 H   0  0  0  0  0  0  0  0  0  0  0  0
  -24.1810  -36.7780   23.1030 C   0  0  0  0  0  1  0  0  0  0  0  0
  -25.4310  -36.3700   23.8990 C   0  0  0  0  0  3  0  0  0  0  0  0
  -27.5780  -37.2530   24.7020 C   0  0  0  0  0  1  0  0  0  0  0  0
  -26.4640  -37.4230   23.7730 N   0  0  0  0  0  0  0  0  0  0  0  0
  -26.0610  -38.3450   23.9220 H   0  0  0  0  0  0  0  0  0  0  0  0
  2  7  2  0
  2  4  1  0
  3  1  1  0
  3  8  1  0
  4  3  2  0
  5 47  1  0
  5  1  2  0
  6  4  1  0
  7  5  1  0
  9 17  1  0
 10 15  1  0
 11 12  1  0
 11 10  1  0
 13 12  1  0
 13 22  1  0
 13 14  1  0
 15  9  1  0
 15 14  1  0
 16  9  2  0
 17 18  1  0
 17  8  1  0
 19 20  2  0
 20 39  1  0
 21 20  1  0
 21 24  1  0
 22 19  1  0
 22 23  1  0
 23 21  2  0
 24 25  1  0
 25 26  2  0
 27 30  1  0
 27 26  1  0
 28 27  2  0
 29 28  1  0
 29 24  2  0
 30 31  1  0
 31 32  1  0
 32 33  2  0
 34 33  1  0
 34 38  1  0
 35 34  2  0
 36 31  2  0
 36 35  1  0
 37 36  1  0
 39 40  1  0
 40 43  1  0
 40 42  1  0
 41 39  2  0
 44 45  1  0
 44 19  1  0
 46 44  1  0
 47 48  1  0
 49 50  1  0
 49 48  2  0
 51 62  2  0
 52 50  1  0
 52 57  1  0
 53 61  1  0
 53 63  1  0
 54 60  1  0
 54 56  1  0
 55 61  1  0
 56 55  1  0
 57 56  2  0
 58 59  1  0
 58 52  2  0
 59 54  2  0
 60 53  1  0
 61 51  1  0
 63 65  2  0
 64 63  1  0
 66 64  1  0
 67 76  2  0
 67 72  1  0
 68 64  1  0
 68 72  1  0
 69 68  1  0
 70 71  1  0
 70 69  1  0
 71 67  1  0
 72 73  2  0
 73 74  1  0
 75 74  2  0
 76 75  1  0
 77 51  1  0
 77 82  1  0
 77 78  1  0
 78 81  1  1
 78 79  1  0
 80 78  1  0
 82 85  1  0
 83 87  1  0
 83 82  1  0
 84 83  2  0
 87 86  1  0
 89 87  1  0
 89 90  1  0
 89 88  1  0
M  ISO  4   9 100  17 100  49 101  50 101
M  END
>  <TORSDO>  (25) 
F 20

>  <SCORE>  (25) 
-13.854

>  <name>  (25) 
24

>  <ligand_id>  (25) 
24

>  <original_smiles>  (25) 
[H]c1nc(C([H])([H])C([H])([H])C([H])([H])Oc2c([H])c([H])c3c(c2[H])C([H])([H])N(C(=O)C([H])(N([H])C(=O)C([H])(N([H])C([H])([H])[H])C([H])([H])[H])C(C([H])([H])[H])(C([H])([H])[H])C([H])([H])[H])C([H])(C(=O)N([H])C2([H])c4c([H])c([H])c([H])c([H])c4C([H])([H])C([H])([H])C2([H])[H])C3([H])[H])c([H])c(C([H])([H])N([H])C(=O)N2C([H])([H])C([H])([H])C([H])([H])C([H])(n3nc(-c4c([H])c([H])c(Oc5c([H])c([H])c(F)c([H])c5F)c([H])c4[H])c(C(=O)N([H])[H])c3N([H])[H])C2([H])[H])c1C([H])([H])[H]

>  <smiles>  (25) 
[H]c1nc(C([H])([H])C([H])([H])C([H])([H])Oc2c([H])c([H])c3c(c2[H])C([H])([H])N(C(=O)C([H])(N([H])C(=O)C([H])(N([H])C([H])([H])[H])C([H])([H])[H])C(C([H])([H])[H])(C([H])([H])[H])C([H])([H])[H])C([H])(C(=O)N([H])C2([H])c4c([H])c([H])c([H])c([H])c4C([H])([H])C([H])([H])C2([H])[H])C3([H])[H])c([H])c(C([H])([H])N([H])C(=O)N2C([H])([H])C([H])([H])C([H])([H])C([H])(n3nc(-c4c([H])c([H])c(Oc5c([H])c([H])c(F)c([H])c5F)c([H])c4[H])c(C(=O)N([H])[H])c3N([H])[H])C2([H])[H])c1C([H])([H])[H]

$$$$
25:0:0
     RDKit          3D

 91 99  0  0  1  0  0  0  0  0999 V2000
  -27.6930  -19.8060   20.4650 C   0  0  0  0  0  3  0  0  0  0  0  0
  -27.8710  -18.4300   20.2060 C   0  0  0  0  0  3  0  0  0  0  0  0
  -30.0550  -19.9680   21.0110 C   0  0  0  0  0  3  0  0  0  0  0  0
  -28.7850  -20.5800   20.9000 C   0  0  0  0  0  0  0  0  0  0  0  0
  -29.1390  -17.8110   20.3250 C   0  0  0  0  0  0  0  0  0  0  0  0
  -30.2470  -18.6050   20.7170 C   0  0  0  0  0  0  0  0  0  0  0  0
  -31.8510  -17.9760   20.8930 Cl  0  0  0  0  0  0  0  0  0  0  0  0
  -28.5860  -22.0300   21.3150 C   0  0  0  0  0  2  0  0  0  0  0  0
  -28.4940  -23.0450   20.1600 C   0  0  0  0  0  2  0  0  0  0  0  0
  -28.4210  -24.5120   20.6630 C   0  0  0  0  0  2  0  0  0  0  0  0
  -28.5290  -25.5130   19.5070 C   0  0  0  0  0  2  0  0  0  0  0  0
  -28.4490  -26.8560   19.9920 O   0  0  0  0  0  0  0  0  0  0  0  0
  -24.5670  -31.8830   23.2080 C   0  0  0  0  0  0  0  0  0  0  0  0
  -27.2370  -27.5110   20.0340 C   0  0  0  0  0  0  0  0  0  0  0  0
  -23.3630  -30.4990   21.5600 C   0  0  0  0  0  3  0  0  0  0  0  0
  -24.8180  -28.9970   20.1030 C   0  0  0  0  0  0  0  0  0  0  0  0
  -25.8810  -30.8840   21.3450 C   0  0  0  0  0  2  0  0  0  0  0  0
  -25.9760  -29.5170   20.6930 C   0  0  0  0  0  0  0  0  0  0  0  0
  -27.1810  -28.7790   20.6580 C   0  0  0  0  0  3  0  0  0  0  0  0
  -26.0540  -27.0030   19.4460 C   0  0  0  0  0  3  0  0  0  0  0  0
  -24.8560  -27.7440   19.4730 C   0  0  0  0  0  3  0  0  0  0  0  0
  -23.5620  -29.8340   20.1730 C   0  0  0  0  0  2  0  0  0  0  0  0
  -24.6220  -31.1020   22.0950 N   0  0  0  0  0  0  0  0  0  0  0  0
  -23.4900  -32.1440   23.7540 O   0  0  0  0  0  0  0  0  0  0  0  0
  -22.7280  -29.4600   22.5070 C   0  0  0  0  0  0  0  0  0  0  0  0
  -21.4070  -29.2800   22.3890 N   0  0  0  0  0  0  0  0  0  0  0  0
  -23.4240  -28.8160   23.3040 O   0  0  0  0  0  0  0  0  0  0  0  0
  -20.9250  -29.8490   21.7080 H   0  0  0  0  0  0  0  0  0  0  0  0
  -18.0280  -28.1320   22.9470 C   0  0  0  0  0  0  0  0  0  0  0  0
  -20.5990  -28.3270   23.1520 C   0  0  0  0  0  3  0  0  0  0  0  0
  -20.6650  -26.9340   22.4840 C   0  0  0  0  0  2  0  0  0  0  0  0
  -19.5270  -26.7420   21.4750 C   0  0  0  0  0  2  0  0  0  0  0  0
  -18.1620  -26.8470   22.1650 C   0  0  0  0  0  2  0  0  0  0  0  0
  -19.1720  -28.8510   23.3730 C   0  0  0  0  0  0  0  0  0  0  0  0
  -18.9910  -30.1120   23.9860 C   0  0  0  0  0  3  0  0  0  0  0  0
  -17.7050  -30.6460   24.1640 C   0  0  0  0  0  3  0  0  0  0  0  0
  -16.5740  -29.9140   23.7630 C   0  0  0  0  0  3  0  0  0  0  0  0
  -16.7340  -28.6520   23.1670 C   0  0  0  0  0  3  0  0  0  0  0  0
  -25.8540  -32.5030   23.8280 C   0  0  0  0  0  3  0  0  0  0  0  0
  -25.5440  -33.9020   24.1570 N   0  0  0  0  0  0  0  0  0  0  0  0
  -25.8980  -34.9510   23.4090 C   0  0  0  0  0  0  0  0  0  0  0  0
  -26.5880  -34.8480   22.3890 O   0  0  0  0  0  0  0  0  0  0  0  0
  -24.9100  -34.0530   24.9270 H   0  0  0  0  0  0  0  0  0  0  0  0
  -24.1740  -36.7460   23.0300 C   0  0  0  0  0  1  0  0  0  0  0  0
  -25.4040  -36.3400   23.8590 C   0  0  0  0  0  3  0  0  0  0  0  0
  -27.5240  -37.2190   24.7270 C   0  0  0  0  0  1  0  0  0  0  0  0
  -26.4400  -37.3910   23.7640 N   0  0  0  0  0  0  0  0  0  0  0  0
  -26.0330  -38.3130   23.9060 H   0  0  0  0  0  0  0  0  0  0  0  0
  -26.3660  -31.7210   25.0960 C   0  0  1  0  0  0  0  0  0  0  0  0
  -25.2680  -31.4720   26.1530 C   0  0  0  0  0  1  0  0  0  0  0  0
  -26.9500  -30.3480   24.6850 C   0  0  0  0  0  1  0  0  0  0  0  0
  -27.5160  -32.5100   25.7630 C   0  0  0  0  0  1  0  0  0  0  0  0
  -29.1960  -16.3110   20.0290 C   0  0  0  0  0  2  0  0  0  0  0  0
  -30.7800  -14.4620   20.0810 C   0  0  0  0  0  0  0  0  0  0  0  0
  -30.3570  -12.3490   18.9000 C   0  0  0  0  0  2  0  0  0  0  0  0
  -29.3450  -12.6110   17.7740 C   0  0  0  0  0  2  0  0  0  0  0  0
  -27.8900  -12.4700   18.2690 C   0  0  0  0  0  2  0  0  0  0  0  0
  -27.6440  -13.2460   19.5850 C   0  0  0  0  0  3  0  0  0  0  0  0
  -28.7780  -13.0020   20.6160 C   0  0  0  0  0  2  0  0  0  0  0  0
  -30.0620  -13.3130   19.9690 N   0  0  0  0  0  0  0  0  0  0  0  0
  -31.8890  -14.6170   19.5700 O   0  0  0  0  0  0  0  0  0  0  0  0
  -30.2120  -15.5010   20.7010 N   0  0  0  0  0  0  0  0  0  0  0  0
  -30.9410  -16.1200   21.0300 H   0  0  0  0  0  0  0  0  0  0  0  0
  -25.2940  -13.9070   20.4410 C   0  0  0  0  0  0  0  0  0  0  0  0
  -24.2280  -13.1580   20.8450 C   0  0  0  0  0  0  0  0  0  0  0  0
  -24.6570  -11.7940   20.7670 C   0  0  0  0  0  0  0  0  0  0  0  0
  -26.3070  -13.0060   20.1350 N   0  0  0  0  0  0  0  0  0  0  0  0
  -25.9250  -11.7300   20.3900 N   0  0  0  0  0  0  0  0  0  0  0  0
  -23.9190  -10.5440   20.9810 C   0  0  0  0  0  0  0  0  0  0  0  0
  -24.3730   -9.5590   21.8870 C   0  0  0  0  0  3  0  0  0  0  0  0
  -23.6330   -8.3740   22.0840 C   0  0  0  0  0  3  0  0  0  0  0  0
  -22.4220   -8.1660   21.3810 C   0  0  0  0  0  0  0  0  0  0  0  0
  -21.9820   -9.1410   20.4690 C   0  0  0  0  0  3  0  0  0  0  0  0
  -22.7260  -10.3180   20.2680 C   0  0  0  0  0  3  0  0  0  0  0  0
  -21.6570   -7.0310   21.4890 O   0  0  0  0  0  0  0  0  0  0  0  0
  -21.6470   -6.2780   22.6360 C   0  0  0  0  0  0  0  0  0  0  0  0
  -21.2760   -6.8250   23.8840 C   0  0  0  0  0  3  0  0  0  0  0  0
  -21.2200   -6.0010   25.0240 C   0  0  0  0  0  3  0  0  0  0  0  0
  -21.5210   -4.6290   24.9160 C   0  0  0  0  0  0  0  0  0  0  0  0
  -21.8870   -4.0830   23.6730 C   0  0  0  0  0  3  0  0  0  0  0  0
  -21.9480   -4.9060   22.5340 C   0  0  0  0  0  0  0  0  0  0  0  0
  -22.2820   -4.3690   21.3360 F   0  0  0  0  0  0  0  0  0  0  0  0
  -21.4580   -3.8350   26.0090 F   0  0  0  0  0  0  0  0  0  0  0  0
  -22.8540  -13.6550   21.1930 C   0  0  0  0  0  0  0  0  0  0  0  0
  -22.1520  -12.9660   22.0810 N   0  0  0  0  0  0  0  0  0  0  0  0
  -22.4140  -14.7010   20.7110 O   0  0  0  0  0  0  0  0  0  0  0  0
  -22.5130  -12.1180   22.4910 H   0  0  0  0  0  0  0  0  0  0  0  0
  -21.2370  -13.2930   22.3580 H   0  0  0  0  0  0  0  0  0  0  0  0
  -25.4930  -15.2780   20.2900 N   0  0  0  0  0  0  0  0  0  0  0  0
  -24.8370  -15.9720   20.6290 H   0  0  0  0  0  0  0  0  0  0  0  0
  -26.3620  -15.6660   19.9590 H   0  0  0  0  0  0  0  0  0  0  0  0
  1  4  1  0
  2  5  1  0
  2  1  2  0
  4  3  2  0
  4  8  1  0
  5  6  2  0
  6  7  1  0
  6  3  1  0
  9 10  1  0
  9  8  1  0
 11 12  1  0
 11 10  1  0
 12 14  1  0
 13 24  2  0
 14 19  1  0
 15 23  1  0
 15 25  1  0
 16 22  1  0
 16 18  1  0
 17 23  1  0
 18 17  1  0
 19 18  2  0
 20 21  1  0
 20 14  2  0
 21 16  2  0
 22 15  1  0
 23 13  1  0
 25 27  2  0
 26 25  1  0
 28 26  1  0
 29 38  2  0
 29 34  1  0
 30 26  1  0
 30 34  1  0
 31 30  1  0
 32 33  1  0
 32 31  1  0
 33 29  1  0
 34 35  2  0
 35 36  1  0
 37 36  2  0
 38 37  1  0
 39 13  1  0
 39 40  1  0
 39 49  1  0
 40 43  1  0
 41 45  1  0
 41 40  1  0
 42 41  2  0
 45 44  1  0
 47 45  1  0
 47 48  1  0
 47 46  1  0
 49 52  1  1
 49 50  1  0
 51 49  1  0
 53  5  1  0
 53 62  1  0
 54 62  1  0
 55 60  1  0
 56 57  1  0
 56 55  1  0
 58 57  1  0
 58 67  1  0
 58 59  1  0
 60 54  1  0
 60 59  1  0
 61 54  2  0
 62 63  1  0
 64 65  2  0
 65 84  1  0
 66 65  1  0
 66 69  1  0
 67 68  1  0
 67 64  1  0
 68 66  2  0
 69 70  1  0
 70 71  2  0
 72 75  1  0
 72 71  1  0
 73 72  2  0
 74 73  1  0
 74 69  2  0
 75 76  1  0
 76 77  1  0
 77 78  2  0
 79 78  1  0
 79 83  1  0
 80 79  2  0
 81 76  2  0
 81 80  1  0
 82 81  1  0
 84 85  1  0
 85 88  1  0
 85 87  1  0
 86 84  2  0
 89 64  1  0
 89 90  1  0
 91 89  1  0
M  ISO  4  11 101  12 101  54 100  62 100
M  END
>  <TORSDO>  (26) 
F 21

>  <SCORE>  (26) 
-13.516

>  <name>  (26) 
25

>  <ligand_id>  (26) 
25

>  <original_smiles>  (26) 
[H]c1c([H])c([H])c2c(c1[H])C([H])([H])C([H])([H])C([H])([H])C2([H])N([H])C(=O)C1([H])N(C(=O)C([H])(N([H])C(=O)C([H])(N([H])C([H])([H])[H])C([H])([H])[H])C(C([H])([H])[H])(C([H])([H])[H])C([H])([H])[H])C([H])([H])c2c([H])c(OC([H])([H])C([H])([H])C([H])([H])C([H])([H])c3c([H])c([H])c(C([H])([H])N([H])C(=O)N4C([H])([H])C([H])([H])C([H])([H])C([H])(n5nc(-c6c([H])c([H])c(Oc7c([H])c([H])c(F)c([H])c7F)c([H])c6[H])c(C(=O)N([H])[H])c5N([H])[H])C4([H])[H])c(Cl)c3[H])c([H])c([H])c2C1([H])[H]

>  <smiles>  (26) 
[H]c1c([H])c([H])c2c(c1[H])C([H])([H])C([H])([H])C([H])([H])C2([H])N([H])C(=O)C1([H])N(C(=O)C([H])(N([H])C(=O)C([H])(N([H])C([H])([H])[H])C([H])([H])[H])C(C([H])([H])[H])(C([H])([H])[H])C([H])([H])[H])C([H])([H])c2c([H])c(OC([H])([H])C([H])([H])C([H])([H])C([H])([H])c3c([H])c([H])c(C([H])([H])N([H])C(=O)N4C([H])([H])C([H])([H])C([H])([H])C([H])(n5nc(-c6c([H])c([H])c(Oc7c([H])c([H])c(F)c([H])c7F)c([H])c6[H])c(C(=O)N([H])[H])c5N([H])[H])C4([H])[H])c(Cl)c3[H])c([H])c([H])c2C1([H])[H]

$$$$
26:0:0
     RDKit          3D

103111  0  0  1  0  0  0  0  0999 V2000
  -33.1630  -21.1620   16.6050 C   0  0  0  0  0  2  0  0  0  0  0  0
  -34.5330  -20.7450   17.1930 C   0  0  0  0  0  2  0  0  0  0  0  0
  -35.7280  -21.5930   16.6980 C   0  0  0  0  0  2  0  0  0  0  0  0
  -36.4710  -22.4120   17.7760 C   0  0  0  0  0  2  0  0  0  0  0  0
  -35.6590  -23.5080   18.5120 C   0  0  0  0  0  2  0  0  0  0  0  0
  -34.5440  -22.9790   19.4360 C   0  0  0  0  0  2  0  0  0  0  0  0
  -33.7870  -24.0470   20.2370 C   0  0  0  0  0  2  0  0  0  0  0  0
  -32.3940  -23.5800   20.7250 C   0  0  0  0  0  2  0  0  0  0  0  0
  -32.3240  -22.1470   21.3180 C   0  0  0  0  0  2  0  0  0  0  0  0
  -31.4320  -21.2040   20.4880 C   0  0  0  0  0  2  0  0  0  0  0  0
  -31.5920  -19.6900   20.7690 C   0  0  0  0  0  2  0  0  0  0  0  0
  -30.2460  -18.9430   20.5920 C   0  0  0  0  0  2  0  0  0  0  0  0
  -30.3240  -17.4320   20.3380 C   0  0  0  0  0  2  0  0  0  0  0  0
  -30.8700  -16.5820   21.5070 C   0  0  0  0  0  2  0  0  0  0  0  0
  -30.8210  -14.3940   20.2890 C   0  0  0  0  0  0  0  0  0  0  0  0
  -30.4520  -12.1620   19.3000 C   0  0  0  0  0  2  0  0  0  0  0  0
  -29.4980  -12.2320   18.0960 C   0  0  0  0  0  2  0  0  0  0  0  0
  -28.0380  -12.1050   18.5620 C   0  0  0  0  0  2  0  0  0  0  0  0
  -27.6970  -13.1060   19.6930 C   0  0  0  0  0  3  0  0  0  0  0  0
  -28.7590  -13.0420   20.8170 C   0  0  0  0  0  2  0  0  0  0  0  0
  -30.1060  -13.2400   20.2360 N   0  0  0  0  0  0  0  0  0  0  0  0
  -31.7360  -14.6800   19.5130 O   0  0  0  0  0  0  0  0  0  0  0  0
  -30.5040  -15.1790   21.3260 N   0  0  0  0  0  0  0  0  0  0  0  0
  -29.8740  -14.7680   21.9990 H   0  0  0  0  0  0  0  0  0  0  0  0
  -25.3360  -13.7980   20.4790 C   0  0  0  0  0  0  0  0  0  0  0  0
  -24.2510  -13.0540   20.8700 C   0  0  0  0  0  0  0  0  0  0  0  0
  -24.6660  -11.6900   20.8100 C   0  0  0  0  0  0  0  0  0  0  0  0
  -26.3450  -12.8820   20.2090 N   0  0  0  0  0  0  0  0  0  0  0  0
  -25.9440  -11.6110   20.4650 N   0  0  0  0  0  0  0  0  0  0  0  0
  -23.9010  -10.4500   21.0100 C   0  0  0  0  0  0  0  0  0  0  0  0
  -24.3230   -9.4640   21.9300 C   0  0  0  0  0  3  0  0  0  0  0  0
  -23.5630   -8.2890   22.1170 C   0  0  0  0  0  3  0  0  0  0  0  0
  -22.3650   -8.0950   21.3880 C   0  0  0  0  0  0  0  0  0  0  0  0
  -21.9610   -9.0710   20.4610 C   0  0  0  0  0  3  0  0  0  0  0  0
  -22.7220  -10.2370   20.2690 C   0  0  0  0  0  3  0  0  0  0  0  0
  -21.5750   -6.9750   21.4900 O   0  0  0  0  0  0  0  0  0  0  0  0
  -21.5330   -6.2230   22.6360 C   0  0  0  0  0  0  0  0  0  0  0  0
  -21.1530   -6.7780   23.8770 C   0  0  0  0  0  3  0  0  0  0  0  0
  -21.0550   -5.9530   25.0160 C   0  0  0  0  0  3  0  0  0  0  0  0
  -21.3220   -4.5760   24.9140 C   0  0  0  0  0  0  0  0  0  0  0  0
  -21.6980   -4.0200   23.6780 C   0  0  0  0  0  3  0  0  0  0  0  0
  -21.7980   -4.8410   22.5410 C   0  0  0  0  0  0  0  0  0  0  0  0
  -22.1360   -4.2970   21.3460 F   0  0  0  0  0  0  0  0  0  0  0  0
  -21.2210   -3.7820   26.0050 F   0  0  0  0  0  0  0  0  0  0  0  0
  -22.8820  -13.5770   21.1930 C   0  0  0  0  0  0  0  0  0  0  0  0
  -22.1590  -12.8980   22.0810 N   0  0  0  0  0  0  0  0  0  0  0  0
  -22.4590  -14.6160   20.6930 O   0  0  0  0  0  0  0  0  0  0  0  0
  -22.5120  -12.0560   22.5080 H   0  0  0  0  0  0  0  0  0  0  0  0
  -21.2390  -13.2330   22.3330 H   0  0  0  0  0  0  0  0  0  0  0  0
  -25.5390  -15.1620   20.3120 N   0  0  0  0  0  0  0  0  0  0  0  0
  -24.8000  -15.8370   20.4680 H   0  0  0  0  0  0  0  0  0  0  0  0
  -26.3970  -15.5890   19.9850 H   0  0  0  0  0  0  0  0  0  0  0  0
  -32.5390  -22.3740   17.3250 C   0  0  0  0  0  2  0  0  0  0  0  0
  -31.2520  -22.8440   16.7700 N   0  0  0  0  0  4  0  0  0  0  0  0
  -31.4110  -23.3290   15.9010 H   0  0  0  0  0  0  0  0  0  0  0  0
  -30.6850  -22.0320   16.5790 H   0  0  0  0  0  0  0  0  0  0  0  0
  -31.1590  -25.0410   18.0240 C   0  0  0  0  0  2  0  0  0  0  0  0
  -29.0640  -23.9680   17.1640 C   0  0  0  0  0  2  0  0  0  0  0  0
  -30.3570  -25.7950   19.0960 C   0  0  0  0  0  2  0  0  0  0  0  0
  -28.2090  -24.7750   18.1600 C   0  0  0  0  0  2  0  0  0  0  0  0
  -30.4750  -23.6960   17.7050 C   0  0  0  0  0  3  0  0  0  0  0  0
  -28.8890  -26.0580   18.7030 C   0  0  0  0  0  3  0  0  0  0  0  0
  -28.3170  -26.5310   19.9240 O   0  0  0  0  0  0  0  0  0  0  0  0
  -24.5210  -31.6140   23.1060 C   0  0  0  0  0  0  0  0  0  0  0  0
  -27.1460  -27.2520   19.9010 C   0  0  0  0  0  0  0  0  0  0  0  0
  -23.3050  -30.2560   21.4380 C   0  0  0  0  0  3  0  0  0  0  0  0
  -24.7480  -28.7410   19.9870 C   0  0  0  0  0  0  0  0  0  0  0  0
  -25.8330  -30.6130   21.2360 C   0  0  0  0  0  2  0  0  0  0  0  0
  -25.9130  -29.2570   20.5660 C   0  0  0  0  0  0  0  0  0  0  0  0
  -27.1150  -28.5170   20.5240 C   0  0  0  0  0  3  0  0  0  0  0  0
  -25.9490  -26.7240   19.3670 C   0  0  0  0  0  3  0  0  0  0  0  0
  -24.7570  -27.4670   19.3950 C   0  0  0  0  0  3  0  0  0  0  0  0
  -23.5110  -29.6030   20.0460 C   0  0  0  0  0  2  0  0  0  0  0  0
  -24.5730  -30.8390   21.9860 N   0  0  0  0  0  0  0  0  0  0  0  0
  -23.4410  -31.8820   23.6500 O   0  0  0  0  0  0  0  0  0  0  0  0
  -22.6520  -29.2160   22.3760 C   0  0  0  0  0  0  0  0  0  0  0  0
  -21.3270  -29.0390   22.2410 N   0  0  0  0  0  0  0  0  0  0  0  0
  -23.3320  -28.5730   23.1800 O   0  0  0  0  0  0  0  0  0  0  0  0
  -20.8410  -29.6050   21.5630 H   0  0  0  0  0  0  0  0  0  0  0  0
  -17.9500  -27.8440   22.6930 C   0  0  0  0  0  0  0  0  0  0  0  0
  -20.5060  -28.0900   22.9910 C   0  0  0  0  0  3  0  0  0  0  0  0
  -20.6120  -26.6690   22.3910 C   0  0  0  0  0  2  0  0  0  0  0  0
  -19.5160  -26.3670   21.3630 C   0  0  0  0  0  2  0  0  0  0  0  0
  -18.1300  -26.5060   21.9980 C   0  0  0  0  0  2  0  0  0  0  0  0
  -19.0670  -28.5950   23.1450 C   0  0  0  0  0  0  0  0  0  0  0  0
  -18.8480  -29.8530   23.7510 C   0  0  0  0  0  3  0  0  0  0  0  0
  -17.5440  -30.3560   23.9110 C   0  0  0  0  0  3  0  0  0  0  0  0
  -16.4410  -29.5990   23.4800 C   0  0  0  0  0  3  0  0  0  0  0  0
  -16.6440  -28.3460   22.8760 C   0  0  0  0  0  3  0  0  0  0  0  0
  -25.8080  -32.2270   23.7370 C   0  0  0  0  0  3  0  0  0  0  0  0
  -25.5020  -33.6120   24.1190 N   0  0  0  0  0  0  0  0  0  0  0  0
  -25.8160  -34.6870   23.3860 C   0  0  0  0  0  0  0  0  0  0  0  0
  -26.4700  -34.6170   22.3420 O   0  0  0  0  0  0  0  0  0  0  0  0
  -24.9230  -33.7400   24.9360 H   0  0  0  0  0  0  0  0  0  0  0  0
  -24.0680  -36.4720   23.1250 C   0  0  0  0  0  1  0  0  0  0  0  0
  -25.3310  -36.0570   23.8950 C   0  0  0  0  0  3  0  0  0  0  0  0
  -27.4790  -36.9340   24.6990 C   0  0  0  0  0  1  0  0  0  0  0  0
  -26.3540  -37.1210   23.7870 N   0  0  0  0  0  0  0  0  0  0  0  0
  -25.9460  -38.0340   23.9690 H   0  0  0  0  0  0  0  0  0  0  0  0
  -26.3360  -31.4120   24.9810 C   0  0  1  0  0  0  0  0  0  0  0  0
  -25.2520  -31.1290   26.0460 C   0  0  0  0  0  1  0  0  0  0  0  0
  -26.9220  -30.0530   24.5280 C   0  0  0  0  0  1  0  0  0  0  0  0
  -27.4900  -32.1810   25.6660 C   0  0  0  0  0  1  0  0  0  0  0  0
  1  2  1  0
  1 53  1  0
  3  2  1  0
  3  4  1  0
  4  5  1  0
  5  6  1  0
  6  7  1  0
  7  8  1  0
  8  9  1  0
 10 11  1  0
 10  9  1  0
 12 11  1  0
 13 12  1  0
 13 14  1  0
 15 23  1  0
 16 21  1  0
 17 18  1  0
 17 16  1  0
 19 18  1  0
 19 28  1  0
 19 20  1  0
 21 15  1  0
 21 20  1  0
 22 15  2  0
 23 14  1  0
 23 24  1  0
 25 26  2  0
 26 45  1  0
 27 26  1  0
 27 30  1  0
 28 29  1  0
 28 25  1  0
 29 27  2  0
 30 31  1  0
 31 32  2  0
 33 36  1  0
 33 32  1  0
 34 33  2  0
 35 34  1  0
 35 30  2  0
 36 37  1  0
 37 38  1  0
 38 39  2  0
 40 39  1  0
 40 44  1  0
 41 40  2  0
 42 37  2  0
 42 41  1  0
 43 42  1  0
 45 46  1  0
 46 49  1  0
 46 48  1  0
 47 45  2  0
 50 51  1  0
 50 25  1  0
 52 50  1  0
 54 53  1  0
 55 54  1  0
 56 54  1  0
 57 59  1  0
 58 61  1  0
 58 60  1  0
 60 62  1  0
 61 54  1  0
 61 57  1  0
 62 59  1  0
 62 63  1  0
 64 75  2  0
 65 63  1  0
 65 70  1  0
 66 74  1  0
 66 76  1  0
 67 73  1  0
 67 69  1  0
 68 74  1  0
 69 68  1  0
 70 69  2  0
 71 72  1  0
 71 65  2  0
 72 67  2  0
 73 66  1  0
 74 64  1  0
 76 78  2  0
 77 76  1  0
 79 77  1  0
 80 89  2  0
 80 85  1  0
 81 77  1  0
 81 85  1  0
 82 81  1  0
 83 84  1  0
 83 82  1  0
 84 80  1  0
 85 86  2  0
 86 87  1  0
 88 87  2  0
 89 88  1  0
 90 64  1  0
 90 91  1  0
 90100  1  0
 91 94  1  0
 92 96  1  0
 92 91  1  0
 93 92  2  0
 96 95  1  0
 98 96  1  0
 98 99  1  0
 98 97  1  0
100103  1  1
100101  1  0
102100  1  0
M  ISO  4  15 100  23 100  62 101  63 101
M  END
>  <TORSDO>  (27) 
F 32

>  <SCORE>  (27) 
-9.492

>  <name>  (27) 
26

>  <ligand_id>  (27) 
26

>  <original_smiles>  (27) 
[H]c1c([H])c([H])c2c(c1[H])C([H])([H])C([H])([H])C([H])([H])C2([H])N([H])C(=O)C1([H])N(C(=O)C([H])(N([H])C(=O)C([H])(N([H])C([H])([H])[H])C([H])([H])[H])C(C([H])([H])[H])(C([H])([H])[H])C([H])([H])[H])C([H])([H])c2c([H])c(OC3([H])C([H])([H])C([H])([H])C([H])([N+]([H])([H])C([H])([H])C([H])([H])C([H])([H])C([H])([H])C([H])([H])C([H])([H])C([H])([H])C([H])([H])C([H])([H])C([H])([H])C([H])([H])C([H])([H])C([H])([H])C([H])([H])C([H])([H])N([H])C(=O)N4C([H])([H])C([H])([H])C([H])([H])C([H])(n5nc(-c6c([H])c([H])c(Oc7c([H])c([H])c(F)c([H])c7F)c([H])c6[H])c(C(=O)N([H])[H])c5N([H])[H])C4([H])[H])C([H])([H])C3([H])[H])c([H])c([H])c2C1([H])[H]

>  <smiles>  (27) 
[H]c1c([H])c([H])c2c(c1[H])C([H])([H])C([H])([H])C([H])([H])C2([H])N([H])C(=O)C1([H])N(C(=O)C([H])(N([H])C(=O)C([H])(N([H])C([H])([H])[H])C([H])([H])[H])C(C([H])([H])[H])(C([H])([H])[H])C([H])([H])[H])C([H])([H])c2c([H])c(OC3([H])C([H])([H])C([H])([H])C([H])([N+]([H])([H])C([H])([H])C([H])([H])C([H])([H])C([H])([H])C([H])([H])C([H])([H])C([H])([H])C([H])([H])C([H])([H])C([H])([H])C([H])([H])C([H])([H])C([H])([H])C([H])([H])C([H])([H])N([H])C(=O)N4C([H])([H])C([H])([H])C([H])([H])C([H])(n5nc(-c6c([H])c([H])c(Oc7c([H])c([H])c(F)c([H])c7F)c([H])c6[H])c(C(=O)N([H])[H])c5N([H])[H])C4([H])[H])C([H])([H])C3([H])[H])c([H])c([H])c2C1([H])[H]

$$$$
27:0:0
     RDKit          3D

 93101  0  0  1  0  0  0  0  0999 V2000
  -29.2830  -23.7860   18.3090 C   0  0  0  0  0  3  0  0  0  0  0  0
  -30.5140  -23.1050   18.5180 C   0  0  0  0  0  0  0  0  0  0  0  0
  -29.4890  -25.0380   18.8220 C   0  0  0  0  0  0  0  0  0  0  0  0
  -31.3700  -23.8420   19.2080 N   0  0  0  0  0  0  0  0  0  0  0  0
  -30.7470  -25.0260   19.3990 N   0  0  0  0  0  0  0  0  0  0  0  0
  -31.3370  -25.9930   21.5970 C   0  0  0  0  0  1  0  0  0  0  0  0
  -31.4750  -26.0890   20.0720 C   0  0  0  0  0  2  0  0  0  0  0  0
  -30.9780  -21.8030   17.9240 C   0  0  0  0  0  2  0  0  0  0  0  0
  -31.3950  -20.7580   18.9660 C   0  0  0  0  0  2  0  0  0  0  0  0
  -30.2950  -19.7730   19.3720 C   0  0  0  0  0  2  0  0  0  0  0  0
  -30.7740  -18.8820   20.5250 C   0  0  0  0  0  2  0  0  0  0  0  0
  -30.2530  -17.4550   20.3960 C   0  0  0  0  0  2  0  0  0  0  0  0
  -30.6620  -16.5710   21.5820 C   0  0  0  0  0  2  0  0  0  0  0  0
  -30.7840  -14.3860   20.4340 C   0  0  0  0  0  0  0  0  0  0  0  0
  -30.3970  -12.3590   19.0940 C   0  0  0  0  0  2  0  0  0  0  0  0
  -29.4330  -12.6710   17.9330 C   0  0  0  0  0  2  0  0  0  0  0  0
  -27.9630  -12.5410   18.3790 C   0  0  0  0  0  2  0  0  0  0  0  0
  -27.6740  -13.3130   19.6930 C   0  0  0  0  0  3  0  0  0  0  0  0
  -28.7330  -12.9700   20.7650 C   0  0  0  0  0  2  0  0  0  0  0  0
  -30.0680  -13.2600   20.2080 N   0  0  0  0  0  0  0  0  0  0  0  0
  -31.8220  -14.6790   19.8300 O   0  0  0  0  0  0  0  0  0  0  0  0
  -30.2420  -15.2040   21.3380 N   0  0  0  0  0  0  0  0  0  0  0  0
  -29.3950  -14.8840   21.7850 H   0  0  0  0  0  0  0  0  0  0  0  0
  -25.2760  -13.9340   20.3970 C   0  0  0  0  0  0  0  0  0  0  0  0
  -24.2100  -13.1660   20.7790 C   0  0  0  0  0  0  0  0  0  0  0  0
  -24.6720  -11.8130   20.7640 C   0  0  0  0  0  0  0  0  0  0  0  0
  -26.3200  -13.0500   20.1740 N   0  0  0  0  0  0  0  0  0  0  0  0
  -25.9590  -11.7710   20.4480 N   0  0  0  0  0  0  0  0  0  0  0  0
  -23.9520  -10.5500   20.9740 C   0  0  0  0  0  0  0  0  0  0  0  0
  -24.3950   -9.5970   21.9140 C   0  0  0  0  0  3  0  0  0  0  0  0
  -23.6780   -8.3980   22.1100 C   0  0  0  0  0  3  0  0  0  0  0  0
  -22.5020   -8.1450   21.3630 C   0  0  0  0  0  0  0  0  0  0  0  0
  -22.0790   -9.0880   20.4110 C   0  0  0  0  0  3  0  0  0  0  0  0
  -22.7970  -10.2800   20.2130 C   0  0  0  0  0  3  0  0  0  0  0  0
  -21.7570   -6.9970   21.4640 O   0  0  0  0  0  0  0  0  0  0  0  0
  -21.7170   -6.2650   22.6250 C   0  0  0  0  0  0  0  0  0  0  0  0
  -21.2940   -6.8270   23.8470 C   0  0  0  0  0  3  0  0  0  0  0  0
  -21.2050   -6.0220   24.9990 C   0  0  0  0  0  3  0  0  0  0  0  0
  -21.5270   -4.6520   24.9300 C   0  0  0  0  0  0  0  0  0  0  0  0
  -21.9410   -4.0890   23.7100 C   0  0  0  0  0  3  0  0  0  0  0  0
  -22.0340   -4.8930   22.5610 C   0  0  0  0  0  0  0  0  0  0  0  0
  -22.4140   -4.3390   21.3850 F   0  0  0  0  0  0  0  0  0  0  0  0
  -21.4320   -3.8760   26.0340 F   0  0  0  0  0  0  0  0  0  0  0  0
  -22.8120  -13.6420   21.0540 C   0  0  0  0  0  0  0  0  0  0  0  0
  -22.0950  -12.9520   21.9310 N   0  0  0  0  0  0  0  0  0  0  0  0
  -22.3660  -14.6600   20.5270 O   0  0  0  0  0  0  0  0  0  0  0  0
  -22.4680  -12.1300   22.3810 H   0  0  0  0  0  0  0  0  0  0  0  0
  -21.1560  -13.2520   22.1590 H   0  0  0  0  0  0  0  0  0  0  0  0
  -25.4450  -15.3030   20.2080 N   0  0  0  0  0  0  0  0  0  0  0  0
  -24.6910  -15.9720   20.3230 H   0  0  0  0  0  0  0  0  0  0  0  0
  -26.3140  -15.7330   19.9160 H   0  0  0  0  0  0  0  0  0  0  0  0
  -28.6370  -26.2630   18.6870 C   0  0  0  0  0  2  0  0  0  0  0  0
  -28.3010  -26.7670   19.9810 O   0  0  0  0  0  0  0  0  0  0  0  0
  -24.5490  -31.8990   23.2090 C   0  0  0  0  0  0  0  0  0  0  0  0
  -27.1300  -27.4880   20.0340 C   0  0  0  0  0  0  0  0  0  0  0  0
  -23.3130  -30.5110   21.5780 C   0  0  0  0  0  3  0  0  0  0  0  0
  -24.7350  -28.9820   20.1210 C   0  0  0  0  0  0  0  0  0  0  0  0
  -25.8340  -30.8680   21.3380 C   0  0  0  0  0  2  0  0  0  0  0  0
  -25.9040  -29.5020   20.6900 C   0  0  0  0  0  0  0  0  0  0  0  0
  -27.1050  -28.7550   20.6570 C   0  0  0  0  0  3  0  0  0  0  0  0
  -25.9310  -26.9660   19.4970 C   0  0  0  0  0  3  0  0  0  0  0  0
  -24.7400  -27.7120   19.5260 C   0  0  0  0  0  3  0  0  0  0  0  0
  -23.4950  -29.8420   20.1900 C   0  0  0  0  0  2  0  0  0  0  0  0
  -24.5850  -31.1060   22.1000 N   0  0  0  0  0  0  0  0  0  0  0  0
  -23.4780  -32.1670   23.7690 O   0  0  0  0  0  0  0  0  0  0  0  0
  -22.6790  -29.4820   22.5410 C   0  0  0  0  0  0  0  0  0  0  0  0
  -21.3540  -29.2930   22.4290 N   0  0  0  0  0  0  0  0  0  0  0  0
  -23.3750  -28.8540   23.3460 O   0  0  0  0  0  0  0  0  0  0  0  0
  -20.8540  -29.8520   21.7510 H   0  0  0  0  0  0  0  0  0  0  0  0
  -17.9920  -28.0780   22.9500 C   0  0  0  0  0  0  0  0  0  0  0  0
  -20.5490  -28.3500   23.2040 C   0  0  0  0  0  3  0  0  0  0  0  0
  -20.6560  -26.9200   22.6230 C   0  0  0  0  0  2  0  0  0  0  0  0
  -19.5480  -26.5920   21.6170 C   0  0  0  0  0  2  0  0  0  0  0  0
  -18.1700  -26.7300   22.2720 C   0  0  0  0  0  2  0  0  0  0  0  0
  -19.1080  -28.8450   23.3720 C   0  0  0  0  0  0  0  0  0  0  0  0
  -18.8880  -30.1080   23.9660 C   0  0  0  0  0  3  0  0  0  0  0  0
  -17.5820  -30.6020   24.1400 C   0  0  0  0  0  3  0  0  0  0  0  0
  -16.4790  -29.8310   23.7340 C   0  0  0  0  0  3  0  0  0  0  0  0
  -16.6850  -28.5710   23.1450 C   0  0  0  0  0  3  0  0  0  0  0  0
  -25.8480  -32.5220   23.8090 C   0  0  0  0  0  3  0  0  0  0  0  0
  -25.5490  -33.9200   24.1510 N   0  0  0  0  0  0  0  0  0  0  0  0
  -25.8830  -34.9740   23.3970 C   0  0  0  0  0  0  0  0  0  0  0  0
  -26.5470  -34.8750   22.3620 O   0  0  0  0  0  0  0  0  0  0  0  0
  -24.9600  -34.0710   24.9570 H   0  0  0  0  0  0  0  0  0  0  0  0
  -24.1680  -36.7810   23.0500 C   0  0  0  0  0  1  0  0  0  0  0  0
  -25.4020  -36.3620   23.8650 C   0  0  0  0  0  3  0  0  0  0  0  0
  -27.5400  -37.2200   24.7140 C   0  0  0  0  0  1  0  0  0  0  0  0
  -26.4420  -37.4080   23.7690 N   0  0  0  0  0  0  0  0  0  0  0  0
  -26.0430  -38.3290   23.9290 H   0  0  0  0  0  0  0  0  0  0  0  0
  -26.3860  -31.7420   25.0700 C   0  0  1  0  0  0  0  0  0  0  0  0
  -25.3140  -31.4990   26.1580 C   0  0  0  0  0  1  0  0  0  0  0  0
  -26.9570  -30.3660   24.6560 C   0  0  0  0  0  1  0  0  0  0  0  0
  -27.5490  -32.5310   25.7170 C   0  0  0  0  0  1  0  0  0  0  0  0
  1  2  1  0
  1  3  2  0
  2  4  2  0
  3  5  1  0
  4  5  1  0
  5  7  1  0
  7  6  1  0
  8  2  1  0
  8  9  1  0
  9 10  1  0
 10 11  1  0
 12 11  1  0
 12 13  1  0
 14 22  1  0
 15 20  1  0
 16 17  1  0
 16 15  1  0
 18 17  1  0
 18 27  1  0
 18 19  1  0
 20 14  1  0
 20 19  1  0
 21 14  2  0
 22 13  1  0
 22 23  1  0
 24 25  2  0
 25 44  1  0
 26 25  1  0
 26 29  1  0
 27 24  1  0
 27 28  1  0
 28 26  2  0
 29 30  1  0
 30 31  2  0
 32 35  1  0
 32 31  1  0
 33 32  2  0
 34 33  1  0
 34 29  2  0
 35 36  1  0
 36 37  1  0
 37 38  2  0
 39 38  1  0
 39 43  1  0
 40 39  2  0
 41 36  2  0
 41 40  1  0
 42 41  1  0
 44 45  1  0
 45 48  1  0
 45 47  1  0
 46 44  2  0
 49 50  1  0
 49 24  1  0
 51 49  1  0
 52  3  1  0
 52 53  1  0
 53 55  1  0
 54 65  2  0
 55 60  1  0
 56 64  1  0
 56 66  1  0
 57 63  1  0
 57 59  1  0
 58 64  1  0
 59 58  1  0
 60 59  2  0
 61 62  1  0
 61 55  2  0
 62 57  2  0
 63 56  1  0
 64 54  1  0
 66 68  2  0
 67 66  1  0
 69 67  1  0
 70 79  2  0
 70 75  1  0
 71 67  1  0
 71 75  1  0
 72 71  1  0
 73 74  1  0
 73 72  1  0
 74 70  1  0
 75 76  2  0
 76 77  1  0
 78 77  2  0
 79 78  1  0
 80 54  1  0
 80 81  1  0
 80 90  1  0
 81 84  1  0
 82 86  1  0
 82 81  1  0
 83 82  2  0
 86 85  1  0
 88 86  1  0
 88 89  1  0
 88 87  1  0
 90 93  1  1
 90 91  1  0
 92 90  1  0
M  ISO  4  14 100  22 100  52 101  53 101
M  END
>  <TORSDO>  (28) 
F 24

>  <SCORE>  (28) 
-12.334

>  <name>  (28) 
27

>  <ligand_id>  (28) 
27

>  <original_smiles>  (28) 
[H]c1c([H])c([H])c2c(c1[H])C([H])([H])C([H])([H])C([H])([H])C2([H])N([H])C(=O)C1([H])N(C(=O)C([H])(N([H])C(=O)C([H])(N([H])C([H])([H])[H])C([H])([H])[H])C(C([H])([H])[H])(C([H])([H])[H])C([H])([H])[H])C([H])([H])c2c([H])c(OC([H])([H])c3c([H])c(C([H])([H])C([H])([H])C([H])([H])C([H])([H])C([H])([H])C([H])([H])N([H])C(=O)N4C([H])([H])C([H])([H])C([H])([H])C([H])(n5nc(-c6c([H])c([H])c(Oc7c([H])c([H])c(F)c([H])c7F)c([H])c6[H])c(C(=O)N([H])[H])c5N([H])[H])C4([H])[H])nn3C([H])([H])C([H])([H])[H])c([H])c([H])c2C1([H])[H]

>  <smiles>  (28) 
[H]c1c([H])c([H])c2c(c1[H])C([H])([H])C([H])([H])C([H])([H])C2([H])N([H])C(=O)C1([H])N(C(=O)C([H])(N([H])C(=O)C([H])(N([H])C([H])([H])[H])C([H])([H])[H])C(C([H])([H])[H])(C([H])([H])[H])C([H])([H])[H])C([H])([H])c2c([H])c(OC([H])([H])c3c([H])c(C([H])([H])C([H])([H])C([H])([H])C([H])([H])C([H])([H])C([H])([H])N([H])C(=O)N4C([H])([H])C([H])([H])C([H])([H])C([H])(n5nc(-c6c([H])c([H])c(Oc7c([H])c([H])c(F)c([H])c7F)c([H])c6[H])c(C(=O)N([H])[H])c5N([H])[H])C4([H])[H])nn3C([H])([H])C([H])([H])[H])c([H])c([H])c2C1([H])[H]

$$$$
28:0:0
     RDKit          3D

 92100  0  0  1  0  0  0  0  0999 V2000
  -26.8350  -21.5600   21.1280 C   0  0  0  0  0  3  0  0  0  0  0  0
  -27.1760  -23.6800   20.0430 C   0  0  0  0  0  3  0  0  0  0  0  0
  -26.3290  -22.7930   20.7170 C   0  0  0  0  0  0  0  0  0  0  0  0
  -28.1240  -21.1550   20.7450 C   0  0  0  0  0  0  0  0  0  0  0  0
  -28.5240  -23.3760   19.7290 C   0  0  0  0  0  0  0  0  0  0  0  0
  -28.9390  -21.9590   19.8800 C   0  0  0  0  0  0  0  0  0  0  0  0
  -24.9070  -23.1950   21.0570 C   0  0  0  0  0  1  0  0  0  0  0  0
  -28.5880  -19.8350   21.3530 C   0  0  0  0  0  1  0  0  0  0  0  0
  -29.3070  -24.6940   19.2860 C   0  0  0  0  0  2  0  0  0  0  0  0
  -29.0050  -26.0630   20.1470 C   0  0  0  0  0  2  0  0  0  0  0  0
  -29.0210  -27.4770   19.6350 O   0  0  0  0  0  0  0  0  0  0  0  0
  -24.7590  -31.9570   23.4660 C   0  0  0  0  0  0  0  0  0  0  0  0
  -27.8340  -28.2320   19.7490 C   0  0  0  0  0  0  0  0  0  0  0  0
  -23.7040  -30.6980   21.6250 C   0  0  0  0  0  3  0  0  0  0  0  0
  -25.3040  -29.5640   19.9770 C   0  0  0  0  0  0  0  0  0  0  0  0
  -26.1890  -31.3310   21.4990 C   0  0  0  0  0  2  0  0  0  0  0  0
  -26.4200  -30.0850   20.6450 C   0  0  0  0  0  0  0  0  0  0  0  0
  -27.6900  -29.4360   20.5170 C   0  0  0  0  0  3  0  0  0  0  0  0
  -26.6900  -27.7750   19.0630 C   0  0  0  0  0  3  0  0  0  0  0  0
  -25.4410  -28.4190   19.1760 C   0  0  0  0  0  3  0  0  0  0  0  0
  -23.9740  -30.2730   20.1570 C   0  0  0  0  0  2  0  0  0  0  0  0
  -24.9020  -31.3400   22.2560 N   0  0  0  0  0  0  0  0  0  0  0  0
  -23.6600  -32.0200   24.0340 O   0  0  0  0  0  0  0  0  0  0  0  0
  -23.1770  -29.4750   22.4140 C   0  0  0  0  0  0  0  0  0  0  0  0
  -21.8940  -29.1270   22.2100 N   0  0  0  0  0  0  0  0  0  0  0  0
  -23.9210  -28.8480   23.1720 O   0  0  0  0  0  0  0  0  0  0  0  0
  -21.3450  -29.6950   21.5810 H   0  0  0  0  0  0  0  0  0  0  0  0
  -18.7400  -27.3580   22.3560 C   0  0  0  0  0  0  0  0  0  0  0  0
  -21.2080  -27.9840   22.8150 C   0  0  0  0  0  3  0  0  0  0  0  0
  -21.5690  -26.6690   22.0860 C   0  0  0  0  0  2  0  0  0  0  0  0
  -20.5810  -26.3030   20.9750 C   0  0  0  0  0  2  0  0  0  0  0  0
  -19.1670  -26.1480   21.5410 C   0  0  0  0  0  2  0  0  0  0  0  0
  -19.6990  -28.2290   22.9400 C   0  0  0  0  0  0  0  0  0  0  0  0
  -19.2490  -29.3570   23.6590 C   0  0  0  0  0  3  0  0  0  0  0  0
  -17.8730  -29.6210   23.8000 C   0  0  0  0  0  3  0  0  0  0  0  0
  -16.9290  -28.7470   23.2310 C   0  0  0  0  0  3  0  0  0  0  0  0
  -17.3630  -27.6170   22.5160 C   0  0  0  0  0  3  0  0  0  0  0  0
  -25.9680  -32.6330   24.1830 C   0  0  0  0  0  3  0  0  0  0  0  0
  -25.5610  -33.9970   24.5550 N   0  0  0  0  0  0  0  0  0  0  0  0
  -25.8600  -35.0990   23.8550 C   0  0  0  0  0  0  0  0  0  0  0  0
  -26.5760  -35.0800   22.8510 O   0  0  0  0  0  0  0  0  0  0  0  0
  -24.9260  -34.0810   25.3350 H   0  0  0  0  0  0  0  0  0  0  0  0
  -24.0370  -36.7980   23.5070 C   0  0  0  0  0  1  0  0  0  0  0  0
  -25.2720  -36.4360   24.3480 C   0  0  0  0  0  3  0  0  0  0  0  0
  -27.3160  -37.4150   25.2900 C   0  0  0  0  0  1  0  0  0  0  0  0
  -26.2410  -37.5540   24.3130 N   0  0  0  0  0  0  0  0  0  0  0  0
  -25.7740  -38.4410   24.4790 H   0  0  0  0  0  0  0  0  0  0  0  0
  -26.4600  -31.8380   25.4560 C   0  0  1  0  0  0  0  0  0  0  0  0
  -25.3240  -31.4820   26.4440 C   0  0  0  0  0  1  0  0  0  0  0  0
  -27.1530  -30.5190   25.0420 C   0  0  0  0  0  1  0  0  0  0  0  0
  -27.5170  -32.6700   26.2180 C   0  0  0  0  0  1  0  0  0  0  0  0
  -30.1500  -21.1730   19.2090 C   0  0  0  0  0  2  0  0  0  0  0  0
  -30.0320  -19.5430   19.0210 C   0  0  0  0  0  3  0  0  0  0  0  0
  -31.1540  -18.5120   19.5850 C   0  0  0  0  0  3  0  0  0  0  0  0
  -31.6680  -15.9190   19.8190 C   0  0  0  0  0  0  0  0  0  0  0  0
  -31.6180  -13.4690   19.3160 C   0  0  0  0  0  2  0  0  0  0  0  0
  -30.7250  -13.2230   18.0820 C   0  0  0  0  0  2  0  0  0  0  0  0
  -29.2470  -13.0720   18.4980 C   0  0  0  0  0  2  0  0  0  0  0  0
  -28.7870  -14.1820   19.4810 C   0  0  0  0  0  3  0  0  0  0  0  0
  -29.8040  -14.3920   20.6230 C   0  0  0  0  0  2  0  0  0  0  0  0
  -31.1030  -14.6770   19.9990 N   0  0  0  0  0  0  0  0  0  0  0  0
  -32.8630  -16.0160   19.5290 O   0  0  0  0  0  0  0  0  0  0  0  0
  -30.8310  -17.0240   19.7720 N   0  0  0  0  0  0  0  0  0  0  0  0
  -29.8620  -16.8140   19.9570 H   0  0  0  0  0  0  0  0  0  0  0  0
  -26.4310  -14.8510   20.2420 C   0  0  0  0  0  0  0  0  0  0  0  0
  -25.3420  -14.1120   20.6170 C   0  0  0  0  0  0  0  0  0  0  0  0
  -25.7580  -12.7450   20.5710 C   0  0  0  0  0  0  0  0  0  0  0  0
  -27.4390  -13.9370   19.9860 N   0  0  0  0  0  0  0  0  0  0  0  0
  -27.0430  -12.6660   20.2470 N   0  0  0  0  0  0  0  0  0  0  0  0
  -24.9900  -11.5070   20.7570 C   0  0  0  0  0  0  0  0  0  0  0  0
  -25.3170  -10.5810   21.7720 C   0  0  0  0  0  3  0  0  0  0  0  0
  -24.5500   -9.4070   21.9440 C   0  0  0  0  0  3  0  0  0  0  0  0
  -23.4430   -9.1530   21.1000 C   0  0  0  0  0  0  0  0  0  0  0  0
  -23.1350  -10.0690   20.0770 C   0  0  0  0  0  3  0  0  0  0  0  0
  -23.9020  -11.2320   19.9040 C   0  0  0  0  0  3  0  0  0  0  0  0
  -22.6570   -8.0290   21.1770 O   0  0  0  0  0  0  0  0  0  0  0  0
  -22.3610   -7.4390   22.3790 C   0  0  0  0  0  0  0  0  0  0  0  0
  -21.6940   -8.1400   23.4080 C   0  0  0  0  0  3  0  0  0  0  0  0
  -21.3470   -7.4750   24.6020 C   0  0  0  0  0  3  0  0  0  0  0  0
  -21.6550   -6.1120   24.7640 C   0  0  0  0  0  0  0  0  0  0  0  0
  -22.3120   -5.4110   23.7380 C   0  0  0  0  0  3  0  0  0  0  0  0
  -22.6610   -6.0730   22.5470 C   0  0  0  0  0  0  0  0  0  0  0  0
  -23.2760   -5.3870   21.5540 F   0  0  0  0  0  0  0  0  0  0  0  0
  -21.3140   -5.4700   25.9070 F   0  0  0  0  0  0  0  0  0  0  0  0
  -23.9650  -14.6350   20.9060 C   0  0  0  0  0  0  0  0  0  0  0  0
  -23.2270  -13.9660   21.7840 N   0  0  0  0  0  0  0  0  0  0  0  0
  -23.5550  -15.6720   20.3880 O   0  0  0  0  0  0  0  0  0  0  0  0
  -23.5720  -13.1260   22.2250 H   0  0  0  0  0  0  0  0  0  0  0  0
  -22.3030  -14.3000   22.0210 H   0  0  0  0  0  0  0  0  0  0  0  0
  -26.6390  -16.2170   20.0750 N   0  0  0  0  0  0  0  0  0  0  0  0
  -25.8930  -16.8920   20.2000 H   0  0  0  0  0  0  0  0  0  0  0  0
  -27.4880  -16.6320   19.7130 H   0  0  0  0  0  0  0  0  0  0  0  0
  2  3  1  0
  3  7  1  0
  3  1  2  0
  4  1  1  0
  4  8  1  0
  5  6  1  0
  5  2  2  0
  6  4  2  0
  9  5  1  0
  9 10  1  0
 11 13  1  0
 11 10  1  0
 12 23  2  0
 13 18  1  0
 14 22  1  0
 14 24  1  0
 15 21  1  0
 15 17  1  0
 16 22  1  0
 17 16  1  0
 18 17  2  0
 19 20  1  0
 19 13  2  0
 20 15  2  0
 21 14  1  0
 22 12  1  0
 24 26  2  0
 25 24  1  0
 27 25  1  0
 28 37  2  0
 28 33  1  0
 29 25  1  0
 29 33  1  0
 30 29  1  0
 31 32  1  0
 31 30  1  0
 32 28  1  0
 33 34  2  0
 34 35  1  0
 36 35  2  0
 37 36  1  0
 38 12  1  0
 38 39  1  0
 38 48  1  0
 39 42  1  0
 40 44  1  0
 40 39  1  0
 41 40  2  0
 44 43  1  0
 46 44  1  0
 46 47  1  0
 46 45  1  0
 48 51  1  1
 48 49  1  0
 50 48  1  0
 52  6  1  0
 53 52  1  0
 53 54  2  0
 54 63  1  0
 55 61  1  0
 56 61  1  0
 57 58  1  0
 57 56  1  0
 59 58  1  0
 59 68  1  0
 59 60  1  0
 61 60  1  0
 62 55  2  0
 63 55  1  0
 63 64  1  0
 65 66  2  0
 66 85  1  0
 67 66  1  0
 67 70  1  0
 68 65  1  0
 68 69  1  0
 69 67  2  0
 70 71  1  0
 71 72  2  0
 73 76  1  0
 73 72  1  0
 74 73  2  0
 75 74  1  0
 75 70  2  0
 76 77  1  0
 77 82  2  0
 77 78  1  0
 78 79  2  0
 79 80  1  0
 80 84  1  0
 81 80  2  0
 82 81  1  0
 83 82  1  0
 85 86  1  0
 86 89  1  0
 86 88  1  0
 87 85  2  0
 90 91  1  0
 90 65  1  0
 92 90  1  0
M  ISO  4  10 101  11 101  55 100  63 100
M  END
>  <TORSDO>  (29) 
F 21

>  <SCORE>  (29) 
-7.142

>  <name>  (29) 
28

>  <ligand_id>  (29) 
28

>  <original_smiles>  (29) 
[H]c1c([H])c([H])c2c(c1[H])C([H])([H])C([H])([H])C([H])([H])C2([H])N([H])C(=O)C1([H])N(C(=O)C([H])(N([H])C(=O)C([H])(N([H])C([H])([H])[H])C([H])([H])[H])C(C([H])([H])[H])(C([H])([H])[H])C([H])([H])[H])C([H])([H])c2c([H])c(OC([H])([H])C([H])([H])c3c([H])c(C([H])([H])[H])c([H])c(C([H])([H])[H])c3C([H])([H])C([H])([H])C([H])([H])N([H])C(=O)N3C([H])([H])C([H])([H])C([H])([H])C([H])(n4nc(-c5c([H])c([H])c(Oc6c([H])c([H])c(F)c([H])c6F)c([H])c5[H])c(C(=O)N([H])[H])c4N([H])[H])C3([H])[H])c([H])c([H])c2C1([H])[H]

>  <smiles>  (29) 
[H]c1c([H])c([H])c2c(c1[H])C([H])([H])C([H])([H])C([H])([H])C2([H])N([H])C(=O)C1([H])N(C(=O)C([H])(N([H])C(=O)C([H])(N([H])C([H])([H])[H])C([H])([H])[H])C(C([H])([H])[H])(C([H])([H])[H])C([H])([H])[H])C([H])([H])c2c([H])c(OC([H])([H])C([H])([H])c3c([H])c(C([H])([H])[H])c([H])c(C([H])([H])[H])c3C([H])([H])C([H])([H])C([H])([H])N([H])C(=O)N3C([H])([H])C([H])([H])C([H])([H])C([H])(n4nc(-c5c([H])c([H])c(Oc6c([H])c([H])c(F)c([H])c6F)c([H])c5[H])c(C(=O)N([H])[H])c4N([H])[H])C3([H])[H])c([H])c([H])c2C1([H])[H]

$$$$
29:0:0
     RDKit          3D

 97107  0  0  1  0  0  0  0  0999 V2000
  -29.4580  -22.1220   21.5710 C   0  0  0  0  0  2  0  0  0  0  0  0
  -30.8730  -22.0740   21.5350 C   0  0  0  0  0  0  0  0  0  0  0  0
  -28.8260  -21.9370   20.3280 C   0  0  0  0  0  3  0  0  0  0  0  0
  -31.4900  -21.7530   20.2980 C   0  0  0  0  0  0  0  0  0  0  0  0
  -29.5170  -20.8800   19.5670 C   0  0  0  0  0  3  0  0  0  0  0  0
  -31.7040  -22.4670   22.7460 C   0  0  0  0  0  2  0  0  0  0  0  0
  -32.9930  -21.8840   20.1030 C   0  0  0  0  0  3  0  0  0  0  0  0
  -33.8570  -21.0280   21.0600 C   0  0  0  0  0  3  0  0  0  0  0  0
  -33.1340  -20.3540   22.2410 C   0  0  0  0  0  2  0  0  0  0  0  0
  -32.5540  -21.3030   23.3100 C   0  0  0  0  0  3  0  0  0  0  0  0
  -31.7480  -20.4630   24.3150 C   0  0  0  0  0  1  0  0  0  0  0  0
  -30.7750  -21.2620   19.2530 N   0  0  0  0  0  2  0  0  0  0  0  0
  -30.5640  -14.7520   19.8970 C   0  0  0  0  0  0  0  0  0  0  0  0
  -30.2540  -12.4550   18.9250 C   0  0  0  0  0  2  0  0  0  0  0  0
  -29.2550  -12.4910   17.7520 C   0  0  0  0  0  2  0  0  0  0  0  0
  -27.8180  -12.3060   18.2760 C   0  0  0  0  0  2  0  0  0  0  0  0
  -27.5080  -13.2060   19.5030 C   0  0  0  0  0  3  0  0  0  0  0  0
  -28.6390  -13.1930   20.5550 C   0  0  0  0  0  2  0  0  0  0  0  0
  -29.8730  -13.5530   19.8520 N   0  0  0  0  0  0  0  0  0  0  0  0
  -31.7610  -14.7150   19.5910 O   0  0  0  0  0  0  0  0  0  0  0  0
  -28.8690  -18.3340   20.7880 C   0  0  0  0  0  2  0  0  0  0  0  0
  -29.7260  -18.3710   18.5610 C   0  0  0  0  0  2  0  0  0  0  0  0
  -29.4780  -16.8400   20.9890 C   0  0  0  0  0  2  0  0  0  0  0  0
  -30.3840  -16.9410   18.7340 C   0  0  0  0  0  2  0  0  0  0  0  0
  -29.6930  -19.2640   19.8350 C   0  0  0  0  0  3  0  0  0  0  0  0
  -29.8910  -16.0000   19.8010 N   0  0  0  0  0  0  0  0  0  0  0  0
  -25.1920  -13.7690   20.4360 C   0  0  0  0  0  0  0  0  0  0  0  0
  -24.1530  -12.9880   20.8570 C   0  0  0  0  0  0  0  0  0  0  0  0
  -24.6100  -11.6360   20.7580 C   0  0  0  0  0  0  0  0  0  0  0  0
  -26.2110  -12.8970   20.0950 N   0  0  0  0  0  0  0  0  0  0  0  0
  -25.8750  -11.6060   20.3580 N   0  0  0  0  0  0  0  0  0  0  0  0
  -23.8940  -10.3700   20.9670 C   0  0  0  0  0  0  0  0  0  0  0  0
  -24.3520   -9.4020   21.8870 C   0  0  0  0  0  3  0  0  0  0  0  0
  -23.6330   -8.2030   22.0800 C   0  0  0  0  0  3  0  0  0  0  0  0
  -22.4450   -7.9630   21.3520 C   0  0  0  0  0  0  0  0  0  0  0  0
  -22.0060   -8.9200   20.4190 C   0  0  0  0  0  3  0  0  0  0  0  0
  -22.7250  -10.1100   20.2250 C   0  0  0  0  0  3  0  0  0  0  0  0
  -21.6930   -6.8170   21.4570 O   0  0  0  0  0  0  0  0  0  0  0  0
  -21.6490   -6.0870   22.6180 C   0  0  0  0  0  0  0  0  0  0  0  0
  -21.1960   -6.6470   23.8320 C   0  0  0  0  0  3  0  0  0  0  0  0
  -21.1000   -5.8430   24.9850 C   0  0  0  0  0  3  0  0  0  0  0  0
  -21.4500   -4.4800   24.9260 C   0  0  0  0  0  0  0  0  0  0  0  0
  -21.8980   -3.9210   23.7160 C   0  0  0  0  0  3  0  0  0  0  0  0
  -21.9950   -4.7220   22.5650 C   0  0  0  0  0  0  0  0  0  0  0  0
  -22.4070   -4.1730   21.3970 F   0  0  0  0  0  0  0  0  0  0  0  0
  -21.3530   -3.7050   26.0310 F   0  0  0  0  0  0  0  0  0  0  0  0
  -22.7790  -13.4610   21.2350 C   0  0  0  0  0  0  0  0  0  0  0  0
  -22.1010  -12.7370   22.1180 N   0  0  0  0  0  0  0  0  0  0  0  0
  -22.3190  -14.5070   20.7820 O   0  0  0  0  0  0  0  0  0  0  0  0
  -22.4900  -11.8900   22.5070 H   0  0  0  0  0  0  0  0  0  0  0  0
  -21.1820  -13.0360   22.4140 H   0  0  0  0  0  0  0  0  0  0  0  0
  -25.3530  -15.1440   20.2880 N   0  0  0  0  0  0  0  0  0  0  0  0
  -24.6090  -15.8000   20.4940 H   0  0  0  0  0  0  0  0  0  0  0  0
  -26.1900  -15.5910   19.9350 H   0  0  0  0  0  0  0  0  0  0  0  0
  -28.4710  -23.3860   19.6600 C   0  0  0  0  0  2  0  0  0  0  0  0
  -28.0060  -24.7360   20.5020 C   0  0  0  0  0  2  0  0  0  0  0  0
  -28.1960  -26.1900   20.0630 O   0  0  0  0  0  0  0  0  0  0  0  0
  -24.5290  -31.7700   23.0740 C   0  0  0  0  0  0  0  0  0  0  0  0
  -27.1140  -27.1150   20.0540 C   0  0  0  0  0  0  0  0  0  0  0  0
  -23.3330  -30.3890   21.4160 C   0  0  0  0  0  3  0  0  0  0  0  0
  -24.7840  -28.8170   19.9990 C   0  0  0  0  0  0  0  0  0  0  0  0
  -25.8820  -30.6600   21.2690 C   0  0  0  0  0  2  0  0  0  0  0  0
  -25.9560  -29.2760   20.6150 C   0  0  0  0  0  0  0  0  0  0  0  0
  -27.1260  -28.4400   20.6240 C   0  0  0  0  0  3  0  0  0  0  0  0
  -25.9230  -26.7330   19.4040 C   0  0  0  0  0  3  0  0  0  0  0  0
  -24.7790  -27.5560   19.3780 C   0  0  0  0  0  3  0  0  0  0  0  0
  -23.5590  -29.7140   20.0380 C   0  0  0  0  0  2  0  0  0  0  0  0
  -24.6000  -30.9600   21.9750 N   0  0  0  0  0  0  0  0  0  0  0  0
  -23.4420  -32.0560   23.5960 O   0  0  0  0  0  0  0  0  0  0  0  0
  -22.6490  -29.3760   22.3660 C   0  0  0  0  0  0  0  0  0  0  0  0
  -21.3200  -29.2200   22.2340 N   0  0  0  0  0  0  0  0  0  0  0  0
  -23.3140  -28.7340   23.1830 O   0  0  0  0  0  0  0  0  0  0  0  0
  -20.8420  -29.7870   21.5480 H   0  0  0  0  0  0  0  0  0  0  0  0
  -17.9180  -28.0910   22.7480 C   0  0  0  0  0  0  0  0  0  0  0  0
  -20.4850  -28.2880   22.9960 C   0  0  0  0  0  3  0  0  0  0  0  0
  -20.5480  -26.8660   22.3920 C   0  0  0  0  0  2  0  0  0  0  0  0
  -19.4280  -26.5890   21.3840 C   0  0  0  0  0  2  0  0  0  0  0  0
  -18.0550  -26.7520   22.0430 C   0  0  0  0  0  2  0  0  0  0  0  0
  -19.0590  -28.8190   23.1810 C   0  0  0  0  0  0  0  0  0  0  0  0
  -18.8730  -30.0750   23.7990 C   0  0  0  0  0  3  0  0  0  0  0  0
  -17.5790  -30.6000   23.9880 C   0  0  0  0  0  3  0  0  0  0  0  0
  -16.4550  -29.8690   23.5680 C   0  0  0  0  0  3  0  0  0  0  0  0
  -16.6260  -28.6150   22.9550 C   0  0  0  0  0  3  0  0  0  0  0  0
  -25.8080  -32.3910   23.7120 C   0  0  0  0  0  3  0  0  0  0  0  0
  -25.4950  -33.7810   24.0750 N   0  0  0  0  0  0  0  0  0  0  0  0
  -25.8170  -34.8530   23.3400 C   0  0  0  0  0  0  0  0  0  0  0  0
  -26.4780  -34.7770   22.3020 O   0  0  0  0  0  0  0  0  0  0  0  0
  -24.9100  -33.9130   24.8870 H   0  0  0  0  0  0  0  0  0  0  0  0
  -24.0810  -36.6500   23.0360 C   0  0  0  0  0  1  0  0  0  0  0  0
  -25.3260  -36.2290   23.8330 C   0  0  0  0  0  3  0  0  0  0  0  0
  -27.4550  -37.1080   24.6840 C   0  0  0  0  0  1  0  0  0  0  0  0
  -26.3540  -37.2870   23.7420 N   0  0  0  0  0  0  0  0  0  0  0  0
  -25.9440  -38.2030   23.9020 H   0  0  0  0  0  0  0  0  0  0  0  0
  -26.3210  -31.5950   24.9760 C   0  0  1  0  0  0  0  0  0  0  0  0
  -25.2250  -31.3320   26.0340 C   0  0  0  0  0  1  0  0  0  0  0  0
  -26.9120  -30.2260   24.5620 C   0  0  0  0  0  1  0  0  0  0  0  0
  -27.4620  -32.3820   25.6630 C   0  0  0  0  0  1  0  0  0  0  0  0
  2  1  1  0
  2  6  1  0
  3 55  1  0
  3  1  1  0
  4  2  2  0
  5 12  1  0
  5 25  1  0
  5  3  1  0
  6 10  1  0
  7  4  1  0
  7  8  2  0
  8  9  1  0
  9 10  1  0
 10 11  1  0
 12  4  1  0
 14 19  1  0
 15 16  1  0
 15 14  1  0
 17 16  1  0
 17 30  1  0
 17 18  1  0
 19 13  1  0
 19 18  1  0
 20 13  2  0
 21 23  1  0
 22 24  1  0
 24 26  1  0
 25 22  1  0
 25 21  1  0
 26 13  1  0
 26 23  1  0
 27 28  2  0
 28 47  1  0
 29 28  1  0
 29 32  1  0
 30 31  1  0
 30 27  1  0
 31 29  2  0
 32 33  1  0
 33 34  2  0
 35 38  1  0
 35 34  1  0
 36 35  2  0
 37 36  1  0
 37 32  2  0
 38 39  1  0
 39 40  1  0
 40 41  2  0
 42 41  1  0
 42 46  1  0
 43 42  2  0
 44 39  2  0
 44 43  1  0
 45 44  1  0
 47 48  1  0
 48 51  1  0
 48 50  1  0
 49 47  2  0
 52 27  1  0
 52 53  1  0
 54 52  1  0
 55 56  1  0
 57 56  1  0
 58 69  2  0
 59 57  1  0
 59 64  1  0
 60 68  1  0
 60 70  1  0
 61 67  1  0
 61 63  1  0
 62 68  1  0
 63 64  2  0
 63 62  1  0
 65 59  2  0
 66 65  1  0
 66 61  2  0
 67 60  1  0
 68 58  1  0
 70 72  2  0
 71 70  1  0
 73 71  1  0
 74 83  2  0
 74 79  1  0
 75 71  1  0
 75 79  1  0
 76 75  1  0
 77 78  1  0
 77 76  1  0
 78 74  1  0
 79 80  2  0
 80 81  1  0
 82 81  2  0
 83 82  1  0
 84 58  1  0
 84 85  1  0
 84 94  1  0
 85 88  1  0
 86 90  1  0
 86 85  1  0
 87 86  2  0
 90 89  1  0
 92 90  1  0
 92 93  1  0
 92 91  1  0
 94 97  1  1
 94 95  1  0
 96 94  1  0
M  ISO  4  13 100  26 100  56 101  57 101
M  END
>  <TORSDO>  (30) 
F 18

>  <SCORE>  (30) 
-13.614

>  <name>  (30) 
29

>  <ligand_id>  (30) 
29

>  <original_smiles>  (30) 
[H]c1c([H])c([H])c2c(c1[H])C([H])([H])C([H])([H])C([H])([H])C2([H])N([H])C(=O)C1([H])N(C(=O)C([H])(N([H])C(=O)C([H])(N([H])C([H])([H])[H])C([H])([H])[H])C(C([H])([H])[H])(C([H])([H])[H])C([H])([H])[H])C([H])([H])c2c([H])c(OC([H])([H])C([H])([H])c3c(C4([H])C([H])([H])C([H])([H])N(C(=O)N5C([H])([H])C([H])([H])C([H])([H])C([H])(n6nc(-c7c([H])c([H])c(Oc8c([H])c([H])c(F)c([H])c8F)c([H])c7[H])c(C(=O)N([H])[H])c6N([H])[H])C5([H])[H])C([H])([H])C4([H])[H])nc4c(c3[H])C([H])([H])C([H])(C([H])([H])[H])C([H])([H])C([H])([H])C4([H])[H])c([H])c([H])c2C1([H])[H]

>  <smiles>  (30) 
[H]c1c([H])c([H])c2c(c1[H])C([H])([H])C([H])([H])C([H])([H])C2([H])N([H])C(=O)C1([H])N(C(=O)C([H])(N([H])C(=O)C([H])(N([H])C([H])([H])[H])C([H])([H])[H])C(C([H])([H])[H])(C([H])([H])[H])C([H])([H])[H])C([H])([H])c2c([H])c(OC([H])([H])C([H])([H])c3c(C4([H])C([H])([H])C([H])([H])N(C(=O)N5C([H])([H])C([H])([H])C([H])([H])C([H])(n6nc(-c7c([H])c([H])c(Oc8c([H])c([H])c(F)c([H])c8F)c([H])c7[H])c(C(=O)N([H])[H])c6N([H])[H])C5([H])[H])C([H])([H])C4([H])[H])nc4c(c3[H])C([H])([H])C([H])(C([H])([H])[H])C([H])([H])C([H])([H])C4([H])[H])c([H])c([H])c2C1([H])[H]

$$$$
30:0:0
     RDKit          3D

 91 99  0  0  1  0  0  0  0  0999 V2000
  -29.8650  -22.4040   20.1560 C   0  0  0  0  0  3  0  0  0  0  0  0
  -28.0660  -21.0070   21.0330 C   0  0  0  0  0  3  0  0  0  0  0  0
  -27.7880  -23.4260   20.9240 C   0  0  0  0  0  3  0  0  0  0  0  0
  -29.3720  -21.1190   20.5010 C   0  0  0  0  0  0  0  0  0  0  0  0
  -29.0760  -23.5630   20.3640 C   0  0  0  0  0  0  0  0  0  0  0  0
  -27.2820  -22.1540   21.2470 C   0  0  0  0  0  0  0  0  0  0  0  0
  -25.6990  -22.0030   21.9190 Cl  0  0  0  0  0  0  0  0  0  0  0  0
  -30.2720  -19.8950   20.3100 C   0  0  0  0  0  2  0  0  0  0  0  0
  -29.7660  -18.5520   20.9050 C   0  0  0  0  0  2  0  0  0  0  0  0
  -30.8360  -17.4440   20.8190 C   0  0  0  0  0  2  0  0  0  0  0  0
  -31.1270  -15.0090   21.0380 C   0  0  0  0  0  0  0  0  0  0  0  0
  -30.9560  -12.7310   20.1420 C   0  0  0  0  0  2  0  0  0  0  0  0
  -30.1790  -12.7880   18.8100 C   0  0  0  0  0  2  0  0  0  0  0  0
  -28.6620  -12.6890   19.0590 C   0  0  0  0  0  2  0  0  0  0  0  0
  -28.1670  -13.6580   20.1670 C   0  0  0  0  0  3  0  0  0  0  0  0
  -29.0740  -13.5920   21.4190 C   0  0  0  0  0  2  0  0  0  0  0  0
  -30.4610  -13.8270   20.9880 N   0  0  0  0  0  0  0  0  0  0  0  0
  -32.3150  -15.1240   20.7320 O   0  0  0  0  0  0  0  0  0  0  0  0
  -30.3700  -16.1060   21.2130 N   0  0  0  0  0  0  0  0  0  0  0  0
  -29.3940  -15.9750   21.4350 H   0  0  0  0  0  0  0  0  0  0  0  0
  -25.7220  -14.3240   20.6140 C   0  0  0  0  0  0  0  0  0  0  0  0
  -24.6020  -13.5790   20.8680 C   0  0  0  0  0  0  0  0  0  0  0  0
  -25.0310  -12.2160   20.8910 C   0  0  0  0  0  0  0  0  0  0  0  0
  -26.7640  -13.4160   20.4990 N   0  0  0  0  0  0  0  0  0  0  0  0
  -26.3460  -12.1450   20.7230 N   0  0  0  0  0  0  0  0  0  0  0  0
  -24.2590  -10.9730   21.0050 C   0  0  0  0  0  0  0  0  0  0  0  0
  -24.5840   -9.9870   21.9640 C   0  0  0  0  0  3  0  0  0  0  0  0
  -23.8180   -8.8060   22.0650 C   0  0  0  0  0  3  0  0  0  0  0  0
  -22.7120   -8.6030   21.2060 C   0  0  0  0  0  0  0  0  0  0  0  0
  -22.4070   -9.5760   20.2380 C   0  0  0  0  0  3  0  0  0  0  0  0
  -23.1740  -10.7480   20.1360 C   0  0  0  0  0  3  0  0  0  0  0  0
  -21.9250   -7.4770   21.2160 O   0  0  0  0  0  0  0  0  0  0  0  0
  -21.7790   -6.7100   22.3440 C   0  0  0  0  0  0  0  0  0  0  0  0
  -21.2790   -7.2480   23.5500 C   0  0  0  0  0  3  0  0  0  0  0  0
  -21.0780   -6.4100   24.6650 C   0  0  0  0  0  3  0  0  0  0  0  0
  -21.3670   -5.0360   24.5740 C   0  0  0  0  0  0  0  0  0  0  0  0
  -21.8580   -4.4960   23.3730 C   0  0  0  0  0  3  0  0  0  0  0  0
  -22.0610   -5.3320   22.2600 C   0  0  0  0  0  0  0  0  0  0  0  0
  -22.5150   -4.8030   21.0990 F   0  0  0  0  0  0  0  0  0  0  0  0
  -21.1660   -4.2290   25.6440 F   0  0  0  0  0  0  0  0  0  0  0  0
  -23.1950  -14.0900   20.9880 C   0  0  0  0  0  0  0  0  0  0  0  0
  -22.3630  -13.4200   21.7770 N   0  0  0  0  0  0  0  0  0  0  0  0
  -22.8380  -15.1190   20.4180 O   0  0  0  0  0  0  0  0  0  0  0  0
  -22.6600  -12.5870   22.2630 H   0  0  0  0  0  0  0  0  0  0  0  0
  -21.4140  -13.7440   21.8960 H   0  0  0  0  0  0  0  0  0  0  0  0
  -25.9400  -15.6880   20.4510 N   0  0  0  0  0  0  0  0  0  0  0  0
  -25.1850  -16.3650   20.4780 H   0  0  0  0  0  0  0  0  0  0  0  0
  -26.8300  -16.0980   20.1990 H   0  0  0  0  0  0  0  0  0  0  0  0
  -29.5960  -24.9640   20.0200 C   0  0  0  0  0  2  0  0  0  0  0  0
  -28.6150  -25.7620   19.1400 C   0  0  0  0  0  2  0  0  0  0  0  0
  -28.6890  -27.1840   19.3460 O   0  0  0  0  0  0  0  0  0  0  0  0
  -24.5630  -31.6780   23.0170 C   0  0  0  0  0  0  0  0  0  0  0  0
  -27.4720  -27.8370   19.4090 C   0  0  0  0  0  0  0  0  0  0  0  0
  -23.4310  -30.3680   21.2530 C   0  0  0  0  0  3  0  0  0  0  0  0
  -24.9650  -29.1320   19.6360 C   0  0  0  0  0  0  0  0  0  0  0  0
  -25.9150  -30.9580   21.0520 C   0  0  0  0  0  2  0  0  0  0  0  0
  -26.0950  -29.6820   20.2550 C   0  0  0  0  0  0  0  0  0  0  0  0
  -27.3520  -29.0440   20.1380 C   0  0  0  0  0  3  0  0  0  0  0  0
  -26.3210  -27.3160   18.7700 C   0  0  0  0  0  3  0  0  0  0  0  0
  -25.0730  -27.9480   18.8900 C   0  0  0  0  0  3  0  0  0  0  0  0
  -23.6570  -29.8690   19.8020 C   0  0  0  0  0  2  0  0  0  0  0  0
  -24.6560  -31.0090   21.8330 N   0  0  0  0  0  0  0  0  0  0  0  0
  -23.4770  -31.7970   23.6030 O   0  0  0  0  0  0  0  0  0  0  0  0
  -22.8920  -29.1930   22.1020 C   0  0  0  0  0  0  0  0  0  0  0  0
  -21.5770  -28.9380   22.0050 N   0  0  0  0  0  0  0  0  0  0  0  0
  -23.6530  -28.5210   22.8040 O   0  0  0  0  0  0  0  0  0  0  0  0
  -21.0210  -29.5410   21.4150 H   0  0  0  0  0  0  0  0  0  0  0  0
  -18.2990  -27.5140   22.5390 C   0  0  0  0  0  0  0  0  0  0  0  0
  -20.8560  -27.8630   22.6860 C   0  0  0  0  0  3  0  0  0  0  0  0
  -20.9790  -26.5320   21.9090 C   0  0  0  0  0  2  0  0  0  0  0  0
  -19.8250  -26.2950   20.9300 C   0  0  0  0  0  2  0  0  0  0  0  0
  -18.4860  -26.2810   21.6730 C   0  0  0  0  0  2  0  0  0  0  0  0
  -19.4120  -28.2660   23.0030 C   0  0  0  0  0  0  0  0  0  0  0  0
  -19.1820  -29.4250   23.7750 C   0  0  0  0  0  3  0  0  0  0  0  0
  -17.8720  -29.8320   24.0880 C   0  0  0  0  0  3  0  0  0  0  0  0
  -16.7750  -29.0760   23.6430 C   0  0  0  0  0  3  0  0  0  0  0  0
  -16.9900  -27.9180   22.8740 C   0  0  0  0  0  3  0  0  0  0  0  0
  -25.8080  -32.3430   23.6790 C   0  0  0  0  0  3  0  0  0  0  0  0
  -25.4250  -33.7040   24.0730 N   0  0  0  0  0  0  0  0  0  0  0  0
  -25.6850  -34.8050   23.3540 C   0  0  0  0  0  0  0  0  0  0  0  0
  -26.3440  -34.7840   22.3110 O   0  0  0  0  0  0  0  0  0  0  0  0
  -24.8380  -33.7920   24.8890 H   0  0  0  0  0  0  0  0  0  0  0  0
  -23.8340  -36.4910   23.1120 C   0  0  0  0  0  1  0  0  0  0  0  0
  -25.1230  -36.1420   23.8750 C   0  0  0  0  0  3  0  0  0  0  0  0
  -27.2180  -37.1360   24.6820 C   0  0  0  0  0  1  0  0  0  0  0  0
  -26.0810  -37.2630   23.7720 N   0  0  0  0  0  0  0  0  0  0  0  0
  -25.6210  -38.1490   23.9620 H   0  0  0  0  0  0  0  0  0  0  0  0
  -26.3600  -31.5370   24.9180 C   0  0  1  0  0  0  0  0  0  0  0  0
  -25.2780  -31.2000   25.9720 C   0  0  0  0  0  1  0  0  0  0  0  0
  -27.0020  -30.2060   24.4620 C   0  0  0  0  0  1  0  0  0  0  0  0
  -27.4720  -32.3500   25.6200 C   0  0  0  0  0  1  0  0  0  0  0  0
  1  5  2  0
  1  4  1  0
  2  6  1  0
  3  6  2  0
  4  2  2  0
  5  3  1  0
  6  7  1  0
  8  4  1  0
  8  9  1  0
 10  9  1  0
 10 19  1  0
 11 19  1  0
 12 17  1  0
 13 14  1  0
 13 12  1  0
 15 14  1  0
 15 24  1  0
 15 16  1  0
 17 11  1  0
 17 16  1  0
 18 11  2  0
 19 20  1  0
 21 22  2  0
 22 23  1  0
 22 41  1  0
 23 26  1  0
 24 21  1  0
 24 25  1  0
 25 23  2  0
 26 27  1  0
 27 28  2  0
 29 32  1  0
 29 28  1  0
 30 29  2  0
 31 30  1  0
 31 26  2  0
 32 33  1  0
 33 34  1  0
 34 35  2  0
 36 35  1  0
 36 40  1  0
 37 36  2  0
 38 33  2  0
 38 37  1  0
 39 38  1  0
 41 42  1  0
 42 45  1  0
 42 44  1  0
 43 41  2  0
 46 47  1  0
 46 21  1  0
 48 46  1  0
 49  5  1  0
 50 51  1  0
 50 49  1  0
 51 53  1  0
 52 63  2  0
 53 58  1  0
 54 62  1  0
 54 64  1  0
 55 61  1  0
 55 57  1  0
 56 62  1  0
 57 56  1  0
 58 57  2  0
 59 60  1  0
 59 53  2  0
 60 55  2  0
 61 54  1  0
 62 52  1  0
 64 66  2  0
 65 64  1  0
 67 65  1  0
 68 77  2  0
 68 73  1  0
 69 65  1  0
 69 73  1  0
 70 69  1  0
 71 72  1  0
 71 70  1  0
 72 68  1  0
 73 74  2  0
 74 75  1  0
 76 75  2  0
 77 76  1  0
 78 52  1  0
 78 79  1  0
 78 88  1  0
 79 82  1  0
 80 84  1  0
 80 79  1  0
 81 80  2  0
 84 83  1  0
 86 84  1  0
 86 87  1  0
 86 85  1  0
 88 91  1  1
 88 89  1  0
 90 88  1  0
M  ISO  4  11 100  19 100  50 101  51 101
M  END
>  <TORSDO>  (31) 
F 21

>  <SCORE>  (31) 
-8.972

>  <name>  (31) 
30

>  <ligand_id>  (31) 
30

>  <original_smiles>  (31) 
[H]c1c([H])c([H])c2c(c1[H])C([H])([H])C([H])([H])C([H])([H])C2([H])N([H])C(=O)C1([H])N(C(=O)C([H])(N([H])C(=O)C([H])(N([H])C([H])([H])[H])C([H])([H])[H])C(C([H])([H])[H])(C([H])([H])[H])C([H])([H])[H])C([H])([H])c2c([H])c(OC([H])([H])C([H])([H])c3c([H])c(Cl)c([H])c(C([H])([H])C([H])([H])C([H])([H])N([H])C(=O)N4C([H])([H])C([H])([H])C([H])([H])C([H])(n5nc(-c6c([H])c([H])c(Oc7c([H])c([H])c(F)c([H])c7F)c([H])c6[H])c(C(=O)N([H])[H])c5N([H])[H])C4([H])[H])c3[H])c([H])c([H])c2C1([H])[H]

>  <smiles>  (31) 
[H]c1c([H])c([H])c2c(c1[H])C([H])([H])C([H])([H])C([H])([H])C2([H])N([H])C(=O)C1([H])N(C(=O)C([H])(N([H])C(=O)C([H])(N([H])C([H])([H])[H])C([H])([H])[H])C(C([H])([H])[H])(C([H])([H])[H])C([H])([H])[H])C([H])([H])c2c([H])c(OC([H])([H])C([H])([H])c3c([H])c(Cl)c([H])c(C([H])([H])C([H])([H])C([H])([H])N([H])C(=O)N4C([H])([H])C([H])([H])C([H])([H])C([H])(n5nc(-c6c([H])c([H])c(Oc7c([H])c([H])c(F)c([H])c7F)c([H])c6[H])c(C(=O)N([H])[H])c5N([H])[H])C4([H])[H])c3[H])c([H])c([H])c2C1([H])[H]

$$$$
31:0:0
     RDKit          3D

 90 98  0  0  1  0  0  0  0  0999 V2000
  -30.9070  -21.1900   19.9140 C   0  0  0  0  0  3  0  0  0  0  0  0
  -30.5150  -22.5060   19.5900 C   0  0  0  0  0  0  0  0  0  0  0  0
  -30.7180  -20.7460   21.2360 C   0  0  0  0  0  0  0  0  0  0  0  0
  -29.9840  -23.3060   20.6330 C   0  0  0  0  0  0  0  0  0  0  0  0
  -30.7070  -23.0180   18.1760 C   0  0  0  0  0  1  0  0  0  0  0  0
  -30.1180  -21.5280   22.1690 N   0  0  0  0  0  0  0  0  0  0  0  0
  -29.7660  -22.7890   21.8730 N   0  0  0  0  0  0  0  0  0  0  0  0
  -31.2660  -19.3880   21.6760 C   0  0  0  0  0  2  0  0  0  0  0  0
  -30.2770  -18.2040   21.5680 C   0  0  0  0  0  2  0  0  0  0  0  0
  -31.0050  -16.8790   21.2380 C   0  0  0  0  0  2  0  0  0  0  0  0
  -30.1160  -15.6060   21.2490 C   0  0  0  0  0  2  0  0  0  0  0  0
  -30.7230  -14.4180   20.4690 C   0  0  0  0  0  0  0  0  0  0  0  0
  -30.3460  -12.3090   19.2410 C   0  0  0  0  0  2  0  0  0  0  0  0
  -29.4110  -12.5710   18.0440 C   0  0  0  0  0  2  0  0  0  0  0  0
  -27.9370  -12.4500   18.4770 C   0  0  0  0  0  2  0  0  0  0  0  0
  -27.6160  -13.2700   19.7570 C   0  0  0  0  0  3  0  0  0  0  0  0
  -28.6730  -13.0120   20.8560 C   0  0  0  0  0  2  0  0  0  0  0  0
  -30.0040  -13.2780   20.2910 N   0  0  0  0  0  0  0  0  0  0  0  0
  -31.8250  -14.5780   19.9370 O   0  0  0  0  0  0  0  0  0  0  0  0
  -25.2160  -13.8850   20.4700 C   0  0  0  0  0  0  0  0  0  0  0  0
  -24.1460  -13.1150   20.8420 C   0  0  0  0  0  0  0  0  0  0  0  0
  -24.6060  -11.7630   20.8180 C   0  0  0  0  0  0  0  0  0  0  0  0
  -26.2600  -13.0030   20.2390 N   0  0  0  0  0  0  0  0  0  0  0  0
  -25.8960  -11.7210   20.5060 N   0  0  0  0  0  0  0  0  0  0  0  0
  -23.8780  -10.5020   21.0200 C   0  0  0  0  0  0  0  0  0  0  0  0
  -24.3210   -9.5340   21.9480 C   0  0  0  0  0  3  0  0  0  0  0  0
  -23.5930   -8.3380   22.1370 C   0  0  0  0  0  3  0  0  0  0  0  0
  -22.4110   -8.1020   21.3950 C   0  0  0  0  0  0  0  0  0  0  0  0
  -21.9880   -9.0600   20.4560 C   0  0  0  0  0  3  0  0  0  0  0  0
  -22.7160  -10.2460   20.2660 C   0  0  0  0  0  3  0  0  0  0  0  0
  -21.6580   -6.9570   21.4890 O   0  0  0  0  0  0  0  0  0  0  0  0
  -21.6270   -6.2080   22.6380 C   0  0  0  0  0  0  0  0  0  0  0  0
  -21.2320   -6.7620   23.8760 C   0  0  0  0  0  3  0  0  0  0  0  0
  -21.1460   -5.9410   25.0180 C   0  0  0  0  0  3  0  0  0  0  0  0
  -21.4470   -4.5690   24.9250 C   0  0  0  0  0  0  0  0  0  0  0  0
  -21.8380   -4.0160   23.6930 C   0  0  0  0  0  3  0  0  0  0  0  0
  -21.9240   -4.8340   22.5520 C   0  0  0  0  0  0  0  0  0  0  0  0
  -22.2790   -4.2910   21.3620 F   0  0  0  0  0  0  0  0  0  0  0  0
  -21.3580   -3.7780   26.0200 F   0  0  0  0  0  0  0  0  0  0  0  0
  -22.7490  -13.5960   21.1110 C   0  0  0  0  0  0  0  0  0  0  0  0
  -22.0210  -12.9100   21.9860 N   0  0  0  0  0  0  0  0  0  0  0  0
  -22.3110  -14.6160   20.5810 O   0  0  0  0  0  0  0  0  0  0  0  0
  -22.3900  -12.0900   22.4440 H   0  0  0  0  0  0  0  0  0  0  0  0
  -21.0830  -13.2140   22.2050 H   0  0  0  0  0  0  0  0  0  0  0  0
  -25.3740  -15.2550   20.2930 N   0  0  0  0  0  0  0  0  0  0  0  0
  -24.5980  -15.8950   20.4190 H   0  0  0  0  0  0  0  0  0  0  0  0
  -26.2210  -15.7140   19.9850 H   0  0  0  0  0  0  0  0  0  0  0  0
  -29.7840  -24.8170   20.4870 C   0  0  0  0  0  2  0  0  0  0  0  0
  -28.3860  -25.3060   20.0720 C   0  0  0  0  0  2  0  0  0  0  0  0
  -28.4140  -26.7350   20.1840 O   0  0  0  0  0  0  0  0  0  0  0  0
  -24.5900  -31.8960   23.2370 C   0  0  0  0  0  0  0  0  0  0  0  0
  -27.2260  -27.4300   20.1830 C   0  0  0  0  0  0  0  0  0  0  0  0
  -23.3830  -30.4900   21.5970 C   0  0  0  0  0  3  0  0  0  0  0  0
  -24.8350  -28.9380   20.1910 C   0  0  0  0  0  0  0  0  0  0  0  0
  -25.9110  -30.8410   21.4050 C   0  0  0  0  0  2  0  0  0  0  0  0
  -25.9950  -29.4680   20.7680 C   0  0  0  0  0  0  0  0  0  0  0  0
  -27.1940  -28.7240   20.7550 C   0  0  0  0  0  3  0  0  0  0  0  0
  -26.0420  -26.9040   19.6170 C   0  0  0  0  0  3  0  0  0  0  0  0
  -24.8500  -27.6520   19.6220 C   0  0  0  0  0  3  0  0  0  0  0  0
  -23.5980  -29.8050   20.2210 C   0  0  0  0  0  2  0  0  0  0  0  0
  -24.6460  -31.0890   22.1380 N   0  0  0  0  0  0  0  0  0  0  0  0
  -23.5110  -32.1760   23.7710 O   0  0  0  0  0  0  0  0  0  0  0  0
  -22.7250  -29.4740   22.5590 C   0  0  0  0  0  0  0  0  0  0  0  0
  -21.3990  -29.3000   22.4290 N   0  0  0  0  0  0  0  0  0  0  0  0
  -23.4030  -28.8470   23.3750 O   0  0  0  0  0  0  0  0  0  0  0  0
  -20.9150  -29.8600   21.7420 H   0  0  0  0  0  0  0  0  0  0  0  0
  -18.0150  -28.1380   22.9150 C   0  0  0  0  0  0  0  0  0  0  0  0
  -20.5730  -28.3690   23.1970 C   0  0  0  0  0  3  0  0  0  0  0  0
  -20.6660  -26.9380   22.6190 C   0  0  0  0  0  2  0  0  0  0  0  0
  -19.5640  -26.6270   21.6030 C   0  0  0  0  0  2  0  0  0  0  0  0
  -18.1810  -26.7850   22.2420 C   0  0  0  0  0  2  0  0  0  0  0  0
  -19.1390  -28.8890   23.3490 C   0  0  0  0  0  0  0  0  0  0  0  0
  -18.9310  -30.1560   23.9350 C   0  0  0  0  0  3  0  0  0  0  0  0
  -17.6310  -30.6730   24.0930 C   0  0  0  0  0  3  0  0  0  0  0  0
  -16.5200  -29.9170   23.6780 C   0  0  0  0  0  3  0  0  0  0  0  0
  -16.7130  -28.6510   23.0950 C   0  0  0  0  0  3  0  0  0  0  0  0
  -25.8800  -32.5220   23.8560 C   0  0  0  0  0  3  0  0  0  0  0  0
  -25.5750  -33.9180   24.1890 N   0  0  0  0  0  0  0  0  0  0  0  0
  -25.9010  -34.9710   23.4280 C   0  0  0  0  0  0  0  0  0  0  0  0
  -26.5630  -34.8690   22.3920 O   0  0  0  0  0  0  0  0  0  0  0  0
  -24.9900  -34.0720   24.9970 H   0  0  0  0  0  0  0  0  0  0  0  0
  -24.1630  -36.7560   23.0970 C   0  0  0  0  0  1  0  0  0  0  0  0
  -25.4150  -36.3570   23.8920 C   0  0  0  0  0  3  0  0  0  0  0  0
  -27.5550  -37.2460   24.7010 C   0  0  0  0  0  1  0  0  0  0  0  0
  -26.4430  -37.4130   23.7690 N   0  0  0  0  0  0  0  0  0  0  0  0
  -26.0350  -38.3310   23.9250 H   0  0  0  0  0  0  0  0  0  0  0  0
  -26.3980  -31.7460   25.1270 C   0  0  1  0  0  0  0  0  0  0  0  0
  -25.3050  -31.5070   26.1930 C   0  0  0  0  0  1  0  0  0  0  0  0
  -26.9810  -30.3690   24.7260 C   0  0  0  0  0  1  0  0  0  0  0  0
  -27.5470  -32.5380   25.7940 C   0  0  0  0  0  1  0  0  0  0  0  0
  1  3  1  0
  2  1  2  0
  2  4  1  0
  3  8  1  0
  3  6  2  0
  4  7  2  0
  5  2  1  0
  7  6  1  0
  9  8  1  0
 10 11  1  0
 10  9  1  0
 12 11  1  0
 13 18  1  0
 14 15  1  0
 14 13  1  0
 16 15  1  0
 16 23  1  0
 16 17  1  0
 18 12  1  0
 18 17  1  0
 19 12  2  0
 20 21  2  0
 21 40  1  0
 22 21  1  0
 22 25  1  0
 23 20  1  0
 23 24  1  0
 24 22  2  0
 25 26  1  0
 26 27  2  0
 28 31  1  0
 28 27  1  0
 29 28  2  0
 30 29  1  0
 30 25  2  0
 31 32  1  0
 32 33  1  0
 33 34  2  0
 35 34  1  0
 35 39  1  0
 36 35  2  0
 37 32  2  0
 37 36  1  0
 38 37  1  0
 40 41  1  0
 41 44  1  0
 41 43  1  0
 42 40  2  0
 45 46  1  0
 45 20  1  0
 47 45  1  0
 48  4  1  0
 49 50  1  0
 49 48  1  0
 51 62  2  0
 52 50  1  0
 52 57  1  0
 53 61  1  0
 53 63  1  0
 54 60  1  0
 54 56  1  0
 55 61  1  0
 56 55  1  0
 57 56  2  0
 58 59  1  0
 58 52  2  0
 59 54  2  0
 60 53  1  0
 61 51  1  0
 63 65  2  0
 64 63  1  0
 66 64  1  0
 67 76  2  0
 67 72  1  0
 68 64  1  0
 68 72  1  0
 69 68  1  0
 70 71  1  0
 70 69  1  0
 71 67  1  0
 72 73  2  0
 73 74  1  0
 75 74  2  0
 76 75  1  0
 77 51  1  0
 77 78  1  0
 77 87  1  0
 78 81  1  0
 79 83  1  0
 79 78  1  0
 80 79  2  0
 83 82  1  0
 85 83  1  0
 85 86  1  0
 85 84  1  0
 87 90  1  1
 87 88  1  0
 89 87  1  0
M  ISO  4  11 100  12 100  49 101  50 101
M  END
>  <TORSDO>  (32) 
F 22

>  <SCORE>  (32) 
-13.231

>  <name>  (32) 
31

>  <ligand_id>  (32) 
31

>  <original_smiles>  (32) 
[H]c1c([H])c([H])c2c(c1[H])C([H])([H])C([H])([H])C([H])([H])C2([H])N([H])C(=O)C1([H])N(C(=O)C([H])(N([H])C(=O)C([H])(N([H])C([H])([H])[H])C([H])([H])[H])C(C([H])([H])[H])(C([H])([H])[H])C([H])([H])[H])C([H])([H])c2c([H])c(OC([H])([H])C([H])([H])c3nnc(C([H])([H])C([H])([H])C([H])([H])C([H])([H])C(=O)N4C([H])([H])C([H])([H])C([H])([H])C([H])(n5nc(-c6c([H])c([H])c(Oc7c([H])c([H])c(F)c([H])c7F)c([H])c6[H])c(C(=O)N([H])[H])c5N([H])[H])C4([H])[H])c([H])c3C([H])([H])[H])c([H])c([H])c2C1([H])[H]

>  <smiles>  (32) 
[H]c1c([H])c([H])c2c(c1[H])C([H])([H])C([H])([H])C([H])([H])C2([H])N([H])C(=O)C1([H])N(C(=O)C([H])(N([H])C(=O)C([H])(N([H])C([H])([H])[H])C([H])([H])[H])C(C([H])([H])[H])(C([H])([H])[H])C([H])([H])[H])C([H])([H])c2c([H])c(OC([H])([H])C([H])([H])c3nnc(C([H])([H])C([H])([H])C([H])([H])C([H])([H])C(=O)N4C([H])([H])C([H])([H])C([H])([H])C([H])(n5nc(-c6c([H])c([H])c(Oc7c([H])c([H])c(F)c([H])c7F)c([H])c6[H])c(C(=O)N([H])[H])c5N([H])[H])C4([H])[H])c([H])c3C([H])([H])[H])c([H])c([H])c2C1([H])[H]

$$$$
32:0:0
     RDKit          3D

 87 95  0  0  1  0  0  0  0  0999 V2000
  -28.5950  -21.2670   19.5020 C   0  0  0  0  0  2  0  0  0  0  0  0
  -28.4840  -17.0720   19.8860 C   0  0  0  0  0  3  0  0  0  0  0  0
  -30.6660  -17.8180   19.9240 C   0  0  0  0  0  3  0  0  0  0  0  0
  -29.8530  -16.6160   19.8780 C   0  0  0  0  0  0  0  0  0  0  0  0
  -28.0610  -18.4900   19.8730 C   0  0  0  0  0  0  0  0  0  0  0  0
  -28.9700  -19.6330   19.8840 C   0  0  0  0  0  0  0  0  0  0  0  0
  -26.5540  -18.7200   19.8010 C   0  0  0  0  0  1  0  0  0  0  0  0
  -30.2770  -19.1790   19.9130 N   0  0  0  0  0  0  0  0  0  0  0  0
  -30.4800  -15.0860   19.8680 C   0  0  0  0  0  0  0  0  0  0  0  0
  -30.3450  -12.6400   19.1180 C   0  0  0  0  0  2  0  0  0  0  0  0
  -29.3950  -12.4610   17.9120 C   0  0  0  0  0  2  0  0  0  0  0  0
  -27.9500  -12.2380   18.3960 C   0  0  0  0  0  2  0  0  0  0  0  0
  -27.5470  -13.2260   19.5230 C   0  0  0  0  0  3  0  0  0  0  0  0
  -28.6360  -13.3950   20.6000 C   0  0  0  0  0  2  0  0  0  0  0  0
  -29.8640  -13.8170   19.9200 N   0  0  0  0  0  0  0  0  0  0  0  0
  -31.6810  -15.0190   19.5790 O   0  0  0  0  0  0  0  0  0  0  0  0
  -25.2380  -13.7890   20.4520 C   0  0  0  0  0  0  0  0  0  0  0  0
  -24.1960  -13.0130   20.8780 C   0  0  0  0  0  0  0  0  0  0  0  0
  -24.6380  -11.6580   20.7650 C   0  0  0  0  0  0  0  0  0  0  0  0
  -26.2470  -12.9110   20.1030 N   0  0  0  0  0  0  0  0  0  0  0  0
  -25.9050  -11.6210   20.3620 N   0  0  0  0  0  0  0  0  0  0  0  0
  -23.9020  -10.4010   20.9570 C   0  0  0  0  0  0  0  0  0  0  0  0
  -24.3340   -9.4220   21.8790 C   0  0  0  0  0  3  0  0  0  0  0  0
  -23.5960   -8.2320   22.0610 C   0  0  0  0  0  3  0  0  0  0  0  0
  -22.4110   -8.0110   21.3190 C   0  0  0  0  0  0  0  0  0  0  0  0
  -21.9960   -8.9780   20.3870 C   0  0  0  0  0  3  0  0  0  0  0  0
  -22.7360  -10.1600   20.2020 C   0  0  0  0  0  3  0  0  0  0  0  0
  -21.6430   -6.8750   21.4120 O   0  0  0  0  0  0  0  0  0  0  0  0
  -21.5380   -6.1690   22.5840 C   0  0  0  0  0  0  0  0  0  0  0  0
  -21.0370   -6.7560   23.7680 C   0  0  0  0  0  3  0  0  0  0  0  0
  -20.8820   -5.9740   24.9300 C   0  0  0  0  0  3  0  0  0  0  0  0
  -21.2190   -4.6070   24.9100 C   0  0  0  0  0  0  0  0  0  0  0  0
  -21.7150   -4.0200   23.7330 C   0  0  0  0  0  3  0  0  0  0  0  0
  -21.8720   -4.7990   22.5740 C   0  0  0  0  0  0  0  0  0  0  0  0
  -22.3270   -4.2230   21.4360 F   0  0  0  0  0  0  0  0  0  0  0  0
  -21.0640   -3.8550   26.0250 F   0  0  0  0  0  0  0  0  0  0  0  0
  -22.8260  -13.5000   21.2510 C   0  0  0  0  0  0  0  0  0  0  0  0
  -22.1470  -12.7980   22.1520 N   0  0  0  0  0  0  0  0  0  0  0  0
  -22.3670  -14.5390   20.7770 O   0  0  0  0  0  0  0  0  0  0  0  0
  -22.5370  -11.9620   22.5660 H   0  0  0  0  0  0  0  0  0  0  0  0
  -21.2270  -13.1030   22.4380 H   0  0  0  0  0  0  0  0  0  0  0  0
  -25.4020  -15.1620   20.3000 N   0  0  0  0  0  0  0  0  0  0  0  0
  -24.6040  -15.7800   20.4090 H   0  0  0  0  0  0  0  0  0  0  0  0
  -26.1200  -15.5560   19.7060 H   0  0  0  0  0  0  0  0  0  0  0  0
  -28.7080  -22.8230   20.2990 C   0  0  0  0  0  3  0  0  0  0  0  0
  -28.0630  -24.3810   19.7830 C   0  0  0  0  0  3  0  0  0  0  0  0
  -28.2020  -25.9050   20.3060 O   0  0  0  0  0  0  0  0  0  0  0  0
  -24.6060  -31.7710   23.2190 C   0  0  0  0  0  0  0  0  0  0  0  0
  -27.2000  -26.9770   20.1910 C   0  0  0  0  0  0  0  0  0  0  0  0
  -23.4410  -30.4050   21.5320 C   0  0  0  0  0  3  0  0  0  0  0  0
  -24.9120  -28.8280   20.1160 C   0  0  0  0  0  0  0  0  0  0  0  0
  -26.0080  -30.6190   21.4480 C   0  0  0  0  0  2  0  0  0  0  0  0
  -26.0820  -29.2260   20.7750 C   0  0  0  0  0  0  0  0  0  0  0  0
  -27.2210  -28.3160   20.7950 C   0  0  0  0  0  3  0  0  0  0  0  0
  -26.0080  -26.7180   19.4740 C   0  0  0  0  0  3  0  0  0  0  0  0
  -24.8950  -27.5930   19.4500 C   0  0  0  0  0  3  0  0  0  0  0  0
  -23.6970  -29.7490   20.1470 C   0  0  0  0  0  2  0  0  0  0  0  0
  -24.7040  -30.9570   22.1210 N   0  0  0  0  0  0  0  0  0  0  0  0
  -23.5080  -32.0540   23.7250 O   0  0  0  0  0  0  0  0  0  0  0  0
  -22.7320  -29.3900   22.4650 C   0  0  0  0  0  0  0  0  0  0  0  0
  -21.4010  -29.2450   22.3240 N   0  0  0  0  0  0  0  0  0  0  0  0
  -23.3810  -28.7360   23.2860 O   0  0  0  0  0  0  0  0  0  0  0  0
  -20.9310  -29.8240   21.6420 H   0  0  0  0  0  0  0  0  0  0  0  0
  -17.9880  -28.1150   22.8060 C   0  0  0  0  0  0  0  0  0  0  0  0
  -20.5560  -28.3040   23.0650 C   0  0  0  0  0  3  0  0  0  0  0  0
  -20.6160  -26.8890   22.4410 C   0  0  0  0  0  2  0  0  0  0  0  0
  -19.5020  -26.6310   21.4230 C   0  0  0  0  0  2  0  0  0  0  0  0
  -18.1270  -26.7870   22.0780 C   0  0  0  0  0  2  0  0  0  0  0  0
  -19.1280  -28.8350   23.2540 C   0  0  0  0  0  0  0  0  0  0  0  0
  -18.9400  -30.0780   23.8970 C   0  0  0  0  0  3  0  0  0  0  0  0
  -17.6490  -30.6030   24.0910 C   0  0  0  0  0  3  0  0  0  0  0  0
  -16.5240  -29.8810   23.6520 C   0  0  0  0  0  3  0  0  0  0  0  0
  -16.6950  -28.6380   23.0180 C   0  0  0  0  0  3  0  0  0  0  0  0
  -25.8670  -32.3970   23.8860 C   0  0  0  0  0  3  0  0  0  0  0  0
  -26.3200  -31.6350   25.1950 C   0  0  1  0  0  0  0  0  0  0  0  0
  -25.1770  -31.4240   26.2160 C   0  0  0  0  0  1  0  0  0  0  0  0
  -26.9040  -30.2460   24.8490 C   0  0  0  0  0  1  0  0  0  0  0  0
  -27.4490  -32.4260   25.8970 C   0  0  0  0  0  1  0  0  0  0  0  0
  -25.5640  -33.8050   24.1990 N   0  0  0  0  0  0  0  0  0  0  0  0
  -25.9070  -34.8490   23.4330 C   0  0  0  0  0  0  0  0  0  0  0  0
  -26.5750  -34.7300   22.4030 O   0  0  0  0  0  0  0  0  0  0  0  0
  -24.9780  -33.9690   25.0030 H   0  0  0  0  0  0  0  0  0  0  0  0
  -24.1850  -36.6530   23.0790 C   0  0  0  0  0  1  0  0  0  0  0  0
  -25.4330  -36.2480   23.8800 C   0  0  0  0  0  3  0  0  0  0  0  0
  -27.5770  -37.1410   24.6830 C   0  0  0  0  0  1  0  0  0  0  0  0
  -26.4720  -37.2930   23.7420 N   0  0  0  0  0  0  0  0  0  0  0  0
  -26.0700  -38.2190   23.8710 H   0  0  0  0  0  0  0  0  0  0  0  0
  1  6  1  0
  1 45  1  0
  4  2  1  0
  4  3  2  0
  5  6  1  0
  5  2  2  0
  6  8  2  0
  7  5  1  0
  8  3  1  0
  9  4  1  0
  9 15  1  0
 10 15  1  0
 11 12  1  0
 11 10  1  0
 13 12  1  0
 13 20  1  0
 13 14  1  0
 15 14  1  0
 16  9  2  0
 17 18  2  0
 18 37  1  0
 19 18  1  0
 19 22  1  0
 20 21  1  0
 20 17  1  0
 21 19  2  0
 22 23  1  0
 23 24  2  0
 25 28  1  0
 25 24  1  0
 26 25  2  0
 27 26  1  0
 27 22  2  0
 28 29  1  0
 29 30  1  0
 30 31  2  0
 32 31  1  0
 32 36  1  0
 33 32  2  0
 34 29  2  0
 34 33  1  0
 35 34  1  0
 37 38  1  0
 38 41  1  0
 38 40  1  0
 39 37  2  0
 42 43  1  0
 42 17  1  0
 44 42  1  0
 46 45  2  0
 46 47  1  0
 48 59  2  0
 49 47  1  0
 49 54  1  0
 50 58  1  0
 50 60  1  0
 51 57  1  0
 51 53  1  0
 52 58  1  0
 53 54  2  0
 53 52  1  0
 55 49  2  0
 56 55  1  0
 56 51  2  0
 57 50  1  0
 58 48  1  0
 60 62  2  0
 61 60  1  0
 63 61  1  0
 64 73  2  0
 64 69  1  0
 65 61  1  0
 65 69  1  0
 66 65  1  0
 67 68  1  0
 67 66  1  0
 68 64  1  0
 69 70  2  0
 70 71  1  0
 72 71  2  0
 73 72  1  0
 74 48  1  0
 74 79  1  0
 74 75  1  0
 75 78  1  1
 75 76  1  0
 77 75  1  0
 79 82  1  0
 80 84  1  0
 80 79  1  0
 81 80  2  0
 84 83  1  0
 86 87  1  0
 86 84  1  0
 86 85  1  0
M  ISO  4   4 100   9 100  46 101  47 101
M  END
>  <TORSDO>  (33) 
F 19

>  <SCORE>  (33) 
-15.245

>  <name>  (33) 
32

>  <ligand_id>  (33) 
32

>  <original_smiles>  (33) 
[H]c1nc(C([H])([H])C([H])([H])C([H])([H])Oc2c([H])c([H])c3c(c2[H])C([H])([H])N(C(=O)C([H])(N([H])C(=O)C([H])(N([H])C([H])([H])[H])C([H])([H])[H])C(C([H])([H])[H])(C([H])([H])[H])C([H])([H])[H])C([H])(C(=O)N([H])C2([H])c4c([H])c([H])c([H])c([H])c4C([H])([H])C([H])([H])C2([H])[H])C3([H])[H])c(C([H])([H])[H])c([H])c1C(=O)N1C([H])([H])C([H])([H])C([H])([H])C([H])(n2nc(-c3c([H])c([H])c(Oc4c([H])c([H])c(F)c([H])c4F)c([H])c3[H])c(C(=O)N([H])[H])c2N([H])[H])C1([H])[H]

>  <smiles>  (33) 
[H]c1nc(C([H])([H])C([H])([H])C([H])([H])Oc2c([H])c([H])c3c(c2[H])C([H])([H])N(C(=O)C([H])(N([H])C(=O)C([H])(N([H])C([H])([H])[H])C([H])([H])[H])C(C([H])([H])[H])(C([H])([H])[H])C([H])([H])[H])C([H])(C(=O)N([H])C2([H])c4c([H])c([H])c([H])c([H])c4C([H])([H])C([H])([H])C2([H])[H])C3([H])[H])c(C([H])([H])[H])c([H])c1C(=O)N1C([H])([H])C([H])([H])C([H])([H])C([H])(n2nc(-c3c([H])c([H])c(Oc4c([H])c([H])c(F)c([H])c4F)c([H])c3[H])c(C(=O)N([H])[H])c2N([H])[H])C1([H])[H]

$$$$
33:0:0
     RDKit          3D

 93101  0  0  1  0  0  0  0  0999 V2000
  -29.8070  -26.0590   21.5360 C   0  0  0  0  0  3  0  0  0  0  0  0
  -30.0910  -25.6030   22.8380 C   0  0  0  0  0  3  0  0  0  0  0  0
  -28.6680  -23.9640   21.0600 C   0  0  0  0  0  3  0  0  0  0  0  0
  -29.0850  -25.2410   20.6390 C   0  0  0  0  0  0  0  0  0  0  0  0
  -29.6710  -24.3240   23.2610 C   0  0  0  0  0  0  0  0  0  0  0  0
  -28.9550  -23.4970   22.3600 C   0  0  0  0  0  0  0  0  0  0  0  0
  -30.0100  -23.8690   24.6710 C   0  0  0  0  0  1  0  0  0  0  0  0
  -28.5360  -22.0780   22.7090 C   0  0  0  0  0  2  0  0  0  0  0  0
  -29.6820  -21.1020   22.4160 C   0  0  0  0  0  2  0  0  0  0  0  0
  -29.4960  -19.7010   23.0090 C   0  0  0  0  0  2  0  0  0  0  0  0
  -30.4450  -18.7230   22.3090 C   0  0  0  0  0  2  0  0  0  0  0  0
  -30.2310  -17.2430   22.6490 C   0  0  0  0  0  2  0  0  0  0  0  0
  -30.9180  -16.3980   21.5710 C   0  0  0  0  0  2  0  0  0  0  0  0
  -30.8290  -14.2320   20.4690 C   0  0  0  0  0  0  0  0  0  0  0  0
  -30.4690  -12.1990   19.1380 C   0  0  0  0  0  2  0  0  0  0  0  0
  -29.5170  -12.4860   17.9630 C   0  0  0  0  0  2  0  0  0  0  0  0
  -28.0520  -12.3090   18.3990 C   0  0  0  0  0  2  0  0  0  0  0  0
  -27.7240  -13.0590   19.7170 C   0  0  0  0  0  3  0  0  0  0  0  0
  -28.7910  -12.7780   20.8030 C   0  0  0  0  0  2  0  0  0  0  0  0
  -30.1180  -13.0980   20.2470 N   0  0  0  0  0  0  0  0  0  0  0  0
  -31.8440  -14.5270   19.8300 O   0  0  0  0  0  0  0  0  0  0  0  0
  -30.3620  -15.0590   21.4100 N   0  0  0  0  0  0  0  0  0  0  0  0
  -29.5380  -14.7910   21.9290 H   0  0  0  0  0  0  0  0  0  0  0  0
  -25.3020  -13.5800   20.4270 C   0  0  0  0  0  0  0  0  0  0  0  0
  -24.2570  -12.7680   20.7810 C   0  0  0  0  0  0  0  0  0  0  0  0
  -24.7600  -11.4320   20.7280 C   0  0  0  0  0  0  0  0  0  0  0  0
  -26.3750  -12.7370   20.1850 N   0  0  0  0  0  0  0  0  0  0  0  0
  -26.0520  -11.4390   20.4210 N   0  0  0  0  0  0  0  0  0  0  0  0
  -24.0720  -10.1450   20.8970 C   0  0  0  0  0  0  0  0  0  0  0  0
  -24.3890   -9.2730   21.9620 C   0  0  0  0  0  3  0  0  0  0  0  0
  -23.7040   -8.0480   22.1150 C   0  0  0  0  0  3  0  0  0  0  0  0
  -22.6870   -7.6860   21.1990 C   0  0  0  0  0  0  0  0  0  0  0  0
  -22.3910   -8.5450   20.1260 C   0  0  0  0  0  3  0  0  0  0  0  0
  -23.0780   -9.7620   19.9730 C   0  0  0  0  0  3  0  0  0  0  0  0
  -21.9870   -6.5060   21.2520 O   0  0  0  0  0  0  0  0  0  0  0  0
  -21.6200   -5.9400   22.4470 C   0  0  0  0  0  0  0  0  0  0  0  0
  -20.7750   -6.6110   23.3620 C   0  0  0  0  0  3  0  0  0  0  0  0
  -20.3680   -5.9640   24.5450 C   0  0  0  0  0  3  0  0  0  0  0  0
  -20.7950   -4.6500   24.8130 C   0  0  0  0  0  0  0  0  0  0  0  0
  -21.6300   -3.9790   23.9020 C   0  0  0  0  0  3  0  0  0  0  0  0
  -22.0390   -4.6230   22.7220 C   0  0  0  0  0  0  0  0  0  0  0  0
  -22.8260   -3.9660   21.8360 F   0  0  0  0  0  0  0  0  0  0  0  0
  -20.3960   -4.0250   25.9460 F   0  0  0  0  0  0  0  0  0  0  0  0
  -22.8440  -13.1970   21.0610 C   0  0  0  0  0  0  0  0  0  0  0  0
  -22.1350  -12.4600   21.9100 N   0  0  0  0  0  0  0  0  0  0  0  0
  -22.3760  -14.2190   20.5630 O   0  0  0  0  0  0  0  0  0  0  0  0
  -22.5240  -11.6340   22.3380 H   0  0  0  0  0  0  0  0  0  0  0  0
  -21.1870  -12.7260   22.1370 H   0  0  0  0  0  0  0  0  0  0  0  0
  -25.4280  -14.9570   20.2710 N   0  0  0  0  0  0  0  0  0  0  0  0
  -24.6490  -15.5970   20.3900 H   0  0  0  0  0  0  0  0  0  0  0  0
  -26.2730  -15.4210   19.9600 H   0  0  0  0  0  0  0  0  0  0  0  0
  -28.7790  -25.6990   19.2210 C   0  0  0  0  0  2  0  0  0  0  0  0
  -28.7360  -27.1180   19.1240 O   0  0  0  0  0  0  0  0  0  0  0  0
  -24.6380  -31.2670   23.1440 C   0  0  0  0  0  0  0  0  0  0  0  0
  -27.5100  -27.7190   19.2610 C   0  0  0  0  0  0  0  0  0  0  0  0
  -23.5160  -30.2290   21.1960 C   0  0  0  0  0  3  0  0  0  0  0  0
  -25.0540  -29.0780   19.5190 C   0  0  0  0  0  0  0  0  0  0  0  0
  -26.0240  -30.7090   21.1500 C   0  0  0  0  0  2  0  0  0  0  0  0
  -26.1730  -29.5100   20.2400 C   0  0  0  0  0  0  0  0  0  0  0  0
  -27.4050  -28.8390   20.1070 C   0  0  0  0  0  3  0  0  0  0  0  0
  -26.3750  -27.2810   18.5420 C   0  0  0  0  0  3  0  0  0  0  0  0
  -25.1450  -27.9590   18.6690 C   0  0  0  0  0  3  0  0  0  0  0  0
  -23.7790  -29.8670   19.7070 C   0  0  0  0  0  2  0  0  0  0  0  0
  -24.7440  -30.7340   21.8920 N   0  0  0  0  0  0  0  0  0  0  0  0
  -23.5370  -31.3810   23.6990 O   0  0  0  0  0  0  0  0  0  0  0  0
  -22.8770  -29.0070   21.8910 C   0  0  0  0  0  0  0  0  0  0  0  0
  -21.5520  -28.8570   21.7320 N   0  0  0  0  0  0  0  0  0  0  0  0
  -23.5680  -28.2060   22.5250 O   0  0  0  0  0  0  0  0  0  0  0  0
  -21.0590  -29.5600   21.1990 H   0  0  0  0  0  0  0  0  0  0  0  0
  -18.1670  -27.6420   22.0540 C   0  0  0  0  0  0  0  0  0  0  0  0
  -20.7400  -27.7620   22.2590 C   0  0  0  0  0  3  0  0  0  0  0  0
  -20.7720  -26.5410   21.3120 C   0  0  0  0  0  2  0  0  0  0  0  0
  -19.6180  -26.5310   20.3040 C   0  0  0  0  0  2  0  0  0  0  0  0
  -18.2700  -26.5240   21.0300 C   0  0  0  0  0  2  0  0  0  0  0  0
  -19.3280  -28.2340   22.6190 C   0  0  0  0  0  0  0  0  0  0  0  0
  -19.1770  -29.2930   23.5400 C   0  0  0  0  0  3  0  0  0  0  0  0
  -17.8980  -29.7600   23.8990 C   0  0  0  0  0  3  0  0  0  0  0  0
  -16.7520  -29.1580   23.3510 C   0  0  0  0  0  3  0  0  0  0  0  0
  -16.8880  -28.1010   22.4340 C   0  0  0  0  0  3  0  0  0  0  0  0
  -25.8880  -31.7780   23.9240 C   0  0  0  0  0  3  0  0  0  0  0  0
  -25.5630  -33.1030   24.4660 N   0  0  0  0  0  0  0  0  0  0  0  0
  -25.9840  -34.2630   23.9420 C   0  0  0  0  0  0  0  0  0  0  0  0
  -26.7580  -34.3230   22.9830 O   0  0  0  0  0  0  0  0  0  0  0  0
  -24.8870  -33.1310   25.2150 H   0  0  0  0  0  0  0  0  0  0  0  0
  -24.3260  -36.1420   23.7290 C   0  0  0  0  0  1  0  0  0  0  0  0
  -25.4640  -35.5630   24.5850 C   0  0  0  0  0  3  0  0  0  0  0  0
  -27.4940  -36.2270   25.7950 C   0  0  0  0  0  1  0  0  0  0  0  0
  -26.5140  -36.5870   24.7730 N   0  0  0  0  0  0  0  0  0  0  0  0
  -26.1040  -37.4810   25.0300 H   0  0  0  0  0  0  0  0  0  0  0  0
  -26.3460  -30.8000   25.0750 C   0  0  1  0  0  0  0  0  0  0  0  0
  -25.2050  -30.3930   26.0350 C   0  0  0  0  0  1  0  0  0  0  0  0
  -26.9500  -29.5070   24.4810 C   0  0  0  0  0  1  0  0  0  0  0  0
  -27.4640  -31.4640   25.9140 C   0  0  0  0  0  1  0  0  0  0  0  0
  1  2  1  0
  2  5  2  0
  3  6  2  0
  4  3  1  0
  4  1  2  0
  5  7  1  0
  6  8  1  0
  6  5  1  0
  9  8  1  0
  9 10  1  0
 11 12  1  0
 11 10  1  0
 13 12  1  0
 14 22  1  0
 15 20  1  0
 16 17  1  0
 16 15  1  0
 18 17  1  0
 18 27  1  0
 18 19  1  0
 20 14  1  0
 20 19  1  0
 21 14  2  0
 22 13  1  0
 22 23  1  0
 24 25  2  0
 25 44  1  0
 26 25  1  0
 26 29  1  0
 27 28  1  0
 27 24  1  0
 28 26  2  0
 29 30  1  0
 30 31  2  0
 32 35  1  0
 32 31  1  0
 33 32  2  0
 34 33  1  0
 34 29  2  0
 35 36  1  0
 36 41  2  0
 36 37  1  0
 37 38  2  0
 38 39  1  0
 39 43  1  0
 40 39  2  0
 41 40  1  0
 42 41  1  0
 44 45  1  0
 45 48  1  0
 45 47  1  0
 46 44  2  0
 49 50  1  0
 49 24  1  0
 51 49  1  0
 52  4  1  0
 53 52  1  0
 53 55  1  0
 54 65  2  0
 55 60  1  0
 56 66  1  0
 56 64  1  0
 57 63  1  0
 57 59  1  0
 58 64  1  0
 59 58  1  0
 60 59  2  0
 61 62  1  0
 61 55  2  0
 62 57  2  0
 63 56  1  0
 64 54  1  0
 66 68  2  0
 67 66  1  0
 69 67  1  0
 70 79  2  0
 70 75  1  0
 71 67  1  0
 71 75  1  0
 72 71  1  0
 73 74  1  0
 73 72  1  0
 74 70  1  0
 75 76  2  0
 76 77  1  0
 78 77  2  0
 79 78  1  0
 80 54  1  0
 80 81  1  0
 80 90  1  0
 81 84  1  0
 82 81  1  0
 82 86  1  0
 83 82  2  0
 86 85  1  0
 86 88  1  0
 88 89  1  0
 88 87  1  0
 90 93  1  1
 90 91  1  0
 92 90  1  0
M  ISO  4  14 100  22 100  52 101  53 101
M  END
>  <TORSDO>  (34) 
F 23

>  <SCORE>  (34) 
-5.702

>  <name>  (34) 
33

>  <ligand_id>  (34) 
33

>  <original_smiles>  (34) 
[H]c1c([H])c([H])c2c(c1[H])C([H])([H])C([H])([H])C([H])([H])C2([H])N([H])C(=O)C1([H])N(C(=O)C([H])(N([H])C(=O)C([H])(N([H])C([H])([H])[H])C([H])([H])[H])C(C([H])([H])[H])(C([H])([H])[H])C([H])([H])[H])C([H])([H])c2c([H])c(OC([H])([H])c3c([H])c([H])c(C([H])([H])[H])c(C([H])([H])C([H])([H])C([H])([H])C([H])([H])C([H])([H])C([H])([H])N([H])C(=O)N4C([H])([H])C([H])([H])C([H])([H])C([H])(n5nc(-c6c([H])c([H])c(Oc7c([H])c([H])c(F)c([H])c7F)c([H])c6[H])c(C(=O)N([H])[H])c5N([H])[H])C4([H])[H])c3[H])c([H])c([H])c2C1([H])[H]

>  <smiles>  (34) 
[H]c1c([H])c([H])c2c(c1[H])C([H])([H])C([H])([H])C([H])([H])C2([H])N([H])C(=O)C1([H])N(C(=O)C([H])(N([H])C(=O)C([H])(N([H])C([H])([H])[H])C([H])([H])[H])C(C([H])([H])[H])(C([H])([H])[H])C([H])([H])[H])C([H])([H])c2c([H])c(OC([H])([H])c3c([H])c([H])c(C([H])([H])[H])c(C([H])([H])C([H])([H])C([H])([H])C([H])([H])C([H])([H])C([H])([H])N([H])C(=O)N4C([H])([H])C([H])([H])C([H])([H])C([H])(n5nc(-c6c([H])c([H])c(Oc7c([H])c([H])c(F)c([H])c7F)c([H])c6[H])c(C(=O)N([H])[H])c5N([H])[H])C4([H])[H])c3[H])c([H])c([H])c2C1([H])[H]

$$$$
34:0:0
     RDKit          3D

 95103  0  0  1  0  0  0  0  0999 V2000
  -29.7240  -23.4020   21.2030 C   0  0  0  0  0  2  0  0  0  0  0  0
  -28.2980  -22.5440   19.4480 C   0  0  0  0  0  2  0  0  0  0  0  0
  -30.7340  -22.2200   21.0130 C   0  0  0  0  0  2  0  0  0  0  0  0
  -29.2030  -21.3330   19.1200 C   0  0  0  0  0  2  0  0  0  0  0  0
  -29.0430  -23.8360   19.8900 C   0  0  0  0  0  3  0  0  0  0  0  0
  -30.3600  -20.9690   20.1110 C   0  0  1  0  0  0  0  0  0  0  0  0
  -28.0140  -25.0390   19.9280 C   0  0  0  0  0  2  0  0  0  0  0  0
  -28.3110  -26.4700   20.1450 O   0  0  0  0  0  0  0  0  0  0  0  0
  -24.6210  -31.8740   23.2230 C   0  0  0  0  0  0  0  0  0  0  0  0
  -27.1940  -27.3280   20.1220 C   0  0  0  0  0  0  0  0  0  0  0  0
  -23.3960  -30.4820   21.5960 C   0  0  0  0  0  3  0  0  0  0  0  0
  -24.8280  -28.9430   20.1570 C   0  0  0  0  0  0  0  0  0  0  0  0
  -25.9370  -30.8000   21.3870 C   0  0  0  0  0  2  0  0  0  0  0  0
  -26.0100  -29.4260   20.7340 C   0  0  0  0  0  0  0  0  0  0  0  0
  -27.1960  -28.6310   20.7080 C   0  0  0  0  0  3  0  0  0  0  0  0
  -25.9740  -26.9030   19.5340 C   0  0  0  0  0  3  0  0  0  0  0  0
  -24.8120  -27.6840   19.5520 C   0  0  0  0  0  3  0  0  0  0  0  0
  -23.5950  -29.8160   20.2130 C   0  0  0  0  0  2  0  0  0  0  0  0
  -24.6710  -31.0670   22.1240 N   0  0  0  0  0  0  0  0  0  0  0  0
  -23.5420  -32.1520   23.7660 O   0  0  0  0  0  0  0  0  0  0  0  0
  -22.7440  -29.4580   22.5590 C   0  0  0  0  0  0  0  0  0  0  0  0
  -21.4200  -29.2780   22.4410 N   0  0  0  0  0  0  0  0  0  0  0  0
  -23.4330  -28.8320   23.3710 O   0  0  0  0  0  0  0  0  0  0  0  0
  -20.9250  -29.8310   21.7540 H   0  0  0  0  0  0  0  0  0  0  0  0
  -18.0470  -28.0730   22.9640 C   0  0  0  0  0  0  0  0  0  0  0  0
  -20.6060  -28.3420   23.2220 C   0  0  0  0  0  3  0  0  0  0  0  0
  -20.7110  -26.9080   22.6540 C   0  0  0  0  0  2  0  0  0  0  0  0
  -19.6050  -26.5750   21.6480 C   0  0  0  0  0  2  0  0  0  0  0  0
  -18.2250  -26.7220   22.2960 C   0  0  0  0  0  2  0  0  0  0  0  0
  -19.1660  -28.8410   23.3850 C   0  0  0  0  0  0  0  0  0  0  0  0
  -18.9460  -30.1060   23.9720 C   0  0  0  0  0  3  0  0  0  0  0  0
  -17.6410  -30.6040   24.1400 C   0  0  0  0  0  3  0  0  0  0  0  0
  -16.5360  -29.8340   23.7340 C   0  0  0  0  0  3  0  0  0  0  0  0
  -16.7400  -28.5700   23.1530 C   0  0  0  0  0  3  0  0  0  0  0  0
  -25.9100  -32.5030   23.8290 C   0  0  0  0  0  3  0  0  0  0  0  0
  -26.4480  -31.7210   25.0910 C   0  0  1  0  0  0  0  0  0  0  0  0
  -25.3710  -31.4750   26.1730 C   0  0  0  0  0  1  0  0  0  0  0  0
  -27.0270  -30.3460   24.6830 C   0  0  0  0  0  1  0  0  0  0  0  0
  -27.6070  -32.5110   25.7410 C   0  0  0  0  0  1  0  0  0  0  0  0
  -25.5990  -33.8960   24.1790 N   0  0  0  0  0  0  0  0  0  0  0  0
  -25.9080  -34.9570   23.4230 C   0  0  0  0  0  0  0  0  0  0  0  0
  -26.5570  -34.8670   22.3770 O   0  0  0  0  0  0  0  0  0  0  0  0
  -25.0170  -34.0390   24.9920 H   0  0  0  0  0  0  0  0  0  0  0  0
  -24.1580  -36.7400   23.1220 C   0  0  0  0  0  1  0  0  0  0  0  0
  -25.4200  -36.3370   23.9030 C   0  0  0  0  0  3  0  0  0  0  0  0
  -27.5690  -37.2260   24.6900 C   0  0  0  0  0  1  0  0  0  0  0  0
  -26.4410  -37.3990   23.7760 N   0  0  0  0  0  0  0  0  0  0  0  0
  -26.0320  -38.3140   23.9450 H   0  0  0  0  0  0  0  0  0  0  0  0
  -31.5910  -20.6790   19.2010 C   0  0  0  0  0  2  0  0  0  0  0  0
  -32.8950  -20.2120   19.8740 C   0  0  0  0  0  2  0  0  0  0  0  0
  -34.0820  -20.4040   18.9140 C   0  0  0  0  0  2  0  0  0  0  0  0
  -35.3990  -19.8040   19.4180 C   0  0  0  0  0  2  0  0  0  0  0  0
  -37.8440  -19.3830   18.8280 C   0  0  0  0  0  1  0  0  0  0  0  0
  -36.5850  -20.2030   18.5270 C   0  0  0  0  0  2  0  0  0  0  0  0
  -30.0540  -19.6760   20.9900 C   0  0  0  0  0  2  0  0  0  0  0  0
  -29.8800  -18.2390   20.3350 C   0  0  0  0  0  2  0  0  0  0  0  0
  -30.4740  -17.0380   21.1670 C   0  0  0  0  0  2  0  0  0  0  0  0
  -30.6640  -14.5800   20.4570 C   0  0  0  0  0  0  0  0  0  0  0  0
  -30.3680  -12.3800   19.3570 C   0  0  0  0  0  2  0  0  0  0  0  0
  -29.4280  -12.5390   18.1460 C   0  0  0  0  0  2  0  0  0  0  0  0
  -27.9550  -12.4020   18.5800 C   0  0  0  0  0  2  0  0  0  0  0  0
  -27.6100  -13.2610   19.8260 C   0  0  0  0  0  3  0  0  0  0  0  0
  -28.6700  -13.0900   20.9380 C   0  0  0  0  0  2  0  0  0  0  0  0
  -29.9830  -13.3980   20.3500 N   0  0  0  0  0  0  0  0  0  0  0  0
  -31.8220  -14.7000   20.0550 O   0  0  0  0  0  0  0  0  0  0  0  0
  -29.9570  -15.6630   20.8740 N   0  0  0  0  0  0  0  0  0  0  0  0
  -28.9960  -15.4830   21.1180 H   0  0  0  0  0  0  0  0  0  0  0  0
  -25.2140  -13.8740   20.5350 C   0  0  0  0  0  0  0  0  0  0  0  0
  -24.1430  -13.1070   20.9090 C   0  0  0  0  0  0  0  0  0  0  0  0
  -24.6010  -11.7540   20.8860 C   0  0  0  0  0  0  0  0  0  0  0  0
  -26.2560  -12.9890   20.3100 N   0  0  0  0  0  0  0  0  0  0  0  0
  -25.8930  -11.7090   20.5810 N   0  0  0  0  0  0  0  0  0  0  0  0
  -23.8690  -10.4940   21.0810 C   0  0  0  0  0  0  0  0  0  0  0  0
  -24.3120   -9.5160   21.9990 C   0  0  0  0  0  3  0  0  0  0  0  0
  -23.5780   -8.3250   22.1830 C   0  0  0  0  0  3  0  0  0  0  0  0
  -22.3890   -8.1010   21.4480 C   0  0  0  0  0  0  0  0  0  0  0  0
  -21.9660   -9.0680   20.5190 C   0  0  0  0  0  3  0  0  0  0  0  0
  -22.7000  -10.2510   20.3320 C   0  0  0  0  0  3  0  0  0  0  0  0
  -21.6310   -6.9600   21.5370 O   0  0  0  0  0  0  0  0  0  0  0  0
  -21.6140   -6.1940   22.6760 C   0  0  0  0  0  0  0  0  0  0  0  0
  -21.2520   -6.7330   23.9300 C   0  0  0  0  0  3  0  0  0  0  0  0
  -21.1790   -5.8950   25.0610 C   0  0  0  0  0  3  0  0  0  0  0  0
  -21.4610   -4.5230   24.9400 C   0  0  0  0  0  0  0  0  0  0  0  0
  -21.8160   -3.9830   23.6910 C   0  0  0  0  0  3  0  0  0  0  0  0
  -21.8880   -4.8150   22.5610 C   0  0  0  0  0  0  0  0  0  0  0  0
  -22.2110   -4.2880   21.3560 F   0  0  0  0  0  0  0  0  0  0  0  0
  -21.3840   -3.7170   26.0260 F   0  0  0  0  0  0  0  0  0  0  0  0
  -22.7450  -13.5920   21.1730 C   0  0  0  0  0  0  0  0  0  0  0  0
  -22.0120  -12.9080   22.0440 N   0  0  0  0  0  0  0  0  0  0  0  0
  -22.3130  -14.6140   20.6440 O   0  0  0  0  0  0  0  0  0  0  0  0
  -22.3740  -12.0850   22.5030 H   0  0  0  0  0  0  0  0  0  0  0  0
  -21.0740  -13.2190   22.2560 H   0  0  0  0  0  0  0  0  0  0  0  0
  -25.3850  -15.2440   20.3490 N   0  0  0  0  0  0  0  0  0  0  0  0
  -24.6250  -15.9050   20.4610 H   0  0  0  0  0  0  0  0  0  0  0  0
  -26.2390  -15.6730   20.0180 H   0  0  0  0  0  0  0  0  0  0  0  0
  2  5  1  0
  3  1  1  0
  4  2  1  0
  4  6  1  0
  5  7  1  0
  5  1  1  0
  6 49  1  6
  6 55  1  0
  6  3  1  0
  7  8  1  0
  9 20  2  0
 10  8  1  0
 10 15  1  0
 11 19  1  0
 11 21  1  0
 12 18  1  0
 12 14  1  0
 13 19  1  0
 14 13  1  0
 15 14  2  0
 16 17  1  0
 16 10  2  0
 17 12  2  0
 18 11  1  0
 19  9  1  0
 21 23  2  0
 22 21  1  0
 24 22  1  0
 25 34  2  0
 25 30  1  0
 26 22  1  0
 26 30  1  0
 27 26  1  0
 28 29  1  0
 28 27  1  0
 29 25  1  0
 30 31  2  0
 31 32  1  0
 33 32  2  0
 34 33  1  0
 35  9  1  0
 35 40  1  0
 35 36  1  0
 36 39  1  1
 36 37  1  0
 38 36  1  0
 40 43  1  0
 41 45  1  0
 41 40  1  0
 42 41  2  0
 45 44  1  0
 47 45  1  0
 47 48  1  0
 47 46  1  0
 49 50  1  0
 51 52  1  0
 51 50  1  0
 54 53  1  0
 54 52  1  0
 56 55  1  0
 56 57  1  0
 58 66  1  0
 59 64  1  0
 60 61  1  0
 60 59  1  0
 62 61  1  0
 62 71  1  0
 62 63  1  0
 64 58  1  0
 64 63  1  0
 65 58  2  0
 66 67  1  0
 66 57  1  0
 68 69  2  0
 69 88  1  0
 70 69  1  0
 70 73  1  0
 71 68  1  0
 71 72  1  0
 72 70  2  0
 73 74  1  0
 74 75  2  0
 76 79  1  0
 76 75  1  0
 77 76  2  0
 78 77  1  0
 78 73  2  0
 79 80  1  0
 80 81  1  0
 81 82  2  0
 83 82  1  0
 83 87  1  0
 84 83  2  0
 85 80  2  0
 85 84  1  0
 86 85  1  0
 88 89  1  0
 89 92  1  0
 89 91  1  0
 90 88  2  0
 93 94  1  0
 93 68  1  0
 95 93  1  0
M  ISO  4   7 101   8 101  58 100  66 100
M  END
>  <TORSDO>  (35) 
F 25

>  <SCORE>  (35) 
-12.272

>  <name>  (35) 
34

>  <ligand_id>  (35) 
34

>  <original_smiles>  (35) 
[H]c1c([H])c([H])c2c(c1[H])C([H])([H])C([H])([H])C([H])([H])C2([H])N([H])C(=O)C1([H])N(C(=O)C([H])(N([H])C(=O)C([H])(N([H])C([H])([H])[H])C([H])([H])[H])C(C([H])([H])[H])(C([H])([H])[H])C([H])([H])[H])C([H])([H])c2c([H])c(OC([H])([H])C3([H])C([H])([H])C([H])([H])C(C([H])([H])C([H])([H])C([H])([H])N([H])C(=O)N4C([H])([H])C([H])([H])C([H])([H])C([H])(n5nc(-c6c([H])c([H])c(Oc7c([H])c([H])c(F)c([H])c7F)c([H])c6[H])c(C(=O)N([H])[H])c5N([H])[H])C4([H])[H])(C([H])([H])C([H])([H])C([H])([H])C([H])([H])C([H])([H])C([H])([H])[H])C([H])([H])C3([H])[H])c([H])c([H])c2C1([H])[H]

>  <smiles>  (35) 
[H]c1c([H])c([H])c2c(c1[H])C([H])([H])C([H])([H])C([H])([H])C2([H])N([H])C(=O)C1([H])N(C(=O)C([H])(N([H])C(=O)C([H])(N([H])C([H])([H])[H])C([H])([H])[H])C(C([H])([H])[H])(C([H])([H])[H])C([H])([H])[H])C([H])([H])c2c([H])c(OC([H])([H])C3([H])C([H])([H])C([H])([H])C(C([H])([H])C([H])([H])C([H])([H])N([H])C(=O)N4C([H])([H])C([H])([H])C([H])([H])C([H])(n5nc(-c6c([H])c([H])c(Oc7c([H])c([H])c(F)c([H])c7F)c([H])c6[H])c(C(=O)N([H])[H])c5N([H])[H])C4([H])[H])(C([H])([H])C([H])([H])C([H])([H])C([H])([H])C([H])([H])C([H])([H])[H])C([H])([H])C3([H])[H])c([H])c([H])c2C1([H])[H]

$$$$
35:0:0
     RDKit          3D

 90 98  0  0  1  0  0  0  0  0999 V2000
  -30.9740  -19.4940   19.5250 C   0  0  0  0  0  3  0  0  0  0  0  0
  -28.7770  -18.8390   20.2030 C   0  0  0  0  0  3  0  0  0  0  0  0
  -30.0890  -18.4400   19.8590 C   0  0  0  0  0  0  0  0  0  0  0  0
  -30.5400  -20.8430   19.4890 C   0  0  0  0  0  0  0  0  0  0  0  0
  -29.1960  -21.1420   19.8100 C   0  0  0  0  0  0  0  0  0  0  0  0
  -31.5050  -21.9260   19.0350 C   0  0  0  0  0  1  0  0  0  0  0  0
  -28.3540  -20.1380   20.1850 N   0  0  0  0  0  0  0  0  0  0  0  0
  -30.5940  -16.9690   19.6770 C   0  0  0  0  0  2  0  0  0  0  0  0
  -30.7070  -14.5750   20.3700 C   0  0  0  0  0  0  0  0  0  0  0  0
  -30.3460  -12.3590   19.3620 C   0  0  0  0  0  2  0  0  0  0  0  0
  -29.4110  -12.5250   18.1450 C   0  0  0  0  0  2  0  0  0  0  0  0
  -27.9410  -12.3930   18.5930 C   0  0  0  0  0  2  0  0  0  0  0  0
  -27.6060  -13.2700   19.8280 C   0  0  0  0  0  3  0  0  0  0  0  0
  -28.6770  -13.1550   20.9390 C   0  0  0  0  0  2  0  0  0  0  0  0
  -29.9840  -13.4180   20.3250 N   0  0  0  0  0  0  0  0  0  0  0  0
  -31.9040  -14.5800   20.0930 O   0  0  0  0  0  0  0  0  0  0  0  0
  -30.0320  -15.7630   20.3790 N   0  0  0  0  0  0  0  0  0  0  0  0
  -29.0440  -15.7280   20.5660 H   0  0  0  0  0  0  0  0  0  0  0  0
  -25.2170  -13.8760   20.5450 C   0  0  0  0  0  0  0  0  0  0  0  0
  -24.1430  -13.1060   20.9160 C   0  0  0  0  0  0  0  0  0  0  0  0
  -24.6010  -11.7540   20.8930 C   0  0  0  0  0  0  0  0  0  0  0  0
  -26.2590  -12.9930   20.3210 N   0  0  0  0  0  0  0  0  0  0  0  0
  -25.8930  -11.7130   20.5910 N   0  0  0  0  0  0  0  0  0  0  0  0
  -23.8710  -10.4920   21.0830 C   0  0  0  0  0  0  0  0  0  0  0  0
  -24.3120   -9.5140   22.0000 C   0  0  0  0  0  3  0  0  0  0  0  0
  -23.5840   -8.3190   22.1800 C   0  0  0  0  0  3  0  0  0  0  0  0
  -22.3980   -8.0920   21.4420 C   0  0  0  0  0  0  0  0  0  0  0  0
  -21.9750   -9.0600   20.5130 C   0  0  0  0  0  3  0  0  0  0  0  0
  -22.7040  -10.2470   20.3310 C   0  0  0  0  0  3  0  0  0  0  0  0
  -21.6400   -6.9490   21.5310 O   0  0  0  0  0  0  0  0  0  0  0  0
  -21.6190   -6.1870   22.6730 C   0  0  0  0  0  0  0  0  0  0  0  0
  -21.2420   -6.7260   23.9220 C   0  0  0  0  0  3  0  0  0  0  0  0
  -21.1660   -5.8930   25.0550 C   0  0  0  0  0  3  0  0  0  0  0  0
  -21.4570   -4.5200   24.9420 C   0  0  0  0  0  0  0  0  0  0  0  0
  -21.8270   -3.9800   23.6970 C   0  0  0  0  0  3  0  0  0  0  0  0
  -21.9030   -4.8110   22.5660 C   0  0  0  0  0  0  0  0  0  0  0  0
  -22.2390   -4.2830   21.3640 F   0  0  0  0  0  0  0  0  0  0  0  0
  -21.3800   -3.7170   26.0270 F   0  0  0  0  0  0  0  0  0  0  0  0
  -22.7480  -13.5880   21.1860 C   0  0  0  0  0  0  0  0  0  0  0  0
  -22.0190  -12.8910   22.0530 N   0  0  0  0  0  0  0  0  0  0  0  0
  -22.3100  -14.6110   20.6650 O   0  0  0  0  0  0  0  0  0  0  0  0
  -22.3880  -12.0610   22.4950 H   0  0  0  0  0  0  0  0  0  0  0  0
  -21.0830  -13.1960   22.2840 H   0  0  0  0  0  0  0  0  0  0  0  0
  -25.3910  -15.2430   20.3510 N   0  0  0  0  0  0  0  0  0  0  0  0
  -24.6390  -15.9150   20.4480 H   0  0  0  0  0  0  0  0  0  0  0  0
  -26.2510  -15.6570   20.0160 H   0  0  0  0  0  0  0  0  0  0  0  0
  -28.5400  -22.5270   19.5190 C   0  0  0  0  0  2  0  0  0  0  0  0
  -29.0370  -23.8780   20.1810 C   0  0  0  0  0  2  0  0  0  0  0  0
  -28.0310  -25.0540   19.8880 C   0  0  0  0  0  2  0  0  0  0  0  0
  -28.2910  -26.4670   20.2210 O   0  0  0  0  0  0  0  0  0  0  0  0
  -24.6020  -31.8860   23.2490 C   0  0  0  0  0  0  0  0  0  0  0  0
  -27.1810  -27.3260   20.1770 C   0  0  0  0  0  0  0  0  0  0  0  0
  -23.3900  -30.4950   21.6100 C   0  0  0  0  0  3  0  0  0  0  0  0
  -24.8230  -28.9490   20.1850 C   0  0  0  0  0  0  0  0  0  0  0  0
  -25.9340  -30.8010   21.4270 C   0  0  0  0  0  2  0  0  0  0  0  0
  -26.0000  -29.4270   20.7750 C   0  0  0  0  0  0  0  0  0  0  0  0
  -27.1830  -28.6290   20.7640 C   0  0  0  0  0  3  0  0  0  0  0  0
  -25.9690  -26.9020   19.5750 C   0  0  0  0  0  3  0  0  0  0  0  0
  -24.8070  -27.6860   19.5830 C   0  0  0  0  0  3  0  0  0  0  0  0
  -23.5970  -29.8290   20.2300 C   0  0  0  0  0  2  0  0  0  0  0  0
  -24.6600  -31.0790   22.1500 N   0  0  0  0  0  0  0  0  0  0  0  0
  -23.5200  -32.1670   23.7850 O   0  0  0  0  0  0  0  0  0  0  0  0
  -22.7250  -29.4800   22.5680 C   0  0  0  0  0  0  0  0  0  0  0  0
  -21.3990  -29.3000   22.4390 N   0  0  0  0  0  0  0  0  0  0  0  0
  -23.4020  -28.8540   23.3890 O   0  0  0  0  0  0  0  0  0  0  0  0
  -20.9080  -29.8540   21.7500 H   0  0  0  0  0  0  0  0  0  0  0  0
  -18.0240  -28.1000   22.9360 C   0  0  0  0  0  0  0  0  0  0  0  0
  -20.5800  -28.3700   23.2170 C   0  0  0  0  0  3  0  0  0  0  0  0
  -20.6900  -26.9320   22.6600 C   0  0  0  0  0  2  0  0  0  0  0  0
  -19.5950  -26.5950   21.6420 C   0  0  0  0  0  2  0  0  0  0  0  0
  -18.2080  -26.7440   22.2740 C   0  0  0  0  0  2  0  0  0  0  0  0
  -19.1380  -28.8690   23.3640 C   0  0  0  0  0  0  0  0  0  0  0  0
  -18.9100  -30.1360   23.9440 C   0  0  0  0  0  3  0  0  0  0  0  0
  -17.6030  -30.6340   24.1000 C   0  0  0  0  0  3  0  0  0  0  0  0
  -16.5040  -29.8640   23.6840 C   0  0  0  0  0  3  0  0  0  0  0  0
  -16.7150  -28.5990   23.1070 C   0  0  0  0  0  3  0  0  0  0  0  0
  -25.8910  -32.5140   23.8660 C   0  0  0  0  0  3  0  0  0  0  0  0
  -26.4070  -31.7430   25.1440 C   0  0  1  0  0  0  0  0  0  0  0  0
  -25.3130  -31.5120   26.2120 C   0  0  0  0  0  1  0  0  0  0  0  0
  -26.9840  -30.3630   24.7560 C   0  0  0  0  0  1  0  0  0  0  0  0
  -27.5630  -32.5320   25.7990 C   0  0  0  0  0  1  0  0  0  0  0  0
  -25.5870  -33.9130   24.1970 N   0  0  0  0  0  0  0  0  0  0  0  0
  -25.9150  -34.9640   23.4330 C   0  0  0  0  0  0  0  0  0  0  0  0
  -26.5770  -34.8600   22.3980 O   0  0  0  0  0  0  0  0  0  0  0  0
  -25.0070  -34.0710   25.0070 H   0  0  0  0  0  0  0  0  0  0  0  0
  -24.1860  -36.7580   23.0930 C   0  0  0  0  0  1  0  0  0  0  0  0
  -25.4320  -36.3520   23.8940 C   0  0  0  0  0  3  0  0  0  0  0  0
  -27.5750  -37.2330   24.7070 C   0  0  0  0  0  1  0  0  0  0  0  0
  -26.4660  -37.4030   23.7700 N   0  0  0  0  0  0  0  0  0  0  0  0
  -26.0630  -38.3230   23.9250 H   0  0  0  0  0  0  0  0  0  0  0  0
  1  3  1  0
  3  2  2  0
  4  1  2  0
  4  5  1  0
  5  7  2  0
  6  4  1  0
  7  2  1  0
  8  3  1  0
  8 17  1  0
  9 17  1  0
 10 15  1  0
 11 12  1  0
 11 10  1  0
 13 12  1  0
 13 22  1  0
 13 14  1  0
 15  9  1  0
 15 14  1  0
 16  9  2  0
 17 18  1  0
 19 20  2  0
 20 39  1  0
 21 20  1  0
 21 24  1  0
 22 19  1  0
 22 23  1  0
 23 21  2  0
 24 25  1  0
 25 26  2  0
 27 30  1  0
 27 26  1  0
 28 27  2  0
 29 28  1  0
 29 24  2  0
 30 31  1  0
 31 32  1  0
 32 33  2  0
 34 33  1  0
 34 38  1  0
 35 34  2  0
 36 31  2  0
 36 35  1  0
 37 36  1  0
 39 40  1  0
 40 43  1  0
 40 42  1  0
 41 39  2  0
 44 45  1  0
 44 19  1  0
 46 44  1  0
 47  5  1  0
 47 48  1  0
 49 48  1  0
 49 50  1  0
 51 62  2  0
 52 50  1  0
 52 57  1  0
 53 61  1  0
 53 63  1  0
 54 60  1  0
 54 56  1  0
 55 61  1  0
 56 55  1  0
 57 56  2  0
 58 59  1  0
 58 52  2  0
 59 54  2  0
 60 53  1  0
 61 51  1  0
 63 65  2  0
 64 63  1  0
 66 64  1  0
 67 76  2  0
 67 72  1  0
 68 64  1  0
 68 72  1  0
 69 68  1  0
 70 71  1  0
 70 69  1  0
 71 67  1  0
 72 73  2  0
 73 74  1  0
 75 74  2  0
 76 75  1  0
 77 51  1  0
 77 82  1  0
 77 78  1  0
 78 81  1  1
 78 79  1  0
 80 78  1  0
 82 85  1  0
 83 87  1  0
 83 82  1  0
 84 83  2  0
 87 86  1  0
 89 87  1  0
 89 90  1  0
 89 88  1  0
M  ISO  4   9 100  17 100  49 101  50 101
M  END
>  <TORSDO>  (36) 
F 20

>  <SCORE>  (36) 
-13.849

>  <name>  (36) 
35

>  <ligand_id>  (36) 
35

>  <original_smiles>  (36) 
[H]c1nc(C([H])([H])C([H])([H])C([H])([H])Oc2c([H])c([H])c3c(c2[H])C([H])([H])N(C(=O)C([H])(N([H])C(=O)C([H])(N([H])C([H])([H])[H])C([H])([H])[H])C(C([H])([H])[H])(C([H])([H])[H])C([H])([H])[H])C([H])(C(=O)N([H])C2([H])c4c([H])c([H])c([H])c([H])c4C([H])([H])C([H])([H])C2([H])[H])C3([H])[H])c(C([H])([H])[H])c([H])c1C([H])([H])N([H])C(=O)N1C([H])([H])C([H])([H])C([H])([H])C([H])(n2nc(-c3c([H])c([H])c(Oc4c([H])c([H])c(F)c([H])c4F)c([H])c3[H])c(C(=O)N([H])[H])c2N([H])[H])C1([H])[H]

>  <smiles>  (36) 
[H]c1nc(C([H])([H])C([H])([H])C([H])([H])Oc2c([H])c([H])c3c(c2[H])C([H])([H])N(C(=O)C([H])(N([H])C(=O)C([H])(N([H])C([H])([H])[H])C([H])([H])[H])C(C([H])([H])[H])(C([H])([H])[H])C([H])([H])[H])C([H])(C(=O)N([H])C2([H])c4c([H])c([H])c([H])c([H])c4C([H])([H])C([H])([H])C2([H])[H])C3([H])[H])c(C([H])([H])[H])c([H])c1C([H])([H])N([H])C(=O)N1C([H])([H])C([H])([H])C([H])([H])C([H])(n2nc(-c3c([H])c([H])c(Oc4c([H])c([H])c(F)c([H])c4F)c([H])c3[H])c(C(=O)N([H])[H])c2N([H])[H])C1([H])[H]

$$$$
36:0:0
     RDKit          3D

 91 99  0  0  1  0  0  0  0  0999 V2000
  -28.0200  -23.0810   19.7310 C   0  0  0  0  0  3  0  0  0  0  0  0
  -30.1600  -22.1700   21.1720 C   0  0  0  0  0  3  0  0  0  0  0  0
  -29.5460  -21.2340   20.3060 C   0  0  0  0  0  0  0  0  0  0  0  0
  -28.4520  -21.7400   19.5640 C   0  0  0  0  0  0  0  0  0  0  0  0
  -28.6860  -23.9360   20.6360 C   0  0  0  0  0  0  0  0  0  0  0  0
  -29.7490  -23.4610   21.3400 N   0  0  0  0  0  0  0  0  0  0  0  0
  -27.8130  -20.9380   18.6790 F   0  0  0  0  0  0  0  0  0  0  0  0
  -30.1720  -19.8190   20.0310 C   0  0  0  0  0  2  0  0  0  0  0  0
  -29.6630  -18.5730   20.7220 N   0  0  0  0  0  4  0  0  0  0  0  0
  -28.6870  -18.4630   20.5010 H   0  0  0  0  0  0  0  0  0  0  0  0
  -29.7380  -18.7020   21.7190 H   0  0  0  0  0  0  0  0  0  0  0  0
  -30.3920  -17.2920   20.3480 C   0  0  0  0  0  3  0  0  0  0  0  0
  -29.8830  -15.9200   20.9690 C   0  0  0  0  0  3  0  0  0  0  0  0
  -30.6120  -14.6170   20.4560 C   0  0  0  0  0  0  0  0  0  0  0  0
  -30.3540  -12.4080   19.3460 C   0  0  0  0  0  2  0  0  0  0  0  0
  -29.4230  -12.5780   18.1250 C   0  0  0  0  0  2  0  0  0  0  0  0
  -27.9470  -12.4290   18.5410 C   0  0  0  0  0  2  0  0  0  0  0  0
  -27.5910  -13.2820   19.7880 C   0  0  0  0  0  3  0  0  0  0  0  0
  -28.6400  -13.1080   20.9090 C   0  0  0  0  0  2  0  0  0  0  0  0
  -29.9610  -13.4170   20.3480 N   0  0  0  0  0  0  0  0  0  0  0  0
  -31.7650  -14.7400   20.0310 O   0  0  0  0  0  0  0  0  0  0  0  0
  -25.1920  -13.8950   20.4780 C   0  0  0  0  0  0  0  0  0  0  0  0
  -24.1190  -13.1290   20.8440 C   0  0  0  0  0  0  0  0  0  0  0  0
  -24.5780  -11.7750   20.8310 C   0  0  0  0  0  0  0  0  0  0  0  0
  -26.2370  -13.0100   20.2620 N   0  0  0  0  0  0  0  0  0  0  0  0
  -25.8720  -11.7310   20.5350 N   0  0  0  0  0  0  0  0  0  0  0  0
  -23.8470  -10.5180   21.0250 C   0  0  0  0  0  0  0  0  0  0  0  0
  -24.2730   -9.5520   21.9640 C   0  0  0  0  0  3  0  0  0  0  0  0
  -23.5410   -8.3580   22.1450 C   0  0  0  0  0  3  0  0  0  0  0  0
  -22.3700   -8.1220   21.3860 C   0  0  0  0  0  0  0  0  0  0  0  0
  -21.9630   -9.0750   20.4370 C   0  0  0  0  0  3  0  0  0  0  0  0
  -22.6940  -10.2610   20.2540 C   0  0  0  0  0  3  0  0  0  0  0  0
  -21.6100   -6.9800   21.4770 O   0  0  0  0  0  0  0  0  0  0  0  0
  -21.5650   -6.2360   22.6290 C   0  0  0  0  0  0  0  0  0  0  0  0
  -21.1550   -6.7920   23.8600 C   0  0  0  0  0  3  0  0  0  0  0  0
  -21.0560   -5.9740   25.0040 C   0  0  0  0  0  3  0  0  0  0  0  0
  -21.3550   -4.6020   24.9170 C   0  0  0  0  0  0  0  0  0  0  0  0
  -21.7590   -4.0450   23.6910 C   0  0  0  0  0  3  0  0  0  0  0  0
  -21.8600   -4.8590   22.5490 C   0  0  0  0  0  0  0  0  0  0  0  0
  -22.2290   -4.3140   21.3650 F   0  0  0  0  0  0  0  0  0  0  0  0
  -21.2520   -3.8150   26.0130 F   0  0  0  0  0  0  0  0  0  0  0  0
  -22.7200  -13.6120   21.0970 C   0  0  0  0  0  0  0  0  0  0  0  0
  -21.9820  -12.9260   21.9620 N   0  0  0  0  0  0  0  0  0  0  0  0
  -22.2910  -14.6350   20.5640 O   0  0  0  0  0  0  0  0  0  0  0  0
  -22.3430  -12.0980   22.4140 H   0  0  0  0  0  0  0  0  0  0  0  0
  -21.0430  -13.2310   22.1740 H   0  0  0  0  0  0  0  0  0  0  0  0
  -25.3620  -15.2640   20.2890 N   0  0  0  0  0  0  0  0  0  0  0  0
  -24.5940  -15.9200   20.3770 H   0  0  0  0  0  0  0  0  0  0  0  0
  -26.2110  -15.6920   19.9440 H   0  0  0  0  0  0  0  0  0  0  0  0
  -28.1070  -25.3330   21.0440 C   0  0  0  0  0  2  0  0  0  0  0  0
  -28.3000  -26.5100   20.1880 O   0  0  0  0  0  0  0  0  0  0  0  0
  -24.5990  -31.8800   23.2330 C   0  0  0  0  0  0  0  0  0  0  0  0
  -27.2010  -27.3640   20.1600 C   0  0  0  0  0  0  0  0  0  0  0  0
  -23.3840  -30.4820   21.5980 C   0  0  0  0  0  3  0  0  0  0  0  0
  -24.8290  -28.9360   20.1630 C   0  0  0  0  0  0  0  0  0  0  0  0
  -25.9190  -30.8150   21.3960 C   0  0  0  0  0  2  0  0  0  0  0  0
  -25.9980  -29.4390   20.7500 C   0  0  0  0  0  0  0  0  0  0  0  0
  -27.1920  -28.6640   20.7410 C   0  0  0  0  0  3  0  0  0  0  0  0
  -26.0160  -26.9010   19.5500 C   0  0  0  0  0  3  0  0  0  0  0  0
  -24.8380  -27.6700   19.5540 C   0  0  0  0  0  3  0  0  0  0  0  0
  -23.5900  -29.8040   20.2180 C   0  0  0  0  0  2  0  0  0  0  0  0
  -24.6530  -31.0750   22.1330 N   0  0  0  0  0  0  0  0  0  0  0  0
  -23.5200  -32.1570   23.7760 O   0  0  0  0  0  0  0  0  0  0  0  0
  -22.7300  -29.4640   22.5630 C   0  0  0  0  0  0  0  0  0  0  0  0
  -21.4030  -29.2870   22.4430 N   0  0  0  0  0  0  0  0  0  0  0  0
  -23.4140  -28.8370   23.3760 O   0  0  0  0  0  0  0  0  0  0  0  0
  -20.9110  -29.8440   21.7580 H   0  0  0  0  0  0  0  0  0  0  0  0
  -18.0280  -28.0930   22.9540 C   0  0  0  0  0  0  0  0  0  0  0  0
  -20.5870  -28.3530   23.2180 C   0  0  0  0  0  3  0  0  0  0  0  0
  -20.6880  -26.9200   22.6470 C   0  0  0  0  0  2  0  0  0  0  0  0
  -19.5840  -26.5940   21.6350 C   0  0  0  0  0  2  0  0  0  0  0  0
  -18.2030  -26.7420   22.2820 C   0  0  0  0  0  2  0  0  0  0  0  0
  -19.1480  -28.8570   23.3790 C   0  0  0  0  0  0  0  0  0  0  0  0
  -18.9310  -30.1210   23.9680 C   0  0  0  0  0  3  0  0  0  0  0  0
  -17.6260  -30.6230   24.1360 C   0  0  0  0  0  3  0  0  0  0  0  0
  -16.5210  -29.8560   23.7260 C   0  0  0  0  0  3  0  0  0  0  0  0
  -16.7230  -28.5940   23.1420 C   0  0  0  0  0  3  0  0  0  0  0  0
  -25.8880  -32.5110   23.8480 C   0  0  0  0  0  3  0  0  0  0  0  0
  -25.5820  -33.9080   24.1820 N   0  0  0  0  0  0  0  0  0  0  0  0
  -25.9110  -34.9620   23.4240 C   0  0  0  0  0  0  0  0  0  0  0  0
  -26.5760  -34.8600   22.3890 O   0  0  0  0  0  0  0  0  0  0  0  0
  -24.9930  -34.0630   24.9880 H   0  0  0  0  0  0  0  0  0  0  0  0
  -24.1850  -36.7590   23.0800 C   0  0  0  0  0  1  0  0  0  0  0  0
  -25.4280  -36.3500   23.8870 C   0  0  0  0  0  3  0  0  0  0  0  0
  -27.5680  -37.2270   24.7110 C   0  0  0  0  0  1  0  0  0  0  0  0
  -26.4620  -37.4020   23.7730 N   0  0  0  0  0  0  0  0  0  0  0  0
  -26.0580  -38.3210   23.9280 H   0  0  0  0  0  0  0  0  0  0  0  0
  -26.4140  -31.7360   25.1180 C   0  0  1  0  0  0  0  0  0  0  0  0
  -25.3290  -31.4970   26.1940 C   0  0  0  0  0  1  0  0  0  0  0  0
  -26.9930  -30.3590   24.7210 C   0  0  0  0  0  1  0  0  0  0  0  0
  -27.5710  -32.5280   25.7730 C   0  0  0  0  0  1  0  0  0  0  0  0
  1  5  1  0
  2  6  1  0
  3  2  2  0
  4  1  2  0
  4  3  1  0
  5 50  1  0
  5  6  2  0
  7  4  1  0
  8  3  1  0
  8  9  1  0
  9 11  1  0
 10  9  1  0
 12  9  1  0
 12 13  2  0
 14 13  1  0
 15 20  1  0
 16 17  1  0
 16 15  1  0
 18 17  1  0
 18 25  1  0
 18 19  1  0
 20 14  1  0
 20 19  1  0
 21 14  2  0
 22 23  2  0
 23 42  1  0
 24 23  1  0
 24 27  1  0
 25 22  1  0
 25 26  1  0
 26 24  2  0
 27 28  1  0
 28 29  2  0
 30 33  1  0
 30 29  1  0
 31 30  2  0
 32 31  1  0
 32 27  2  0
 33 34  1  0
 34 35  1  0
 35 36  2  0
 37 36  1  0
 37 41  1  0
 38 37  2  0
 39 34  2  0
 39 38  1  0
 40 39  1  0
 42 43  1  0
 43 46  1  0
 43 45  1  0
 44 42  2  0
 47 48  1  0
 47 22  1  0
 49 47  1  0
 51 50  1  0
 52 63  2  0
 53 51  1  0
 53 58  1  0
 54 62  1  0
 54 64  1  0
 55 61  1  0
 55 57  1  0
 56 62  1  0
 57 56  1  0
 58 57  2  0
 59 60  1  0
 59 53  2  0
 60 55  2  0
 61 54  1  0
 62 52  1  0
 64 66  2  0
 65 64  1  0
 67 65  1  0
 68 77  2  0
 68 73  1  0
 69 65  1  0
 69 73  1  0
 70 69  1  0
 71 72  1  0
 71 70  1  0
 72 68  1  0
 73 74  2  0
 74 75  1  0
 76 75  2  0
 77 76  1  0
 78 52  1  0
 78 79  1  0
 78 88  1  0
 79 82  1  0
 80 84  1  0
 80 79  1  0
 81 80  2  0
 84 83  1  0
 86 84  1  0
 86 87  1  0
 86 85  1  0
 88 91  1  1
 88 89  1  0
 90 88  1  0
M  ISO  4  13 100  14 100  50 101  51 101
M  END
>  <TORSDO>  (37) 
F 21

>  <SCORE>  (37) 
-13.529

>  <name>  (37) 
36

>  <ligand_id>  (37) 
36

>  <original_smiles>  (37) 
[H]c1nc(C([H])([H])Oc2c([H])c([H])c3c(c2[H])C([H])([H])N(C(=O)C([H])(N([H])C(=O)C([H])(N([H])C([H])([H])[H])C([H])([H])[H])C(C([H])([H])[H])(C([H])([H])[H])C([H])([H])[H])C([H])(C(=O)N([H])C2([H])c4c([H])c([H])c([H])c([H])c4C([H])([H])C([H])([H])C2([H])[H])C3([H])[H])c([H])c(F)c1C([H])([H])[N+]([H])([H])C([H])([H])C([H])([H])C(=O)N1C([H])([H])C([H])([H])C([H])([H])C([H])(n2nc(-c3c([H])c([H])c(Oc4c([H])c([H])c(F)c([H])c4F)c([H])c3[H])c(C(=O)N([H])[H])c2N([H])[H])C1([H])[H]

>  <smiles>  (37) 
[H]c1nc(C([H])([H])Oc2c([H])c([H])c3c(c2[H])C([H])([H])N(C(=O)C([H])(N([H])C(=O)C([H])(N([H])C([H])([H])[H])C([H])([H])[H])C(C([H])([H])[H])(C([H])([H])[H])C([H])([H])[H])C([H])(C(=O)N([H])C2([H])c4c([H])c([H])c([H])c([H])c4C([H])([H])C([H])([H])C2([H])[H])C3([H])[H])c([H])c(F)c1C([H])([H])[N+]([H])([H])C([H])([H])C([H])([H])C(=O)N1C([H])([H])C([H])([H])C([H])([H])C([H])(n2nc(-c3c([H])c([H])c(Oc4c([H])c([H])c(F)c([H])c4F)c([H])c3[H])c(C(=O)N([H])[H])c2N([H])[H])C1([H])[H]

$$$$
37:0:0
     RDKit          3D

 96104  0  0  1  0  0  0  0  0999 V2000
  -29.8460  -25.0660   23.2700 C   0  0  0  0  0  0  0  0  0  0  0  0
  -30.0640  -26.7600   21.7120 C   0  0  0  0  0  0  0  0  0  0  0  0
  -30.0420  -24.0920   22.2540 C   0  0  0  0  0  0  0  0  0  0  0  0
  -30.2840  -25.7950   20.6940 C   0  0  0  0  0  0  0  0  0  0  0  0
  -29.7210  -24.7000   24.7390 C   0  0  0  0  0  1  0  0  0  0  0  0
  -30.1390  -28.2580   21.4650 C   0  0  0  0  0  1  0  0  0  0  0  0
  -29.8350  -26.3930   22.9950 N   0  0  0  0  0  0  0  0  0  0  0  0
  -30.2760  -24.4650   20.9700 N   0  0  0  0  0  0  0  0  0  0  0  0
  -30.1680  -22.6030   22.5850 C   0  0  0  0  0  2  0  0  0  0  0  0
  -29.9210  -21.6200   21.4220 C   0  0  0  0  0  2  0  0  0  0  0  0
  -30.0620  -20.1550   21.8820 C   0  0  0  0  0  2  0  0  0  0  0  0
  -30.1840  -19.1460   20.7300 C   0  0  0  0  0  2  0  0  0  0  0  0
  -30.2040  -17.6840   21.2200 C   0  0  0  0  0  2  0  0  0  0  0  0
  -30.4210  -16.6910   20.0670 C   0  0  0  0  0  2  0  0  0  0  0  0
  -30.8790  -14.2540   19.9480 C   0  0  0  0  0  0  0  0  0  0  0  0
  -30.4660  -12.0830   18.8750 C   0  0  0  0  0  2  0  0  0  0  0  0
  -29.4640  -12.3110   17.7250 C   0  0  0  0  0  2  0  0  0  0  0  0
  -28.0160  -12.2060   18.2460 C   0  0  0  0  0  2  0  0  0  0  0  0
  -27.7710  -13.0620   19.5180 C   0  0  0  0  0  3  0  0  0  0  0  0
  -28.8880  -12.8380   20.5650 C   0  0  0  0  0  2  0  0  0  0  0  0
  -30.1840  -13.0860   19.9110 N   0  0  0  0  0  0  0  0  0  0  0  0
  -31.9650  -14.4120   19.3850 O   0  0  0  0  0  0  0  0  0  0  0  0
  -30.2050  -15.2960   20.4580 N   0  0  0  0  0  0  0  0  0  0  0  0
  -29.3240  -15.0740   20.8980 H   0  0  0  0  0  0  0  0  0  0  0  0
  -25.4160  -13.7110   20.3420 C   0  0  0  0  0  0  0  0  0  0  0  0
  -24.3670  -12.9600   20.7980 C   0  0  0  0  0  0  0  0  0  0  0  0
  -24.8160  -11.6050   20.7860 C   0  0  0  0  0  0  0  0  0  0  0  0
  -26.4420  -12.8160   20.0790 N   0  0  0  0  0  0  0  0  0  0  0  0
  -26.0850  -11.5450   20.4010 N   0  0  0  0  0  0  0  0  0  0  0  0
  -24.0950  -10.3550   21.0580 C   0  0  0  0  0  0  0  0  0  0  0  0
  -24.4910   -9.4840   22.0970 C   0  0  0  0  0  3  0  0  0  0  0  0
  -23.7690   -8.2980   22.3520 C   0  0  0  0  0  3  0  0  0  0  0  0
  -22.6360   -7.9730   21.5670 C   0  0  0  0  0  0  0  0  0  0  0  0
  -22.2590   -8.8330   20.5190 C   0  0  0  0  0  3  0  0  0  0  0  0
  -22.9830  -10.0100   20.2650 C   0  0  0  0  0  3  0  0  0  0  0  0
  -21.8900   -6.8300   21.7260 O   0  0  0  0  0  0  0  0  0  0  0  0
  -21.6970   -6.2620   22.9600 C   0  0  0  0  0  0  0  0  0  0  0  0
  -21.0640   -6.9600   24.0110 C   0  0  0  0  0  3  0  0  0  0  0  0
  -20.8210   -6.3150   25.2400 C   0  0  0  0  0  3  0  0  0  0  0  0
  -21.2040   -4.9720   25.4190 C   0  0  0  0  0  0  0  0  0  0  0  0
  -21.8300   -4.2740   24.3730 C   0  0  0  0  0  3  0  0  0  0  0  0
  -22.0720   -4.9170   23.1460 C   0  0  0  0  0  0  0  0  0  0  0  0
  -22.6590   -4.2320   22.1330 F   0  0  0  0  0  0  0  0  0  0  0  0
  -20.9640   -4.3480   26.5970 F   0  0  0  0  0  0  0  0  0  0  0  0
  -22.9900  -13.4580   21.1350 C   0  0  0  0  0  0  0  0  0  0  0  0
  -22.3080  -12.8000   22.0670 N   0  0  0  0  0  0  0  0  0  0  0  0
  -22.5300  -14.4690   20.6080 O   0  0  0  0  0  0  0  0  0  0  0  0
  -22.6900  -11.9840   22.5200 H   0  0  0  0  0  0  0  0  0  0  0  0
  -21.3890  -13.1240   22.3330 H   0  0  0  0  0  0  0  0  0  0  0  0
  -25.5740  -15.0740   20.1140 N   0  0  0  0  0  0  0  0  0  0  0  0
  -24.8050  -15.7260   20.2340 H   0  0  0  0  0  0  0  0  0  0  0  0
  -26.4010  -15.5050   19.7190 H   0  0  0  0  0  0  0  0  0  0  0  0
  -30.6630  -26.1680   19.2640 C   0  0  0  0  0  2  0  0  0  0  0  0
  -29.5340  -26.0380   18.2220 C   0  0  0  0  0  2  0  0  0  0  0  0
  -28.3860  -27.0520   18.3620 C   0  0  0  0  0  2  0  0  0  0  0  0
  -27.3710  -26.4890   19.1790 O   0  0  0  0  0  0  0  0  0  0  0  0
  -24.3290  -31.5740   23.1240 C   0  0  0  0  0  0  0  0  0  0  0  0
  -26.2900  -27.3040   19.3970 C   0  0  0  0  0  0  0  0  0  0  0  0
  -22.8440  -30.4080   21.5240 C   0  0  0  0  0  3  0  0  0  0  0  0
  -24.0140  -28.9130   19.8200 C   0  0  0  0  0  0  0  0  0  0  0  0
  -25.3470  -30.6340   21.0550 C   0  0  0  0  0  2  0  0  0  0  0  0
  -25.2630  -29.3230   20.3050 C   0  0  0  0  0  0  0  0  0  0  0  0
  -26.4070  -28.5260   20.0940 C   0  0  0  0  0  3  0  0  0  0  0  0
  -25.0280  -26.8870   18.9330 C   0  0  0  0  0  3  0  0  0  0  0  0
  -23.8880  -27.6910   19.1330 C   0  0  0  0  0  3  0  0  0  0  0  0
  -22.8440  -29.8380   20.0790 C   0  0  0  0  0  2  0  0  0  0  0  0
  -24.1980  -30.8790   21.9580 N   0  0  0  0  0  0  0  0  0  0  0  0
  -23.3400  -31.8640   23.8100 O   0  0  0  0  0  0  0  0  0  0  0  0
  -22.2310  -29.3500   22.4690 C   0  0  0  0  0  0  0  0  0  0  0  0
  -20.8950  -29.2130   22.4260 N   0  0  0  0  0  0  0  0  0  0  0  0
  -22.9490  -28.6580   23.1950 O   0  0  0  0  0  0  0  0  0  0  0  0
  -20.3780  -29.8250   21.8090 H   0  0  0  0  0  0  0  0  0  0  0  0
  -17.5310  -28.0510   23.0430 C   0  0  0  0  0  0  0  0  0  0  0  0
  -20.1030  -28.2540   23.1950 C   0  0  0  0  0  3  0  0  0  0  0  0
  -20.1500  -26.8500   22.5500 C   0  0  0  0  0  2  0  0  0  0  0  0
  -18.9920  -26.5920   21.5810 C   0  0  0  0  0  2  0  0  0  0  0  0
  -17.6480  -26.7300   22.3010 C   0  0  0  0  0  2  0  0  0  0  0  0
  -18.6840  -28.7750   23.4490 C   0  0  0  0  0  0  0  0  0  0  0  0
  -18.5190  -30.0140   24.1040 C   0  0  0  0  0  3  0  0  0  0  0  0
  -17.2350  -30.5290   24.3590 C   0  0  0  0  0  3  0  0  0  0  0  0
  -16.0970  -29.8020   23.9690 C   0  0  0  0  0  3  0  0  0  0  0  0
  -16.2460  -28.5650   23.3170 C   0  0  0  0  0  3  0  0  0  0  0  0
  -25.7230  -32.0560   23.6390 C   0  0  0  0  0  3  0  0  0  0  0  0
  -26.3020  -31.1570   24.8000 C   0  0  1  0  0  0  0  0  0  0  0  0
  -25.2860  -30.8730   25.9300 C   0  0  0  0  0  1  0  0  0  0  0  0
  -26.7880  -29.7980   24.2460 C   0  0  0  0  0  1  0  0  0  0  0  0
  -27.5340  -31.8450   25.4310 C   0  0  0  0  0  1  0  0  0  0  0  0
  -25.5700  -33.4470   24.0850 N   0  0  0  0  0  0  0  0  0  0  0  0
  -25.9540  -34.5190   23.3780 C   0  0  0  0  0  0  0  0  0  0  0  0
  -26.5480  -34.4310   22.2980 O   0  0  0  0  0  0  0  0  0  0  0  0
  -25.0360  -33.5950   24.9290 H   0  0  0  0  0  0  0  0  0  0  0  0
  -24.3910  -36.4870   23.2550 C   0  0  0  0  0  1  0  0  0  0  0  0
  -25.6280  -35.9080   23.9600 C   0  0  0  0  0  3  0  0  0  0  0  0
  -27.8770  -36.5280   24.7250 C   0  0  0  0  0  1  0  0  0  0  0  0
  -26.7510  -36.8660   23.8600 N   0  0  0  0  0  0  0  0  0  0  0  0
  -26.4450  -37.8070   24.0870 H   0  0  0  0  0  0  0  0  0  0  0  0
  1  5  1  0
  2  7  2  0
  3  9  1  0
  3  1  2  0
  4  8  2  0
  4  2  1  0
  6  2  1  0
  7  1  1  0
  8  3  1  0
 10 11  1  0
 10  9  1  0
 12 13  1  0
 12 11  1  0
 14 23  1  0
 14 13  1  0
 15 23  1  0
 16 21  1  0
 17 18  1  0
 17 16  1  0
 19 18  1  0
 19 28  1  0
 19 20  1  0
 21 15  1  0
 21 20  1  0
 22 15  2  0
 23 24  1  0
 25 26  2  0
 26 45  1  0
 27 26  1  0
 27 30  1  0
 28 25  1  0
 28 29  1  0
 29 27  2  0
 30 31  1  0
 31 32  2  0
 33 36  1  0
 33 32  1  0
 34 33  2  0
 35 34  1  0
 35 30  2  0
 36 37  1  0
 37 42  2  0
 37 38  1  0
 38 39  2  0
 39 40  1  0
 40 44  1  0
 41 40  2  0
 42 41  1  0
 43 42  1  0
 45 46  1  0
 46 49  1  0
 46 48  1  0
 47 45  2  0
 50 51  1  0
 50 25  1  0
 52 50  1  0
 53  4  1  0
 54 55  1  0
 54 53  1  0
 55 56  1  0
 56 58  1  0
 57 68  2  0
 58 63  1  0
 59 67  1  0
 59 69  1  0
 60 66  1  0
 60 62  1  0
 61 67  1  0
 62 61  1  0
 63 62  2  0
 64 65  1  0
 64 58  2  0
 65 60  2  0
 66 59  1  0
 67 57  1  0
 69 71  2  0
 70 69  1  0
 72 70  1  0
 73 82  2  0
 73 78  1  0
 74 70  1  0
 74 78  1  0
 75 74  1  0
 76 77  1  0
 76 75  1  0
 77 73  1  0
 78 79  2  0
 79 80  1  0
 81 80  2  0
 82 81  1  0
 83 57  1  0
 83 88  1  0
 83 84  1  0
 84 87  1  1
 84 85  1  0
 86 84  1  0
 88 91  1  0
 89 93  1  0
 89 88  1  0
 90 89  2  0
 93 92  1  0
 95 93  1  0
 95 96  1  0
 95 94  1  0
M  ISO  4  15 100  23 100  55 101  56 101
M  END
>  <TORSDO>  (38) 
F 25

>  <SCORE>  (38) 
-9.026

>  <name>  (38) 
37

>  <ligand_id>  (38) 
37

>  <original_smiles>  (38) 
[H]c1c([H])c([H])c2c(c1[H])C([H])([H])C([H])([H])C([H])([H])C2([H])N([H])C(=O)C1([H])N(C(=O)C([H])(N([H])C(=O)C([H])(N([H])C([H])([H])[H])C([H])([H])[H])C(C([H])([H])[H])(C([H])([H])[H])C([H])([H])[H])C([H])([H])c2c([H])c(OC([H])([H])C([H])([H])C([H])([H])c3nc(C([H])([H])C([H])([H])C([H])([H])C([H])([H])C([H])([H])C([H])([H])N([H])C(=O)N4C([H])([H])C([H])([H])C([H])([H])C([H])(n5nc(-c6c([H])c([H])c(Oc7c([H])c([H])c(F)c([H])c7F)c([H])c6[H])c(C(=O)N([H])[H])c5N([H])[H])C4([H])[H])c(C([H])([H])[H])nc3C([H])([H])[H])c([H])c([H])c2C1([H])[H]

>  <smiles>  (38) 
[H]c1c([H])c([H])c2c(c1[H])C([H])([H])C([H])([H])C([H])([H])C2([H])N([H])C(=O)C1([H])N(C(=O)C([H])(N([H])C(=O)C([H])(N([H])C([H])([H])[H])C([H])([H])[H])C(C([H])([H])[H])(C([H])([H])[H])C([H])([H])[H])C([H])([H])c2c([H])c(OC([H])([H])C([H])([H])C([H])([H])c3nc(C([H])([H])C([H])([H])C([H])([H])C([H])([H])C([H])([H])C([H])([H])N([H])C(=O)N4C([H])([H])C([H])([H])C([H])([H])C([H])(n5nc(-c6c([H])c([H])c(Oc7c([H])c([H])c(F)c([H])c7F)c([H])c6[H])c(C(=O)N([H])[H])c5N([H])[H])C4([H])[H])c(C([H])([H])[H])nc3C([H])([H])[H])c([H])c([H])c2C1([H])[H]

$$$$
38:0:0
     RDKit          3D

 94102  0  0  1  0  0  0  0  0999 V2000
  -27.7190  -20.8060   20.3440 C   0  0  0  0  0  3  0  0  0  0  0  0
  -27.8080  -19.7100   19.4460 C   0  0  0  0  0  0  0  0  0  0  0  0
  -28.1730  -21.8710   19.6210 C   0  0  0  0  0  0  0  0  0  0  0  0
  -28.9070  -22.1380   17.1840 C   0  0  0  0  0  1  0  0  0  0  0  0
  -28.1890  -20.0870   18.2340 N   0  0  0  0  0  0  0  0  0  0  0  0
  -28.4160  -21.4130   18.3390 N   0  0  0  0  0  0  0  0  0  0  0  0
  -27.7000  -18.2470   19.7710 C   0  0  0  0  0  2  0  0  0  0  0  0
  -29.0020  -17.6900   20.3890 C   0  0  0  0  0  2  0  0  0  0  0  0
  -30.1880  -17.5910   19.4010 C   0  0  0  0  0  2  0  0  0  0  0  0
  -31.4030  -16.8340   19.9490 C   0  0  0  0  0  2  0  0  0  0  0  0
  -30.9990  -15.4640   20.5040 C   0  0  0  0  0  2  0  0  0  0  0  0
  -32.5360  -13.5710   20.8240 C   0  0  0  0  0  0  0  0  0  0  0  0
  -32.1870  -11.1420   21.0530 C   0  0  0  0  0  2  0  0  0  0  0  0
  -31.4520  -10.5480   19.8360 C   0  0  0  0  0  2  0  0  0  0  0  0
  -29.9250  -10.6610   20.0130 C   0  0  0  0  0  2  0  0  0  0  0  0
  -29.4780  -12.0870   20.4290 C   0  0  0  0  0  3  0  0  0  0  0  0
  -30.3310  -12.5930   21.6160 C   0  0  0  0  0  2  0  0  0  0  0  0
  -31.7520  -12.5350   21.2270 N   0  0  0  0  0  0  0  0  0  0  0  0
  -33.6620  -13.4190   20.3430 O   0  0  0  0  0  0  0  0  0  0  0  0
  -32.1300  -14.8030   21.1430 N   0  0  0  0  0  0  0  0  0  0  0  0
  -32.9110  -15.4340   21.2440 H   0  0  0  0  0  0  0  0  0  0  0  0
  -27.1980  -13.2290   20.8070 C   0  0  0  0  0  0  0  0  0  0  0  0
  -25.9480  -12.7210   21.0420 C   0  0  0  0  0  0  0  0  0  0  0  0
  -26.1040  -11.3030   21.0880 C   0  0  0  0  0  0  0  0  0  0  0  0
  -28.0470  -12.1360   20.7280 N   0  0  0  0  0  0  0  0  0  0  0  0
  -27.3810  -10.9740   20.9490 N   0  0  0  0  0  0  0  0  0  0  0  0
  -25.1010  -10.2330   21.1990 C   0  0  0  0  0  0  0  0  0  0  0  0
  -25.1120   -9.3230   22.2790 C   0  0  0  0  0  3  0  0  0  0  0  0
  -24.1310   -8.3120   22.3710 C   0  0  0  0  0  3  0  0  0  0  0  0
  -23.1250   -8.2060   21.3830 C   0  0  0  0  0  0  0  0  0  0  0  0
  -23.1330   -9.0990   20.2960 C   0  0  0  0  0  3  0  0  0  0  0  0
  -24.1130  -10.1020   20.2040 C   0  0  0  0  0  3  0  0  0  0  0  0
  -22.1470   -7.2440   21.3800 O   0  0  0  0  0  0  0  0  0  0  0  0
  -21.5870   -6.7830   22.5450 C   0  0  0  0  0  0  0  0  0  0  0  0
  -20.9230   -7.6460   23.4440 C   0  0  0  0  0  3  0  0  0  0  0  0
  -20.2970   -7.1180   24.5910 C   0  0  0  0  0  3  0  0  0  0  0  0
  -20.3280   -5.7320   24.8380 C   0  0  0  0  0  0  0  0  0  0  0  0
  -20.9880   -4.8740   23.9430 C   0  0  0  0  0  3  0  0  0  0  0  0
  -21.6120   -5.3970   22.7980 C   0  0  0  0  0  0  0  0  0  0  0  0
  -22.2260   -4.5620   21.9250 F   0  0  0  0  0  0  0  0  0  0  0  0
  -19.7210   -5.2240   25.9360 F   0  0  0  0  0  0  0  0  0  0  0  0
  -24.6640  -13.4950   21.1300 C   0  0  0  0  0  0  0  0  0  0  0  0
  -23.7080  -13.0180   21.9170 N   0  0  0  0  0  0  0  0  0  0  0  0
  -24.5200  -14.5610   20.5320 O   0  0  0  0  0  0  0  0  0  0  0  0
  -23.8310  -12.1540   22.4240 H   0  0  0  0  0  0  0  0  0  0  0  0
  -22.8450  -13.5320   22.0260 H   0  0  0  0  0  0  0  0  0  0  0  0
  -27.6780  -14.5250   20.6400 N   0  0  0  0  0  0  0  0  0  0  0  0
  -27.0710  -15.3370   20.6710 H   0  0  0  0  0  0  0  0  0  0  0  0
  -28.6470  -14.7640   20.4770 H   0  0  0  0  0  0  0  0  0  0  0  0
  -28.4240  -23.2720   20.0700 C   0  0  0  0  0  2  0  0  0  0  0  0
  -29.8520  -23.4710   20.6240 C   0  0  0  0  0  2  0  0  0  0  0  0
  -30.3830  -24.9040   20.4280 C   0  0  0  0  0  2  0  0  0  0  0  0
  -29.8310  -25.8950   21.4650 C   0  0  0  0  0  2  0  0  0  0  0  0
  -29.8980  -27.2340   20.9710 O   0  0  0  0  0  0  0  0  0  0  0  0
  -25.3770  -31.9210   23.7460 C   0  0  0  0  0  0  0  0  0  0  0  0
  -28.6720  -27.8400   20.8480 C   0  0  0  0  0  0  0  0  0  0  0  0
  -24.4380  -30.4270   22.0090 C   0  0  0  0  0  3  0  0  0  0  0  0
  -26.1400  -29.0670   20.6820 C   0  0  0  0  0  0  0  0  0  0  0  0
  -26.9150  -31.0540   21.9880 C   0  0  0  0  0  2  0  0  0  0  0  0
  -27.1850  -29.7080   21.3570 C   0  0  0  0  0  0  0  0  0  0  0  0
  -28.4570  -29.1020   21.4370 C   0  0  0  0  0  3  0  0  0  0  0  0
  -27.6130  -27.2040   20.1610 C   0  0  0  0  0  3  0  0  0  0  0  0
  -26.3460  -27.8140   20.0790 C   0  0  0  0  0  3  0  0  0  0  0  0
  -24.8120  -29.7900   20.6420 C   0  0  0  0  0  2  0  0  0  0  0  0
  -25.5900  -31.1500   22.6420 N   0  0  0  0  0  0  0  0  0  0  0  0
  -24.2400  -32.0730   24.2120 O   0  0  0  0  0  0  0  0  0  0  0  0
  -23.8300  -29.3320   22.9150 C   0  0  0  0  0  0  0  0  0  0  0  0
  -22.5880  -28.9230   22.6070 N   0  0  0  0  0  0  0  0  0  0  0  0
  -24.4780  -28.8540   23.8500 O   0  0  0  0  0  0  0  0  0  0  0  0
  -22.1180  -29.3740   21.8360 H   0  0  0  0  0  0  0  0  0  0  0  0
  -19.4420  -27.1500   22.6440 C   0  0  0  0  0  0  0  0  0  0  0  0
  -21.8340  -27.8780   23.2990 C   0  0  0  0  0  3  0  0  0  0  0  0
  -22.2790  -26.4710   22.8370 C   0  0  0  0  0  2  0  0  0  0  0  0
  -21.4340  -25.9190   21.6840 C   0  0  0  0  0  2  0  0  0  0  0  0
  -19.9610  -25.8330   22.0920 C   0  0  0  0  0  2  0  0  0  0  0  0
  -20.3240  -28.1160   23.1990 C   0  0  0  0  0  0  0  0  0  0  0  0
  -19.7930  -29.3380   23.6660 C   0  0  0  0  0  3  0  0  0  0  0  0
  -18.4130  -29.6000   23.5910 C   0  0  0  0  0  3  0  0  0  0  0  0
  -17.5430  -28.6350   23.0550 C   0  0  0  0  0  3  0  0  0  0  0  0
  -18.0570  -27.4130   22.5870 C   0  0  0  0  0  3  0  0  0  0  0  0
  -26.5470  -32.6700   24.4590 C   0  0  0  0  0  3  0  0  0  0  0  0
  -27.0010  -31.9790   25.8020 C   0  0  1  0  0  0  0  0  0  0  0  0
  -25.8300  -31.5880   26.7320 C   0  0  0  0  0  1  0  0  0  0  0  0
  -27.8150  -30.6970   25.5040 C   0  0  0  0  0  1  0  0  0  0  0  0
  -27.9380  -32.9260   26.5900 C   0  0  0  0  0  1  0  0  0  0  0  0
  -26.1070  -34.0500   24.7060 N   0  0  0  0  0  0  0  0  0  0  0  0
  -26.4060  -35.0950   23.9250 C   0  0  0  0  0  0  0  0  0  0  0  0
  -27.1560  -35.0070   22.9460 O   0  0  0  0  0  0  0  0  0  0  0  0
  -25.4520  -34.1870   25.4630 H   0  0  0  0  0  0  0  0  0  0  0  0
  -24.5520  -36.7040   23.3880 C   0  0  0  0  0  1  0  0  0  0  0  0
  -25.7770  -36.4540   24.2820 C   0  0  0  0  0  3  0  0  0  0  0  0
  -27.7930  -37.5500   25.1510 C   0  0  0  0  0  1  0  0  0  0  0  0
  -26.7180  -37.5880   24.1640 N   0  0  0  0  0  0  0  0  0  0  0  0
  -26.2290  -38.4730   24.2640 H   0  0  0  0  0  0  0  0  0  0  0  0
  2  7  1  0
  2  1  1  0
  3 50  1  0
  3  1  2  0
  4  6  1  0
  5  6  1  0
  5  2  2  0
  6  3  1  0
  7  8  1  0
  9 10  1  0
  9  8  1  0
 10 11  1  0
 11 20  1  0
 12 20  1  0
 12 18  1  0
 13 18  1  0
 14 15  1  0
 14 13  1  0
 16 15  1  0
 16 25  1  0
 16 17  1  0
 18 17  1  0
 19 12  2  0
 20 21  1  0
 22 23  2  0
 23 24  1  0
 23 42  1  0
 24 27  1  0
 25 22  1  0
 25 26  1  0
 26 24  2  0
 27 28  1  0
 28 29  2  0
 30 29  1  0
 31 30  2  0
 32 31  1  0
 32 27  2  0
 33 30  1  0
 33 34  1  0
 34 39  2  0
 34 35  1  0
 35 36  2  0
 36 37  1  0
 37 41  1  0
 38 37  2  0
 39 38  1  0
 40 39  1  0
 42 43  1  0
 43 46  1  0
 43 45  1  0
 44 42  2  0
 47 48  1  0
 47 22  1  0
 49 47  1  0
 50 51  1  0
 52 51  1  0
 52 53  1  0
 54 53  1  0
 55 66  2  0
 56 54  1  0
 56 61  1  0
 57 65  1  0
 57 67  1  0
 58 60  1  0
 59 65  1  0
 60 61  2  0
 60 59  1  0
 62 56  2  0
 63 62  1  0
 63 58  2  0
 64 58  1  0
 64 57  1  0
 65 55  1  0
 67 69  2  0
 68 67  1  0
 70 68  1  0
 71 76  1  0
 72 68  1  0
 73 72  1  0
 74 75  1  0
 74 73  1  0
 75 71  1  0
 76 72  1  0
 76 77  2  0
 78 77  1  0
 79 78  2  0
 80 71  2  0
 80 79  1  0
 81 55  1  0
 81 86  1  0
 81 82  1  0
 82 85  1  1
 82 83  1  0
 84 82  1  0
 86 89  1  0
 87 91  1  0
 87 86  1  0
 88 87  2  0
 91 90  1  0
 93 94  1  0
 93 91  1  0
 93 92  1  0
M  ISO  4  12 100  20 100  53 101  54 101
M  END
>  <TORSDO>  (39) 
F 25

>  <SCORE>  (39) 
-9.220

>  <name>  (39) 
38

>  <ligand_id>  (39) 
38

>  <original_smiles>  (39) 
[H]c1c([H])c([H])c2c(c1[H])C([H])([H])C([H])([H])C([H])([H])C2([H])N([H])C(=O)C1([H])N(C(=O)C([H])(N([H])C(=O)C([H])(N([H])C([H])([H])[H])C([H])([H])[H])C(C([H])([H])[H])(C([H])([H])[H])C([H])([H])[H])C([H])([H])c2c([H])c(OC([H])([H])C([H])([H])C([H])([H])C([H])([H])c3c([H])c(C([H])([H])C([H])([H])C([H])([H])C([H])([H])C([H])([H])N([H])C(=O)N4C([H])([H])C([H])([H])C([H])([H])C([H])(n5nc(-c6c([H])c([H])c(Oc7c([H])c([H])c(F)c([H])c7F)c([H])c6[H])c(C(=O)N([H])[H])c5N([H])[H])C4([H])[H])nn3C([H])([H])[H])c([H])c([H])c2C1([H])[H]

>  <smiles>  (39) 
[H]c1c([H])c([H])c2c(c1[H])C([H])([H])C([H])([H])C([H])([H])C2([H])N([H])C(=O)C1([H])N(C(=O)C([H])(N([H])C(=O)C([H])(N([H])C([H])([H])[H])C([H])([H])[H])C(C([H])([H])[H])(C([H])([H])[H])C([H])([H])[H])C([H])([H])c2c([H])c(OC([H])([H])C([H])([H])C([H])([H])C([H])([H])c3c([H])c(C([H])([H])C([H])([H])C([H])([H])C([H])([H])C([H])([H])N([H])C(=O)N4C([H])([H])C([H])([H])C([H])([H])C([H])(n5nc(-c6c([H])c([H])c(Oc7c([H])c([H])c(F)c([H])c7F)c([H])c6[H])c(C(=O)N([H])[H])c5N([H])[H])C4([H])[H])nn3C([H])([H])[H])c([H])c([H])c2C1([H])[H]

$$$$
39:0:0
     RDKit          3D

 92100  0  0  1  0  0  0  0  0999 V2000
  -29.0470  -21.4560   17.4280 C   0  0  0  0  0  3  0  0  0  0  0  0
  -30.0530  -23.3340   18.0730 C   0  0  0  0  0  3  0  0  0  0  0  0
  -29.6760  -22.6410   16.9600 C   0  0  0  0  0  0  0  0  0  0  0  0
  -29.0520  -21.4530   18.7970 C   0  0  0  0  0  0  0  0  0  0  0  0
  -29.8920  -23.0540   15.5290 C   0  0  0  0  0  1  0  0  0  0  0  0
  -29.6060  -22.6680   19.2040 N   0  0  0  0  0  0  0  0  0  0  0  0
  -28.5700  -20.3590   19.7180 C   0  0  0  0  0  2  0  0  0  0  0  0
  -29.6840  -19.3410   20.0720 C   0  0  0  0  0  2  0  0  0  0  0  0
  -29.1860  -17.9290   20.4680 C   0  0  0  0  0  2  0  0  0  0  0  0
  -30.3530  -16.9450   20.7200 C   0  0  0  0  0  2  0  0  0  0  0  0
  -30.6560  -14.4910   20.4580 C   0  0  0  0  0  0  0  0  0  0  0  0
  -30.3560  -12.3460   19.2960 C   0  0  0  0  0  2  0  0  0  0  0  0
  -29.4150  -12.5810   18.0960 C   0  0  0  0  0  2  0  0  0  0  0  0
  -27.9400  -12.4430   18.5240 C   0  0  0  0  0  2  0  0  0  0  0  0
  -27.6060  -13.2540   19.8060 C   0  0  0  0  0  3  0  0  0  0  0  0
  -28.6640  -13.0150   20.9070 C   0  0  0  0  0  2  0  0  0  0  0  0
  -29.9840  -13.3160   20.3360 N   0  0  0  0  0  0  0  0  0  0  0  0
  -31.8080  -14.6470   20.0420 O   0  0  0  0  0  0  0  0  0  0  0  0
  -29.9230  -15.5450   20.8580 N   0  0  0  0  0  0  0  0  0  0  0  0
  -28.9770  -15.3640   21.1630 H   0  0  0  0  0  0  0  0  0  0  0  0
  -25.2060  -13.8490   20.5200 C   0  0  0  0  0  0  0  0  0  0  0  0
  -24.1430  -13.0700   20.8890 C   0  0  0  0  0  0  0  0  0  0  0  0
  -24.6100  -11.7190   20.8520 C   0  0  0  0  0  0  0  0  0  0  0  0
  -26.2550  -12.9710   20.2860 N   0  0  0  0  0  0  0  0  0  0  0  0
  -25.9010  -11.6860   20.5450 N   0  0  0  0  0  0  0  0  0  0  0  0
  -23.8900  -10.4530   21.0380 C   0  0  0  0  0  0  0  0  0  0  0  0
  -24.3170   -9.4940   21.9810 C   0  0  0  0  0  3  0  0  0  0  0  0
  -23.6010   -8.2900   22.1560 C   0  0  0  0  0  3  0  0  0  0  0  0
  -22.4400   -8.0390   21.3860 C   0  0  0  0  0  0  0  0  0  0  0  0
  -22.0310   -8.9860   20.4310 C   0  0  0  0  0  3  0  0  0  0  0  0
  -22.7500  -10.1810   20.2550 C   0  0  0  0  0  3  0  0  0  0  0  0
  -21.6960   -6.8880   21.4700 O   0  0  0  0  0  0  0  0  0  0  0  0
  -21.6300   -6.1550   22.6270 C   0  0  0  0  0  0  0  0  0  0  0  0
  -21.1530   -6.7090   23.8360 C   0  0  0  0  0  3  0  0  0  0  0  0
  -21.0350   -5.8980   24.9820 C   0  0  0  0  0  3  0  0  0  0  0  0
  -21.3840   -4.5350   24.9210 C   0  0  0  0  0  0  0  0  0  0  0  0
  -21.8510   -3.9810   23.7180 C   0  0  0  0  0  3  0  0  0  0  0  0
  -21.9700   -4.7880   22.5730 C   0  0  0  0  0  0  0  0  0  0  0  0
  -22.4010   -4.2430   21.4100 F   0  0  0  0  0  0  0  0  0  0  0  0
  -21.2620   -3.7550   26.0220 F   0  0  0  0  0  0  0  0  0  0  0  0
  -22.7430  -13.5350   21.1620 C   0  0  0  0  0  0  0  0  0  0  0  0
  -22.0170  -12.8260   22.0200 N   0  0  0  0  0  0  0  0  0  0  0  0
  -22.2990  -14.5610   20.6480 O   0  0  0  0  0  0  0  0  0  0  0  0
  -22.3930  -12.0000   22.4610 H   0  0  0  0  0  0  0  0  0  0  0  0
  -21.0750  -13.1150   22.2400 H   0  0  0  0  0  0  0  0  0  0  0  0
  -25.3620  -15.2210   20.3430 N   0  0  0  0  0  0  0  0  0  0  0  0
  -24.5810  -15.8620   20.4310 H   0  0  0  0  0  0  0  0  0  0  0  0
  -26.2010  -15.6650   19.9920 H   0  0  0  0  0  0  0  0  0  0  0  0
  -29.7630  -23.1690   20.5680 C   0  0  0  0  0  2  0  0  0  0  0  0
  -29.6270  -24.7100   20.7030 C   0  0  0  0  0  2  0  0  0  0  0  0
  -28.3600  -25.3280   20.0730 C   0  0  0  0  0  2  0  0  0  0  0  0
  -28.3930  -26.7440   20.2470 O   0  0  0  0  0  0  0  0  0  0  0  0
  -24.5370  -31.8720   23.2390 C   0  0  0  0  0  0  0  0  0  0  0  0
  -27.2020  -27.4340   20.1970 C   0  0  0  0  0  0  0  0  0  0  0  0
  -23.3400  -30.4720   21.5890 C   0  0  0  0  0  3  0  0  0  0  0  0
  -24.8020  -28.9290   20.1810 C   0  0  0  0  0  0  0  0  0  0  0  0
  -25.8660  -30.8290   21.4130 C   0  0  0  0  0  2  0  0  0  0  0  0
  -25.9530  -29.4610   20.7720 C   0  0  0  0  0  0  0  0  0  0  0  0
  -27.1540  -28.7200   20.7750 C   0  0  0  0  0  3  0  0  0  0  0  0
  -26.0300  -26.9130   19.5960 C   0  0  0  0  0  3  0  0  0  0  0  0
  -24.8320  -27.6530   19.5930 C   0  0  0  0  0  3  0  0  0  0  0  0
  -23.5590  -29.7860   20.2140 C   0  0  0  0  0  2  0  0  0  0  0  0
  -24.5970  -31.0730   22.1390 N   0  0  0  0  0  0  0  0  0  0  0  0
  -23.4530  -32.1480   23.7740 O   0  0  0  0  0  0  0  0  0  0  0  0
  -22.6800  -29.4530   22.5460 C   0  0  0  0  0  0  0  0  0  0  0  0
  -21.3580  -29.2670   22.4010 N   0  0  0  0  0  0  0  0  0  0  0  0
  -23.3540  -28.8320   23.3710 O   0  0  0  0  0  0  0  0  0  0  0  0
  -20.8750  -29.8130   21.7020 H   0  0  0  0  0  0  0  0  0  0  0  0
  -17.9820  -28.0700   22.8620 C   0  0  0  0  0  0  0  0  0  0  0  0
  -20.5350  -28.3320   23.1690 C   0  0  0  0  0  3  0  0  0  0  0  0
  -20.6490  -26.8970   22.6030 C   0  0  0  0  0  2  0  0  0  0  0  0
  -19.5640  -26.5680   21.5740 C   0  0  0  0  0  2  0  0  0  0  0  0
  -18.1720  -26.7170   22.1950 C   0  0  0  0  0  2  0  0  0  0  0  0
  -19.0940  -28.8340   23.3050 C   0  0  0  0  0  0  0  0  0  0  0  0
  -18.8670  -30.1000   23.8860 C   0  0  0  0  0  3  0  0  0  0  0  0
  -17.5610  -30.6050   24.0280 C   0  0  0  0  0  3  0  0  0  0  0  0
  -16.4630  -29.8370   23.6040 C   0  0  0  0  0  3  0  0  0  0  0  0
  -16.6740  -28.5710   23.0280 C   0  0  0  0  0  3  0  0  0  0  0  0
  -25.8230  -32.5010   23.8630 C   0  0  0  0  0  3  0  0  0  0  0  0
  -25.5230  -33.9040   24.1760 N   0  0  0  0  0  0  0  0  0  0  0  0
  -25.8790  -34.9460   23.4140 C   0  0  0  0  0  0  0  0  0  0  0  0
  -26.5680  -34.8270   22.3960 O   0  0  0  0  0  0  0  0  0  0  0  0
  -24.9170  -34.0720   24.9650 H   0  0  0  0  0  0  0  0  0  0  0  0
  -24.1840  -36.7550   22.9980 C   0  0  0  0  0  1  0  0  0  0  0  0
  -25.3930  -36.3410   23.8500 C   0  0  0  0  0  3  0  0  0  0  0  0
  -27.5060  -37.2070   24.7510 C   0  0  0  0  0  1  0  0  0  0  0  0
  -26.4410  -37.3820   23.7690 N   0  0  0  0  0  0  0  0  0  0  0  0
  -26.0390  -38.3070   23.9000 H   0  0  0  0  0  0  0  0  0  0  0  0
  -26.3260  -31.7390   25.1500 C   0  0  1  0  0  0  0  0  0  0  0  0
  -25.2210  -31.5190   26.2080 C   0  0  0  0  0  1  0  0  0  0  0  0
  -26.9060  -30.3560   24.7770 C   0  0  0  0  0  1  0  0  0  0  0  0
  -27.4720  -32.5350   25.8170 C   0  0  0  0  0  1  0  0  0  0  0  0
  1  4  2  0
  2  6  1  0
  3  1  1  0
  3  2  2  0
  4  6  1  0
  4  7  1  0
  5  3  1  0
  6 49  1  0
  7  8  1  0
  8  9  1  0
  9 10  1  0
 10 19  1  0
 11 19  1  0
 12 17  1  0
 13 14  1  0
 13 12  1  0
 15 14  1  0
 15 24  1  0
 15 16  1  0
 17 11  1  0
 17 16  1  0
 18 11  2  0
 19 20  1  0
 21 22  2  0
 22 41  1  0
 23 22  1  0
 23 26  1  0
 24 21  1  0
 24 25  1  0
 25 23  2  0
 26 27  1  0
 27 28  2  0
 29 32  1  0
 29 28  1  0
 30 29  2  0
 31 30  1  0
 31 26  2  0
 32 33  1  0
 33 34  1  0
 34 35  2  0
 36 35  1  0
 36 40  1  0
 37 36  2  0
 38 33  2  0
 38 37  1  0
 39 38  1  0
 41 42  1  0
 42 45  1  0
 42 44  1  0
 43 41  2  0
 46 47  1  0
 46 21  1  0
 48 46  1  0
 49 50  1  0
 51 52  1  0
 51 50  1  0
 53 64  2  0
 54 52  1  0
 54 59  1  0
 55 63  1  0
 55 65  1  0
 56 62  1  0
 56 58  1  0
 57 63  1  0
 58 59  2  0
 58 57  1  0
 60 54  2  0
 61 60  1  0
 61 56  2  0
 62 55  1  0
 63 53  1  0
 65 67  2  0
 66 65  1  0
 68 66  1  0
 69 78  2  0
 69 74  1  0
 70 66  1  0
 70 74  1  0
 71 70  1  0
 72 73  1  0
 72 71  1  0
 73 69  1  0
 74 75  2  0
 75 76  1  0
 77 76  2  0
 78 77  1  0
 79 53  1  0
 79 80  1  0
 79 89  1  0
 80 83  1  0
 81 85  1  0
 81 80  1  0
 82 81  2  0
 85 84  1  0
 87 85  1  0
 87 88  1  0
 87 86  1  0
 89 92  1  1
 89 90  1  0
 91 89  1  0
M  ISO  4  11 100  19 100  51 101  52 101
M  END
>  <TORSDO>  (40) 
F 23

>  <SCORE>  (40) 
-12.788

>  <name>  (40) 
39

>  <ligand_id>  (40) 
39

>  <original_smiles>  (40) 
[H]c1c([H])c([H])c2c(c1[H])C([H])([H])C([H])([H])C([H])([H])C2([H])N([H])C(=O)C1([H])N(C(=O)C([H])(N([H])C(=O)C([H])(N([H])C([H])([H])[H])C([H])([H])[H])C(C([H])([H])[H])(C([H])([H])[H])C([H])([H])[H])C([H])([H])c2c([H])c(OC([H])([H])C([H])([H])C([H])([H])n3c([H])c(C([H])([H])[H])c([H])c3C([H])([H])C([H])([H])C([H])([H])C([H])([H])N([H])C(=O)N3C([H])([H])C([H])([H])C([H])([H])C([H])(n4nc(-c5c([H])c([H])c(Oc6c([H])c([H])c(F)c([H])c6F)c([H])c5[H])c(C(=O)N([H])[H])c4N([H])[H])C3([H])[H])c([H])c([H])c2C1([H])[H]

>  <smiles>  (40) 
[H]c1c([H])c([H])c2c(c1[H])C([H])([H])C([H])([H])C([H])([H])C2([H])N([H])C(=O)C1([H])N(C(=O)C([H])(N([H])C(=O)C([H])(N([H])C([H])([H])[H])C([H])([H])[H])C(C([H])([H])[H])(C([H])([H])[H])C([H])([H])[H])C([H])([H])c2c([H])c(OC([H])([H])C([H])([H])C([H])([H])n3c([H])c(C([H])([H])[H])c([H])c3C([H])([H])C([H])([H])C([H])([H])C([H])([H])N([H])C(=O)N3C([H])([H])C([H])([H])C([H])([H])C([H])(n4nc(-c5c([H])c([H])c(Oc6c([H])c([H])c(F)c([H])c6F)c([H])c5[H])c(C(=O)N([H])[H])c4N([H])[H])C3([H])[H])c([H])c([H])c2C1([H])[H]

$$$$
40:0:0
     RDKit          3D

 92100  0  0  1  0  0  0  0  0999 V2000
  -28.1070  -20.2160   20.1820 C   0  0  0  0  0  3  0  0  0  0  0  0
  -28.3220  -22.4660   19.2680 C   0  0  0  0  0  3  0  0  0  0  0  0
  -30.1120  -21.5290   20.6240 C   0  0  0  0  0  3  0  0  0  0  0  0
  -27.5800  -21.2810   19.4220 C   0  0  0  0  0  0  0  0  0  0  0  0
  -29.3860  -20.3280   20.7670 C   0  0  0  0  0  0  0  0  0  0  0  0
  -29.5910  -22.6040   19.8710 C   0  0  0  0  0  0  0  0  0  0  0  0
  -26.2350  -21.1580   18.7360 C   0  0  0  0  0  1  0  0  0  0  0  0
  -29.9980  -19.1680   21.5280 C   0  0  0  0  0  2  0  0  0  0  0  0
  -30.1500  -17.8840   20.6900 C   0  0  0  0  0  2  0  0  0  0  0  0
  -31.2420  -16.9790   21.3010 C   0  0  0  0  0  2  0  0  0  0  0  0
  -31.7860  -14.5760   20.6820 C   0  0  0  0  0  0  0  0  0  0  0  0
  -31.6580  -12.2030   19.9710 C   0  0  0  0  0  2  0  0  0  0  0  0
  -30.8340  -12.1100   18.6720 C   0  0  0  0  0  2  0  0  0  0  0  0
  -29.3200  -12.0850   18.9680 C   0  0  0  0  0  2  0  0  0  0  0  0
  -28.8770  -13.1900   19.9660 C   0  0  0  0  0  3  0  0  0  0  0  0
  -29.7860  -13.1720   21.2060 C   0  0  0  0  0  2  0  0  0  0  0  0
  -31.1690  -13.3710   20.7280 N   0  0  0  0  0  0  0  0  0  0  0  0
  -32.9310  -14.7590   20.2480 O   0  0  0  0  0  0  0  0  0  0  0  0
  -30.9750  -15.5700   21.0760 N   0  0  0  0  0  0  0  0  0  0  0  0
  -30.0460  -15.2380   21.3110 H   0  0  0  0  0  0  0  0  0  0  0  0
  -26.5040  -14.0510   20.4850 C   0  0  0  0  0  0  0  0  0  0  0  0
  -25.3440  -13.3870   20.7720 C   0  0  0  0  0  0  0  0  0  0  0  0
  -25.6780  -11.9990   20.7970 C   0  0  0  0  0  0  0  0  0  0  0  0
  -27.4780  -13.0690   20.3380 N   0  0  0  0  0  0  0  0  0  0  0  0
  -26.9780  -11.8360   20.5840 N   0  0  0  0  0  0  0  0  0  0  0  0
  -24.8320  -10.8120   20.9440 C   0  0  0  0  0  0  0  0  0  0  0  0
  -25.0660   -9.8530   21.9560 C   0  0  0  0  0  3  0  0  0  0  0  0
  -24.2220   -8.7270   22.0830 C   0  0  0  0  0  3  0  0  0  0  0  0
  -23.1330   -8.5520   21.1950 C   0  0  0  0  0  0  0  0  0  0  0  0
  -22.9160   -9.4990   20.1770 C   0  0  0  0  0  3  0  0  0  0  0  0
  -23.7600  -10.6160   20.0490 C   0  0  0  0  0  3  0  0  0  0  0  0
  -22.2790   -7.4750   21.2290 O   0  0  0  0  0  0  0  0  0  0  0  0
  -21.9490   -6.8540   22.4050 C   0  0  0  0  0  0  0  0  0  0  0  0
  -21.3190   -7.5460   23.4630 C   0  0  0  0  0  3  0  0  0  0  0  0
  -20.9310   -6.8540   24.6240 C   0  0  0  0  0  3  0  0  0  0  0  0
  -21.1640   -5.4730   24.7330 C   0  0  0  0  0  0  0  0  0  0  0  0
  -21.7870   -4.7770   23.6830 C   0  0  0  0  0  3  0  0  0  0  0  0
  -22.1750   -5.4650   22.5190 C   0  0  0  0  0  0  0  0  0  0  0  0
  -22.7560   -4.7900   21.4970 F   0  0  0  0  0  0  0  0  0  0  0  0
  -20.7850   -4.8020   25.8480 F   0  0  0  0  0  0  0  0  0  0  0  0
  -23.9830  -13.9950   20.9310 C   0  0  0  0  0  0  0  0  0  0  0  0
  -23.1430  -13.4160   21.7800 N   0  0  0  0  0  0  0  0  0  0  0  0
  -23.6700  -15.0240   20.3310 O   0  0  0  0  0  0  0  0  0  0  0  0
  -23.4080  -12.5850   22.2910 H   0  0  0  0  0  0  0  0  0  0  0  0
  -22.2250  -13.8130   21.9210 H   0  0  0  0  0  0  0  0  0  0  0  0
  -26.8080  -15.3970   20.3100 N   0  0  0  0  0  0  0  0  0  0  0  0
  -26.0900  -16.1090   20.3770 H   0  0  0  0  0  0  0  0  0  0  0  0
  -27.7020  -15.7700   20.0280 H   0  0  0  0  0  0  0  0  0  0  0  0
  -30.4100  -23.8820   19.7220 C   0  0  0  0  0  2  0  0  0  0  0  0
  -29.7800  -24.9330   18.7820 C   0  0  0  0  0  2  0  0  0  0  0  0
  -30.4370  -26.3170   18.8620 C   0  0  0  0  0  2  0  0  0  0  0  0
  -29.7540  -27.2060   17.9860 O   0  0  0  0  0  0  0  0  0  0  0  0
  -25.5110  -28.8310   23.4410 C   0  0  0  0  0  0  0  0  0  0  0  0
  -28.4990  -27.5630   18.4010 C   0  0  0  0  0  0  0  0  0  0  0  0
  -24.3800  -28.4830   21.2660 C   0  0  0  0  0  3  0  0  0  0  0  0
  -25.9160  -28.3190   19.2340 C   0  0  0  0  0  0  0  0  0  0  0  0
  -26.7960  -29.3040   21.3610 C   0  0  0  0  0  2  0  0  0  0  0  0
  -27.0220  -28.5910   20.0490 C   0  0  0  0  0  0  0  0  0  0  0  0
  -28.3170  -28.2140   19.6360 C   0  0  0  0  0  3  0  0  0  0  0  0
  -27.3840  -27.3050   17.5820 C   0  0  0  0  0  3  0  0  0  0  0  0
  -26.0860  -27.6690   17.9970 C   0  0  0  0  0  3  0  0  0  0  0  0
  -24.5690  -28.7750   19.7520 C   0  0  0  0  0  2  0  0  0  0  0  0
  -25.5810  -28.8540   22.0800 N   0  0  0  0  0  0  0  0  0  0  0  0
  -24.4550  -28.5440   24.0190 O   0  0  0  0  0  0  0  0  0  0  0  0
  -23.9640  -27.0030   21.4280 C   0  0  0  0  0  0  0  0  0  0  0  0
  -22.7470  -26.6690   20.9630 N   0  0  0  0  0  0  0  0  0  0  0  0
  -24.7340  -26.1790   21.9290 O   0  0  0  0  0  0  0  0  0  0  0  0
  -22.1660  -27.4100   20.5910 H   0  0  0  0  0  0  0  0  0  0  0  0
  -19.9260  -24.7250   19.8290 C   0  0  0  0  0  0  0  0  0  0  0  0
  -22.1610  -25.3300   20.9740 C   0  0  0  0  0  3  0  0  0  0  0  0
  -22.8300  -24.4220   19.9150 C   0  0  0  0  0  2  0  0  0  0  0  0
  -22.1000  -24.4220   18.5670 C   0  0  0  0  0  2  0  0  0  0  0  0
  -20.6540  -23.9490   18.7450 C   0  0  0  0  0  2  0  0  0  0  0  0
  -20.6340  -25.3840   20.8660 C   0  0  0  0  0  0  0  0  0  0  0  0
  -19.9130  -26.1230   21.8300 C   0  0  0  0  0  3  0  0  0  0  0  0
  -18.5100  -26.2030   21.7700 C   0  0  0  0  0  3  0  0  0  0  0  0
  -17.8100  -25.5350   20.7510 C   0  0  0  0  0  3  0  0  0  0  0  0
  -18.5170  -24.7960   19.7840 C   0  0  0  0  0  3  0  0  0  0  0  0
  -26.7460  -29.1740   24.3310 C   0  0  0  0  0  3  0  0  0  0  0  0
  -26.4040  -30.3630   25.1240 N   0  0  0  0  0  0  0  0  0  0  0  0
  -26.9310  -31.5810   24.9320 C   0  0  0  0  0  0  0  0  0  0  0  0
  -27.8240  -31.8050   24.1090 O   0  0  0  0  0  0  0  0  0  0  0  0
  -25.6390  -30.2630   25.7740 H   0  0  0  0  0  0  0  0  0  0  0  0
  -25.4740  -33.6300   24.9330 C   0  0  0  0  0  1  0  0  0  0  0  0
  -26.3820  -32.7350   25.7920 C   0  0  0  0  0  3  0  0  0  0  0  0
  -28.1830  -32.8480   27.4570 C   0  0  0  0  0  1  0  0  0  0  0  0
  -27.4420  -33.5550   26.4180 N   0  0  0  0  0  0  0  0  0  0  0  0
  -27.0530  -34.4020   26.8250 H   0  0  0  0  0  0  0  0  0  0  0  0
  -27.1910  -27.9850   25.2700 C   0  0  1  0  0  0  0  0  0  0  0  0
  -26.0400  -27.4040   26.1230 C   0  0  0  0  0  1  0  0  0  0  0  0
  -27.7890  -26.8270   24.4350 C   0  0  0  0  0  1  0  0  0  0  0  0
  -28.3020  -28.4610   26.2310 C   0  0  0  0  0  1  0  0  0  0  0  0
  1  5  1  0
  2  4  1  0
  2  6  2  0
  3  5  2  0
  4  1  2  0
  5  8  1  0
  6  3  1  0
  7  4  1  0
  9 10  1  0
  9  8  1  0
 11 17  1  0
 11 19  1  0
 12 17  1  0
 13 14  1  0
 13 12  1  0
 15 14  1  0
 15 24  1  0
 15 16  1  0
 17 16  1  0
 18 11  2  0
 19 10  1  0
 19 20  1  0
 21 22  2  0
 22 23  1  0
 22 41  1  0
 23 26  1  0
 24 21  1  0
 24 25  1  0
 25 23  2  0
 26 27  1  0
 27 28  2  0
 29 32  1  0
 29 28  1  0
 30 29  2  0
 31 30  1  0
 31 26  2  0
 32 33  1  0
 33 38  2  0
 33 34  1  0
 34 35  2  0
 35 36  1  0
 36 40  1  0
 37 36  2  0
 38 37  1  0
 39 38  1  0
 41 42  1  0
 42 45  1  0
 42 44  1  0
 43 41  2  0
 46 47  1  0
 46 21  1  0
 48 46  1  0
 49  6  1  0
 50 51  1  0
 50 49  1  0
 52 54  1  0
 52 51  1  0
 53 64  2  0
 54 59  1  0
 55 65  1  0
 55 63  1  0
 56 62  1  0
 56 58  1  0
 57 63  1  0
 58 57  1  0
 59 58  2  0
 60 61  1  0
 60 54  2  0
 61 56  2  0
 62 55  1  0
 63 53  1  0
 65 67  2  0
 66 65  1  0
 68 66  1  0
 69 74  1  0
 70 66  1  0
 71 70  1  0
 72 73  1  0
 72 71  1  0
 73 69  1  0
 74 70  1  0
 74 75  2  0
 76 75  1  0
 77 76  2  0
 78 69  2  0
 78 77  1  0
 79 53  1  0
 79 80  1  0
 79 89  1  0
 80 83  1  0
 81 80  1  0
 81 85  1  0
 82 81  2  0
 85 84  1  0
 85 87  1  0
 87 88  1  0
 87 86  1  0
 89 90  1  1
 89 92  1  0
 91 89  1  0
M  ISO  4  11 100  19 100  51 101  52 101
M  END
>  <TORSDO>  (41) 
F 22

>  <SCORE>  (41) 
-8.506

>  <name>  (41) 
40

>  <ligand_id>  (41) 
40

>  <original_smiles>  (41) 
[H]c1c([H])c([H])c2c(c1[H])C([H])([H])C([H])([H])C([H])([H])C2([H])N([H])C(=O)C1([H])N(C(=O)C([H])(N([H])C(=O)C([H])(N([H])C([H])([H])[H])C([H])([H])[H])C(C([H])([H])[H])(C([H])([H])[H])C([H])([H])[H])C([H])([H])c2c([H])c(OC([H])([H])C([H])([H])C([H])([H])c3c([H])c(C([H])([H])[H])c([H])c(C([H])([H])C([H])([H])C([H])([H])N([H])C(=O)N4C([H])([H])C([H])([H])C([H])([H])C([H])(n5nc(-c6c([H])c([H])c(Oc7c([H])c([H])c(F)c([H])c7F)c([H])c6[H])c(C(=O)N([H])[H])c5N([H])[H])C4([H])[H])c3[H])c([H])c([H])c2C1([H])[H]

>  <smiles>  (41) 
[H]c1c([H])c([H])c2c(c1[H])C([H])([H])C([H])([H])C([H])([H])C2([H])N([H])C(=O)C1([H])N(C(=O)C([H])(N([H])C(=O)C([H])(N([H])C([H])([H])[H])C([H])([H])[H])C(C([H])([H])[H])(C([H])([H])[H])C([H])([H])[H])C([H])([H])c2c([H])c(OC([H])([H])C([H])([H])C([H])([H])c3c([H])c(C([H])([H])[H])c([H])c(C([H])([H])C([H])([H])C([H])([H])N([H])C(=O)N4C([H])([H])C([H])([H])C([H])([H])C([H])(n5nc(-c6c([H])c([H])c(Oc7c([H])c([H])c(F)c([H])c7F)c([H])c6[H])c(C(=O)N([H])[H])c5N([H])[H])C4([H])[H])c3[H])c([H])c([H])c2C1([H])[H]

$$$$
41:0:0
     RDKit          3D

 95103  0  0  1  0  0  0  0  0999 V2000
  -30.1930  -23.7100   22.4170 C   0  0  0  0  0  3  0  0  0  0  0  0
  -29.6580  -22.8340   20.2030 C   0  0  0  0  0  3  0  0  0  0  0  0
  -29.6380  -21.3540   22.1490 C   0  0  0  0  0  3  0  0  0  0  0  0
  -30.0130  -23.9180   21.0350 C   0  0  0  0  0  0  0  0  0  0  0  0
  -30.0220  -22.4270   22.9770 C   0  0  0  0  0  0  0  0  0  0  0  0
  -29.4580  -21.5550   20.7650 C   0  0  0  0  0  0  0  0  0  0  0  0
  -29.6720  -23.3730   25.2780 C   0  0  0  0  0  1  0  0  0  0  0  0
  -31.7060  -21.9100   24.7970 C   0  0  0  0  0  1  0  0  0  0  0  0
  -30.2330  -22.1980   24.4640 C   0  0  0  0  0  3  0  0  0  0  0  0
  -29.1050  -20.4720   19.9630 N   0  0  0  0  0  0  0  0  0  0  0  0
  -28.4070  -19.8860   20.4140 H   0  0  0  0  0  0  0  0  0  0  0  0
  -30.2750  -19.6890   19.5950 C   0  0  0  0  0  2  0  0  0  0  0  0
  -29.9550  -18.1890   19.5970 C   0  0  0  0  0  2  0  0  0  0  0  0
  -31.2220  -17.3220   19.6180 C   0  0  0  0  0  2  0  0  0  0  0  0
  -31.6170  -14.8620   19.5890 C   0  0  0  0  0  0  0  0  0  0  0  0
  -31.3380  -12.4980   18.9740 C   0  0  0  0  0  2  0  0  0  0  0  0
  -30.3420  -12.4070   17.8000 C   0  0  0  0  0  2  0  0  0  0  0  0
  -28.8790  -12.3900   18.2930 C   0  0  0  0  0  2  0  0  0  0  0  0
  -28.5780  -13.4910   19.3440 C   0  0  0  0  0  3  0  0  0  0  0  0
  -29.6730  -13.5040   20.4350 C   0  0  0  0  0  2  0  0  0  0  0  0
  -30.9760  -13.6790   19.7680 N   0  0  0  0  0  0  0  0  0  0  0  0
  -32.7120  -14.9740   19.0340 O   0  0  0  0  0  0  0  0  0  0  0  0
  -30.8870  -15.9340   19.9210 N   0  0  0  0  0  0  0  0  0  0  0  0
  -29.9790  -15.7430   20.3150 H   0  0  0  0  0  0  0  0  0  0  0  0
  -26.3180  -14.3070   20.2840 C   0  0  0  0  0  0  0  0  0  0  0  0
  -25.2000  -13.6320   20.6950 C   0  0  0  0  0  0  0  0  0  0  0  0
  -25.5020  -12.2440   20.5440 C   0  0  0  0  0  0  0  0  0  0  0  0
  -27.2390  -13.3360   19.9170 N   0  0  0  0  0  0  0  0  0  0  0  0
  -26.7520  -12.0870   20.1280 N   0  0  0  0  0  0  0  0  0  0  0  0
  -24.6560  -11.0570   20.7200 C   0  0  0  0  0  0  0  0  0  0  0  0
  -24.9870  -10.0430   21.6450 C   0  0  0  0  0  3  0  0  0  0  0  0
  -24.1480   -8.9190   21.8080 C   0  0  0  0  0  3  0  0  0  0  0  0
  -22.9620   -8.8030   21.0450 C   0  0  0  0  0  0  0  0  0  0  0  0
  -22.6470   -9.8040   20.1090 C   0  0  0  0  0  3  0  0  0  0  0  0
  -23.4870  -10.9190   19.9440 C   0  0  0  0  0  3  0  0  0  0  0  0
  -22.1000   -7.7330   21.1180 O   0  0  0  0  0  0  0  0  0  0  0  0
  -21.8890   -7.0580   22.2930 C   0  0  0  0  0  0  0  0  0  0  0  0
  -21.3910   -7.7050   23.4440 C   0  0  0  0  0  3  0  0  0  0  0  0
  -21.1220   -6.9600   24.6090 C   0  0  0  0  0  3  0  0  0  0  0  0
  -21.3420   -5.5690   24.6230 C   0  0  0  0  0  0  0  0  0  0  0  0
  -21.8330   -4.9230   23.4760 C   0  0  0  0  0  3  0  0  0  0  0  0
  -22.1030   -5.6640   22.3130 C   0  0  0  0  0  0  0  0  0  0  0  0
  -22.5570   -5.0320   21.2030 F   0  0  0  0  0  0  0  0  0  0  0  0
  -21.0780   -4.8520   25.7400 F   0  0  0  0  0  0  0  0  0  0  0  0
  -23.8880  -14.2360   21.1110 C   0  0  0  0  0  0  0  0  0  0  0  0
  -23.1670  -13.5750   22.0100 N   0  0  0  0  0  0  0  0  0  0  0  0
  -23.5180  -15.3240   20.6730 O   0  0  0  0  0  0  0  0  0  0  0  0
  -23.4820  -12.6950   22.3880 H   0  0  0  0  0  0  0  0  0  0  0  0
  -22.2840  -13.9560   22.3210 H   0  0  0  0  0  0  0  0  0  0  0  0
  -26.6200  -15.6620   20.1710 N   0  0  0  0  0  0  0  0  0  0  0  0
  -25.9460  -16.3880   20.3930 H   0  0  0  0  0  0  0  0  0  0  0  0
  -27.4800  -16.0260   19.7810 H   0  0  0  0  0  0  0  0  0  0  0  0
  -30.1420  -25.3250   20.4790 C   0  0  0  0  0  2  0  0  0  0  0  0
  -28.7580  -25.9410   20.2640 C   0  0  0  0  0  2  0  0  0  0  0  0
  -28.8450  -27.3200   19.9050 O   0  0  0  0  0  0  0  0  0  0  0  0
  -24.6830  -31.8600   23.4380 C   0  0  0  0  0  0  0  0  0  0  0  0
  -27.6300  -27.9600   19.9520 C   0  0  0  0  0  0  0  0  0  0  0  0
  -23.5690  -30.5040   21.6950 C   0  0  0  0  0  3  0  0  0  0  0  0
  -25.1200  -29.2290   20.1270 C   0  0  0  0  0  0  0  0  0  0  0  0
  -26.0510  -31.1020   21.4990 C   0  0  0  0  0  2  0  0  0  0  0  0
  -26.2400  -29.8070   20.7380 C   0  0  0  0  0  0  0  0  0  0  0  0
  -27.5020  -29.1790   20.6460 C   0  0  0  0  0  3  0  0  0  0  0  0
  -26.4940  -27.3930   19.3330 C   0  0  0  0  0  3  0  0  0  0  0  0
  -25.2390  -28.0190   19.4250 C   0  0  0  0  0  3  0  0  0  0  0  0
  -23.8060  -29.9670   20.2590 C   0  0  0  0  0  2  0  0  0  0  0  0
  -24.7860  -31.1640   22.2700 N   0  0  0  0  0  0  0  0  0  0  0  0
  -23.5920  -31.9890   24.0100 O   0  0  0  0  0  0  0  0  0  0  0  0
  -23.0270  -29.3500   22.5690 C   0  0  0  0  0  0  0  0  0  0  0  0
  -21.7530  -28.9870   22.3560 N   0  0  0  0  0  0  0  0  0  0  0  0
  -23.7530  -28.7860   23.3940 O   0  0  0  0  0  0  0  0  0  0  0  0
  -21.2220  -29.5050   21.6690 H   0  0  0  0  0  0  0  0  0  0  0  0
  -18.6020  -27.2280   22.5130 C   0  0  0  0  0  0  0  0  0  0  0  0
  -21.0410  -27.9040   23.0340 C   0  0  0  0  0  3  0  0  0  0  0  0
  -21.4400  -26.5260   22.4580 C   0  0  0  0  0  2  0  0  0  0  0  0
  -20.5100  -26.0490   21.3390 C   0  0  0  0  0  2  0  0  0  0  0  0
  -19.0690  -25.9460   21.8450 C   0  0  0  0  0  2  0  0  0  0  0  0
  -19.5300  -28.1560   23.0570 C   0  0  0  0  0  0  0  0  0  0  0  0
  -19.0470  -29.3510   23.6310 C   0  0  0  0  0  3  0  0  0  0  0  0
  -17.6660  -29.6220   23.6740 C   0  0  0  0  0  3  0  0  0  0  0  0
  -16.7500  -28.6930   23.1490 C   0  0  0  0  0  3  0  0  0  0  0  0
  -17.2200  -27.4980   22.5730 C   0  0  0  0  0  3  0  0  0  0  0  0
  -25.9220  -32.5430   24.0940 C   0  0  0  0  0  3  0  0  0  0  0  0
  -25.5690  -33.9460   24.3470 N   0  0  0  0  0  0  0  0  0  0  0  0
  -25.9530  -34.9760   23.5820 C   0  0  0  0  0  0  0  0  0  0  0  0
  -26.7120  -34.8480   22.6160 O   0  0  0  0  0  0  0  0  0  0  0  0
  -24.9080  -34.1200   25.0890 H   0  0  0  0  0  0  0  0  0  0  0  0
  -24.2470  -36.7300   23.0060 C   0  0  0  0  0  1  0  0  0  0  0  0
  -25.4080  -36.3700   23.9460 C   0  0  0  0  0  3  0  0  0  0  0  0
  -27.4430  -37.3090   24.9490 C   0  0  0  0  0  1  0  0  0  0  0  0
  -26.4360  -37.4330   23.8990 N   0  0  0  0  0  0  0  0  0  0  0  0
  -26.0080  -38.3510   23.9780 H   0  0  0  0  0  0  0  0  0  0  0  0
  -26.3880  -31.8360   25.4260 C   0  0  1  0  0  0  0  0  0  0  0  0
  -25.2410  -31.5850   26.4320 C   0  0  0  0  0  1  0  0  0  0  0  0
  -27.0550  -30.4760   25.1160 C   0  0  0  0  0  1  0  0  0  0  0  0
  -27.4570  -32.7030   26.1340 C   0  0  0  0  0  1  0  0  0  0  0  0
  1  5  1  0
  2  6  2  0
  2  4  1  0
  3  5  2  0
  4  1  2  0
  5  9  1  0
  6  3  1  0
  9  8  1  0
  9  7  1  0
 10 11  1  0
 10  6  1  0
 12 13  1  0
 12 10  1  0
 13 14  1  0
 14 23  1  0
 15 21  1  0
 15 23  1  0
 16 21  1  0
 17 18  1  0
 17 16  1  0
 19 18  1  0
 19 28  1  0
 19 20  1  0
 21 20  1  0
 22 15  2  0
 23 24  1  0
 25 26  2  0
 26 45  1  0
 27 26  1  0
 27 30  1  0
 28 29  1  0
 28 25  1  0
 29 27  2  0
 30 31  1  0
 31 32  2  0
 33 36  1  0
 33 32  1  0
 34 33  2  0
 35 34  1  0
 35 30  2  0
 36 37  1  0
 37 42  2  0
 37 38  1  0
 38 39  2  0
 39 40  1  0
 40 44  1  0
 41 40  2  0
 42 41  1  0
 43 42  1  0
 45 46  1  0
 46 49  1  0
 46 48  1  0
 47 45  2  0
 50 25  1  0
 50 51  1  0
 52 50  1  0
 53  4  1  0
 54 53  1  0
 55 57  1  0
 55 54  1  0
 56 67  2  0
 57 62  1  0
 58 66  1  0
 58 68  1  0
 59 65  1  0
 59 61  1  0
 60 66  1  0
 61 60  1  0
 62 61  2  0
 63 64  1  0
 63 57  2  0
 64 59  2  0
 65 58  1  0
 66 56  1  0
 68 70  2  0
 69 68  1  0
 71 69  1  0
 72 81  2  0
 72 77  1  0
 73 69  1  0
 73 77  1  0
 74 73  1  0
 75 76  1  0
 75 74  1  0
 76 72  1  0
 77 78  2  0
 78 79  1  0
 80 79  2  0
 81 80  1  0
 82 56  1  0
 82 83  1  0
 82 92  1  0
 83 86  1  0
 84 88  1  0
 84 83  1  0
 85 84  2  0
 88 87  1  0
 90 88  1  0
 90 91  1  0
 90 89  1  0
 92 95  1  1
 92 93  1  0
 94 92  1  0
M  ISO  4  15 100  23 100  54 101  55 101
M  END
>  <TORSDO>  (42) 
F 23

>  <SCORE>  (42) 
-9.990

>  <name>  (42) 
41

>  <ligand_id>  (42) 
41

>  <original_smiles>  (42) 
[H]c1c([H])c([H])c2c(c1[H])C([H])([H])C([H])([H])C([H])([H])C2([H])N([H])C(=O)C1([H])N(C(=O)C([H])(N([H])C(=O)C([H])(N([H])C([H])([H])[H])C([H])([H])[H])C(C([H])([H])[H])(C([H])([H])[H])C([H])([H])[H])C([H])([H])c2c([H])c(OC([H])([H])C([H])([H])c3c([H])c(N([H])C([H])([H])C([H])([H])C([H])([H])N([H])C(=O)N4C([H])([H])C([H])([H])C([H])([H])C([H])(n5nc(-c6c([H])c([H])c(Oc7c([H])c([H])c(F)c([H])c7F)c([H])c6[H])c(C(=O)N([H])[H])c5N([H])[H])C4([H])[H])c([H])c(C([H])(C([H])([H])[H])C([H])([H])[H])c3[H])c([H])c([H])c2C1([H])[H]

>  <smiles>  (42) 
[H]c1c([H])c([H])c2c(c1[H])C([H])([H])C([H])([H])C([H])([H])C2([H])N([H])C(=O)C1([H])N(C(=O)C([H])(N([H])C(=O)C([H])(N([H])C([H])([H])[H])C([H])([H])[H])C(C([H])([H])[H])(C([H])([H])[H])C([H])([H])[H])C([H])([H])c2c([H])c(OC([H])([H])C([H])([H])c3c([H])c(N([H])C([H])([H])C([H])([H])C([H])([H])N([H])C(=O)N4C([H])([H])C([H])([H])C([H])([H])C([H])(n5nc(-c6c([H])c([H])c(Oc7c([H])c([H])c(F)c([H])c7F)c([H])c6[H])c(C(=O)N([H])[H])c5N([H])[H])C4([H])[H])c([H])c(C([H])(C([H])([H])[H])C([H])([H])[H])c3[H])c([H])c([H])c2C1([H])[H]

$$$$
42:0:0
     RDKit          3D

 95103  0  0  1  0  0  0  0  0999 V2000
  -31.2180  -29.6440    9.2710 C   0  0  0  0  0  3  0  0  0  0  0  0
  -32.3740  -28.8350    9.2670 C   0  0  0  0  0  0  0  0  0  0  0  0
  -32.1390  -27.4590    9.1340 C   0  0  0  0  0  0  0  0  0  0  0  0
  -30.0020  -29.0320    8.9170 C   0  0  0  0  0  0  0  0  0  0  0  0
  -31.0350  -27.0610    8.3400 C   0  0  0  0  0  0  0  0  0  0  0  0
  -33.7740  -29.4330    9.3780 C   0  0  0  0  0  1  0  0  0  0  0  0
  -30.9840  -25.7020    7.6720 C   0  0  0  0  0  1  0  0  0  0  0  0
  -29.9350  -27.8410    8.2750 N   0  0  0  0  0  0  0  0  0  0  0  0
  -32.5280  -26.5070   10.2760 C   0  0  0  0  0  2  0  0  0  0  0  0
  -33.9630  -25.8800   10.0310 C   0  0  0  0  0  2  0  0  0  0  0  0
  -34.5670  -25.2460   11.3080 C   0  0  0  0  0  2  0  0  0  0  0  0
  -33.8710  -25.5430   12.6840 C   0  0  0  0  0  2  0  0  0  0  0  0
  -33.1570  -24.4270   13.2670 O   0  0  0  0  0  0  0  0  0  0  0  0
  -32.3290  -20.9290   19.3600 C   0  0  0  0  0  0  0  0  0  0  0  0
  -33.8130  -23.6900   14.2330 C   0  0  0  0  0  0  0  0  0  0  0  0
  -34.6480  -21.6010   18.8230 C   0  0  0  0  0  3  0  0  0  0  0  0
  -35.0240  -22.4300   16.4440 C   0  0  0  0  0  0  0  0  0  0  0  0
  -32.9650  -21.1230   16.9630 C   0  0  0  0  0  2  0  0  0  0  0  0
  -33.7090  -22.1100   16.0960 C   0  0  0  0  0  0  0  0  0  0  0  0
  -33.1060  -22.7130   14.9700 C   0  0  0  0  0  3  0  0  0  0  0  0
  -35.1710  -23.9320   14.5500 C   0  0  0  0  0  3  0  0  0  0  0  0
  -35.7590  -23.3500   15.6830 C   0  0  0  0  0  3  0  0  0  0  0  0
  -35.6210  -21.7070   17.6220 C   0  0  0  0  0  2  0  0  0  0  0  0
  -33.2600  -21.2260   18.4080 N   0  0  0  0  0  0  0  0  0  0  0  0
  -32.6210  -20.9090   20.5650 O   0  0  0  0  0  0  0  0  0  0  0  0
  -34.7230  -22.9310   19.6070 C   0  0  0  0  0  0  0  0  0  0  0  0
  -35.8930  -23.2140   20.2070 N   0  0  0  0  0  0  0  0  0  0  0  0
  -33.7610  -23.7020   19.6390 O   0  0  0  0  0  0  0  0  0  0  0  0
  -36.6430  -22.5360   20.1220 H   0  0  0  0  0  0  0  0  0  0  0  0
  -38.5140  -24.8780   22.0600 C   0  0  0  0  0  0  0  0  0  0  0  0
  -36.1840  -24.4200   20.9880 C   0  0  0  0  0  3  0  0  0  0  0  0
  -36.4780  -25.6230   20.0810 C   0  0  0  0  0  2  0  0  0  0  0  0
  -37.9550  -25.7350   19.7440 C   0  0  0  0  0  2  0  0  0  0  0  0
  -38.8110  -25.9330   21.0030 C   0  0  0  0  0  2  0  0  0  0  0  0
  -37.2900  -24.1570   22.0300 C   0  0  0  0  0  0  0  0  0  0  0  0
  -37.0720  -23.1470   22.9860 C   0  0  0  0  0  3  0  0  0  0  0  0
  -38.0480  -22.8310   23.9470 C   0  0  0  0  0  3  0  0  0  0  0  0
  -39.2360  -23.5800   24.0020 C   0  0  0  0  0  3  0  0  0  0  0  0
  -39.4530  -24.6220   23.0810 C   0  0  0  0  0  3  0  0  0  0  0  0
  -30.8640  -20.5650   18.9720 C   0  0  0  0  0  3  0  0  0  0  0  0
  -30.5590  -19.2790   19.6100 N   0  0  0  0  0  0  0  0  0  0  0  0
  -30.7270  -18.0880   19.0220 C   0  0  0  0  0  0  0  0  0  0  0  0
  -31.1090  -17.9640   17.8580 O   0  0  0  0  0  0  0  0  0  0  0  0
  -30.3180  -19.3050   20.5890 H   0  0  0  0  0  0  0  0  0  0  0  0
  -31.7410  -16.0460   20.0790 C   0  0  0  0  0  1  0  0  0  0  0  0
  -30.4370  -16.8360   19.8730 C   0  0  0  0  0  3  0  0  0  0  0  0
  -28.0510  -16.4940   19.4240 C   0  0  0  0  0  1  0  0  0  0  0  0
  -29.4030  -15.9610   19.2860 N   0  0  0  0  0  0  0  0  0  0  0  0
  -29.4290  -15.0340   19.6980 H   0  0  0  0  0  0  0  0  0  0  0  0
  -29.8180  -21.6680   19.3960 C   0  0  1  0  0  0  0  0  0  0  0  0
  -29.4310  -21.6140   20.8900 C   0  0  0  0  0  1  0  0  0  0  0  0
  -30.3730  -23.0860   19.1330 C   0  0  0  0  0  1  0  0  0  0  0  0
  -28.5300  -21.5270   18.5530 C   0  0  0  0  0  1  0  0  0  0  0  0
  -28.6960  -29.5750    9.4770 C   0  0  0  0  0  2  0  0  0  0  0  0
  -27.6870  -28.5030    9.9270 C   0  0  0  0  0  2  0  0  0  0  0  0
  -28.0050  -27.9030   11.3250 C   0  0  0  0  0  2  0  0  0  0  0  0
  -28.0450  -26.4630   11.8680 C   0  0  0  0  0  2  0  0  0  0  0  0
  -29.3710  -25.4490   13.5770 C   0  0  0  0  0  0  0  0  0  0  0  0
  -29.5630  -26.0210   15.9490 C   0  0  0  0  0  2  0  0  0  0  0  0
  -28.6600  -27.2480   16.2080 C   0  0  0  0  0  2  0  0  0  0  0  0
  -29.4370  -28.5550   15.9450 C   0  0  0  0  0  2  0  0  0  0  0  0
  -30.1620  -28.5420   14.5730 C   0  0  0  0  0  3  0  0  0  0  0  0
  -30.9610  -27.2220   14.3870 C   0  0  0  0  0  2  0  0  0  0  0  0
  -30.0430  -26.0910   14.5660 N   0  0  0  0  0  0  0  0  0  0  0  0
  -28.5900  -24.5120   13.7670 O   0  0  0  0  0  0  0  0  0  0  0  0
  -29.3520  -26.1200   12.4360 N   0  0  0  0  0  0  0  0  0  0  0  0
  -30.0850  -26.8010   12.3020 H   0  0  0  0  0  0  0  0  0  0  0  0
  -30.8150  -30.8530   13.6220 C   0  0  0  0  0  0  0  0  0  0  0  0
  -31.8640  -31.6900   13.9030 C   0  0  0  0  0  0  0  0  0  0  0  0
  -32.6530  -31.0100   14.8770 C   0  0  0  0  0  0  0  0  0  0  0  0
  -31.0130  -29.7260   14.4100 N   0  0  0  0  0  0  0  0  0  0  0  0
  -32.1590  -29.8060   15.1220 N   0  0  0  0  0  0  0  0  0  0  0  0
  -33.8330  -31.4490   15.6360 C   0  0  0  0  0  0  0  0  0  0  0  0
  -33.7370  -32.4360   16.6410 C   0  0  0  0  0  3  0  0  0  0  0  0
  -34.8810  -32.8270   17.3700 C   0  0  0  0  0  3  0  0  0  0  0  0
  -36.1360  -32.2320   17.0980 C   0  0  0  0  0  0  0  0  0  0  0  0
  -36.2280  -31.2710   16.0750 C   0  0  0  0  0  3  0  0  0  0  0  0
  -35.0910  -30.8860   15.3470 C   0  0  0  0  0  3  0  0  0  0  0  0
  -37.3070  -32.5690   17.7350 O   0  0  0  0  0  0  0  0  0  0  0  0
  -38.0730  -31.6270   18.3710 C   0  0  0  0  0  0  0  0  0  0  0  0
  -39.3570  -31.2680   17.9030 C   0  0  0  0  0  3  0  0  0  0  0  0
  -40.1390  -30.3480   18.6300 C   0  0  0  0  0  3  0  0  0  0  0  0
  -39.6440  -29.7890   19.8250 C   0  0  0  0  0  0  0  0  0  0  0  0
  -38.3690  -30.1520   20.2940 C   0  0  0  0  0  3  0  0  0  0  0  0
  -37.5860  -31.0670   19.5680 C   0  0  0  0  0  0  0  0  0  0  0  0
  -36.3670  -31.4260   20.0400 F   0  0  0  0  0  0  0  0  0  0  0  0
  -40.3990  -28.9110   20.5260 F   0  0  0  0  0  0  0  0  0  0  0  0
  -32.0820  -33.0760   13.3700 C   0  0  0  0  0  0  0  0  0  0  0  0
  -33.1220  -33.2620   12.5600 N   0  0  0  0  0  0  0  0  0  0  0  0
  -31.3070  -33.9960   13.6320 O   0  0  0  0  0  0  0  0  0  0  0  0
  -33.7560  -32.5100   12.3370 H   0  0  0  0  0  0  0  0  0  0  0  0
  -33.2980  -34.1750   12.1590 H   0  0  0  0  0  0  0  0  0  0  0  0
  -29.6840  -30.9580   12.8160 N   0  0  0  0  0  0  0  0  0  0  0  0
  -29.4500  -31.7800   12.2720 H   0  0  0  0  0  0  0  0  0  0  0  0
  -28.9420  -30.2770   12.8410 H   0  0  0  0  0  0  0  0  0  0  0  0
  2  1  1  0
  2  6  1  0
  3  2  2  0
  3  9  1  0
  4  1  2  0
  4 54  1  0
  5  3  1  0
  7  5  1  0
  8  5  2  0
  8  4  1  0
 10  9  1  0
 10 11  1  0
 11 12  1  0
 12 13  1  0
 13 15  1  0
 14 25  2  0
 15 21  2  0
 15 20  1  0
 16 26  1  0
 17 23  1  0
 18 24  1  0
 19 17  1  0
 19 18  1  0
 20 19  2  0
 21 22  1  0
 22 17  2  0
 23 16  1  0
 24 16  1  0
 24 14  1  0
 26 28  2  0
 26 27  1  0
 29 27  1  0
 30 39  1  0
 31 27  1  0
 31 35  1  0
 32 31  1  0
 33 32  1  0
 33 34  1  0
 34 30  1  0
 35 30  2  0
 35 36  1  0
 36 37  2  0
 37 38  1  0
 39 38  2  0
 40 14  1  0
 40 50  1  0
 40 41  1  0
 41 44  1  0
 42 41  1  0
 42 46  1  0
 43 42  2  0
 46 45  1  0
 48 47  1  0
 48 49  1  0
 48 46  1  0
 50 51  1  1
 52 50  1  0
 53 50  1  0
 54 55  1  0
 55 56  1  0
 56 57  1  0
 57 66  1  0
 58 65  2  0
 58 64  1  0
 59 60  1  0
 61 60  1  0
 62 63  1  0
 62 61  1  0
 63 64  1  0
 64 59  1  0
 66 58  1  0
 67 66  1  0
 68 69  2  0
 68 71  1  0
 69 70  1  0
 70 72  2  0
 70 73  1  0
 71 62  1  0
 71 72  1  0
 73 74  1  0
 74 75  2  0
 76 75  1  0
 76 79  1  0
 77 76  2  0
 78 73  2  0
 78 77  1  0
 79 80  1  0
 80 85  1  0
 81 80  2  0
 81 82  1  0
 82 83  2  0
 83 84  1  0
 83 87  1  0
 85 86  1  0
 85 84  2  0
 88 90  2  0
 88 69  1  0
 89 88  1  0
 91 89  1  0
 92 89  1  0
 93 95  1  0
 93 68  1  0
 94 93  1  0
M  ISO  4  12 101  13 101  58 100  66 100
M  END
>  <TORSDO>  (43) 
F 24

>  <SCORE>  (43) 
-4.162

>  <name>  (43) 
42

>  <ligand_id>  (43) 
42

>  <original_smiles>  (43) 
[H]c1c([H])c([H])c2c(c1[H])C([H])([H])C([H])([H])C([H])([H])C2([H])N([H])C(=O)C1([H])N(C(=O)C([H])(N([H])C(=O)C([H])(N([H])C([H])([H])[H])C([H])([H])[H])C(C([H])([H])[H])(C([H])([H])[H])C([H])([H])[H])C([H])([H])c2c([H])c(OC([H])([H])C([H])([H])C([H])([H])C([H])([H])c3c(C([H])([H])[H])nc(C([H])([H])C([H])([H])C([H])([H])C([H])([H])N([H])C(=O)N4C([H])([H])C([H])([H])C([H])([H])C([H])(n5nc(-c6c([H])c([H])c(Oc7c([H])c([H])c(F)c([H])c7F)c([H])c6[H])c(C(=O)N([H])[H])c5N([H])[H])C4([H])[H])c([H])c3C([H])([H])[H])c([H])c([H])c2C1([H])[H]

>  <smiles>  (43) 
[H]c1c([H])c([H])c2c(c1[H])C([H])([H])C([H])([H])C([H])([H])C2([H])N([H])C(=O)C1([H])N(C(=O)C([H])(N([H])C(=O)C([H])(N([H])C([H])([H])[H])C([H])([H])[H])C(C([H])([H])[H])(C([H])([H])[H])C([H])([H])[H])C([H])([H])c2c([H])c(OC([H])([H])C([H])([H])C([H])([H])C([H])([H])c3c(C([H])([H])[H])nc(C([H])([H])C([H])([H])C([H])([H])C([H])([H])N([H])C(=O)N4C([H])([H])C([H])([H])C([H])([H])C([H])(n5nc(-c6c([H])c([H])c(Oc7c([H])c([H])c(F)c([H])c7F)c([H])c6[H])c(C(=O)N([H])[H])c5N([H])[H])C4([H])[H])c([H])c3C([H])([H])[H])c([H])c([H])c2C1([H])[H]

$$$$
43:0:0
     RDKit          3D

 95103  0  0  1  0  0  0  0  0999 V2000
  -31.5230  -23.4970   21.1090 C   0  0  0  0  0  3  0  0  0  0  0  0
  -30.5580  -24.4870   21.3710 C   0  0  0  0  0  3  0  0  0  0  0  0
  -30.2070  -22.7170   19.2120 C   0  0  0  0  0  3  0  0  0  0  0  0
  -31.3400  -22.5980   20.0410 C   0  0  0  0  0  0  0  0  0  0  0  0
  -29.4050  -24.5910   20.5650 C   0  0  0  0  0  0  0  0  0  0  0  0
  -29.2370  -23.7090   19.4680 C   0  0  0  0  0  0  0  0  0  0  0  0
  -28.0160  -23.7960   18.5680 C   0  0  0  0  0  1  0  0  0  0  0  0
  -32.3200  -21.4600   19.8350 C   0  0  0  0  0  2  0  0  0  0  0  0
  -31.8780  -20.2220   20.6280 C   0  0  0  0  0  2  0  0  0  0  0  0
  -32.9610  -19.1400   20.7140 C   0  0  0  0  0  2  0  0  0  0  0  0
  -32.6070  -18.0260   21.7120 C   0  0  0  0  0  2  0  0  0  0  0  0
  -33.7850  -17.0660   21.9150 C   0  0  0  0  0  2  0  0  0  0  0  0
  -33.6650  -16.1640   23.1560 C   0  0  0  0  0  2  0  0  0  0  0  0
  -33.1840  -14.7230   22.8860 C   0  0  0  0  0  2  0  0  0  0  0  0
  -31.6870  -14.4470   23.1610 C   0  0  0  0  0  2  0  0  0  0  0  0
  -30.8640  -14.2600   20.7950 C   0  0  0  0  0  0  0  0  0  0  0  0
  -30.4040  -12.2990   19.3760 C   0  0  0  0  0  2  0  0  0  0  0  0
  -29.4660  -12.5260   18.1820 C   0  0  0  0  0  2  0  0  0  0  0  0
  -28.0000  -12.3640   18.6130 C   0  0  0  0  0  2  0  0  0  0  0  0
  -27.6590  -13.2020   19.8700 C   0  0  0  0  0  3  0  0  0  0  0  0
  -28.6980  -12.9810   20.9900 C   0  0  0  0  0  2  0  0  0  0  0  0
  -30.0460  -13.2360   20.4480 N   0  0  0  0  0  0  0  0  0  0  0  0
  -31.8030  -14.6480   20.0950 O   0  0  0  0  0  0  0  0  0  0  0  0
  -30.7130  -14.6340   22.0740 N   0  0  0  0  0  0  0  0  0  0  0  0
  -29.7730  -14.4540   22.3950 H   0  0  0  0  0  0  0  0  0  0  0  0
  -25.2570  -13.8150   20.5660 C   0  0  0  0  0  0  0  0  0  0  0  0
  -24.1800  -13.0440   20.9120 C   0  0  0  0  0  0  0  0  0  0  0  0
  -24.6330  -11.6910   20.8660 C   0  0  0  0  0  0  0  0  0  0  0  0
  -26.2990  -12.9300   20.3350 N   0  0  0  0  0  0  0  0  0  0  0  0
  -25.9250  -11.6460   20.5720 N   0  0  0  0  0  0  0  0  0  0  0  0
  -23.8970  -10.4290   21.0330 C   0  0  0  0  0  0  0  0  0  0  0  0
  -24.3540   -9.4240   21.9130 C   0  0  0  0  0  3  0  0  0  0  0  0
  -23.6240   -8.2270   22.0750 C   0  0  0  0  0  3  0  0  0  0  0  0
  -22.4230   -8.0280   21.3550 C   0  0  0  0  0  0  0  0  0  0  0  0
  -21.9830   -9.0230   20.4630 C   0  0  0  0  0  3  0  0  0  0  0  0
  -22.7130  -10.2110   20.3010 C   0  0  0  0  0  3  0  0  0  0  0  0
  -21.6640   -6.8850   21.4230 O   0  0  0  0  0  0  0  0  0  0  0  0
  -21.6860   -6.0710   22.5270 C   0  0  0  0  0  0  0  0  0  0  0  0
  -21.4010   -6.5630   23.8200 C   0  0  0  0  0  3  0  0  0  0  0  0
  -21.3650   -5.6780   24.9160 C   0  0  0  0  0  3  0  0  0  0  0  0
  -21.6050   -4.3040   24.7220 C   0  0  0  0  0  0  0  0  0  0  0  0
  -21.8820   -3.8120   23.4340 C   0  0  0  0  0  3  0  0  0  0  0  0
  -21.9190   -4.6940   22.3390 C   0  0  0  0  0  0  0  0  0  0  0  0
  -22.1660   -4.2130   21.0970 F   0  0  0  0  0  0  0  0  0  0  0  0
  -21.5620   -3.4530   25.7730 F   0  0  0  0  0  0  0  0  0  0  0  0
  -22.7830  -13.5270   21.1800 C   0  0  0  0  0  0  0  0  0  0  0  0
  -22.0470  -12.8270   22.0370 N   0  0  0  0  0  0  0  0  0  0  0  0
  -22.3540  -14.5590   20.6690 O   0  0  0  0  0  0  0  0  0  0  0  0
  -22.4050  -11.9900   22.4700 H   0  0  0  0  0  0  0  0  0  0  0  0
  -21.1140  -13.1410   22.2650 H   0  0  0  0  0  0  0  0  0  0  0  0
  -25.4350  -15.1880   20.4110 N   0  0  0  0  0  0  0  0  0  0  0  0
  -24.6800  -15.8550   20.5200 H   0  0  0  0  0  0  0  0  0  0  0  0
  -26.3010  -15.6180   20.1100 H   0  0  0  0  0  0  0  0  0  0  0  0
  -28.3480  -25.6220   20.9190 C   0  0  0  0  0  2  0  0  0  0  0  0
  -28.3880  -26.7500   20.0530 O   0  0  0  0  0  0  0  0  0  0  0  0
  -24.6110  -31.8710   23.2150 C   0  0  0  0  0  0  0  0  0  0  0  0
  -27.2290  -27.4790   20.0810 C   0  0  0  0  0  0  0  0  0  0  0  0
  -23.3950  -30.4960   21.5550 C   0  0  0  0  0  3  0  0  0  0  0  0
  -24.8400  -28.9670   20.1160 C   0  0  0  0  0  0  0  0  0  0  0  0
  -25.9200  -30.8500   21.3590 C   0  0  0  0  0  2  0  0  0  0  0  0
  -25.9990  -29.4880   20.7070 C   0  0  0  0  0  0  0  0  0  0  0  0
  -27.2010  -28.7510   20.6880 C   0  0  0  0  0  3  0  0  0  0  0  0
  -26.0570  -26.9610   19.4920 C   0  0  0  0  0  3  0  0  0  0  0  0
  -24.8600  -27.6990   19.5100 C   0  0  0  0  0  3  0  0  0  0  0  0
  -23.6000  -29.8290   20.1690 C   0  0  0  0  0  2  0  0  0  0  0  0
  -24.6610  -31.0850   22.1030 N   0  0  0  0  0  0  0  0  0  0  0  0
  -23.5310  -32.1460   23.7560 O   0  0  0  0  0  0  0  0  0  0  0  0
  -22.7380  -29.4680   22.5020 C   0  0  0  0  0  0  0  0  0  0  0  0
  -21.4120  -29.3030   22.3750 N   0  0  0  0  0  0  0  0  0  0  0  0
  -23.4170  -28.8230   23.3070 O   0  0  0  0  0  0  0  0  0  0  0  0
  -20.9270  -29.8740   21.6970 H   0  0  0  0  0  0  0  0  0  0  0  0
  -18.0260  -28.1380   22.8500 C   0  0  0  0  0  0  0  0  0  0  0  0
  -20.5860  -28.3660   23.1340 C   0  0  0  0  0  3  0  0  0  0  0  0
  -20.6770  -26.9400   22.5420 C   0  0  0  0  0  2  0  0  0  0  0  0
  -19.5740  -26.6390   21.5220 C   0  0  0  0  0  2  0  0  0  0  0  0
  -18.1910  -26.7930   22.1620 C   0  0  0  0  0  2  0  0  0  0  0  0
  -19.1510  -28.8830   23.2920 C   0  0  0  0  0  0  0  0  0  0  0  0
  -18.9440  -30.1450   23.8920 C   0  0  0  0  0  3  0  0  0  0  0  0
  -17.6440  -30.6590   24.0570 C   0  0  0  0  0  3  0  0  0  0  0  0
  -16.5330  -29.9090   23.6340 C   0  0  0  0  0  3  0  0  0  0  0  0
  -16.7250  -28.6510   23.0350 C   0  0  0  0  0  3  0  0  0  0  0  0
  -25.9030  -32.4830   23.8410 C   0  0  0  0  0  3  0  0  0  0  0  0
  -26.4480  -31.6600   25.0720 C   0  0  1  0  0  0  0  0  0  0  0  0
  -25.3760  -31.3680   26.1470 C   0  0  0  0  0  1  0  0  0  0  0  0
  -27.0290  -30.3050   24.6050 C   0  0  0  0  0  1  0  0  0  0  0  0
  -27.6060  -32.4300   25.7470 C   0  0  0  0  0  1  0  0  0  0  0  0
  -25.5910  -33.8640   24.2350 N   0  0  0  0  0  0  0  0  0  0  0  0
  -25.9040  -34.9490   23.5150 C   0  0  0  0  0  0  0  0  0  0  0  0
  -26.5580  -34.8940   22.4700 O   0  0  0  0  0  0  0  0  0  0  0  0
  -25.0120  -33.9820   25.0540 H   0  0  0  0  0  0  0  0  0  0  0  0
  -24.1480  -36.7300   23.2630 C   0  0  0  0  0  1  0  0  0  0  0  0
  -25.4100  -36.3120   24.0350 C   0  0  0  0  0  3  0  0  0  0  0  0
  -27.5600  -37.1780   24.8450 C   0  0  0  0  0  1  0  0  0  0  0  0
  -26.4280  -37.3820   23.9450 N   0  0  0  0  0  0  0  0  0  0  0  0
  -26.0160  -38.2880   24.1560 H   0  0  0  0  0  0  0  0  0  0  0  0
  1  2  1  0
  3  6  2  0
  3  4  1  0
  4  1  2  0
  5 54  1  0
  5  2  2  0
  6  5  1  0
  7  6  1  0
  8  4  1  0
  8  9  1  0
  9 10  1  0
 10 11  1  0
 11 12  1  0
 12 13  1  0
 14 13  1  0
 14 15  1  0
 16 24  1  0
 17 22  1  0
 18 19  1  0
 18 17  1  0
 20 19  1  0
 20 29  1  0
 20 21  1  0
 22 16  1  0
 22 21  1  0
 23 16  2  0
 24 25  1  0
 24 15  1  0
 26 27  2  0
 27 46  1  0
 28 27  1  0
 28 31  1  0
 29 26  1  0
 29 30  1  0
 30 28  2  0
 31 32  1  0
 32 33  2  0
 34 37  1  0
 34 33  1  0
 35 34  2  0
 36 35  1  0
 36 31  2  0
 37 38  1  0
 38 39  1  0
 39 40  2  0
 41 40  1  0
 41 45  1  0
 42 41  2  0
 43 38  2  0
 43 42  1  0
 44 43  1  0
 46 47  1  0
 47 50  1  0
 47 49  1  0
 48 46  2  0
 51 52  1  0
 51 26  1  0
 53 51  1  0
 55 57  1  0
 55 54  1  0
 56 67  2  0
 57 62  1  0
 58 66  1  0
 58 68  1  0
 59 65  1  0
 59 61  1  0
 60 66  1  0
 61 60  1  0
 62 61  2  0
 63 64  1  0
 63 57  2  0
 64 59  2  0
 65 58  1  0
 66 56  1  0
 68 70  2  0
 69 68  1  0
 71 69  1  0
 72 81  2  0
 72 77  1  0
 73 69  1  0
 73 77  1  0
 74 73  1  0
 75 76  1  0
 75 74  1  0
 76 72  1  0
 77 78  2  0
 78 79  1  0
 80 79  2  0
 81 80  1  0
 82 56  1  0
 82 87  1  0
 82 83  1  0
 83 86  1  1
 83 84  1  0
 85 83  1  0
 87 90  1  0
 88 92  1  0
 88 87  1  0
 89 88  2  0
 92 91  1  0
 94 92  1  0
 94 95  1  0
 94 93  1  0
M  ISO  4  16 100  24 100  54 101  55 101
M  END
>  <TORSDO>  (44) 
F 25

>  <SCORE>  (44) 
8.873

>  <name>  (44) 
43

>  <ligand_id>  (44) 
43

>  <original_smiles>  (44) 
[H]c1c([H])c([H])c2c(c1[H])C([H])([H])C([H])([H])C([H])([H])C2([H])N([H])C(=O)C1([H])N(C(=O)C([H])(N([H])C(=O)C([H])(N([H])C([H])([H])[H])C([H])([H])[H])C(C([H])([H])[H])(C([H])([H])[H])C([H])([H])[H])C([H])([H])c2c([H])c(OC([H])([H])c3c([H])c([H])c(C([H])([H])C([H])([H])C([H])([H])C([H])([H])C([H])([H])C([H])([H])C([H])([H])C([H])([H])N([H])C(=O)N4C([H])([H])C([H])([H])C([H])([H])C([H])(n5nc(-c6c([H])c([H])c(Oc7c([H])c([H])c(F)c([H])c7F)c([H])c6[H])c(C(=O)N([H])[H])c5N([H])[H])C4([H])[H])c([H])c3C([H])([H])[H])c([H])c([H])c2C1([H])[H]

>  <smiles>  (44) 
[H]c1c([H])c([H])c2c(c1[H])C([H])([H])C([H])([H])C([H])([H])C2([H])N([H])C(=O)C1([H])N(C(=O)C([H])(N([H])C(=O)C([H])(N([H])C([H])([H])[H])C([H])([H])[H])C(C([H])([H])[H])(C([H])([H])[H])C([H])([H])[H])C([H])([H])c2c([H])c(OC([H])([H])c3c([H])c([H])c(C([H])([H])C([H])([H])C([H])([H])C([H])([H])C([H])([H])C([H])([H])C([H])([H])C([H])([H])N([H])C(=O)N4C([H])([H])C([H])([H])C([H])([H])C([H])(n5nc(-c6c([H])c([H])c(Oc7c([H])c([H])c(F)c([H])c7F)c([H])c6[H])c(C(=O)N([H])[H])c5N([H])[H])C4([H])[H])c([H])c3C([H])([H])[H])c([H])c([H])c2C1([H])[H]

$$$$
44:0:0
     RDKit          3D

 93101  0  0  1  0  0  0  0  0999 V2000
  -27.8410  -19.5070   20.0910 C   0  0  0  0  0  3  0  0  0  0  0  0
  -29.9400  -19.6040   21.2700 C   0  0  0  0  0  3  0  0  0  0  0  0
  -28.9150  -20.2780   20.5760 C   0  0  0  0  0  0  0  0  0  0  0  0
  -27.7900  -18.1010   20.2550 C   0  0  0  0  0  0  0  0  0  0  0  0
  -28.8780  -17.4020   20.8660 C   0  0  0  0  0  0  0  0  0  0  0  0
  -29.9310  -18.1990   21.4170 C   0  0  0  0  0  0  0  0  0  0  0  0
  -31.2390  -17.5290   22.3310 Cl  0  0  0  0  0  0  0  0  0  0  0  0
  -25.2340  -18.1260   20.1970 C   0  0  0  0  0  1  0  0  0  0  0  0
  -26.5180  -17.4080   19.7560 C   0  0  0  0  0  2  0  0  0  0  0  0
  -28.9120  -21.8020   20.3580 C   0  0  0  0  0  3  0  0  0  0  0  0
  -30.3000  -22.4750   20.2130 C   0  0  0  0  0  3  0  0  0  0  0  0
  -30.3050  -23.9470   19.7160 C   0  0  0  0  0  2  0  0  0  0  0  0
  -29.8460  -25.0050   20.7480 C   0  0  0  0  0  2  0  0  0  0  0  0
  -29.7560  -26.3350   20.2050 O   0  0  0  0  0  0  0  0  0  0  0  0
  -25.1180  -30.9640   23.0050 C   0  0  0  0  0  0  0  0  0  0  0  0
  -28.5050  -26.9070   20.1300 C   0  0  0  0  0  0  0  0  0  0  0  0
  -24.2240  -29.4680   21.2510 C   0  0  0  0  0  3  0  0  0  0  0  0
  -25.9590  -28.1280   19.9470 C   0  0  0  0  0  0  0  0  0  0  0  0
  -26.6990  -30.1160   21.2730 C   0  0  0  0  0  2  0  0  0  0  0  0
  -26.9960  -28.7750   20.6310 C   0  0  0  0  0  0  0  0  0  0  0  0
  -28.2730  -28.1740   20.7130 C   0  0  0  0  0  3  0  0  0  0  0  0
  -27.4490  -26.2690   19.4450 C   0  0  0  0  0  3  0  0  0  0  0  0
  -26.1810  -26.8740   19.3500 C   0  0  0  0  0  3  0  0  0  0  0  0
  -24.6270  -28.8390   19.8890 C   0  0  0  0  0  2  0  0  0  0  0  0
  -25.3590  -30.1980   21.9030 N   0  0  0  0  0  0  0  0  0  0  0  0
  -23.9720  -31.1010   23.4520 O   0  0  0  0  0  0  0  0  0  0  0  0
  -23.6150  -28.3610   22.1420 C   0  0  0  0  0  0  0  0  0  0  0  0
  -22.3300  -28.0450   21.9100 N   0  0  0  0  0  0  0  0  0  0  0  0
  -24.2970  -27.7910   22.9970 O   0  0  0  0  0  0  0  0  0  0  0  0
  -21.8380  -28.5640   21.1980 H   0  0  0  0  0  0  0  0  0  0  0  0
  -19.0410  -26.5860   22.2260 C   0  0  0  0  0  0  0  0  0  0  0  0
  -21.5630  -27.0080   22.6000 C   0  0  0  0  0  3  0  0  0  0  0  0
  -21.7870  -25.6240   21.9500 C   0  0  0  0  0  2  0  0  0  0  0  0
  -20.7420  -25.2820   20.8820 C   0  0  0  0  0  2  0  0  0  0  0  0
  -19.3350  -25.2940   21.4840 C   0  0  0  0  0  2  0  0  0  0  0  0
  -20.0880  -27.3990   22.7370 C   0  0  0  0  0  0  0  0  0  0  0  0
  -19.7610  -28.6070   23.3890 C   0  0  0  0  0  3  0  0  0  0  0  0
  -18.4190  -29.0060   23.5360 C   0  0  0  0  0  3  0  0  0  0  0  0
  -17.3860  -28.1900   23.0430 C   0  0  0  0  0  3  0  0  0  0  0  0
  -17.6970  -26.9820   22.3940 C   0  0  0  0  0  3  0  0  0  0  0  0
  -26.2660  -31.7240   23.7400 C   0  0  0  0  0  3  0  0  0  0  0  0
  -25.7540  -33.0510   24.1070 N   0  0  0  0  0  0  0  0  0  0  0  0
  -25.9630  -34.1680   23.3960 C   0  0  0  0  0  0  0  0  0  0  0  0
  -26.6740  -34.1990   22.3890 O   0  0  0  0  0  0  0  0  0  0  0  0
  -25.1160  -33.0910   24.8880 H   0  0  0  0  0  0  0  0  0  0  0  0
  -23.9890  -35.6910   23.0660 C   0  0  0  0  0  1  0  0  0  0  0  0
  -25.2690  -35.4560   23.8820 C   0  0  0  0  0  3  0  0  0  0  0  0
  -27.2310  -36.6360   24.7700 C   0  0  0  0  0  1  0  0  0  0  0  0
  -26.1340  -36.6530   23.8050 N   0  0  0  0  0  0  0  0  0  0  0  0
  -25.5920  -37.4990   23.9560 H   0  0  0  0  0  0  0  0  0  0  0  0
  -26.8040  -30.9610   25.0130 C   0  0  1  0  0  0  0  0  0  0  0  0
  -25.6860  -30.4960   25.9750 C   0  0  0  0  0  1  0  0  0  0  0  0
  -27.6190  -29.7150   24.5970 C   0  0  0  0  0  1  0  0  0  0  0  0
  -27.7670  -31.8750   25.8050 C   0  0  0  0  0  1  0  0  0  0  0  0
  -28.8690  -15.8450   20.9320 C   0  0  0  0  0  2  0  0  0  0  0  0
  -30.4770  -14.0450   20.1330 C   0  0  0  0  0  0  0  0  0  0  0  0
  -30.2520  -11.7360   19.3190 C   0  0  0  0  0  2  0  0  0  0  0  0
  -29.2980  -11.7290   18.1080 C   0  0  0  0  0  2  0  0  0  0  0  0
  -27.8340  -11.5930   18.5680 C   0  0  0  0  0  2  0  0  0  0  0  0
  -27.4690  -12.5800   19.7110 C   0  0  0  0  0  3  0  0  0  0  0  0
  -28.5420  -12.5640   20.8230 C   0  0  0  0  0  2  0  0  0  0  0  0
  -29.8350  -12.8470   20.1880 N   0  0  0  0  0  0  0  0  0  0  0  0
  -31.6430  -14.1470   19.7520 O   0  0  0  0  0  0  0  0  0  0  0  0
  -29.7080  -15.1340   19.9630 N   0  0  0  0  0  0  0  0  0  0  0  0
  -30.2070  -15.8040   19.3940 H   0  0  0  0  0  0  0  0  0  0  0  0
  -25.1120  -13.2100   20.5210 C   0  0  0  0  0  0  0  0  0  0  0  0
  -24.0470  -12.4480   20.9210 C   0  0  0  0  0  0  0  0  0  0  0  0
  -24.4850  -11.0900   20.8460 C   0  0  0  0  0  0  0  0  0  0  0  0
  -26.1330  -12.3180   20.2390 N   0  0  0  0  0  0  0  0  0  0  0  0
  -25.7610  -11.0360   20.4900 N   0  0  0  0  0  0  0  0  0  0  0  0
  -23.7470   -9.8360   21.0380 C   0  0  0  0  0  0  0  0  0  0  0  0
  -23.9710   -9.0110   22.1630 C   0  0  0  0  0  3  0  0  0  0  0  0
  -23.2360   -7.8180   22.3330 C   0  0  0  0  0  3  0  0  0  0  0  0
  -22.2620   -7.4420   21.3770 C   0  0  0  0  0  0  0  0  0  0  0  0
  -22.0620   -8.2530   20.2480 C   0  0  0  0  0  3  0  0  0  0  0  0
  -22.7970   -9.4370   20.0760 C   0  0  0  0  0  3  0  0  0  0  0  0
  -21.5190   -6.2880   21.4480 O   0  0  0  0  0  0  0  0  0  0  0  0
  -20.9620   -5.8620   22.6270 C   0  0  0  0  0  0  0  0  0  0  0  0
  -20.0170   -6.6430   23.3290 C   0  0  0  0  0  3  0  0  0  0  0  0
  -19.4170   -6.1370   24.5000 C   0  0  0  0  0  3  0  0  0  0  0  0
  -19.7510   -4.8510   24.9630 C   0  0  0  0  0  0  0  0  0  0  0  0
  -20.6870   -4.0700   24.2630 C   0  0  0  0  0  3  0  0  0  0  0  0
  -21.2880   -4.5740   23.0950 C   0  0  0  0  0  0  0  0  0  0  0  0
  -22.1730   -3.8090   22.4120 F   0  0  0  0  0  0  0  0  0  0  0  0
  -19.1690   -4.3610   26.0830 F   0  0  0  0  0  0  0  0  0  0  0  0
  -22.6700  -12.9410   21.2550 C   0  0  0  0  0  0  0  0  0  0  0  0
  -21.9750  -12.2540   22.1560 N   0  0  0  0  0  0  0  0  0  0  0  0
  -22.2190  -13.9700   20.7540 O   0  0  0  0  0  0  0  0  0  0  0  0
  -22.3530  -11.4200   22.5830 H   0  0  0  0  0  0  0  0  0  0  0  0
  -21.0510  -12.5650   22.4210 H   0  0  0  0  0  0  0  0  0  0  0  0
  -25.2890  -14.5790   20.3510 N   0  0  0  0  0  0  0  0  0  0  0  0
  -24.5230  -15.2330   20.4670 H   0  0  0  0  0  0  0  0  0  0  0  0
  -26.1130  -14.9980   19.9420 H   0  0  0  0  0  0  0  0  0  0  0  0
  1  4  2  0
  1  3  1  0
  2  6  1  0
  3  2  2  0
  4  5  1  0
  5 55  1  0
  5  6  2  0
  6  7  1  0
  9  8  1  0
  9  4  1  0
 10  3  1  0
 11 10  2  0
 12 11  1  0
 12 13  1  0
 14 13  1  0
 15 26  2  0
 16 14  1  0
 16 21  1  0
 17 25  1  0
 17 27  1  0
 18 20  1  0
 19 25  1  0
 20 21  2  0
 20 19  1  0
 22 16  2  0
 23 22  1  0
 23 18  2  0
 24 18  1  0
 24 17  1  0
 25 15  1  0
 27 29  2  0
 28 27  1  0
 30 28  1  0
 31 40  2  0
 31 36  1  0
 32 28  1  0
 32 36  1  0
 33 32  1  0
 34 35  1  0
 34 33  1  0
 35 31  1  0
 36 37  2  0
 37 38  1  0
 39 38  2  0
 40 39  1  0
 41 15  1  0
 41 42  1  0
 41 51  1  0
 42 45  1  0
 43 47  1  0
 43 42  1  0
 44 43  2  0
 47 46  1  0
 49 47  1  0
 49 50  1  0
 49 48  1  0
 51 54  1  1
 51 52  1  0
 53 51  1  0
 56 62  1  0
 57 62  1  0
 58 59  1  0
 58 57  1  0
 60 59  1  0
 60 69  1  0
 60 61  1  0
 62 61  1  0
 63 56  2  0
 64 56  1  0
 64 55  1  0
 65 64  1  0
 66 67  2  0
 67 86  1  0
 68 67  1  0
 68 71  1  0
 69 70  1  0
 69 66  1  0
 70 68  2  0
 71 72  1  0
 72 73  2  0
 74 77  1  0
 74 73  1  0
 75 74  2  0
 76 75  1  0
 76 71  2  0
 77 78  1  0
 78 83  2  0
 78 79  1  0
 79 80  2  0
 80 81  1  0
 81 85  1  0
 82 81  2  0
 83 82  1  0
 84 83  1  0
 86 87  1  0
 87 90  1  0
 87 89  1  0
 88 86  2  0
 91 92  1  0
 91 66  1  0
 93 91  1  0
M  ISO  4  13 101  14 101  56 100  64 100
M  END
>  <TORSDO>  (45) 
F 22

>  <SCORE>  (45) 
-8.393

>  <name>  (45) 
44

>  <ligand_id>  (45) 
44

>  <original_smiles>  (45) 
[H]c1c([H])c([H])c2c(c1[H])C([H])([H])C([H])([H])C([H])([H])C2([H])N([H])C(=O)C1([H])N(C(=O)C([H])(N([H])C(=O)C([H])(N([H])C([H])([H])[H])C([H])([H])[H])C(C([H])([H])[H])(C([H])([H])[H])C([H])([H])[H])C([H])([H])c2c([H])c(OC([H])([H])C([H])([H])C([H])([H])C([H])([H])c3c([H])c(Cl)c(C([H])([H])N([H])C(=O)N4C([H])([H])C([H])([H])C([H])([H])C([H])(n5nc(-c6c([H])c([H])c(Oc7c([H])c([H])c(F)c([H])c7F)c([H])c6[H])c(C(=O)N([H])[H])c5N([H])[H])C4([H])[H])c(C([H])([H])C([H])([H])[H])c3[H])c([H])c([H])c2C1([H])[H]

>  <smiles>  (45) 
[H]c1c([H])c([H])c2c(c1[H])C([H])([H])C([H])([H])C([H])([H])C2([H])N([H])C(=O)C1([H])N(C(=O)C([H])(N([H])C(=O)C([H])(N([H])C([H])([H])[H])C([H])([H])[H])C(C([H])([H])[H])(C([H])([H])[H])C([H])([H])[H])C([H])([H])c2c([H])c(OC([H])([H])C([H])([H])C([H])([H])C([H])([H])c3c([H])c(Cl)c(C([H])([H])N([H])C(=O)N4C([H])([H])C([H])([H])C([H])([H])C([H])(n5nc(-c6c([H])c([H])c(Oc7c([H])c([H])c(F)c([H])c7F)c([H])c6[H])c(C(=O)N([H])[H])c5N([H])[H])C4([H])[H])c(C([H])([H])C([H])([H])[H])c3[H])c([H])c([H])c2C1([H])[H]

$$$$
45:0:0
     RDKit          3D

 91 99  0  0  1  0  0  0  0  0999 V2000
  -28.4870  -20.1100   20.1920 C   0  0  0  0  0  3  0  0  0  0  0  0
  -31.2020  -19.5850   19.9430 C   0  0  0  0  0  3  0  0  0  0  0  0
  -28.9700  -18.7790   20.3710 C   0  0  0  0  0  0  0  0  0  0  0  0
  -30.7190  -20.9130   19.7600 C   0  0  0  0  0  0  0  0  0  0  0  0
  -29.3370  -21.2090   19.8900 C   0  0  0  0  0  0  0  0  0  0  0  0
  -30.3540  -18.4860   20.2450 C   0  0  0  0  0  0  0  0  0  0  0  0
  -27.9780  -17.6820   20.7150 C   0  0  0  0  0  1  0  0  0  0  0  0
  -31.7130  -22.0060   19.4110 C   0  0  0  0  0  1  0  0  0  0  0  0
  -28.7150  -22.6050   19.5460 C   0  0  0  0  0  2  0  0  0  0  0  0
  -29.0160  -23.9270   20.3690 C   0  0  0  0  0  2  0  0  0  0  0  0
  -28.1620  -25.1480   19.8400 C   0  0  0  0  0  2  0  0  0  0  0  0
  -28.2960  -26.5210   20.3620 O   0  0  0  0  0  0  0  0  0  0  0  0
  -24.4700  -31.9170   23.2260 C   0  0  0  0  0  0  0  0  0  0  0  0
  -27.1710  -27.3570   20.2610 C   0  0  0  0  0  0  0  0  0  0  0  0
  -23.3000  -30.4720   21.6030 C   0  0  0  0  0  3  0  0  0  0  0  0
  -24.7840  -28.9300   20.2110 C   0  0  0  0  0  0  0  0  0  0  0  0
  -25.8380  -30.8220   21.4420 C   0  0  0  0  0  2  0  0  0  0  0  0
  -25.9380  -29.4370   20.8190 C   0  0  0  0  0  0  0  0  0  0  0  0
  -27.1310  -28.6580   20.8470 C   0  0  0  0  0  3  0  0  0  0  0  0
  -25.9970  -26.9190   19.5970 C   0  0  0  0  0  3  0  0  0  0  0  0
  -24.8140  -27.6750   19.5900 C   0  0  0  0  0  3  0  0  0  0  0  0
  -23.5330  -29.7820   20.2350 C   0  0  0  0  0  2  0  0  0  0  0  0
  -24.5530  -31.0880   22.1460 N   0  0  0  0  0  0  0  0  0  0  0  0
  -23.3790  -32.1920   23.7440 O   0  0  0  0  0  0  0  0  0  0  0  0
  -22.6470  -29.4590   22.5730 C   0  0  0  0  0  0  0  0  0  0  0  0
  -21.3370  -29.2150   22.4010 N   0  0  0  0  0  0  0  0  0  0  0  0
  -23.3180  -28.8960   23.4410 O   0  0  0  0  0  0  0  0  0  0  0  0
  -20.8550  -29.7250   21.6750 H   0  0  0  0  0  0  0  0  0  0  0  0
  -17.9970  -27.8840   22.8060 C   0  0  0  0  0  0  0  0  0  0  0  0
  -20.5270  -28.2740   23.1780 C   0  0  0  0  0  3  0  0  0  0  0  0
  -20.7180  -26.8250   22.6740 C   0  0  0  0  0  2  0  0  0  0  0  0
  -19.6800  -26.4090   21.6270 C   0  0  0  0  0  2  0  0  0  0  0  0
  -18.2640  -26.5160   22.2010 C   0  0  0  0  0  2  0  0  0  0  0  0
  -19.0600  -28.7150   23.2500 C   0  0  0  0  0  0  0  0  0  0  0  0
  -18.7580  -29.9920   23.7720 C   0  0  0  0  0  3  0  0  0  0  0  0
  -17.4250  -30.4390   23.8580 C   0  0  0  0  0  3  0  0  0  0  0  0
  -16.3770  -29.6060   23.4320 C   0  0  0  0  0  3  0  0  0  0  0  0
  -16.6630  -28.3310   22.9120 C   0  0  0  0  0  3  0  0  0  0  0  0
  -25.7400  -32.5780   23.8450 C   0  0  0  0  0  3  0  0  0  0  0  0
  -26.2360  -31.8600   25.1610 C   0  0  1  0  0  0  0  0  0  0  0  0
  -25.1160  -31.6290   26.2010 C   0  0  0  0  0  1  0  0  0  0  0  0
  -26.8640  -30.4850   24.8320 C   0  0  0  0  0  1  0  0  0  0  0  0
  -27.3460  -32.7040   25.8290 C   0  0  0  0  0  1  0  0  0  0  0  0
  -25.4220  -33.9870   24.1120 N   0  0  0  0  0  0  0  0  0  0  0  0
  -25.7290  -35.0050   23.2970 C   0  0  0  0  0  0  0  0  0  0  0  0
  -26.3800  -34.8590   22.2590 O   0  0  0  0  0  0  0  0  0  0  0  0
  -24.8430  -34.1750   24.9170 H   0  0  0  0  0  0  0  0  0  0  0  0
  -23.9620  -36.7500   22.8990 C   0  0  0  0  0  1  0  0  0  0  0  0
  -25.2320  -36.4080   23.6950 C   0  0  0  0  0  3  0  0  0  0  0  0
  -27.3660  -37.3770   24.4240 C   0  0  0  0  0  1  0  0  0  0  0  0
  -26.2430  -37.4680   23.4950 N   0  0  0  0  0  0  0  0  0  0  0  0
  -25.8250  -38.3900   23.5920 H   0  0  0  0  0  0  0  0  0  0  0  0
  -31.0070  -17.1010   20.5800 C   0  0  0  0  0  2  0  0  0  0  0  0
  -30.9540  -14.6550   19.9060 C   0  0  0  0  0  0  0  0  0  0  0  0
  -30.5540  -12.4250   18.9020 C   0  0  0  0  0  2  0  0  0  0  0  0
  -29.5700  -12.5600   17.7210 C   0  0  0  0  0  2  0  0  0  0  0  0
  -28.1150  -12.4670   18.2180 C   0  0  0  0  0  2  0  0  0  0  0  0
  -27.8380  -13.3740   19.4480 C   0  0  0  0  0  3  0  0  0  0  0  0
  -28.9420  -13.2370   20.5200 C   0  0  0  0  0  2  0  0  0  0  0  0
  -30.2330  -13.4930   19.8670 N   0  0  0  0  0  0  0  0  0  0  0  0
  -32.1000  -14.7090   19.4570 O   0  0  0  0  0  0  0  0  0  0  0  0
  -30.3270  -15.7920   20.3230 N   0  0  0  0  0  0  0  0  0  0  0  0
  -29.3680  -15.7020   20.6170 H   0  0  0  0  0  0  0  0  0  0  0  0
  -25.5220  -14.0600   20.3220 C   0  0  0  0  0  0  0  0  0  0  0  0
  -24.4400  -13.3260   20.7270 C   0  0  0  0  0  0  0  0  0  0  0  0
  -24.8290  -11.9570   20.6230 C   0  0  0  0  0  0  0  0  0  0  0  0
  -26.5070  -13.1390   20.0000 N   0  0  0  0  0  0  0  0  0  0  0  0
  -26.0980  -11.8670   20.2410 N   0  0  0  0  0  0  0  0  0  0  0  0
  -24.0500  -10.7260   20.8070 C   0  0  0  0  0  0  0  0  0  0  0  0
  -24.4220   -9.7520   21.7590 C   0  0  0  0  0  3  0  0  0  0  0  0
  -23.6440   -8.5860   21.9320 C   0  0  0  0  0  3  0  0  0  0  0  0
  -22.4800   -8.3880   21.1510 C   0  0  0  0  0  0  0  0  0  0  0  0
  -22.1270   -9.3500   20.1890 C   0  0  0  0  0  3  0  0  0  0  0  0
  -22.9050  -10.5070   20.0150 C   0  0  0  0  0  3  0  0  0  0  0  0
  -21.6780   -7.2750   21.2320 O   0  0  0  0  0  0  0  0  0  0  0  0
  -21.4910   -6.6060   22.4160 C   0  0  0  0  0  0  0  0  0  0  0  0
  -20.9210   -7.2340   23.5450 C   0  0  0  0  0  3  0  0  0  0  0  0
  -20.6840   -6.4910   24.7190 C   0  0  0  0  0  3  0  0  0  0  0  0
  -21.0070   -5.1220   24.7630 C   0  0  0  0  0  0  0  0  0  0  0  0
  -21.5690   -4.4940   23.6380 C   0  0  0  0  0  3  0  0  0  0  0  0
  -21.8070   -5.2340   22.4670 C   0  0  0  0  0  0  0  0  0  0  0  0
  -22.3300   -4.6190   21.3790 F   0  0  0  0  0  0  0  0  0  0  0  0
  -20.7710   -4.4060   25.8870 F   0  0  0  0  0  0  0  0  0  0  0  0
  -23.0870  -13.8640   21.0940 C   0  0  0  0  0  0  0  0  0  0  0  0
  -22.3740  -13.1780   21.9810 N   0  0  0  0  0  0  0  0  0  0  0  0
  -22.6720  -14.9230   20.6290 O   0  0  0  0  0  0  0  0  0  0  0  0
  -22.7240  -12.3190   22.3790 H   0  0  0  0  0  0  0  0  0  0  0  0
  -21.4680  -13.5180   22.2680 H   0  0  0  0  0  0  0  0  0  0  0  0
  -25.7420  -15.4250   20.1740 N   0  0  0  0  0  0  0  0  0  0  0  0
  -25.0030  -16.1030   20.3270 H   0  0  0  0  0  0  0  0  0  0  0  0
  -26.5610  -15.8230   19.7370 H   0  0  0  0  0  0  0  0  0  0  0  0
  1  3  1  0
  2  6  1  0
  3  7  1  0
  4  5  1  0
  4  2  2  0
  5  1  2  0
  6  3  2  0
  6 53  1  0
  8  4  1  0
  9  5  1  0
  9 10  1  0
 11 12  1  0
 11 10  1  0
 13 24  2  0
 14 12  1  0
 14 19  1  0
 15 23  1  0
 15 25  1  0
 16 22  1  0
 16 18  1  0
 17 23  1  0
 18 19  2  0
 18 17  1  0
 20 14  2  0
 21 20  1  0
 21 16  2  0
 22 15  1  0
 23 13  1  0
 25 27  2  0
 26 25  1  0
 28 26  1  0
 29 38  2  0
 29 34  1  0
 30 26  1  0
 30 34  1  0
 31 30  1  0
 32 33  1  0
 32 31  1  0
 33 29  1  0
 34 35  2  0
 35 36  1  0
 37 36  2  0
 38 37  1  0
 39 13  1  0
 39 44  1  0
 39 40  1  0
 40 43  1  1
 40 41  1  0
 42 40  1  0
 44 47  1  0
 45 49  1  0
 45 44  1  0
 46 45  2  0
 49 48  1  0
 51 52  1  0
 51 49  1  0
 51 50  1  0
 54 62  1  0
 55 60  1  0
 56 57  1  0
 56 55  1  0
 58 57  1  0
 58 67  1  0
 58 59  1  0
 60 54  1  0
 60 59  1  0
 61 54  2  0
 62 53  1  0
 62 63  1  0
 64 65  2  0
 65 84  1  0
 66 65  1  0
 66 69  1  0
 67 68  1  0
 67 64  1  0
 68 66  2  0
 69 70  1  0
 70 71  2  0
 72 75  1  0
 72 71  1  0
 73 72  2  0
 74 73  1  0
 74 69  2  0
 75 76  1  0
 76 81  2  0
 76 77  1  0
 77 78  2  0
 78 79  1  0
 79 83  1  0
 80 79  2  0
 81 80  1  0
 82 81  1  0
 84 85  1  0
 85 88  1  0
 85 87  1  0
 86 84  2  0
 89 64  1  0
 89 90  1  0
 91 89  1  0
M  ISO  4  11 101  12 101  54 100  62 100
M  END
>  <TORSDO>  (46) 
F 20

>  <SCORE>  (46) 
-13.084

>  <name>  (46) 
45

>  <ligand_id>  (46) 
45

>  <original_smiles>  (46) 
[H]c1c([H])c([H])c2c(c1[H])C([H])([H])C([H])([H])C([H])([H])C2([H])N([H])C(=O)C1([H])N(C(=O)C([H])(N([H])C(=O)C([H])(N([H])C([H])([H])[H])C([H])([H])[H])C(C([H])([H])[H])(C([H])([H])[H])C([H])([H])[H])C([H])([H])c2c([H])c(OC([H])([H])C([H])([H])C([H])([H])c3c([H])c(C([H])([H])[H])c(C([H])([H])N([H])C(=O)N4C([H])([H])C([H])([H])C([H])([H])C([H])(n5nc(-c6c([H])c([H])c(Oc7c([H])c([H])c(F)c([H])c7F)c([H])c6[H])c(C(=O)N([H])[H])c5N([H])[H])C4([H])[H])c([H])c3C([H])([H])[H])c([H])c([H])c2C1([H])[H]

>  <smiles>  (46) 
[H]c1c([H])c([H])c2c(c1[H])C([H])([H])C([H])([H])C([H])([H])C2([H])N([H])C(=O)C1([H])N(C(=O)C([H])(N([H])C(=O)C([H])(N([H])C([H])([H])[H])C([H])([H])[H])C(C([H])([H])[H])(C([H])([H])[H])C([H])([H])[H])C([H])([H])c2c([H])c(OC([H])([H])C([H])([H])C([H])([H])c3c([H])c(C([H])([H])[H])c(C([H])([H])N([H])C(=O)N4C([H])([H])C([H])([H])C([H])([H])C([H])(n5nc(-c6c([H])c([H])c(Oc7c([H])c([H])c(F)c([H])c7F)c([H])c6[H])c(C(=O)N([H])[H])c5N([H])[H])C4([H])[H])c([H])c3C([H])([H])[H])c([H])c([H])c2C1([H])[H]

$$$$
46:0:0
     RDKit          3D

 94 95  0  0  1  0  0  0  0  0999 V2000
  -23.1810  -25.9040   23.1450 C   0  0  0  0  0  2  0  0  0  0  0  0
  -21.4490  -28.6790   21.5910 C   0  0  0  0  0  1  0  0  0  0  0  0
  -23.1050  -25.7480   21.5060 C   0  0  0  0  0  2  0  0  0  0  0  0
  -22.8600  -27.2250   24.1800 C   0  0  0  0  0  3  0  0  0  0  0  0
  -22.1280  -27.0960   20.7050 C   0  0  0  0  0  3  0  0  0  0  0  0
  -21.8200  -28.7610   23.5440 C   0  0  0  0  0  2  0  0  0  0  0  0
  -22.0590  -27.0290   19.1910 C   0  0  0  0  0  1  0  0  0  0  0  0
  -20.9540  -31.0390   23.6550 C   0  0  0  0  0  1  0  0  0  0  0  0
  -21.6780  -29.9450   24.2650 O   0  0  0  0  0  0  0  0  0  0  0  0
  -24.4690  -24.3550   20.8950 C   0  0  0  0  0 15  0  0  0  0  0  0
  -25.2410  -22.3580   20.7500 C   0  0  0  0  0 15  0  0  0  0  0  0
  -26.8100  -20.8660   20.7440 C   0  0  0  0  0 15  0  0  0  0  0  0
  -27.9320  -19.2300   19.9180 C   0  0  0  0  0 15  0  0  0  0  0  0
  -29.9210  -16.3100   19.7930 C   0  0  0  0  0  0  0  0  0  0  0  0
  -30.6060  -13.7470   18.9380 C   0  0  0  0  0  2  0  0  0  0  0  0
  -29.7500  -13.1410   17.7700 C   0  0  0  0  0  2  0  0  0  0  0  0
  -28.3680  -12.6970   18.2700 C   0  0  0  0  0  2  0  0  0  0  0  0
  -27.8610  -13.7020   19.3210 C   0  0  0  0  0  3  0  0  0  0  0  0
  -28.8520  -13.9970   20.4410 C   0  0  0  0  0  2  0  0  0  0  0  0
  -29.8280  -14.8250   19.7700 N   0  0  0  0  0  0  0  0  0  0  0  0
  -31.1210  -16.4520   19.3980 O   0  0  0  0  0  0  0  0  0  0  0  0
  -28.7700  -17.4830   20.1180 N   0  0  0  0  0  2  0  0  0  0  0  0
  -28.0470  -16.9300   20.5610 H   0  0  0  0  0  0  0  0  0  0  0  0
  -25.6580  -14.3190   20.3210 C   0  0  0  0  0  0  0  0  0  0  0  0
  -24.6110  -13.5700   20.7600 C   0  0  0  0  0  0  0  0  0  0  0  0
  -25.0060  -12.2040   20.6060 C   0  0  0  0  0  0  0  0  0  0  0  0
  -26.5940  -13.4000   19.9000 N   0  0  0  0  0  0  0  0  0  0  0  0
  -26.2450  -12.1210   20.1500 N   0  0  0  0  0  0  0  0  0  0  0  0
  -24.2470  -10.9690   20.7900 C   0  0  0  0  0  0  0  0  0  0  0  0
  -24.7050   -9.9430   21.6430 C   0  0  0  0  0  3  0  0  0  0  0  0
  -23.9410   -8.7700   21.8160 C   0  0  0  0  0  3  0  0  0  0  0  0
  -22.7090   -8.6220   21.1350 C   0  0  0  0  0  0  0  0  0  0  0  0
  -22.2750   -9.6370   20.2640 C   0  0  0  0  0  3  0  0  0  0  0  0
  -23.0380  -10.8010   20.0900 C   0  0  0  0  0  3  0  0  0  0  0  0
  -21.9090   -7.5100   21.2230 O   0  0  0  0  0  0  0  0  0  0  0  0
  -21.8730   -6.7440   22.3600 C   0  0  0  0  0  0  0  0  0  0  0  0
  -21.5560   -7.2950   23.6220 C   0  0  0  0  0  3  0  0  0  0  0  0
  -21.4590   -6.4560   24.7500 C   0  0  0  0  0  3  0  0  0  0  0  0
  -21.6710   -5.0700   24.6190 C   0  0  0  0  0  0  0  0  0  0  0  0
  -21.9820   -4.5210   23.3620 C   0  0  0  0  0  3  0  0  0  0  0  0
  -22.0800   -5.3560   22.2360 C   0  0  0  0  0  0  0  0  0  0  0  0
  -22.3590   -4.8190   21.0240 F   0  0  0  0  0  0  0  0  0  0  0  0
  -21.5710   -4.2640   25.7010 F   0  0  0  0  0  0  0  0  0  0  0  0
  -23.2790  -14.1000   21.1870 C   0  0  0  0  0  0  0  0  0  0  0  0
  -22.6070  -13.3970   22.0900 N   0  0  0  0  0  0  0  0  0  0  0  0
  -22.8510  -15.1690   20.7540 O   0  0  0  0  0  0  0  0  0  0  0  0
  -22.9770  -12.5320   22.4560 H   0  0  0  0  0  0  0  0  0  0  0  0
  -21.7110  -13.7260   22.4220 H   0  0  0  0  0  0  0  0  0  0  0  0
  -25.8870  -15.6900   20.2080 N   0  0  0  0  0  0  0  0  0  0  0  0
  -25.1290  -16.3370   20.3980 H   0  0  0  0  0  0  0  0  0  0  0  0
  -26.5450  -16.0540   19.5320 H   0  0  0  0  0  0  0  0  0  0  0  0
  -24.5620  -27.0100   24.5310 C   0  0  0  0  0  2  0  0  0  0  0  0
  -26.1030  -27.0220   23.5270 C   0  0  0  0  0  2  0  0  0  0  0  0
  -27.0040  -26.4800   22.2630 O   0  0  0  0  0  0  0  0  0  0  0  0
  -24.7340  -31.8770   23.1960 C   0  0  0  0  0  0  0  0  0  0  0  0
  -27.1980  -27.2530   21.1290 C   0  0  0  0  0  0  0  0  0  0  0  0
  -23.9230  -30.2610   21.4180 C   0  0  0  0  0  3  0  0  0  0  0  0
  -25.4830  -29.0090   19.9920 C   0  0  0  0  0  0  0  0  0  0  0  0
  -26.3250  -30.8890   21.4960 C   0  0  0  0  0  2  0  0  0  0  0  0
  -26.5000  -29.5080   20.8400 C   0  0  0  0  0  0  0  0  0  0  0  0
  -27.4590  -28.6170   21.3320 C   0  0  0  0  0  3  0  0  0  0  0  0
  -26.4670  -26.8060   20.0160 C   0  0  0  0  0  3  0  0  0  0  0  0
  -25.5120  -27.6890   19.5000 C   0  0  0  0  0  3  0  0  0  0  0  0
  -24.2180  -29.8260   19.9750 C   0  0  0  0  0  2  0  0  0  0  0  0
  -24.9680  -31.1520   22.0310 N   0  0  0  0  0  0  0  0  0  0  0  0
  -23.5950  -32.0930   23.6250 O   0  0  0  0  0  0  0  0  0  0  0  0
  -24.0750  -29.0050   22.2740 C   0  0  0  0  0  0  0  0  0  0  0  0
  -23.4170  -27.7680   22.0880 N   0  0  0  0  0  2  0  0  0  0  0  0
  -24.4230  -29.2330   23.4080 O   0  0  0  0  0  0  0  0  0  0  0  0
  -23.4960  -27.4680   21.1280 H   0  0  0  0  0  0  0  0  0  0  0  0
  -18.1280  -27.7240   22.4870 C   0  0  0  0  0  0  0  0  0  0  0  0
  -20.8950  -26.8290   23.0450 C   0  0  0  0  0  2  0  0  0  0  0  0
  -20.1480  -25.6280   22.5510 C   0  0  0  0  0  2  0  0  0  0  0  0
  -19.2550  -25.8900   21.3380 C   0  0  0  0  0  2  0  0  0  0  0  0
  -17.9520  -26.4350   21.7860 C   0  0  0  0  0  2  0  0  0  0  0  0
  -19.3810  -27.9870   23.1530 C   0  0  0  0  0  0  0  0  0  0  0  0
  -19.1240  -29.2750   23.8510 C   0  0  0  0  0  3  0  0  0  0  0  0
  -18.0050  -30.1830   23.7260 C   0  0  0  0  0  3  0  0  0  0  0  0
  -16.8660  -29.7930   23.0290 C   0  0  0  0  0  3  0  0  0  0  0  0
  -16.9400  -28.5270   22.4550 C   0  0  0  0  0  3  0  0  0  0  0  0
  -25.8920  -32.4270   24.0890 C   0  0  0  0  0  3  0  0  0  0  0  0
  -25.5170  -33.7970   24.4290 N   0  0  0  0  0  0  0  0  0  0  0  0
  -25.8830  -34.8530   23.7030 C   0  0  0  0  0  0  0  0  0  0  0  0
  -26.6400  -34.7630   22.7330 O   0  0  0  0  0  0  0  0  0  0  0  0
  -24.8510  -33.9220   25.1790 H   0  0  0  0  0  0  0  0  0  0  0  0
  -24.1630  -36.6010   23.1900 C   0  0  0  0  0  1  0  0  0  0  0  0
  -25.3260  -36.2210   24.1190 C   0  0  0  0  0  3  0  0  0  0  0  0
  -27.3660  -37.1060   25.1520 C   0  0  0  0  0  1  0  0  0  0  0  0
  -26.3500  -37.2840   24.1170 N   0  0  0  0  0  0  0  0  0  0  0  0
  -25.9220  -38.1980   24.2410 H   0  0  0  0  0  0  0  0  0  0  0  0
  -26.2040  -31.6260   25.4220 C   0  0  1  0  0  0  0  0  0  0  0  0
  -24.9640  -31.3040   26.2910 C   0  0  0  0  0  1  0  0  0  0  0  0
  -26.9300  -30.3150   25.0890 C   0  0  0  0  0  1  0  0  0  0  0  0
  -27.2020  -32.4220   26.2960 C   0  0  0  0  0  1  0  0  0  0  0  0
  3  1  1  0
  4  1  1  0
  4 52  1  0
  5  3  1  0
  5  2  1  0
  6  4  1  0
  6  9  1  0
  7  5  1  0
  8  9  1  0
 14 22  1  0
 15 20  1  0
 16 17  1  0
 16 15  1  0
 18 17  1  0
 18 27  1  0
 18 19  1  0
 20 14  1  0
 20 19  1  0
 21 14  2  0
 22 23  1  0
 24 25  2  0
 25 44  1  0
 26 25  1  0
 26 29  1  0
 27 28  1  0
 27 24  1  0
 28 26  2  0
 29 30  1  0
 30 31  2  0
 32 35  1  0
 32 31  1  0
 33 32  2  0
 34 33  1  0
 34 29  2  0
 35 36  1  0
 36 37  1  0
 37 38  2  0
 39 38  1  0
 39 43  1  0
 40 39  2  0
 41 36  2  0
 41 40  1  0
 42 41  1  0
 44 45  1  0
 45 48  1  0
 45 47  1  0
 46 44  2  0
 49 24  1  0
 49 50  1  0
 51 49  1  0
 53 52  1  0
 54 53  1  0
 55 66  2  0
 56 61  1  0
 56 54  1  0
 57 65  1  0
 57 67  1  0
 58 60  1  0
 59 65  1  0
 60 61  2  0
 60 59  1  0
 62 56  2  0
 63 58  2  0
 63 62  1  0
 64 58  1  0
 64 57  1  0
 65 55  1  0
 67 69  2  0
 68 67  1  0
 70 68  1  0
 71 76  1  0
 72 76  1  0
 73 72  1  0
 74 75  1  0
 74 73  1  0
 75 71  1  0
 76 77  2  0
 78 77  1  0
 79 78  2  0
 80 71  2  0
 80 79  1  0
 81 55  1  0
 81 82  1  0
 81 91  1  0
 82 85  1  0
 83 87  1  0
 83 82  1  0
 84 83  2  0
 87 86  1  0
 89 87  1  0
 89 90  1  0
 89 88  1  0
 91 92  1  1
 91 94  1  0
 93 91  1  0
M  ISO  4  14 100  22 100  53 101  54 101
M  END
>  <TORSDO>  (47) 
F 23

>  <SCORE>  (47) 
-9.731

>  <name>  (47) 
46

>  <ligand_id>  (47) 
46

>  <original_smiles>  (47) 
[H]c1c([H])c([H])c2c(c1[H])C([H])([H])C([H])([H])C([H])([H])C2([H])N([H])C(=O)C1([H])N(C(=O)C([H])(N([H])C(=O)C([H])(N([H])C([H])([H])[H])C([H])([H])[H])C(C([H])([H])[H])(C([H])([H])[H])C([H])([H])[H])C([H])([H])c2c([H])c(OC([H])([H])C([H])([H])c3c([H])c(C([H])([H])C([H])([H])C([H])([H])C([H])([H])N([H])C(=O)N4C([H])([H])C([H])([H])C([H])([H])C([H])(n5nc(-c6c([H])c([H])c(Oc7c([H])c([H])c(F)c([H])c7F)c([H])c6[H])c(C(=O)N([H])[H])c5N([H])[H])C4([H])[H])c(C([H])([H])[H])c([H])c3OC([H])([H])[H])c([H])c([H])c2C1([H])[H]

>  <smiles>  (47) 
[H]c1c([H])c([H])c2c(c1[H])C([H])([H])C([H])([H])C([H])([H])C2([H])N([H])C(=O)C1([H])N(C(=O)C([H])(N([H])C(=O)C([H])(N([H])C([H])([H])[H])C([H])([H])[H])C(C([H])([H])[H])(C([H])([H])[H])C([H])([H])[H])C([H])([H])c2c([H])c(OC([H])([H])C([H])([H])c3c([H])c(C([H])([H])C([H])([H])C([H])([H])C([H])([H])N([H])C(=O)N4C([H])([H])C([H])([H])C([H])([H])C([H])(n5nc(-c6c([H])c([H])c(Oc7c([H])c([H])c(F)c([H])c7F)c([H])c6[H])c(C(=O)N([H])[H])c5N([H])[H])C4([H])[H])c(C([H])([H])[H])c([H])c3OC([H])([H])[H])c([H])c([H])c2C1([H])[H]

$$$$
47:0:0
     RDKit          3D

 93101  0  0  1  0  0  0  0  0999 V2000
  -28.6580  -23.6290   23.1310 C   0  0  0  0  0  3  0  0  0  0  0  0
  -27.9150  -25.4900   21.7340 C   0  0  0  0  0  3  0  0  0  0  0  0
  -29.5880  -23.9300   20.8990 C   0  0  0  0  0  3  0  0  0  0  0  0
  -27.8530  -24.7740   22.9480 C   0  0  0  0  0  0  0  0  0  0  0  0
  -29.5310  -23.2090   22.1070 C   0  0  0  0  0  0  0  0  0  0  0  0
  -28.7890  -25.0770   20.7040 C   0  0  0  0  0  0  0  0  0  0  0  0
  -26.9270  -25.2380   24.0540 C   0  0  0  0  0  1  0  0  0  0  0  0
  -30.4280  -21.9990   22.3000 C   0  0  0  0  0  2  0  0  0  0  0  0
  -29.7940  -20.6910   21.7990 C   0  0  0  0  0  2  0  0  0  0  0  0
  -30.8680  -19.6510   21.4460 C   0  0  0  0  0  2  0  0  0  0  0  0
  -30.3400  -18.2150   21.2900 C   0  0  0  0  0  2  0  0  0  0  0  0
  -31.4600  -17.2550   20.8510 C   0  0  0  0  0  2  0  0  0  0  0  0
  -31.3690  -15.8380   21.4470 C   0  0  0  0  0  2  0  0  0  0  0  0
  -30.4840  -14.3380   19.6540 C   0  0  0  0  0  0  0  0  0  0  0  0
  -30.0410  -12.1650   18.5680 C   0  0  0  0  0  2  0  0  0  0  0  0
  -28.9290  -12.2140   17.5090 C   0  0  0  0  0  2  0  0  0  0  0  0
  -27.5490  -12.0230   18.1620 C   0  0  0  0  0  2  0  0  0  0  0  0
  -27.3330  -12.9650   19.3730 C   0  0  0  0  0  3  0  0  0  0  0  0
  -28.5330  -12.8980   20.3400 C   0  0  0  0  0  2  0  0  0  0  0  0
  -29.7660  -13.1900   19.5850 N   0  0  0  0  0  0  0  0  0  0  0  0
  -31.3130  -14.6780   18.8030 O   0  0  0  0  0  0  0  0  0  0  0  0
  -30.3680  -14.9730   20.8280 N   0  0  0  0  0  0  0  0  0  0  0  0
  -29.6670  -14.5930   21.4480 H   0  0  0  0  0  0  0  0  0  0  0  0
  -25.0980  -13.5460   20.5140 C   0  0  0  0  0  0  0  0  0  0  0  0
  -24.0970  -12.7600   21.0160 C   0  0  0  0  0  0  0  0  0  0  0  0
  -24.5230  -11.4090   20.8290 C   0  0  0  0  0  0  0  0  0  0  0  0
  -26.0750  -12.6740   20.0580 N   0  0  0  0  0  0  0  0  0  0  0  0
  -25.7400  -11.3800   20.3010 N   0  0  0  0  0  0  0  0  0  0  0  0
  -23.8200  -10.1430   21.0710 C   0  0  0  0  0  0  0  0  0  0  0  0
  -24.3180   -9.1850   21.9810 C   0  0  0  0  0  3  0  0  0  0  0  0
  -23.6160   -7.9830   22.2110 C   0  0  0  0  0  3  0  0  0  0  0  0
  -22.4020   -7.7290   21.5280 C   0  0  0  0  0  0  0  0  0  0  0  0
  -21.9230   -8.6750   20.6070 C   0  0  0  0  0  3  0  0  0  0  0  0
  -22.6250   -9.8700   20.3760 C   0  0  0  0  0  3  0  0  0  0  0  0
  -21.6670   -6.5770   21.6670 O   0  0  0  0  0  0  0  0  0  0  0  0
  -21.6190   -5.8910   22.8540 C   0  0  0  0  0  0  0  0  0  0  0  0
  -21.1460   -6.4900   24.0420 C   0  0  0  0  0  3  0  0  0  0  0  0
  -21.0490   -5.7300   25.2240 C   0  0  0  0  0  3  0  0  0  0  0  0
  -21.4130   -4.3690   25.2180 C   0  0  0  0  0  0  0  0  0  0  0  0
  -21.8780   -3.7700   24.0350 C   0  0  0  0  0  3  0  0  0  0  0  0
  -21.9770   -4.5280   22.8560 C   0  0  0  0  0  0  0  0  0  0  0  0
  -22.4060   -3.9400   21.7130 F   0  0  0  0  0  0  0  0  0  0  0  0
  -21.3110   -3.6360   26.3500 F   0  0  0  0  0  0  0  0  0  0  0  0
  -22.7750  -13.2300   21.5540 C   0  0  0  0  0  0  0  0  0  0  0  0
  -22.2020  -12.4930   22.5000 N   0  0  0  0  0  0  0  0  0  0  0  0
  -22.2650  -14.2810   21.1700 O   0  0  0  0  0  0  0  0  0  0  0  0
  -22.6290  -11.6420   22.8290 H   0  0  0  0  0  0  0  0  0  0  0  0
  -21.3220  -12.7870   22.9000 H   0  0  0  0  0  0  0  0  0  0  0  0
  -25.2530  -14.9240   20.3910 N   0  0  0  0  0  0  0  0  0  0  0  0
  -24.5290  -15.5770   20.6710 H   0  0  0  0  0  0  0  0  0  0  0  0
  -26.0520  -15.3760   19.9640 H   0  0  0  0  0  0  0  0  0  0  0  0
  -28.8870  -25.8280   19.3830 C   0  0  0  0  0  2  0  0  0  0  0  0
  -28.7340  -27.2390   19.5150 O   0  0  0  0  0  0  0  0  0  0  0  0
  -24.7170  -31.7060   23.2730 C   0  0  0  0  0  0  0  0  0  0  0  0
  -27.4840  -27.8060   19.6370 C   0  0  0  0  0  0  0  0  0  0  0  0
  -23.5270  -30.4270   21.5200 C   0  0  0  0  0  3  0  0  0  0  0  0
  -25.0060  -29.1390   19.8950 C   0  0  0  0  0  0  0  0  0  0  0  0
  -26.0170  -30.9550   21.2860 C   0  0  0  0  0  2  0  0  0  0  0  0
  -26.1500  -29.6670   20.5010 C   0  0  0  0  0  0  0  0  0  0  0  0
  -27.3880  -29.0080   20.3720 C   0  0  0  0  0  3  0  0  0  0  0  0
  -26.3160  -27.2790   19.0360 C   0  0  0  0  0  3  0  0  0  0  0  0
  -25.0800  -27.9430   19.1640 C   0  0  0  0  0  3  0  0  0  0  0  0
  -23.7220  -29.9170   20.0680 C   0  0  0  0  0  2  0  0  0  0  0  0
  -24.7730  -31.0380   22.0860 N   0  0  0  0  0  0  0  0  0  0  0  0
  -23.6440  -31.8540   23.8730 O   0  0  0  0  0  0  0  0  0  0  0  0
  -22.9700  -29.2690   22.3790 C   0  0  0  0  0  0  0  0  0  0  0  0
  -21.6700  -28.9780   22.2150 N   0  0  0  0  0  0  0  0  0  0  0  0
  -23.7030  -28.6420   23.1480 O   0  0  0  0  0  0  0  0  0  0  0  0
  -21.1340  -29.5420   21.5710 H   0  0  0  0  0  0  0  0  0  0  0  0
  -18.4250  -27.4210   22.5240 C   0  0  0  0  0  0  0  0  0  0  0  0
  -20.9370  -27.9060   22.8890 C   0  0  0  0  0  3  0  0  0  0  0  0
  -21.1960  -26.5430   22.2080 C   0  0  0  0  0  2  0  0  0  0  0  0
  -20.1540  -26.1940   21.1430 C   0  0  0  0  0  2  0  0  0  0  0  0
  -18.7500  -26.1530   21.7540 C   0  0  0  0  0  2  0  0  0  0  0  0
  -19.4520  -28.2530   23.0430 C   0  0  0  0  0  0  0  0  0  0  0  0
  -19.0960  -29.4410   23.7180 C   0  0  0  0  0  3  0  0  0  0  0  0
  -17.7440  -29.7990   23.8810 C   0  0  0  0  0  3  0  0  0  0  0  0
  -16.7320  -28.9640   23.3790 C   0  0  0  0  0  3  0  0  0  0  0  0
  -17.0720  -27.7770   22.7060 C   0  0  0  0  0  3  0  0  0  0  0  0
  -25.9910  -32.3360   23.9180 C   0  0  0  0  0  3  0  0  0  0  0  0
  -25.6450  -33.7000   24.3390 N   0  0  0  0  0  0  0  0  0  0  0  0
  -25.9570  -34.8090   23.6530 C   0  0  0  0  0  0  0  0  0  0  0  0
  -26.6400  -34.7910   22.6250 O   0  0  0  0  0  0  0  0  0  0  0  0
  -25.0410  -33.7880   25.1430 H   0  0  0  0  0  0  0  0  0  0  0  0
  -24.1890  -36.5770   23.3950 C   0  0  0  0  0  1  0  0  0  0  0  0
  -25.4300  -36.1510   24.1950 C   0  0  0  0  0  3  0  0  0  0  0  0
  -27.5270  -37.0310   25.1200 C   0  0  0  0  0  1  0  0  0  0  0  0
  -26.4370  -37.2340   24.1690 N   0  0  0  0  0  0  0  0  0  0  0  0
  -26.0050  -38.1320   24.3680 H   0  0  0  0  0  0  0  0  0  0  0  0
  -26.5490  -31.5010   25.1340 C   0  0  1  0  0  0  0  0  0  0  0  0
  -25.4760  -31.1440   26.1880 C   0  0  0  0  0  1  0  0  0  0  0  0
  -27.1850  -30.1810   24.6380 C   0  0  0  0  0  1  0  0  0  0  0  0
  -27.6720  -32.2940   25.8450 C   0  0  0  0  0  1  0  0  0  0  0  0
  2  4  2  0
  3  5  1  0
  4  1  1  0
  4  7  1  0
  5  8  1  0
  5  1  2  0
  6  3  2  0
  6  2  1  0
  9  8  1  0
 10  9  1  0
 11 10  1  0
 12 11  1  0
 12 13  1  0
 14 22  1  0
 15 20  1  0
 16 17  1  0
 16 15  1  0
 18 17  1  0
 18 27  1  0
 18 19  1  0
 20 14  1  0
 20 19  1  0
 21 14  2  0
 22 13  1  0
 22 23  1  0
 24 25  2  0
 25 44  1  0
 26 25  1  0
 26 29  1  0
 27 28  1  0
 27 24  1  0
 28 26  2  0
 29 30  1  0
 30 31  2  0
 32 35  1  0
 32 31  1  0
 33 32  2  0
 34 33  1  0
 34 29  2  0
 35 36  1  0
 36 41  2  0
 36 37  1  0
 37 38  2  0
 39 38  1  0
 39 43  1  0
 40 39  2  0
 41 40  1  0
 42 41  1  0
 44 45  1  0
 45 47  1  0
 45 48  1  0
 46 44  2  0
 49 24  1  0
 49 50  1  0
 51 49  1  0
 52 53  1  0
 52  6  1  0
 53 55  1  0
 54 65  2  0
 55 60  1  0
 56 64  1  0
 56 66  1  0
 57 63  1  0
 57 59  1  0
 58 64  1  0
 59 58  1  0
 60 59  2  0
 61 62  1  0
 61 55  2  0
 62 57  2  0
 63 56  1  0
 64 54  1  0
 66 68  2  0
 67 66  1  0
 69 67  1  0
 70 79  2  0
 70 75  1  0
 71 67  1  0
 71 75  1  0
 72 71  1  0
 73 74  1  0
 73 72  1  0
 74 70  1  0
 75 76  2  0
 76 77  1  0
 78 77  2  0
 79 78  1  0
 80 54  1  0
 80 81  1  0
 80 90  1  0
 81 84  1  0
 82 86  1  0
 82 81  1  0
 83 82  2  0
 86 85  1  0
 88 86  1  0
 88 89  1  0
 88 87  1  0
 90 93  1  1
 90 91  1  0
 92 90  1  0
M  ISO  4  14 100  22 100  52 101  53 101
M  END
>  <TORSDO>  (48) 
F 23

>  <SCORE>  (48) 
-9.676

>  <name>  (48) 
47

>  <ligand_id>  (48) 
47

>  <original_smiles>  (48) 
[H]c1c([H])c([H])c2c(c1[H])C([H])([H])C([H])([H])C([H])([H])C2([H])N([H])C(=O)C1([H])N(C(=O)C([H])(N([H])C(=O)C([H])(N([H])C([H])([H])[H])C([H])([H])[H])C(C([H])([H])[H])(C([H])([H])[H])C([H])([H])[H])C([H])([H])c2c([H])c(OC([H])([H])c3c([H])c(C([H])([H])[H])c([H])c(C([H])([H])C([H])([H])C([H])([H])C([H])([H])C([H])([H])C([H])([H])N([H])C(=O)N4C([H])([H])C([H])([H])C([H])([H])C([H])(n5nc(-c6c([H])c([H])c(Oc7c([H])c([H])c(F)c([H])c7F)c([H])c6[H])c(C(=O)N([H])[H])c5N([H])[H])C4([H])[H])c3[H])c([H])c([H])c2C1([H])[H]

>  <smiles>  (48) 
[H]c1c([H])c([H])c2c(c1[H])C([H])([H])C([H])([H])C([H])([H])C2([H])N([H])C(=O)C1([H])N(C(=O)C([H])(N([H])C(=O)C([H])(N([H])C([H])([H])[H])C([H])([H])[H])C(C([H])([H])[H])(C([H])([H])[H])C([H])([H])[H])C([H])([H])c2c([H])c(OC([H])([H])c3c([H])c(C([H])([H])[H])c([H])c(C([H])([H])C([H])([H])C([H])([H])C([H])([H])C([H])([H])C([H])([H])N([H])C(=O)N4C([H])([H])C([H])([H])C([H])([H])C([H])(n5nc(-c6c([H])c([H])c(Oc7c([H])c([H])c(F)c([H])c7F)c([H])c6[H])c(C(=O)N([H])[H])c5N([H])[H])C4([H])[H])c3[H])c([H])c([H])c2C1([H])[H]

$$$$
48:0:0
     RDKit          3D

 93101  0  0  1  0  0  0  0  0999 V2000
  -30.6580  -22.3030   18.1130 C   0  0  0  0  0  3  0  0  0  0  0  0
  -30.7360  -21.6460   19.3520 C   0  0  0  0  0  0  0  0  0  0  0  0
  -30.6200  -22.4620   20.4950 C   0  0  0  0  0  0  0  0  0  0  0  0
  -30.4410  -24.3260   19.1620 C   0  0  0  0  0  0  0  0  0  0  0  0
  -30.6610  -21.9090   21.9080 C   0  0  0  0  0  1  0  0  0  0  0  0
  -30.5080  -23.6370   18.0260 N   0  0  0  0  0  0  0  0  0  0  0  0
  -30.4720  -23.7980   20.3830 N   0  0  0  0  0  0  0  0  0  0  0  0
  -30.9960  -20.1440   19.4200 C   0  0  0  0  0  2  0  0  0  0  0  0
  -29.7190  -19.2850   19.4320 C   0  0  0  0  0  2  0  0  0  0  0  0
  -30.0000  -17.8210   19.8320 C   0  0  0  0  0  2  0  0  0  0  0  0
  -30.1260  -17.6380   21.3560 C   0  0  0  0  0  2  0  0  0  0  0  0
  -30.8990  -16.3800   21.7930 C   0  0  0  0  0  2  0  0  0  0  0  0
  -30.7470  -14.3120   20.4050 C   0  0  0  0  0  0  0  0  0  0  0  0
  -30.3210  -12.2620   19.1060 C   0  0  0  0  0  2  0  0  0  0  0  0
  -29.3410  -12.5410   17.9490 C   0  0  0  0  0  2  0  0  0  0  0  0
  -27.8820  -12.4100   18.4220 C   0  0  0  0  0  2  0  0  0  0  0  0
  -27.6080  -13.2020   19.7310 C   0  0  0  0  0  3  0  0  0  0  0  0
  -28.6900  -12.8970   20.7920 C   0  0  0  0  0  2  0  0  0  0  0  0
  -30.0110  -13.1890   20.2010 N   0  0  0  0  0  0  0  0  0  0  0  0
  -31.7730  -14.5740   19.7700 O   0  0  0  0  0  0  0  0  0  0  0  0
  -30.2750  -15.1340   21.3490 N   0  0  0  0  0  0  0  0  0  0  0  0
  -29.4380  -14.8380   21.8300 H   0  0  0  0  0  0  0  0  0  0  0  0
  -25.2340  -13.8340   20.5050 C   0  0  0  0  0  0  0  0  0  0  0  0
  -24.1710  -13.0680   20.9020 C   0  0  0  0  0  0  0  0  0  0  0  0
  -24.6200  -11.7130   20.8560 C   0  0  0  0  0  0  0  0  0  0  0  0
  -26.2660  -12.9420   20.2440 N   0  0  0  0  0  0  0  0  0  0  0  0
  -25.8980  -11.6630   20.5070 N   0  0  0  0  0  0  0  0  0  0  0  0
  -23.8910  -10.4560   21.0610 C   0  0  0  0  0  0  0  0  0  0  0  0
  -24.3530   -9.4720   21.9610 C   0  0  0  0  0  3  0  0  0  0  0  0
  -23.6230   -8.2790   22.1540 C   0  0  0  0  0  3  0  0  0  0  0  0
  -22.4190   -8.0620   21.4450 C   0  0  0  0  0  0  0  0  0  0  0  0
  -21.9760   -9.0340   20.5320 C   0  0  0  0  0  3  0  0  0  0  0  0
  -22.7050  -10.2190   20.3380 C   0  0  0  0  0  3  0  0  0  0  0  0
  -21.6540   -6.9250   21.5520 O   0  0  0  0  0  0  0  0  0  0  0  0
  -21.6550   -6.1600   22.6890 C   0  0  0  0  0  0  0  0  0  0  0  0
  -21.3140   -6.6960   23.9520 C   0  0  0  0  0  3  0  0  0  0  0  0
  -21.2610   -5.8550   25.0810 C   0  0  0  0  0  3  0  0  0  0  0  0
  -21.5400   -4.4810   24.9510 C   0  0  0  0  0  0  0  0  0  0  0  0
  -21.8750   -3.9450   23.6950 C   0  0  0  0  0  3  0  0  0  0  0  0
  -21.9290   -4.7830   22.5680 C   0  0  0  0  0  0  0  0  0  0  0  0
  -22.2290   -4.2570   21.3550 F   0  0  0  0  0  0  0  0  0  0  0  0
  -21.4850   -3.6710   26.0340 F   0  0  0  0  0  0  0  0  0  0  0  0
  -22.7860  -13.5520   21.2190 C   0  0  0  0  0  0  0  0  0  0  0  0
  -22.0800  -12.8610   22.1060 N   0  0  0  0  0  0  0  0  0  0  0  0
  -22.3390  -14.5810   20.7150 O   0  0  0  0  0  0  0  0  0  0  0  0
  -22.4580  -12.0290   22.5350 H   0  0  0  0  0  0  0  0  0  0  0  0
  -21.1530  -13.1710   22.3600 H   0  0  0  0  0  0  0  0  0  0  0  0
  -25.4050  -15.2030   20.3260 N   0  0  0  0  0  0  0  0  0  0  0  0
  -24.6470  -15.8700   20.4320 H   0  0  0  0  0  0  0  0  0  0  0  0
  -26.2520  -15.6220   19.9640 H   0  0  0  0  0  0  0  0  0  0  0  0
  -30.4030  -25.8460   19.0370 C   0  0  0  0  0  2  0  0  0  0  0  0
  -29.0000  -26.4670   18.8940 C   0  0  0  0  0  2  0  0  0  0  0  0
  -28.4330  -26.7370   20.1730 O   0  0  0  0  0  0  0  0  0  0  0  0
  -24.6180  -31.8740   23.2510 C   0  0  0  0  0  0  0  0  0  0  0  0
  -27.2620  -27.4530   20.1590 C   0  0  0  0  0  0  0  0  0  0  0  0
  -23.4030  -30.4660   21.6150 C   0  0  0  0  0  3  0  0  0  0  0  0
  -24.8550  -28.9270   20.1870 C   0  0  0  0  0  0  0  0  0  0  0  0
  -25.9240  -30.8320   21.4070 C   0  0  0  0  0  2  0  0  0  0  0  0
  -26.0100  -29.4590   20.7750 C   0  0  0  0  0  0  0  0  0  0  0  0
  -27.2120  -28.7210   20.7740 C   0  0  0  0  0  3  0  0  0  0  0  0
  -26.0950  -26.9230   19.5720 C   0  0  0  0  0  3  0  0  0  0  0  0
  -24.8900  -27.6550   19.5870 C   0  0  0  0  0  3  0  0  0  0  0  0
  -23.6080  -29.7810   20.2360 C   0  0  0  0  0  2  0  0  0  0  0  0
  -24.6660  -31.0730   22.1490 N   0  0  0  0  0  0  0  0  0  0  0  0
  -23.5410  -32.1470   23.7970 O   0  0  0  0  0  0  0  0  0  0  0  0
  -22.7590  -29.4480   22.5810 C   0  0  0  0  0  0  0  0  0  0  0  0
  -21.4340  -29.2650   22.4580 N   0  0  0  0  0  0  0  0  0  0  0  0
  -23.4450  -28.8280   23.3980 O   0  0  0  0  0  0  0  0  0  0  0  0
  -20.9420  -29.8180   21.7700 H   0  0  0  0  0  0  0  0  0  0  0  0
  -18.0640  -28.0620   22.9490 C   0  0  0  0  0  0  0  0  0  0  0  0
  -20.6200  -28.3290   23.2310 C   0  0  0  0  0  3  0  0  0  0  0  0
  -20.7290  -26.8950   22.6620 C   0  0  0  0  0  2  0  0  0  0  0  0
  -19.6320  -26.5630   21.6470 C   0  0  0  0  0  2  0  0  0  0  0  0
  -18.2460  -26.7080   22.2850 C   0  0  0  0  0  2  0  0  0  0  0  0
  -19.1790  -28.8300   23.3790 C   0  0  0  0  0  0  0  0  0  0  0  0
  -18.9540  -30.0970   23.9600 C   0  0  0  0  0  3  0  0  0  0  0  0
  -17.6480  -30.5970   24.1170 C   0  0  0  0  0  3  0  0  0  0  0  0
  -16.5470  -29.8260   23.7040 C   0  0  0  0  0  3  0  0  0  0  0  0
  -16.7560  -28.5600   23.1270 C   0  0  0  0  0  3  0  0  0  0  0  0
  -25.9090  -32.5030   23.8630 C   0  0  0  0  0  3  0  0  0  0  0  0
  -25.6050  -33.9010   24.1950 N   0  0  0  0  0  0  0  0  0  0  0  0
  -25.9380  -34.9520   23.4340 C   0  0  0  0  0  0  0  0  0  0  0  0
  -26.6040  -34.8470   22.4000 O   0  0  0  0  0  0  0  0  0  0  0  0
  -25.0140  -34.0580   24.9980 H   0  0  0  0  0  0  0  0  0  0  0  0
  -24.2080  -36.7440   23.0840 C   0  0  0  0  0  1  0  0  0  0  0  0
  -25.4520  -36.3400   23.8920 C   0  0  0  0  0  3  0  0  0  0  0  0
  -27.5910  -37.2220   24.7140 C   0  0  0  0  0  1  0  0  0  0  0  0
  -26.4850  -37.3920   23.7740 N   0  0  0  0  0  0  0  0  0  0  0  0
  -26.0800  -38.3120   23.9250 H   0  0  0  0  0  0  0  0  0  0  0  0
  -26.4390  -31.7280   25.1320 C   0  0  1  0  0  0  0  0  0  0  0  0
  -25.3550  -31.4900   26.2110 C   0  0  0  0  0  1  0  0  0  0  0  0
  -27.0160  -30.3520   24.7290 C   0  0  0  0  0  1  0  0  0  0  0  0
  -27.5950  -32.5220   25.7860 C   0  0  0  0  0  1  0  0  0  0  0  0
  1  2  2  0
  2  8  1  0
  2  3  1  0
  3  5  1  0
  4  7  1  0
  6  1  1  0
  6  4  2  0
  7  3  2  0
  8  9  1  0
  9 10  1  0
 10 11  1  0
 11 12  1  0
 13 21  1  0
 14 19  1  0
 15 16  1  0
 15 14  1  0
 17 16  1  0
 17 26  1  0
 17 18  1  0
 19 13  1  0
 19 18  1  0
 20 13  2  0
 21 12  1  0
 21 22  1  0
 23 24  2  0
 24 43  1  0
 25 24  1  0
 25 28  1  0
 26 23  1  0
 26 27  1  0
 27 25  2  0
 28 29  1  0
 29 30  2  0
 31 34  1  0
 31 30  1  0
 32 31  2  0
 33 32  1  0
 33 28  2  0
 34 35  1  0
 35 36  1  0
 36 37  2  0
 38 37  1  0
 38 42  1  0
 39 38  2  0
 40 35  2  0
 40 39  1  0
 41 40  1  0
 43 44  1  0
 44 47  1  0
 44 46  1  0
 45 43  2  0
 48 49  1  0
 48 23  1  0
 50 48  1  0
 51  4  1  0
 52 51  1  0
 52 53  1  0
 54 65  2  0
 55 53  1  0
 55 60  1  0
 56 64  1  0
 56 66  1  0
 57 63  1  0
 57 59  1  0
 58 64  1  0
 59 58  1  0
 60 59  2  0
 61 62  1  0
 61 55  2  0
 62 57  2  0
 63 56  1  0
 64 54  1  0
 66 68  2  0
 67 66  1  0
 69 67  1  0
 70 79  2  0
 70 75  1  0
 71 67  1  0
 71 75  1  0
 72 71  1  0
 73 74  1  0
 73 72  1  0
 74 70  1  0
 75 76  2  0
 76 77  1  0
 78 77  2  0
 79 78  1  0
 80 54  1  0
 80 81  1  0
 80 90  1  0
 81 84  1  0
 82 86  1  0
 82 81  1  0
 83 82  2  0
 86 85  1  0
 88 86  1  0
 88 89  1  0
 88 87  1  0
 90 93  1  1
 90 91  1  0
 92 90  1  0
M  ISO  4  13 100  21 100  52 101  53 101
M  END
>  <TORSDO>  (49) 
F 23

>  <SCORE>  (49) 
-12.825

>  <name>  (49) 
48

>  <ligand_id>  (49) 
48

>  <original_smiles>  (49) 
[H]c1nc(C([H])([H])C([H])([H])Oc2c([H])c([H])c3c(c2[H])C([H])([H])N(C(=O)C([H])(N([H])C(=O)C([H])(N([H])C([H])([H])[H])C([H])([H])[H])C(C([H])([H])[H])(C([H])([H])[H])C([H])([H])[H])C([H])(C(=O)N([H])C2([H])c4c([H])c([H])c([H])c([H])c4C([H])([H])C([H])([H])C2([H])[H])C3([H])[H])nc(C([H])([H])[H])c1C([H])([H])C([H])([H])C([H])([H])C([H])([H])C([H])([H])N([H])C(=O)N1C([H])([H])C([H])([H])C([H])([H])C([H])(n2nc(-c3c([H])c([H])c(Oc4c([H])c([H])c(F)c([H])c4F)c([H])c3[H])c(C(=O)N([H])[H])c2N([H])[H])C1([H])[H]

>  <smiles>  (49) 
[H]c1nc(C([H])([H])C([H])([H])Oc2c([H])c([H])c3c(c2[H])C([H])([H])N(C(=O)C([H])(N([H])C(=O)C([H])(N([H])C([H])([H])[H])C([H])([H])[H])C(C([H])([H])[H])(C([H])([H])[H])C([H])([H])[H])C([H])(C(=O)N([H])C2([H])c4c([H])c([H])c([H])c([H])c4C([H])([H])C([H])([H])C2([H])[H])C3([H])[H])nc(C([H])([H])[H])c1C([H])([H])C([H])([H])C([H])([H])C([H])([H])C([H])([H])N([H])C(=O)N1C([H])([H])C([H])([H])C([H])([H])C([H])(n2nc(-c3c([H])c([H])c(Oc4c([H])c([H])c(F)c([H])c4F)c([H])c3[H])c(C(=O)N([H])[H])c2N([H])[H])C1([H])[H]

$$$$
49:0:0
     RDKit          3D

 91 99  0  0  1  0  0  0  0  0999 V2000
  -28.9030  -20.2880   18.8280 C   0  0  0  0  0  3  0  0  0  0  0  0
  -29.1900  -19.0450   18.2400 C   0  0  0  0  0  3  0  0  0  0  0  0
  -29.5550  -19.3870   20.9840 C   0  0  0  0  0  3  0  0  0  0  0  0
  -29.0790  -20.4810   20.2150 C   0  0  0  0  0  0  0  0  0  0  0  0
  -29.6670  -17.9640   19.0060 C   0  0  0  0  0  0  0  0  0  0  0  0
  -29.8630  -18.1250   20.4070 C   0  0  0  0  0  0  0  0  0  0  0  0
  -29.9790  -16.6780   18.2590 C   0  0  0  0  0  1  0  0  0  0  0  0
  -28.7720  -21.8360   20.8800 C   0  0  0  0  0  3  0  0  0  0  0  0
  -28.7050  -23.0490   19.9080 C   0  0  0  0  0  3  0  0  0  0  0  0
  -28.5470  -24.4420   20.5630 C   0  0  0  0  0  2  0  0  0  0  0  0
  -28.5980  -25.5910   19.5280 C   0  0  0  0  0  2  0  0  0  0  0  0
  -28.4210  -26.8760   20.1370 O   0  0  0  0  0  0  0  0  0  0  0  0
  -24.5480  -31.9460   23.2620 C   0  0  0  0  0  0  0  0  0  0  0  0
  -27.1970  -27.5210   20.1430 C   0  0  0  0  0  0  0  0  0  0  0  0
  -23.3320  -30.5420   21.6280 C   0  0  0  0  0  3  0  0  0  0  0  0
  -24.7780  -29.0080   20.1910 C   0  0  0  0  0  0  0  0  0  0  0  0
  -25.8540  -30.9090   21.4090 C   0  0  0  0  0  2  0  0  0  0  0  0
  -25.9380  -29.5400   20.7650 C   0  0  0  0  0  0  0  0  0  0  0  0
  -27.1430  -28.8050   20.7360 C   0  0  0  0  0  3  0  0  0  0  0  0
  -26.0060  -26.9880   19.5930 C   0  0  0  0  0  3  0  0  0  0  0  0
  -24.8070  -27.7290   19.6080 C   0  0  0  0  0  3  0  0  0  0  0  0
  -23.5320  -29.8650   20.2460 C   0  0  0  0  0  2  0  0  0  0  0  0
  -24.5970  -31.1480   22.1580 N   0  0  0  0  0  0  0  0  0  0  0  0
  -23.4710  -32.2150   23.8130 O   0  0  0  0  0  0  0  0  0  0  0  0
  -22.6940  -29.5170   22.5920 C   0  0  0  0  0  0  0  0  0  0  0  0
  -21.3720  -29.3180   22.4640 N   0  0  0  0  0  0  0  0  0  0  0  0
  -23.3860  -28.9030   23.4090 O   0  0  0  0  0  0  0  0  0  0  0  0
  -20.8760  -29.8680   21.7760 H   0  0  0  0  0  0  0  0  0  0  0  0
  -18.0110  -28.0950   22.9670 C   0  0  0  0  0  0  0  0  0  0  0  0
  -20.5660  -28.3740   23.2370 C   0  0  0  0  0  3  0  0  0  0  0  0
  -20.6800  -26.9430   22.6620 C   0  0  0  0  0  2  0  0  0  0  0  0
  -19.5800  -26.6090   21.6510 C   0  0  0  0  0  2  0  0  0  0  0  0
  -18.1990  -26.7450   22.2970 C   0  0  0  0  0  2  0  0  0  0  0  0
  -19.1240  -28.8670   23.3950 C   0  0  0  0  0  0  0  0  0  0  0  0
  -18.8940  -30.1310   23.9810 C   0  0  0  0  0  3  0  0  0  0  0  0
  -17.5860  -30.6220   24.1450 C   0  0  0  0  0  3  0  0  0  0  0  0
  -16.4870  -29.8470   23.7360 C   0  0  0  0  0  3  0  0  0  0  0  0
  -16.7020  -28.5850   23.1510 C   0  0  0  0  0  3  0  0  0  0  0  0
  -25.8370  -32.5800   23.8730 C   0  0  0  0  0  3  0  0  0  0  0  0
  -25.5370  -33.9820   24.1870 N   0  0  0  0  0  0  0  0  0  0  0  0
  -25.8870  -35.0250   23.4220 C   0  0  0  0  0  0  0  0  0  0  0  0
  -26.5670  -34.9060   22.4000 O   0  0  0  0  0  0  0  0  0  0  0  0
  -24.9320  -34.1480   24.9790 H   0  0  0  0  0  0  0  0  0  0  0  0
  -24.1950  -36.8390   23.0040 C   0  0  0  0  0  1  0  0  0  0  0  0
  -25.4010  -36.4200   23.8600 C   0  0  0  0  0  3  0  0  0  0  0  0
  -27.5160  -37.2810   24.7650 C   0  0  0  0  0  1  0  0  0  0  0  0
  -26.4510  -37.4590   23.7810 N   0  0  0  0  0  0  0  0  0  0  0  0
  -26.0520  -38.3850   23.9090 H   0  0  0  0  0  0  0  0  0  0  0  0
  -26.3580  -31.8200   25.1540 C   0  0  1  0  0  0  0  0  0  0  0  0
  -25.2710  -31.5920   26.2300 C   0  0  0  0  0  1  0  0  0  0  0  0
  -26.9390  -30.4400   24.7690 C   0  0  0  0  0  1  0  0  0  0  0  0
  -27.5130  -32.6180   25.8040 C   0  0  0  0  0  1  0  0  0  0  0  0
  -30.4920  -17.0460   21.3180 C   0  0  0  0  0  2  0  0  0  0  0  0
  -30.7620  -14.6070   20.7780 C   0  0  0  0  0  0  0  0  0  0  0  0
  -30.5350  -12.4030   19.6980 C   0  0  0  0  0  2  0  0  0  0  0  0
  -29.6570  -12.5350   18.4360 C   0  0  0  0  0  2  0  0  0  0  0  0
  -28.1640  -12.4000   18.8010 C   0  0  0  0  0  2  0  0  0  0  0  0
  -27.7500  -13.2880   20.0040 C   0  0  0  0  0  3  0  0  0  0  0  0
  -28.7490  -13.1390   21.1710 C   0  0  0  0  0  2  0  0  0  0  0  0
  -30.0970  -13.4270   20.6580 N   0  0  0  0  0  0  0  0  0  0  0  0
  -31.9200  -14.7610   20.3790 O   0  0  0  0  0  0  0  0  0  0  0  0
  -30.0260  -15.6550   21.1970 N   0  0  0  0  0  0  0  0  0  0  0  0
  -29.0760  -15.4660   21.4770 H   0  0  0  0  0  0  0  0  0  0  0  0
  -25.3210  -13.8890   20.6150 C   0  0  0  0  0  0  0  0  0  0  0  0
  -24.2420  -13.1120   20.9460 C   0  0  0  0  0  0  0  0  0  0  0  0
  -24.7110  -11.7630   20.9440 C   0  0  0  0  0  0  0  0  0  0  0  0
  -26.3780  -13.0110   20.4280 N   0  0  0  0  0  0  0  0  0  0  0  0
  -26.0130  -11.7290   20.6890 N   0  0  0  0  0  0  0  0  0  0  0  0
  -23.9850  -10.4980   21.1090 C   0  0  0  0  0  0  0  0  0  0  0  0
  -24.3840   -9.5410   22.0690 C   0  0  0  0  0  3  0  0  0  0  0  0
  -23.6620   -8.3370   22.2210 C   0  0  0  0  0  3  0  0  0  0  0  0
  -22.5270   -8.0830   21.4120 C   0  0  0  0  0  0  0  0  0  0  0  0
  -22.1500   -9.0280   20.4410 C   0  0  0  0  0  3  0  0  0  0  0  0
  -22.8730  -10.2230   20.2890 C   0  0  0  0  0  3  0  0  0  0  0  0
  -21.7790   -6.9330   21.4730 O   0  0  0  0  0  0  0  0  0  0  0  0
  -21.6680   -6.2060   22.6300 C   0  0  0  0  0  0  0  0  0  0  0  0
  -21.1330   -6.7630   23.8110 C   0  0  0  0  0  3  0  0  0  0  0  0
  -20.9720   -5.9590   24.9580 C   0  0  0  0  0  3  0  0  0  0  0  0
  -21.3350   -4.5990   24.9240 C   0  0  0  0  0  0  0  0  0  0  0  0
  -21.8620   -4.0420   23.7450 C   0  0  0  0  0  3  0  0  0  0  0  0
  -22.0250   -4.8430   22.6020 C   0  0  0  0  0  0  0  0  0  0  0  0
  -22.5120   -4.2940   21.4630 F   0  0  0  0  0  0  0  0  0  0  0  0
  -21.1730   -3.8270   26.0230 F   0  0  0  0  0  0  0  0  0  0  0  0
  -22.8280  -13.5810   21.1510 C   0  0  0  0  0  0  0  0  0  0  0  0
  -22.0630  -12.8840   21.9830 N   0  0  0  0  0  0  0  0  0  0  0  0
  -22.4100  -14.6020   20.6080 O   0  0  0  0  0  0  0  0  0  0  0  0
  -22.4140  -12.0600   22.4490 H   0  0  0  0  0  0  0  0  0  0  0  0
  -21.1130  -13.1790   22.1630 H   0  0  0  0  0  0  0  0  0  0  0  0
  -25.4830  -15.2600   20.4380 N   0  0  0  0  0  0  0  0  0  0  0  0
  -24.7110  -15.9100   20.5480 H   0  0  0  0  0  0  0  0  0  0  0  0
  -26.3420  -15.7070   20.1440 H   0  0  0  0  0  0  0  0  0  0  0  0
  1  4  1  0
  2  1  2  0
  2  5  1  0
  4  8  1  0
  4  3  2  0
  5  6  2  0
  6  3  1  0
  6 53  1  0
  7  5  1  0
  9 10  1  0
  9  8  2  0
 11 12  1  0
 11 10  1  0
 12 14  1  0
 13 24  2  0
 14 19  1  0
 15 23  1  0
 15 25  1  0
 16 22  1  0
 16 18  1  0
 17 23  1  0
 18 17  1  0
 19 18  2  0
 20 21  1  0
 20 14  2  0
 21 16  2  0
 22 15  1  0
 23 13  1  0
 25 27  2  0
 26 25  1  0
 28 26  1  0
 29 38  2  0
 29 34  1  0
 30 26  1  0
 30 34  1  0
 31 30  1  0
 32 33  1  0
 32 31  1  0
 33 29  1  0
 34 35  2  0
 35 36  1  0
 37 36  2  0
 38 37  1  0
 39 13  1  0
 39 40  1  0
 39 49  1  0
 40 43  1  0
 41 45  1  0
 41 40  1  0
 42 41  2  0
 45 44  1  0
 47 45  1  0
 47 48  1  0
 47 46  1  0
 49 52  1  1
 49 50  1  0
 51 49  1  0
 54 62  1  0
 55 60  1  0
 56 57  1  0
 56 55  1  0
 58 57  1  0
 58 67  1  0
 58 59  1  0
 60 54  1  0
 60 59  1  0
 61 54  2  0
 62 53  1  0
 62 63  1  0
 64 65  2  0
 65 84  1  0
 66 65  1  0
 66 69  1  0
 67 64  1  0
 67 68  1  0
 68 66  2  0
 69 70  1  0
 70 71  2  0
 72 75  1  0
 72 71  1  0
 73 72  2  0
 74 73  1  0
 74 69  2  0
 75 76  1  0
 76 77  1  0
 77 78  2  0
 79 78  1  0
 79 83  1  0
 80 79  2  0
 81 76  2  0
 81 80  1  0
 82 81  1  0
 84 85  1  0
 85 88  1  0
 85 87  1  0
 86 84  2  0
 89 90  1  0
 89 64  1  0
 91 89  1  0
M  ISO  4  11 101  12 101  54 100  62 100
M  END
>  <TORSDO>  (50) 
F 21

>  <SCORE>  (50) 
-13.122

>  <name>  (50) 
49

>  <ligand_id>  (50) 
49

>  <original_smiles>  (50) 
[H]c1c([H])c([H])c2c(c1[H])C([H])([H])C([H])([H])C([H])([H])C2([H])N([H])C(=O)C1([H])N(C(=O)C([H])(N([H])C(=O)C([H])(N([H])C([H])([H])[H])C([H])([H])[H])C(C([H])([H])[H])(C([H])([H])[H])C([H])([H])[H])C([H])([H])c2c([H])c(OC([H])([H])C([H])([H])C([H])([H])C([H])([H])c3c([H])c([H])c(C([H])([H])[H])c(C([H])([H])N([H])C(=O)N4C([H])([H])C([H])([H])C([H])([H])C([H])(n5nc(-c6c([H])c([H])c(Oc7c([H])c([H])c(F)c([H])c7F)c([H])c6[H])c(C(=O)N([H])[H])c5N([H])[H])C4([H])[H])c3[H])c([H])c([H])c2C1([H])[H]

>  <smiles>  (50) 
[H]c1c([H])c([H])c2c(c1[H])C([H])([H])C([H])([H])C([H])([H])C2([H])N([H])C(=O)C1([H])N(C(=O)C([H])(N([H])C(=O)C([H])(N([H])C([H])([H])[H])C([H])([H])[H])C(C([H])([H])[H])(C([H])([H])[H])C([H])([H])[H])C([H])([H])c2c([H])c(OC([H])([H])C([H])([H])C([H])([H])C([H])([H])c3c([H])c([H])c(C([H])([H])[H])c(C([H])([H])N([H])C(=O)N4C([H])([H])C([H])([H])C([H])([H])C([H])(n5nc(-c6c([H])c([H])c(Oc7c([H])c([H])c(F)c([H])c7F)c([H])c6[H])c(C(=O)N([H])[H])c5N([H])[H])C4([H])[H])c3[H])c([H])c([H])c2C1([H])[H]

$$$$
50:0:0
     RDKit          3D

 93101  0  0  1  0  0  0  0  0999 V2000
  -28.1620  -22.8530   21.1460 C   0  0  0  0  0  0  0  0  0  0  0  0
  -28.4550  -23.4650   18.5310 C   0  0  0  0  0  0  0  0  0  0  0  0
  -28.1290  -21.8460   20.1440 C   0  0  0  0  0  0  0  0  0  0  0  0
  -28.4730  -24.4780   19.5270 C   0  0  0  0  0  0  0  0  0  0  0  0
  -28.0920  -22.5280   22.6270 C   0  0  0  0  0  1  0  0  0  0  0  0
  -28.7170  -23.7660   17.0670 C   0  0  0  0  0  1  0  0  0  0  0  0
  -28.2590  -22.1610   18.8340 N   0  0  0  0  0  0  0  0  0  0  0  0
  -28.3170  -24.1640   20.8380 N   0  0  0  0  0  0  0  0  0  0  0  0
  -28.0320  -20.3510   20.4500 C   0  0  0  0  0  2  0  0  0  0  0  0
  -29.4000  -19.6540   20.2900 C   0  0  0  0  0  2  0  0  0  0  0  0
  -29.4960  -18.2100   20.8330 C   0  0  0  0  0  2  0  0  0  0  0  0
  -30.9610  -17.7190   20.8380 C   0  0  0  0  0  2  0  0  0  0  0  0
  -31.2220  -16.4270   21.6350 C   0  0  0  0  0  2  0  0  0  0  0  0
  -31.0140  -14.4220   20.1460 C   0  0  0  0  0  0  0  0  0  0  0  0
  -30.6050  -12.3030   18.9360 C   0  0  0  0  0  2  0  0  0  0  0  0
  -29.6390  -12.5070   17.7510 C   0  0  0  0  0  2  0  0  0  0  0  0
  -28.1740  -12.4050   18.2180 C   0  0  0  0  0  2  0  0  0  0  0  0
  -27.8870  -13.2930   19.4550 C   0  0  0  0  0  3  0  0  0  0  0  0
  -28.9460  -13.0420   20.5500 C   0  0  0  0  0  2  0  0  0  0  0  0
  -30.2780  -13.2970   19.9700 N   0  0  0  0  0  0  0  0  0  0  0  0
  -32.0490  -14.6650   19.5130 O   0  0  0  0  0  0  0  0  0  0  0  0
  -30.5500  -15.2510   21.0900 N   0  0  0  0  0  0  0  0  0  0  0  0
  -29.6930  -14.9670   21.5440 H   0  0  0  0  0  0  0  0  0  0  0  0
  -25.5350  -14.0060   20.2250 C   0  0  0  0  0  0  0  0  0  0  0  0
  -24.4440  -13.2780   20.6200 C   0  0  0  0  0  0  0  0  0  0  0  0
  -24.8460  -11.9070   20.5720 C   0  0  0  0  0  0  0  0  0  0  0  0
  -26.5340  -13.0820   19.9650 N   0  0  0  0  0  0  0  0  0  0  0  0
  -26.1240  -11.8140   20.2280 N   0  0  0  0  0  0  0  0  0  0  0  0
  -24.0750  -10.6760   20.7760 C   0  0  0  0  0  0  0  0  0  0  0  0
  -24.4670   -9.7090   21.7260 C   0  0  0  0  0  3  0  0  0  0  0  0
  -23.6990   -8.5400   21.9150 C   0  0  0  0  0  3  0  0  0  0  0  0
  -22.5250   -8.3300   21.1520 C   0  0  0  0  0  0  0  0  0  0  0  0
  -22.1530   -9.2850   20.1920 C   0  0  0  0  0  3  0  0  0  0  0  0
  -22.9200  -10.4460   20.0010 C   0  0  0  0  0  3  0  0  0  0  0  0
  -21.7320   -7.2130   21.2490 O   0  0  0  0  0  0  0  0  0  0  0  0
  -21.6170   -6.5110   22.4230 C   0  0  0  0  0  0  0  0  0  0  0  0
  -21.1730   -7.1200   23.6160 C   0  0  0  0  0  3  0  0  0  0  0  0
  -21.0040   -6.3460   24.7810 C   0  0  0  0  0  3  0  0  0  0  0  0
  -21.2700   -4.9640   24.7540 C   0  0  0  0  0  0  0  0  0  0  0  0
  -21.7090   -4.3540   23.5650 C   0  0  0  0  0  3  0  0  0  0  0  0
  -21.8790   -5.1250   22.4020 C   0  0  0  0  0  0  0  0  0  0  0  0
  -22.2810   -4.5300   21.2530 F   0  0  0  0  0  0  0  0  0  0  0  0
  -21.1020   -4.2170   25.8710 F   0  0  0  0  0  0  0  0  0  0  0  0
  -23.0750  -13.8110   20.9270 C   0  0  0  0  0  0  0  0  0  0  0  0
  -22.3410  -13.1440   21.8110 N   0  0  0  0  0  0  0  0  0  0  0  0
  -22.6630  -14.8510   20.4160 O   0  0  0  0  0  0  0  0  0  0  0  0
  -22.6830  -12.2980   22.2410 H   0  0  0  0  0  0  0  0  0  0  0  0
  -21.4210  -13.4830   22.0560 H   0  0  0  0  0  0  0  0  0  0  0  0
  -25.7520  -15.3700   20.0480 N   0  0  0  0  0  0  0  0  0  0  0  0
  -25.0230  -16.0590   20.1930 H   0  0  0  0  0  0  0  0  0  0  0  0
  -26.6180  -15.7740   19.7110 H   0  0  0  0  0  0  0  0  0  0  0  0
  -28.7710  -25.9380   19.1690 C   0  0  0  0  0  2  0  0  0  0  0  0
  -28.4950  -26.8980   20.1950 O   0  0  0  0  0  0  0  0  0  0  0  0
  -24.5580  -31.9310   23.3010 C   0  0  0  0  0  0  0  0  0  0  0  0
  -27.2830  -27.5540   20.1960 C   0  0  0  0  0  0  0  0  0  0  0  0
  -23.3780  -30.5250   21.6400 C   0  0  0  0  0  3  0  0  0  0  0  0
  -24.8600  -29.0120   20.2180 C   0  0  0  0  0  0  0  0  0  0  0  0
  -25.8980  -30.9210   21.4580 C   0  0  0  0  0  2  0  0  0  0  0  0
  -26.0050  -29.5530   20.8140 C   0  0  0  0  0  0  0  0  0  0  0  0
  -27.2160  -28.8260   20.8080 C   0  0  0  0  0  3  0  0  0  0  0  0
  -26.1120  -27.0130   19.6170 C   0  0  0  0  0  3  0  0  0  0  0  0
  -24.9050  -27.7380   19.6250 C   0  0  0  0  0  3  0  0  0  0  0  0
  -23.6010  -29.8480   20.2620 C   0  0  0  0  0  2  0  0  0  0  0  0
  -24.6300  -31.1390   22.1920 N   0  0  0  0  0  0  0  0  0  0  0  0
  -23.4690  -32.1870   23.8300 O   0  0  0  0  0  0  0  0  0  0  0  0
  -22.7310  -29.4920   22.5890 C   0  0  0  0  0  0  0  0  0  0  0  0
  -21.4110  -29.2960   22.4460 N   0  0  0  0  0  0  0  0  0  0  0  0
  -23.4140  -28.8690   23.4050 O   0  0  0  0  0  0  0  0  0  0  0  0
  -20.9180  -29.8520   21.7610 H   0  0  0  0  0  0  0  0  0  0  0  0
  -18.0450  -28.0740   22.8930 C   0  0  0  0  0  0  0  0  0  0  0  0
  -20.5960  -28.3460   23.2000 C   0  0  0  0  0  3  0  0  0  0  0  0
  -20.7160  -26.9220   22.6080 C   0  0  0  0  0  2  0  0  0  0  0  0
  -19.6280  -26.6020   21.5770 C   0  0  0  0  0  2  0  0  0  0  0  0
  -18.2370  -26.7340   22.2040 C   0  0  0  0  0  2  0  0  0  0  0  0
  -19.1520  -28.8400   23.3430 C   0  0  0  0  0  0  0  0  0  0  0  0
  -18.9160  -30.1000   23.9350 C   0  0  0  0  0  3  0  0  0  0  0  0
  -17.6050  -30.5880   24.0930 C   0  0  0  0  0  3  0  0  0  0  0  0
  -16.5110  -29.8150   23.6630 C   0  0  0  0  0  3  0  0  0  0  0  0
  -16.7320  -28.5610   23.0670 C   0  0  0  0  0  3  0  0  0  0  0  0
  -25.8340  -32.5690   23.9350 C   0  0  0  0  0  3  0  0  0  0  0  0
  -25.5200  -33.9680   24.2510 N   0  0  0  0  0  0  0  0  0  0  0  0
  -25.8700  -35.0160   23.4920 C   0  0  0  0  0  0  0  0  0  0  0  0
  -26.5620  -34.9060   22.4750 O   0  0  0  0  0  0  0  0  0  0  0  0
  -24.9100  -34.1310   25.0400 H   0  0  0  0  0  0  0  0  0  0  0  0
  -24.1490  -36.8010   23.0890 C   0  0  0  0  0  1  0  0  0  0  0  0
  -25.3710  -36.4040   23.9320 C   0  0  0  0  0  3  0  0  0  0  0  0
  -27.4850  -37.2900   24.8130 C   0  0  0  0  0  1  0  0  0  0  0  0
  -26.4060  -37.4580   23.8430 N   0  0  0  0  0  0  0  0  0  0  0  0
  -25.9950  -38.3760   23.9880 H   0  0  0  0  0  0  0  0  0  0  0  0
  -26.3410  -31.8080   25.2210 C   0  0  1  0  0  0  0  0  0  0  0  0
  -25.2330  -31.5500   26.2690 C   0  0  0  0  0  1  0  0  0  0  0  0
  -26.9520  -30.4410   24.8390 C   0  0  0  0  0  1  0  0  0  0  0  0
  -27.4700  -32.6190   25.9030 C   0  0  0  0  0  1  0  0  0  0  0  0
  1  5  1  0
  2  7  2  0
  2  4  1  0
  3  9  1  0
  3  1  2  0
  4  8  2  0
  6  2  1  0
  7  3  1  0
  8  1  1  0
 10  9  1  0
 10 11  1  0
 11 12  1  0
 12 13  1  0
 14 22  1  0
 15 20  1  0
 16 17  1  0
 16 15  1  0
 18 17  1  0
 18 27  1  0
 18 19  1  0
 20 14  1  0
 20 19  1  0
 21 14  2  0
 22 23  1  0
 22 13  1  0
 24 25  2  0
 25 44  1  0
 26 25  1  0
 26 29  1  0
 27 24  1  0
 27 28  1  0
 28 26  2  0
 29 30  1  0
 30 31  2  0
 32 35  1  0
 32 31  1  0
 33 32  2  0
 34 33  1  0
 34 29  2  0
 35 36  1  0
 36 37  1  0
 37 38  2  0
 39 38  1  0
 39 43  1  0
 40 39  2  0
 41 36  2  0
 41 40  1  0
 42 41  1  0
 44 45  1  0
 45 48  1  0
 45 47  1  0
 46 44  2  0
 49 50  1  0
 49 24  1  0
 51 49  1  0
 52  4  1  0
 52 53  1  0
 53 55  1  0
 54 65  2  0
 55 60  1  0
 56 64  1  0
 56 66  1  0
 57 63  1  0
 57 59  1  0
 58 64  1  0
 59 58  1  0
 60 59  2  0
 61 62  1  0
 61 55  2  0
 62 57  2  0
 63 56  1  0
 64 54  1  0
 66 68  2  0
 67 66  1  0
 69 67  1  0
 70 79  2  0
 70 75  1  0
 71 67  1  0
 71 75  1  0
 72 71  1  0
 73 74  1  0
 73 72  1  0
 74 70  1  0
 75 76  2  0
 76 77  1  0
 78 77  2  0
 79 78  1  0
 80 54  1  0
 80 81  1  0
 80 90  1  0
 81 84  1  0
 82 86  1  0
 82 81  1  0
 83 82  2  0
 86 85  1  0
 88 86  1  0
 88 89  1  0
 88 87  1  0
 90 93  1  1
 90 91  1  0
 92 90  1  0
M  ISO  4  14 100  22 100  52 101  53 101
M  END
>  <TORSDO>  (51) 
F 22

>  <SCORE>  (51) 
-12.335

>  <name>  (51) 
50

>  <ligand_id>  (51) 
50

>  <original_smiles>  (51) 
[H]c1c([H])c([H])c2c(c1[H])C([H])([H])C([H])([H])C([H])([H])C2([H])N([H])C(=O)C1([H])N(C(=O)C([H])(N([H])C(=O)C([H])(N([H])C([H])([H])[H])C([H])([H])[H])C(C([H])([H])[H])(C([H])([H])[H])C([H])([H])[H])C([H])([H])c2c([H])c(OC([H])([H])c3nc(C([H])([H])[H])c(C([H])([H])C([H])([H])C([H])([H])C([H])([H])C([H])([H])N([H])C(=O)N4C([H])([H])C([H])([H])C([H])([H])C([H])(n5nc(-c6c([H])c([H])c(Oc7c([H])c([H])c(F)c([H])c7F)c([H])c6[H])c(C(=O)N([H])[H])c5N([H])[H])C4([H])[H])nc3C([H])([H])[H])c([H])c([H])c2C1([H])[H]

>  <smiles>  (51) 
[H]c1c([H])c([H])c2c(c1[H])C([H])([H])C([H])([H])C([H])([H])C2([H])N([H])C(=O)C1([H])N(C(=O)C([H])(N([H])C(=O)C([H])(N([H])C([H])([H])[H])C([H])([H])[H])C(C([H])([H])[H])(C([H])([H])[H])C([H])([H])[H])C([H])([H])c2c([H])c(OC([H])([H])c3nc(C([H])([H])[H])c(C([H])([H])C([H])([H])C([H])([H])C([H])([H])C([H])([H])N([H])C(=O)N4C([H])([H])C([H])([H])C([H])([H])C([H])(n5nc(-c6c([H])c([H])c(Oc7c([H])c([H])c(F)c([H])c7F)c([H])c6[H])c(C(=O)N([H])[H])c5N([H])[H])C4([H])[H])nc3C([H])([H])[H])c([H])c([H])c2C1([H])[H]

$$$$
51:0:0
     RDKit          3D

 93101  0  0  1  0  0  0  0  0999 V2000
  -30.7930  -21.8980   20.3310 C   0  0  0  0  0  3  0  0  0  0  0  0
  -31.2070  -19.4940   20.7490 C   0  0  0  0  0  3  0  0  0  0  0  0
  -31.6000  -20.8500   20.8380 C   0  0  0  0  0  0  0  0  0  0  0  0
  -29.5850  -21.6760   19.6400 C   0  0  0  0  0  0  0  0  0  0  0  0
  -30.0010  -19.0810   20.1480 C   0  0  0  0  0  0  0  0  0  0  0  0
  -29.2160  -20.2180   19.5480 C   0  0  0  0  0  0  0  0  0  0  0  0
  -33.8370  -22.0900   20.6960 C   0  0  0  0  0  1  0  0  0  0  0  0
  -32.9190  -21.1810   21.5250 C   0  0  0  0  0  2  0  0  0  0  0  0
  -28.9420  -23.0420   18.9160 C   0  0  0  0  0  2  0  0  0  0  0  0
  -28.4890  -24.5270   19.6210 C   0  0  0  0  0  2  0  0  0  0  0  0
  -28.3700  -25.9800   19.0350 O   0  0  0  0  0  0  0  0  0  0  0  0
  -24.6410  -31.2610   22.6900 C   0  0  0  0  0  0  0  0  0  0  0  0
  -27.2620  -26.8940   19.1920 C   0  0  0  0  0  0  0  0  0  0  0  0
  -23.4410  -29.9960   20.9470 C   0  0  0  0  0  3  0  0  0  0  0  0
  -24.8930  -28.5800   19.3650 C   0  0  0  0  0  0  0  0  0  0  0  0
  -25.9830  -30.3330   20.7610 C   0  0  0  0  0  2  0  0  0  0  0  0
  -26.0760  -29.0040   19.9840 C   0  0  0  0  0  0  0  0  0  0  0  0
  -27.2630  -28.1830   19.8700 C   0  0  0  0  0  3  0  0  0  0  0  0
  -26.0470  -26.5650   18.5610 C   0  0  0  0  0  3  0  0  0  0  0  0
  -24.8910  -27.3780   18.6380 C   0  0  0  0  0  3  0  0  0  0  0  0
  -23.6500  -29.4470   19.5110 C   0  0  0  0  0  2  0  0  0  0  0  0
  -24.7100  -30.5490   21.5230 N   0  0  0  0  0  0  0  0  0  0  0  0
  -23.5620  -31.4680   23.2620 O   0  0  0  0  0  0  0  0  0  0  0  0
  -22.8040  -28.8900   21.8270 C   0  0  0  0  0  0  0  0  0  0  0  0
  -21.4710  -28.7330   21.7470 N   0  0  0  0  0  0  0  0  0  0  0  0
  -23.5120  -28.1780   22.5450 O   0  0  0  0  0  0  0  0  0  0  0  0
  -20.9550  -29.3630   21.1490 H   0  0  0  0  0  0  0  0  0  0  0  0
  -18.1100  -27.5090   22.3170 C   0  0  0  0  0  0  0  0  0  0  0  0
  -20.6830  -27.7160   22.4490 C   0  0  0  0  0  3  0  0  0  0  0  0
  -20.7250  -26.3650   21.6970 C   0  0  0  0  0  2  0  0  0  0  0  0
  -19.5560  -26.1790   20.7240 C   0  0  0  0  0  2  0  0  0  0  0  0
  -18.2210  -26.2540   21.4680 C   0  0  0  0  0  2  0  0  0  0  0  0
  -19.2650  -28.2040   22.7650 C   0  0  0  0  0  0  0  0  0  0  0  0
  -19.1000  -29.3840   23.5230 C   0  0  0  0  0  3  0  0  0  0  0  0
  -17.8140  -29.8670   23.8350 C   0  0  0  0  0  3  0  0  0  0  0  0
  -16.6760  -29.1680   23.3990 C   0  0  0  0  0  3  0  0  0  0  0  0
  -16.8250  -27.9890   22.6460 C   0  0  0  0  0  3  0  0  0  0  0  0
  -25.9160  -31.8670   23.3530 C   0  0  0  0  0  3  0  0  0  0  0  0
  -25.5480  -33.1730   23.9250 N   0  0  0  0  0  0  0  0  0  0  0  0
  -25.8360  -34.3590   23.3720 C   0  0  0  0  0  0  0  0  0  0  0  0
  -26.5020  -34.4690   22.3410 O   0  0  0  0  0  0  0  0  0  0  0  0
  -24.9530  -33.1550   24.7400 H   0  0  0  0  0  0  0  0  0  0  0  0
  -24.0370  -36.1200   23.3470 C   0  0  0  0  0  1  0  0  0  0  0  0
  -25.2990  -35.6250   24.0730 C   0  0  0  0  0  3  0  0  0  0  0  0
  -27.4020  -36.4330   25.0530 C   0  0  0  0  0  1  0  0  0  0  0  0
  -26.2910  -36.7200   24.1500 N   0  0  0  0  0  0  0  0  0  0  0  0
  -25.8510  -37.5850   24.4540 H   0  0  0  0  0  0  0  0  0  0  0  0
  -26.5370  -30.9370   24.4670 C   0  0  1  0  0  0  0  0  0  0  0  0
  -25.5190  -30.4810   25.5390 C   0  0  0  0  0  1  0  0  0  0  0  0
  -27.1570  -29.6690   23.8410 C   0  0  0  0  0  1  0  0  0  0  0  0
  -27.6890  -31.6780   25.1850 C   0  0  0  0  0  1  0  0  0  0  0  0
  -28.0000  -19.8590   18.7010 C   0  0  0  0  0  2  0  0  0  0  0  0
  -26.4870  -18.2580   20.0370 C   0  0  0  0  0  1  0  0  0  0  0  0
  -26.6890  -19.6730   19.4840 C   0  0  0  0  0  2  0  0  0  0  0  0
  -29.5740  -17.5060   20.4930 C   0  0  0  0  0  2  0  0  0  0  0  0
  -30.6160  -14.9350   19.8950 C   0  0  0  0  0  0  0  0  0  0  0  0
  -30.5000  -12.5750   18.9430 C   0  0  0  0  0  2  0  0  0  0  0  0
  -29.4880  -12.4890   17.7780 C   0  0  0  0  0  2  0  0  0  0  0  0
  -28.0520  -12.2710   18.3020 C   0  0  0  0  0  2  0  0  0  0  0  0
  -27.7060  -13.1990   19.4960 C   0  0  0  0  0  3  0  0  0  0  0  0
  -28.8310  -13.2280   20.5480 C   0  0  0  0  0  2  0  0  0  0  0  0
  -30.0400  -13.6680   19.8390 N   0  0  0  0  0  0  0  0  0  0  0  0
  -31.8400  -15.0070   19.7400 O   0  0  0  0  0  0  0  0  0  0  0  0
  -29.7810  -16.0910   19.7950 N   0  0  0  0  0  0  0  0  0  0  0  0
  -28.8840  -15.7830   19.4490 H   0  0  0  0  0  0  0  0  0  0  0  0
  -25.3810  -13.7750   20.3910 C   0  0  0  0  0  0  0  0  0  0  0  0
  -24.3380  -13.0000   20.8120 C   0  0  0  0  0  0  0  0  0  0  0  0
  -24.7970  -11.6480   20.7400 C   0  0  0  0  0  0  0  0  0  0  0  0
  -26.4050  -12.8970   20.0790 N   0  0  0  0  0  0  0  0  0  0  0  0
  -26.0690  -11.6130   20.3580 N   0  0  0  0  0  0  0  0  0  0  0  0
  -24.0800  -10.3850   20.9550 C   0  0  0  0  0  0  0  0  0  0  0  0
  -24.4950   -9.4560   21.9350 C   0  0  0  0  0  3  0  0  0  0  0  0
  -23.7750   -8.2580   22.1350 C   0  0  0  0  0  3  0  0  0  0  0  0
  -22.6270   -7.9810   21.3550 C   0  0  0  0  0  0  0  0  0  0  0  0
  -22.2330   -8.8970   20.3650 C   0  0  0  0  0  3  0  0  0  0  0  0
  -22.9520  -10.0870   20.1640 C   0  0  0  0  0  3  0  0  0  0  0  0
  -21.8810   -6.8320   21.4630 O   0  0  0  0  0  0  0  0  0  0  0  0
  -21.7190   -6.1900   22.6640 C   0  0  0  0  0  0  0  0  0  0  0  0
  -21.1610   -6.8400   23.7870 C   0  0  0  0  0  3  0  0  0  0  0  0
  -20.9450   -6.1220   24.9800 C   0  0  0  0  0  3  0  0  0  0  0  0
  -21.2800   -4.7570   25.0520 C   0  0  0  0  0  0  0  0  0  0  0  0
  -21.8310   -4.1070   23.9350 C   0  0  0  0  0  3  0  0  0  0  0  0
  -22.0470   -4.8220   22.7420 C   0  0  0  0  0  0  0  0  0  0  0  0
  -22.5580   -4.1850   21.6610 F   0  0  0  0  0  0  0  0  0  0  0  0
  -21.0670   -4.0660   26.1960 F   0  0  0  0  0  0  0  0  0  0  0  0
  -22.9600  -13.4760   21.1640 C   0  0  0  0  0  0  0  0  0  0  0  0
  -22.2900  -12.7880   22.0820 N   0  0  0  0  0  0  0  0  0  0  0  0
  -22.4880  -14.4920   20.6570 O   0  0  0  0  0  0  0  0  0  0  0  0
  -22.6880  -11.9670   22.5130 H   0  0  0  0  0  0  0  0  0  0  0  0
  -21.3670  -13.0910   22.3600 H   0  0  0  0  0  0  0  0  0  0  0  0
  -25.5350  -15.1480   20.2190 N   0  0  0  0  0  0  0  0  0  0  0  0
  -24.7690  -15.7950   20.3730 H   0  0  0  0  0  0  0  0  0  0  0  0
  -26.3470  -15.5900   19.8120 H   0  0  0  0  0  0  0  0  0  0  0  0
  1  3  1  0
  2  3  2  0
  3  8  1  0
  4  1  2  0
  5 55  1  0
  5  2  1  0
  6  4  1  0
  6  5  2  0
  7  8  1  0
  9 10  1  0
  9  4  1  0
 11 13  1  0
 11 10  1  0
 12 23  2  0
 13 18  1  0
 14 22  1  0
 14 24  1  0
 15 21  1  0
 15 17  1  0
 16 22  1  0
 17 16  1  0
 18 17  2  0
 19 20  1  0
 19 13  2  0
 20 15  2  0
 21 14  1  0
 22 12  1  0
 24 26  2  0
 25 24  1  0
 27 25  1  0
 28 37  2  0
 28 33  1  0
 29 25  1  0
 29 33  1  0
 30 29  1  0
 31 32  1  0
 31 30  1  0
 32 28  1  0
 33 34  2  0
 34 35  1  0
 36 35  2  0
 37 36  1  0
 38 12  1  0
 38 39  1  0
 38 48  1  0
 39 42  1  0
 40 39  1  0
 40 44  1  0
 41 40  2  0
 44 43  1  0
 44 46  1  0
 46 47  1  0
 46 45  1  0
 48 51  1  1
 48 49  1  0
 50 48  1  0
 52 54  1  0
 52  6  1  0
 54 53  1  0
 57 62  1  0
 58 59  1  0
 58 57  1  0
 60 59  1  0
 60 69  1  0
 60 61  1  0
 62 56  1  0
 62 61  1  0
 63 56  2  0
 64 56  1  0
 64 55  1  0
 65 64  1  0
 66 67  2  0
 67 86  1  0
 68 67  1  0
 68 71  1  0
 69 70  1  0
 69 66  1  0
 70 68  2  0
 71 72  1  0
 72 73  2  0
 74 77  1  0
 74 73  1  0
 75 74  2  0
 76 75  1  0
 76 71  2  0
 77 78  1  0
 78 83  2  0
 78 79  1  0
 79 80  2  0
 80 81  1  0
 81 85  1  0
 82 81  2  0
 83 82  1  0
 84 83  1  0
 86 87  1  0
 87 90  1  0
 87 89  1  0
 88 86  2  0
 91 92  1  0
 91 66  1  0
 93 91  1  0
M  ISO  4  10 101  11 101  56 100  64 100
M  END
>  <TORSDO>  (52) 
F 22

>  <SCORE>  (52) 
-11.484

>  <name>  (52) 
51

>  <ligand_id>  (52) 
51

>  <original_smiles>  (52) 
[H]c1c([H])c([H])c2c(c1[H])C([H])([H])C([H])([H])C([H])([H])C2([H])N([H])C(=O)C1([H])N(C(=O)C([H])(N([H])C(=O)C([H])(N([H])C([H])([H])[H])C([H])([H])[H])C(C([H])([H])[H])(C([H])([H])[H])C([H])([H])[H])C([H])([H])c2c([H])c(OC([H])([H])C([H])([H])c3c([H])c(C([H])([H])C([H])([H])[H])c([H])c(C([H])([H])N([H])C(=O)N4C([H])([H])C([H])([H])C([H])([H])C([H])(n5nc(-c6c([H])c([H])c(Oc7c([H])c([H])c(F)c([H])c7F)c([H])c6[H])c(C(=O)N([H])[H])c5N([H])[H])C4([H])[H])c3C([H])([H])C([H])([H])C([H])([H])[H])c([H])c([H])c2C1([H])[H]

>  <smiles>  (52) 
[H]c1c([H])c([H])c2c(c1[H])C([H])([H])C([H])([H])C([H])([H])C2([H])N([H])C(=O)C1([H])N(C(=O)C([H])(N([H])C(=O)C([H])(N([H])C([H])([H])[H])C([H])([H])[H])C(C([H])([H])[H])(C([H])([H])[H])C([H])([H])[H])C([H])([H])c2c([H])c(OC([H])([H])C([H])([H])c3c([H])c(C([H])([H])C([H])([H])[H])c([H])c(C([H])([H])N([H])C(=O)N4C([H])([H])C([H])([H])C([H])([H])C([H])(n5nc(-c6c([H])c([H])c(Oc7c([H])c([H])c(F)c([H])c7F)c([H])c6[H])c(C(=O)N([H])[H])c5N([H])[H])C4([H])[H])c3C([H])([H])C([H])([H])C([H])([H])[H])c([H])c([H])c2C1([H])[H]

$$$$
52:0:0
     RDKit          3D

 92100  0  0  1  0  0  0  0  0999 V2000
  -29.5950  -17.8440   18.8020 C   0  0  0  0  0  3  0  0  0  0  0  0
  -29.6900  -19.5570   20.5400 C   0  0  0  0  0  3  0  0  0  0  0  0
  -29.8590  -18.1850   20.1420 C   0  0  0  0  0  0  0  0  0  0  0  0
  -29.1810  -18.8140   17.8700 C   0  0  0  0  0  0  0  0  0  0  0  0
  -29.0080  -20.1620   18.2710 C   0  0  0  0  0  0  0  0  0  0  0  0
  -29.2580  -20.5630   19.6080 C   0  0  0  0  0  0  0  0  0  0  0  0
  -28.9480  -18.3780   16.4300 C   0  0  0  0  0  1  0  0  0  0  0  0
  -28.5840  -21.2290   17.2620 C   0  0  0  0  0  1  0  0  0  0  0  0
  -30.3930  -17.0670   21.0890 C   0  0  0  0  0  2  0  0  0  0  0  0
  -30.6400  -14.5930   20.4050 C   0  0  0  0  0  0  0  0  0  0  0  0
  -30.3420  -12.4310   19.2240 C   0  0  0  0  0  2  0  0  0  0  0  0
  -29.3830  -12.6290   18.0310 C   0  0  0  0  0  2  0  0  0  0  0  0
  -27.9210  -12.4470   18.4870 C   0  0  0  0  0  2  0  0  0  0  0  0
  -27.5860  -13.2800   19.7520 C   0  0  0  0  0  3  0  0  0  0  0  0
  -28.6580  -13.0750   20.8470 C   0  0  0  0  0  2  0  0  0  0  0  0
  -29.9660  -13.4120   20.2610 N   0  0  0  0  0  0  0  0  0  0  0  0
  -31.7940  -14.7330   19.9930 O   0  0  0  0  0  0  0  0  0  0  0  0
  -29.9290  -15.6590   20.8670 N   0  0  0  0  0  0  0  0  0  0  0  0
  -28.9810  -15.4630   21.1510 H   0  0  0  0  0  0  0  0  0  0  0  0
  -25.1850  -13.8700   20.4610 C   0  0  0  0  0  0  0  0  0  0  0  0
  -24.1250  -13.0920   20.8370 C   0  0  0  0  0  0  0  0  0  0  0  0
  -24.5970  -11.7440   20.8170 C   0  0  0  0  0  0  0  0  0  0  0  0
  -26.2380  -12.9960   20.2380 N   0  0  0  0  0  0  0  0  0  0  0  0
  -25.8880  -11.7140   20.5130 N   0  0  0  0  0  0  0  0  0  0  0  0
  -23.8830  -10.4760   21.0170 C   0  0  0  0  0  0  0  0  0  0  0  0
  -24.3190   -9.5230   21.9630 C   0  0  0  0  0  3  0  0  0  0  0  0
  -23.6040   -8.3200   22.1490 C   0  0  0  0  0  3  0  0  0  0  0  0
  -22.4390   -8.0640   21.3900 C   0  0  0  0  0  0  0  0  0  0  0  0
  -22.0200   -9.0060   20.4350 C   0  0  0  0  0  3  0  0  0  0  0  0
  -22.7360  -10.2010   20.2460 C   0  0  0  0  0  3  0  0  0  0  0  0
  -21.6950   -6.9120   21.4860 O   0  0  0  0  0  0  0  0  0  0  0  0
  -21.6460   -6.1810   22.6450 C   0  0  0  0  0  0  0  0  0  0  0  0
  -21.1870   -6.7390   23.8590 C   0  0  0  0  0  3  0  0  0  0  0  0
  -21.0860   -5.9340   25.0100 C   0  0  0  0  0  3  0  0  0  0  0  0
  -21.4350   -4.5720   24.9510 C   0  0  0  0  0  0  0  0  0  0  0  0
  -21.8870   -4.0130   23.7430 C   0  0  0  0  0  3  0  0  0  0  0  0
  -21.9890   -4.8150   22.5920 C   0  0  0  0  0  0  0  0  0  0  0  0
  -22.4060   -4.2660   21.4260 F   0  0  0  0  0  0  0  0  0  0  0  0
  -21.3300   -3.7960   26.0550 F   0  0  0  0  0  0  0  0  0  0  0  0
  -22.7220  -13.5600   21.1020 C   0  0  0  0  0  0  0  0  0  0  0  0
  -21.9950  -12.8670   21.9720 N   0  0  0  0  0  0  0  0  0  0  0  0
  -22.2770  -14.5780   20.5710 O   0  0  0  0  0  0  0  0  0  0  0  0
  -22.3660  -12.0490   22.4320 H   0  0  0  0  0  0  0  0  0  0  0  0
  -21.0580  -13.1700   22.1900 H   0  0  0  0  0  0  0  0  0  0  0  0
  -25.3360  -15.2420   20.2690 N   0  0  0  0  0  0  0  0  0  0  0  0
  -24.5620  -15.8900   20.3750 H   0  0  0  0  0  0  0  0  0  0  0  0
  -26.1730  -15.6830   19.9100 H   0  0  0  0  0  0  0  0  0  0  0  0
  -29.0410  -21.9310   19.8290 O   0  0  0  0  0  0  0  0  0  0  0  0
  -29.3870  -22.6480   21.0220 C   0  0  0  0  0  2  0  0  0  0  0  0
  -29.5020  -24.2130   20.7920 C   0  0  0  0  0  3  0  0  0  0  0  0
  -28.2210  -25.0700   20.4690 C   0  0  0  0  0  3  0  0  0  0  0  0
  -28.4080  -26.5300   20.5060 O   0  0  0  0  0  0  0  0  0  0  0  0
  -24.5880  -31.9600   23.2880 C   0  0  0  0  0  0  0  0  0  0  0  0
  -27.2740  -27.3440   20.4140 C   0  0  0  0  0  0  0  0  0  0  0  0
  -23.4270  -30.5250   21.6490 C   0  0  0  0  0  3  0  0  0  0  0  0
  -24.9110  -28.9390   20.3040 C   0  0  0  0  0  0  0  0  0  0  0  0
  -25.9690  -30.8390   21.5270 C   0  0  0  0  0  2  0  0  0  0  0  0
  -26.0620  -29.4460   20.9180 C   0  0  0  0  0  0  0  0  0  0  0  0
  -27.2480  -28.6580   20.9620 C   0  0  0  0  0  3  0  0  0  0  0  0
  -26.0980  -26.8780   19.7780 C   0  0  0  0  0  3  0  0  0  0  0  0
  -24.9300  -27.6610   19.7240 C   0  0  0  0  0  3  0  0  0  0  0  0
  -23.6750  -29.8120   20.2940 C   0  0  0  0  0  2  0  0  0  0  0  0
  -24.6790  -31.1260   22.2110 N   0  0  0  0  0  0  0  0  0  0  0  0
  -23.4910  -32.2520   23.7870 O   0  0  0  0  0  0  0  0  0  0  0  0
  -22.7360  -29.5320   22.6150 C   0  0  0  0  0  0  0  0  0  0  0  0
  -21.4110  -29.3720   22.4680 N   0  0  0  0  0  0  0  0  0  0  0  0
  -23.3920  -28.9100   23.4530 O   0  0  0  0  0  0  0  0  0  0  0  0
  -20.9460  -29.9200   21.7570 H   0  0  0  0  0  0  0  0  0  0  0  0
  -17.9990  -28.2790   22.9630 C   0  0  0  0  0  0  0  0  0  0  0  0
  -20.5630  -28.4630   23.2410 C   0  0  0  0  0  3  0  0  0  0  0  0
  -20.6260  -27.0280   22.6700 C   0  0  0  0  0  2  0  0  0  0  0  0
  -19.5180  -26.7340   21.6540 C   0  0  0  0  0  2  0  0  0  0  0  0
  -18.1380  -26.9230   22.2910 C   0  0  0  0  0  2  0  0  0  0  0  0
  -19.1380  -29.0090   23.3940 C   0  0  0  0  0  0  0  0  0  0  0  0
  -18.9520  -30.2800   23.9810 C   0  0  0  0  0  3  0  0  0  0  0  0
  -17.6620  -30.8200   24.1380 C   0  0  0  0  0  3  0  0  0  0  0  0
  -16.5380  -30.0860   23.7230 C   0  0  0  0  0  3  0  0  0  0  0  0
  -16.7070  -28.8160   23.1430 C   0  0  0  0  0  3  0  0  0  0  0  0
  -25.8550  -32.6020   23.9330 C   0  0  0  0  0  3  0  0  0  0  0  0
  -25.5370  -34.0040   24.2380 N   0  0  0  0  0  0  0  0  0  0  0  0
  -25.8890  -35.0460   23.4740 C   0  0  0  0  0  0  0  0  0  0  0  0
  -26.5820  -34.9280   22.4590 O   0  0  0  0  0  0  0  0  0  0  0  0
  -24.9230  -34.1690   25.0230 H   0  0  0  0  0  0  0  0  0  0  0  0
  -24.1740  -36.8350   23.0500 C   0  0  0  0  0  1  0  0  0  0  0  0
  -25.3930  -36.4420   23.8990 C   0  0  0  0  0  3  0  0  0  0  0  0
  -27.5080  -37.3330   24.7740 C   0  0  0  0  0  1  0  0  0  0  0  0
  -26.4310  -37.4910   23.7980 N   0  0  0  0  0  0  0  0  0  0  0  0
  -26.0270  -38.4150   23.9230 H   0  0  0  0  0  0  0  0  0  0  0  0
  -26.3430  -31.8470   25.2270 C   0  0  1  0  0  0  0  0  0  0  0  0
  -25.2210  -31.6110   26.2680 C   0  0  0  0  0  1  0  0  0  0  0  0
  -26.9420  -30.4690   24.8610 C   0  0  0  0  0  1  0  0  0  0  0  0
  -27.4780  -32.6510   25.9050 C   0  0  0  0  0  1  0  0  0  0  0  0
  1  3  1  0
  3  2  2  0
  3  9  1  0
  4  5  1  0
  4  1  2  0
  5  6  2  0
  6 48  1  0
  6  2  1  0
  7  4  1  0
  8  5  1  0
 10 18  1  0
 11 16  1  0
 12 13  1  0
 12 11  1  0
 14 13  1  0
 14 23  1  0
 14 15  1  0
 16 10  1  0
 16 15  1  0
 17 10  2  0
 18  9  1  0
 18 19  1  0
 20 21  2  0
 21 40  1  0
 22 21  1  0
 22 25  1  0
 23 20  1  0
 23 24  1  0
 24 22  2  0
 25 26  1  0
 26 27  2  0
 28 31  1  0
 28 27  1  0
 29 28  2  0
 30 29  1  0
 30 25  2  0
 31 32  1  0
 32 33  1  0
 33 34  2  0
 35 34  1  0
 35 39  1  0
 36 35  2  0
 37 32  2  0
 37 36  1  0
 38 37  1  0
 40 41  1  0
 41 44  1  0
 41 43  1  0
 42 40  2  0
 45 46  1  0
 45 20  1  0
 47 45  1  0
 48 49  1  0
 50 49  1  0
 51 52  1  0
 51 50  2  0
 53 64  2  0
 54 52  1  0
 54 59  1  0
 55 63  1  0
 55 65  1  0
 56 58  1  0
 57 63  1  0
 58 59  2  0
 58 57  1  0
 60 54  2  0
 61 60  1  0
 61 56  2  0
 62 56  1  0
 62 55  1  0
 63 53  1  0
 65 67  2  0
 66 65  1  0
 68 66  1  0
 69 78  2  0
 69 74  1  0
 70 66  1  0
 70 74  1  0
 71 70  1  0
 72 73  1  0
 72 71  1  0
 73 69  1  0
 74 75  2  0
 75 76  1  0
 77 76  2  0
 78 77  1  0
 79 53  1  0
 79 80  1  0
 79 89  1  0
 80 83  1  0
 81 85  1  0
 81 80  1  0
 82 81  2  0
 85 84  1  0
 87 85  1  0
 87 88  1  0
 87 86  1  0
 89 92  1  1
 89 90  1  0
 91 89  1  0
M  ISO  4  10 100  18 100  51 101  52 101
M  END
>  <TORSDO>  (53) 
F 21

>  <SCORE>  (53) 
-13.473

>  <name>  (53) 
52

>  <ligand_id>  (53) 
52

>  <original_smiles>  (53) 
[H]c1c([H])c([H])c2c(c1[H])C([H])([H])C([H])([H])C([H])([H])C2([H])N([H])C(=O)C1([H])N(C(=O)C([H])(N([H])C(=O)C([H])(N([H])C([H])([H])[H])C([H])([H])[H])C(C([H])([H])[H])(C([H])([H])[H])C([H])([H])[H])C([H])([H])c2c([H])c(OC([H])([H])C([H])([H])C([H])([H])Oc3c([H])c(C([H])([H])N([H])C(=O)N4C([H])([H])C([H])([H])C([H])([H])C([H])(n5nc(-c6c([H])c([H])c(Oc7c([H])c([H])c(F)c([H])c7F)c([H])c6[H])c(C(=O)N([H])[H])c5N([H])[H])C4([H])[H])c([H])c(C([H])([H])[H])c3C([H])([H])[H])c([H])c([H])c2C1([H])[H]

>  <smiles>  (53) 
[H]c1c([H])c([H])c2c(c1[H])C([H])([H])C([H])([H])C([H])([H])C2([H])N([H])C(=O)C1([H])N(C(=O)C([H])(N([H])C(=O)C([H])(N([H])C([H])([H])[H])C([H])([H])[H])C(C([H])([H])[H])(C([H])([H])[H])C([H])([H])[H])C([H])([H])c2c([H])c(OC([H])([H])C([H])([H])C([H])([H])Oc3c([H])c(C([H])([H])N([H])C(=O)N4C([H])([H])C([H])([H])C([H])([H])C([H])(n5nc(-c6c([H])c([H])c(Oc7c([H])c([H])c(F)c([H])c7F)c([H])c6[H])c(C(=O)N([H])[H])c5N([H])[H])C4([H])[H])c([H])c(C([H])([H])[H])c3C([H])([H])[H])c([H])c([H])c2C1([H])[H]

$$$$
53:0:0
     RDKit          3D

 90 98  0  0  1  0  0  0  0  0999 V2000
  -29.4750  -21.9970   21.6340 C   0  0  0  0  0  3  0  0  0  0  0  0
  -29.4370  -20.5740   19.6860 C   0  0  0  0  0  3  0  0  0  0  0  0
  -29.1350  -21.9130   20.2700 C   0  0  0  0  0  0  0  0  0  0  0  0
  -30.1190  -20.9480   22.3350 C   0  0  0  0  0  0  0  0  0  0  0  0
  -30.0870  -19.4130   20.3710 C   0  0  0  0  0  0  0  0  0  0  0  0
  -30.4650  -19.7040   21.7180 C   0  0  0  0  0  0  0  0  0  0  0  0
  -30.4820  -21.2300   23.7940 C   0  0  0  0  0  1  0  0  0  0  0  0
  -31.3000  -18.6940   22.5060 C   0  0  0  0  0  1  0  0  0  0  0  0
  -28.5750  -23.2930   19.5250 C   0  0  0  0  0  2  0  0  0  0  0  0
  -27.9220  -24.6910   20.2570 C   0  0  0  0  0  2  0  0  0  0  0  0
  -28.1530  -26.2070   19.9120 O   0  0  0  0  0  0  0  0  0  0  0  0
  -24.6990  -31.8150   23.2980 C   0  0  0  0  0  0  0  0  0  0  0  0
  -27.1010  -27.2060   19.9730 C   0  0  0  0  0  0  0  0  0  0  0  0
  -23.4210  -30.5100   21.6460 C   0  0  0  0  0  3  0  0  0  0  0  0
  -24.8010  -28.9910   20.0890 C   0  0  0  0  0  0  0  0  0  0  0  0
  -25.9740  -30.7520   21.4010 C   0  0  0  0  0  2  0  0  0  0  0  0
  -26.0060  -29.3900   20.6780 C   0  0  0  0  0  0  0  0  0  0  0  0
  -27.1580  -28.5180   20.5960 C   0  0  0  0  0  3  0  0  0  0  0  0
  -25.8720  -26.9120   19.3410 C   0  0  0  0  0  3  0  0  0  0  0  0
  -24.7500  -27.7690   19.3990 C   0  0  0  0  0  3  0  0  0  0  0  0
  -23.5840  -29.8990   20.2260 C   0  0  0  0  0  2  0  0  0  0  0  0
  -24.7210  -31.0460   22.1690 N   0  0  0  0  0  0  0  0  0  0  0  0
  -23.6390  -32.0870   23.8810 O   0  0  0  0  0  0  0  0  0  0  0  0
  -22.7710  -29.4640   22.5850 C   0  0  0  0  0  0  0  0  0  0  0  0
  -21.4520  -29.2430   22.4340 N   0  0  0  0  0  0  0  0  0  0  0  0
  -23.4520  -28.8550   23.4110 O   0  0  0  0  0  0  0  0  0  0  0  0
  -20.9570  -29.7770   21.7300 H   0  0  0  0  0  0  0  0  0  0  0  0
  -18.1410  -27.8150   22.7720 C   0  0  0  0  0  0  0  0  0  0  0  0
  -20.6540  -28.2700   23.1850 C   0  0  0  0  0  3  0  0  0  0  0  0
  -20.8930  -26.8360   22.6580 C   0  0  0  0  0  2  0  0  0  0  0  0
  -19.8820  -26.4070   21.5910 C   0  0  0  0  0  2  0  0  0  0  0  0
  -18.4540  -26.4700   22.1430 C   0  0  0  0  0  2  0  0  0  0  0  0
  -19.1730  -28.6690   23.2450 C   0  0  0  0  0  0  0  0  0  0  0  0
  -18.8260  -29.9250   23.7910 C   0  0  0  0  0  3  0  0  0  0  0  0
  -17.4800  -30.3300   23.8640 C   0  0  0  0  0  3  0  0  0  0  0  0
  -16.4610  -29.4770   23.4070 C   0  0  0  0  0  3  0  0  0  0  0  0
  -16.7910  -28.2190   22.8690 C   0  0  0  0  0  3  0  0  0  0  0  0
  -26.0090  -32.4100   23.9020 C   0  0  0  0  0  3  0  0  0  0  0  0
  -26.5310  -31.6050   25.1560 C   0  0  1  0  0  0  0  0  0  0  0  0
  -25.4500  -31.3760   26.2380 C   0  0  0  0  0  1  0  0  0  0  0  0
  -27.0750  -30.2210   24.7340 C   0  0  0  0  0  1  0  0  0  0  0  0
  -27.7150  -32.3600   25.8050 C   0  0  0  0  0  1  0  0  0  0  0  0
  -25.7410  -33.8080   24.2640 N   0  0  0  0  0  0  0  0  0  0  0  0
  -26.1260  -34.8740   23.5480 C   0  0  0  0  0  0  0  0  0  0  0  0
  -26.8110  -34.7790   22.5270 O   0  0  0  0  0  0  0  0  0  0  0  0
  -25.1380  -33.9630   25.0600 H   0  0  0  0  0  0  0  0  0  0  0  0
  -24.4690  -36.7380   23.2290 C   0  0  0  0  0  1  0  0  0  0  0  0
  -25.6840  -36.2650   24.0430 C   0  0  0  0  0  3  0  0  0  0  0  0
  -27.8350  -37.0440   24.9310 C   0  0  0  0  0  1  0  0  0  0  0  0
  -26.7530  -37.2840   23.9780 N   0  0  0  0  0  0  0  0  0  0  0  0
  -26.3770  -38.2120   24.1550 H   0  0  0  0  0  0  0  0  0  0  0  0
  -30.5360  -17.9730   19.6530 C   0  0  0  0  0  2  0  0  0  0  0  0
  -30.9260  -15.2460   19.7770 C   0  0  0  0  0  0  0  0  0  0  0  0
  -30.7480  -12.8380   18.9690 C   0  0  0  0  0  2  0  0  0  0  0  0
  -29.7610  -12.7360   17.7800 C   0  0  0  0  0  2  0  0  0  0  0  0
  -28.3240  -12.5390   18.2970 C   0  0  0  0  0  2  0  0  0  0  0  0
  -27.9710  -13.5160   19.4500 C   0  0  0  0  0  3  0  0  0  0  0  0
  -29.0840  -13.5990   20.5200 C   0  0  0  0  0  2  0  0  0  0  0  0
  -30.3250  -13.9810   19.8330 N   0  0  0  0  0  0  0  0  0  0  0  0
  -32.0750  -15.2840   19.3170 O   0  0  0  0  0  0  0  0  0  0  0  0
  -30.2210  -16.4580   20.0460 N   0  0  0  0  0  0  0  0  0  0  0  0
  -29.3130  -16.3210   20.4640 H   0  0  0  0  0  0  0  0  0  0  0  0
  -25.6750  -14.1220   20.4000 C   0  0  0  0  0  0  0  0  0  0  0  0
  -24.6180  -13.3640   20.8260 C   0  0  0  0  0  0  0  0  0  0  0  0
  -25.0370  -12.0030   20.6990 C   0  0  0  0  0  0  0  0  0  0  0  0
  -26.6660  -13.2280   20.0350 N   0  0  0  0  0  0  0  0  0  0  0  0
  -26.2960  -11.9430   20.2780 N   0  0  0  0  0  0  0  0  0  0  0  0
  -24.2870  -10.7570   20.8980 C   0  0  0  0  0  0  0  0  0  0  0  0
  -24.7060   -9.7770   21.8270 C   0  0  0  0  0  3  0  0  0  0  0  0
  -23.9470   -8.6020   22.0150 C   0  0  0  0  0  3  0  0  0  0  0  0
  -22.7590   -8.3950   21.2780 C   0  0  0  0  0  0  0  0  0  0  0  0
  -22.3630   -9.3600   20.3370 C   0  0  0  0  0  3  0  0  0  0  0  0
  -23.1190  -10.5280   20.1430 C   0  0  0  0  0  3  0  0  0  0  0  0
  -21.9810   -7.2660   21.3710 O   0  0  0  0  0  0  0  0  0  0  0  0
  -21.8420   -6.5820   22.5530 C   0  0  0  0  0  0  0  0  0  0  0  0
  -21.3360   -7.2020   23.7160 C   0  0  0  0  0  3  0  0  0  0  0  0
  -21.1440   -6.4470   24.8910 C   0  0  0  0  0  3  0  0  0  0  0  0
  -21.4520   -5.0730   24.9020 C   0  0  0  0  0  0  0  0  0  0  0  0
  -21.9530   -4.4540   23.7430 C   0  0  0  0  0  3  0  0  0  0  0  0
  -22.1440   -5.2070   22.5720 C   0  0  0  0  0  0  0  0  0  0  0  0
  -22.6090   -4.6030   21.4520 F   0  0  0  0  0  0  0  0  0  0  0  0
  -21.2600   -4.3430   26.0280 F   0  0  0  0  0  0  0  0  0  0  0  0
  -23.2670  -13.8740   21.2310 C   0  0  0  0  0  0  0  0  0  0  0  0
  -22.5980  -13.1790   22.1450 N   0  0  0  0  0  0  0  0  0  0  0  0
  -22.8170  -14.9260   20.7740 O   0  0  0  0  0  0  0  0  0  0  0  0
  -22.9760  -12.3330   22.5480 H   0  0  0  0  0  0  0  0  0  0  0  0
  -21.6940  -13.5060   22.4540 H   0  0  0  0  0  0  0  0  0  0  0  0
  -25.8640  -15.4950   20.2700 N   0  0  0  0  0  0  0  0  0  0  0  0
  -25.1280  -16.1590   20.4780 H   0  0  0  0  0  0  0  0  0  0  0  0
  -26.6860  -15.9360   19.8770 H   0  0  0  0  0  0  0  0  0  0  0  0
  1  4  1  0
  2  3  1  0
  2  5  2  0
  3  1  2  0
  4  7  1  0
  5  6  1  0
  6  4  2  0
  6  8  1  0
  9 10  1  0
  9  3  1  0
 11 13  1  0
 11 10  1  0
 12 23  2  0
 13 18  1  0
 14 22  1  0
 14 24  1  0
 15 21  1  0
 15 17  1  0
 16 22  1  0
 17 16  1  0
 18 17  2  0
 19 20  1  0
 19 13  2  0
 20 15  2  0
 21 14  1  0
 22 12  1  0
 24 26  2  0
 25 24  1  0
 27 25  1  0
 28 37  2  0
 28 33  1  0
 29 25  1  0
 29 33  1  0
 30 29  1  0
 31 32  1  0
 31 30  1  0
 32 28  1  0
 33 34  2  0
 34 35  1  0
 36 35  2  0
 37 36  1  0
 38 12  1  0
 38 43  1  0
 38 39  1  0
 39 42  1  1
 39 40  1  0
 41 39  1  0
 43 46  1  0
 44 48  1  0
 44 43  1  0
 45 44  2  0
 48 47  1  0
 50 48  1  0
 50 51  1  0
 50 49  1  0
 52 61  1  0
 52  5  1  0
 53 59  1  0
 53 61  1  0
 54 59  1  0
 55 56  1  0
 55 54  1  0
 57 56  1  0
 57 66  1  0
 57 58  1  0
 59 58  1  0
 60 53  2  0
 61 62  1  0
 63 64  2  0
 64 83  1  0
 65 64  1  0
 65 68  1  0
 66 67  1  0
 66 63  1  0
 67 65  2  0
 68 69  1  0
 69 70  2  0
 71 74  1  0
 71 70  1  0
 72 71  2  0
 73 72  1  0
 73 68  2  0
 74 75  1  0
 75 80  2  0
 75 76  1  0
 76 77  2  0
 77 78  1  0
 78 82  1  0
 79 78  2  0
 80 79  1  0
 81 80  1  0
 83 84  1  0
 84 87  1  0
 84 86  1  0
 85 83  2  0
 88 63  1  0
 88 89  1  0
 90 88  1  0
M  ISO  4  10 101  11 101  53 100  61 100
M  END
>  <TORSDO>  (54) 
F 19

>  <SCORE>  (54) 
-14.327

>  <name>  (54) 
53

>  <ligand_id>  (54) 
53

>  <original_smiles>  (54) 
[H]c1c([H])c([H])c2c(c1[H])C([H])([H])C([H])([H])C([H])([H])C2([H])N([H])C(=O)C1([H])N(C(=O)C([H])(N([H])C(=O)C([H])(N([H])C([H])([H])[H])C([H])([H])[H])C(C([H])([H])[H])(C([H])([H])[H])C([H])([H])[H])C([H])([H])c2c([H])c(OC([H])([H])C([H])([H])c3c([H])c(C([H])([H])[H])c(C([H])([H])[H])c(C([H])([H])N([H])C(=O)N4C([H])([H])C([H])([H])C([H])([H])C([H])(n5nc(-c6c([H])c([H])c(Oc7c([H])c([H])c(F)c([H])c7F)c([H])c6[H])c(C(=O)N([H])[H])c5N([H])[H])C4([H])[H])c3[H])c([H])c([H])c2C1([H])[H]

>  <smiles>  (54) 
[H]c1c([H])c([H])c2c(c1[H])C([H])([H])C([H])([H])C([H])([H])C2([H])N([H])C(=O)C1([H])N(C(=O)C([H])(N([H])C(=O)C([H])(N([H])C([H])([H])[H])C([H])([H])[H])C(C([H])([H])[H])(C([H])([H])[H])C([H])([H])[H])C([H])([H])c2c([H])c(OC([H])([H])C([H])([H])c3c([H])c(C([H])([H])[H])c(C([H])([H])[H])c(C([H])([H])N([H])C(=O)N4C([H])([H])C([H])([H])C([H])([H])C([H])(n5nc(-c6c([H])c([H])c(Oc7c([H])c([H])c(F)c([H])c7F)c([H])c6[H])c(C(=O)N([H])[H])c5N([H])[H])C4([H])[H])c3[H])c([H])c([H])c2C1([H])[H]

$$$$
54:0:0
     RDKit          3D

 96104  0  0  1  0  0  0  0  0999 V2000
  -26.6210  -24.2310   20.6560 C   0  0  0  0  0  3  0  0  0  0  0  0
  -27.3730  -25.8920   19.0820 C   0  0  0  0  0  3  0  0  0  0  0  0
  -26.5810  -24.7630   19.3510 C   0  0  0  0  0  0  0  0  0  0  0  0
  -27.4390  -24.8480   21.6250 C   0  0  0  0  0  0  0  0  0  0  0  0
  -28.2120  -25.9680   21.2430 C   0  0  0  0  0  0  0  0  0  0  0  0
  -27.4710  -24.3030   23.0450 C   0  0  0  0  0  1  0  0  0  0  0  0
  -28.1750  -26.4760   19.9950 N   0  0  0  0  0  0  0  0  0  0  0  0
  -25.4780  -22.6500   18.2960 C   0  0  0  0  0  1  0  0  0  0  0  0
  -25.7170  -24.1720   18.2400 C   0  0  0  0  0  3  0  0  0  0  0  0
  -24.5750  -24.9720   17.9090 O   0  0  0  0  0  0  0  0  0  0  0  0
  -18.2450  -26.0410   20.9440 C   0  0  0  0  0  0  0  0  0  0  0  0
  -23.2820  -24.5100   18.0330 C   0  0  0  0  0  0  0  0  0  0  0  0
  -18.4670  -23.9410   19.6590 C   0  0  0  0  0  3  0  0  0  0  0  0
  -20.5660  -23.7340   18.2340 C   0  0  0  0  0  0  0  0  0  0  0  0
  -19.8780  -25.9910   19.0620 C   0  0  0  0  0  2  0  0  0  0  0  0
  -20.9480  -25.0360   18.5790 C   0  0  0  0  0  0  0  0  0  0  0  0
  -22.3000  -25.4280   18.4720 C   0  0  0  0  0  3  0  0  0  0  0  0
  -22.8740  -23.1990   17.6990 C   0  0  0  0  0  3  0  0  0  0  0  0
  -21.5270  -22.8090   17.8020 C   0  0  0  0  0  3  0  0  0  0  0  0
  -19.0980  -23.3960   18.3520 C   0  0  0  0  0  2  0  0  0  0  0  0
  -18.8660  -25.3580   19.9420 N   0  0  0  0  0  0  0  0  0  0  0  0
  -17.3290  -25.5260   21.6000 O   0  0  0  0  0  0  0  0  0  0  0  0
  -18.8080  -22.9670   20.8080 C   0  0  0  0  0  0  0  0  0  0  0  0
  -17.7670  -22.4510   21.4830 N   0  0  0  0  0  0  0  0  0  0  0  0
  -19.9780  -22.6700   21.0600 O   0  0  0  0  0  0  0  0  0  0  0  0
  -16.8380  -22.7480   21.2180 H   0  0  0  0  0  0  0  0  0  0  0  0
  -15.7910  -20.5770   23.8540 C   0  0  0  0  0  0  0  0  0  0  0  0
  -17.8470  -21.4870   22.5790 C   0  0  0  0  0  3  0  0  0  0  0  0
  -18.0270  -20.0480   22.0420 C   0  0  0  0  0  2  0  0  0  0  0  0
  -16.7020  -19.3030   21.8650 C   0  0  0  0  0  2  0  0  0  0  0  0
  -15.9490  -19.2160   23.1960 C   0  0  0  0  0  2  0  0  0  0  0  0
  -16.6730  -21.6480   23.5520 C   0  0  0  0  0  0  0  0  0  0  0  0
  -16.4620  -22.9020   24.1620 C   0  0  0  0  0  3  0  0  0  0  0  0
  -15.3960  -23.0940   25.0610 C   0  0  0  0  0  3  0  0  0  0  0  0
  -14.5370  -22.0260   25.3710 C   0  0  0  0  0  3  0  0  0  0  0  0
  -14.7360  -20.7710   24.7700 C   0  0  0  0  0  3  0  0  0  0  0  0
  -18.6370  -27.5090   21.2990 C   0  0  0  0  0  3  0  0  0  0  0  0
  -20.1950  -27.7190   21.4420 C   0  0  1  0  0  0  0  0  0  0  0  0
  -20.9280  -26.5150   22.0750 C   0  0  0  0  0  1  0  0  0  0  0  0
  -20.8390  -27.9880   20.0610 C   0  0  0  0  0  1  0  0  0  0  0  0
  -20.4800  -28.9650   22.3120 C   0  0  0  0  0  1  0  0  0  0  0  0
  -17.9470  -27.8630   22.5480 N   0  0  0  0  0  0  0  0  0  0  0  0
  -16.6850  -28.3060   22.6200 C   0  0  0  0  0  0  0  0  0  0  0  0
  -15.9970  -28.5360   21.6200 O   0  0  0  0  0  0  0  0  0  0  0  0
  -18.4310  -27.6520   23.4090 H   0  0  0  0  0  0  0  0  0  0  0  0
  -15.0670  -27.4330   24.3350 C   0  0  0  0  0  1  0  0  0  0  0  0
  -16.0910  -28.5370   24.0220 C   0  0  0  0  0  3  0  0  0  0  0  0
  -16.4010  -30.9720   24.0620 C   0  0  0  0  0  1  0  0  0  0  0  0
  -15.4570  -29.8640   24.1840 N   0  0  0  0  0  0  0  0  0  0  0  0
  -14.9990  -29.9370   25.0890 H   0  0  0  0  0  0  0  0  0  0  0  0
  -29.1890  -26.6540   22.1930 C   0  0  0  0  0  2  0  0  0  0  0  0
  -30.6780  -26.3880   21.8740 C   0  0  0  0  0  2  0  0  0  0  0  0
  -31.1540  -27.0210   20.5560 C   0  0  0  0  0  2  0  0  0  0  0  0
  -32.5030  -26.4860   20.0530 C   0  0  0  0  0  2  0  0  0  0  0  0
  -33.0960  -27.3790   18.9460 C   0  0  0  0  0  2  0  0  0  0  0  0
  -32.2660  -27.4020   17.6460 C   0  0  0  0  0  2  0  0  0  0  0  0
  -32.5050  -26.1720   16.7510 C   0  0  0  0  0  2  0  0  0  0  0  0
  -33.8480  -26.2460   16.0010 C   0  0  0  0  0  2  0  0  0  0  0  0
  -34.1900  -25.4460   13.6540 C   0  0  0  0  0  0  0  0  0  0  0  0
  -34.3550  -24.3690   11.4400 C   0  0  0  0  0  2  0  0  0  0  0  0
  -32.9560  -24.1620   10.8340 C   0  0  0  0  0  2  0  0  0  0  0  0
  -32.3330  -22.8390   11.3250 C   0  0  0  0  0  2  0  0  0  0  0  0
  -32.4160  -22.6790   12.8680 C   0  0  0  0  0  3  0  0  0  0  0  0
  -33.8500  -22.9650   13.3600 C   0  0  0  0  0  2  0  0  0  0  0  0
  -34.2310  -24.3150   12.9030 N   0  0  0  0  0  0  0  0  0  0  0  0
  -34.3730  -26.5770   13.1950 O   0  0  0  0  0  0  0  0  0  0  0  0
  -33.9270  -25.2380   14.9490 N   0  0  0  0  0  0  0  0  0  0  0  0
  -33.8040  -24.2750   15.2260 H   0  0  0  0  0  0  0  0  0  0  0  0
  -31.0860  -21.0200   14.3240 C   0  0  0  0  0  0  0  0  0  0  0  0
  -30.9320  -19.6610   14.2520 C   0  0  0  0  0  0  0  0  0  0  0  0
  -31.7260  -19.2330   13.1450 C   0  0  0  0  0  0  0  0  0  0  0  0
  -31.9520  -21.3610   13.2950 N   0  0  0  0  0  0  0  0  0  0  0  0
  -32.3760  -20.2630   12.6190 N   0  0  0  0  0  0  0  0  0  0  0  0
  -31.8680  -17.9080   12.5260 C   0  0  0  0  0  0  0  0  0  0  0  0
  -33.1360  -17.3190   12.3360 C   0  0  0  0  0  3  0  0  0  0  0  0
  -33.2500  -16.0390   11.7530 C   0  0  0  0  0  3  0  0  0  0  0  0
  -32.0890  -15.3320   11.3580 C   0  0  0  0  0  0  0  0  0  0  0  0
  -30.8290  -15.9350   11.5270 C   0  0  0  0  0  3  0  0  0  0  0  0
  -30.7180  -17.2100   12.1050 C   0  0  0  0  0  3  0  0  0  0  0  0
  -32.1040  -14.0970   10.7570 O   0  0  0  0  0  0  0  0  0  0  0  0
  -33.1320  -13.2110   10.9580 C   0  0  0  0  0  0  0  0  0  0  0  0
  -33.4670  -12.7380   12.2450 C   0  0  0  0  0  3  0  0  0  0  0  0
  -34.4880  -11.7790   12.3990 C   0  0  0  0  0  3  0  0  0  0  0  0
  -35.1630  -11.2820   11.2670 C   0  0  0  0  0  0  0  0  0  0  0  0
  -34.8220  -11.7440    9.9840 C   0  0  0  0  0  3  0  0  0  0  0  0
  -33.8100  -12.7060    9.8300 C   0  0  0  0  0  0  0  0  0  0  0  0
  -33.4720  -13.1350    8.5900 F   0  0  0  0  0  0  0  0  0  0  0  0
  -36.1350  -10.3510   11.4130 F   0  0  0  0  0  0  0  0  0  0  0  0
  -30.0230  -18.8150   15.0980 C   0  0  0  0  0  0  0  0  0  0  0  0
  -30.4170  -17.5730   15.3670 N   0  0  0  0  0  0  0  0  0  0  0  0
  -28.9840  -19.2680   15.5700 O   0  0  0  0  0  0  0  0  0  0  0  0
  -31.2840  -17.2090   15.0010 H   0  0  0  0  0  0  0  0  0  0  0  0
  -29.8400  -16.9770   15.9440 H   0  0  0  0  0  0  0  0  0  0  0  0
  -30.5470  -21.9920   15.1600 N   0  0  0  0  0  0  0  0  0  0  0  0
  -29.8760  -21.7640   15.8850 H   0  0  0  0  0  0  0  0  0  0  0  0
  -30.7240  -22.9860   15.0800 H   0  0  0  0  0  0  0  0  0  0  0  0
  1  4  1  0
  2  3  1  0
  2  7  2  0
  3  1  2  0
  4  6  1  0
  5  4  2  0
  5 51  1  0
  7  5  1  0
  9  8  1  0
  9  3  1  0
 10 12  1  0
 10  9  1  0
 11 22  2  0
 12 17  1  0
 13 21  1  0
 13 23  1  0
 14 20  1  0
 14 16  1  0
 15 21  1  0
 16 15  1  0
 17 16  2  0
 18 19  1  0
 18 12  2  0
 19 14  2  0
 20 13  1  0
 21 11  1  0
 23 25  2  0
 23 24  1  0
 26 24  1  0
 27 36  1  0
 28 24  1  0
 28 32  1  0
 29 28  1  0
 30 29  1  0
 30 31  1  0
 31 27  1  0
 32 27  2  0
 32 33  1  0
 33 34  2  0
 34 35  1  0
 36 35  2  0
 37 11  1  0
 37 38  1  0
 37 42  1  0
 38 39  1  1
 38 41  1  0
 40 38  1  0
 42 43  1  0
 42 45  1  0
 43 47  1  0
 44 43  2  0
 47 49  1  0
 47 46  1  0
 48 49  1  0
 49 50  1  0
 52 51  1  0
 53 52  1  0
 54 53  1  0
 55 54  1  0
 56 55  1  0
 57 56  1  0
 58 57  1  0
 59 67  1  0
 60 65  1  0
 61 62  1  0
 61 60  1  0
 63 62  1  0
 63 72  1  0
 63 64  1  0
 65 64  1  0
 65 59  1  0
 66 59  2  0
 67 68  1  0
 67 58  1  0
 69 94  1  0
 70 69  2  0
 70 89  1  0
 71 70  1  0
 72 69  1  0
 73 71  2  0
 73 72  1  0
 74 71  1  0
 75 74  1  0
 76 75  2  0
 77 78  2  0
 77 76  1  0
 78 79  1  0
 79 74  2  0
 80 81  1  0
 80 77  1  0
 81 82  1  0
 82 83  2  0
 84 88  1  0
 84 83  1  0
 85 84  2  0
 86 85  1  0
 86 81  2  0
 87 86  1  0
 89 90  1  0
 89 91  2  0
 90 93  1  0
 92 90  1  0
 94 95  1  0
 96 94  1  0
M  ISO  4   9 101  10 101  59 100  67 100
M  END
>  <TORSDO>  (55) 
F 25

>  <SCORE>  (55) 
-2.262

>  <name>  (55) 
54

>  <ligand_id>  (55) 
54

>  <original_smiles>  (55) 
[H]c1nc(C([H])([H])C([H])([H])C([H])([H])C([H])([H])C([H])([H])C([H])([H])C([H])([H])C([H])([H])N([H])C(=O)N2C([H])([H])C([H])([H])C([H])([H])C([H])(n3nc(-c4c([H])c([H])c(Oc5c([H])c([H])c(F)c([H])c5F)c([H])c4[H])c(C(=O)N([H])[H])c3N([H])[H])C2([H])[H])c(C([H])([H])[H])c([H])c1C([H])(Oc1c([H])c([H])c2c(c1[H])C([H])([H])N(C(=O)C([H])(N([H])C(=O)C([H])(N([H])C([H])([H])[H])C([H])([H])[H])C(C([H])([H])[H])(C([H])([H])[H])C([H])([H])[H])C([H])(C(=O)N([H])C1([H])c3c([H])c([H])c([H])c([H])c3C([H])([H])C([H])([H])C1([H])[H])C2([H])[H])C([H])([H])[H]

>  <smiles>  (55) 
[H]c1nc(C([H])([H])C([H])([H])C([H])([H])C([H])([H])C([H])([H])C([H])([H])C([H])([H])C([H])([H])N([H])C(=O)N2C([H])([H])C([H])([H])C([H])([H])C([H])(n3nc(-c4c([H])c([H])c(Oc5c([H])c([H])c(F)c([H])c5F)c([H])c4[H])c(C(=O)N([H])[H])c3N([H])[H])C2([H])[H])c(C([H])([H])[H])c([H])c1C([H])(Oc1c([H])c([H])c2c(c1[H])C([H])([H])N(C(=O)C([H])(N([H])C(=O)C([H])(N([H])C([H])([H])[H])C([H])([H])[H])C(C([H])([H])[H])(C([H])([H])[H])C([H])([H])[H])C([H])(C(=O)N([H])C1([H])c3c([H])c([H])c([H])c([H])c3C([H])([H])C([H])([H])C1([H])[H])C2([H])[H])C([H])([H])[H]

$$$$
55:0:0
     RDKit          3D

 89 97  0  0  1  0  0  0  0  0999 V2000
  -28.8320  -20.4240   20.0810 C   0  0  0  0  0  3  0  0  0  0  0  0
  -30.8540  -20.8830   21.7880 C   0  0  0  0  0  3  0  0  0  0  0  0
  -29.6510  -19.2200   20.4420 C   0  0  0  0  0  0  0  0  0  0  0  0
  -30.6800  -19.5470   21.3520 C   0  0  0  0  0  0  0  0  0  0  0  0
  -29.0630  -21.8170   20.5770 C   0  0  0  0  0  0  0  0  0  0  0  0
  -30.1020  -21.9580   21.4270 N   0  0  0  0  0  0  0  0  0  0  0  0
  -31.7880  -18.3440   21.9130 Cl  0  0  0  0  0  0  0  0  0  0  0  0
  -29.6250  -17.6860   19.7830 C   0  0  0  0  0  2  0  0  0  0  0  0
  -30.4810  -15.0560   20.1680 C   0  0  0  0  0  0  0  0  0  0  0  0
  -30.3740  -12.6940   19.2350 C   0  0  0  0  0  2  0  0  0  0  0  0
  -29.4170  -12.6590   18.0190 C   0  0  0  0  0  2  0  0  0  0  0  0
  -27.9660  -12.4310   18.4770 C   0  0  0  0  0  2  0  0  0  0  0  0
  -27.5810  -13.3340   19.6790 C   0  0  0  0  0  3  0  0  0  0  0  0
  -28.6590  -13.3390   20.7850 C   0  0  0  0  0  2  0  0  0  0  0  0
  -29.9150  -13.7750   20.1620 N   0  0  0  0  0  0  0  0  0  0  0  0
  -31.6450  -15.1420   19.7650 O   0  0  0  0  0  0  0  0  0  0  0  0
  -29.6940  -16.2240   20.4230 N   0  0  0  0  0  0  0  0  0  0  0  0
  -28.8290  -15.9890   20.8850 H   0  0  0  0  0  0  0  0  0  0  0  0
  -25.2100  -13.8830   20.4670 C   0  0  0  0  0  0  0  0  0  0  0  0
  -24.1610  -13.0960   20.8560 C   0  0  0  0  0  0  0  0  0  0  0  0
  -24.6390  -11.7500   20.8100 C   0  0  0  0  0  0  0  0  0  0  0  0
  -26.2570  -13.0170   20.2000 N   0  0  0  0  0  0  0  0  0  0  0  0
  -25.9230  -11.7280   20.4730 N   0  0  0  0  0  0  0  0  0  0  0  0
  -23.9270  -10.4800   21.0100 C   0  0  0  0  0  0  0  0  0  0  0  0
  -24.3810   -9.5170   21.9360 C   0  0  0  0  0  3  0  0  0  0  0  0
  -23.6670   -8.3140   22.1250 C   0  0  0  0  0  3  0  0  0  0  0  0
  -22.4860   -8.0650   21.3860 C   0  0  0  0  0  0  0  0  0  0  0  0
  -22.0510   -9.0180   20.4490 C   0  0  0  0  0  3  0  0  0  0  0  0
  -22.7660  -10.2120   20.2570 C   0  0  0  0  0  3  0  0  0  0  0  0
  -21.7420   -6.9140   21.4850 O   0  0  0  0  0  0  0  0  0  0  0  0
  -21.7130   -6.1730   22.6400 C   0  0  0  0  0  0  0  0  0  0  0  0
  -21.2830   -6.7220   23.8670 C   0  0  0  0  0  3  0  0  0  0  0  0
  -21.2010   -5.9070   25.0130 C   0  0  0  0  0  3  0  0  0  0  0  0
  -21.5380   -4.5430   24.9340 C   0  0  0  0  0  0  0  0  0  0  0  0
  -21.9620   -3.9930   23.7110 C   0  0  0  0  0  3  0  0  0  0  0  0
  -22.0450   -4.8040   22.5660 C   0  0  0  0  0  0  0  0  0  0  0  0
  -22.4320   -4.2650   21.3860 F   0  0  0  0  0  0  0  0  0  0  0  0
  -21.4540   -3.7570   26.0330 F   0  0  0  0  0  0  0  0  0  0  0  0
  -22.7660  -13.5600   21.1560 C   0  0  0  0  0  0  0  0  0  0  0  0
  -22.0610  -12.8520   22.0320 N   0  0  0  0  0  0  0  0  0  0  0  0
  -22.3110  -14.5850   20.6500 O   0  0  0  0  0  0  0  0  0  0  0  0
  -22.4420  -12.0240   22.4630 H   0  0  0  0  0  0  0  0  0  0  0  0
  -21.1250  -13.1450   22.2750 H   0  0  0  0  0  0  0  0  0  0  0  0
  -25.3560  -15.2560   20.2900 N   0  0  0  0  0  0  0  0  0  0  0  0
  -24.5800  -15.8980   20.4140 H   0  0  0  0  0  0  0  0  0  0  0  0
  -26.1800  -15.7030   19.9110 H   0  0  0  0  0  0  0  0  0  0  0  0
  -28.1180  -23.1980   20.5230 C   0  0  0  0  0  2  0  0  0  0  0  0
  -28.4270  -24.7380   19.8570 C   0  0  0  0  0  2  0  0  0  0  0  0
  -28.2590  -26.2100   20.3950 O   0  0  0  0  0  0  0  0  0  0  0  0
  -24.6080  -31.9190   23.2540 C   0  0  0  0  0  0  0  0  0  0  0  0
  -27.1830  -27.1670   20.2530 C   0  0  0  0  0  0  0  0  0  0  0  0
  -23.4090  -30.5190   21.6140 C   0  0  0  0  0  3  0  0  0  0  0  0
  -24.8560  -28.9240   20.1960 C   0  0  0  0  0  0  0  0  0  0  0  0
  -25.9610  -30.7700   21.4580 C   0  0  0  0  0  2  0  0  0  0  0  0
  -26.0310  -29.3730   20.8110 C   0  0  0  0  0  0  0  0  0  0  0  0
  -27.1880  -28.5060   20.8240 C   0  0  0  0  0  3  0  0  0  0  0  0
  -25.9870  -26.8200   19.5930 C   0  0  0  0  0  3  0  0  0  0  0  0
  -24.8500  -27.6640   19.5710 C   0  0  0  0  0  3  0  0  0  0  0  0
  -23.6310  -29.8290   20.2390 C   0  0  0  0  0  2  0  0  0  0  0  0
  -24.6790  -31.0930   22.1630 N   0  0  0  0  0  0  0  0  0  0  0  0
  -23.5210  -32.2100   23.7770 O   0  0  0  0  0  0  0  0  0  0  0  0
  -22.7200  -29.5230   22.5810 C   0  0  0  0  0  0  0  0  0  0  0  0
  -21.3920  -29.3590   22.4520 N   0  0  0  0  0  0  0  0  0  0  0  0
  -23.3860  -28.8990   23.4120 O   0  0  0  0  0  0  0  0  0  0  0  0
  -20.9110  -29.9130   21.7570 H   0  0  0  0  0  0  0  0  0  0  0  0
  -18.0040  -28.1770   22.9510 C   0  0  0  0  0  0  0  0  0  0  0  0
  -20.5640  -28.4290   23.2240 C   0  0  0  0  0  3  0  0  0  0  0  0
  -20.6600  -26.9940   22.6550 C   0  0  0  0  0  2  0  0  0  0  0  0
  -19.5600  -26.6730   21.6380 C   0  0  0  0  0  2  0  0  0  0  0  0
  -18.1770  -26.8260   22.2770 C   0  0  0  0  0  2  0  0  0  0  0  0
  -19.1250  -28.9370   23.3810 C   0  0  0  0  0  0  0  0  0  0  0  0
  -18.9080  -30.2000   23.9710 C   0  0  0  0  0  3  0  0  0  0  0  0
  -17.6050  -30.7040   24.1350 C   0  0  0  0  0  3  0  0  0  0  0  0
  -16.4990  -29.9430   23.7200 C   0  0  0  0  0  3  0  0  0  0  0  0
  -16.6990  -28.6800   23.1340 C   0  0  0  0  0  3  0  0  0  0  0  0
  -25.8860  -32.5520   23.8840 C   0  0  0  0  0  3  0  0  0  0  0  0
  -26.3780  -31.7980   25.1810 C   0  0  1  0  0  0  0  0  0  0  0  0
  -25.2690  -31.5890   26.2390 C   0  0  0  0  0  1  0  0  0  0  0  0
  -26.9520  -30.4080   24.8230 C   0  0  0  0  0  1  0  0  0  0  0  0
  -27.5280  -32.5920   25.8440 C   0  0  0  0  0  1  0  0  0  0  0  0
  -25.5820  -33.9590   24.1970 N   0  0  0  0  0  0  0  0  0  0  0  0
  -25.9330  -35.0050   23.4380 C   0  0  0  0  0  0  0  0  0  0  0  0
  -26.6110  -34.8880   22.4130 O   0  0  0  0  0  0  0  0  0  0  0  0
  -24.9810  -34.1240   24.9910 H   0  0  0  0  0  0  0  0  0  0  0  0
  -24.2300  -36.8200   23.0570 C   0  0  0  0  0  1  0  0  0  0  0  0
  -25.4580  -36.4030   23.8820 C   0  0  0  0  0  3  0  0  0  0  0  0
  -27.5920  -37.2730   24.7330 C   0  0  0  0  0  1  0  0  0  0  0  0
  -26.5030  -37.4440   23.7740 N   0  0  0  0  0  0  0  0  0  0  0  0
  -26.1070  -38.3700   23.9070 H   0  0  0  0  0  0  0  0  0  0  0  0
  1  3  2  0
  1  5  1  0
  3  4  1  0
  4  2  2  0
  4  7  1  0
  5  6  2  0
  6  2  1  0
  8 17  1  0
  8  3  1  0
  9 17  1  0
 10 15  1  0
 11 12  1  0
 11 10  1  0
 13 12  1  0
 13 22  1  0
 13 14  1  0
 15  9  1  0
 15 14  1  0
 16  9  2  0
 17 18  1  0
 19 20  2  0
 20 39  1  0
 21 20  1  0
 21 24  1  0
 22 19  1  0
 22 23  1  0
 23 21  2  0
 24 25  1  0
 25 26  2  0
 27 30  1  0
 27 26  1  0
 28 27  2  0
 29 28  1  0
 29 24  2  0
 30 31  1  0
 31 32  1  0
 32 33  2  0
 34 33  1  0
 34 38  1  0
 35 34  2  0
 36 31  2  0
 36 35  1  0
 37 36  1  0
 39 40  1  0
 40 43  1  0
 40 42  1  0
 41 39  2  0
 44 45  1  0
 44 19  1  0
 46 44  1  0
 47  5  1  0
 48 49  1  0
 48 47  1  0
 50 61  2  0
 51 49  1  0
 51 56  1  0
 52 60  1  0
 52 62  1  0
 53 59  1  0
 53 55  1  0
 54 60  1  0
 55 56  2  0
 55 54  1  0
 57 51  2  0
 58 57  1  0
 58 53  2  0
 59 52  1  0
 60 50  1  0
 62 64  2  0
 63 62  1  0
 65 63  1  0
 66 75  2  0
 66 71  1  0
 67 63  1  0
 67 71  1  0
 68 67  1  0
 69 70  1  0
 69 68  1  0
 70 66  1  0
 71 72  2  0
 72 73  1  0
 74 73  2  0
 75 74  1  0
 76 50  1  0
 76 81  1  0
 76 77  1  0
 77 80  1  1
 77 78  1  0
 79 77  1  0
 81 84  1  0
 82 86  1  0
 82 81  1  0
 83 82  2  0
 86 85  1  0
 88 86  1  0
 88 89  1  0
 88 87  1  0
M  ISO  4   9 100  17 100  48 101  49 101
M  END
>  <TORSDO>  (56) 
F 19

>  <SCORE>  (56) 
-15.067

>  <name>  (56) 
55

>  <ligand_id>  (56) 
55

>  <original_smiles>  (56) 
[H]c1nc(C([H])([H])C([H])([H])Oc2c([H])c([H])c3c(c2[H])C([H])([H])N(C(=O)C([H])(N([H])C(=O)C([H])(N([H])C([H])([H])[H])C([H])([H])[H])C(C([H])([H])[H])(C([H])([H])[H])C([H])([H])[H])C([H])(C(=O)N([H])C2([H])c4c([H])c([H])c([H])c([H])c4C([H])([H])C([H])([H])C2([H])[H])C3([H])[H])c([H])c(C([H])([H])N([H])C(=O)N2C([H])([H])C([H])([H])C([H])([H])C([H])(n3nc(-c4c([H])c([H])c(Oc5c([H])c([H])c(F)c([H])c5F)c([H])c4[H])c(C(=O)N([H])[H])c3N([H])[H])C2([H])[H])c1Cl

>  <smiles>  (56) 
[H]c1nc(C([H])([H])C([H])([H])Oc2c([H])c([H])c3c(c2[H])C([H])([H])N(C(=O)C([H])(N([H])C(=O)C([H])(N([H])C([H])([H])[H])C([H])([H])[H])C(C([H])([H])[H])(C([H])([H])[H])C([H])([H])[H])C([H])(C(=O)N([H])C2([H])c4c([H])c([H])c([H])c([H])c4C([H])([H])C([H])([H])C2([H])[H])C3([H])[H])c([H])c(C([H])([H])N([H])C(=O)N2C([H])([H])C([H])([H])C([H])([H])C([H])(n3nc(-c4c([H])c([H])c(Oc5c([H])c([H])c(F)c([H])c5F)c([H])c4[H])c(C(=O)N([H])[H])c3N([H])[H])C2([H])[H])c1Cl

$$$$
56:0:0
     RDKit          3D

 90 98  0  0  1  0  0  0  0  0999 V2000
  -30.4780  -21.1930   21.5320 C   0  0  0  0  0  3  0  0  0  0  0  0
  -30.9510  -18.7720   21.4860 C   0  0  0  0  0  3  0  0  0  0  0  0
  -29.3070  -19.7350   19.9820 C   0  0  0  0  0  3  0  0  0  0  0  0
  -31.1910  -20.0650   22.0070 C   0  0  0  0  0  0  0  0  0  0  0  0
  -29.5160  -21.0670   20.5060 C   0  0  0  0  0  0  0  0  0  0  0  0
  -30.0140  -18.5640   20.4590 C   0  0  0  0  0  0  0  0  0  0  0  0
  -32.2670  -20.2480   23.0600 C   0  0  0  0  0  1  0  0  0  0  0  0
  -28.7260  -22.3360   19.9770 C   0  0  0  0  0  2  0  0  0  0  0  0
  -29.0740  -23.8400   20.4420 C   0  0  0  0  0  3  0  0  0  0  0  0
  -28.0770  -25.0000   19.9520 C   0  0  0  0  0  3  0  0  0  0  0  0
  -28.2890  -26.4480   20.2520 O   0  0  0  0  0  0  0  0  0  0  0  0
  -24.6070  -31.9180   23.2470 C   0  0  0  0  0  0  0  0  0  0  0  0
  -27.1820  -27.3240   20.1860 C   0  0  0  0  0  0  0  0  0  0  0  0
  -23.3890  -30.5200   21.6200 C   0  0  0  0  0  3  0  0  0  0  0  0
  -24.8260  -28.9620   20.1850 C   0  0  0  0  0  0  0  0  0  0  0  0
  -25.9310  -30.8200   21.4230 C   0  0  0  0  0  2  0  0  0  0  0  0
  -26.0000  -29.4390   20.7780 C   0  0  0  0  0  0  0  0  0  0  0  0
  -27.1810  -28.6320   20.7710 C   0  0  0  0  0  3  0  0  0  0  0  0
  -25.9830  -26.9150   19.5540 C   0  0  0  0  0  3  0  0  0  0  0  0
  -24.8210  -27.7050   19.5640 C   0  0  0  0  0  3  0  0  0  0  0  0
  -23.5920  -29.8420   20.2400 C   0  0  0  0  0  2  0  0  0  0  0  0
  -24.6630  -31.1050   22.1520 N   0  0  0  0  0  0  0  0  0  0  0  0
  -23.5270  -32.2030   23.7850 O   0  0  0  0  0  0  0  0  0  0  0  0
  -22.7260  -29.5080   22.5860 C   0  0  0  0  0  0  0  0  0  0  0  0
  -21.4000  -29.3320   22.4630 N   0  0  0  0  0  0  0  0  0  0  0  0
  -23.4050  -28.8850   23.4050 O   0  0  0  0  0  0  0  0  0  0  0  0
  -20.9090  -29.8920   21.7790 H   0  0  0  0  0  0  0  0  0  0  0  0
  -18.0230  -28.1350   22.9700 C   0  0  0  0  0  0  0  0  0  0  0  0
  -20.5810  -28.4010   23.2410 C   0  0  0  0  0  3  0  0  0  0  0  0
  -20.6860  -26.9630   22.6790 C   0  0  0  0  0  2  0  0  0  0  0  0
  -19.5870  -26.6300   21.6650 C   0  0  0  0  0  2  0  0  0  0  0  0
  -18.2030  -26.7810   22.3060 C   0  0  0  0  0  2  0  0  0  0  0  0
  -19.1400  -28.9030   23.3950 C   0  0  0  0  0  0  0  0  0  0  0  0
  -18.9180  -30.1720   23.9750 C   0  0  0  0  0  3  0  0  0  0  0  0
  -17.6120  -30.6730   24.1320 C   0  0  0  0  0  3  0  0  0  0  0  0
  -16.5100  -29.9020   23.7220 C   0  0  0  0  0  3  0  0  0  0  0  0
  -16.7170  -28.6360   23.1470 C   0  0  0  0  0  3  0  0  0  0  0  0
  -25.8950  -32.5460   23.8630 C   0  0  0  0  0  3  0  0  0  0  0  0
  -26.4180  -31.7710   25.1340 C   0  0  1  0  0  0  0  0  0  0  0  0
  -25.3340  -31.5380   26.2120 C   0  0  0  0  0  1  0  0  0  0  0  0
  -26.9900  -30.3910   24.7340 C   0  0  0  0  0  1  0  0  0  0  0  0
  -27.5790  -32.5590   25.7860 C   0  0  0  0  0  1  0  0  0  0  0  0
  -25.5900  -33.9450   24.1990 N   0  0  0  0  0  0  0  0  0  0  0  0
  -25.9140  -34.9990   23.4390 C   0  0  0  0  0  0  0  0  0  0  0  0
  -26.5690  -34.8980   22.3980 O   0  0  0  0  0  0  0  0  0  0  0  0
  -25.0040  -34.0970   25.0060 H   0  0  0  0  0  0  0  0  0  0  0  0
  -24.1790  -36.7910   23.1200 C   0  0  0  0  0  1  0  0  0  0  0  0
  -25.4360  -36.3870   23.9060 C   0  0  0  0  0  3  0  0  0  0  0  0
  -27.5900  -37.2700   24.6890 C   0  0  0  0  0  1  0  0  0  0  0  0
  -26.4660  -37.4400   23.7720 N   0  0  0  0  0  0  0  0  0  0  0  0
  -26.0630  -38.3600   23.9290 H   0  0  0  0  0  0  0  0  0  0  0  0
  -29.9110  -17.1410   19.7800 C   0  0  0  0  0  2  0  0  0  0  0  0
  -30.6140  -14.7130   20.3530 C   0  0  0  0  0  0  0  0  0  0  0  0
  -30.3730  -12.4480   19.3630 C   0  0  0  0  0  2  0  0  0  0  0  0
  -29.4420  -12.5640   18.1380 C   0  0  0  0  0  2  0  0  0  0  0  0
  -27.9660  -12.4270   18.5610 C   0  0  0  0  0  2  0  0  0  0  0  0
  -27.6080  -13.3030   19.7940 C   0  0  0  0  0  3  0  0  0  0  0  0
  -28.6670  -13.1730   20.9120 C   0  0  0  0  0  2  0  0  0  0  0  0
  -29.9770  -13.4970   20.3270 N   0  0  0  0  0  0  0  0  0  0  0  0
  -31.7800  -14.8180   19.9650 O   0  0  0  0  0  0  0  0  0  0  0  0
  -29.8420  -15.8340   20.5510 N   0  0  0  0  0  0  0  0  0  0  0  0
  -28.9330  -15.6330   20.9370 H   0  0  0  0  0  0  0  0  0  0  0  0
  -25.2170  -13.9070   20.5110 C   0  0  0  0  0  0  0  0  0  0  0  0
  -24.1450  -13.1400   20.8840 C   0  0  0  0  0  0  0  0  0  0  0  0
  -24.6050  -11.7870   20.8600 C   0  0  0  0  0  0  0  0  0  0  0  0
  -26.2590  -13.0240   20.2820 N   0  0  0  0  0  0  0  0  0  0  0  0
  -25.8960  -11.7430   20.5520 N   0  0  0  0  0  0  0  0  0  0  0  0
  -23.8710  -10.5290   21.0540 C   0  0  0  0  0  0  0  0  0  0  0  0
  -24.3100   -9.5530   21.9770 C   0  0  0  0  0  3  0  0  0  0  0  0
  -23.5770   -8.3600   22.1610 C   0  0  0  0  0  3  0  0  0  0  0  0
  -22.3920   -8.1330   21.4230 C   0  0  0  0  0  0  0  0  0  0  0  0
  -21.9720   -9.0970   20.4880 C   0  0  0  0  0  3  0  0  0  0  0  0
  -22.7050  -10.2820   20.3020 C   0  0  0  0  0  3  0  0  0  0  0  0
  -21.6320   -6.9930   21.5160 O   0  0  0  0  0  0  0  0  0  0  0  0
  -21.6060   -6.2350   22.6590 C   0  0  0  0  0  0  0  0  0  0  0  0
  -21.2290   -6.7800   23.9060 C   0  0  0  0  0  3  0  0  0  0  0  0
  -21.1500   -5.9510   25.0420 C   0  0  0  0  0  3  0  0  0  0  0  0
  -21.4350   -4.5770   24.9330 C   0  0  0  0  0  0  0  0  0  0  0  0
  -21.8050   -4.0300   23.6910 C   0  0  0  0  0  3  0  0  0  0  0  0
  -21.8850   -4.8560   22.5570 C   0  0  0  0  0  0  0  0  0  0  0  0
  -22.2210   -4.3210   21.3590 F   0  0  0  0  0  0  0  0  0  0  0  0
  -21.3510   -3.7780   26.0230 F   0  0  0  0  0  0  0  0  0  0  0  0
  -22.7490  -13.6220   21.1490 C   0  0  0  0  0  0  0  0  0  0  0  0
  -22.0190  -12.9360   22.0210 N   0  0  0  0  0  0  0  0  0  0  0  0
  -22.3140  -14.6440   20.6180 O   0  0  0  0  0  0  0  0  0  0  0  0
  -22.3840  -12.1120   22.4750 H   0  0  0  0  0  0  0  0  0  0  0  0
  -21.0800  -13.2420   22.2380 H   0  0  0  0  0  0  0  0  0  0  0  0
  -25.3840  -15.2770   20.3260 N   0  0  0  0  0  0  0  0  0  0  0  0
  -24.6190  -15.9330   20.4370 H   0  0  0  0  0  0  0  0  0  0  0  0
  -26.2240  -15.7140   19.9690 H   0  0  0  0  0  0  0  0  0  0  0  0
  1  4  1  0
  2  4  2  0
  3  6  2  0
  3  5  1  0
  4  7  1  0
  5  1  2  0
  6  2  1  0
  8  9  1  0
  8  5  1  0
 10 11  1  0
 10  9  2  0
 12 23  2  0
 13 11  1  0
 13 18  1  0
 14 22  1  0
 14 24  1  0
 15 21  1  0
 15 17  1  0
 16 22  1  0
 17 16  1  0
 18 17  2  0
 19 20  1  0
 19 13  2  0
 20 15  2  0
 21 14  1  0
 22 12  1  0
 24 26  2  0
 25 24  1  0
 27 25  1  0
 28 37  2  0
 28 33  1  0
 29 25  1  0
 29 33  1  0
 30 29  1  0
 31 32  1  0
 31 30  1  0
 32 28  1  0
 33 34  2  0
 34 35  1  0
 36 35  2  0
 37 36  1  0
 38 12  1  0
 38 43  1  0
 38 39  1  0
 39 42  1  1
 39 40  1  0
 41 39  1  0
 43 46  1  0
 44 48  1  0
 44 43  1  0
 45 44  2  0
 48 47  1  0
 50 48  1  0
 50 51  1  0
 50 49  1  0
 52  6  1  0
 52 61  1  0
 53 61  1  0
 54 59  1  0
 55 56  1  0
 55 54  1  0
 57 56  1  0
 57 66  1  0
 57 58  1  0
 59 53  1  0
 59 58  1  0
 60 53  2  0
 61 62  1  0
 63 64  2  0
 64 83  1  0
 65 64  1  0
 65 68  1  0
 66 63  1  0
 66 67  1  0
 67 65  2  0
 68 69  1  0
 69 70  2  0
 71 74  1  0
 71 70  1  0
 72 71  2  0
 73 72  1  0
 73 68  2  0
 74 75  1  0
 75 76  1  0
 76 77  2  0
 78 77  1  0
 78 82  1  0
 79 78  2  0
 80 75  2  0
 80 79  1  0
 81 80  1  0
 83 84  1  0
 84 87  1  0
 84 86  1  0
 85 83  2  0
 88 89  1  0
 88 63  1  0
 90 88  1  0
M  ISO  4  10 101  11 101  53 100  61 100
M  END
>  <TORSDO>  (57) 
F 20

>  <SCORE>  (57) 
-14.125

>  <name>  (57) 
56

>  <ligand_id>  (57) 
56

>  <original_smiles>  (57) 
[H]c1c([H])c([H])c2c(c1[H])C([H])([H])C([H])([H])C([H])([H])C2([H])N([H])C(=O)C1([H])N(C(=O)C([H])(N([H])C(=O)C([H])(N([H])C([H])([H])[H])C([H])([H])[H])C(C([H])([H])[H])(C([H])([H])[H])C([H])([H])[H])C([H])([H])c2c([H])c(OC([H])([H])C([H])([H])C([H])([H])c3c([H])c(C([H])([H])[H])c([H])c(C([H])([H])N([H])C(=O)N4C([H])([H])C([H])([H])C([H])([H])C([H])(n5nc(-c6c([H])c([H])c(Oc7c([H])c([H])c(F)c([H])c7F)c([H])c6[H])c(C(=O)N([H])[H])c5N([H])[H])C4([H])[H])c3[H])c([H])c([H])c2C1([H])[H]

>  <smiles>  (57) 
[H]c1c([H])c([H])c2c(c1[H])C([H])([H])C([H])([H])C([H])([H])C2([H])N([H])C(=O)C1([H])N(C(=O)C([H])(N([H])C(=O)C([H])(N([H])C([H])([H])[H])C([H])([H])[H])C(C([H])([H])[H])(C([H])([H])[H])C([H])([H])[H])C([H])([H])c2c([H])c(OC([H])([H])C([H])([H])C([H])([H])c3c([H])c(C([H])([H])[H])c([H])c(C([H])([H])N([H])C(=O)N4C([H])([H])C([H])([H])C([H])([H])C([H])(n5nc(-c6c([H])c([H])c(Oc7c([H])c([H])c(F)c([H])c7F)c([H])c6[H])c(C(=O)N([H])[H])c5N([H])[H])C4([H])[H])c3[H])c([H])c([H])c2C1([H])[H]

$$$$
57:0:0
     RDKit          3D

 96104  0  0  1  0  0  0  0  0999 V2000
  -27.4030  -22.9530   17.6790 C   0  0  0  0  0  3  0  0  0  0  0  0
  -26.0450  -23.3250   18.1450 C   0  0  0  0  0  0  0  0  0  0  0  0
  -27.8640  -21.6200   17.8500 C   0  0  0  0  0  0  0  0  0  0  0  0
  -25.3460  -22.1540   18.5120 C   0  0  0  0  0  0  0  0  0  0  0  0
  -23.8540  -21.8600   18.8530 C   0  0  0  0  0  1  0  0  0  0  0  0
  -26.4920  -20.7480   18.5550 S   0  0  0  0  0  0  0  0  0  0  0  0
  -25.6050  -24.8580   18.0460 C   0  0  2  0  0  0  0  0  0  0  0  0
  -26.1570  -25.3940   16.9440 F   0  0  0  0  0  0  0  0  0  0  0  0
  -26.1420  -25.4960   19.0900 F   0  0  0  0  0  0  0  0  0  0  0  0
  -24.0630  -25.3930   18.0720 C   0  0  0  0  0  2  0  0  0  0  0  0
  -23.6430  -26.8700   18.6280 C   0  0  0  0  0  2  0  0  0  0  0  0
  -22.0700  -27.1530   18.6660 C   0  0  0  0  0  2  0  0  0  0  0  0
  -21.2850  -27.8240   19.8850 C   0  0  0  0  0  3  0  0  0  0  0  0
  -19.8990  -27.2200   20.4490 C   0  0  0  0  0  3  0  0  0  0  0  0
  -18.8940  -26.0120   20.0760 C   0  0  0  0  0  2  0  0  0  0  0  0
  -18.1150  -25.1430   21.2180 C   0  0  0  0  0  2  0  0  0  0  0  0
  -16.3840  -26.2510   22.9920 C   0  0  0  0  0  0  0  0  0  0  0  0
  -15.0990  -24.8570   22.6590 C   0  0  0  0  0  2  0  0  0  0  0  0
  -15.7850  -23.6560   21.9920 C   0  0  0  0  0  2  0  0  0  0  0  0
  -16.1930  -22.5010   22.8160 C   0  0  0  0  0  2  0  0  0  0  0  0
  -15.4670  -22.8180   24.0750 C   0  0  0  0  0  3  0  0  0  0  0  0
  -15.9730  -24.1870   24.7260 C   0  0  0  0  0  2  0  0  0  0  0  0
  -15.7440  -25.3710   23.7820 N   0  0  0  0  0  0  0  0  0  0  0  0
  -15.7340  -27.2070   22.4740 O   0  0  0  0  0  0  0  0  0  0  0  0
  -17.6600  -25.7890   22.5570 N   0  0  0  0  0  0  0  0  0  0  0  0
  -18.4570  -26.0660   23.1460 H   0  0  0  0  0  0  0  0  0  0  0  0
  -15.8620  -20.3790   24.5120 C   0  0  0  0  0  0  0  0  0  0  0  0
  -15.4410  -19.6020   25.4950 C   0  0  0  0  0  0  0  0  0  0  0  0
  -14.6060  -20.4450   26.2970 C   0  0  0  0  0  0  0  0  0  0  0  0
  -15.2420  -21.6070   24.7320 N   0  0  0  0  0  0  0  0  0  0  0  0
  -14.4720  -21.6510   25.7980 N   0  0  0  0  0  0  0  0  0  0  0  0
  -13.9770  -20.2170   27.5610 C   0  0  0  0  0  0  0  0  0  0  0  0
  -12.5780  -20.1490   27.6340 C   0  0  0  0  0  3  0  0  0  0  0  0
  -11.9450  -19.8850   28.8580 C   0  0  0  0  0  3  0  0  0  0  0  0
  -12.7320  -19.6660   30.0140 C   0  0  0  0  0  0  0  0  0  0  0  0
  -14.1320  -19.8120   29.9460 C   0  0  0  0  0  3  0  0  0  0  0  0
  -14.7550  -20.0960   28.7320 C   0  0  0  0  0  3  0  0  0  0  0  0
  -12.1790  -19.3810   31.2380 O   0  0  0  0  0  0  0  0  0  0  0  0
  -11.3200  -18.3300   31.4120 C   0  0  0  0  0  0  0  0  0  0  0  0
  -11.6500  -17.0120   31.0370 C   0  0  0  0  0  3  0  0  0  0  0  0
  -10.7540  -15.9590   31.3190 C   0  0  0  0  0  3  0  0  0  0  0  0
   -9.5440  -16.2180   31.9830 C   0  0  0  0  0  0  0  0  0  0  0  0
   -9.2270  -17.5310   32.3690 C   0  0  0  0  0  3  0  0  0  0  0  0
  -10.1090  -18.5800   32.0890 C   0  0  0  0  0  0  0  0  0  0  0  0
   -9.8070  -19.8430   32.4850 F   0  0  0  0  0  0  0  0  0  0  0  0
   -8.6860  -15.2140   32.2600 F   0  0  0  0  0  0  0  0  0  0  0  0
  -15.8240  -18.1700   25.7670 C   0  0  0  0  0  0  0  0  0  0  0  0
  -14.8960  -17.4010   26.2930 N   0  0  0  0  0  0  0  0  0  0  0  0
  -16.9600  -17.7550   25.4990 O   0  0  0  0  0  0  0  0  0  0  0  0
  -14.0020  -17.8260   26.5110 H   0  0  0  0  0  0  0  0  0  0  0  0
  -15.0520  -16.4190   26.4930 H   0  0  0  0  0  0  0  0  0  0  0  0
  -16.7290  -20.0880   23.4420 N   0  0  0  0  0  0  0  0  0  0  0  0
  -17.3060  -19.2840   23.6890 H   0  0  0  0  0  0  0  0  0  0  0  0
  -17.2350  -20.7960   22.9570 H   0  0  0  0  0  0  0  0  0  0  0  0
  -29.3380  -21.0780   17.4170 C   0  0  0  0  0  2  0  0  0  0  0  0
  -30.5140  -21.7630   16.6070 O   0  0  0  0  0  0  0  0  0  0  0  0
  -36.0820  -16.6650   16.7850 C   0  0  0  0  0  0  0  0  0  0  0  0
  -31.8370  -21.2410   16.6990 C   0  0  0  0  0  0  0  0  0  0  0  0
  -36.3470  -18.8890   17.7920 C   0  0  0  0  0  3  0  0  0  0  0  0
  -34.5980  -20.6390   17.1840 C   0  0  0  0  0  0  0  0  0  0  0  0
  -34.6950  -18.5590   15.8410 C   0  0  0  0  0  2  0  0  0  0  0  0
  -33.8760  -19.7610   16.3720 C   0  0  0  0  0  0  0  0  0  0  0  0
  -32.4790  -20.0640   16.1110 C   0  0  0  0  0  3  0  0  0  0  0  0
  -32.6470  -22.0340   17.5240 C   0  0  0  0  0  3  0  0  0  0  0  0
  -33.9930  -21.7570   17.7450 C   0  0  0  0  0  3  0  0  0  0  0  0
  -36.0570  -20.3680   17.4740 C   0  0  0  0  0  2  0  0  0  0  0  0
  -35.6890  -17.9800   16.8060 N   0  0  0  0  0  0  0  0  0  0  0  0
  -36.9460  -16.2450   17.5730 O   0  0  0  0  0  0  0  0  0  0  0  0
  -35.9360  -18.5830   19.2600 C   0  0  0  0  0  0  0  0  0  0  0  0
  -36.6670  -19.1540   20.2280 N   0  0  0  0  0  0  0  0  0  0  0  0
  -34.9740  -17.8560   19.4980 O   0  0  0  0  0  0  0  0  0  0  0  0
  -37.4440  -19.7300   19.9500 H   0  0  0  0  0  0  0  0  0  0  0  0
  -37.8550  -20.2150   23.4800 C   0  0  0  0  0  0  0  0  0  0  0  0
  -36.4320  -19.0430   21.6740 C   0  0  0  0  0  3  0  0  0  0  0  0
  -35.2830  -19.9710   22.1320 C   0  0  0  0  0  2  0  0  0  0  0  0
  -35.7590  -21.3420   22.6210 C   0  0  0  0  0  2  0  0  0  0  0  0
  -36.7220  -21.1820   23.8010 C   0  0  0  0  0  2  0  0  0  0  0  0
  -37.7270  -19.2230   22.4740 C   0  0  0  0  0  0  0  0  0  0  0  0
  -38.8220  -18.3760   22.2000 C   0  0  0  0  0  3  0  0  0  0  0  0
  -40.0320  -18.5170   22.9070 C   0  0  0  0  0  3  0  0  0  0  0  0
  -40.1440  -19.4810   23.9200 C   0  0  0  0  0  3  0  0  0  0  0  0
  -39.0570  -20.3240   24.2140 C   0  0  0  0  0  3  0  0  0  0  0  0
  -35.4840  -15.6420   15.7820 C   0  0  0  0  0  3  0  0  0  0  0  0
  -34.2670  -14.8350   16.3870 C   0  0  1  0  0  0  0  0  0  0  0  0
  -34.6130  -14.0500   17.6720 C   0  0  0  0  0  1  0  0  0  0  0  0
  -33.1010  -15.7930   16.7330 C   0  0  0  0  0  1  0  0  0  0  0  0
  -33.7320  -13.8250   15.3530 C   0  0  0  0  0  1  0  0  0  0  0  0
  -36.5650  -14.7170   15.3960 N   0  0  0  0  0  0  0  0  0  0  0  0
  -37.2940  -14.8100   14.2830 C   0  0  0  0  0  0  0  0  0  0  0  0
  -37.0900  -15.6660   13.4240 O   0  0  0  0  0  0  0  0  0  0  0  0
  -36.8150  -14.0130   16.0670 H   0  0  0  0  0  0  0  0  0  0  0  0
  -39.7900  -14.4900   14.4050 C   0  0  0  0  0  1  0  0  0  0  0  0
  -38.4500  -13.8020   14.0980 C   0  0  0  0  0  3  0  0  0  0  0  0
  -37.4030  -12.2840   12.4760 C   0  0  0  0  0  1  0  0  0  0  0  0
  -38.4990  -13.2050   12.7470 N   0  0  0  0  0  0  0  0  0  0  0  0
  -39.3740  -12.7130   12.5950 H   0  0  0  0  0  0  0  0  0  0  0  0
  1  3  2  0
  1  2  1  0
  2  4  2  0
  3  6  1  0
  4  6  1  0
  4  5  1  0
  7 10  1  0
  7  2  1  0
  7  9  1  1
  8  7  1  0
 10 11  1  0
 11 12  1  0
 12 13  1  0
 13 14  2  0
 15 14  1  0
 15 16  1  0
 16 25  1  0
 17 23  1  0
 18 23  1  0
 19 18  1  0
 19 20  1  0
 21 20  1  0
 21 22  1  0
 21 30  1  0
 23 22  1  0
 24 17  2  0
 25 17  1  0
 25 26  1  0
 27 30  1  0
 27 28  2  0
 28 47  1  0
 28 29  1  0
 29 32  1  0
 30 31  1  0
 31 29  2  0
 32 33  2  0
 32 37  1  0
 33 34  1  0
 34 35  2  0
 35 38  1  0
 36 35  1  0
 37 36  2  0
 38 39  1  0
 39 44  1  0
 40 41  1  0
 40 39  2  0
 41 42  2  0
 42 46  1  0
 42 43  1  0
 44 43  2  0
 44 45  1  0
 47 48  1  0
 48 51  1  0
 48 50  1  0
 49 47  2  0
 52 53  1  0
 52 27  1  0
 54 52  1  0
 55  3  1  0
 56 58  1  0
 56 55  1  0
 57 67  1  0
 57 68  2  0
 58 64  1  0
 59 69  1  0
 60 66  1  0
 60 65  1  0
 61 62  1  0
 61 67  1  0
 62 60  2  0
 63 62  1  0
 63 58  2  0
 64 65  2  0
 66 59  1  0
 67 59  1  0
 69 71  2  0
 69 70  1  0
 72 70  1  0
 73 77  1  0
 73 82  1  0
 74 70  1  0
 74 75  1  0
 74 78  1  0
 75 76  1  0
 76 77  1  0
 78 73  2  0
 79 78  1  0
 79 80  2  0
 80 81  1  0
 81 82  2  0
 83 84  1  0
 83 57  1  0
 84 86  1  1
 84 85  1  0
 87 84  1  0
 88 83  1  0
 88 91  1  0
 89 88  1  0
 90 89  2  0
 93 89  1  0
 93 92  1  0
 94 95  1  0
 95 93  1  0
 96 95  1  0
M  ISO  4  17 100  25 100  55 101  56 101
M  END
>  <TORSDO>  (58) 
F 25

>  <SCORE>  (58) 
-3.950

>  <name>  (58) 
57

>  <ligand_id>  (58) 
57

>  <original_smiles>  (58) 
[H]c1c([H])c([H])c2c(c1[H])C([H])([H])C([H])([H])C([H])([H])C2([H])N([H])C(=O)C1([H])N(C(=O)C([H])(N([H])C(=O)C([H])(N([H])C([H])([H])[H])C([H])([H])[H])C(C([H])([H])[H])(C([H])([H])[H])C([H])([H])[H])C([H])([H])c2c([H])c(OC([H])([H])c3sc(C([H])([H])[H])c(C(F)(F)C([H])([H])C([H])([H])C([H])([H])C([H])([H])C([H])([H])C([H])([H])C([H])([H])N([H])C(=O)N4C([H])([H])C([H])([H])C([H])([H])C([H])(n5nc(-c6c([H])c([H])c(Oc7c([H])c([H])c(F)c([H])c7F)c([H])c6[H])c(C(=O)N([H])[H])c5N([H])[H])C4([H])[H])c3[H])c([H])c([H])c2C1([H])[H]

>  <smiles>  (58) 
[H]c1c([H])c([H])c2c(c1[H])C([H])([H])C([H])([H])C([H])([H])C2([H])N([H])C(=O)C1([H])N(C(=O)C([H])(N([H])C(=O)C([H])(N([H])C([H])([H])[H])C([H])([H])[H])C(C([H])([H])[H])(C([H])([H])[H])C([H])([H])[H])C([H])([H])c2c([H])c(OC([H])([H])c3sc(C([H])([H])[H])c(C(F)(F)C([H])([H])C([H])([H])C([H])([H])C([H])([H])C([H])([H])C([H])([H])C([H])([H])N([H])C(=O)N4C([H])([H])C([H])([H])C([H])([H])C([H])(n5nc(-c6c([H])c([H])c(Oc7c([H])c([H])c(F)c([H])c7F)c([H])c6[H])c(C(=O)N([H])[H])c5N([H])[H])C4([H])[H])c3[H])c([H])c([H])c2C1([H])[H]

$$$$
58:0:0
     RDKit          3D

 91 99  0  0  1  0  0  0  0  0999 V2000
  -27.6930  -19.8060   20.4650 C   0  0  0  0  0  3  0  0  0  0  0  0
  -27.8710  -18.4300   20.2060 C   0  0  0  0  0  3  0  0  0  0  0  0
  -30.0550  -19.9680   21.0110 C   0  0  0  0  0  3  0  0  0  0  0  0
  -28.7850  -20.5800   20.9000 C   0  0  0  0  0  0  0  0  0  0  0  0
  -29.1390  -17.8110   20.3250 C   0  0  0  0  0  0  0  0  0  0  0  0
  -30.2470  -18.6050   20.7170 C   0  0  0  0  0  0  0  0  0  0  0  0
  -31.8510  -17.9760   20.8930 Cl  0  0  0  0  0  0  0  0  0  0  0  0
  -28.5860  -22.0300   21.3150 C   0  0  0  0  0  2  0  0  0  0  0  0
  -28.4940  -23.0450   20.1600 C   0  0  0  0  0  2  0  0  0  0  0  0
  -28.4210  -24.5120   20.6630 C   0  0  0  0  0  2  0  0  0  0  0  0
  -28.5290  -25.5130   19.5070 C   0  0  0  0  0  2  0  0  0  0  0  0
  -28.4490  -26.8560   19.9920 O   0  0  0  0  0  0  0  0  0  0  0  0
  -24.5670  -31.8830   23.2080 C   0  0  0  0  0  0  0  0  0  0  0  0
  -27.2370  -27.5110   20.0340 C   0  0  0  0  0  0  0  0  0  0  0  0
  -23.3630  -30.4990   21.5600 C   0  0  0  0  0  3  0  0  0  0  0  0
  -24.8180  -28.9970   20.1030 C   0  0  0  0  0  0  0  0  0  0  0  0
  -25.8810  -30.8840   21.3450 C   0  0  0  0  0  2  0  0  0  0  0  0
  -25.9760  -29.5170   20.6930 C   0  0  0  0  0  0  0  0  0  0  0  0
  -27.1810  -28.7790   20.6580 C   0  0  0  0  0  3  0  0  0  0  0  0
  -26.0540  -27.0030   19.4460 C   0  0  0  0  0  3  0  0  0  0  0  0
  -24.8560  -27.7440   19.4730 C   0  0  0  0  0  3  0  0  0  0  0  0
  -23.5620  -29.8340   20.1730 C   0  0  0  0  0  2  0  0  0  0  0  0
  -24.6220  -31.1020   22.0950 N   0  0  0  0  0  0  0  0  0  0  0  0
  -23.4900  -32.1440   23.7540 O   0  0  0  0  0  0  0  0  0  0  0  0
  -22.7280  -29.4600   22.5070 C   0  0  0  0  0  0  0  0  0  0  0  0
  -21.4070  -29.2800   22.3890 N   0  0  0  0  0  0  0  0  0  0  0  0
  -23.4240  -28.8160   23.3040 O   0  0  0  0  0  0  0  0  0  0  0  0
  -20.9250  -29.8490   21.7080 H   0  0  0  0  0  0  0  0  0  0  0  0
  -18.0280  -28.1320   22.9470 C   0  0  0  0  0  0  0  0  0  0  0  0
  -20.5990  -28.3270   23.1520 C   0  0  0  0  0  3  0  0  0  0  0  0
  -20.6650  -26.9340   22.4840 C   0  0  0  0  0  2  0  0  0  0  0  0
  -19.5270  -26.7420   21.4750 C   0  0  0  0  0  2  0  0  0  0  0  0
  -18.1620  -26.8470   22.1650 C   0  0  0  0  0  2  0  0  0  0  0  0
  -19.1720  -28.8510   23.3730 C   0  0  0  0  0  0  0  0  0  0  0  0
  -18.9910  -30.1120   23.9860 C   0  0  0  0  0  3  0  0  0  0  0  0
  -17.7050  -30.6460   24.1640 C   0  0  0  0  0  3  0  0  0  0  0  0
  -16.5740  -29.9140   23.7630 C   0  0  0  0  0  3  0  0  0  0  0  0
  -16.7340  -28.6520   23.1670 C   0  0  0  0  0  3  0  0  0  0  0  0
  -25.8540  -32.5030   23.8280 C   0  0  0  0  0  3  0  0  0  0  0  0
  -25.5440  -33.9020   24.1570 N   0  0  0  0  0  0  0  0  0  0  0  0
  -25.8980  -34.9510   23.4090 C   0  0  0  0  0  0  0  0  0  0  0  0
  -26.5880  -34.8480   22.3890 O   0  0  0  0  0  0  0  0  0  0  0  0
  -24.9100  -34.0530   24.9270 H   0  0  0  0  0  0  0  0  0  0  0  0
  -24.1740  -36.7460   23.0300 C   0  0  0  0  0  1  0  0  0  0  0  0
  -25.4040  -36.3400   23.8590 C   0  0  0  0  0  3  0  0  0  0  0  0
  -27.5240  -37.2190   24.7270 C   0  0  0  0  0  1  0  0  0  0  0  0
  -26.4400  -37.3910   23.7640 N   0  0  0  0  0  0  0  0  0  0  0  0
  -26.0330  -38.3130   23.9060 H   0  0  0  0  0  0  0  0  0  0  0  0
  -26.3660  -31.7210   25.0960 C   0  0  1  0  0  0  0  0  0  0  0  0
  -25.2680  -31.4720   26.1530 C   0  0  0  0  0  1  0  0  0  0  0  0
  -26.9500  -30.3480   24.6850 C   0  0  0  0  0  1  0  0  0  0  0  0
  -27.5160  -32.5100   25.7630 C   0  0  0  0  0  1  0  0  0  0  0  0
  -29.1960  -16.3110   20.0290 C   0  0  0  0  0  2  0  0  0  0  0  0
  -30.7800  -14.4620   20.0810 C   0  0  0  0  0  0  0  0  0  0  0  0
  -30.3570  -12.3490   18.9000 C   0  0  0  0  0  2  0  0  0  0  0  0
  -29.3450  -12.6110   17.7740 C   0  0  0  0  0  2  0  0  0  0  0  0
  -27.8900  -12.4700   18.2690 C   0  0  0  0  0  2  0  0  0  0  0  0
  -27.6440  -13.2460   19.5850 C   0  0  0  0  0  3  0  0  0  0  0  0
  -28.7780  -13.0020   20.6160 C   0  0  0  0  0  2  0  0  0  0  0  0
  -30.0620  -13.3130   19.9690 N   0  0  0  0  0  0  0  0  0  0  0  0
  -31.8890  -14.6170   19.5700 O   0  0  0  0  0  0  0  0  0  0  0  0
  -30.2120  -15.5010   20.7010 N   0  0  0  0  0  0  0  0  0  0  0  0
  -30.9410  -16.1200   21.0300 H   0  0  0  0  0  0  0  0  0  0  0  0
  -25.2940  -13.9070   20.4410 C   0  0  0  0  0  0  0  0  0  0  0  0
  -24.2280  -13.1580   20.8450 C   0  0  0  0  0  0  0  0  0  0  0  0
  -24.6570  -11.7940   20.7670 C   0  0  0  0  0  0  0  0  0  0  0  0
  -26.3070  -13.0060   20.1350 N   0  0  0  0  0  0  0  0  0  0  0  0
  -25.9250  -11.7300   20.3900 N   0  0  0  0  0  0  0  0  0  0  0  0
  -23.9190  -10.5440   20.9810 C   0  0  0  0  0  0  0  0  0  0  0  0
  -24.3730   -9.5590   21.8870 C   0  0  0  0  0  3  0  0  0  0  0  0
  -23.6330   -8.3740   22.0840 C   0  0  0  0  0  3  0  0  0  0  0  0
  -22.4220   -8.1660   21.3810 C   0  0  0  0  0  0  0  0  0  0  0  0
  -21.9820   -9.1410   20.4690 C   0  0  0  0  0  3  0  0  0  0  0  0
  -22.7260  -10.3180   20.2680 C   0  0  0  0  0  3  0  0  0  0  0  0
  -21.6570   -7.0310   21.4890 O   0  0  0  0  0  0  0  0  0  0  0  0
  -21.6470   -6.2780   22.6360 C   0  0  0  0  0  0  0  0  0  0  0  0
  -21.2760   -6.8250   23.8840 C   0  0  0  0  0  3  0  0  0  0  0  0
  -21.2200   -6.0010   25.0240 C   0  0  0  0  0  3  0  0  0  0  0  0
  -21.5210   -4.6290   24.9160 C   0  0  0  0  0  0  0  0  0  0  0  0
  -21.8870   -4.0830   23.6730 C   0  0  0  0  0  3  0  0  0  0  0  0
  -21.9480   -4.9060   22.5340 C   0  0  0  0  0  0  0  0  0  0  0  0
  -22.2820   -4.3690   21.3360 F   0  0  0  0  0  0  0  0  0  0  0  0
  -21.4580   -3.8350   26.0090 F   0  0  0  0  0  0  0  0  0  0  0  0
  -22.8540  -13.6550   21.1930 C   0  0  0  0  0  0  0  0  0  0  0  0
  -22.1520  -12.9660   22.0810 N   0  0  0  0  0  0  0  0  0  0  0  0
  -22.4140  -14.7010   20.7110 O   0  0  0  0  0  0  0  0  0  0  0  0
  -22.5130  -12.1180   22.4910 H   0  0  0  0  0  0  0  0  0  0  0  0
  -21.2370  -13.2930   22.3580 H   0  0  0  0  0  0  0  0  0  0  0  0
  -25.4930  -15.2780   20.2900 N   0  0  0  0  0  0  0  0  0  0  0  0
  -24.8370  -15.9720   20.6290 H   0  0  0  0  0  0  0  0  0  0  0  0
  -26.3620  -15.6660   19.9590 H   0  0  0  0  0  0  0  0  0  0  0  0
  1  4  1  0
  2  5  1  0
  2  1  2  0
  4  3  2  0
  4  8  1  0
  5  6  2  0
  6  7  1  0
  6  3  1  0
  9 10  1  0
  9  8  1  0
 11 12  1  0
 11 10  1  0
 12 14  1  0
 13 24  2  0
 14 19  1  0
 15 23  1  0
 15 25  1  0
 16 22  1  0
 16 18  1  0
 17 23  1  0
 18 17  1  0
 19 18  2  0
 20 21  1  0
 20 14  2  0
 21 16  2  0
 22 15  1  0
 23 13  1  0
 25 27  2  0
 26 25  1  0
 28 26  1  0
 29 38  2  0
 29 34  1  0
 30 26  1  0
 30 34  1  0
 31 30  1  0
 32 33  1  0
 32 31  1  0
 33 29  1  0
 34 35  2  0
 35 36  1  0
 37 36  2  0
 38 37  1  0
 39 13  1  0
 39 40  1  0
 39 49  1  0
 40 43  1  0
 41 45  1  0
 41 40  1  0
 42 41  2  0
 45 44  1  0
 47 45  1  0
 47 48  1  0
 47 46  1  0
 49 52  1  1
 49 50  1  0
 51 49  1  0
 53  5  1  0
 53 62  1  0
 54 62  1  0
 55 60  1  0
 56 57  1  0
 56 55  1  0
 58 57  1  0
 58 67  1  0
 58 59  1  0
 60 54  1  0
 60 59  1  0
 61 54  2  0
 62 63  1  0
 64 65  2  0
 65 84  1  0
 66 65  1  0
 66 69  1  0
 67 68  1  0
 67 64  1  0
 68 66  2  0
 69 70  1  0
 70 71  2  0
 72 75  1  0
 72 71  1  0
 73 72  2  0
 74 73  1  0
 74 69  2  0
 75 76  1  0
 76 77  1  0
 77 78  2  0
 79 78  1  0
 79 83  1  0
 80 79  2  0
 81 76  2  0
 81 80  1  0
 82 81  1  0
 84 85  1  0
 85 88  1  0
 85 87  1  0
 86 84  2  0
 89 64  1  0
 89 90  1  0
 91 89  1  0
M  ISO  4  11 101  12 101  54 100  62 100
M  END
>  <TORSDO>  (59) 
F 21

>  <SCORE>  (59) 
-13.516

>  <name>  (59) 
58

>  <ligand_id>  (59) 
58

>  <original_smiles>  (59) 
[H]c1c([H])c([H])c2c(c1[H])C([H])([H])C([H])([H])C([H])([H])C2([H])N([H])C(=O)C1([H])N(C(=O)C([H])(N([H])C(=O)C([H])(N([H])C([H])([H])[H])C([H])([H])[H])C(C([H])([H])[H])(C([H])([H])[H])C([H])([H])[H])C([H])([H])c2c([H])c(OC([H])([H])C([H])([H])C([H])([H])C([H])([H])c3c([H])c([H])c(C([H])([H])N([H])C(=O)N4C([H])([H])C([H])([H])C([H])([H])C([H])(n5nc(-c6c([H])c([H])c(Oc7c([H])c([H])c(F)c([H])c7F)c([H])c6[H])c(C(=O)N([H])[H])c5N([H])[H])C4([H])[H])c(Cl)c3[H])c([H])c([H])c2C1([H])[H]

>  <smiles>  (59) 
[H]c1c([H])c([H])c2c(c1[H])C([H])([H])C([H])([H])C([H])([H])C2([H])N([H])C(=O)C1([H])N(C(=O)C([H])(N([H])C(=O)C([H])(N([H])C([H])([H])[H])C([H])([H])[H])C(C([H])([H])[H])(C([H])([H])[H])C([H])([H])[H])C([H])([H])c2c([H])c(OC([H])([H])C([H])([H])C([H])([H])C([H])([H])c3c([H])c([H])c(C([H])([H])N([H])C(=O)N4C([H])([H])C([H])([H])C([H])([H])C([H])(n5nc(-c6c([H])c([H])c(Oc7c([H])c([H])c(F)c([H])c7F)c([H])c6[H])c(C(=O)N([H])[H])c5N([H])[H])C4([H])[H])c(Cl)c3[H])c([H])c([H])c2C1([H])[H]

$$$$
59:0:0
     RDKit          3D

100109  0  0  1  0  0  0  0  0999 V2000
  -28.8050  -19.1810   16.6080 C   0  0  0  0  0  2  0  0  0  0  0  0
  -30.0450  -21.3680   16.2070 C   0  0  0  0  0  2  0  0  0  0  0  0
  -27.9090  -19.8630   17.6690 C   0  0  0  0  0  2  0  0  0  0  0  0
  -28.8850  -22.0180   16.9980 C   0  0  0  0  0  2  0  0  0  0  0  0
  -30.1860  -19.8360   16.3830 C   0  0  0  0  0  3  0  0  0  0  0  0
  -28.4480  -21.1710   18.1340 N   0  0  1  0  0  4  0  0  0  0  0  0
  -29.2930  -20.9580   18.6430 H   0  0  0  0  0  0  0  0  0  0  0  0
  -33.3330  -18.8240   19.2670 C   0  0  0  0  0  3  0  0  0  0  0  0
  -33.6430  -18.9570   17.9040 C   0  0  0  0  0  3  0  0  0  0  0  0
  -31.0070  -19.3390   18.7740 C   0  0  0  0  0  3  0  0  0  0  0  0
  -31.2940  -19.4640   17.3910 C   0  0  0  0  0  0  0  0  0  0  0  0
  -32.0120  -19.0180   19.7090 C   0  0  0  0  0  0  0  0  0  0  0  0
  -32.6390  -19.2690   16.9630 C   0  0  0  0  0  0  0  0  0  0  0  0
  -33.0520  -19.3830   15.5030 C   0  0  0  0  0  1  0  0  0  0  0  0
  -31.6760  -18.8900   21.1890 C   0  0  0  0  0  2  0  0  0  0  0  0
  -31.3240  -17.4550   21.6320 C   0  0  0  0  0  2  0  0  0  0  0  0
  -30.1310  -16.8360   20.8710 C   0  0  0  0  0  2  0  0  0  0  0  0
  -30.6230  -14.4370   20.5620 C   0  0  0  0  0  0  0  0  0  0  0  0
  -30.3050  -12.3320   19.3400 C   0  0  0  0  0  2  0  0  0  0  0  0
  -29.3610  -12.6190   18.1560 C   0  0  0  0  0  2  0  0  0  0  0  0
  -27.8850  -12.4950   18.5810 C   0  0  0  0  0  2  0  0  0  0  0  0
  -27.5670  -13.2670   19.8890 C   0  0  0  0  0  3  0  0  0  0  0  0
  -28.6240  -12.9580   20.9740 C   0  0  0  0  0  2  0  0  0  0  0  0
  -29.9560  -13.2630   20.4200 N   0  0  0  0  0  0  0  0  0  0  0  0
  -31.7170  -14.6580   20.0350 O   0  0  0  0  0  0  0  0  0  0  0  0
  -29.9250  -15.4140   21.1510 N   0  0  0  0  0  0  0  0  0  0  0  0
  -29.0360  -15.1470   21.5530 H   0  0  0  0  0  0  0  0  0  0  0  0
  -25.1530  -13.8570   20.5660 C   0  0  0  0  0  0  0  0  0  0  0  0
  -24.0890  -13.0750   20.9290 C   0  0  0  0  0  0  0  0  0  0  0  0
  -24.5600  -11.7270   20.9020 C   0  0  0  0  0  0  0  0  0  0  0  0
  -26.2090  -12.9850   20.3530 N   0  0  0  0  0  0  0  0  0  0  0  0
  -25.8530  -11.6980   20.6080 N   0  0  0  0  0  0  0  0  0  0  0  0
  -23.8420  -10.4600   21.0870 C   0  0  0  0  0  0  0  0  0  0  0  0
  -24.2900   -9.4880   22.0090 C   0  0  0  0  0  3  0  0  0  0  0  0
  -23.5730   -8.2860   22.1850 C   0  0  0  0  0  3  0  0  0  0  0  0
  -22.3940   -8.0450   21.4400 C   0  0  0  0  0  0  0  0  0  0  0  0
  -21.9630   -9.0060   20.5080 C   0  0  0  0  0  3  0  0  0  0  0  0
  -22.6810  -10.2020   20.3300 C   0  0  0  0  0  3  0  0  0  0  0  0
  -21.6480   -6.8940   21.5280 O   0  0  0  0  0  0  0  0  0  0  0  0
  -21.6360   -6.1310   22.6680 C   0  0  0  0  0  0  0  0  0  0  0  0
  -21.2520   -6.6650   23.9170 C   0  0  0  0  0  3  0  0  0  0  0  0
  -21.1840   -5.8280   25.0500 C   0  0  0  0  0  3  0  0  0  0  0  0
  -21.4880   -4.4580   24.9320 C   0  0  0  0  0  0  0  0  0  0  0  0
  -21.8620   -3.9230   23.6860 C   0  0  0  0  0  3  0  0  0  0  0  0
  -21.9300   -4.7580   22.5570 C   0  0  0  0  0  0  0  0  0  0  0  0
  -22.2730   -4.2350   21.3550 F   0  0  0  0  0  0  0  0  0  0  0  0
  -21.4110   -3.6500   26.0160 F   0  0  0  0  0  0  0  0  0  0  0  0
  -22.6870  -13.5410   21.1910 C   0  0  0  0  0  0  0  0  0  0  0  0
  -21.9630  -12.8430   22.0590 N   0  0  0  0  0  0  0  0  0  0  0  0
  -22.2420  -14.5590   20.6640 O   0  0  0  0  0  0  0  0  0  0  0  0
  -22.3380  -12.0210   22.5110 H   0  0  0  0  0  0  0  0  0  0  0  0
  -21.0190  -13.1320   22.2720 H   0  0  0  0  0  0  0  0  0  0  0  0
  -25.2970  -15.2310   20.3860 N   0  0  0  0  0  0  0  0  0  0  0  0
  -24.4980  -15.8530   20.4600 H   0  0  0  0  0  0  0  0  0  0  0  0
  -26.1330  -15.6980   20.0590 H   0  0  0  0  0  0  0  0  0  0  0  0
  -27.5370  -21.8390   19.0990 C   0  0  0  0  0  2  0  0  0  0  0  0
  -28.2350  -22.8900   19.9940 C   0  0  0  0  0  2  0  0  0  0  0  0
  -27.7290  -24.3160   19.7310 C   0  0  0  0  0  2  0  0  0  0  0  0
  -28.3060  -25.3820   20.6850 C   0  0  0  0  0  2  0  0  0  0  0  0
  -28.3360  -26.7060   20.1370 O   0  0  0  0  0  0  0  0  0  0  0  0
  -24.5660  -31.8720   23.2450 C   0  0  0  0  0  0  0  0  0  0  0  0
  -27.1630  -27.4200   20.1670 C   0  0  0  0  0  0  0  0  0  0  0  0
  -23.3430  -30.4800   21.6060 C   0  0  0  0  0  3  0  0  0  0  0  0
  -24.7820  -28.9350   20.1820 C   0  0  0  0  0  0  0  0  0  0  0  0
  -25.8680  -30.8240   21.3990 C   0  0  0  0  0  2  0  0  0  0  0  0
  -25.9420  -29.4470   20.7740 C   0  0  0  0  0  0  0  0  0  0  0  0
  -27.1350  -28.6940   20.7740 C   0  0  0  0  0  3  0  0  0  0  0  0
  -25.9920  -26.9350   19.5400 C   0  0  0  0  0  3  0  0  0  0  0  0
  -24.8000  -27.6750   19.5610 C   0  0  0  0  0  3  0  0  0  0  0  0
  -23.5470  -29.8030   20.2240 C   0  0  0  0  0  2  0  0  0  0  0  0
  -24.6120  -31.0680   22.1440 N   0  0  0  0  0  0  0  0  0  0  0  0
  -23.4910  -32.1520   23.7910 O   0  0  0  0  0  0  0  0  0  0  0  0
  -22.6890  -29.4590   22.5640 C   0  0  0  0  0  0  0  0  0  0  0  0
  -21.3640  -29.2840   22.4420 N   0  0  0  0  0  0  0  0  0  0  0  0
  -23.3720  -28.8300   23.3790 O   0  0  0  0  0  0  0  0  0  0  0  0
  -20.8730  -29.8440   21.7580 H   0  0  0  0  0  0  0  0  0  0  0  0
  -17.9850  -28.1070   22.9440 C   0  0  0  0  0  0  0  0  0  0  0  0
  -20.5440  -28.3520   23.2180 C   0  0  0  0  0  3  0  0  0  0  0  0
  -20.6400  -26.9170   22.6500 C   0  0  0  0  0  2  0  0  0  0  0  0
  -19.5390  -26.5980   21.6360 C   0  0  0  0  0  2  0  0  0  0  0  0
  -18.1560  -26.7530   22.2760 C   0  0  0  0  0  2  0  0  0  0  0  0
  -19.1070  -28.8650   23.3730 C   0  0  0  0  0  0  0  0  0  0  0  0
  -18.8960  -30.1340   23.9550 C   0  0  0  0  0  3  0  0  0  0  0  0
  -17.5940  -30.6460   24.1140 C   0  0  0  0  0  3  0  0  0  0  0  0
  -16.4860  -29.8830   23.7040 C   0  0  0  0  0  3  0  0  0  0  0  0
  -16.6830  -28.6170   23.1250 C   0  0  0  0  0  3  0  0  0  0  0  0
  -25.8590  -32.4970   23.8550 C   0  0  0  0  0  3  0  0  0  0  0  0
  -25.5630  -33.8960   24.1890 N   0  0  0  0  0  0  0  0  0  0  0  0
  -25.8930  -34.9430   23.4240 C   0  0  0  0  0  0  0  0  0  0  0  0
  -26.5540  -34.8350   22.3870 O   0  0  0  0  0  0  0  0  0  0  0  0
  -24.9910  -34.0570   25.0040 H   0  0  0  0  0  0  0  0  0  0  0  0
  -24.1710  -36.7410   23.0710 C   0  0  0  0  0  1  0  0  0  0  0  0
  -25.4120  -36.3340   23.8810 C   0  0  0  0  0  3  0  0  0  0  0  0
  -27.5540  -37.2050   24.7030 C   0  0  0  0  0  1  0  0  0  0  0  0
  -26.4490  -37.3830   23.7650 N   0  0  0  0  0  0  0  0  0  0  0  0
  -26.0490  -38.3050   23.9190 H   0  0  0  0  0  0  0  0  0  0  0  0
  -26.3820  -31.7150   25.1220 C   0  0  1  0  0  0  0  0  0  0  0  0
  -25.2960  -31.4740   26.1960 C   0  0  0  0  0  1  0  0  0  0  0  0
  -26.9560  -30.3400   24.7090 C   0  0  0  0  0  1  0  0  0  0  0  0
  -27.5420  -32.4990   25.7790 C   0  0  0  0  0  1  0  0  0  0  0  0
  1  3  1  0
  2  5  1  0
  2  4  1  0
  3  6  1  0
  4  6  1  0
  5  1  1  0
  5 11  1  0
  6  7  1  1
  6 56  1  0
  8 12  1  0
  9  8  2  0
 10 12  2  0
 11 10  1  0
 12 15  1  0
 13 11  2  0
 13  9  1  0
 14 13  1  0
 15 16  1  0
 17 26  1  0
 17 16  1  0
 18 26  1  0
 19 24  1  0
 20 21  1  0
 20 19  1  0
 22 21  1  0
 22 31  1  0
 22 23  1  0
 24 18  1  0
 24 23  1  0
 25 18  2  0
 26 27  1  0
 28 29  2  0
 29 48  1  0
 30 29  1  0
 30 33  1  0
 31 28  1  0
 31 32  1  0
 32 30  2  0
 33 34  1  0
 34 35  2  0
 36 39  1  0
 36 35  1  0
 37 36  2  0
 38 37  1  0
 38 33  2  0
 39 40  1  0
 40 41  1  0
 41 42  2  0
 43 42  1  0
 43 47  1  0
 44 43  2  0
 45 40  2  0
 45 44  1  0
 46 45  1  0
 48 49  1  0
 49 52  1  0
 49 51  1  0
 50 48  2  0
 53 54  1  0
 53 28  1  0
 55 53  1  0
 56 57  1  0
 58 57  1  0
 58 59  1  0
 60 62  1  0
 60 59  1  0
 61 72  2  0
 62 67  1  0
 63 71  1  0
 63 73  1  0
 64 70  1  0
 64 66  1  0
 65 71  1  0
 66 67  2  0
 66 65  1  0
 68 69  1  0
 68 62  2  0
 69 64  2  0
 70 63  1  0
 71 61  1  0
 73 75  2  0
 74 73  1  0
 76 74  1  0
 77 86  2  0
 77 82  1  0
 78 74  1  0
 78 82  1  0
 79 78  1  0
 80 81  1  0
 80 79  1  0
 81 77  1  0
 82 83  2  0
 83 84  1  0
 85 84  2  0
 86 85  1  0
 87 61  1  0
 87 88  1  0
 87 97  1  0
 88 91  1  0
 89 93  1  0
 89 88  1  0
 90 89  2  0
 93 92  1  0
 95 93  1  0
 95 96  1  0
 95 94  1  0
 97100  1  1
 97 98  1  0
 99 97  1  0
M  ISO  4  18 100  26 100  59 101  60 101
M  END
>  <TORSDO>  (60) 
F 24

>  <SCORE>  (60) 
-12.823

>  <name>  (60) 
59

>  <ligand_id>  (60) 
59

>  <original_smiles>  (60) 
[H]c1c([H])c([H])c2c(c1[H])C([H])([H])C([H])([H])C([H])([H])C2([H])N([H])C(=O)C1([H])N(C(=O)C([H])(N([H])C(=O)C([H])(N([H])C([H])([H])[H])C([H])([H])[H])C(C([H])([H])[H])(C([H])([H])[H])C([H])([H])[H])C([H])([H])c2c([H])c(OC([H])([H])C([H])([H])C([H])([H])C([H])([H])[N+]3([H])C([H])([H])C([H])([H])C([H])(c4c([H])c(C([H])([H])C([H])([H])C([H])([H])N([H])C(=O)N5C([H])([H])C([H])([H])C([H])([H])C([H])(n6nc(-c7c([H])c([H])c(Oc8c([H])c([H])c(F)c([H])c8F)c([H])c7[H])c(C(=O)N([H])[H])c6N([H])[H])C5([H])[H])c([H])c([H])c4C([H])([H])[H])C([H])([H])C3([H])[H])c([H])c([H])c2C1([H])[H]

>  <smiles>  (60) 
[H]c1c([H])c([H])c2c(c1[H])C([H])([H])C([H])([H])C([H])([H])C2([H])N([H])C(=O)C1([H])N(C(=O)C([H])(N([H])C(=O)C([H])(N([H])C([H])([H])[H])C([H])([H])[H])C(C([H])([H])[H])(C([H])([H])[H])C([H])([H])[H])C([H])([H])c2c([H])c(OC([H])([H])C([H])([H])C([H])([H])C([H])([H])[N+]3([H])C([H])([H])C([H])([H])C([H])(c4c([H])c(C([H])([H])C([H])([H])C([H])([H])N([H])C(=O)N5C([H])([H])C([H])([H])C([H])([H])C([H])(n6nc(-c7c([H])c([H])c(Oc8c([H])c([H])c(F)c([H])c8F)c([H])c7[H])c(C(=O)N([H])[H])c6N([H])[H])C5([H])[H])c([H])c([H])c4C([H])([H])[H])C([H])([H])C3([H])[H])c([H])c([H])c2C1([H])[H]

$$$$
60:0:0
     RDKit          3D

 98107  0  0  1  0  0  0  0  0999 V2000
  -26.8330  -21.6140   19.9090 C   0  0  0  0  0  2  0  0  0  0  0  0
  -27.6360  -22.0710   18.6830 C   0  0  0  0  0  2  0  0  0  0  0  0
  -26.6350  -22.6970   20.9830 C   0  0  0  0  0  2  0  0  0  0  0  0
  -28.8100  -23.9350   21.2850 C   0  0  0  0  0  2  0  0  0  0  0  0
  -29.1020  -22.5050   18.9800 C   0  0  0  0  0  3  0  0  0  0  0  0
  -29.1290  -23.9570   19.7540 C   0  0  0  0  0  3  0  0  0  0  0  0
  -27.8690  -22.8890   21.7690 N   0  0  0  0  0  4  0  0  0  0  0  0
  -28.3350  -21.9940   21.8470 H   0  0  0  0  0  0  0  0  0  0  0  0
  -27.5980  -23.1430   22.7070 H   0  0  0  0  0  0  0  0  0  0  0  0
  -29.7620  -19.8980   18.9400 C   0  0  0  0  0  3  0  0  0  0  0  0
  -30.9450  -21.3120   20.4620 C   0  0  0  0  0  3  0  0  0  0  0  0
  -29.9410  -21.2330   19.4740 C   0  0  0  0  0  0  0  0  0  0  0  0
  -30.3790  -18.7240   19.5080 C   0  0  0  0  0  0  0  0  0  0  0  0
  -31.2790  -18.9840   20.5690 C   0  0  0  0  0  0  0  0  0  0  0  0
  -31.5640  -20.2360   21.0010 N   0  0  0  0  0  0  0  0  0  0  0  0
  -30.9030  -17.6210   22.6020 C   0  0  0  0  0  1  0  0  0  0  0  0
  -31.8510  -17.8660   21.4180 C   0  0  0  0  0  2  0  0  0  0  0  0
  -30.0790  -17.2690   18.9410 C   0  0  0  0  0  2  0  0  0  0  0  0
  -30.7070  -14.8770   19.7430 C   0  0  0  0  0  0  0  0  0  0  0  0
  -30.4710  -12.5340   18.9620 C   0  0  0  0  0  2  0  0  0  0  0  0
  -29.4730  -12.5100   17.7830 C   0  0  0  0  0  2  0  0  0  0  0  0
  -28.0300  -12.3540   18.3000 C   0  0  0  0  0  2  0  0  0  0  0  0
  -27.7000  -13.3320   19.4590 C   0  0  0  0  0  3  0  0  0  0  0  0
  -28.8200  -13.3730   20.5250 C   0  0  0  0  0  2  0  0  0  0  0  0
  -30.0880  -13.6570   19.8400 N   0  0  0  0  0  0  0  0  0  0  0  0
  -31.8820  -14.9710   19.3840 O   0  0  0  0  0  0  0  0  0  0  0  0
  -29.9060  -15.9910   19.7550 N   0  0  0  0  0  0  0  0  0  0  0  0
  -28.9580  -15.7710   20.0160 H   0  0  0  0  0  0  0  0  0  0  0  0
  -25.3800  -13.9230   20.3820 C   0  0  0  0  0  0  0  0  0  0  0  0
  -24.3380  -13.1480   20.8040 C   0  0  0  0  0  0  0  0  0  0  0  0
  -24.7860  -11.7920   20.7040 C   0  0  0  0  0  0  0  0  0  0  0  0
  -26.3960  -13.0440   20.0460 N   0  0  0  0  0  0  0  0  0  0  0  0
  -26.0510  -11.7560   20.3070 N   0  0  0  0  0  0  0  0  0  0  0  0
  -24.0670  -10.5310   20.9040 C   0  0  0  0  0  0  0  0  0  0  0  0
  -24.4950   -9.5740   21.8510 C   0  0  0  0  0  3  0  0  0  0  0  0
  -23.7680   -8.3800   22.0390 C   0  0  0  0  0  3  0  0  0  0  0  0
  -22.5980   -8.1310   21.2830 C   0  0  0  0  0  0  0  0  0  0  0  0
  -22.1930   -9.0750   20.3220 C   0  0  0  0  0  3  0  0  0  0  0  0
  -22.9210  -10.2600   20.1310 C   0  0  0  0  0  3  0  0  0  0  0  0
  -21.8410   -6.9900   21.3800 O   0  0  0  0  0  0  0  0  0  0  0  0
  -21.7140   -6.3120   22.5680 C   0  0  0  0  0  0  0  0  0  0  0  0
  -21.1670   -6.9200   23.7180 C   0  0  0  0  0  3  0  0  0  0  0  0
  -20.9920   -6.1650   24.8960 C   0  0  0  0  0  3  0  0  0  0  0  0
  -21.3510   -4.8050   24.9230 C   0  0  0  0  0  0  0  0  0  0  0  0
  -21.8900   -4.1970   23.7750 C   0  0  0  0  0  3  0  0  0  0  0  0
  -22.0690   -4.9490   22.5990 C   0  0  0  0  0  0  0  0  0  0  0  0
  -22.5670   -4.3530   21.4910 F   0  0  0  0  0  0  0  0  0  0  0  0
  -21.1760   -4.0780   26.0510 F   0  0  0  0  0  0  0  0  0  0  0  0
  -22.9650  -13.6220   21.1830 C   0  0  0  0  0  0  0  0  0  0  0  0
  -22.3020  -12.9160   22.0900 N   0  0  0  0  0  0  0  0  0  0  0  0
  -22.4920  -14.6550   20.7070 O   0  0  0  0  0  0  0  0  0  0  0  0
  -22.6960  -12.0740   22.4870 H   0  0  0  0  0  0  0  0  0  0  0  0
  -21.3840  -13.2130   22.3880 H   0  0  0  0  0  0  0  0  0  0  0  0
  -25.5430  -15.3000   20.2310 N   0  0  0  0  0  0  0  0  0  0  0  0
  -24.7980  -15.9570   20.4320 H   0  0  0  0  0  0  0  0  0  0  0  0
  -26.3650  -15.7480   19.8500 H   0  0  0  0  0  0  0  0  0  0  0  0
  -28.3730  -25.2090   19.0410 C   0  0  0  0  0  2  0  0  0  0  0  0
  -28.3210  -26.5770   19.6630 O   0  0  0  0  0  0  0  0  0  0  0  0
  -24.6120  -31.7490   23.1440 C   0  0  0  0  0  0  0  0  0  0  0  0
  -27.1660  -27.3980   19.7090 C   0  0  0  0  0  0  0  0  0  0  0  0
  -23.3630  -30.4640   21.4420 C   0  0  0  0  0  3  0  0  0  0  0  0
  -24.7810  -29.0070   19.8880 C   0  0  0  0  0  0  0  0  0  0  0  0
  -25.8960  -30.8000   21.2010 C   0  0  0  0  0  2  0  0  0  0  0  0
  -25.9640  -29.4560   20.4820 C   0  0  0  0  0  0  0  0  0  0  0  0
  -27.1490  -28.6590   20.3940 C   0  0  0  0  0  3  0  0  0  0  0  0
  -25.9460  -27.0050   19.1120 C   0  0  0  0  0  3  0  0  0  0  0  0
  -24.7730  -27.7840   19.2020 C   0  0  0  0  0  3  0  0  0  0  0  0
  -23.5420  -29.8720   20.0210 C   0  0  0  0  0  2  0  0  0  0  0  0
  -24.6450  -31.0190   21.9880 N   0  0  0  0  0  0  0  0  0  0  0  0
  -23.5410  -31.9790   23.7280 O   0  0  0  0  0  0  0  0  0  0  0  0
  -22.7210  -29.3800   22.3460 C   0  0  0  0  0  0  0  0  0  0  0  0
  -21.3880  -29.2140   22.2590 N   0  0  0  0  0  0  0  0  0  0  0  0
  -23.4200  -28.6820   23.0860 O   0  0  0  0  0  0  0  0  0  0  0  0
  -20.8640  -29.8210   21.6400 H   0  0  0  0  0  0  0  0  0  0  0  0
  -18.0370  -27.9860   22.7850 C   0  0  0  0  0  0  0  0  0  0  0  0
  -20.6020  -28.2250   22.9950 C   0  0  0  0  0  3  0  0  0  0  0  0
  -20.6820  -26.8350   22.3180 C   0  0  0  0  0  2  0  0  0  0  0  0
  -19.5490  -26.5930   21.3180 C   0  0  0  0  0  2  0  0  0  0  0  0
  -18.1860  -26.6910   22.0080 C   0  0  0  0  0  2  0  0  0  0  0  0
  -19.1680  -28.7150   23.2350 C   0  0  0  0  0  0  0  0  0  0  0  0
  -18.9700  -29.9390   23.9120 C   0  0  0  0  0  3  0  0  0  0  0  0
  -17.6700  -30.4270   24.1450 C   0  0  0  0  0  3  0  0  0  0  0  0
  -16.5530  -29.6890   23.7150 C   0  0  0  0  0  3  0  0  0  0  0  0
  -16.7370  -28.4730   23.0360 C   0  0  0  0  0  3  0  0  0  0  0  0
  -25.9070  -32.3370   23.7810 C   0  0  0  0  0  3  0  0  0  0  0  0
  -26.4290  -31.4940   25.0130 C   0  0  1  0  0  0  0  0  0  0  0  0
  -25.3490  -31.2230   26.0880 C   0  0  0  0  0  1  0  0  0  0  0  0
  -26.9810  -30.1300   24.5390 C   0  0  0  0  0  1  0  0  0  0  0  0
  -27.6200  -32.2140   25.6860 C   0  0  0  0  0  1  0  0  0  0  0  0
  -25.6280  -33.7220   24.1890 N   0  0  0  0  0  0  0  0  0  0  0  0
  -25.9580  -34.8040   23.4700 C   0  0  0  0  0  0  0  0  0  0  0  0
  -26.6040  -34.7330   22.4210 O   0  0  0  0  0  0  0  0  0  0  0  0
  -25.0810  -33.8460   25.0280 H   0  0  0  0  0  0  0  0  0  0  0  0
  -24.2600  -36.6340   23.1900 C   0  0  0  0  0  1  0  0  0  0  0  0
  -25.4930  -36.1800   23.9890 C   0  0  0  0  0  3  0  0  0  0  0  0
  -27.6400  -36.9920   24.8600 C   0  0  0  0  0  1  0  0  0  0  0  0
  -26.5460  -37.2210   23.9210 N   0  0  0  0  0  0  0  0  0  0  0  0
  -26.1600  -38.1450   24.1010 H   0  0  0  0  0  0  0  0  0  0  0  0
  1  3  1  0
  2  5  1  0
  2  1  1  0
  3  7  1  0
  4  7  1  0
  5 12  1  0
  5  6  1  0
  6 57  1  0
  6  4  1  0
  7  8  1  0
  7  9  1  0
 10 12  2  0
 10 13  1  0
 11 15  2  0
 12 11  1  0
 13 14  2  0
 14 15  1  0
 14 17  1  0
 17 16  1  0
 18 13  1  0
 18 27  1  0
 19 27  1  0
 19 25  1  0
 20 25  1  0
 21 22  1  0
 21 20  1  0
 23 22  1  0
 23 32  1  0
 23 24  1  0
 25 24  1  0
 26 19  2  0
 27 28  1  0
 29 30  2  0
 30 49  1  0
 31 30  1  0
 31 34  1  0
 32 33  1  0
 32 29  1  0
 33 31  2  0
 34 35  1  0
 35 36  2  0
 37 40  1  0
 37 36  1  0
 38 37  2  0
 39 38  1  0
 39 34  2  0
 40 41  1  0
 41 46  2  0
 41 42  1  0
 42 43  2  0
 43 44  1  0
 44 48  1  0
 45 44  2  0
 46 45  1  0
 47 46  1  0
 49 50  1  0
 50 53  1  0
 50 52  1  0
 51 49  2  0
 54 29  1  0
 54 55  1  0
 56 54  1  0
 57 58  1  0
 58 60  1  0
 59 70  2  0
 60 65  1  0
 61 69  1  0
 61 71  1  0
 62 68  1  0
 62 64  1  0
 63 69  1  0
 64 63  1  0
 65 64  2  0
 66 67  1  0
 66 60  2  0
 67 62  2  0
 68 61  1  0
 69 59  1  0
 71 73  2  0
 72 71  1  0
 74 72  1  0
 75 84  2  0
 75 80  1  0
 76 72  1  0
 76 80  1  0
 77 76  1  0
 78 79  1  0
 78 77  1  0
 79 75  1  0
 80 81  2  0
 81 82  1  0
 83 82  2  0
 84 83  1  0
 85 59  1  0
 85 90  1  0
 85 86  1  0
 86 89  1  1
 86 87  1  0
 88 86  1  0
 90 93  1  0
 91 95  1  0
 91 90  1  0
 92 91  2  0
 95 94  1  0
 97 95  1  0
 97 98  1  0
 97 96  1  0
M  ISO  4  19 100  27 100  57 101  58 101
M  END
>  <TORSDO>  (61) 
F 20

>  <SCORE>  (61) 
-13.250

>  <name>  (61) 
60

>  <ligand_id>  (61) 
60

>  <original_smiles>  (61) 
[H]c1nc(C([H])([H])C([H])([H])[H])c(C([H])([H])N([H])C(=O)N2C([H])([H])C([H])([H])C([H])([H])C([H])(n3nc(-c4c([H])c([H])c(Oc5c([H])c([H])c(F)c([H])c5F)c([H])c4[H])c(C(=O)N([H])[H])c3N([H])[H])C2([H])[H])c([H])c1C1([H])C([H])([H])C([H])([H])C([H])([H])[N+]([H])([H])C([H])([H])C1([H])C([H])([H])Oc1c([H])c([H])c2c(c1[H])C([H])([H])N(C(=O)C([H])(N([H])C(=O)C([H])(N([H])C([H])([H])[H])C([H])([H])[H])C(C([H])([H])[H])(C([H])([H])[H])C([H])([H])[H])C([H])(C(=O)N([H])C1([H])c3c([H])c([H])c([H])c([H])c3C([H])([H])C([H])([H])C1([H])[H])C2([H])[H]

>  <smiles>  (61) 
[H]c1nc(C([H])([H])C([H])([H])[H])c(C([H])([H])N([H])C(=O)N2C([H])([H])C([H])([H])C([H])([H])C([H])(n3nc(-c4c([H])c([H])c(Oc5c([H])c([H])c(F)c([H])c5F)c([H])c4[H])c(C(=O)N([H])[H])c3N([H])[H])C2([H])[H])c([H])c1C1([H])C([H])([H])C([H])([H])C([H])([H])[N+]([H])([H])C([H])([H])C1([H])C([H])([H])Oc1c([H])c([H])c2c(c1[H])C([H])([H])N(C(=O)C([H])(N([H])C(=O)C([H])(N([H])C([H])([H])[H])C([H])([H])[H])C(C([H])([H])[H])(C([H])([H])[H])C([H])([H])[H])C([H])(C(=O)N([H])C1([H])c3c([H])c([H])c([H])c([H])c3C([H])([H])C([H])([H])C1([H])[H])C2([H])[H]

$$$$
61:0:0
     RDKit          3D

 99107  0  0  1  0  0  0  0  0999 V2000
  -33.4100  -22.9100   18.4500 C   0  0  0  0  0  2  0  0  0  0  0  0
  -31.0890  -23.6880   17.7370 C   0  0  0  0  0  3  0  0  0  0  0  0
  -30.0190  -24.5980   17.8210 C   0  0  0  0  0  3  0  0  0  0  0  0
  -32.4350  -25.1510   19.1440 C   0  0  0  0  0  3  0  0  0  0  0  0
  -32.2940  -23.9470   18.4250 C   0  0  0  0  0  0  0  0  0  0  0  0
  -30.1450  -25.7890   18.5680 C   0  0  0  0  0  0  0  0  0  0  0  0
  -31.3750  -26.0820   19.2040 C   0  0  0  0  0  0  0  0  0  0  0  0
  -31.5850  -27.3870   19.9540 C   0  0  0  0  0  1  0  0  0  0  0  0
  -28.9490  -26.7260   18.6660 C   0  0  0  0  0  2  0  0  0  0  0  0
  -28.4190  -26.7840   19.9910 O   0  0  0  0  0  0  0  0  0  0  0  0
  -24.6110  -31.8720   23.2130 C   0  0  0  0  0  0  0  0  0  0  0  0
  -27.2410  -27.4820   20.0670 C   0  0  0  0  0  0  0  0  0  0  0  0
  -23.3970  -30.4950   21.5520 C   0  0  0  0  0  3  0  0  0  0  0  0
  -24.8430  -28.9600   20.1200 C   0  0  0  0  0  0  0  0  0  0  0  0
  -25.9220  -30.8450   21.3630 C   0  0  0  0  0  2  0  0  0  0  0  0
  -26.0010  -29.4790   20.7150 C   0  0  0  0  0  0  0  0  0  0  0  0
  -27.2030  -28.7400   20.6990 C   0  0  0  0  0  3  0  0  0  0  0  0
  -26.0650  -26.9540   19.4940 C   0  0  0  0  0  3  0  0  0  0  0  0
  -24.8660  -27.6900   19.5140 C   0  0  0  0  0  3  0  0  0  0  0  0
  -23.6030  -29.8220   20.1680 C   0  0  0  0  0  2  0  0  0  0  0  0
  -24.6600  -31.0830   22.1020 N   0  0  0  0  0  0  0  0  0  0  0  0
  -23.5310  -32.1470   23.7530 O   0  0  0  0  0  0  0  0  0  0  0  0
  -22.7380  -29.4680   22.5020 C   0  0  0  0  0  0  0  0  0  0  0  0
  -21.4120  -29.3030   22.3720 N   0  0  0  0  0  0  0  0  0  0  0  0
  -23.4160  -28.8240   23.3060 O   0  0  0  0  0  0  0  0  0  0  0  0
  -20.9280  -29.8720   21.6930 H   0  0  0  0  0  0  0  0  0  0  0  0
  -18.0270  -28.1390   22.8490 C   0  0  0  0  0  0  0  0  0  0  0  0
  -20.5860  -28.3660   23.1320 C   0  0  0  0  0  3  0  0  0  0  0  0
  -20.6760  -26.9400   22.5420 C   0  0  0  0  0  2  0  0  0  0  0  0
  -19.5750  -26.6400   21.5210 C   0  0  0  0  0  2  0  0  0  0  0  0
  -18.1910  -26.7950   22.1600 C   0  0  0  0  0  2  0  0  0  0  0  0
  -19.1520  -28.8840   23.2910 C   0  0  0  0  0  0  0  0  0  0  0  0
  -18.9460  -30.1450   23.8920 C   0  0  0  0  0  3  0  0  0  0  0  0
  -17.6460  -30.6590   24.0580 C   0  0  0  0  0  3  0  0  0  0  0  0
  -16.5350  -29.9100   23.6340 C   0  0  0  0  0  3  0  0  0  0  0  0
  -16.7260  -28.6520   23.0350 C   0  0  0  0  0  3  0  0  0  0  0  0
  -25.9010  -32.4840   23.8400 C   0  0  0  0  0  3  0  0  0  0  0  0
  -25.5870  -33.8640   24.2340 N   0  0  0  0  0  0  0  0  0  0  0  0
  -25.9020  -34.9480   23.5140 C   0  0  0  0  0  0  0  0  0  0  0  0
  -26.5610  -34.8940   22.4720 O   0  0  0  0  0  0  0  0  0  0  0  0
  -25.0030  -33.9820   25.0480 H   0  0  0  0  0  0  0  0  0  0  0  0
  -24.1460  -36.7290   23.2640 C   0  0  0  0  0  1  0  0  0  0  0  0
  -25.4090  -36.3120   24.0350 C   0  0  0  0  0  3  0  0  0  0  0  0
  -27.5570  -37.1820   24.8460 C   0  0  0  0  0  1  0  0  0  0  0  0
  -26.4270  -37.3820   23.9420 N   0  0  0  0  0  0  0  0  0  0  0  0
  -26.0150  -38.2880   24.1480 H   0  0  0  0  0  0  0  0  0  0  0  0
  -26.4450  -31.6620   25.0720 C   0  0  1  0  0  0  0  0  0  0  0  0
  -25.3720  -31.3650   26.1440 C   0  0  0  0  0  1  0  0  0  0  0  0
  -27.0330  -30.3080   24.6070 C   0  0  0  0  0  1  0  0  0  0  0  0
  -27.5990  -32.4360   25.7540 C   0  0  0  0  0  1  0  0  0  0  0  0
  -32.9060  -21.6880   19.0990 N   0  0  0  0  0  4  0  0  0  0  0  0
  -32.4740  -21.0960   18.4080 H   0  0  0  0  0  0  0  0  0  0  0  0
  -32.1870  -21.9910   19.7340 H   0  0  0  0  0  0  0  0  0  0  0  0
  -33.8900  -20.9170   19.8810 C   0  0  0  0  0  2  0  0  0  0  0  0
  -33.1730  -19.9170   20.7980 C   0  0  0  0  0  2  0  0  0  0  0  0
  -34.1480  -19.2260   21.7570 C   0  0  0  0  0  2  0  0  0  0  0  0
  -33.4190  -18.3690   22.7930 C   0  0  0  0  0  2  0  0  0  0  0  0
  -34.3410  -17.3240   23.4500 C   0  0  0  0  0  2  0  0  0  0  0  0
  -33.5410  -16.1050   23.9160 C   0  0  0  0  0  2  0  0  0  0  0  0
  -33.1770  -15.1860   22.7390 C   0  0  0  0  0  2  0  0  0  0  0  0
  -32.0130  -14.2380   23.0760 C   0  0  0  0  0  2  0  0  0  0  0  0
  -30.8640  -14.1550   20.8230 C   0  0  0  0  0  0  0  0  0  0  0  0
  -30.3840  -12.2800   19.3230 C   0  0  0  0  0  2  0  0  0  0  0  0
  -29.4400  -12.5420   18.1440 C   0  0  0  0  0  2  0  0  0  0  0  0
  -27.9710  -12.3980   18.5800 C   0  0  0  0  0  2  0  0  0  0  0  0
  -27.6510  -13.1980   19.8660 C   0  0  0  0  0  3  0  0  0  0  0  0
  -28.6870  -12.9210   20.9710 C   0  0  0  0  0  2  0  0  0  0  0  0
  -30.0300  -13.1760   20.4260 N   0  0  0  0  0  0  0  0  0  0  0  0
  -31.7390  -14.6470   20.1000 O   0  0  0  0  0  0  0  0  0  0  0  0
  -30.8680  -14.2390   22.1610 N   0  0  0  0  0  0  0  0  0  0  0  0
  -30.0420  -13.8210   22.5680 H   0  0  0  0  0  0  0  0  0  0  0  0
  -25.2560  -13.8140   20.5630 C   0  0  0  0  0  0  0  0  0  0  0  0
  -24.1800  -13.0430   20.9140 C   0  0  0  0  0  0  0  0  0  0  0  0
  -24.6310  -11.6890   20.8670 C   0  0  0  0  0  0  0  0  0  0  0  0
  -26.2960  -12.9280   20.3320 N   0  0  0  0  0  0  0  0  0  0  0  0
  -25.9240  -11.6450   20.5700 N   0  0  0  0  0  0  0  0  0  0  0  0
  -23.8990  -10.4270   21.0320 C   0  0  0  0  0  0  0  0  0  0  0  0
  -24.3540   -9.4200   21.9130 C   0  0  0  0  0  3  0  0  0  0  0  0
  -23.6230   -8.2250   22.0780 C   0  0  0  0  0  3  0  0  0  0  0  0
  -22.4220   -8.0250   21.3570 C   0  0  0  0  0  0  0  0  0  0  0  0
  -21.9840   -9.0200   20.4670 C   0  0  0  0  0  3  0  0  0  0  0  0
  -22.7150  -10.2090   20.3020 C   0  0  0  0  0  3  0  0  0  0  0  0
  -21.6650   -6.8820   21.4240 O   0  0  0  0  0  0  0  0  0  0  0  0
  -21.6860   -6.0700   22.5280 C   0  0  0  0  0  0  0  0  0  0  0  0
  -21.4020   -6.5620   23.8220 C   0  0  0  0  0  3  0  0  0  0  0  0
  -21.3650   -5.6780   24.9180 C   0  0  0  0  0  3  0  0  0  0  0  0
  -21.6020   -4.3050   24.7220 C   0  0  0  0  0  0  0  0  0  0  0  0
  -21.8820   -3.8120   23.4350 C   0  0  0  0  0  3  0  0  0  0  0  0
  -21.9200   -4.6930   22.3410 C   0  0  0  0  0  0  0  0  0  0  0  0
  -22.1660   -4.2100   21.0990 F   0  0  0  0  0  0  0  0  0  0  0  0
  -21.5610   -3.4540   25.7740 F   0  0  0  0  0  0  0  0  0  0  0  0
  -22.7830  -13.5270   21.1770 C   0  0  0  0  0  0  0  0  0  0  0  0
  -22.0420  -12.8330   22.0320 N   0  0  0  0  0  0  0  0  0  0  0  0
  -22.3530  -14.5580   20.6610 O   0  0  0  0  0  0  0  0  0  0  0  0
  -22.3950  -11.9980   22.4740 H   0  0  0  0  0  0  0  0  0  0  0  0
  -21.1040  -13.1440   22.2440 H   0  0  0  0  0  0  0  0  0  0  0  0
  -25.4410  -15.1840   20.4030 N   0  0  0  0  0  0  0  0  0  0  0  0
  -24.6930  -15.8600   20.5200 H   0  0  0  0  0  0  0  0  0  0  0  0
  -26.3090  -15.6040   20.0930 H   0  0  0  0  0  0  0  0  0  0  0  0
  1 51  1  0
  2  3  2  0
  2  5  1  0
  3  6  1  0
  4  7  1  0
  5  1  1  0
  5  4  2  0
  6  9  1  0
  6  7  2  0
  7  8  1  0
  9 10  1  0
 10 12  1  0
 11 22  2  0
 12 17  1  0
 13 21  1  0
 13 23  1  0
 14 20  1  0
 14 16  1  0
 15 21  1  0
 16 15  1  0
 17 16  2  0
 18 19  1  0
 18 12  2  0
 19 14  2  0
 20 13  1  0
 21 11  1  0
 23 25  2  0
 24 23  1  0
 26 24  1  0
 27 36  2  0
 27 32  1  0
 28 24  1  0
 28 32  1  0
 29 28  1  0
 30 31  1  0
 30 29  1  0
 31 27  1  0
 32 33  2  0
 33 34  1  0
 35 34  2  0
 36 35  1  0
 37 11  1  0
 37 38  1  0
 37 47  1  0
 38 41  1  0
 39 43  1  0
 39 38  1  0
 40 39  2  0
 43 42  1  0
 45 43  1  0
 45 46  1  0
 45 44  1  0
 47 50  1  1
 47 48  1  0
 49 47  1  0
 51 53  1  0
 51 54  1  0
 52 51  1  0
 54 55  1  0
 55 56  1  0
 56 57  1  0
 57 58  1  0
 58 59  1  0
 60 61  1  0
 60 59  1  0
 62 70  1  0
 63 68  1  0
 64 65  1  0
 64 63  1  0
 66 65  1  0
 66 75  1  0
 66 67  1  0
 68 62  1  0
 68 67  1  0
 69 62  2  0
 70 71  1  0
 70 61  1  0
 72 73  2  0
 73 92  1  0
 74 73  1  0
 74 77  1  0
 75 72  1  0
 75 76  1  0
 76 74  2  0
 77 78  1  0
 78 79  2  0
 80 83  1  0
 80 79  1  0
 81 80  2  0
 82 81  1  0
 82 77  2  0
 83 84  1  0
 84 85  1  0
 85 86  2  0
 87 86  1  0
 87 91  1  0
 88 87  2  0
 89 84  2  0
 89 88  1  0
 90 89  1  0
 92 93  1  0
 93 96  1  0
 93 95  1  0
 94 92  2  0
 97 98  1  0
 97 72  1  0
 99 97  1  0
M  ISO  4   9 101  10 101  62 100  70 100
M  END
>  <TORSDO>  (62) 
F 27

>  <SCORE>  (62) 
14.687

>  <name>  (62) 
61

>  <ligand_id>  (62) 
61

>  <original_smiles>  (62) 
[H]c1c([H])c([H])c2c(c1[H])C([H])([H])C([H])([H])C([H])([H])C2([H])N([H])C(=O)C1([H])N(C(=O)C([H])(N([H])C(=O)C([H])(N([H])C([H])([H])[H])C([H])([H])[H])C(C([H])([H])[H])(C([H])([H])[H])C([H])([H])[H])C([H])([H])c2c([H])c(OC([H])([H])c3c([H])c([H])c(C([H])([H])[N+]([H])([H])C([H])([H])C([H])([H])C([H])([H])C([H])([H])C([H])([H])C([H])([H])C([H])([H])C([H])([H])N([H])C(=O)N4C([H])([H])C([H])([H])C([H])([H])C([H])(n5nc(-c6c([H])c([H])c(Oc7c([H])c([H])c(F)c([H])c7F)c([H])c6[H])c(C(=O)N([H])[H])c5N([H])[H])C4([H])[H])c([H])c3C([H])([H])[H])c([H])c([H])c2C1([H])[H]

>  <smiles>  (62) 
[H]c1c([H])c([H])c2c(c1[H])C([H])([H])C([H])([H])C([H])([H])C2([H])N([H])C(=O)C1([H])N(C(=O)C([H])(N([H])C(=O)C([H])(N([H])C([H])([H])[H])C([H])([H])[H])C(C([H])([H])[H])(C([H])([H])[H])C([H])([H])[H])C([H])([H])c2c([H])c(OC([H])([H])c3c([H])c([H])c(C([H])([H])[N+]([H])([H])C([H])([H])C([H])([H])C([H])([H])C([H])([H])C([H])([H])C([H])([H])C([H])([H])C([H])([H])N([H])C(=O)N4C([H])([H])C([H])([H])C([H])([H])C([H])(n5nc(-c6c([H])c([H])c(Oc7c([H])c([H])c(F)c([H])c7F)c([H])c6[H])c(C(=O)N([H])[H])c5N([H])[H])C4([H])[H])c([H])c3C([H])([H])[H])c([H])c([H])c2C1([H])[H]

$$$$
62:0:0
     RDKit          3D

 91 99  0  0  1  0  0  0  0  0999 V2000
  -29.5670  -20.2700   18.6710 C   0  0  0  0  0  3  0  0  0  0  0  0
  -29.3020  -18.9470   18.2840 C   0  0  0  0  0  3  0  0  0  0  0  0
  -30.2840  -19.4620   20.8460 C   0  0  0  0  0  3  0  0  0  0  0  0
  -30.0430  -20.5500   19.9670 C   0  0  0  0  0  0  0  0  0  0  0  0
  -30.0410  -18.1100   20.4680 C   0  0  0  0  0  0  0  0  0  0  0  0
  -29.5260  -17.8700   19.1590 C   0  0  0  0  0  0  0  0  0  0  0  0
  -29.1490  -16.3090   18.5250 Cl  0  0  0  0  0  0  0  0  0  0  0  0
  -30.3270  -22.0010   20.3900 C   0  0  0  0  0  2  0  0  0  0  0  0
  -29.2310  -23.0140   19.9670 C   0  0  0  0  0  2  0  0  0  0  0  0
  -29.4620  -24.5000   20.3510 C   0  0  0  0  0  2  0  0  0  0  0  0
  -28.2930  -25.3780   19.8460 C   0  0  0  0  0  2  0  0  0  0  0  0
  -28.3990  -26.7810   20.1510 O   0  0  0  0  0  0  0  0  0  0  0  0
  -24.5930  -31.9280   23.2810 C   0  0  0  0  0  0  0  0  0  0  0  0
  -27.2250  -27.5190   20.1260 C   0  0  0  0  0  0  0  0  0  0  0  0
  -23.3780  -30.5420   21.6350 C   0  0  0  0  0  3  0  0  0  0  0  0
  -24.8240  -29.0330   20.1770 C   0  0  0  0  0  0  0  0  0  0  0  0
  -25.9030  -30.9070   21.4230 C   0  0  0  0  0  2  0  0  0  0  0  0
  -25.9880  -29.5450   20.7630 C   0  0  0  0  0  0  0  0  0  0  0  0
  -27.1880  -28.7960   20.7350 C   0  0  0  0  0  3  0  0  0  0  0  0
  -26.0380  -27.0340   19.5210 C   0  0  0  0  0  3  0  0  0  0  0  0
  -24.8450  -27.7750   19.5540 C   0  0  0  0  0  3  0  0  0  0  0  0
  -23.5790  -29.8850   20.2440 C   0  0  0  0  0  2  0  0  0  0  0  0
  -24.6440  -31.1390   22.1710 N   0  0  0  0  0  0  0  0  0  0  0  0
  -23.5150  -32.1900   23.8330 O   0  0  0  0  0  0  0  0  0  0  0  0
  -22.7390  -29.5040   22.5870 C   0  0  0  0  0  0  0  0  0  0  0  0
  -21.4170  -29.3090   22.4610 N   0  0  0  0  0  0  0  0  0  0  0  0
  -23.4310  -28.8800   23.3960 O   0  0  0  0  0  0  0  0  0  0  0  0
  -20.9190  -29.8660   21.7790 H   0  0  0  0  0  0  0  0  0  0  0  0
  -18.0560  -28.0730   22.9470 C   0  0  0  0  0  0  0  0  0  0  0  0
  -20.6100  -28.3580   23.2250 C   0  0  0  0  0  3  0  0  0  0  0  0
  -20.7300  -26.9320   22.6440 C   0  0  0  0  0  2  0  0  0  0  0  0
  -19.6340  -26.6000   21.6260 C   0  0  0  0  0  2  0  0  0  0  0  0
  -18.2500  -26.7270   22.2680 C   0  0  0  0  0  2  0  0  0  0  0  0
  -19.1650  -28.8460   23.3830 C   0  0  0  0  0  0  0  0  0  0  0  0
  -18.9310  -30.1040   23.9780 C   0  0  0  0  0  3  0  0  0  0  0  0
  -17.6210  -30.5910   24.1410 C   0  0  0  0  0  3  0  0  0  0  0  0
  -16.5270  -29.8160   23.7230 C   0  0  0  0  0  3  0  0  0  0  0  0
  -16.7460  -28.5580   23.1320 C   0  0  0  0  0  3  0  0  0  0  0  0
  -25.8830  -32.5560   23.8960 C   0  0  0  0  0  3  0  0  0  0  0  0
  -25.5830  -33.9600   24.2090 N   0  0  0  0  0  0  0  0  0  0  0  0
  -25.9340  -35.0010   23.4430 C   0  0  0  0  0  0  0  0  0  0  0  0
  -26.6130  -34.8820   22.4190 O   0  0  0  0  0  0  0  0  0  0  0  0
  -24.9820  -34.1280   25.0030 H   0  0  0  0  0  0  0  0  0  0  0  0
  -24.2350  -36.8100   23.0400 C   0  0  0  0  0  1  0  0  0  0  0  0
  -25.4530  -36.3980   23.8820 C   0  0  0  0  0  3  0  0  0  0  0  0
  -27.5770  -37.2610   24.7580 C   0  0  0  0  0  1  0  0  0  0  0  0
  -26.5000  -37.4370   23.7860 N   0  0  0  0  0  0  0  0  0  0  0  0
  -26.1020  -38.3630   23.9190 H   0  0  0  0  0  0  0  0  0  0  0  0
  -26.3960  -31.7930   25.1770 C   0  0  1  0  0  0  0  0  0  0  0  0
  -25.3030  -31.5700   26.2470 C   0  0  0  0  0  1  0  0  0  0  0  0
  -26.9720  -30.4100   24.7970 C   0  0  0  0  0  1  0  0  0  0  0  0
  -27.5510  -32.5880   25.8330 C   0  0  0  0  0  1  0  0  0  0  0  0
  -30.4170  -17.0270   21.5080 C   0  0  0  0  0  2  0  0  0  0  0  0
  -30.7330  -14.6060   20.9030 C   0  0  0  0  0  0  0  0  0  0  0  0
  -30.5550  -12.4010   19.8120 C   0  0  0  0  0  2  0  0  0  0  0  0
  -29.6980  -12.5310   18.5370 C   0  0  0  0  0  2  0  0  0  0  0  0
  -28.1980  -12.3910   18.8650 C   0  0  0  0  0  2  0  0  0  0  0  0
  -27.7540  -13.2650   20.0690 C   0  0  0  0  0  3  0  0  0  0  0  0
  -28.7330  -13.1080   21.2540 C   0  0  0  0  0  2  0  0  0  0  0  0
  -30.0870  -13.4180   20.7660 N   0  0  0  0  0  0  0  0  0  0  0  0
  -31.8930  -14.7870   20.5260 O   0  0  0  0  0  0  0  0  0  0  0  0
  -29.9780  -15.6310   21.3380 N   0  0  0  0  0  0  0  0  0  0  0  0
  -29.0250  -15.4180   21.5860 H   0  0  0  0  0  0  0  0  0  0  0  0
  -25.3010  -13.8450   20.5970 C   0  0  0  0  0  0  0  0  0  0  0  0
  -24.2230  -13.0610   20.9090 C   0  0  0  0  0  0  0  0  0  0  0  0
  -24.7080  -11.7180   20.9400 C   0  0  0  0  0  0  0  0  0  0  0  0
  -26.3750  -12.9780   20.4590 N   0  0  0  0  0  0  0  0  0  0  0  0
  -26.0160  -11.6950   20.7230 N   0  0  0  0  0  0  0  0  0  0  0  0
  -23.9920  -10.4460   21.1070 C   0  0  0  0  0  0  0  0  0  0  0  0
  -24.3780   -9.5050   22.0870 C   0  0  0  0  0  3  0  0  0  0  0  0
  -23.6610   -8.2980   22.2390 C   0  0  0  0  0  3  0  0  0  0  0  0
  -22.5470   -8.0240   21.4120 C   0  0  0  0  0  0  0  0  0  0  0  0
  -22.1810   -8.9550   20.4230 C   0  0  0  0  0  3  0  0  0  0  0  0
  -22.8980  -10.1540   20.2680 C   0  0  0  0  0  3  0  0  0  0  0  0
  -21.8060   -6.8680   21.4720 O   0  0  0  0  0  0  0  0  0  0  0  0
  -21.6870   -6.1500   22.6350 C   0  0  0  0  0  0  0  0  0  0  0  0
  -21.1530   -6.7190   23.8110 C   0  0  0  0  0  3  0  0  0  0  0  0
  -20.9840   -5.9250   24.9640 C   0  0  0  0  0  3  0  0  0  0  0  0
  -21.3380   -4.5630   24.9390 C   0  0  0  0  0  0  0  0  0  0  0  0
  -21.8650   -3.9930   23.7670 C   0  0  0  0  0  3  0  0  0  0  0  0
  -22.0350   -4.7840   22.6170 C   0  0  0  0  0  0  0  0  0  0  0  0
  -22.5230   -4.2240   21.4840 F   0  0  0  0  0  0  0  0  0  0  0  0
  -21.1670   -3.7980   26.0430 F   0  0  0  0  0  0  0  0  0  0  0  0
  -22.8030  -13.5190   21.0720 C   0  0  0  0  0  0  0  0  0  0  0  0
  -22.0260  -12.8260   21.8980 N   0  0  0  0  0  0  0  0  0  0  0  0
  -22.3860  -14.5260   20.5020 O   0  0  0  0  0  0  0  0  0  0  0  0
  -22.3730  -12.0120   22.3850 H   0  0  0  0  0  0  0  0  0  0  0  0
  -21.0700  -13.1160   22.0480 H   0  0  0  0  0  0  0  0  0  0  0  0
  -25.4550  -15.2140   20.4000 N   0  0  0  0  0  0  0  0  0  0  0  0
  -24.6710  -15.8550   20.4380 H   0  0  0  0  0  0  0  0  0  0  0  0
  -26.3140  -15.6590   20.0990 H   0  0  0  0  0  0  0  0  0  0  0  0
  1  4  1  0
  2  1  2  0
  2  6  1  0
  4  8  1  0
  4  3  2  0
  5  3  1  0
  5 53  1  0
  6  5  2  0
  7  6  1  0
  9 10  1  0
  9  8  1  0
 11 12  1  0
 11 10  1  0
 13 24  2  0
 14 12  1  0
 14 19  1  0
 15 23  1  0
 15 25  1  0
 16 22  1  0
 16 18  1  0
 17 23  1  0
 18 17  1  0
 19 18  2  0
 20 21  1  0
 20 14  2  0
 21 16  2  0
 22 15  1  0
 23 13  1  0
 25 27  2  0
 26 25  1  0
 28 26  1  0
 29 38  2  0
 29 34  1  0
 30 26  1  0
 30 34  1  0
 31 30  1  0
 32 33  1  0
 32 31  1  0
 33 29  1  0
 34 35  2  0
 35 36  1  0
 37 36  2  0
 38 37  1  0
 39 13  1  0
 39 40  1  0
 39 49  1  0
 40 43  1  0
 41 45  1  0
 41 40  1  0
 42 41  2  0
 45 44  1  0
 47 45  1  0
 47 48  1  0
 47 46  1  0
 49 52  1  1
 49 50  1  0
 51 49  1  0
 54 62  1  0
 55 60  1  0
 56 57  1  0
 56 55  1  0
 58 57  1  0
 58 67  1  0
 58 59  1  0
 60 54  1  0
 60 59  1  0
 61 54  2  0
 62 53  1  0
 62 63  1  0
 64 65  2  0
 65 66  1  0
 65 84  1  0
 66 69  1  0
 67 64  1  0
 67 68  1  0
 68 66  2  0
 69 70  1  0
 70 71  2  0
 72 75  1  0
 72 71  1  0
 73 72  2  0
 74 73  1  0
 74 69  2  0
 75 76  1  0
 76 77  1  0
 77 78  2  0
 79 78  1  0
 79 83  1  0
 80 79  2  0
 81 76  2  0
 81 80  1  0
 82 81  1  0
 84 85  1  0
 85 88  1  0
 85 87  1  0
 86 84  2  0
 89 90  1  0
 89 64  1  0
 91 89  1  0
M  ISO  4  11 101  12 101  54 100  62 100
M  END
>  <TORSDO>  (63) 
F 21

>  <SCORE>  (63) 
-13.150

>  <name>  (63) 
62

>  <ligand_id>  (63) 
62

>  <original_smiles>  (63) 
[H]c1c([H])c([H])c2c(c1[H])C([H])([H])C([H])([H])C([H])([H])C2([H])N([H])C(=O)C1([H])N(C(=O)C([H])(N([H])C(=O)C([H])(N([H])C([H])([H])[H])C([H])([H])[H])C(C([H])([H])[H])(C([H])([H])[H])C([H])([H])[H])C([H])([H])c2c([H])c(OC([H])([H])C([H])([H])C([H])([H])C([H])([H])c3c([H])c([H])c(Cl)c(C([H])([H])N([H])C(=O)N4C([H])([H])C([H])([H])C([H])([H])C([H])(n5nc(-c6c([H])c([H])c(Oc7c([H])c([H])c(F)c([H])c7F)c([H])c6[H])c(C(=O)N([H])[H])c5N([H])[H])C4([H])[H])c3[H])c([H])c([H])c2C1([H])[H]

>  <smiles>  (63) 
[H]c1c([H])c([H])c2c(c1[H])C([H])([H])C([H])([H])C([H])([H])C2([H])N([H])C(=O)C1([H])N(C(=O)C([H])(N([H])C(=O)C([H])(N([H])C([H])([H])[H])C([H])([H])[H])C(C([H])([H])[H])(C([H])([H])[H])C([H])([H])[H])C([H])([H])c2c([H])c(OC([H])([H])C([H])([H])C([H])([H])C([H])([H])c3c([H])c([H])c(Cl)c(C([H])([H])N([H])C(=O)N4C([H])([H])C([H])([H])C([H])([H])C([H])(n5nc(-c6c([H])c([H])c(Oc7c([H])c([H])c(F)c([H])c7F)c([H])c6[H])c(C(=O)N([H])[H])c5N([H])[H])C4([H])[H])c3[H])c([H])c([H])c2C1([H])[H]

$$$$
63:0:0
     RDKit          3D

 92100  0  0  1  0  0  0  0  0999 V2000
  -28.9560  -21.0140   21.0560 C   0  0  0  0  0  3  0  0  0  0  0  0
  -29.8720  -21.2600   18.8180 C   0  0  0  0  0  3  0  0  0  0  0  0
  -29.3220  -20.4420   19.8220 C   0  0  0  0  0  0  0  0  0  0  0  0
  -29.1110  -22.3990   21.2730 C   0  0  0  0  0  0  0  0  0  0  0  0
  -30.0260  -22.6460   19.0130 C   0  0  0  0  0  0  0  0  0  0  0  0
  -29.6250  -23.2300   20.2410 C   0  0  0  0  0  0  0  0  0  0  0  0
  -28.6970  -22.9660   22.6210 C   0  0  0  0  0  1  0  0  0  0  0  0
  -30.6000  -23.4790   17.8750 C   0  0  0  0  0  1  0  0  0  0  0  0
  -29.0850  -18.9720   19.5180 C   0  0  0  0  0  2  0  0  0  0  0  0
  -29.4090  -17.9630   20.6440 C   0  0  0  0  0  2  0  0  0  0  0  0
  -30.1700  -16.7540   20.0720 C   0  0  0  0  0  2  0  0  0  0  0  0
  -30.6850  -14.4170   20.4750 C   0  0  0  0  0  0  0  0  0  0  0  0
  -30.3570  -12.2720   19.3420 C   0  0  0  0  0  2  0  0  0  0  0  0
  -29.4410  -12.5260   18.1280 C   0  0  0  0  0  2  0  0  0  0  0  0
  -27.9580  -12.4200   18.5340 C   0  0  0  0  0  2  0  0  0  0  0  0
  -27.6210  -13.2440   19.8080 C   0  0  0  0  0  3  0  0  0  0  0  0
  -28.6580  -12.9920   20.9280 C   0  0  0  0  0  2  0  0  0  0  0  0
  -29.9970  -13.2520   20.3770 N   0  0  0  0  0  0  0  0  0  0  0  0
  -31.8370  -14.5610   20.0530 O   0  0  0  0  0  0  0  0  0  0  0  0
  -29.9380  -15.4890   20.7700 N   0  0  0  0  0  0  0  0  0  0  0  0
  -29.0070  -15.3120   21.1150 H   0  0  0  0  0  0  0  0  0  0  0  0
  -25.2120  -13.8780   20.4570 C   0  0  0  0  0  0  0  0  0  0  0  0
  -24.1330  -13.1170   20.8200 C   0  0  0  0  0  0  0  0  0  0  0  0
  -24.5870  -11.7640   20.8200 C   0  0  0  0  0  0  0  0  0  0  0  0
  -26.2570  -12.9870   20.2640 N   0  0  0  0  0  0  0  0  0  0  0  0
  -25.8820  -11.7120   20.5370 N   0  0  0  0  0  0  0  0  0  0  0  0
  -23.8520  -10.5080   21.0180 C   0  0  0  0  0  0  0  0  0  0  0  0
  -24.2780   -9.5450   21.9590 C   0  0  0  0  0  3  0  0  0  0  0  0
  -23.5460   -8.3530   22.1440 C   0  0  0  0  0  3  0  0  0  0  0  0
  -22.3730   -8.1160   21.3890 C   0  0  0  0  0  0  0  0  0  0  0  0
  -21.9660   -9.0680   20.4380 C   0  0  0  0  0  3  0  0  0  0  0  0
  -22.6980  -10.2510   20.2510 C   0  0  0  0  0  3  0  0  0  0  0  0
  -21.6100   -6.9770   21.4850 O   0  0  0  0  0  0  0  0  0  0  0  0
  -21.5670   -6.2330   22.6370 C   0  0  0  0  0  0  0  0  0  0  0  0
  -21.1710   -6.7930   23.8710 C   0  0  0  0  0  3  0  0  0  0  0  0
  -21.0740   -5.9770   25.0150 C   0  0  0  0  0  3  0  0  0  0  0  0
  -21.3630   -4.6020   24.9260 C   0  0  0  0  0  0  0  0  0  0  0  0
  -21.7520   -4.0420   23.6960 C   0  0  0  0  0  3  0  0  0  0  0  0
  -21.8520   -4.8560   22.5540 C   0  0  0  0  0  0  0  0  0  0  0  0
  -22.2060   -4.3080   21.3680 F   0  0  0  0  0  0  0  0  0  0  0  0
  -21.2640   -3.8150   26.0230 F   0  0  0  0  0  0  0  0  0  0  0  0
  -22.7330  -13.6040   21.0610 C   0  0  0  0  0  0  0  0  0  0  0  0
  -21.9900  -12.9260   21.9280 N   0  0  0  0  0  0  0  0  0  0  0  0
  -22.3060  -14.6220   20.5170 O   0  0  0  0  0  0  0  0  0  0  0  0
  -22.3480  -12.1050   22.3910 H   0  0  0  0  0  0  0  0  0  0  0  0
  -21.0480  -13.2330   22.1300 H   0  0  0  0  0  0  0  0  0  0  0  0
  -25.3870  -15.2440   20.2560 N   0  0  0  0  0  0  0  0  0  0  0  0
  -24.6210  -15.9040   20.3340 H   0  0  0  0  0  0  0  0  0  0  0  0
  -26.2440  -15.6710   19.9270 H   0  0  0  0  0  0  0  0  0  0  0  0
  -29.6760  -24.7460   20.4150 C   0  0  0  0  0  2  0  0  0  0  0  0
  -28.3660  -25.3860   19.9300 C   0  0  0  0  0  2  0  0  0  0  0  0
  -28.4060  -26.7920   20.1280 O   0  0  0  0  0  0  0  0  0  0  0  0
  -24.5780  -31.8790   23.2230 C   0  0  0  0  0  0  0  0  0  0  0  0
  -27.2050  -27.4670   20.1150 C   0  0  0  0  0  0  0  0  0  0  0  0
  -23.3570  -30.4790   21.5890 C   0  0  0  0  0  3  0  0  0  0  0  0
  -24.7970  -28.9470   20.1480 C   0  0  0  0  0  0  0  0  0  0  0  0
  -25.8770  -30.8470   21.3660 C   0  0  0  0  0  2  0  0  0  0  0  0
  -25.9570  -29.4780   20.7260 C   0  0  0  0  0  0  0  0  0  0  0  0
  -27.1610  -28.7450   20.7050 C   0  0  0  0  0  3  0  0  0  0  0  0
  -26.0280  -26.9420   19.5300 C   0  0  0  0  0  3  0  0  0  0  0  0
  -24.8260  -27.6770   19.5450 C   0  0  0  0  0  3  0  0  0  0  0  0
  -23.5530  -29.8030   20.2060 C   0  0  0  0  0  2  0  0  0  0  0  0
  -24.6230  -31.0810   22.1190 N   0  0  0  0  0  0  0  0  0  0  0  0
  -23.5020  -32.1510   23.7730 O   0  0  0  0  0  0  0  0  0  0  0  0
  -22.7150  -29.4560   22.5530 C   0  0  0  0  0  0  0  0  0  0  0  0
  -21.3900  -29.2740   22.4310 N   0  0  0  0  0  0  0  0  0  0  0  0
  -23.4040  -28.8310   23.3630 O   0  0  0  0  0  0  0  0  0  0  0  0
  -20.8970  -29.8310   21.7470 H   0  0  0  0  0  0  0  0  0  0  0  0
  -18.0190  -28.0800   22.9390 C   0  0  0  0  0  0  0  0  0  0  0  0
  -20.5770  -28.3370   23.2050 C   0  0  0  0  0  3  0  0  0  0  0  0
  -20.6790  -26.9060   22.6280 C   0  0  0  0  0  2  0  0  0  0  0  0
  -19.5730  -26.5820   21.6180 C   0  0  0  0  0  2  0  0  0  0  0  0
  -18.1930  -26.7290   22.2660 C   0  0  0  0  0  2  0  0  0  0  0  0
  -19.1390  -28.8420   23.3660 C   0  0  0  0  0  0  0  0  0  0  0  0
  -18.9220  -30.1070   23.9530 C   0  0  0  0  0  3  0  0  0  0  0  0
  -17.6170  -30.6100   24.1200 C   0  0  0  0  0  3  0  0  0  0  0  0
  -16.5130  -29.8450   23.7100 C   0  0  0  0  0  3  0  0  0  0  0  0
  -16.7140  -28.5820   23.1250 C   0  0  0  0  0  3  0  0  0  0  0  0
  -25.8700  -32.5060   23.8340 C   0  0  0  0  0  3  0  0  0  0  0  0
  -25.5670  -33.9000   24.1740 N   0  0  0  0  0  0  0  0  0  0  0  0
  -25.8920  -34.9560   23.4160 C   0  0  0  0  0  0  0  0  0  0  0  0
  -26.5510  -34.8580   22.3780 O   0  0  0  0  0  0  0  0  0  0  0  0
  -24.9800  -34.0520   24.9830 H   0  0  0  0  0  0  0  0  0  0  0  0
  -24.1580  -36.7470   23.0840 C   0  0  0  0  0  1  0  0  0  0  0  0
  -25.4070  -36.3430   23.8830 C   0  0  0  0  0  3  0  0  0  0  0  0
  -27.5510  -37.2220   24.6960 C   0  0  0  0  0  1  0  0  0  0  0  0
  -26.4390  -37.3960   23.7650 N   0  0  0  0  0  0  0  0  0  0  0  0
  -26.0360  -38.3160   23.9220 H   0  0  0  0  0  0  0  0  0  0  0  0
  -26.4040  -31.7240   25.0960 C   0  0  1  0  0  0  0  0  0  0  0  0
  -25.3250  -31.4750   26.1750 C   0  0  0  0  0  1  0  0  0  0  0  0
  -26.9810  -30.3510   24.6790 C   0  0  0  0  0  1  0  0  0  0  0  0
  -27.5640  -32.5120   25.7480 C   0  0  0  0  0  1  0  0  0  0  0  0
  1  4  1  0
  2  5  2  0
  2  3  1  0
  3  1  2  0
  4  7  1  0
  5  6  1  0
  6 50  1  0
  6  4  2  0
  8  5  1  0
  9  3  1  0
  9 10  1  0
 11 10  1  0
 11 20  1  0
 12 20  1  0
 13 18  1  0
 14 15  1  0
 14 13  1  0
 16 15  1  0
 16 25  1  0
 16 17  1  0
 18 12  1  0
 18 17  1  0
 19 12  2  0
 20 21  1  0
 22 23  2  0
 23 42  1  0
 24 23  1  0
 24 27  1  0
 25 22  1  0
 25 26  1  0
 26 24  2  0
 27 28  1  0
 28 29  2  0
 30 33  1  0
 30 29  1  0
 31 30  2  0
 32 31  1  0
 32 27  2  0
 33 34  1  0
 34 35  1  0
 35 36  2  0
 37 36  1  0
 37 41  1  0
 38 37  2  0
 39 34  2  0
 39 38  1  0
 40 39  1  0
 42 43  1  0
 43 46  1  0
 43 45  1  0
 44 42  2  0
 47 48  1  0
 47 22  1  0
 49 47  1  0
 51 52  1  0
 51 50  1  0
 53 64  2  0
 54 52  1  0
 54 59  1  0
 55 63  1  0
 55 65  1  0
 56 62  1  0
 56 58  1  0
 57 63  1  0
 58 57  1  0
 59 58  2  0
 60 61  1  0
 60 54  2  0
 61 56  2  0
 62 55  1  0
 63 53  1  0
 65 67  2  0
 66 65  1  0
 68 66  1  0
 69 78  2  0
 69 74  1  0
 70 66  1  0
 70 74  1  0
 71 70  1  0
 72 73  1  0
 72 71  1  0
 73 69  1  0
 74 75  2  0
 75 76  1  0
 77 76  2  0
 78 77  1  0
 79 53  1  0
 79 80  1  0
 79 89  1  0
 80 83  1  0
 81 85  1  0
 81 80  1  0
 82 81  2  0
 85 84  1  0
 87 85  1  0
 87 88  1  0
 87 86  1  0
 89 92  1  1
 89 90  1  0
 91 89  1  0
M  ISO  4  12 100  20 100  51 101  52 101
M  END
>  <TORSDO>  (64) 
F 21

>  <SCORE>  (64) 
-13.288

>  <name>  (64) 
63

>  <ligand_id>  (64) 
63

>  <original_smiles>  (64) 
[H]c1c([H])c([H])c2c(c1[H])C([H])([H])C([H])([H])C([H])([H])C2([H])N([H])C(=O)C1([H])N(C(=O)C([H])(N([H])C(=O)C([H])(N([H])C([H])([H])[H])C([H])([H])[H])C(C([H])([H])[H])(C([H])([H])[H])C([H])([H])[H])C([H])([H])c2c([H])c(OC([H])([H])C([H])([H])c3c(C([H])([H])[H])c([H])c(C([H])([H])C([H])([H])C([H])([H])N([H])C(=O)N4C([H])([H])C([H])([H])C([H])([H])C([H])(n5nc(-c6c([H])c([H])c(Oc7c([H])c([H])c(F)c([H])c7F)c([H])c6[H])c(C(=O)N([H])[H])c5N([H])[H])C4([H])[H])c([H])c3C([H])([H])[H])c([H])c([H])c2C1([H])[H]

>  <smiles>  (64) 
[H]c1c([H])c([H])c2c(c1[H])C([H])([H])C([H])([H])C([H])([H])C2([H])N([H])C(=O)C1([H])N(C(=O)C([H])(N([H])C(=O)C([H])(N([H])C([H])([H])[H])C([H])([H])[H])C(C([H])([H])[H])(C([H])([H])[H])C([H])([H])[H])C([H])([H])c2c([H])c(OC([H])([H])C([H])([H])c3c(C([H])([H])[H])c([H])c(C([H])([H])C([H])([H])C([H])([H])N([H])C(=O)N4C([H])([H])C([H])([H])C([H])([H])C([H])(n5nc(-c6c([H])c([H])c(Oc7c([H])c([H])c(F)c([H])c7F)c([H])c6[H])c(C(=O)N([H])[H])c5N([H])[H])C4([H])[H])c([H])c3C([H])([H])[H])c([H])c([H])c2C1([H])[H]

$$$$
64:0:0
     RDKit          3D

 91 99  0  0  1  0  0  0  0  0999 V2000
  -29.4540  -21.4760   19.4130 C   0  0  0  0  0  3  0  0  0  0  0  0
  -29.7190  -22.1490   21.7050 C   0  0  0  0  0  3  0  0  0  0  0  0
  -29.8210  -21.1240   20.7270 C   0  0  0  0  0  0  0  0  0  0  0  0
  -28.9680  -22.7750   19.0890 C   0  0  0  0  0  0  0  0  0  0  0  0
  -29.2320  -23.4570   21.4010 C   0  0  0  0  0  0  0  0  0  0  0  0
  -28.8340  -23.8020   20.0790 C   0  0  0  0  0  0  0  0  0  0  0  0
  -28.5490  -23.0060   17.6450 C   0  0  0  0  0  1  0  0  0  0  0  0
  -29.1010  -24.4720   22.5220 C   0  0  0  0  0  1  0  0  0  0  0  0
  -30.4480  -19.7330   21.0610 C   0  0  0  0  0  2  0  0  0  0  0  0
  -29.6820  -18.3810   20.7560 C   0  0  0  0  0  2  0  0  0  0  0  0
  -30.5600  -17.0920   21.0430 C   0  0  0  0  0  2  0  0  0  0  0  0
  -30.6380  -14.6140   20.4590 C   0  0  0  0  0  0  0  0  0  0  0  0
  -30.3410  -12.4140   19.3530 C   0  0  0  0  0  2  0  0  0  0  0  0
  -29.4000  -12.5640   18.1400 C   0  0  0  0  0  2  0  0  0  0  0  0
  -27.9320  -12.4060   18.5760 C   0  0  0  0  0  2  0  0  0  0  0  0
  -27.5790  -13.2640   19.8200 C   0  0  0  0  0  3  0  0  0  0  0  0
  -28.6420  -13.1200   20.9320 C   0  0  0  0  0  2  0  0  0  0  0  0
  -29.9510  -13.4360   20.3440 N   0  0  0  0  0  0  0  0  0  0  0  0
  -31.8000  -14.7150   20.0620 O   0  0  0  0  0  0  0  0  0  0  0  0
  -29.9580  -15.7270   20.8640 N   0  0  0  0  0  0  0  0  0  0  0  0
  -28.9910  -15.6010   21.1230 H   0  0  0  0  0  0  0  0  0  0  0  0
  -25.1840  -13.8480   20.5440 C   0  0  0  0  0  0  0  0  0  0  0  0
  -24.1210  -13.0680   20.9120 C   0  0  0  0  0  0  0  0  0  0  0  0
  -24.5920  -11.7190   20.8800 C   0  0  0  0  0  0  0  0  0  0  0  0
  -26.2340  -12.9740   20.3090 N   0  0  0  0  0  0  0  0  0  0  0  0
  -25.8820  -11.6890   20.5710 N   0  0  0  0  0  0  0  0  0  0  0  0
  -23.8710  -10.4530   21.0660 C   0  0  0  0  0  0  0  0  0  0  0  0
  -24.3130   -9.4810   21.9910 C   0  0  0  0  0  3  0  0  0  0  0  0
  -23.5920   -8.2800   22.1660 C   0  0  0  0  0  3  0  0  0  0  0  0
  -22.4160   -8.0420   21.4160 C   0  0  0  0  0  0  0  0  0  0  0  0
  -21.9930   -9.0020   20.4800 C   0  0  0  0  0  3  0  0  0  0  0  0
  -22.7140  -10.1940   20.3030 C   0  0  0  0  0  3  0  0  0  0  0  0
  -21.6660   -6.8940   21.5020 O   0  0  0  0  0  0  0  0  0  0  0  0
  -21.6260   -6.1430   22.6500 C   0  0  0  0  0  0  0  0  0  0  0  0
  -21.1880   -6.6820   23.8780 C   0  0  0  0  0  3  0  0  0  0  0  0
  -21.0970   -5.8570   25.0170 C   0  0  0  0  0  3  0  0  0  0  0  0
  -21.4360   -4.4940   24.9290 C   0  0  0  0  0  0  0  0  0  0  0  0
  -21.8690   -3.9540   23.7050 C   0  0  0  0  0  3  0  0  0  0  0  0
  -21.9610   -4.7760   22.5680 C   0  0  0  0  0  0  0  0  0  0  0  0
  -22.3580   -4.2460   21.3860 F   0  0  0  0  0  0  0  0  0  0  0  0
  -21.3420   -3.6990   26.0200 F   0  0  0  0  0  0  0  0  0  0  0  0
  -22.7230  -13.5380   21.1860 C   0  0  0  0  0  0  0  0  0  0  0  0
  -22.0000  -12.8370   22.0540 N   0  0  0  0  0  0  0  0  0  0  0  0
  -22.2780  -14.5600   20.6670 O   0  0  0  0  0  0  0  0  0  0  0  0
  -22.3720  -12.0090   22.4960 H   0  0  0  0  0  0  0  0  0  0  0  0
  -21.0610  -13.1340   22.2820 H   0  0  0  0  0  0  0  0  0  0  0  0
  -25.3410  -15.2190   20.3690 N   0  0  0  0  0  0  0  0  0  0  0  0
  -24.5700  -15.8690   20.4790 H   0  0  0  0  0  0  0  0  0  0  0  0
  -26.1840  -15.6640   20.0290 H   0  0  0  0  0  0  0  0  0  0  0  0
  -28.0040  -25.0950   19.7520 C   0  0  0  0  0  2  0  0  0  0  0  0
  -28.2960  -26.4620   20.2320 O   0  0  0  0  0  0  0  0  0  0  0  0
  -24.6200  -31.8860   23.2830 C   0  0  0  0  0  0  0  0  0  0  0  0
  -27.2030  -27.3520   20.1680 C   0  0  0  0  0  0  0  0  0  0  0  0
  -23.4090  -30.5100   21.6350 C   0  0  0  0  0  3  0  0  0  0  0  0
  -24.8500  -28.9860   20.1880 C   0  0  0  0  0  0  0  0  0  0  0  0
  -25.9530  -30.8170   21.4570 C   0  0  0  0  0  2  0  0  0  0  0  0
  -26.0240  -29.4490   20.7940 C   0  0  0  0  0  0  0  0  0  0  0  0
  -27.2020  -28.6400   20.7860 C   0  0  0  0  0  3  0  0  0  0  0  0
  -26.0010  -26.9690   19.5120 C   0  0  0  0  0  3  0  0  0  0  0  0
  -24.8390  -27.7490   19.5400 C   0  0  0  0  0  3  0  0  0  0  0  0
  -23.6170  -29.8590   20.2470 C   0  0  0  0  0  2  0  0  0  0  0  0
  -24.6790  -31.0870   22.1800 N   0  0  0  0  0  0  0  0  0  0  0  0
  -23.5390  -32.1650   23.8190 O   0  0  0  0  0  0  0  0  0  0  0  0
  -22.7460  -29.4800   22.5810 C   0  0  0  0  0  0  0  0  0  0  0  0
  -21.4210  -29.3010   22.4490 N   0  0  0  0  0  0  0  0  0  0  0  0
  -23.4230  -28.8480   23.3980 O   0  0  0  0  0  0  0  0  0  0  0  0
  -20.9350  -29.8640   21.7650 H   0  0  0  0  0  0  0  0  0  0  0  0
  -18.0390  -28.1140   22.9390 C   0  0  0  0  0  0  0  0  0  0  0  0
  -20.5980  -28.3600   23.2110 C   0  0  0  0  0  3  0  0  0  0  0  0
  -20.6950  -26.9320   22.6240 C   0  0  0  0  0  2  0  0  0  0  0  0
  -19.5910  -26.6210   21.6090 C   0  0  0  0  0  2  0  0  0  0  0  0
  -18.2090  -26.7680   22.2530 C   0  0  0  0  0  2  0  0  0  0  0  0
  -19.1610  -28.8670   23.3740 C   0  0  0  0  0  0  0  0  0  0  0  0
  -18.9470  -30.1280   23.9740 C   0  0  0  0  0  3  0  0  0  0  0  0
  -17.6450  -30.6330   24.1440 C   0  0  0  0  0  3  0  0  0  0  0  0
  -16.5370  -29.8760   23.7260 C   0  0  0  0  0  3  0  0  0  0  0  0
  -16.7350  -28.6180   23.1280 C   0  0  0  0  0  3  0  0  0  0  0  0
  -25.9070  -32.5080   23.9060 C   0  0  0  0  0  3  0  0  0  0  0  0
  -26.4150  -31.7320   25.1840 C   0  0  1  0  0  0  0  0  0  0  0  0
  -25.3150  -31.5030   26.2470 C   0  0  0  0  0  1  0  0  0  0  0  0
  -26.9910  -30.3510   24.7950 C   0  0  0  0  0  1  0  0  0  0  0  0
  -27.5680  -32.5200   25.8490 C   0  0  0  0  0  1  0  0  0  0  0  0
  -25.6080  -33.9080   24.2340 N   0  0  0  0  0  0  0  0  0  0  0  0
  -25.9250  -34.9560   23.4620 C   0  0  0  0  0  0  0  0  0  0  0  0
  -26.5730  -34.8450   22.4170 O   0  0  0  0  0  0  0  0  0  0  0  0
  -25.0340  -34.0700   25.0490 H   0  0  0  0  0  0  0  0  0  0  0  0
  -24.1880  -36.7460   23.1410 C   0  0  0  0  0  1  0  0  0  0  0  0
  -25.4510  -36.3470   23.9230 C   0  0  0  0  0  3  0  0  0  0  0  0
  -27.6030  -37.2390   24.6950 C   0  0  0  0  0  1  0  0  0  0  0  0
  -26.4800  -37.3990   23.7750 N   0  0  0  0  0  0  0  0  0  0  0  0
  -26.0770  -38.3210   23.9250 H   0  0  0  0  0  0  0  0  0  0  0  0
  1  3  1  0
  3  9  1  0
  3  2  2  0
  4  1  2  0
  4  6  1  0
  5  2  1  0
  5  8  1  0
  6  5  2  0
  7  4  1  0
 10 11  1  0
 10  9  1  0
 12 20  1  0
 13 18  1  0
 14 15  1  0
 14 13  1  0
 16 15  1  0
 16 25  1  0
 16 17  1  0
 18 12  1  0
 18 17  1  0
 19 12  2  0
 20 11  1  0
 20 21  1  0
 22 23  2  0
 23 42  1  0
 24 23  1  0
 24 27  1  0
 25 22  1  0
 25 26  1  0
 26 24  2  0
 27 28  1  0
 28 29  2  0
 30 33  1  0
 30 29  1  0
 31 30  2  0
 32 31  1  0
 32 27  2  0
 33 34  1  0
 34 35  1  0
 35 36  2  0
 37 36  1  0
 37 41  1  0
 38 37  2  0
 39 34  2  0
 39 38  1  0
 40 39  1  0
 42 43  1  0
 43 46  1  0
 43 45  1  0
 44 42  2  0
 47 48  1  0
 47 22  1  0
 49 47  1  0
 50  6  1  0
 50 51  1  0
 52 63  2  0
 53 51  1  0
 53 58  1  0
 54 62  1  0
 54 64  1  0
 55 61  1  0
 55 57  1  0
 56 62  1  0
 57 56  1  0
 58 57  2  0
 59 60  1  0
 59 53  2  0
 60 55  2  0
 61 54  1  0
 62 52  1  0
 64 66  2  0
 65 64  1  0
 67 65  1  0
 68 77  2  0
 68 73  1  0
 69 65  1  0
 69 73  1  0
 70 69  1  0
 71 72  1  0
 71 70  1  0
 72 68  1  0
 73 74  2  0
 74 75  1  0
 76 75  2  0
 77 76  1  0
 78 52  1  0
 78 83  1  0
 78 79  1  0
 79 82  1  1
 79 80  1  0
 81 79  1  0
 83 86  1  0
 84 88  1  0
 84 83  1  0
 85 84  2  0
 88 87  1  0
 90 88  1  0
 90 91  1  0
 90 89  1  0
M  ISO  4  12 100  20 100  50 101  51 101
M  END
>  <TORSDO>  (65) 
F 20

>  <SCORE>  (65) 
-13.924

>  <name>  (65) 
64

>  <ligand_id>  (65) 
64

>  <original_smiles>  (65) 
[H]c1c([H])c([H])c2c(c1[H])C([H])([H])C([H])([H])C([H])([H])C2([H])N([H])C(=O)C1([H])N(C(=O)C([H])(N([H])C(=O)C([H])(N([H])C([H])([H])[H])C([H])([H])[H])C(C([H])([H])[H])(C([H])([H])[H])C([H])([H])[H])C([H])([H])c2c([H])c(OC([H])([H])c3c(C([H])([H])[H])c([H])c(C([H])([H])C([H])([H])C([H])([H])N([H])C(=O)N4C([H])([H])C([H])([H])C([H])([H])C([H])(n5nc(-c6c([H])c([H])c(Oc7c([H])c([H])c(F)c([H])c7F)c([H])c6[H])c(C(=O)N([H])[H])c5N([H])[H])C4([H])[H])c([H])c3C([H])([H])[H])c([H])c([H])c2C1([H])[H]

>  <smiles>  (65) 
[H]c1c([H])c([H])c2c(c1[H])C([H])([H])C([H])([H])C([H])([H])C2([H])N([H])C(=O)C1([H])N(C(=O)C([H])(N([H])C(=O)C([H])(N([H])C([H])([H])[H])C([H])([H])[H])C(C([H])([H])[H])(C([H])([H])[H])C([H])([H])[H])C([H])([H])c2c([H])c(OC([H])([H])c3c(C([H])([H])[H])c([H])c(C([H])([H])C([H])([H])C([H])([H])N([H])C(=O)N4C([H])([H])C([H])([H])C([H])([H])C([H])(n5nc(-c6c([H])c([H])c(Oc7c([H])c([H])c(F)c([H])c7F)c([H])c6[H])c(C(=O)N([H])[H])c5N([H])[H])C4([H])[H])c([H])c3C([H])([H])[H])c([H])c([H])c2C1([H])[H]

$$$$
65:0:0
     RDKit          3D

 91 99  0  0  1  0  0  0  0  0999 V2000
  -29.5400  -21.1950   21.9290 C   0  0  0  0  0  3  0  0  0  0  0  0
  -29.2710  -20.5810   20.6850 C   0  0  0  0  0  0  0  0  0  0  0  0
  -30.0070  -19.2520   20.4400 C   0  0  0  0  0  0  0  0  0  0  0  0
  -30.5230  -20.7380   22.8010 C   0  0  0  0  0  0  0  0  0  0  0  0
  -31.0870  -19.0240   21.3610 C   0  0  0  0  0  0  0  0  0  0  0  0
  -30.7870  -21.4230   24.1270 C   0  0  0  0  0  1  0  0  0  0  0  0
  -32.1890  -17.9950   21.1550 C   0  0  0  0  0  1  0  0  0  0  0  0
  -31.3120  -19.7140   22.4930 N   0  0  0  0  0  0  0  0  0  0  0  0
  -28.1720  -21.5590   19.9430 C   0  0  0  0  0  2  0  0  0  0  0  0
  -28.4140  -23.2440   19.6650 C   0  0  0  0  0  3  0  0  0  0  0  0
  -27.2920  -24.5210   19.5770 C   0  0  0  0  0  3  0  0  0  0  0  0
  -27.5620  -26.0570   19.3770 O   0  0  0  0  0  0  0  0  0  0  0  0
  -24.4940  -31.6860   23.0540 C   0  0  0  0  0  0  0  0  0  0  0  0
  -26.5330  -27.0740   19.4810 C   0  0  0  0  0  0  0  0  0  0  0  0
  -23.0560  -30.3980   21.5210 C   0  0  0  0  0  3  0  0  0  0  0  0
  -24.2660  -28.8720   19.8390 C   0  0  0  0  0  0  0  0  0  0  0  0
  -25.5730  -30.6210   21.0350 C   0  0  0  0  0  2  0  0  0  0  0  0
  -25.5260  -29.2620   20.3100 C   0  0  0  0  0  0  0  0  0  0  0  0
  -26.6570  -28.3800   20.1140 C   0  0  0  0  0  3  0  0  0  0  0  0
  -25.2450  -26.7960   18.9750 C   0  0  0  0  0  3  0  0  0  0  0  0
  -24.1380  -27.6550   19.1530 C   0  0  0  0  0  3  0  0  0  0  0  0
  -23.0780  -29.7890   20.0930 C   0  0  0  0  0  2  0  0  0  0  0  0
  -24.4010  -30.9200   21.9230 N   0  0  0  0  0  0  0  0  0  0  0  0
  -23.4930  -31.9620   23.7340 O   0  0  0  0  0  0  0  0  0  0  0  0
  -22.4840  -29.3550   22.5140 C   0  0  0  0  0  0  0  0  0  0  0  0
  -21.1700  -29.0790   22.4250 N   0  0  0  0  0  0  0  0  0  0  0  0
  -23.2230  -28.7970   23.3290 O   0  0  0  0  0  0  0  0  0  0  0  0
  -20.6250  -29.5840   21.7420 H   0  0  0  0  0  0  0  0  0  0  0  0
  -17.9650  -27.4500   22.8740 C   0  0  0  0  0  0  0  0  0  0  0  0
  -20.4450  -28.0910   23.2300 C   0  0  0  0  0  3  0  0  0  0  0  0
  -20.7740  -26.6510   22.7720 C   0  0  0  0  0  2  0  0  0  0  0  0
  -19.7830  -26.1040   21.7400 C   0  0  0  0  0  2  0  0  0  0  0  0
  -18.3620  -26.0960   22.3110 C   0  0  0  0  0  2  0  0  0  0  0  0
  -18.9420  -28.3920   23.2910 C   0  0  0  0  0  0  0  0  0  0  0  0
  -18.5180  -29.6480   23.7760 C   0  0  0  0  0  3  0  0  0  0  0  0
  -17.1490  -29.9670   23.8510 C   0  0  0  0  0  3  0  0  0  0  0  0
  -16.1860  -29.0240   23.4510 C   0  0  0  0  0  3  0  0  0  0  0  0
  -16.5940  -27.7680   22.9670 C   0  0  0  0  0  3  0  0  0  0  0  0
  -25.8570  -32.2650   23.5380 C   0  0  0  0  0  3  0  0  0  0  0  0
  -26.5440  -31.3860   24.6540 C   0  0  1  0  0  0  0  0  0  0  0  0
  -25.6130  -31.0440   25.8400 C   0  0  0  0  0  1  0  0  0  0  0  0
  -27.0590  -30.0520   24.0640 C   0  0  0  0  0  1  0  0  0  0  0  0
  -27.7820  -32.1250   25.2150 C   0  0  0  0  0  1  0  0  0  0  0  0
  -25.6120  -33.6270   24.0390 N   0  0  0  0  0  0  0  0  0  0  0  0
  -25.9280  -34.7530   23.3850 C   0  0  0  0  0  0  0  0  0  0  0  0
  -26.5220  -34.7510   22.3040 O   0  0  0  0  0  0  0  0  0  0  0  0
  -25.0790  -33.7030   24.8930 H   0  0  0  0  0  0  0  0  0  0  0  0
  -24.2560  -36.6360   23.3450 C   0  0  0  0  0  1  0  0  0  0  0  0
  -25.5210  -36.0930   24.0310 C   0  0  0  0  0  3  0  0  0  0  0  0
  -27.7300  -36.8010   24.8360 C   0  0  0  0  0  1  0  0  0  0  0  0
  -26.5870  -37.1170   23.9840 N   0  0  0  0  0  0  0  0  0  0  0  0
  -26.2270  -38.0260   24.2630 H   0  0  0  0  0  0  0  0  0  0  0  0
  -29.8880  -18.0130   19.3360 C   0  0  0  0  0  2  0  0  0  0  0  0
  -30.6030  -15.2950   19.6160 C   0  0  0  0  0  0  0  0  0  0  0  0
  -30.5540  -12.8420   18.9500 C   0  0  0  0  0  2  0  0  0  0  0  0
  -29.5660  -12.6210   17.7790 C   0  0  0  0  0  2  0  0  0  0  0  0
  -28.1360  -12.4020   18.3070 C   0  0  0  0  0  2  0  0  0  0  0  0
  -27.7440  -13.4370   19.3950 C   0  0  0  0  0  3  0  0  0  0  0  0
  -28.8500  -13.6140   20.4570 C   0  0  0  0  0  2  0  0  0  0  0  0
  -30.0700  -14.0100   19.7440 N   0  0  0  0  0  0  0  0  0  0  0  0
  -31.7830  -15.3750   19.2570 O   0  0  0  0  0  0  0  0  0  0  0  0
  -29.7670  -16.4540   19.6950 N   0  0  0  0  0  0  0  0  0  0  0  0
  -28.8270  -16.1980   19.9540 H   0  0  0  0  0  0  0  0  0  0  0  0
  -25.4450  -14.0340   20.3440 C   0  0  0  0  0  0  0  0  0  0  0  0
  -24.3980  -13.2660   20.7720 C   0  0  0  0  0  0  0  0  0  0  0  0
  -24.8290  -11.9080   20.6580 C   0  0  0  0  0  0  0  0  0  0  0  0
  -26.4460  -13.1450   19.9900 N   0  0  0  0  0  0  0  0  0  0  0  0
  -26.0900  -11.8590   20.2450 N   0  0  0  0  0  0  0  0  0  0  0  0
  -24.0910  -10.6540   20.8610 C   0  0  0  0  0  0  0  0  0  0  0  0
  -24.4920   -9.7110   21.8330 C   0  0  0  0  0  3  0  0  0  0  0  0
  -23.7530   -8.5220   22.0220 C   0  0  0  0  0  3  0  0  0  0  0  0
  -22.6000   -8.2700   21.2410 C   0  0  0  0  0  0  0  0  0  0  0  0
  -22.2200   -9.2030   20.2600 C   0  0  0  0  0  3  0  0  0  0  0  0
  -22.9580  -10.3810   20.0690 C   0  0  0  0  0  3  0  0  0  0  0  0
  -21.8360   -7.1320   21.3390 O   0  0  0  0  0  0  0  0  0  0  0  0
  -21.6340   -6.5020   22.5410 C   0  0  0  0  0  0  0  0  0  0  0  0
  -21.0470   -7.1640   23.6400 C   0  0  0  0  0  3  0  0  0  0  0  0
  -20.7950   -6.4580   24.8350 C   0  0  0  0  0  3  0  0  0  0  0  0
  -21.1190   -5.0920   24.9280 C   0  0  0  0  0  0  0  0  0  0  0  0
  -21.6990   -4.4300   23.8310 C   0  0  0  0  0  3  0  0  0  0  0  0
  -21.9530   -5.1320   22.6400 C   0  0  0  0  0  0  0  0  0  0  0  0
  -22.4920   -4.4840   21.5800 F   0  0  0  0  0  0  0  0  0  0  0  0
  -20.8700   -4.4120   26.0710 F   0  0  0  0  0  0  0  0  0  0  0  0
  -23.0370  -13.7610   21.1690 C   0  0  0  0  0  0  0  0  0  0  0  0
  -22.3770  -13.0660   22.0880 N   0  0  0  0  0  0  0  0  0  0  0  0
  -22.5730  -14.7980   20.6990 O   0  0  0  0  0  0  0  0  0  0  0  0
  -22.7680  -12.2260   22.4900 H   0  0  0  0  0  0  0  0  0  0  0  0
  -21.4670  -13.3790   22.3980 H   0  0  0  0  0  0  0  0  0  0  0  0
  -25.6210  -15.4060   20.1990 N   0  0  0  0  0  0  0  0  0  0  0  0
  -24.8730  -16.0640   20.3890 H   0  0  0  0  0  0  0  0  0  0  0  0
  -26.4300  -15.8430   19.7770 H   0  0  0  0  0  0  0  0  0  0  0  0
  1  4  1  0
  2  1  2  0
  3  2  1  0
  3  5  2  0
  4  6  1  0
  5  8  1  0
  7  5  1  0
  8  4  2  0
  9  2  1  0
 10  9  1  0
 11 10  2  0
 12 14  1  0
 12 11  1  0
 13 24  2  0
 14 19  1  0
 15 23  1  0
 15 25  1  0
 16 22  1  0
 16 18  1  0
 17 23  1  0
 18 17  1  0
 19 18  2  0
 20 21  1  0
 20 14  2  0
 21 16  2  0
 22 15  1  0
 23 13  1  0
 25 27  2  0
 26 25  1  0
 28 26  1  0
 29 38  2  0
 29 34  1  0
 30 26  1  0
 30 34  1  0
 31 30  1  0
 32 33  1  0
 32 31  1  0
 33 29  1  0
 34 35  2  0
 35 36  1  0
 37 36  2  0
 38 37  1  0
 39 13  1  0
 39 44  1  0
 39 40  1  0
 40 43  1  1
 40 41  1  0
 42 40  1  0
 44 47  1  0
 45 49  1  0
 45 44  1  0
 46 45  2  0
 49 48  1  0
 51 49  1  0
 51 52  1  0
 51 50  1  0
 53 62  1  0
 53  3  1  0
 54 62  1  0
 54 60  1  0
 55 60  1  0
 56 57  1  0
 56 55  1  0
 58 57  1  0
 58 67  1  0
 58 59  1  0
 60 59  1  0
 61 54  2  0
 62 63  1  0
 64 65  2  0
 65 84  1  0
 66 65  1  0
 66 69  1  0
 67 68  1  0
 67 64  1  0
 68 66  2  0
 69 70  1  0
 70 71  2  0
 72 75  1  0
 72 71  1  0
 73 72  2  0
 74 73  1  0
 74 69  2  0
 75 76  1  0
 76 81  2  0
 76 77  1  0
 77 78  2  0
 78 79  1  0
 79 83  1  0
 80 79  2  0
 81 80  1  0
 82 81  1  0
 84 85  1  0
 85 88  1  0
 85 87  1  0
 86 84  2  0
 89 64  1  0
 89 90  1  0
 91 89  1  0
M  ISO  4  11 101  12 101  54 100  62 100
M  END
>  <TORSDO>  (66) 
F 20

>  <SCORE>  (66) 
-14.230

>  <name>  (66) 
65

>  <ligand_id>  (66) 
65

>  <original_smiles>  (66) 
[H]c1c([H])c([H])c2c(c1[H])C([H])([H])C([H])([H])C([H])([H])C2([H])N([H])C(=O)C1([H])N(C(=O)C([H])(N([H])C(=O)C([H])(N([H])C([H])([H])[H])C([H])([H])[H])C(C([H])([H])[H])(C([H])([H])[H])C([H])([H])[H])C([H])([H])c2c([H])c(OC([H])([H])C([H])([H])C([H])([H])c3c([H])c(C([H])([H])[H])nc(C([H])([H])[H])c3C([H])([H])N([H])C(=O)N3C([H])([H])C([H])([H])C([H])([H])C([H])(n4nc(-c5c([H])c([H])c(Oc6c([H])c([H])c(F)c([H])c6F)c([H])c5[H])c(C(=O)N([H])[H])c4N([H])[H])C3([H])[H])c([H])c([H])c2C1([H])[H]

>  <smiles>  (66) 
[H]c1c([H])c([H])c2c(c1[H])C([H])([H])C([H])([H])C([H])([H])C2([H])N([H])C(=O)C1([H])N(C(=O)C([H])(N([H])C(=O)C([H])(N([H])C([H])([H])[H])C([H])([H])[H])C(C([H])([H])[H])(C([H])([H])[H])C([H])([H])[H])C([H])([H])c2c([H])c(OC([H])([H])C([H])([H])C([H])([H])c3c([H])c(C([H])([H])[H])nc(C([H])([H])[H])c3C([H])([H])N([H])C(=O)N3C([H])([H])C([H])([H])C([H])([H])C([H])(n4nc(-c5c([H])c([H])c(Oc6c([H])c([H])c(F)c([H])c6F)c([H])c5[H])c(C(=O)N([H])[H])c4N([H])[H])C3([H])[H])c([H])c([H])c2C1([H])[H]

$$$$
66:0:0
     RDKit          3D

 96104  0  0  1  0  0  0  0  0999 V2000
  -27.3760  -23.4880   21.2920 C   0  0  0  0  0  3  0  0  0  0  0  0
  -29.6760  -24.1460   21.6210 C   0  0  0  0  0  3  0  0  0  0  0  0
  -28.3710  -24.4790   21.2250 C   0  0  0  0  0  0  0  0  0  0  0  0
  -27.7210  -22.2090   21.7640 C   0  0  0  0  0  0  0  0  0  0  0  0
  -29.9310  -22.8440   22.0870 C   0  0  0  0  0  0  0  0  0  0  0  0
  -26.6990  -21.0930   21.8150 C   0  0  0  0  0  1  0  0  0  0  0  0
  -28.9700  -21.8960   22.1680 N   0  0  0  0  0  0  0  0  0  0  0  0
  -31.3460  -22.4260   22.4480 C   0  0  0  0  0  2  0  0  0  0  0  0
  -31.9570  -21.4840   21.3910 C   0  0  0  0  0  2  0  0  0  0  0  0
  -31.5940  -19.9980   21.5790 C   0  0  0  0  0  2  0  0  0  0  0  0
  -32.1680  -19.1120   20.4670 C   0  0  0  0  0  2  0  0  0  0  0  0
  -31.8990  -17.6170   20.6960 C   0  0  0  0  0  2  0  0  0  0  0  0
  -32.7060  -16.7360   19.7270 C   0  0  0  0  0  2  0  0  0  0  0  0
  -32.9780  -15.3180   20.2520 C   0  0  0  0  0  2  0  0  0  0  0  0
  -31.8300  -13.4420   19.0970 C   0  0  0  0  0  0  0  0  0  0  0  0
  -31.2200  -11.0700   18.8220 C   0  0  0  0  0  2  0  0  0  0  0  0
  -30.1370  -10.8160   17.7620 C   0  0  0  0  0  2  0  0  0  0  0  0
  -28.7370  -10.9470   18.3830 C   0  0  0  0  0  2  0  0  0  0  0  0
  -28.5670  -12.2720   19.1710 C   0  0  0  0  0  3  0  0  0  0  0  0
  -29.7420  -12.5020   20.1460 C   0  0  0  0  0  2  0  0  0  0  0  0
  -31.0120  -12.4040   19.4020 N   0  0  0  0  0  0  0  0  0  0  0  0
  -32.6420  -13.4240   18.1680 O   0  0  0  0  0  0  0  0  0  0  0  0
  -31.8680  -14.3920   20.0390 N   0  0  0  0  0  0  0  0  0  0  0  0
  -31.1990  -14.2970   20.7880 H   0  0  0  0  0  0  0  0  0  0  0  0
  -26.5600  -13.4120   20.3140 C   0  0  0  0  0  0  0  0  0  0  0  0
  -25.3900  -12.9120   20.8180 C   0  0  0  0  0  0  0  0  0  0  0  0
  -25.4530  -11.4980   20.6340 C   0  0  0  0  0  0  0  0  0  0  0  0
  -27.2780  -12.3170   19.8590 N   0  0  0  0  0  0  0  0  0  0  0  0
  -26.6200  -11.1540   20.1040 N   0  0  0  0  0  0  0  0  0  0  0  0
  -24.4470  -10.4560   20.8770 C   0  0  0  0  0  0  0  0  0  0  0  0
  -24.7140   -9.3510   21.7160 C   0  0  0  0  0  3  0  0  0  0  0  0
  -23.7240   -8.3730   21.9480 C   0  0  0  0  0  3  0  0  0  0  0  0
  -22.4510   -8.4940   21.3420 C   0  0  0  0  0  0  0  0  0  0  0  0
  -22.1970   -9.5820   20.4890 C   0  0  0  0  0  3  0  0  0  0  0  0
  -23.1860  -10.5530   20.2540 C   0  0  0  0  0  3  0  0  0  0  0  0
  -21.4360   -7.5780   21.4890 O   0  0  0  0  0  0  0  0  0  0  0  0
  -21.3030   -6.8280   22.6300 C   0  0  0  0  0  0  0  0  0  0  0  0
  -21.1440   -7.4250   23.9000 C   0  0  0  0  0  3  0  0  0  0  0  0
  -20.9410   -6.6180   25.0370 C   0  0  0  0  0  3  0  0  0  0  0  0
  -20.8880   -5.2170   24.9060 C   0  0  0  0  0  0  0  0  0  0  0  0
  -21.0420   -4.6210   23.6410 C   0  0  0  0  0  3  0  0  0  0  0  0
  -21.2460   -5.4250   22.5060 C   0  0  0  0  0  0  0  0  0  0  0  0
  -21.3720   -4.8480   21.2880 F   0  0  0  0  0  0  0  0  0  0  0  0
  -20.6860   -4.4410   25.9960 F   0  0  0  0  0  0  0  0  0  0  0  0
  -24.2360  -13.7080   21.3580 C   0  0  0  0  0  0  0  0  0  0  0  0
  -23.4990  -13.1490   22.3120 N   0  0  0  0  0  0  0  0  0  0  0  0
  -24.0100  -14.8530   20.9680 O   0  0  0  0  0  0  0  0  0  0  0  0
  -23.6960  -12.2170   22.6450 H   0  0  0  0  0  0  0  0  0  0  0  0
  -22.7260  -13.6610   22.7140 H   0  0  0  0  0  0  0  0  0  0  0  0
  -27.0660  -14.7030   20.1880 N   0  0  0  0  0  0  0  0  0  0  0  0
  -26.5370  -15.5230   20.4620 H   0  0  0  0  0  0  0  0  0  0  0  0
  -27.9590  -14.9290   19.7670 H   0  0  0  0  0  0  0  0  0  0  0  0
  -28.0480  -25.8650   20.7090 C   0  0  0  0  0  2  0  0  0  0  0  0
  -28.7360  -26.1500   19.3660 C   0  0  0  0  0  2  0  0  0  0  0  0
  -28.4660  -27.5600   18.8310 C   0  0  0  0  0  2  0  0  0  0  0  0
  -27.2480  -27.5430   18.0940 O   0  0  0  0  0  0  0  0  0  0  0  0
  -24.4390  -31.8320   23.0770 C   0  0  0  0  0  0  0  0  0  0  0  0
  -26.1730  -28.2320   18.5990 C   0  0  0  0  0  0  0  0  0  0  0  0
  -22.8420  -30.8060   21.4870 C   0  0  0  0  0  3  0  0  0  0  0  0
  -23.8840  -29.6270   19.4820 C   0  0  0  0  0  0  0  0  0  0  0  0
  -25.2690  -31.2340   20.8090 C   0  0  0  0  0  2  0  0  0  0  0  0
  -25.1590  -30.0350   19.8970 C   0  0  0  0  0  0  0  0  0  0  0  0
  -26.3060  -29.3420   19.4630 C   0  0  0  0  0  3  0  0  0  0  0  0
  -24.8860  -27.8310   18.1840 C   0  0  0  0  0  3  0  0  0  0  0  0
  -23.7410  -28.5170   18.6290 C   0  0  0  0  0  3  0  0  0  0  0  0
  -22.7130  -30.4380   19.9840 C   0  0  0  0  0  2  0  0  0  0  0  0
  -24.2150  -31.2930   21.8450 N   0  0  0  0  0  0  0  0  0  0  0  0
  -23.5180  -31.9660   23.8940 O   0  0  0  0  0  0  0  0  0  0  0  0
  -22.3830  -29.5950   22.3300 C   0  0  0  0  0  0  0  0  0  0  0  0
  -21.0710  -29.3120   22.3020 N   0  0  0  0  0  0  0  0  0  0  0  0
  -23.1990  -28.9180   22.9610 O   0  0  0  0  0  0  0  0  0  0  0  0
  -20.4640  -29.9180   21.7670 H   0  0  0  0  0  0  0  0  0  0  0  0
  -17.9230  -27.5870   22.6940 C   0  0  0  0  0  0  0  0  0  0  0  0
  -20.4180  -28.1970   22.9850 C   0  0  0  0  0  3  0  0  0  0  0  0
  -20.7230  -26.8540   22.2820 C   0  0  0  0  0  2  0  0  0  0  0  0
  -19.6670  -26.4620   21.2450 C   0  0  0  0  0  2  0  0  0  0  0  0
  -18.2870  -26.3430   21.8990 C   0  0  0  0  0  2  0  0  0  0  0  0
  -18.9210  -28.4650   23.1900 C   0  0  0  0  0  0  0  0  0  0  0  0
  -18.5270  -29.6270   23.8890 C   0  0  0  0  0  3  0  0  0  0  0  0
  -17.1650  -29.9120   24.0990 C   0  0  0  0  0  3  0  0  0  0  0  0
  -16.1800  -29.0300   23.6200 C   0  0  0  0  0  3  0  0  0  0  0  0
  -16.5600  -27.8700   22.9230 C   0  0  0  0  0  3  0  0  0  0  0  0
  -25.8570  -32.3240   23.5090 C   0  0  0  0  0  3  0  0  0  0  0  0
  -26.5930  -31.3240   24.4820 C   0  0  1  0  0  0  0  0  0  0  0  0
  -25.7420  -30.9090   25.7030 C   0  0  0  0  0  1  0  0  0  0  0  0
  -27.0060  -30.0370   23.7300 C   0  0  0  0  0  1  0  0  0  0  0  0
  -27.8960  -31.9700   25.0070 C   0  0  0  0  0  1  0  0  0  0  0  0
  -25.6950  -33.6400   24.1390 N   0  0  0  0  0  0  0  0  0  0  0  0
  -25.9970  -34.8070   23.5520 C   0  0  0  0  0  0  0  0  0  0  0  0
  -26.5150  -34.8810   22.4340 O   0  0  0  0  0  0  0  0  0  0  0  0
  -25.2340  -33.6600   25.0360 H   0  0  0  0  0  0  0  0  0  0  0  0
  -24.3830  -36.7210   23.7670 C   0  0  0  0  0  1  0  0  0  0  0  0
  -25.6700  -36.0960   24.3280 C   0  0  0  0  0  3  0  0  0  0  0  0
  -27.9460  -36.6710   25.0480 C   0  0  0  0  0  1  0  0  0  0  0  0
  -26.7620  -37.0920   24.3020 N   0  0  0  0  0  0  0  0  0  0  0  0
  -26.4470  -37.9800   24.6800 H   0  0  0  0  0  0  0  0  0  0  0  0
  1  4  1  0
  2  5  2  0
  3  1  2  0
  3  2  1  0
  4  6  1  0
  4  7  2  0
  5  7  1  0
  5  8  1  0
  9 10  1  0
  9  8  1  0
 11 12  1  0
 11 10  1  0
 13 14  1  0
 13 12  1  0
 15 21  1  0
 15 23  1  0
 16 21  1  0
 17 18  1  0
 17 16  1  0
 19 18  1  0
 19 28  1  0
 19 20  1  0
 21 20  1  0
 22 15  2  0
 23 14  1  0
 23 24  1  0
 25 26  2  0
 26 45  1  0
 27 26  1  0
 27 30  1  0
 28 29  1  0
 28 25  1  0
 29 27  2  0
 30 31  1  0
 31 32  2  0
 33 36  1  0
 33 32  1  0
 34 33  2  0
 35 34  1  0
 35 30  2  0
 36 37  1  0
 37 38  1  0
 38 39  2  0
 40 39  1  0
 40 44  1  0
 41 40  2  0
 42 37  2  0
 42 41  1  0
 43 42  1  0
 45 46  1  0
 46 48  1  0
 46 49  1  0
 47 45  2  0
 50 25  1  0
 50 51  1  0
 52 50  1  0
 53  3  1  0
 54 53  1  0
 55 54  1  0
 56 58  1  0
 56 55  1  0
 57 68  2  0
 58 63  1  0
 59 67  1  0
 59 69  1  0
 60 62  1  0
 60 66  1  0
 61 67  1  0
 62 61  1  0
 63 62  2  0
 64 58  2  0
 64 65  1  0
 65 60  2  0
 66 59  1  0
 67 57  1  0
 69 71  2  0
 70 69  1  0
 72 70  1  0
 73 82  2  0
 73 78  1  0
 74 70  1  0
 74 78  1  0
 75 74  1  0
 76 77  1  0
 76 75  1  0
 77 73  1  0
 78 79  2  0
 79 80  1  0
 81 80  2  0
 82 81  1  0
 83 57  1  0
 83 88  1  0
 83 84  1  0
 84 87  1  1
 84 85  1  0
 86 84  1  0
 88 91  1  0
 89 88  1  0
 89 93  1  0
 90 89  2  0
 93 92  1  0
 95 93  1  0
 95 96  1  0
 95 94  1  0
M  ISO  4  15 100  23 100  55 101  56 101
M  END
>  <TORSDO>  (67) 
F 26

>  <SCORE>  (67) 
-5.136

>  <name>  (67) 
66

>  <ligand_id>  (67) 
66

>  <original_smiles>  (67) 
[H]c1c([H])c([H])c2c(c1[H])C([H])([H])C([H])([H])C([H])([H])C2([H])N([H])C(=O)C1([H])N(C(=O)C([H])(N([H])C(=O)C([H])(N([H])C([H])([H])[H])C([H])([H])[H])C(C([H])([H])[H])(C([H])([H])[H])C([H])([H])[H])C([H])([H])c2c([H])c(OC([H])([H])C([H])([H])C([H])([H])c3c([H])c(C([H])([H])[H])nc(C([H])([H])C([H])([H])C([H])([H])C([H])([H])C([H])([H])C([H])([H])C([H])([H])N([H])C(=O)N4C([H])([H])C([H])([H])C([H])([H])C([H])(n5nc(-c6c([H])c([H])c(Oc7c([H])c([H])c(F)c([H])c7F)c([H])c6[H])c(C(=O)N([H])[H])c5N([H])[H])C4([H])[H])c3[H])c([H])c([H])c2C1([H])[H]

>  <smiles>  (67) 
[H]c1c([H])c([H])c2c(c1[H])C([H])([H])C([H])([H])C([H])([H])C2([H])N([H])C(=O)C1([H])N(C(=O)C([H])(N([H])C(=O)C([H])(N([H])C([H])([H])[H])C([H])([H])[H])C(C([H])([H])[H])(C([H])([H])[H])C([H])([H])[H])C([H])([H])c2c([H])c(OC([H])([H])C([H])([H])C([H])([H])c3c([H])c(C([H])([H])[H])nc(C([H])([H])C([H])([H])C([H])([H])C([H])([H])C([H])([H])C([H])([H])C([H])([H])N([H])C(=O)N4C([H])([H])C([H])([H])C([H])([H])C([H])(n5nc(-c6c([H])c([H])c(Oc7c([H])c([H])c(F)c([H])c7F)c([H])c6[H])c(C(=O)N([H])[H])c5N([H])[H])C4([H])[H])c3[H])c([H])c([H])c2C1([H])[H]

$$$$
67:0:0
     RDKit          3D

 98105  0  0  1  0  0  0  0  0999 V2000
  -23.1880  -25.7750   18.4040 C   0  0  0  0  0  3  0  0  0  0  0  0
  -24.2850  -23.6380   17.8620 C   0  0  0  0  0  3  0  0  0  0  0  0
  -21.8820  -25.2220   18.4960 C   0  0  0  0  0  0  0  0  0  0  0  0
  -21.9570  -23.6180   18.6350 C   0  0  0  0  0  0  0  0  0  0  0  0
  -24.3460  -24.9460   18.2730 C   0  0  0  0  0  0  0  0  0  0  0  0
  -23.2180  -22.8660   18.2980 C   0  0  0  0  0  0  0  0  0  0  0  0
  -20.3890  -26.3370   18.9470 C   0  0  0  0  0  1  0  0  0  0  0  0
  -20.7490  -22.5650   19.2530 C   0  0  0  0  0  3  0  0  0  0  0  0
  -18.4910  -24.5420   20.0380 C   0  0  0  0  0  1  0  0  0  0  0  0
  -19.1540  -22.8930   19.9550 C   0  0  0  0  0  3  0  0  0  0  0  0
  -25.6880  -25.3310   18.8570 C   0  0  0  0  0  2  0  0  0  0  0  0
  -26.8760  -24.3460   19.2450 C   0  0  0  0  0  2  0  0  0  0  0  0
  -28.3910  -24.8970   19.3030 C   0  0  0  0  0  2  0  0  0  0  0  0
  -28.9530  -25.7010   20.4200 O   0  0  0  0  0  0  0  0  0  0  0  0
  -27.0780  -30.3330   25.5190 C   0  0  0  0  0  0  0  0  0  0  0  0
  -28.3700  -26.9210   20.7090 C   0  0  0  0  0  0  0  0  0  0  0  0
  -25.5810  -30.0510   23.5910 C   0  0  0  0  0  3  0  0  0  0  0  0
  -26.5990  -28.9690   21.5140 C   0  0  0  0  0  0  0  0  0  0  0  0
  -28.1000  -29.7260   23.3390 C   0  0  0  0  0  2  0  0  0  0  0  0
  -27.7930  -28.7630   22.2150 C   0  0  0  0  0  0  0  0  0  0  0  0
  -28.6650  -27.7020   21.8540 C   0  0  0  0  0  3  0  0  0  0  0  0
  -27.4090  -27.4290   19.8370 C   0  0  0  0  0  3  0  0  0  0  0  0
  -26.4260  -28.3300   20.2840 C   0  0  0  0  0  3  0  0  0  0  0  0
  -25.6330  -30.0060   22.0400 C   0  0  0  0  0  2  0  0  0  0  0  0
  -26.9400  -30.0400   24.2000 N   0  0  0  0  0  0  0  0  0  0  0  0
  -26.1050  -30.6610   26.2120 O   0  0  0  0  0  0  0  0  0  0  0  0
  -24.7390  -28.8850   24.1430 C   0  0  0  0  0  0  0  0  0  0  0  0
  -23.4400  -28.9920   23.9870 N   0  0  0  0  0  0  0  0  0  0  0  0
  -25.2420  -27.9290   24.7190 O   0  0  0  0  0  0  0  0  0  0  0  0
  -23.0880  -29.8220   23.5350 H   0  0  0  0  0  0  0  0  0  0  0  0
  -19.9940  -28.0830   22.7750 C   0  0  0  0  0  0  0  0  0  0  0  0
  -22.4450  -28.0080   24.3930 C   0  0  0  0  0  3  0  0  0  0  0  0
  -22.8950  -26.2080   24.2000 C   0  0  0  0  0  1  0  0  0  0  0  0
  -21.1490  -25.1780   22.4150 C   0  0  0  0  0  1  0  0  0  0  0  0
  -19.9940  -26.5530   21.9620 C   0  0  0  0  0  2  0  0  0  0  0  0
  -21.0170  -28.6770   23.7600 C   0  0  0  0  0  0  0  0  0  0  0  0
  -20.6400  -29.8480   24.4790 C   0  0  0  0  0  3  0  0  0  0  0  0
  -19.3590  -30.4200   24.3990 C   0  0  0  0  0  3  0  0  0  0  0  0
  -18.3890  -29.8210   23.5810 C   0  0  0  0  0  3  0  0  0  0  0  0
  -18.7130  -28.6950   22.7990 C   0  0  0  0  0  3  0  0  0  0  0  0
  -28.4710  -30.2890   26.2040 C   0  0  0  0  0  3  0  0  0  0  0  0
  -28.4480  -29.5770   27.6120 C   0  0  1  0  0  0  0  0  0  0  0  0
  -27.3340  -30.0970   28.5480 C   0  0  0  0  0  1  0  0  0  0  0  0
  -28.2590  -28.0470   27.4600 C   0  0  0  0  0  1  0  0  0  0  0  0
  -29.8130  -29.7810   28.3140 C   0  0  0  0  0  1  0  0  0  0  0  0
  -28.9410  -31.6750   26.3250 N   0  0  0  0  0  0  0  0  0  0  0  0
  -29.8590  -32.2260   25.5250 C   0  0  0  0  0  0  0  0  0  0  0  0
  -30.4620  -31.5950   24.6530 O   0  0  0  0  0  0  0  0  0  0  0  0
  -28.4610  -32.2680   26.9860 H   0  0  0  0  0  0  0  0  0  0  0  0
  -29.4650  -34.5390   24.6120 C   0  0  0  0  0  1  0  0  0  0  0  0
  -30.1520  -33.7270   25.7210 C   0  0  0  0  0  3  0  0  0  0  0  0
  -32.2940  -33.4660   26.8950 C   0  0  0  0  0  1  0  0  0  0  0  0
  -31.5980  -34.0390   25.7470 N   0  0  0  0  0  0  0  0  0  0  0  0
  -31.7500  -35.0450   25.7520 H   0  0  0  0  0  0  0  0  0  0  0  0
  -23.7200  -21.3170   18.5110 C   0  0  0  0  0  2  0  0  0  0  0  0
  -25.2710  -20.8070   18.0560 C   0  0  0  0  0  2  0  0  0  0  0  0
  -26.4280  -19.9250   18.8510 C   0  0  0  0  0  2  0  0  0  0  0  0
  -27.2410  -18.6670   18.1130 C   0  0  0  0  0  2  0  0  0  0  0  0
  -28.8090  -18.1620   18.3830 C   0  0  0  0  0  3  0  0  0  0  0  0
  -29.2230  -16.5820   18.7050 C   0  0  0  0  0  3  0  0  0  0  0  0
  -31.4300  -14.9800   19.1420 C   0  0  0  0  0  0  0  0  0  0  0  0
  -31.4990  -12.4520   19.2430 C   0  0  0  0  0  2  0  0  0  0  0  0
  -30.5830  -11.8340   18.1570 C   0  0  0  0  0  2  0  0  0  0  0  0
  -29.1170  -11.8070   18.6340 C   0  0  0  0  0  2  0  0  0  0  0  0
  -28.6870  -13.1630   19.2520 C   0  0  0  0  0  3  0  0  0  0  0  0
  -29.6900  -13.6330   20.3150 C   0  0  0  0  0  2  0  0  0  0  0  0
  -30.9490  -13.7830   19.6120 N   0  0  0  0  0  0  0  0  0  0  0  0
  -32.6020  -14.9950   18.7310 O   0  0  0  0  0  0  0  0  0  0  0  0
  -30.6440  -16.1540   19.1690 N   0  0  0  0  0  0  0  0  0  0  0  0
  -31.2460  -16.9620   19.2000 H   0  0  0  0  0  0  0  0  0  0  0  0
  -26.5390  -14.1870   20.1800 C   0  0  0  0  0  0  0  0  0  0  0  0
  -25.3680  -13.6200   20.5940 C   0  0  0  0  0  0  0  0  0  0  0  0
  -25.5340  -12.2140   20.4310 C   0  0  0  0  0  0  0  0  0  0  0  0
  -27.3490  -13.1310   19.8030 N   0  0  0  0  0  0  0  0  0  0  0  0
  -26.7590  -11.9330   20.0140 N   0  0  0  0  0  0  0  0  0  0  0  0
  -24.5760  -11.1180   20.5800 C   0  0  0  0  0  0  0  0  0  0  0  0
  -24.8940   -9.9590   21.3190 C   0  0  0  0  0  3  0  0  0  0  0  0
  -23.9490   -8.9230   21.4590 C   0  0  0  0  0  3  0  0  0  0  0  0
  -22.6740   -9.0420   20.8560 C   0  0  0  0  0  0  0  0  0  0  0  0
  -22.3720  -10.1880   20.1010 C   0  0  0  0  0  3  0  0  0  0  0  0
  -23.3160  -11.2180   19.9600 C   0  0  0  0  0  3  0  0  0  0  0  0
  -21.6990   -8.0750   20.9190 O   0  0  0  0  0  0  0  0  0  0  0  0
  -21.6210   -7.2010   21.9730 C   0  0  0  0  0  0  0  0  0  0  0  0
  -21.5130   -7.6490   23.3080 C   0  0  0  0  0  3  0  0  0  0  0  0
  -21.3660   -6.7160   24.3520 C   0  0  0  0  0  3  0  0  0  0  0  0
  -21.3140   -5.3380   24.0660 C   0  0  0  0  0  0  0  0  0  0  0  0
  -21.4150   -4.8920   22.7370 C   0  0  0  0  0  3  0  0  0  0  0  0
  -21.5650   -5.8220   21.6930 C   0  0  0  0  0  0  0  0  0  0  0  0
  -21.6410   -5.3880   20.4120 F   0  0  0  0  0  0  0  0  0  0  0  0
  -21.1640   -4.4420   25.0680 F   0  0  0  0  0  0  0  0  0  0  0  0
  -24.1310  -14.3570   21.0090 C   0  0  0  0  0  0  0  0  0  0  0  0
  -23.3390  -13.7670   21.8980 N   0  0  0  0  0  0  0  0  0  0  0  0
  -23.8810  -15.4820   20.5810 O   0  0  0  0  0  0  0  0  0  0  0  0
  -23.5630  -12.8550   22.2680 H   0  0  0  0  0  0  0  0  0  0  0  0
  -22.5040  -14.2400   22.2130 H   0  0  0  0  0  0  0  0  0  0  0  0
  -26.9520  -15.5020   20.0470 N   0  0  0  0  0  0  0  0  0  0  0  0
  -26.3490  -16.2920   20.2430 H   0  0  0  0  0  0  0  0  0  0  0  0
  -27.8340  -15.7650   19.6290 H   0  0  0  0  0  0  0  0  0  0  0  0
  1  3  1  0
  2  5  1  0
  2  6  2  0
  3  4  2  0
  3  7  1  0
  4  8  1  0
  5  1  2  0
  5 11  1  0
  6 55  1  0
  6  4  1  0
  8 10  2  0
 10  9  1  0
 11 12  1  0
 12 13  1  0
 13 14  1  0
 14 16  1  0
 15 26  2  0
 16 21  1  0
 17 27  1  0
 17 25  1  0
 18 24  1  0
 18 20  1  0
 19 25  1  0
 20 19  1  0
 21 20  2  0
 22 23  1  0
 22 16  2  0
 23 18  2  0
 24 17  1  0
 25 15  1  0
 27 29  2  0
 28 27  1  0
 28 32  1  0
 30 28  1  0
 31 40  2  0
 31 36  1  0
 32 33  1  0
 35 34  1  0
 35 31  1  0
 36 32  1  0
 36 37  2  0
 38 37  1  0
 39 38  2  0
 40 39  1  0
 41 15  1  0
 41 46  1  0
 41 42  1  0
 42 45  1  1
 42 43  1  0
 44 42  1  0
 46 49  1  0
 47 51  1  0
 47 46  1  0
 48 47  2  0
 51 50  1  0
 51 53  1  0
 53 54  1  0
 53 52  1  0
 56 55  1  0
 56 57  1  0
 58 59  1  0
 58 57  1  0
 59 60  2  0
 60 69  1  0
 61 69  1  0
 61 67  1  0
 62 67  1  0
 63 64  1  0
 63 62  1  0
 65 64  1  0
 65 74  1  0
 65 66  1  0
 67 66  1  0
 68 61  2  0
 69 70  1  0
 71 72  2  0
 72 91  1  0
 73 76  1  0
 73 72  1  0
 74 75  1  0
 74 71  1  0
 75 73  2  0
 76 77  1  0
 77 78  2  0
 79 82  1  0
 79 78  1  0
 80 79  2  0
 81 80  1  0
 81 76  2  0
 82 83  1  0
 83 84  1  0
 84 85  2  0
 86 85  1  0
 86 90  1  0
 87 86  2  0
 88 83  2  0
 88 87  1  0
 89 88  1  0
 91 92  1  0
 92 95  1  0
 92 94  1  0
 93 91  2  0
 96 71  1  0
 96 97  1  0
 98 96  1  0
M  ISO  4  13 101  14 101  61 100  69 100
M  END
>  <TORSDO>  (68) 
F 25

>  <SCORE>  (68) 
-5.944

>  <name>  (68) 
67

>  <ligand_id>  (68) 
67

>  <original_smiles>  (68) 
[H]c1c([H])c([H])c2c(c1[H])C([H])([H])C([H])([H])C([H])([H])C2([H])N([H])C(=O)C1([H])N(C(=O)C([H])(N([H])C(=O)C([H])(N([H])C([H])([H])[H])C([H])([H])[H])C(C([H])([H])[H])(C([H])([H])[H])C([H])([H])[H])C([H])([H])c2c([H])c(OC([H])([H])C([H])([H])C([H])([H])c3c([H])c4c(c(C([H])([H])C([H])([H])C([H])([H])C([H])([H])C([H])([H])C([H])([H])N([H])C(=O)N5C([H])([H])C([H])([H])C([H])([H])C([H])(n6nc(-c7c([H])c([H])c(Oc8c([H])c([H])c(F)c([H])c8F)c([H])c7[H])c(C(=O)N([H])[H])c6N([H])[H])C5([H])[H])c3[H])C([H])([H])C([H])([H])C([H])([H])C4([H])[H])c([H])c([H])c2C1([H])[H]

>  <smiles>  (68) 
[H]c1c([H])c([H])c2c(c1[H])C([H])([H])C([H])([H])C([H])([H])C2([H])N([H])C(=O)C1([H])N(C(=O)C([H])(N([H])C(=O)C([H])(N([H])C([H])([H])[H])C([H])([H])[H])C(C([H])([H])[H])(C([H])([H])[H])C([H])([H])[H])C([H])([H])c2c([H])c(OC([H])([H])C([H])([H])C([H])([H])c3c([H])c4c(c(C([H])([H])C([H])([H])C([H])([H])C([H])([H])C([H])([H])C([H])([H])N([H])C(=O)N5C([H])([H])C([H])([H])C([H])([H])C([H])(n6nc(-c7c([H])c([H])c(Oc8c([H])c([H])c(F)c([H])c8F)c([H])c7[H])c(C(=O)N([H])[H])c6N([H])[H])C5([H])[H])c3[H])C([H])([H])C([H])([H])C([H])([H])C4([H])[H])c([H])c([H])c2C1([H])[H]

$$$$
68:0:0
     RDKit          3D

 90 98  0  0  1  0  0  0  0  0999 V2000
  -30.6470  -21.2420   20.9620 C   0  0  0  0  0  3  0  0  0  0  0  0
  -31.4830  -20.1550   21.2860 C   0  0  0  0  0  3  0  0  0  0  0  0
  -28.8880  -19.6490   20.4310 C   0  0  0  0  0  3  0  0  0  0  0  0
  -29.3200  -21.0330   20.5360 C   0  0  0  0  0  0  0  0  0  0  0  0
  -29.7300  -18.5090   20.7540 C   0  0  0  0  0  0  0  0  0  0  0  0
  -31.0390  -18.8190   21.2020 C   0  0  0  0  0  0  0  0  0  0  0  0
  -32.1250  -17.5820   21.7250 Cl  0  0  0  0  0  0  0  0  0  0  0  0
  -28.4050  -22.2890   20.2160 C   0  0  0  0  0  2  0  0  0  0  0  0
  -28.9110  -23.8080   20.4620 C   0  0  0  0  0  3  0  0  0  0  0  0
  -27.9140  -25.0050   20.0680 C   0  0  0  0  0  3  0  0  0  0  0  0
  -28.2090  -26.4570   20.3070 O   0  0  0  0  0  0  0  0  0  0  0  0
  -24.5950  -31.9710   23.3210 C   0  0  0  0  0  0  0  0  0  0  0  0
  -27.1290  -27.3670   20.2390 C   0  0  0  0  0  0  0  0  0  0  0  0
  -23.3710  -30.5970   21.6790 C   0  0  0  0  0  3  0  0  0  0  0  0
  -24.7960  -29.0400   20.2370 C   0  0  0  0  0  0  0  0  0  0  0  0
  -25.9170  -30.8750   21.4940 C   0  0  0  0  0  2  0  0  0  0  0  0
  -25.9770  -29.5000   20.8370 C   0  0  0  0  0  0  0  0  0  0  0  0
  -27.1470  -28.6760   20.8280 C   0  0  0  0  0  3  0  0  0  0  0  0
  -25.9280  -26.9830   19.6000 C   0  0  0  0  0  3  0  0  0  0  0  0
  -24.7770  -27.7900   19.6070 C   0  0  0  0  0  3  0  0  0  0  0  0
  -23.5720  -29.9310   20.2940 C   0  0  0  0  0  2  0  0  0  0  0  0
  -24.6470  -31.1660   22.2210 N   0  0  0  0  0  0  0  0  0  0  0  0
  -23.5160  -32.2600   23.8590 O   0  0  0  0  0  0  0  0  0  0  0  0
  -22.6980  -29.5810   22.6350 C   0  0  0  0  0  0  0  0  0  0  0  0
  -21.3740  -29.3990   22.4920 N   0  0  0  0  0  0  0  0  0  0  0  0
  -23.3670  -28.9620   23.4670 O   0  0  0  0  0  0  0  0  0  0  0  0
  -20.8940  -29.9490   21.7930 H   0  0  0  0  0  0  0  0  0  0  0  0
  -17.9960  -28.1840   22.9440 C   0  0  0  0  0  0  0  0  0  0  0  0
  -20.5470  -28.4640   23.2580 C   0  0  0  0  0  3  0  0  0  0  0  0
  -20.6700  -27.0270   22.6990 C   0  0  0  0  0  2  0  0  0  0  0  0
  -19.5890  -26.6870   21.6690 C   0  0  0  0  0  2  0  0  0  0  0  0
  -18.1950  -26.8290   22.2860 C   0  0  0  0  0  2  0  0  0  0  0  0
  -19.1020  -28.9590   23.3860 C   0  0  0  0  0  0  0  0  0  0  0  0
  -18.8640  -30.2260   23.9610 C   0  0  0  0  0  3  0  0  0  0  0  0
  -17.5520  -30.7200   24.0980 C   0  0  0  0  0  3  0  0  0  0  0  0
  -16.4620  -29.9430   23.6730 C   0  0  0  0  0  3  0  0  0  0  0  0
  -16.6840  -28.6760   23.1020 C   0  0  0  0  0  3  0  0  0  0  0  0
  -25.8860  -32.5860   23.9420 C   0  0  0  0  0  3  0  0  0  0  0  0
  -26.3870  -31.8130   25.2240 C   0  0  1  0  0  0  0  0  0  0  0  0
  -25.2860  -31.5960   26.2880 C   0  0  0  0  0  1  0  0  0  0  0  0
  -26.9540  -30.4260   24.8430 C   0  0  0  0  0  1  0  0  0  0  0  0
  -27.5450  -32.5950   25.8870 C   0  0  0  0  0  1  0  0  0  0  0  0
  -25.5960  -33.9910   24.2660 N   0  0  0  0  0  0  0  0  0  0  0  0
  -25.9210  -35.0350   23.4920 C   0  0  0  0  0  0  0  0  0  0  0  0
  -26.5670  -34.9180   22.4480 O   0  0  0  0  0  0  0  0  0  0  0  0
  -25.0190  -34.1560   25.0770 H   0  0  0  0  0  0  0  0  0  0  0  0
  -24.1880  -36.8330   23.1820 C   0  0  0  0  0  1  0  0  0  0  0  0
  -25.4580  -36.4320   23.9500 C   0  0  0  0  0  3  0  0  0  0  0  0
  -27.6250  -37.3210   24.6890 C   0  0  0  0  0  1  0  0  0  0  0  0
  -26.4900  -37.4790   23.7830 N   0  0  0  0  0  0  0  0  0  0  0  0
  -26.0930  -38.4020   23.9290 H   0  0  0  0  0  0  0  0  0  0  0  0
  -29.2340  -16.9940   20.7780 C   0  0  0  0  0  2  0  0  0  0  0  0
  -30.5240  -14.7920   20.0420 C   0  0  0  0  0  0  0  0  0  0  0  0
  -30.2070  -12.5700   18.9680 C   0  0  0  0  0  2  0  0  0  0  0  0
  -29.2100  -12.6900   17.7980 C   0  0  0  0  0  2  0  0  0  0  0  0
  -27.7680  -12.5080   18.3080 C   0  0  0  0  0  2  0  0  0  0  0  0
  -27.4630  -13.3560   19.5730 C   0  0  0  0  0  3  0  0  0  0  0  0
  -28.5840  -13.2590   20.6290 C   0  0  0  0  0  2  0  0  0  0  0  0
  -29.8370  -13.6070   19.9560 N   0  0  0  0  0  0  0  0  0  0  0  0
  -31.7110  -14.8250   19.7190 O   0  0  0  0  0  0  0  0  0  0  0  0
  -29.8300  -15.9650   19.8460 N   0  0  0  0  0  0  0  0  0  0  0  0
  -30.2900  -16.4600   19.0980 H   0  0  0  0  0  0  0  0  0  0  0  0
  -25.1110  -13.8980   20.4370 C   0  0  0  0  0  0  0  0  0  0  0  0
  -24.0750  -13.1030   20.8450 C   0  0  0  0  0  0  0  0  0  0  0  0
  -24.5540  -11.7590   20.7670 C   0  0  0  0  0  0  0  0  0  0  0  0
  -26.1530  -13.0390   20.1320 N   0  0  0  0  0  0  0  0  0  0  0  0
  -25.8280  -11.7450   20.3940 N   0  0  0  0  0  0  0  0  0  0  0  0
  -23.8540  -10.4840   20.9690 C   0  0  0  0  0  0  0  0  0  0  0  0
  -24.3270   -9.5170   21.8850 C   0  0  0  0  0  3  0  0  0  0  0  0
  -23.6250   -8.3080   22.0770 C   0  0  0  0  0  3  0  0  0  0  0  0
  -22.4350   -8.0550   21.3520 C   0  0  0  0  0  0  0  0  0  0  0  0
  -21.9810   -9.0100   20.4260 C   0  0  0  0  0  3  0  0  0  0  0  0
  -22.6840  -10.2110   20.2320 C   0  0  0  0  0  3  0  0  0  0  0  0
  -21.7020   -6.8980   21.4540 O   0  0  0  0  0  0  0  0  0  0  0  0
  -21.6810   -6.1590   22.6100 C   0  0  0  0  0  0  0  0  0  0  0  0
  -21.2560   -6.7080   23.8390 C   0  0  0  0  0  3  0  0  0  0  0  0
  -21.1840   -5.8940   24.9860 C   0  0  0  0  0  3  0  0  0  0  0  0
  -21.5270   -4.5310   24.9060 C   0  0  0  0  0  0  0  0  0  0  0  0
  -21.9440   -3.9810   23.6820 C   0  0  0  0  0  3  0  0  0  0  0  0
  -22.0170   -4.7920   22.5360 C   0  0  0  0  0  0  0  0  0  0  0  0
  -22.4000   -4.2520   21.3540 F   0  0  0  0  0  0  0  0  0  0  0  0
  -21.4490   -3.7460   26.0060 F   0  0  0  0  0  0  0  0  0  0  0  0
  -22.6870  -13.5570   21.1920 C   0  0  0  0  0  0  0  0  0  0  0  0
  -22.0110  -12.8350   22.0770 N   0  0  0  0  0  0  0  0  0  0  0  0
  -22.2130  -14.5850   20.7110 O   0  0  0  0  0  0  0  0  0  0  0  0
  -22.4100  -12.0030   22.4870 H   0  0  0  0  0  0  0  0  0  0  0  0
  -21.0820  -13.1200   22.3530 H   0  0  0  0  0  0  0  0  0  0  0  0
  -25.2480  -15.2730   20.2750 N   0  0  0  0  0  0  0  0  0  0  0  0
  -24.4770  -15.9150   20.4300 H   0  0  0  0  0  0  0  0  0  0  0  0
  -26.0710  -15.7250   19.8970 H   0  0  0  0  0  0  0  0  0  0  0  0
  1  2  1  0
  3  4  1  0
  3  5  2  0
  4  1  2  0
  5 52  1  0
  5  6  1  0
  6  2  2  0
  6  7  1  0
  8  9  1  0
  8  4  1  0
 10 11  1  0
 10  9  2  0
 12 23  2  0
 13 11  1  0
 13 18  1  0
 14 22  1  0
 14 24  1  0
 15 21  1  0
 15 17  1  0
 16 22  1  0
 17 16  1  0
 18 17  2  0
 19 20  1  0
 19 13  2  0
 20 15  2  0
 21 14  1  0
 22 12  1  0
 24 26  2  0
 25 24  1  0
 27 25  1  0
 28 37  2  0
 28 33  1  0
 29 25  1  0
 29 33  1  0
 30 29  1  0
 31 32  1  0
 31 30  1  0
 32 28  1  0
 33 34  2  0
 34 35  1  0
 36 35  2  0
 37 36  1  0
 38 12  1  0
 38 43  1  0
 38 39  1  0
 39 42  1  1
 39 40  1  0
 41 39  1  0
 43 46  1  0
 44 48  1  0
 44 43  1  0
 45 44  2  0
 48 47  1  0
 50 51  1  0
 50 48  1  0
 50 49  1  0
 54 59  1  0
 55 56  1  0
 55 54  1  0
 57 56  1  0
 57 66  1  0
 57 58  1  0
 59 53  1  0
 59 58  1  0
 60 53  2  0
 61 53  1  0
 61 52  1  0
 62 61  1  0
 63 64  2  0
 64 83  1  0
 65 64  1  0
 65 68  1  0
 66 67  1  0
 66 63  1  0
 67 65  2  0
 68 69  1  0
 69 70  2  0
 71 74  1  0
 71 70  1  0
 72 71  2  0
 73 72  1  0
 73 68  2  0
 74 75  1  0
 75 76  1  0
 76 77  2  0
 78 77  1  0
 78 82  1  0
 79 78  2  0
 80 75  2  0
 80 79  1  0
 81 80  1  0
 83 84  1  0
 84 87  1  0
 84 86  1  0
 85 83  2  0
 88 89  1  0
 88 63  1  0
 90 88  1  0
M  ISO  4  10 101  11 101  53 100  61 100
M  END
>  <TORSDO>  (69) 
F 20

>  <SCORE>  (69) 
-13.450

>  <name>  (69) 
68

>  <ligand_id>  (69) 
68

>  <original_smiles>  (69) 
[H]c1c([H])c([H])c2c(c1[H])C([H])([H])C([H])([H])C([H])([H])C2([H])N([H])C(=O)C1([H])N(C(=O)C([H])(N([H])C(=O)C([H])(N([H])C([H])([H])[H])C([H])([H])[H])C(C([H])([H])[H])(C([H])([H])[H])C([H])([H])[H])C([H])([H])c2c([H])c(OC([H])([H])C([H])([H])C([H])([H])c3c([H])c([H])c(Cl)c(C([H])([H])N([H])C(=O)N4C([H])([H])C([H])([H])C([H])([H])C([H])(n5nc(-c6c([H])c([H])c(Oc7c([H])c([H])c(F)c([H])c7F)c([H])c6[H])c(C(=O)N([H])[H])c5N([H])[H])C4([H])[H])c3[H])c([H])c([H])c2C1([H])[H]

>  <smiles>  (69) 
[H]c1c([H])c([H])c2c(c1[H])C([H])([H])C([H])([H])C([H])([H])C2([H])N([H])C(=O)C1([H])N(C(=O)C([H])(N([H])C(=O)C([H])(N([H])C([H])([H])[H])C([H])([H])[H])C(C([H])([H])[H])(C([H])([H])[H])C([H])([H])[H])C([H])([H])c2c([H])c(OC([H])([H])C([H])([H])C([H])([H])c3c([H])c([H])c(Cl)c(C([H])([H])N([H])C(=O)N4C([H])([H])C([H])([H])C([H])([H])C([H])(n5nc(-c6c([H])c([H])c(Oc7c([H])c([H])c(F)c([H])c7F)c([H])c6[H])c(C(=O)N([H])[H])c5N([H])[H])C4([H])[H])c3[H])c([H])c([H])c2C1([H])[H]

$$$$
69:0:0
     RDKit          3D

 92 89  0  0  1  0  0  0  0  0999 V2000
  -25.8680  -28.8570   20.3430 C   0  0  0  0  0  2  0  0  0  0  0  0
  -24.7730  -25.7540   21.8100 C   0  0  0  0  0  2  0  0  0  0  0  0
  -24.4480  -27.5890   21.7230 C   0  0  0  0  0  3  0  0  0  0  0  0
  -27.0710  -28.4510   19.5040 C   0  0  0  0  0  3  0  0  0  0  0  0
  -26.0230  -24.8920   20.9040 C   0  0  0  0  0  2  0  0  0  0  0  0
  -27.4200  -26.9450   19.4360 C   0  0  0  0  0  2  0  0  0  0  0  0
  -27.9110  -29.5720   18.8670 C   0  0  0  0  0  1  0  0  0  0  0  0
  -28.8210  -26.9080   18.6580 C   0  0  0  0  0  1  0  0  0  0  0  0
  -22.2270  -28.8650   21.8550 C   0  0  0  0  0 15  0  0  0  0  0  0
  -21.8950  -28.5080   19.2470 C   0  0  0  0  0 15  0  0  0  0  0  0
  -22.1550  -26.3700   18.5050 C   0  0  0  0  0 15  0  0  0  0  0  0
  -23.2490  -24.4960   18.4770 C   0  0  0  0  0 15  0  0  0  0  0  0
  -24.9350  -23.5840   17.7830 O   0  0  0  0  0  0  0  0  0  0  0  0
  -25.8260  -29.0290   23.5640 C   0  0  0  0  0  0  0  0  0  0  0  0
  -26.6130  -23.5430   18.0210 C   0  0  0  0  0  2  0  0  0  0  0  0
  -24.2550  -28.1710   20.7680 C   0  0  0  0  0  3  0  0  0  0  0  0
  -25.0710  -26.0300   19.3910 C   0  0  0  0  0  2  0  0  0  0  0  0
  -27.1430  -26.8060   22.3200 C   0  0  0  0  0 15  0  0  0  0  0  0
  -26.8420  -25.3370   20.7650 C   0  0  0  0  0  2  0  0  0  0  0  0
  -27.6420  -23.9030   19.8140 C   0  0  0  0  0  1  0  0  0  0  0  0
  -25.5910  -24.5690   17.2770 C   0  0  0  0  0  3  0  0  0  0  0  0
  -24.9260  -25.8450   17.8840 C   0  0  0  0  0  2  0  0  0  0  0  0
  -24.3640  -27.5850   19.3240 C   0  0  0  0  0  2  0  0  0  0  0  0
  -25.8000  -28.3460   22.3450 N   0  0  0  0  0  2  0  0  0  0  0  0
  -24.8950  -29.6610   24.1110 O   0  0  0  0  0  0  0  0  0  0  0  0
  -22.5900  -26.1820   21.6530 C   0  0  0  0  0  2  0  0  0  0  0  0
  -21.2570  -26.6750   21.8950 N   0  0  0  0  0  0  0  0  0  0  0  0
  -22.6950  -25.7020   22.8060 O   0  0  0  0  0  1  0  0  0  0  0  0
  -21.1190  -27.4640   21.2790 H   0  0  0  0  0  0  0  0  0  0  0  0
  -17.9040  -27.7110   21.9820 C   0  0  0  0  0  0  0  0  0  0  0  0
  -20.1030  -26.5490   22.6840 C   0  0  0  0  0  3  0  0  0  0  0  0
  -19.5670  -25.4260   21.8250 C   0  0  0  0  0  2  0  0  0  0  0  0
  -18.9750  -25.9480   20.5120 C   0  0  0  0  0  2  0  0  0  0  0  0
  -17.6960  -26.6710   20.8970 C   0  0  0  0  0  2  0  0  0  0  0  0
  -19.1000  -27.7640   22.7500 C   0  0  0  0  0  0  0  0  0  0  0  0
  -19.2320  -28.8480   23.6640 C   0  0  0  0  0  3  0  0  0  0  0  0
  -18.1780  -29.7790   23.8550 C   0  0  0  0  0  3  0  0  0  0  0  0
  -16.9700  -29.6400   23.1480 C   0  0  0  0  0  3  0  0  0  0  0  0
  -16.8430  -28.6060   22.2070 C   0  0  0  0  0  3  0  0  0  0  0  0
  -27.1350  -29.0150   24.3840 C   0  0  0  0  0  3  0  0  0  0  0  0
  -27.1840  -30.3360   25.0450 N   0  0  0  0  0  0  0  0  0  0  0  0
  -27.8010  -31.4280   24.5900 C   0  0  0  0  0  0  0  0  0  0  0  0
  -28.4230  -31.4470   23.5250 O   0  0  0  0  0  0  0  0  0  0  0  0
  -26.5920  -30.4320   25.8560 H   0  0  0  0  0  0  0  0  0  0  0  0
  -26.6890  -33.6700   24.9600 C   0  0  0  0  0  1  0  0  0  0  0  0
  -27.7480  -32.6880   25.4780 C   0  0  0  0  0  3  0  0  0  0  0  0
  -30.0530  -32.6130   26.3260 C   0  0  0  0  0  1  0  0  0  0  0  0
  -29.0500  -33.3770   25.5910 N   0  0  0  0  0  0  0  0  0  0  0  0
  -28.9410  -34.2800   26.0410 H   0  0  0  0  0  0  0  0  0  0  0  0
  -27.2720  -27.9070   25.5200 C   0  0  1  0  0  0  0  0  0  0  0  0
  -26.0370  -27.7930   26.4340 C   0  0  0  0  0  1  0  0  0  0  0  0
  -27.5660  -26.4450   25.1670 C   0  0  0  0  0  1  0  0  0  0  0  0
  -28.5390  -28.2650   26.3240 C   0  0  0  0  0  1  0  0  0  0  0  0
  -26.7950  -22.0380   20.8340 C   0  0  0  0  0 15  0  0  0  0  0  0
  -28.7000  -17.3620   20.3990 C   0  0  0  0  0  2  0  0  0  0  0  0
  -29.6830  -14.2200   19.5660 C   0  0  0  0  0  2  0  0  0  0  0  0
  -29.3530  -12.8830   18.5890 C   0  0  0  0  0  2  0  0  0  0  0  0
  -28.2820  -11.9140   19.0870 C   0  0  0  0  0  2  0  0  0  0  0  0
  -27.3730  -12.8570   19.8660 C   0  0  0  0  0  3  0  0  0  0  0  0
  -28.0180  -14.0740   20.8260 C   0  0  0  0  0  2  0  0  0  0  0  0
  -28.6230  -15.4960   20.1840 N   0  0  0  0  0  0  0  0  0  0  0  0
  -29.9740  -16.9480   20.3160 O   0  0  0  0  0  1  0  0  0  0  0  0
  -27.9020  -19.4770   20.5570 N   0  0  0  0  0  1  0  0  0  0  0  0
  -28.8500  -19.8300   20.5420 H   0  0  0  0  0  0  0  0  0  0  0  0
  -24.9560  -12.8930   20.3920 C   0  0  0  0  0  0  0  0  0  0  0  0
  -23.9870  -12.0140   20.7600 C   0  0  0  0  0  0  0  0  0  0  0  0
  -24.6130  -10.7310   20.8680 C   0  0  0  0  0  0  0  0  0  0  0  0
  -26.1340  -12.2020   20.3400 N   0  0  0  0  0  0  0  0  0  0  0  0
  -25.9390  -10.8630   20.6380 N   0  0  0  0  0  0  0  0  0  0  0  0
  -23.9650   -9.4160   21.1240 C   0  0  0  0  0  0  0  0  0  0  0  0
  -24.3510   -8.5710   22.1910 C   0  0  0  0  0  3  0  0  0  0  0  0
  -23.6650   -7.3590   22.4480 C   0  0  0  0  0  3  0  0  0  0  0  0
  -22.5710   -6.9700   21.6370 C   0  0  0  0  0  0  0  0  0  0  0  0
  -22.1910   -7.8020   20.5690 C   0  0  0  0  0  3  0  0  0  0  0  0
  -22.8810   -9.0040   20.3140 C   0  0  0  0  0  3  0  0  0  0  0  0
  -21.8700   -5.7940   21.7880 O   0  0  0  0  0  0  0  0  0  0  0  0
  -21.7200   -5.1890   23.0120 C   0  0  0  0  0  0  0  0  0  0  0  0
  -21.0380   -5.8210   24.0750 C   0  0  0  0  0  3  0  0  0  0  0  0
  -20.8430   -5.1390   25.2940 C   0  0  0  0  0  3  0  0  0  0  0  0
  -21.3210   -3.8250   25.4510 C   0  0  0  0  0  0  0  0  0  0  0  0
  -21.9930   -3.1890   24.3920 C   0  0  0  0  0  3  0  0  0  0  0  0
  -22.1870   -3.8680   23.1760 C   0  0  0  0  0  0  0  0  0  0  0  0
  -22.8160   -3.2400   22.1530 F   0  0  0  0  0  0  0  0  0  0  0  0
  -21.1310   -3.1690   26.6200 F   0  0  0  0  0  0  0  0  0  0  0  0
  -22.5390  -12.3700   20.8970 C   0  0  0  0  0  0  0  0  0  0  0  0
  -21.8260  -11.7120   21.7990 N   0  0  0  0  0  0  0  0  0  0  0  0
  -22.0510  -13.2950   20.2470 O   0  0  0  0  0  0  0  0  0  0  0  0
  -22.2290  -10.9680   22.3500 H   0  0  0  0  0  0  0  0  0  0  0  0
  -20.8570  -11.9540   21.9440 H   0  0  0  0  0  0  0  0  0  0  0  0
  -24.9340  -14.2460   20.0620 N   0  0  0  0  0  0  0  0  0  0  0  0
  -24.0790  -14.7950   20.0250 H   0  0  0  0  0  0  0  0  0  0  0  0
  -25.7540  -14.7550   19.7600 H   0  0  0  0  0  0  0  0  0  0  0  0
  1 16  1  0
  3  2  1  0
  3 24  1  0
  4  7  1  0
  4  1  1  0
  5  2  1  0
  6  4  1  0
  8  6  1  0
 13 15  1  0
 14 25  2  0
 16 23  1  0
 16  3  1  0
 19  5  1  0
 20 19  1  0
 21 13  1  0
 21 22  1  0
 21 15  1  0
 22 17  1  0
 23 17  1  0
 24 14  1  0
 26 27  1  0
 26 28  1  0
 29 27  1  0
 30 39  2  0
 30 35  1  0
 31 27  1  0
 31 35  1  0
 32 31  1  0
 33 34  1  0
 33 32  1  0
 34 30  1  0
 35 36  2  0
 36 37  1  0
 38 37  2  0
 39 38  1  0
 40 14  1  0
 40 41  1  0
 40 50  1  0
 41 44  1  0
 42 41  1  0
 42 46  1  0
 43 42  2  0
 46 45  1  0
 46 48  1  0
 48 49  1  0
 48 47  1  0
 50 53  1  1
 50 51  1  0
 52 50  1  0
 56 61  1  0
 57 58  1  0
 57 56  1  0
 59 58  1  0
 59 68  1  0
 59 60  1  0
 61 55  1  0
 61 60  1  0
 62 55  1  0
 64 63  1  0
 65 66  2  0
 66 67  1  0
 66 85  1  0
 67 70  1  0
 68 65  1  0
 68 69  1  0
 69 67  2  0
 70 71  1  0
 71 72  2  0
 73 76  1  0
 73 72  1  0
 74 73  2  0
 75 74  1  0
 75 70  2  0
 76 77  1  0
 77 82  2  0
 77 78  1  0
 78 79  2  0
 79 80  1  0
 80 84  1  0
 81 80  2  0
 82 81  1  0
 83 82  1  0
 85 86  1  0
 86 89  1  0
 86 88  1  0
 87 85  2  0
 90 65  1  0
 91 90  1  0
 92 90  1  0
M  ISO  4  12 101  13 101  55 100  63 100
M  END
>  <TORSDO>  (70) 
F 21

>  <SCORE>  (70) 
-5.537

>  <name>  (70) 
69

>  <ligand_id>  (70) 
69

>  <original_smiles>  (70) 
[H]c1c([H])c([H])c2c(c1[H])C([H])([H])C([H])([H])C([H])([H])C2([H])N([H])C(=O)C1([H])N(C(=O)C([H])(N([H])C(=O)C([H])(N([H])C([H])([H])[H])C([H])([H])[H])C(C([H])([H])[H])(C([H])([H])[H])C([H])([H])[H])C([H])([H])c2c([H])c(OC([H])([H])C([H])([H])C([H])([H])C([H])([H])c3c([H])c(C([H])([H])[H])c(C([H])([H])[H])c(C([H])([H])N([H])C(=O)N4C([H])([H])C([H])([H])C([H])([H])C([H])(n5nc(-c6c([H])c([H])c(Oc7c([H])c([H])c(F)c([H])c7F)c([H])c6[H])c(C(=O)N([H])[H])c5N([H])[H])C4([H])[H])c3[H])c([H])c([H])c2C1([H])[H]

>  <smiles>  (70) 
[H]c1c([H])c([H])c2c(c1[H])C([H])([H])C([H])([H])C([H])([H])C2([H])N([H])C(=O)C1([H])N(C(=O)C([H])(N([H])C(=O)C([H])(N([H])C([H])([H])[H])C([H])([H])[H])C(C([H])([H])[H])(C([H])([H])[H])C([H])([H])[H])C([H])([H])c2c([H])c(OC([H])([H])C([H])([H])C([H])([H])C([H])([H])c3c([H])c(C([H])([H])[H])c(C([H])([H])[H])c(C([H])([H])N([H])C(=O)N4C([H])([H])C([H])([H])C([H])([H])C([H])(n5nc(-c6c([H])c([H])c(Oc7c([H])c([H])c(F)c([H])c7F)c([H])c6[H])c(C(=O)N([H])[H])c5N([H])[H])C4([H])[H])c3[H])c([H])c([H])c2C1([H])[H]

$$$$
70:0:0
     RDKit          3D

 95103  0  0  1  0  0  0  0  0999 V2000
  -27.5510  -21.4290   20.1570 C   0  0  0  0  0  3  0  0  0  0  0  0
  -28.6400  -23.5200   20.6870 C   0  0  0  0  0  3  0  0  0  0  0  0
  -27.5390  -22.8400   20.1360 C   0  0  0  0  0  0  0  0  0  0  0  0
  -28.6530  -20.7620   20.7210 C   0  0  0  0  0  0  0  0  0  0  0  0
  -29.7140  -21.5410   21.2380 C   0  0  0  0  0  0  0  0  0  0  0  0
  -29.7020  -22.8920   21.2260 N   0  0  0  0  0  0  0  0  0  0  0  0
  -28.6690  -19.0330   20.7440 Cl  0  0  0  0  0  0  0  0  0  0  0  0
  -26.3310  -23.6030   19.6140 C   0  0  0  0  0  2  0  0  0  0  0  0
  -26.5580  -24.4020   18.3040 C   0  0  0  0  0  2  0  0  0  0  0  0
  -27.7010  -25.4500   18.3290 C   0  0  0  0  0  2  0  0  0  0  0  0
  -27.4200  -26.6730   17.6330 O   0  0  0  0  0  0  0  0  0  0  0  0
  -25.7020  -30.3630   23.4840 C   0  0  0  0  0  0  0  0  0  0  0  0
  -26.5300  -27.5220   18.2490 C   0  0  0  0  0  0  0  0  0  0  0  0
  -23.9520  -30.2080   21.7480 C   0  0  0  0  0  3  0  0  0  0  0  0
  -24.7040  -29.2740   19.5050 C   0  0  0  0  0  0  0  0  0  0  0  0
  -26.4300  -30.0870   21.1150 C   0  0  0  0  0  2  0  0  0  0  0  0
  -26.0290  -29.2030   19.9550 C   0  0  0  0  0  0  0  0  0  0  0  0
  -26.9470  -28.3300   19.3290 C   0  0  0  0  0  3  0  0  0  0  0  0
  -25.2010  -27.6300   17.7930 C   0  0  0  0  0  3  0  0  0  0  0  0
  -24.2810  -28.4820   18.4280 C   0  0  0  0  0  3  0  0  0  0  0  0
  -23.7860  -30.2470   20.2080 C   0  0  0  0  0  2  0  0  0  0  0  0
  -25.3900  -30.2000   22.1680 N   0  0  0  0  0  0  0  0  0  0  0  0
  -24.8210  -30.5570   24.3340 O   0  0  0  0  0  0  0  0  0  0  0  0
  -23.1440  -29.0100   22.3000 C   0  0  0  0  0  0  0  0  0  0  0  0
  -21.8070  -29.1000   22.2120 N   0  0  0  0  0  0  0  0  0  0  0  0
  -23.7170  -28.0190   22.7640 O   0  0  0  0  0  0  0  0  0  0  0  0
  -21.4160  -29.9430   21.8120 H   0  0  0  0  0  0  0  0  0  0  0  0
  -18.3000  -28.2230   22.2100 C   0  0  0  0  0  0  0  0  0  0  0  0
  -20.8460  -28.0840   22.6370 C   0  0  0  0  0  3  0  0  0  0  0  0
  -20.8420  -26.8840   21.6620 C   0  0  0  0  0  2  0  0  0  0  0  0
  -19.7870  -27.0060   20.5600 C   0  0  0  0  0  2  0  0  0  0  0  0
  -18.3860  -27.1200   21.1680 C   0  0  0  0  0  2  0  0  0  0  0  0
  -19.4590  -28.6860   22.8900 C   0  0  0  0  0  0  0  0  0  0  0  0
  -19.3320  -29.7350   23.8260 C   0  0  0  0  0  3  0  0  0  0  0  0
  -18.0770  -30.3180   24.0870 C   0  0  0  0  0  3  0  0  0  0  0  0
  -16.9310  -29.8480   23.4230 C   0  0  0  0  0  3  0  0  0  0  0  0
  -17.0430  -28.8010   22.4900 C   0  0  0  0  0  3  0  0  0  0  0  0
  -27.1820  -30.3330   23.9830 C   0  0  0  0  0  3  0  0  0  0  0  0
  -27.6570  -28.9000   24.4390 C   0  0  1  0  0  0  0  0  0  0  0  0
  -26.7050  -28.2190   25.4500 C   0  0  0  0  0  1  0  0  0  0  0  0
  -27.8050  -27.9610   23.2190 C   0  0  0  0  0  1  0  0  0  0  0  0
  -29.0560  -28.9950   25.0940 C   0  0  0  0  0  1  0  0  0  0  0  0
  -27.2940  -31.2960   25.0860 N   0  0  0  0  0  0  0  0  0  0  0  0
  -27.9020  -32.4870   24.9970 C   0  0  0  0  0  0  0  0  0  0  0  0
  -28.5000  -32.8620   23.9850 O   0  0  0  0  0  0  0  0  0  0  0  0
  -26.7820  -31.0770   25.9260 H   0  0  0  0  0  0  0  0  0  0  0  0
  -26.8220  -34.5360   25.9800 C   0  0  0  0  0  1  0  0  0  0  0  0
  -27.8350  -33.4090   26.2300 C   0  0  0  0  0  3  0  0  0  0  0  0
  -30.0910  -33.0050   27.1130 C   0  0  0  0  0  1  0  0  0  0  0  0
  -29.1430  -33.9910   26.6000 N   0  0  0  0  0  0  0  0  0  0  0  0
  -29.0280  -34.7150   27.3030 H   0  0  0  0  0  0  0  0  0  0  0  0
  -30.9500  -20.9250   21.8830 C   0  0  0  0  0  2  0  0  0  0  0  0
  -32.2390  -21.0810   21.0460 C   0  0  0  0  0  2  0  0  0  0  0  0
  -33.0740  -19.7960   20.9200 C   0  0  0  0  0  2  0  0  0  0  0  0
  -32.6950  -18.8970   19.7250 C   0  0  0  0  0  2  0  0  0  0  0  0
  -32.8610  -17.3960   20.1210 C   0  0  0  0  0  2  0  0  0  0  0  0
  -33.6900  -16.2650   19.4340 C   0  0  0  0  0  2  0  0  0  0  0  0
  -33.6070  -13.7790   19.7530 C   0  0  0  0  0  0  0  0  0  0  0  0
  -33.0930  -11.3880   20.0730 C   0  0  0  0  0  2  0  0  0  0  0  0
  -32.1900  -10.8770   18.9330 C   0  0  0  0  0  2  0  0  0  0  0  0
  -30.7040  -11.1400   19.2480 C   0  0  0  0  0  2  0  0  0  0  0  0
  -30.4390  -12.6020   19.7010 C   0  0  0  0  0  3  0  0  0  0  0  0
  -31.4420  -13.0170   20.7980 C   0  0  0  0  0  2  0  0  0  0  0  0
  -32.8090  -12.8140   20.2730 N   0  0  0  0  0  0  0  0  0  0  0  0
  -34.6780  -13.5590   19.1770 O   0  0  0  0  0  0  0  0  0  0  0  0
  -33.1230  -15.0130   19.9040 N   0  0  0  0  0  0  0  0  0  0  0  0
  -32.2250  -15.0760   20.3590 H   0  0  0  0  0  0  0  0  0  0  0  0
  -28.3440  -13.9530   20.3400 C   0  0  0  0  0  0  0  0  0  0  0  0
  -27.0740  -13.5660   20.6710 C   0  0  0  0  0  0  0  0  0  0  0  0
  -27.0740  -12.1390   20.6330 C   0  0  0  0  0  0  0  0  0  0  0  0
  -29.0560  -12.7820   20.1320 N   0  0  0  0  0  0  0  0  0  0  0  0
  -28.2900  -11.6850   20.3580 N   0  0  0  0  0  0  0  0  0  0  0  0
  -25.9750  -11.1760   20.7860 C   0  0  0  0  0  0  0  0  0  0  0  0
  -26.0380  -10.1210   21.7240 C   0  0  0  0  0  3  0  0  0  0  0  0
  -24.9590   -9.2240   21.8650 C   0  0  0  0  0  3  0  0  0  0  0  0
  -23.8010   -9.3750   21.0680 C   0  0  0  0  0  0  0  0  0  0  0  0
  -23.7530  -10.4110   20.1180 C   0  0  0  0  0  3  0  0  0  0  0  0
  -24.8290  -11.3010   19.9750 C   0  0  0  0  0  3  0  0  0  0  0  0
  -22.7170   -8.5330   21.1170 O   0  0  0  0  0  0  0  0  0  0  0  0
  -22.3430   -7.9070   22.2790 C   0  0  0  0  0  0  0  0  0  0  0  0
  -22.0430   -8.6310   23.4530 C   0  0  0  0  0  3  0  0  0  0  0  0
  -21.5960   -7.9530   24.6040 C   0  0  0  0  0  3  0  0  0  0  0  0
  -21.4410   -6.5550   24.5820 C   0  0  0  0  0  0  0  0  0  0  0  0
  -21.7360   -5.8310   23.4130 C   0  0  0  0  0  3  0  0  0  0  0  0
  -22.1820   -6.5070   22.2640 C   0  0  0  0  0  0  0  0  0  0  0  0
  -22.4430   -5.8070   21.1330 F   0  0  0  0  0  0  0  0  0  0  0  0
  -21.0050   -5.9030   25.6850 F   0  0  0  0  0  0  0  0  0  0  0  0
  -25.8970  -14.4670   20.9190 C   0  0  0  0  0  0  0  0  0  0  0  0
  -24.9660  -14.0370   21.7630 N   0  0  0  0  0  0  0  0  0  0  0  0
  -25.8240  -15.5810   20.4010 O   0  0  0  0  0  0  0  0  0  0  0  0
  -25.0430  -13.1320   22.2020 H   0  0  0  0  0  0  0  0  0  0  0  0
  -24.1680  -14.6190   21.9720 H   0  0  0  0  0  0  0  0  0  0  0  0
  -28.9480  -15.1960   20.1840 N   0  0  0  0  0  0  0  0  0  0  0  0
  -28.4470  -16.0670   20.3090 H   0  0  0  0  0  0  0  0  0  0  0  0
  -29.9230  -15.3380   19.9510 H   0  0  0  0  0  0  0  0  0  0  0  0
  1  4  1  0
  2  6  2  0
  3  1  2  0
  3  2  1  0
  4  7  1  0
  4  5  2  0
  5 52  1  0
  6  5  1  0
  8  3  1  0
  9 10  1  0
  9  8  1  0
 11 13  1  0
 11 10  1  0
 12 23  2  0
 13 18  1  0
 14 22  1  0
 14 24  1  0
 15 17  1  0
 15 21  1  0
 16 22  1  0
 17 16  1  0
 18 17  2  0
 19 13  2  0
 19 20  1  0
 20 15  2  0
 21 14  1  0
 22 12  1  0
 24 26  2  0
 25 24  1  0
 27 25  1  0
 28 37  2  0
 28 33  1  0
 29 25  1  0
 29 33  1  0
 30 29  1  0
 31 32  1  0
 31 30  1  0
 32 28  1  0
 33 34  2  0
 34 35  1  0
 36 35  2  0
 37 36  1  0
 38 12  1  0
 38 39  1  0
 38 43  1  0
 39 42  1  1
 39 40  1  0
 41 39  1  0
 43 46  1  0
 44 43  1  0
 44 48  1  0
 45 44  2  0
 48 47  1  0
 48 50  1  0
 50 49  1  0
 50 51  1  0
 53 52  1  0
 54 53  1  0
 55 56  1  0
 55 54  1  0
 57 66  1  0
 57 56  1  0
 58 66  1  0
 58 64  1  0
 59 64  1  0
 60 61  1  0
 60 59  1  0
 62 61  1  0
 62 71  1  0
 62 63  1  0
 64 63  1  0
 65 58  2  0
 66 67  1  0
 68 69  2  0
 69 88  1  0
 70 69  1  0
 70 73  1  0
 71 68  1  0
 71 72  1  0
 72 70  2  0
 73 74  1  0
 74 75  2  0
 76 79  1  0
 76 75  1  0
 77 76  2  0
 78 77  1  0
 78 73  2  0
 79 80  1  0
 80 81  1  0
 81 82  2  0
 83 82  1  0
 83 87  1  0
 84 83  2  0
 85 80  2  0
 85 84  1  0
 86 85  1  0
 88 89  1  0
 89 92  1  0
 89 91  1  0
 90 88  2  0
 93 94  1  0
 93 68  1  0
 95 93  1  0
M  ISO  4  10 101  11 101  58 100  66 100
M  END
>  <TORSDO>  (71) 
F 25

>  <SCORE>  (71) 
-8.088

>  <name>  (71) 
70

>  <ligand_id>  (71) 
70

>  <original_smiles>  (71) 
[H]c1nc(C([H])([H])C([H])([H])C([H])([H])C([H])([H])C([H])([H])C([H])([H])N([H])C(=O)N2C([H])([H])C([H])([H])C([H])([H])C([H])(n3nc(-c4c([H])c([H])c(Oc5c([H])c([H])c(F)c([H])c5F)c([H])c4[H])c(C(=O)N([H])[H])c3N([H])[H])C2([H])[H])c(Cl)c([H])c1C([H])([H])C([H])([H])C([H])([H])Oc1c([H])c([H])c2c(c1[H])C([H])([H])N(C(=O)C([H])(N([H])C(=O)C([H])(N([H])C([H])([H])[H])C([H])([H])[H])C(C([H])([H])[H])(C([H])([H])[H])C([H])([H])[H])C([H])(C(=O)N([H])C1([H])c3c([H])c([H])c([H])c([H])c3C([H])([H])C([H])([H])C1([H])[H])C2([H])[H]

>  <smiles>  (71) 
[H]c1nc(C([H])([H])C([H])([H])C([H])([H])C([H])([H])C([H])([H])C([H])([H])N([H])C(=O)N2C([H])([H])C([H])([H])C([H])([H])C([H])(n3nc(-c4c([H])c([H])c(Oc5c([H])c([H])c(F)c([H])c5F)c([H])c4[H])c(C(=O)N([H])[H])c3N([H])[H])C2([H])[H])c(Cl)c([H])c1C([H])([H])C([H])([H])C([H])([H])Oc1c([H])c([H])c2c(c1[H])C([H])([H])N(C(=O)C([H])(N([H])C(=O)C([H])(N([H])C([H])([H])[H])C([H])([H])[H])C(C([H])([H])[H])(C([H])([H])[H])C([H])([H])[H])C([H])(C(=O)N([H])C1([H])c3c([H])c([H])c([H])c([H])c3C([H])([H])C([H])([H])C1([H])[H])C2([H])[H]

$$$$
71:0:0
     RDKit          3D

 89 97  0  0  1  0  0  0  0  0999 V2000
  -27.9760  -21.4720   20.6890 C   0  0  0  0  0  3  0  0  0  0  0  0
  -27.7030  -20.1320   21.0550 C   0  0  0  0  0  3  0  0  0  0  0  0
  -29.8390  -20.6290   19.4040 C   0  0  0  0  0  3  0  0  0  0  0  0
  -29.0810  -21.8220   19.8910 C   0  0  0  0  0  0  0  0  0  0  0  0
  -28.4900  -19.0260   20.6390 C   0  0  0  0  0  0  0  0  0  0  0  0
  -29.5710  -19.1930   19.7310 C   0  0  0  0  0  0  0  0  0  0  0  0
  -28.2000  -17.6760   21.2800 C   0  0  0  0  0  1  0  0  0  0  0  0
  -29.4110  -23.4420   19.6690 C   0  0  0  0  0  3  0  0  0  0  0  0
  -28.3910  -24.7680   19.9880 C   0  0  0  0  0  3  0  0  0  0  0  0
  -28.6860  -26.3110   19.8410 O   0  0  0  0  0  0  0  0  0  0  0  0
  -25.1000  -31.7650   23.3340 C   0  0  0  0  0  0  0  0  0  0  0  0
  -27.6450  -27.3170   19.8880 C   0  0  0  0  0  0  0  0  0  0  0  0
  -23.8920  -30.5330   21.5770 C   0  0  0  0  0  3  0  0  0  0  0  0
  -25.3340  -29.0910   20.0050 C   0  0  0  0  0  0  0  0  0  0  0  0
  -26.4500  -30.7940   21.4370 C   0  0  0  0  0  2  0  0  0  0  0  0
  -26.5160  -29.4680   20.6570 C   0  0  0  0  0  0  0  0  0  0  0  0
  -27.6730  -28.6020   20.5790 C   0  0  0  0  0  3  0  0  0  0  0  0
  -26.4420  -27.0600   19.1960 C   0  0  0  0  0  3  0  0  0  0  0  0
  -25.3140  -27.9080   19.2560 C   0  0  0  0  0  3  0  0  0  0  0  0
  -24.1080  -29.9880   20.1400 C   0  0  0  0  0  2  0  0  0  0  0  0
  -25.1660  -31.0500   22.1700 N   0  0  0  0  0  0  0  0  0  0  0  0
  -24.0160  -32.0020   23.8900 O   0  0  0  0  0  0  0  0  0  0  0  0
  -23.2120  -29.4410   22.4410 C   0  0  0  0  0  0  0  0  0  0  0  0
  -21.8850  -29.2800   22.2970 N   0  0  0  0  0  0  0  0  0  0  0  0
  -23.8830  -28.7420   23.2060 O   0  0  0  0  0  0  0  0  0  0  0  0
  -21.4000  -29.8870   21.6480 H   0  0  0  0  0  0  0  0  0  0  0  0
  -18.4950  -28.0830   22.7330 C   0  0  0  0  0  0  0  0  0  0  0  0
  -21.0630  -28.2790   22.9820 C   0  0  0  0  0  3  0  0  0  0  0  0
  -21.1320  -26.9150   22.2570 C   0  0  0  0  0  2  0  0  0  0  0  0
  -20.0080  -26.7160   21.2350 C   0  0  0  0  0  2  0  0  0  0  0  0
  -18.6390  -26.8130   21.9130 C   0  0  0  0  0  2  0  0  0  0  0  0
  -19.6320  -28.7810   23.2220 C   0  0  0  0  0  0  0  0  0  0  0  0
  -19.4400  -29.9740   23.9520 C   0  0  0  0  0  3  0  0  0  0  0  0
  -18.1460  -30.4710   24.1910 C   0  0  0  0  0  3  0  0  0  0  0  0
  -17.0240  -29.7700   23.7180 C   0  0  0  0  0  3  0  0  0  0  0  0
  -17.1990  -28.5760   22.9970 C   0  0  0  0  0  3  0  0  0  0  0  0
  -26.3810  -32.3350   24.0120 C   0  0  0  0  0  3  0  0  0  0  0  0
  -26.8820  -31.4570   25.2240 C   0  0  1  0  0  0  0  0  0  0  0  0
  -25.7730  -31.1280   26.2510 C   0  0  0  0  0  1  0  0  0  0  0  0
  -27.4730  -30.1180   24.7260 C   0  0  0  0  0  1  0  0  0  0  0  0
  -28.0260  -32.1900   25.9640 C   0  0  0  0  0  1  0  0  0  0  0  0
  -26.0780  -33.7040   24.4620 N   0  0  0  0  0  0  0  0  0  0  0  0
  -26.3890  -34.8160   23.7870 C   0  0  0  0  0  0  0  0  0  0  0  0
  -27.0290  -34.8010   22.7320 O   0  0  0  0  0  0  0  0  0  0  0  0
  -25.5060  -33.7900   25.2900 H   0  0  0  0  0  0  0  0  0  0  0  0
  -24.6390  -36.6180   23.6530 C   0  0  0  0  0  1  0  0  0  0  0  0
  -25.9180  -36.1630   24.3730 C   0  0  0  0  0  3  0  0  0  0  0  0
  -28.0780  -37.0020   25.1830 C   0  0  0  0  0  1  0  0  0  0  0  0
  -26.9400  -37.2290   24.2970 N   0  0  0  0  0  0  0  0  0  0  0  0
  -26.5350  -38.1330   24.5300 H   0  0  0  0  0  0  0  0  0  0  0  0
  -30.4680  -17.8800   19.2490 C   0  0  0  0  0  2  0  0  0  0  0  0
  -31.0590  -15.1940   19.4220 C   0  0  0  0  0  0  0  0  0  0  0  0
  -31.0340  -12.7620   18.6990 C   0  0  0  0  0  2  0  0  0  0  0  0
  -30.0000  -12.5300   17.5720 C   0  0  0  0  0  2  0  0  0  0  0  0
  -28.6020  -12.2590   18.1620 C   0  0  0  0  0  2  0  0  0  0  0  0
  -28.2290  -13.2640   19.2830 C   0  0  0  0  0  3  0  0  0  0  0  0
  -29.3740  -13.4610   20.2970 C   0  0  0  0  0  2  0  0  0  0  0  0
  -30.5510  -13.8980   19.5360 N   0  0  0  0  0  0  0  0  0  0  0  0
  -32.2190  -15.3060   19.0180 O   0  0  0  0  0  0  0  0  0  0  0  0
  -30.2270  -16.3410   19.5530 N   0  0  0  0  0  0  0  0  0  0  0  0
  -29.2810  -16.1240   19.8220 H   0  0  0  0  0  0  0  0  0  0  0  0
  -25.9770  -13.7640   20.3950 C   0  0  0  0  0  0  0  0  0  0  0  0
  -24.9690  -12.9550   20.8400 C   0  0  0  0  0  0  0  0  0  0  0  0
  -25.4180  -11.6160   20.6310 C   0  0  0  0  0  0  0  0  0  0  0  0
  -26.9710  -12.9180   19.9330 N   0  0  0  0  0  0  0  0  0  0  0  0
  -26.6510  -11.6140   20.1410 N   0  0  0  0  0  0  0  0  0  0  0  0
  -24.7180  -10.3380   20.8080 C   0  0  0  0  0  0  0  0  0  0  0  0
  -25.1270   -9.3950   21.7770 C   0  0  0  0  0  3  0  0  0  0  0  0
  -24.4160   -8.1850   21.9420 C   0  0  0  0  0  3  0  0  0  0  0  0
  -23.2830   -7.9100   21.1390 C   0  0  0  0  0  0  0  0  0  0  0  0
  -22.8980   -8.8410   20.1590 C   0  0  0  0  0  3  0  0  0  0  0  0
  -23.6100  -10.0410   19.9920 C   0  0  0  0  0  3  0  0  0  0  0  0
  -22.5550   -6.7460   21.2070 O   0  0  0  0  0  0  0  0  0  0  0  0
  -22.2580   -6.1540   22.4090 C   0  0  0  0  0  0  0  0  0  0  0  0
  -21.5530   -6.8370   23.4250 C   0  0  0  0  0  3  0  0  0  0  0  0
  -21.2080   -6.1670   24.6170 C   0  0  0  0  0  3  0  0  0  0  0  0
  -21.5610   -4.8150   24.7910 C   0  0  0  0  0  0  0  0  0  0  0  0
  -22.2620   -4.1330   23.7810 C   0  0  0  0  0  3  0  0  0  0  0  0
  -22.6060   -4.8010   22.5930 C   0  0  0  0  0  0  0  0  0  0  0  0
  -23.2630   -4.1330   21.6110 F   0  0  0  0  0  0  0  0  0  0  0  0
  -21.2270   -4.1680   25.9350 F   0  0  0  0  0  0  0  0  0  0  0  0
  -23.6240  -13.4020   21.3350 C   0  0  0  0  0  0  0  0  0  0  0  0
  -23.0320  -12.6540   22.2620 N   0  0  0  0  0  0  0  0  0  0  0  0
  -23.1090  -14.4490   20.9390 O   0  0  0  0  0  0  0  0  0  0  0  0
  -23.4600  -11.8100   22.6130 H   0  0  0  0  0  0  0  0  0  0  0  0
  -22.1350  -12.9350   22.6310 H   0  0  0  0  0  0  0  0  0  0  0  0
  -26.1210  -15.1470   20.3170 N   0  0  0  0  0  0  0  0  0  0  0  0
  -25.3840  -15.7780   20.6100 H   0  0  0  0  0  0  0  0  0  0  0  0
  -26.8830  -15.6260   19.8570 H   0  0  0  0  0  0  0  0  0  0  0  0
  1  2  1  0
  3  6  2  0
  3  4  1  0
  4  1  2  0
  5  2  2  0
  5  7  1  0
  6  5  1  0
  8  4  1  0
  8  9  2  0
 10 12  1  0
 10  9  1  0
 11 22  2  0
 12 17  1  0
 13 21  1  0
 13 23  1  0
 14 20  1  0
 14 16  1  0
 15 21  1  0
 16 15  1  0
 17 16  2  0
 18 19  1  0
 18 12  2  0
 19 14  2  0
 20 13  1  0
 21 11  1  0
 23 25  2  0
 24 23  1  0
 26 24  1  0
 27 36  2  0
 27 32  1  0
 28 24  1  0
 28 32  1  0
 29 28  1  0
 30 31  1  0
 30 29  1  0
 31 27  1  0
 32 33  2  0
 33 34  1  0
 35 34  2  0
 36 35  1  0
 37 11  1  0
 37 42  1  0
 37 38  1  0
 38 41  1  1
 38 39  1  0
 40 38  1  0
 42 45  1  0
 43 47  1  0
 43 42  1  0
 44 43  2  0
 47 46  1  0
 49 47  1  0
 49 50  1  0
 49 48  1  0
 51 60  1  0
 51  6  1  0
 52 58  1  0
 52 60  1  0
 53 58  1  0
 54 55  1  0
 54 53  1  0
 56 55  1  0
 56 65  1  0
 56 57  1  0
 58 57  1  0
 59 52  2  0
 60 61  1  0
 62 63  2  0
 63 82  1  0
 64 67  1  0
 64 63  1  0
 65 66  1  0
 65 62  1  0
 66 64  2  0
 67 68  1  0
 68 69  2  0
 70 73  1  0
 70 69  1  0
 71 70  2  0
 72 71  1  0
 72 67  2  0
 73 74  1  0
 74 79  2  0
 74 75  1  0
 75 76  2  0
 76 77  1  0
 77 81  1  0
 78 77  2  0
 79 78  1  0
 80 79  1  0
 82 83  1  0
 83 85  1  0
 83 86  1  0
 84 82  2  0
 87 62  1  0
 87 88  1  0
 89 87  1  0
M  ISO  4   9 101  10 101  52 100  60 100
M  END
>  <TORSDO>  (72) 
F 19

>  <SCORE>  (72) 
-10.101

>  <name>  (72) 
71

>  <ligand_id>  (72) 
71

>  <original_smiles>  (72) 
[H]c1c([H])c([H])c2c(c1[H])C([H])([H])C([H])([H])C([H])([H])C2([H])N([H])C(=O)C1([H])N(C(=O)C([H])(N([H])C(=O)C([H])(N([H])C([H])([H])[H])C([H])([H])[H])C(C([H])([H])[H])(C([H])([H])[H])C([H])([H])[H])C([H])([H])c2c([H])c(OC([H])([H])C([H])([H])c3c([H])c([H])c(C([H])([H])[H])c(C([H])([H])N([H])C(=O)N4C([H])([H])C([H])([H])C([H])([H])C([H])(n5nc(-c6c([H])c([H])c(Oc7c([H])c([H])c(F)c([H])c7F)c([H])c6[H])c(C(=O)N([H])[H])c5N([H])[H])C4([H])[H])c3[H])c([H])c([H])c2C1([H])[H]

>  <smiles>  (72) 
[H]c1c([H])c([H])c2c(c1[H])C([H])([H])C([H])([H])C([H])([H])C2([H])N([H])C(=O)C1([H])N(C(=O)C([H])(N([H])C(=O)C([H])(N([H])C([H])([H])[H])C([H])([H])[H])C(C([H])([H])[H])(C([H])([H])[H])C([H])([H])[H])C([H])([H])c2c([H])c(OC([H])([H])C([H])([H])c3c([H])c([H])c(C([H])([H])[H])c(C([H])([H])N([H])C(=O)N4C([H])([H])C([H])([H])C([H])([H])C([H])(n5nc(-c6c([H])c([H])c(Oc7c([H])c([H])c(F)c([H])c7F)c([H])c6[H])c(C(=O)N([H])[H])c5N([H])[H])C4([H])[H])c3[H])c([H])c([H])c2C1([H])[H]

$$$$
72:0:0
     RDKit          3D

 93102  0  0  1  0  0  0  0  0999 V2000
  -30.0300  -20.3300   20.7470 C   0  0  0  0  0  3  0  0  0  0  0  0
  -28.3170  -19.4670   19.3750 C   0  0  0  0  0  3  0  0  0  0  0  0
  -29.4940  -21.6910   20.6610 C   0  0  0  0  0  0  0  0  0  0  0  0
  -28.3520  -21.9870   19.8680 C   0  0  0  0  0  0  0  0  0  0  0  0
  -29.4930  -19.1410   20.1190 C   0  0  0  0  0  0  0  0  0  0  0  0
  -27.7760  -20.8140   19.2490 C   0  0  0  0  0  0  0  0  0  0  0  0
  -27.7660  -23.5040   19.7190 C   0  0  0  0  0  2  0  0  0  0  0  0
  -29.3610  -24.2470   21.4400 C   0  0  0  0  0  2  0  0  0  0  0  0
  -28.6790  -24.7830   20.1440 C   0  0  0  0  0  3  0  0  0  0  0  0
  -30.1620  -22.8720   21.4150 C   0  0  1  0  0  0  0  0  0  0  0  0
  -26.5190  -20.9870   18.4090 C   0  0  0  0  0  1  0  0  0  0  0  0
  -30.3620  -22.4700   22.8950 C   0  0  0  0  0  1  0  0  0  0  0  0
  -31.5380  -23.1350   20.7800 C   0  0  0  0  0  1  0  0  0  0  0  0
  -28.4140  -26.3170   20.3480 O   0  0  0  0  0  0  0  0  0  0  0  0
  -24.5950  -31.8420   23.2220 C   0  0  0  0  0  0  0  0  0  0  0  0
  -27.2870  -27.1950   20.2170 C   0  0  0  0  0  0  0  0  0  0  0  0
  -23.4500  -30.4610   21.5280 C   0  0  0  0  0  3  0  0  0  0  0  0
  -24.9430  -28.9050   20.1230 C   0  0  0  0  0  0  0  0  0  0  0  0
  -25.9980  -30.7510   21.4330 C   0  0  0  0  0  2  0  0  0  0  0  0
  -26.0950  -29.3680   20.7680 C   0  0  0  0  0  0  0  0  0  0  0  0
  -27.2650  -28.5290   20.7890 C   0  0  0  0  0  3  0  0  0  0  0  0
  -26.1140  -26.8170   19.5340 C   0  0  0  0  0  3  0  0  0  0  0  0
  -24.9640  -27.6450   19.4920 C   0  0  0  0  0  3  0  0  0  0  0  0
  -23.7110  -29.7960   20.1470 C   0  0  0  0  0  2  0  0  0  0  0  0
  -24.6990  -31.0410   22.1180 N   0  0  0  0  0  0  0  0  0  0  0  0
  -23.4940  -32.1110   23.7270 O   0  0  0  0  0  0  0  0  0  0  0  0
  -22.7500  -29.4410   22.4590 C   0  0  0  0  0  0  0  0  0  0  0  0
  -21.4230  -29.2860   22.3130 N   0  0  0  0  0  0  0  0  0  0  0  0
  -23.4050  -28.7900   23.2780 O   0  0  0  0  0  0  0  0  0  0  0  0
  -20.9480  -29.8620   21.6310 H   0  0  0  0  0  0  0  0  0  0  0  0
  -18.0170  -28.1480   22.7880 C   0  0  0  0  0  0  0  0  0  0  0  0
  -20.5840  -28.3350   23.0490 C   0  0  0  0  0  3  0  0  0  0  0  0
  -20.6470  -26.9270   22.4120 C   0  0  0  0  0  2  0  0  0  0  0  0
  -19.5330  -26.6760   21.3910 C   0  0  0  0  0  2  0  0  0  0  0  0
  -18.1580  -26.8250   22.0510 C   0  0  0  0  0  2  0  0  0  0  0  0
  -19.1570  -28.8640   23.2430 C   0  0  0  0  0  0  0  0  0  0  0  0
  -18.9720  -30.1030   23.8930 C   0  0  0  0  0  3  0  0  0  0  0  0
  -17.6810  -30.6270   24.0920 C   0  0  0  0  0  3  0  0  0  0  0  0
  -16.5560  -29.9070   23.6560 C   0  0  0  0  0  3  0  0  0  0  0  0
  -16.7240  -28.6700   23.0080 C   0  0  0  0  0  3  0  0  0  0  0  0
  -25.8500  -32.4770   23.8940 C   0  0  0  0  0  3  0  0  0  0  0  0
  -25.5330  -33.8780   24.2100 N   0  0  0  0  0  0  0  0  0  0  0  0
  -25.8720  -34.9300   23.4540 C   0  0  0  0  0  0  0  0  0  0  0  0
  -26.5540  -34.8230   22.4320 O   0  0  0  0  0  0  0  0  0  0  0  0
  -24.9300  -34.0340   25.0050 H   0  0  0  0  0  0  0  0  0  0  0  0
  -24.1340  -36.7130   23.0960 C   0  0  0  0  0  1  0  0  0  0  0  0
  -25.3820  -36.3220   23.9020 C   0  0  0  0  0  3  0  0  0  0  0  0
  -27.5100  -37.2360   24.7190 C   0  0  0  0  0  1  0  0  0  0  0  0
  -26.4080  -37.3790   23.7720 N   0  0  0  0  0  0  0  0  0  0  0  0
  -25.9960  -38.2990   23.9020 H   0  0  0  0  0  0  0  0  0  0  0  0
  -26.3080  -31.7130   25.1990 C   0  0  1  0  0  0  0  0  0  0  0  0
  -25.1700  -31.4870   26.2220 C   0  0  0  0  0  1  0  0  0  0  0  0
  -26.9030  -30.3310   24.8450 C   0  0  0  0  0  1  0  0  0  0  0  0
  -27.4320  -32.5060   25.9060 C   0  0  0  0  0  1  0  0  0  0  0  0
  -30.2940  -17.6870   20.1800 C   0  0  0  0  0  2  0  0  0  0  0  0
  -30.5670  -14.9980   20.0600 C   0  0  0  0  0  0  0  0  0  0  0  0
  -30.3820  -12.6790   19.0650 C   0  0  0  0  0  2  0  0  0  0  0  0
  -29.3980  -12.6860   17.8740 C   0  0  0  0  0  2  0  0  0  0  0  0
  -27.9520  -12.4810   18.3670 C   0  0  0  0  0  2  0  0  0  0  0  0
  -27.6130  -13.3710   19.5930 C   0  0  0  0  0  3  0  0  0  0  0  0
  -28.7160  -13.3330   20.6670 C   0  0  0  0  0  2  0  0  0  0  0  0
  -29.9560  -13.7490   20.0090 N   0  0  0  0  0  0  0  0  0  0  0  0
  -31.7600  -15.0520   19.7450 O   0  0  0  0  0  0  0  0  0  0  0  0
  -29.8140  -16.1900   20.2550 N   0  0  0  0  0  0  0  0  0  0  0  0
  -28.8310  -16.0540   20.4360 H   0  0  0  0  0  0  0  0  0  0  0  0
  -25.2770  -13.9430   20.4600 C   0  0  0  0  0  0  0  0  0  0  0  0
  -24.2300  -13.1640   20.8650 C   0  0  0  0  0  0  0  0  0  0  0  0
  -24.6870  -11.8110   20.7840 C   0  0  0  0  0  0  0  0  0  0  0  0
  -26.3020  -13.0670   20.1470 N   0  0  0  0  0  0  0  0  0  0  0  0
  -25.9610  -11.7790   20.4090 N   0  0  0  0  0  0  0  0  0  0  0  0
  -23.9660  -10.5480   20.9810 C   0  0  0  0  0  0  0  0  0  0  0  0
  -24.4120   -9.5780   21.9060 C   0  0  0  0  0  3  0  0  0  0  0  0
  -23.6900   -8.3810   22.0920 C   0  0  0  0  0  3  0  0  0  0  0  0
  -22.5080   -8.1440   21.3510 C   0  0  0  0  0  0  0  0  0  0  0  0
  -22.0810   -9.1020   20.4150 C   0  0  0  0  0  3  0  0  0  0  0  0
  -22.8030  -10.2910   20.2270 C   0  0  0  0  0  3  0  0  0  0  0  0
  -21.7540   -6.9990   21.4480 O   0  0  0  0  0  0  0  0  0  0  0  0
  -21.6950   -6.2720   22.6090 C   0  0  0  0  0  0  0  0  0  0  0  0
  -21.2190   -6.8340   23.8160 C   0  0  0  0  0  3  0  0  0  0  0  0
  -21.1100   -6.0320   24.9690 C   0  0  0  0  0  3  0  0  0  0  0  0
  -21.4600   -4.6700   24.9170 C   0  0  0  0  0  0  0  0  0  0  0  0
  -21.9290   -4.1090   23.7160 C   0  0  0  0  0  3  0  0  0  0  0  0
  -22.0420   -4.9070   22.5640 C   0  0  0  0  0  0  0  0  0  0  0  0
  -22.4730   -4.3560   21.4040 F   0  0  0  0  0  0  0  0  0  0  0  0
  -21.3480   -3.8970   26.0220 F   0  0  0  0  0  0  0  0  0  0  0  0
  -22.8490  -13.6390   21.2120 C   0  0  0  0  0  0  0  0  0  0  0  0
  -22.1590  -12.9320   22.0990 N   0  0  0  0  0  0  0  0  0  0  0  0
  -22.3920  -14.6760   20.7290 O   0  0  0  0  0  0  0  0  0  0  0  0
  -22.5460  -12.0950   22.5100 H   0  0  0  0  0  0  0  0  0  0  0  0
  -21.2340  -13.2340   22.3680 H   0  0  0  0  0  0  0  0  0  0  0  0
  -25.4350  -15.3170   20.3060 N   0  0  0  0  0  0  0  0  0  0  0  0
  -24.6690  -15.9620   20.4580 H   0  0  0  0  0  0  0  0  0  0  0  0
  -26.2470  -15.7590   19.9020 H   0  0  0  0  0  0  0  0  0  0  0  0
  2  5  1  0
  3  1  1  0
  3 10  1  0
  4  3  2  0
  5 55  1  0
  5  1  2  0
  6  2  2  0
  6  4  1  0
  7  4  1  0
  7  9  1  0
  9 14  1  0
  9  8  1  0
 10  8  1  0
 10 12  1  1
 11  6  1  0
 13 10  1  0
 15 26  2  0
 16 14  1  0
 16 21  1  0
 17 25  1  0
 17 27  1  0
 18 24  1  0
 18 20  1  0
 19 25  1  0
 20 21  2  0
 20 19  1  0
 22 16  2  0
 23 22  1  0
 23 18  2  0
 24 17  1  0
 25 15  1  0
 27 29  2  0
 28 27  1  0
 30 28  1  0
 31 40  2  0
 31 36  1  0
 32 28  1  0
 32 36  1  0
 33 32  1  0
 34 35  1  0
 34 33  1  0
 35 31  1  0
 36 37  2  0
 37 38  1  0
 39 38  2  0
 40 39  1  0
 41 15  1  0
 41 42  1  0
 41 51  1  0
 42 45  1  0
 43 47  1  0
 43 42  1  0
 44 43  2  0
 47 46  1  0
 49 47  1  0
 49 50  1  0
 49 48  1  0
 51 54  1  1
 51 52  1  0
 53 51  1  0
 55 64  1  0
 56 64  1  0
 57 62  1  0
 58 59  1  0
 58 57  1  0
 60 59  1  0
 60 69  1  0
 60 61  1  0
 62 56  1  0
 62 61  1  0
 63 56  2  0
 64 65  1  0
 66 67  2  0
 67 86  1  0
 68 67  1  0
 68 71  1  0
 69 70  1  0
 69 66  1  0
 70 68  2  0
 71 72  1  0
 72 73  2  0
 74 77  1  0
 74 73  1  0
 75 74  2  0
 76 75  1  0
 76 71  2  0
 77 78  1  0
 78 79  1  0
 79 80  2  0
 81 80  1  0
 81 85  1  0
 82 81  2  0
 83 78  2  0
 83 82  1  0
 84 83  1  0
 86 87  1  0
 87 90  1  0
 87 89  1  0
 88 86  2  0
 91 92  1  0
 91 66  1  0
 93 91  1  0
M  ISO  4   9 101  14 101  56 100  64 100
M  END
>  <TORSDO>  (73) 
F 17

>  <SCORE>  (73) 
-15.483

>  <name>  (73) 
72

>  <ligand_id>  (73) 
72

>  <original_smiles>  (73) 
[H]c1c([H])c([H])c2c(c1[H])C([H])([H])C([H])([H])C([H])([H])C2([H])N([H])C(=O)C1([H])N(C(=O)C([H])(N([H])C(=O)C([H])(N([H])C([H])([H])[H])C([H])([H])[H])C(C([H])([H])[H])(C([H])([H])[H])C([H])([H])[H])C([H])([H])c2c([H])c(OC3([H])C([H])([H])c4c(C([H])([H])[H])c([H])c(C([H])([H])N([H])C(=O)N5C([H])([H])C([H])([H])C([H])([H])C([H])(n6nc(-c7c([H])c([H])c(Oc8c([H])c([H])c(F)c([H])c8F)c([H])c7[H])c(C(=O)N([H])[H])c6N([H])[H])C5([H])[H])c([H])c4C(C([H])([H])[H])(C([H])([H])[H])C3([H])[H])c([H])c([H])c2C1([H])[H]

>  <smiles>  (73) 
[H]c1c([H])c([H])c2c(c1[H])C([H])([H])C([H])([H])C([H])([H])C2([H])N([H])C(=O)C1([H])N(C(=O)C([H])(N([H])C(=O)C([H])(N([H])C([H])([H])[H])C([H])([H])[H])C(C([H])([H])[H])(C([H])([H])[H])C([H])([H])[H])C([H])([H])c2c([H])c(OC3([H])C([H])([H])c4c(C([H])([H])[H])c([H])c(C([H])([H])N([H])C(=O)N5C([H])([H])C([H])([H])C([H])([H])C([H])(n6nc(-c7c([H])c([H])c(Oc8c([H])c([H])c(F)c([H])c8F)c([H])c7[H])c(C(=O)N([H])[H])c6N([H])[H])C5([H])[H])c([H])c4C(C([H])([H])[H])(C([H])([H])[H])C3([H])[H])c([H])c([H])c2C1([H])[H]

$$$$
73:0:0
     RDKit          3D

 91 99  0  0  1  0  0  0  0  0999 V2000
  -28.2100  -20.2240   21.3030 C   0  0  0  0  0  3  0  0  0  0  0  0
  -28.3480  -21.5480   20.8110 C   0  0  0  0  0  0  0  0  0  0  0  0
  -29.8190  -20.6160   19.1340 C   0  0  0  0  0  0  0  0  0  0  0  0
  -29.1040  -21.8330   19.6400 C   0  0  0  0  0  0  0  0  0  0  0  0
  -29.6720  -19.1990   19.6100 C   0  0  0  0  0  0  0  0  0  0  0  0
  -28.8060  -19.0830   20.7240 C   0  0  0  0  0  0  0  0  0  0  0  0
  -27.7460  -22.6530   21.6630 C   0  0  0  0  0  1  0  0  0  0  0  0
  -30.9320  -20.8800   18.1450 C   0  0  0  0  0  1  0  0  0  0  0  0
  -28.4970  -17.5590   21.4780 Cl  0  0  0  0  0  0  0  0  0  0  0  0
  -29.2760  -23.4280   19.1280 C   0  0  0  0  0  3  0  0  0  0  0  0
  -28.1840  -24.7470   19.2340 C   0  0  0  0  0  3  0  0  0  0  0  0
  -28.4380  -26.2910   19.0590 O   0  0  0  0  0  0  0  0  0  0  0  0
  -25.0120  -31.4560   23.0850 C   0  0  0  0  0  0  0  0  0  0  0  0
  -27.3950  -27.2870   19.2140 C   0  0  0  0  0  0  0  0  0  0  0  0
  -23.7230  -30.3700   21.2840 C   0  0  0  0  0  3  0  0  0  0  0  0
  -25.0970  -29.0470   19.5560 C   0  0  0  0  0  0  0  0  0  0  0  0
  -26.2730  -30.6430   21.0600 C   0  0  0  0  0  2  0  0  0  0  0  0
  -26.3040  -29.3770   20.1820 C   0  0  0  0  0  0  0  0  0  0  0  0
  -27.4570  -28.5170   19.9930 C   0  0  0  0  0  3  0  0  0  0  0  0
  -26.1600  -27.0700   18.5640 C   0  0  0  0  0  3  0  0  0  0  0  0
  -25.0380  -27.9150   18.7320 C   0  0  0  0  0  3  0  0  0  0  0  0
  -23.8800  -29.9300   19.8000 C   0  0  0  0  0  2  0  0  0  0  0  0
  -25.0240  -30.8340   21.8660 N   0  0  0  0  0  0  0  0  0  0  0  0
  -23.9560  -31.6530   23.7060 O   0  0  0  0  0  0  0  0  0  0  0  0
  -23.0700  -29.2230   22.0930 C   0  0  0  0  0  0  0  0  0  0  0  0
  -21.7370  -29.0700   21.9830 N   0  0  0  0  0  0  0  0  0  0  0  0
  -23.7640  -28.4730   22.7840 O   0  0  0  0  0  0  0  0  0  0  0  0
  -21.2360  -29.6910   21.3620 H   0  0  0  0  0  0  0  0  0  0  0  0
  -18.3690  -27.8290   22.4500 C   0  0  0  0  0  0  0  0  0  0  0  0
  -20.9400  -28.0240   22.6320 C   0  0  0  0  0  3  0  0  0  0  0  0
  -20.9980  -26.7070   21.8210 C   0  0  0  0  0  2  0  0  0  0  0  0
  -19.8500  -26.5660   20.8200 C   0  0  0  0  0  2  0  0  0  0  0  0
  -18.4980  -26.6200   21.5420 C   0  0  0  0  0  2  0  0  0  0  0  0
  -19.5160  -28.4970   22.9520 C   0  0  0  0  0  0  0  0  0  0  0  0
  -19.3380  -29.6370   23.7630 C   0  0  0  0  0  3  0  0  0  0  0  0
  -18.0530  -30.1060   24.0800 C   0  0  0  0  0  3  0  0  0  0  0  0
  -16.9180  -29.4340   23.5900 C   0  0  0  0  0  3  0  0  0  0  0  0
  -17.0770  -28.2970   22.7770 C   0  0  0  0  0  3  0  0  0  0  0  0
  -26.3280  -31.9640   23.7500 C   0  0  0  0  0  3  0  0  0  0  0  0
  -26.8550  -31.0110   24.8930 C   0  0  1  0  0  0  0  0  0  0  0  0
  -25.7810  -30.6630   25.9470 C   0  0  0  0  0  1  0  0  0  0  0  0
  -27.3850  -29.6830   24.3060 C   0  0  0  0  0  1  0  0  0  0  0  0
  -28.0470  -31.6720   25.6230 C   0  0  0  0  0  1  0  0  0  0  0  0
  -26.0660  -33.3090   24.2830 N   0  0  0  0  0  0  0  0  0  0  0  0
  -26.3880  -34.4520   23.6680 C   0  0  0  0  0  0  0  0  0  0  0  0
  -27.0020  -34.4850   22.5980 O   0  0  0  0  0  0  0  0  0  0  0  0
  -25.5150  -33.3600   25.1280 H   0  0  0  0  0  0  0  0  0  0  0  0
  -24.6830  -36.3040   23.6750 C   0  0  0  0  0  1  0  0  0  0  0  0
  -25.9600  -35.7700   24.3410 C   0  0  0  0  0  3  0  0  0  0  0  0
  -28.1520  -36.5100   25.1660 C   0  0  0  0  0  1  0  0  0  0  0  0
  -27.0050  -36.8170   24.3140 N   0  0  0  0  0  0  0  0  0  0  0  0
  -26.6250  -37.7120   24.6060 H   0  0  0  0  0  0  0  0  0  0  0  0
  -30.4530  -17.8350   19.0480 C   0  0  0  0  0  2  0  0  0  0  0  0
  -30.9960  -15.1450   19.2970 C   0  0  0  0  0  0  0  0  0  0  0  0
  -30.8290  -12.7290   18.5390 C   0  0  0  0  0  2  0  0  0  0  0  0
  -29.7810  -12.5840   17.4080 C   0  0  0  0  0  2  0  0  0  0  0  0
  -28.3700  -12.3720   17.9930 C   0  0  0  0  0  2  0  0  0  0  0  0
  -28.0590  -13.3630   19.1480 C   0  0  0  0  0  3  0  0  0  0  0  0
  -29.2230  -13.4980   20.1530 C   0  0  0  0  0  2  0  0  0  0  0  0
  -30.4220  -13.8800   19.3940 N   0  0  0  0  0  0  0  0  0  0  0  0
  -32.1630  -15.2170   18.8970 O   0  0  0  0  0  0  0  0  0  0  0  0
  -30.2160  -16.3180   19.4390 N   0  0  0  0  0  0  0  0  0  0  0  0
  -29.2860  -16.1460   19.7980 H   0  0  0  0  0  0  0  0  0  0  0  0
  -25.8360  -13.9240   20.2770 C   0  0  0  0  0  0  0  0  0  0  0  0
  -24.8150  -13.1390   20.7460 C   0  0  0  0  0  0  0  0  0  0  0  0
  -25.2380  -11.7880   20.5590 C   0  0  0  0  0  0  0  0  0  0  0  0
  -26.8060  -13.0470   19.8230 N   0  0  0  0  0  0  0  0  0  0  0  0
  -26.4690  -11.7530   20.0610 N   0  0  0  0  0  0  0  0  0  0  0  0
  -24.5140  -10.5280   20.7730 C   0  0  0  0  0  0  0  0  0  0  0  0
  -24.9360   -9.5860   21.7380 C   0  0  0  0  0  3  0  0  0  0  0  0
  -24.2080   -8.3900   21.9330 C   0  0  0  0  0  3  0  0  0  0  0  0
  -23.0450   -8.1330   21.1680 C   0  0  0  0  0  0  0  0  0  0  0  0
  -22.6400   -9.0690   20.2010 C   0  0  0  0  0  3  0  0  0  0  0  0
  -23.3660  -10.2540   20.0030 C   0  0  0  0  0  3  0  0  0  0  0  0
  -22.2850   -6.9940   21.2750 O   0  0  0  0  0  0  0  0  0  0  0  0
  -22.0480   -6.4010   22.4880 C   0  0  0  0  0  0  0  0  0  0  0  0
  -21.4080   -7.0890   23.5430 C   0  0  0  0  0  3  0  0  0  0  0  0
  -21.1180   -6.4170   24.7470 C   0  0  0  0  0  3  0  0  0  0  0  0
  -21.4600   -5.0600   24.8990 C   0  0  0  0  0  0  0  0  0  0  0  0
  -22.0960   -4.3730   23.8500 C   0  0  0  0  0  3  0  0  0  0  0  0
  -22.3870   -5.0420   22.6470 C   0  0  0  0  0  0  0  0  0  0  0  0
  -22.9790   -4.3700   21.6310 F   0  0  0  0  0  0  0  0  0  0  0  0
  -21.1760   -4.4120   26.0530 F   0  0  0  0  0  0  0  0  0  0  0  0
  -23.4850  -13.6260   21.2400 C   0  0  0  0  0  0  0  0  0  0  0  0
  -22.8820  -12.9010   22.1750 N   0  0  0  0  0  0  0  0  0  0  0  0
  -22.9940  -14.6790   20.8370 O   0  0  0  0  0  0  0  0  0  0  0  0
  -23.2900  -12.0490   22.5270 H   0  0  0  0  0  0  0  0  0  0  0  0
  -21.9930  -13.2020   22.5480 H   0  0  0  0  0  0  0  0  0  0  0  0
  -26.0010  -15.2990   20.1680 N   0  0  0  0  0  0  0  0  0  0  0  0
  -25.2810  -15.9450   20.4710 H   0  0  0  0  0  0  0  0  0  0  0  0
  -26.8200  -15.7600   19.7950 H   0  0  0  0  0  0  0  0  0  0  0  0
  2  1  1  0
  2  7  1  0
  3  5  2  0
  3  4  1  0
  4  2  2  0
  5  6  1  0
  6  1  2  0
  6  9  1  0
  8  3  1  0
 10 11  2  0
 10  4  1  0
 12 14  1  0
 12 11  1  0
 13 24  2  0
 14 19  1  0
 15 23  1  0
 15 25  1  0
 16 22  1  0
 16 18  1  0
 17 23  1  0
 18 17  1  0
 19 18  2  0
 20 21  1  0
 20 14  2  0
 21 16  2  0
 22 15  1  0
 23 13  1  0
 25 27  2  0
 26 25  1  0
 28 26  1  0
 29 38  2  0
 29 34  1  0
 30 26  1  0
 30 34  1  0
 31 30  1  0
 32 33  1  0
 32 31  1  0
 33 29  1  0
 34 35  2  0
 35 36  1  0
 37 36  2  0
 38 37  1  0
 39 13  1  0
 39 44  1  0
 39 40  1  0
 40 43  1  1
 40 41  1  0
 42 40  1  0
 44 47  1  0
 45 44  1  0
 45 49  1  0
 46 45  2  0
 49 48  1  0
 51 49  1  0
 51 52  1  0
 51 50  1  0
 53 62  1  0
 53  5  1  0
 54 60  1  0
 54 62  1  0
 55 60  1  0
 56 57  1  0
 56 55  1  0
 58 57  1  0
 58 67  1  0
 58 59  1  0
 60 59  1  0
 61 54  2  0
 62 63  1  0
 64 65  2  0
 65 84  1  0
 66 65  1  0
 66 69  1  0
 67 68  1  0
 67 64  1  0
 68 66  2  0
 69 70  1  0
 70 71  2  0
 72 75  1  0
 72 71  1  0
 73 72  2  0
 74 73  1  0
 74 69  2  0
 75 76  1  0
 76 81  2  0
 76 77  1  0
 77 78  2  0
 78 79  1  0
 79 83  1  0
 80 79  2  0
 81 80  1  0
 82 81  1  0
 84 85  1  0
 85 87  1  0
 85 88  1  0
 86 84  2  0
 89 64  1  0
 89 90  1  0
 91 89  1  0
M  ISO  4  11 101  12 101  54 100  62 100
M  END
>  <TORSDO>  (74) 
F 19

>  <SCORE>  (74) 
-10.459

>  <name>  (74) 
73

>  <ligand_id>  (74) 
73

>  <original_smiles>  (74) 
[H]c1c([H])c([H])c2c(c1[H])C([H])([H])C([H])([H])C([H])([H])C2([H])N([H])C(=O)C1([H])N(C(=O)C([H])(N([H])C(=O)C([H])(N([H])C([H])([H])[H])C([H])([H])[H])C(C([H])([H])[H])(C([H])([H])[H])C([H])([H])[H])C([H])([H])c2c([H])c(OC([H])([H])C([H])([H])c3c(C([H])([H])[H])c([H])c(Cl)c(C([H])([H])N([H])C(=O)N4C([H])([H])C([H])([H])C([H])([H])C([H])(n5nc(-c6c([H])c([H])c(Oc7c([H])c([H])c(F)c([H])c7F)c([H])c6[H])c(C(=O)N([H])[H])c5N([H])[H])C4([H])[H])c3C([H])([H])[H])c([H])c([H])c2C1([H])[H]

>  <smiles>  (74) 
[H]c1c([H])c([H])c2c(c1[H])C([H])([H])C([H])([H])C([H])([H])C2([H])N([H])C(=O)C1([H])N(C(=O)C([H])(N([H])C(=O)C([H])(N([H])C([H])([H])[H])C([H])([H])[H])C(C([H])([H])[H])(C([H])([H])[H])C([H])([H])[H])C([H])([H])c2c([H])c(OC([H])([H])C([H])([H])c3c(C([H])([H])[H])c([H])c(Cl)c(C([H])([H])N([H])C(=O)N4C([H])([H])C([H])([H])C([H])([H])C([H])(n5nc(-c6c([H])c([H])c(Oc7c([H])c([H])c(F)c([H])c7F)c([H])c6[H])c(C(=O)N([H])[H])c5N([H])[H])C4([H])[H])c3C([H])([H])[H])c([H])c([H])c2C1([H])[H]

$$$$
74:0:0
     RDKit          3D

 92100  0  0  1  0  0  0  0  0999 V2000
  -28.7600  -20.9720   21.4420 C   0  0  0  0  0  3  0  0  0  0  0  0
  -30.0460  -22.2180   19.2990 C   0  0  0  0  0  3  0  0  0  0  0  0
  -28.7870  -22.3830   21.3710 C   0  0  0  0  0  0  0  0  0  0  0  0
  -30.0110  -20.8030   19.3690 C   0  0  0  0  0  0  0  0  0  0  0  0
  -29.3720  -20.1600   20.4620 C   0  0  0  0  0  0  0  0  0  0  0  0
  -29.4510  -23.0270   20.2930 C   0  0  0  0  0  0  0  0  0  0  0  0
  -28.0820  -23.1620   22.4710 C   0  0  0  0  0  1  0  0  0  0  0  0
  -30.6790  -20.0100   18.2610 C   0  0  0  0  0  1  0  0  0  0  0  0
  -29.3050  -18.6290   20.6230 C   0  0  0  0  0  2  0  0  0  0  0  0
  -30.6750  -17.9410   20.8510 C   0  0  0  0  0  2  0  0  0  0  0  0
  -30.6750  -16.6840   21.7610 C   0  0  0  0  0  2  0  0  0  0  0  0
  -30.7310  -14.5430   20.4420 C   0  0  0  0  0  0  0  0  0  0  0  0
  -30.4330  -12.4320   19.1920 C   0  0  0  0  0  2  0  0  0  0  0  0
  -29.4810  -12.6510   17.9990 C   0  0  0  0  0  2  0  0  0  0  0  0
  -28.0110  -12.4960   18.4340 C   0  0  0  0  0  2  0  0  0  0  0  0
  -27.6770  -13.3050   19.7150 C   0  0  0  0  0  3  0  0  0  0  0  0
  -28.7330  -13.0510   20.8120 C   0  0  0  0  0  2  0  0  0  0  0  0
  -30.0530  -13.3810   20.2480 N   0  0  0  0  0  0  0  0  0  0  0  0
  -31.8330  -14.7720   19.9380 O   0  0  0  0  0  0  0  0  0  0  0  0
  -30.0910  -15.4650   21.1840 N   0  0  0  0  0  0  0  0  0  0  0  0
  -29.1730  -15.2030   21.5110 H   0  0  0  0  0  0  0  0  0  0  0  0
  -25.2690  -13.8940   20.4060 C   0  0  0  0  0  0  0  0  0  0  0  0
  -24.2080  -13.1130   20.7790 C   0  0  0  0  0  0  0  0  0  0  0  0
  -24.6850  -11.7670   20.7650 C   0  0  0  0  0  0  0  0  0  0  0  0
  -26.3250  -13.0220   20.1890 N   0  0  0  0  0  0  0  0  0  0  0  0
  -25.9760  -11.7380   20.4630 N   0  0  0  0  0  0  0  0  0  0  0  0
  -23.9730  -10.4980   20.9660 C   0  0  0  0  0  0  0  0  0  0  0  0
  -24.4060   -9.5510   21.9190 C   0  0  0  0  0  3  0  0  0  0  0  0
  -23.6960   -8.3460   22.1040 C   0  0  0  0  0  3  0  0  0  0  0  0
  -22.5370   -8.0810   21.3380 C   0  0  0  0  0  0  0  0  0  0  0  0
  -22.1210   -9.0170   20.3740 C   0  0  0  0  0  3  0  0  0  0  0  0
  -22.8330  -10.2130   20.1860 C   0  0  0  0  0  3  0  0  0  0  0  0
  -21.7960   -6.9280   21.4330 O   0  0  0  0  0  0  0  0  0  0  0  0
  -21.7340   -6.2060   22.5970 C   0  0  0  0  0  0  0  0  0  0  0  0
  -21.2580   -6.7720   23.8000 C   0  0  0  0  0  3  0  0  0  0  0  0
  -21.1450   -5.9760   24.9560 C   0  0  0  0  0  3  0  0  0  0  0  0
  -21.4980   -4.6140   24.9130 C   0  0  0  0  0  0  0  0  0  0  0  0
  -21.9670   -4.0470   23.7140 C   0  0  0  0  0  3  0  0  0  0  0  0
  -22.0810   -4.8410   22.5600 C   0  0  0  0  0  0  0  0  0  0  0  0
  -22.5140   -4.2850   21.4030 F   0  0  0  0  0  0  0  0  0  0  0  0
  -21.3820   -3.8470   26.0210 F   0  0  0  0  0  0  0  0  0  0  0  0
  -22.8050  -13.5770   21.0380 C   0  0  0  0  0  0  0  0  0  0  0  0
  -22.0800  -12.8790   21.9060 N   0  0  0  0  0  0  0  0  0  0  0  0
  -22.3570  -14.5920   20.5080 O   0  0  0  0  0  0  0  0  0  0  0  0
  -22.4550  -12.0580   22.3550 H   0  0  0  0  0  0  0  0  0  0  0  0
  -21.1380  -13.1730   22.1270 H   0  0  0  0  0  0  0  0  0  0  0  0
  -25.4200  -15.2650   20.2170 N   0  0  0  0  0  0  0  0  0  0  0  0
  -24.6460  -15.9110   20.3180 H   0  0  0  0  0  0  0  0  0  0  0  0
  -26.2670  -15.7060   19.8800 H   0  0  0  0  0  0  0  0  0  0  0  0
  -29.5890  -24.5580   20.1970 C   0  0  0  0  0  2  0  0  0  0  0  0
  -28.2930  -25.3070   19.8140 C   0  0  0  0  0  2  0  0  0  0  0  0
  -28.4210  -26.7330   19.9620 O   0  0  0  0  0  0  0  0  0  0  0  0
  -24.6520  -31.8680   23.1740 C   0  0  0  0  0  0  0  0  0  0  0  0
  -27.2470  -27.4670   19.9740 C   0  0  0  0  0  0  0  0  0  0  0  0
  -23.4210  -30.4950   21.5280 C   0  0  0  0  0  3  0  0  0  0  0  0
  -24.8530  -28.9870   20.0520 C   0  0  0  0  0  0  0  0  0  0  0  0
  -25.9460  -30.8540   21.2980 C   0  0  0  0  0  2  0  0  0  0  0  0
  -26.0220  -29.4930   20.6340 C   0  0  0  0  0  0  0  0  0  0  0  0
  -27.2200  -28.7400   20.5930 C   0  0  0  0  0  3  0  0  0  0  0  0
  -26.0540  -26.9800   19.3870 C   0  0  0  0  0  3  0  0  0  0  0  0
  -24.8650  -27.7280   19.4290 C   0  0  0  0  0  3  0  0  0  0  0  0
  -23.6100  -29.8430   20.1330 C   0  0  0  0  0  2  0  0  0  0  0  0
  -24.6930  -31.0880   22.0570 N   0  0  0  0  0  0  0  0  0  0  0  0
  -23.5810  -32.1290   23.7370 O   0  0  0  0  0  0  0  0  0  0  0  0
  -22.7900  -29.4530   22.4790 C   0  0  0  0  0  0  0  0  0  0  0  0
  -21.4630  -29.2710   22.3710 N   0  0  0  0  0  0  0  0  0  0  0  0
  -23.4880  -28.8120   23.2680 O   0  0  0  0  0  0  0  0  0  0  0  0
  -20.9620  -29.8410   21.7050 H   0  0  0  0  0  0  0  0  0  0  0  0
  -18.0980  -28.0690   22.9070 C   0  0  0  0  0  0  0  0  0  0  0  0
  -20.6610  -28.3180   23.1380 C   0  0  0  0  0  3  0  0  0  0  0  0
  -20.7510  -26.8990   22.5290 C   0  0  0  0  0  2  0  0  0  0  0  0
  -19.6310  -26.6010   21.5280 C   0  0  0  0  0  2  0  0  0  0  0  0
  -18.2610  -26.7340   22.2000 C   0  0  0  0  0  2  0  0  0  0  0  0
  -19.2260  -28.8210   23.3310 C   0  0  0  0  0  0  0  0  0  0  0  0
  -19.0230  -30.0710   23.9520 C   0  0  0  0  0  3  0  0  0  0  0  0
  -17.7230  -30.5740   24.1500 C   0  0  0  0  0  3  0  0  0  0  0  0
  -16.6100  -29.8210   23.7400 C   0  0  0  0  0  3  0  0  0  0  0  0
  -16.7980  -28.5700   23.1270 C   0  0  0  0  0  3  0  0  0  0  0  0
  -25.9470  -32.4900   23.7840 C   0  0  0  0  0  3  0  0  0  0  0  0
  -25.6430  -33.8800   24.1440 N   0  0  0  0  0  0  0  0  0  0  0  0
  -25.9560  -34.9450   23.3930 C   0  0  0  0  0  0  0  0  0  0  0  0
  -26.6020  -34.8590   22.3440 O   0  0  0  0  0  0  0  0  0  0  0  0
  -25.0620  -34.0210   24.9570 H   0  0  0  0  0  0  0  0  0  0  0  0
  -24.2140  -36.7360   23.1010 C   0  0  0  0  0  1  0  0  0  0  0  0
  -25.4740  -36.3240   23.8810 C   0  0  0  0  0  3  0  0  0  0  0  0
  -27.6190  -37.2050   24.6860 C   0  0  0  0  0  1  0  0  0  0  0  0
  -26.5000  -37.3820   23.7640 N   0  0  0  0  0  0  0  0  0  0  0  0
  -26.0950  -38.2990   23.9300 H   0  0  0  0  0  0  0  0  0  0  0  0
  -26.4880  -31.6950   25.0350 C   0  0  1  0  0  0  0  0  0  0  0  0
  -25.4130  -31.4350   26.1150 C   0  0  0  0  0  1  0  0  0  0  0  0
  -27.0690  -30.3280   24.6040 C   0  0  0  0  0  1  0  0  0  0  0  0
  -27.6490  -32.4800   25.6920 C   0  0  0  0  0  1  0  0  0  0  0  0
  2  4  2  0
  2  6  1  0
  3  1  1  0
  3  7  1  0
  4  5  1  0
  5  9  1  0
  5  1  2  0
  6  3  2  0
  8  4  1  0
  9 10  1  0
 10 11  1  0
 12 20  1  0
 13 18  1  0
 14 15  1  0
 14 13  1  0
 16 15  1  0
 16 25  1  0
 16 17  1  0
 18 12  1  0
 18 17  1  0
 19 12  2  0
 20 21  1  0
 20 11  1  0
 22 23  2  0
 23 42  1  0
 24 23  1  0
 24 27  1  0
 25 22  1  0
 25 26  1  0
 26 24  2  0
 27 28  1  0
 28 29  2  0
 30 33  1  0
 30 29  1  0
 31 30  2  0
 32 31  1  0
 32 27  2  0
 33 34  1  0
 34 35  1  0
 35 36  2  0
 37 36  1  0
 37 41  1  0
 38 37  2  0
 39 34  2  0
 39 38  1  0
 40 39  1  0
 42 43  1  0
 43 46  1  0
 43 45  1  0
 44 42  2  0
 47 48  1  0
 47 22  1  0
 49 47  1  0
 50  6  1  0
 51 52  1  0
 51 50  1  0
 52 54  1  0
 53 64  2  0
 54 59  1  0
 55 63  1  0
 55 65  1  0
 56 62  1  0
 56 58  1  0
 57 63  1  0
 58 57  1  0
 59 58  2  0
 60 61  1  0
 60 54  2  0
 61 56  2  0
 62 55  1  0
 63 53  1  0
 65 67  2  0
 66 65  1  0
 68 66  1  0
 69 78  2  0
 69 74  1  0
 70 66  1  0
 70 74  1  0
 71 70  1  0
 72 73  1  0
 72 71  1  0
 73 69  1  0
 74 75  2  0
 75 76  1  0
 77 76  2  0
 78 77  1  0
 79 53  1  0
 79 80  1  0
 79 89  1  0
 80 83  1  0
 81 85  1  0
 81 80  1  0
 82 81  2  0
 85 84  1  0
 87 85  1  0
 87 88  1  0
 87 86  1  0
 89 92  1  1
 89 90  1  0
 91 89  1  0
M  ISO  4  12 100  20 100  51 101  52 101
M  END
>  <TORSDO>  (75) 
F 21

>  <SCORE>  (75) 
-13.205

>  <name>  (75) 
74

>  <ligand_id>  (75) 
74

>  <original_smiles>  (75) 
[H]c1c([H])c([H])c2c(c1[H])C([H])([H])C([H])([H])C([H])([H])C2([H])N([H])C(=O)C1([H])N(C(=O)C([H])(N([H])C(=O)C([H])(N([H])C([H])([H])[H])C([H])([H])[H])C(C([H])([H])[H])(C([H])([H])[H])C([H])([H])[H])C([H])([H])c2c([H])c(OC([H])([H])C([H])([H])c3c([H])c(C([H])([H])[H])c(C([H])([H])C([H])([H])C([H])([H])N([H])C(=O)N4C([H])([H])C([H])([H])C([H])([H])C([H])(n5nc(-c6c([H])c([H])c(Oc7c([H])c([H])c(F)c([H])c7F)c([H])c6[H])c(C(=O)N([H])[H])c5N([H])[H])C4([H])[H])c([H])c3C([H])([H])[H])c([H])c([H])c2C1([H])[H]

>  <smiles>  (75) 
[H]c1c([H])c([H])c2c(c1[H])C([H])([H])C([H])([H])C([H])([H])C2([H])N([H])C(=O)C1([H])N(C(=O)C([H])(N([H])C(=O)C([H])(N([H])C([H])([H])[H])C([H])([H])[H])C(C([H])([H])[H])(C([H])([H])[H])C([H])([H])[H])C([H])([H])c2c([H])c(OC([H])([H])C([H])([H])c3c([H])c(C([H])([H])[H])c(C([H])([H])C([H])([H])C([H])([H])N([H])C(=O)N4C([H])([H])C([H])([H])C([H])([H])C([H])(n5nc(-c6c([H])c([H])c(Oc7c([H])c([H])c(F)c([H])c7F)c([H])c6[H])c(C(=O)N([H])[H])c5N([H])[H])C4([H])[H])c([H])c3C([H])([H])[H])c([H])c([H])c2C1([H])[H]

$$$$
75:0:0
     RDKit          3D

 94102  0  0  1  0  0  0  0  0999 V2000
  -30.2640  -23.6130   21.7800 C   0  0  0  0  0  3  0  0  0  0  0  0
  -29.1050  -22.9730   21.4350 C   0  0  0  0  0  0  0  0  0  0  0  0
  -28.4840  -23.7540   20.4140 C   0  0  0  0  0  0  0  0  0  0  0  0
  -29.2820  -24.8480   20.1810 C   0  0  0  0  0  0  0  0  0  0  0  0
  -27.1740  -23.4380   19.7300 C   0  0  0  0  0  1  0  0  0  0  0  0
  -30.3750  -24.7710   21.0370 N   0  0  0  0  0  0  0  0  0  0  0  0
  -31.2400  -26.6610   22.3750 C   0  0  0  0  0  1  0  0  0  0  0  0
  -31.4630  -25.7320   21.1770 C   0  0  0  0  0  2  0  0  0  0  0  0
  -28.5630  -21.7090   22.0620 C   0  0  0  0  0  2  0  0  0  0  0  0
  -28.6210  -20.4580   21.1610 C   0  0  0  0  0  2  0  0  0  0  0  0
  -30.0450  -19.9140   20.9420 C   0  0  0  0  0  2  0  0  0  0  0  0
  -30.0930  -18.3840   20.7400 C   0  0  0  0  0  2  0  0  0  0  0  0
  -31.5330  -17.8440   20.6350 C   0  0  0  0  0  2  0  0  0  0  0  0
  -31.7650  -16.5230   21.3940 C   0  0  0  0  0  2  0  0  0  0  0  0
  -31.3030  -14.5230   19.9900 C   0  0  0  0  0  0  0  0  0  0  0  0
  -30.8580  -12.3260   18.9610 C   0  0  0  0  0  2  0  0  0  0  0  0
  -29.8960  -12.4360   17.7640 C   0  0  0  0  0  2  0  0  0  0  0  0
  -28.4300  -12.3810   18.2350 C   0  0  0  0  0  2  0  0  0  0  0  0
  -28.1420  -13.3520   19.4090 C   0  0  0  0  0  3  0  0  0  0  0  0
  -29.2070  -13.2130   20.5180 C   0  0  0  0  0  2  0  0  0  0  0  0
  -30.5400  -13.4030   19.9110 N   0  0  0  0  0  0  0  0  0  0  0  0
  -32.3110  -14.7050   19.3010 O   0  0  0  0  0  0  0  0  0  0  0  0
  -30.9400  -15.4070   20.9310 N   0  0  0  0  0  0  0  0  0  0  0  0
  -30.1120  -15.1850   21.4640 H   0  0  0  0  0  0  0  0  0  0  0  0
  -25.8200  -14.1150   20.2220 C   0  0  0  0  0  0  0  0  0  0  0  0
  -24.7150  -13.4150   20.6280 C   0  0  0  0  0  0  0  0  0  0  0  0
  -25.0800  -12.0340   20.5670 C   0  0  0  0  0  0  0  0  0  0  0  0
  -26.7900  -13.1660   19.9390 N   0  0  0  0  0  0  0  0  0  0  0  0
  -26.3500  -11.9100   20.1990 N   0  0  0  0  0  0  0  0  0  0  0  0
  -24.2770  -10.8240   20.7760 C   0  0  0  0  0  0  0  0  0  0  0  0
  -24.6560   -9.8380   21.7130 C   0  0  0  0  0  3  0  0  0  0  0  0
  -23.8570   -8.6910   21.9110 C   0  0  0  0  0  3  0  0  0  0  0  0
  -22.6630   -8.5230   21.1700 C   0  0  0  0  0  0  0  0  0  0  0  0
  -22.3020   -9.4950   20.2210 C   0  0  0  0  0  3  0  0  0  0  0  0
  -23.1020  -10.6330   20.0210 C   0  0  0  0  0  3  0  0  0  0  0  0
  -21.8390   -7.4290   21.2760 O   0  0  0  0  0  0  0  0  0  0  0  0
  -21.7260   -6.7210   22.4470 C   0  0  0  0  0  0  0  0  0  0  0  0
  -21.3240   -7.3360   23.6520 C   0  0  0  0  0  3  0  0  0  0  0  0
  -21.1530   -6.5570   24.8150 C   0  0  0  0  0  3  0  0  0  0  0  0
  -21.3760   -5.1670   24.7730 C   0  0  0  0  0  0  0  0  0  0  0  0
  -21.7720   -4.5550   23.5710 C   0  0  0  0  0  3  0  0  0  0  0  0
  -21.9440   -5.3290   22.4100 C   0  0  0  0  0  0  0  0  0  0  0  0
  -22.3040   -4.7300   21.2500 F   0  0  0  0  0  0  0  0  0  0  0  0
  -21.2060   -4.4200   25.8860 F   0  0  0  0  0  0  0  0  0  0  0  0
  -23.3670  -13.9830   20.9650 C   0  0  0  0  0  0  0  0  0  0  0  0
  -22.6300  -13.3320   21.8570 N   0  0  0  0  0  0  0  0  0  0  0  0
  -22.9790  -15.0400   20.4700 O   0  0  0  0  0  0  0  0  0  0  0  0
  -22.9560  -12.4750   22.2790 H   0  0  0  0  0  0  0  0  0  0  0  0
  -21.7230  -13.6950   22.1180 H   0  0  0  0  0  0  0  0  0  0  0  0
  -26.0740  -15.4730   20.0490 N   0  0  0  0  0  0  0  0  0  0  0  0
  -25.3660  -16.1830   20.2020 H   0  0  0  0  0  0  0  0  0  0  0  0
  -26.9470  -15.8510   19.7040 H   0  0  0  0  0  0  0  0  0  0  0  0
  -29.1020  -25.9880   19.2200 C   0  0  0  0  0  2  0  0  0  0  0  0
  -28.8240  -27.1500   20.0070 O   0  0  0  0  0  0  0  0  0  0  0  0
  -24.6820  -31.9280   23.2430 C   0  0  0  0  0  0  0  0  0  0  0  0
  -27.5720  -27.7350   20.0310 C   0  0  0  0  0  0  0  0  0  0  0  0
  -23.5630  -30.5390   21.5280 C   0  0  0  0  0  3  0  0  0  0  0  0
  -25.1010  -29.1180   20.0790 C   0  0  0  0  0  0  0  0  0  0  0  0
  -26.0700  -31.0150   21.3850 C   0  0  0  0  0  2  0  0  0  0  0  0
  -26.2230  -29.6700   20.7070 C   0  0  0  0  0  0  0  0  0  0  0  0
  -27.4550  -28.9830   20.6860 C   0  0  0  0  0  3  0  0  0  0  0  0
  -26.4190  -27.1850   19.4180 C   0  0  0  0  0  3  0  0  0  0  0  0
  -25.1930  -27.8720   19.4380 C   0  0  0  0  0  3  0  0  0  0  0  0
  -23.8230  -29.9180   20.1290 C   0  0  0  0  0  2  0  0  0  0  0  0
  -24.7900  -31.1740   22.1130 N   0  0  0  0  0  0  0  0  0  0  0  0
  -23.5810  -32.1330   23.7730 O   0  0  0  0  0  0  0  0  0  0  0  0
  -22.9420  -29.4560   22.4390 C   0  0  0  0  0  0  0  0  0  0  0  0
  -21.6270  -29.2320   22.2890 N   0  0  0  0  0  0  0  0  0  0  0  0
  -23.6410  -28.8240   23.2360 O   0  0  0  0  0  0  0  0  0  0  0  0
  -21.1200  -29.8030   21.6290 H   0  0  0  0  0  0  0  0  0  0  0  0
  -18.2950  -27.9040   22.7080 C   0  0  0  0  0  0  0  0  0  0  0  0
  -20.8400  -28.2320   23.0100 C   0  0  0  0  0  3  0  0  0  0  0  0
  -20.9930  -26.8320   22.3710 C   0  0  0  0  0  2  0  0  0  0  0  0
  -19.9090  -26.5180   21.3350 C   0  0  0  0  0  2  0  0  0  0  0  0
  -18.5200  -26.5920   21.9730 C   0  0  0  0  0  2  0  0  0  0  0  0
  -19.3850  -28.6800   23.1810 C   0  0  0  0  0  0  0  0  0  0  0  0
  -19.1230  -29.9090   23.8250 C   0  0  0  0  0  3  0  0  0  0  0  0
  -17.8020  -30.3630   24.0000 C   0  0  0  0  0  3  0  0  0  0  0  0
  -16.7260  -29.5830   23.5440 C   0  0  0  0  0  3  0  0  0  0  0  0
  -16.9720  -28.3550   22.9030 C   0  0  0  0  0  3  0  0  0  0  0  0
  -25.9280  -32.5900   23.9110 C   0  0  0  0  0  3  0  0  0  0  0  0
  -25.5800  -33.9820   24.2260 N   0  0  0  0  0  0  0  0  0  0  0  0
  -25.9220  -35.0390   23.4760 C   0  0  0  0  0  0  0  0  0  0  0  0
  -26.6350  -34.9440   22.4740 O   0  0  0  0  0  0  0  0  0  0  0  0
  -24.9620  -34.1320   25.0100 H   0  0  0  0  0  0  0  0  0  0  0  0
  -24.1730  -36.7840   23.0420 C   0  0  0  0  0  1  0  0  0  0  0  0
  -25.3880  -36.4170   23.9060 C   0  0  0  0  0  3  0  0  0  0  0  0
  -27.4700  -37.3480   24.8140 C   0  0  0  0  0  1  0  0  0  0  0  0
  -26.4030  -37.4900   23.8260 N   0  0  0  0  0  0  0  0  0  0  0  0
  -25.9740  -38.4030   23.9530 H   0  0  0  0  0  0  0  0  0  0  0  0
  -26.4170  -31.8310   25.2050 C   0  0  1  0  0  0  0  0  0  0  0  0
  -25.2910  -31.5620   26.2320 C   0  0  0  0  0  1  0  0  0  0  0  0
  -27.0500  -30.4740   24.8240 C   0  0  0  0  0  1  0  0  0  0  0  0
  -27.5250  -32.6490   25.9060 C   0  0  0  0  0  1  0  0  0  0  0  0
  2  1  2  0
  2  9  1  0
  3  2  1  0
  4  3  2  0
  4  6  1  0
  5  3  1  0
  6  8  1  0
  6  1  1  0
  8  7  1  0
 10  9  1  0
 11 10  1  0
 12 11  1  0
 13 12  1  0
 13 14  1  0
 15 23  1  0
 16 21  1  0
 17 18  1  0
 17 16  1  0
 19 18  1  0
 19 28  1  0
 19 20  1  0
 21 15  1  0
 21 20  1  0
 22 15  2  0
 23 14  1  0
 23 24  1  0
 25 26  2  0
 26 45  1  0
 27 26  1  0
 27 30  1  0
 28 29  1  0
 28 25  1  0
 29 27  2  0
 30 31  1  0
 31 32  2  0
 33 36  1  0
 33 32  1  0
 34 33  2  0
 35 34  1  0
 35 30  2  0
 36 37  1  0
 37 38  1  0
 38 39  2  0
 40 39  1  0
 40 44  1  0
 41 40  2  0
 42 37  2  0
 42 41  1  0
 43 42  1  0
 45 46  1  0
 46 49  1  0
 46 48  1  0
 47 45  2  0
 50 51  1  0
 50 25  1  0
 52 50  1  0
 53 54  1  0
 53  4  1  0
 54 56  1  0
 55 66  2  0
 56 61  1  0
 57 65  1  0
 57 67  1  0
 58 64  1  0
 58 60  1  0
 59 65  1  0
 60 59  1  0
 61 60  2  0
 62 63  1  0
 62 56  2  0
 63 58  2  0
 64 57  1  0
 65 55  1  0
 67 69  2  0
 68 67  1  0
 70 68  1  0
 71 80  2  0
 71 76  1  0
 72 68  1  0
 72 76  1  0
 73 72  1  0
 74 75  1  0
 74 73  1  0
 75 71  1  0
 76 77  2  0
 77 78  1  0
 79 78  2  0
 80 79  1  0
 81 55  1  0
 81 82  1  0
 81 91  1  0
 82 85  1  0
 83 87  1  0
 83 82  1  0
 84 83  2  0
 87 86  1  0
 89 87  1  0
 89 90  1  0
 89 88  1  0
 91 94  1  1
 91 92  1  0
 93 91  1  0
M  ISO  4  15 100  23 100  53 101  54 101
M  END
>  <TORSDO>  (76) 
F 24

>  <SCORE>  (76) 
-11.595

>  <name>  (76) 
75

>  <ligand_id>  (76) 
75

>  <original_smiles>  (76) 
[H]c1c([H])c([H])c2c(c1[H])C([H])([H])C([H])([H])C([H])([H])C2([H])N([H])C(=O)C1([H])N(C(=O)C([H])(N([H])C(=O)C([H])(N([H])C([H])([H])[H])C([H])([H])[H])C(C([H])([H])[H])(C([H])([H])[H])C([H])([H])[H])C([H])([H])c2c([H])c(OC([H])([H])c3c(C([H])([H])[H])c(C([H])([H])C([H])([H])C([H])([H])C([H])([H])C([H])([H])C([H])([H])N([H])C(=O)N4C([H])([H])C([H])([H])C([H])([H])C([H])(n5nc(-c6c([H])c([H])c(Oc7c([H])c([H])c(F)c([H])c7F)c([H])c6[H])c(C(=O)N([H])[H])c5N([H])[H])C4([H])[H])c([H])n3C([H])([H])C([H])([H])[H])c([H])c([H])c2C1([H])[H]

>  <smiles>  (76) 
[H]c1c([H])c([H])c2c(c1[H])C([H])([H])C([H])([H])C([H])([H])C2([H])N([H])C(=O)C1([H])N(C(=O)C([H])(N([H])C(=O)C([H])(N([H])C([H])([H])[H])C([H])([H])[H])C(C([H])([H])[H])(C([H])([H])[H])C([H])([H])[H])C([H])([H])c2c([H])c(OC([H])([H])c3c(C([H])([H])[H])c(C([H])([H])C([H])([H])C([H])([H])C([H])([H])C([H])([H])C([H])([H])N([H])C(=O)N4C([H])([H])C([H])([H])C([H])([H])C([H])(n5nc(-c6c([H])c([H])c(Oc7c([H])c([H])c(F)c([H])c7F)c([H])c6[H])c(C(=O)N([H])[H])c5N([H])[H])C4([H])[H])c([H])n3C([H])([H])C([H])([H])[H])c([H])c([H])c2C1([H])[H]

$$$$
76:0:0
     RDKit          3D

 91 99  0  0  1  0  0  0  0  0999 V2000
  -30.2040  -22.0110   20.2720 C   0  0  0  0  0  3  0  0  0  0  0  0
  -28.1890  -22.4220   19.4450 C   0  0  0  0  0  3  0  0  0  0  0  0
  -29.2500  -23.0470   20.0430 C   0  0  0  0  0  0  0  0  0  0  0  0
  -29.7410  -20.8120   19.7840 C   0  0  0  0  0  0  0  0  0  0  0  0
  -28.4740  -21.0740   19.2630 N   0  0  0  0  0  0  0  0  0  0  0  0
  -26.4790  -19.6600   19.5830 C   0  0  0  0  0  1  0  0  0  0  0  0
  -27.5480  -20.1650   18.6060 C   0  0  0  0  0  2  0  0  0  0  0  0
  -29.3790  -24.5290   20.3970 C   0  0  0  0  0  2  0  0  0  0  0  0
  -28.7480  -25.4800   19.3560 C   0  0  0  0  0  2  0  0  0  0  0  0
  -28.8450  -26.8790   19.7150 O   0  0  0  0  0  0  0  0  0  0  0  0
  -24.7590  -31.6540   23.0660 C   0  0  0  0  0  0  0  0  0  0  0  0
  -27.6630  -27.5990   19.6900 C   0  0  0  0  0  0  0  0  0  0  0  0
  -23.6530  -30.3310   21.2960 C   0  0  0  0  0  3  0  0  0  0  0  0
  -25.2040  -29.0050   19.7690 C   0  0  0  0  0  0  0  0  0  0  0  0
  -26.1620  -30.8310   21.1760 C   0  0  0  0  0  2  0  0  0  0  0  0
  -26.3280  -29.5250   20.4240 C   0  0  0  0  0  0  0  0  0  0  0  0
  -27.5610  -28.8310   20.3810 C   0  0  0  0  0  3  0  0  0  0  0  0
  -26.5250  -27.1180   19.0020 C   0  0  0  0  0  3  0  0  0  0  0  0
  -25.3000  -27.8030   19.0510 C   0  0  0  0  0  3  0  0  0  0  0  0
  -23.9170  -29.7900   19.8670 C   0  0  0  0  0  2  0  0  0  0  0  0
  -24.8750  -30.9500   21.9050 N   0  0  0  0  0  0  0  0  0  0  0  0
  -23.6580  -31.8250   23.6060 O   0  0  0  0  0  0  0  0  0  0  0  0
  -23.0460  -29.1980   22.1560 C   0  0  0  0  0  0  0  0  0  0  0  0
  -21.7220  -29.0040   22.0420 N   0  0  0  0  0  0  0  0  0  0  0  0
  -23.7620  -28.5030   22.8830 O   0  0  0  0  0  0  0  0  0  0  0  0
  -21.2060  -29.6190   21.4300 H   0  0  0  0  0  0  0  0  0  0  0  0
  -18.3690  -27.7680   22.5750 C   0  0  0  0  0  0  0  0  0  0  0  0
  -20.9400  -27.9750   22.7280 C   0  0  0  0  0  3  0  0  0  0  0  0
  -20.9930  -26.6330   21.9620 C   0  0  0  0  0  2  0  0  0  0  0  0
  -19.8290  -26.4540   20.9810 C   0  0  0  0  0  2  0  0  0  0  0  0
  -18.4890  -26.5190   21.7190 C   0  0  0  0  0  2  0  0  0  0  0  0
  -19.5190  -28.4600   23.0360 C   0  0  0  0  0  0  0  0  0  0  0  0
  -19.3520  -29.6360   23.8000 C   0  0  0  0  0  3  0  0  0  0  0  0
  -18.0650  -30.1160   24.1080 C   0  0  0  0  0  3  0  0  0  0  0  0
  -16.9290  -29.4170   23.6640 C   0  0  0  0  0  3  0  0  0  0  0  0
  -17.0820  -28.2470   22.9020 C   0  0  0  0  0  3  0  0  0  0  0  0
  -26.0010  -32.2990   23.7570 C   0  0  0  0  0  3  0  0  0  0  0  0
  -25.6440  -33.6800   24.1030 N   0  0  0  0  0  0  0  0  0  0  0  0
  -25.9800  -34.7570   23.3810 C   0  0  0  0  0  0  0  0  0  0  0  0
  -26.6930  -34.6930   22.3750 O   0  0  0  0  0  0  0  0  0  0  0  0
  -25.0090  -33.8020   24.8780 H   0  0  0  0  0  0  0  0  0  0  0  0
  -24.2140  -36.5080   23.0040 C   0  0  0  0  0  1  0  0  0  0  0  0
  -25.4390  -36.1220   23.8480 C   0  0  0  0  0  3  0  0  0  0  0  0
  -27.5160  -37.0500   24.7700 C   0  0  0  0  0  1  0  0  0  0  0  0
  -26.4450  -37.2050   23.7890 N   0  0  0  0  0  0  0  0  0  0  0  0
  -26.0080  -38.1100   23.9380 H   0  0  0  0  0  0  0  0  0  0  0  0
  -26.4810  -31.5080   25.0340 C   0  0  1  0  0  0  0  0  0  0  0  0
  -25.3470  -31.2170   26.0460 C   0  0  0  0  0  1  0  0  0  0  0  0
  -27.1140  -30.1550   24.6340 C   0  0  0  0  0  1  0  0  0  0  0  0
  -27.5830  -32.3120   25.7640 C   0  0  0  0  0  1  0  0  0  0  0  0
  -30.5260  -19.5080   19.7140 C   0  0  0  0  0  2  0  0  0  0  0  0
  -29.9980  -18.1610   20.2940 C   0  0  0  0  0  2  0  0  0  0  0  0
  -31.0850  -17.0530   20.1780 C   0  0  0  0  0  2  0  0  0  0  0  0
  -31.2610  -14.5880   19.9290 C   0  0  0  0  0  0  0  0  0  0  0  0
  -30.8900  -12.3360   18.9910 C   0  0  0  0  0  2  0  0  0  0  0  0
  -29.8920  -12.4180   17.8190 C   0  0  0  0  0  2  0  0  0  0  0  0
  -28.4340  -12.3510   18.3190 C   0  0  0  0  0  2  0  0  0  0  0  0
  -28.1610  -13.3150   19.5060 C   0  0  0  0  0  3  0  0  0  0  0  0
  -29.2630  -13.1910   20.5830 C   0  0  0  0  0  2  0  0  0  0  0  0
  -30.5640  -13.4190   19.9350 N   0  0  0  0  0  0  0  0  0  0  0  0
  -32.3570  -14.7040   19.3720 O   0  0  0  0  0  0  0  0  0  0  0  0
  -30.6280  -15.6720   20.4230 N   0  0  0  0  0  0  0  0  0  0  0  0
  -29.7290  -15.5280   20.8590 H   0  0  0  0  0  0  0  0  0  0  0  0
  -25.8620  -14.0440   20.4110 C   0  0  0  0  0  0  0  0  0  0  0  0
  -24.7700  -13.3270   20.8190 C   0  0  0  0  0  0  0  0  0  0  0  0
  -25.1310  -11.9510   20.6900 C   0  0  0  0  0  0  0  0  0  0  0  0
  -26.8270  -13.1090   20.0670 N   0  0  0  0  0  0  0  0  0  0  0  0
  -26.3920  -11.8400   20.2880 N   0  0  0  0  0  0  0  0  0  0  0  0
  -24.3320  -10.7320   20.8700 C   0  0  0  0  0  0  0  0  0  0  0  0
  -24.7060   -9.7310   21.7940 C   0  0  0  0  0  3  0  0  0  0  0  0
  -23.9120   -8.5760   21.9590 C   0  0  0  0  0  3  0  0  0  0  0  0
  -22.7280   -8.4150   21.2030 C   0  0  0  0  0  0  0  0  0  0  0  0
  -22.3730   -9.4030   20.2660 C   0  0  0  0  0  3  0  0  0  0  0  0
  -23.1670  -10.5490   20.0980 C   0  0  0  0  0  3  0  0  0  0  0  0
  -21.9040   -7.3180   21.2850 O   0  0  0  0  0  0  0  0  0  0  0  0
  -21.7320   -6.6320   22.4590 C   0  0  0  0  0  0  0  0  0  0  0  0
  -21.2310   -7.2560   23.6230 C   0  0  0  0  0  3  0  0  0  0  0  0
  -21.0070   -6.4960   24.7890 C   0  0  0  0  0  3  0  0  0  0  0  0
  -21.2700   -5.1120   24.7900 C   0  0  0  0  0  0  0  0  0  0  0  0
  -21.7590   -4.4890   23.6290 C   0  0  0  0  0  3  0  0  0  0  0  0
  -21.9880   -5.2460   22.4660 C   0  0  0  0  0  0  0  0  0  0  0  0
  -22.4400   -4.6360   21.3440 F   0  0  0  0  0  0  0  0  0  0  0  0
  -21.0470   -4.3780   25.9050 F   0  0  0  0  0  0  0  0  0  0  0  0
  -23.4300  -13.8820   21.2110 C   0  0  0  0  0  0  0  0  0  0  0  0
  -22.7210  -13.2030   22.1050 N   0  0  0  0  0  0  0  0  0  0  0  0
  -23.0240  -14.9520   20.7560 O   0  0  0  0  0  0  0  0  0  0  0  0
  -23.0610  -12.3370   22.5010 H   0  0  0  0  0  0  0  0  0  0  0  0
  -21.8230  -13.5570   22.4040 H   0  0  0  0  0  0  0  0  0  0  0  0
  -26.1070  -15.4090   20.2830 N   0  0  0  0  0  0  0  0  0  0  0  0
  -25.3830  -16.1010   20.4420 H   0  0  0  0  0  0  0  0  0  0  0  0
  -26.9630  -15.8110   19.9210 H   0  0  0  0  0  0  0  0  0  0  0  0
  2  3  2  0
  3  1  1  0
  3  8  1  0
  4  1  2  0
  5  2  1  0
  5  4  1  0
  7  5  1  0
  7  6  1  0
  9 10  1  0
  9  8  1  0
 11 22  2  0
 12 10  1  0
 12 17  1  0
 13 21  1  0
 13 23  1  0
 14 20  1  0
 14 16  1  0
 15 21  1  0
 16 15  1  0
 17 16  2  0
 18 19  1  0
 18 12  2  0
 19 14  2  0
 20 13  1  0
 21 11  1  0
 23 25  2  0
 24 23  1  0
 26 24  1  0
 27 36  2  0
 27 32  1  0
 28 24  1  0
 28 32  1  0
 29 28  1  0
 30 31  1  0
 30 29  1  0
 31 27  1  0
 32 33  2  0
 33 34  1  0
 35 34  2  0
 36 35  1  0
 37 11  1  0
 37 38  1  0
 37 47  1  0
 38 41  1  0
 39 43  1  0
 39 38  1  0
 40 39  2  0
 43 42  1  0
 45 43  1  0
 45 46  1  0
 45 44  1  0
 47 50  1  1
 47 48  1  0
 49 47  1  0
 51  4  1  0
 51 52  1  0
 53 52  1  0
 53 62  1  0
 54 60  1  0
 54 62  1  0
 55 60  1  0
 56 57  1  0
 56 55  1  0
 58 57  1  0
 58 67  1  0
 58 59  1  0
 60 59  1  0
 61 54  2  0
 62 63  1  0
 64 65  2  0
 65 84  1  0
 66 65  1  0
 66 69  1  0
 67 68  1  0
 67 64  1  0
 68 66  2  0
 69 70  1  0
 70 71  2  0
 72 75  1  0
 72 71  1  0
 73 72  2  0
 74 73  1  0
 74 69  2  0
 75 76  1  0
 76 81  2  0
 76 77  1  0
 77 78  2  0
 78 79  1  0
 79 83  1  0
 80 79  2  0
 81 80  1  0
 82 81  1  0
 84 85  1  0
 85 88  1  0
 85 87  1  0
 86 84  2  0
 89 64  1  0
 89 90  1  0
 91 89  1  0
M  ISO  4   9 101  10 101  54 100  62 100
M  END
>  <TORSDO>  (77) 
F 22

>  <SCORE>  (77) 
-11.242

>  <name>  (77) 
76

>  <ligand_id>  (77) 
76

>  <original_smiles>  (77) 
[H]c1c([H])c([H])c2c(c1[H])C([H])([H])C([H])([H])C([H])([H])C2([H])N([H])C(=O)C1([H])N(C(=O)C([H])(N([H])C(=O)C([H])(N([H])C([H])([H])[H])C([H])([H])[H])C(C([H])([H])[H])(C([H])([H])[H])C([H])([H])[H])C([H])([H])c2c([H])c(OC([H])([H])C([H])([H])c3c([H])c(C([H])([H])C([H])([H])C([H])([H])N([H])C(=O)N4C([H])([H])C([H])([H])C([H])([H])C([H])(n5nc(-c6c([H])c([H])c(Oc7c([H])c([H])c(F)c([H])c7F)c([H])c6[H])c(C(=O)N([H])[H])c5N([H])[H])C4([H])[H])n(C([H])([H])C([H])([H])[H])c3[H])c([H])c([H])c2C1([H])[H]

>  <smiles>  (77) 
[H]c1c([H])c([H])c2c(c1[H])C([H])([H])C([H])([H])C([H])([H])C2([H])N([H])C(=O)C1([H])N(C(=O)C([H])(N([H])C(=O)C([H])(N([H])C([H])([H])[H])C([H])([H])[H])C(C([H])([H])[H])(C([H])([H])[H])C([H])([H])[H])C([H])([H])c2c([H])c(OC([H])([H])C([H])([H])c3c([H])c(C([H])([H])C([H])([H])C([H])([H])N([H])C(=O)N4C([H])([H])C([H])([H])C([H])([H])C([H])(n5nc(-c6c([H])c([H])c(Oc7c([H])c([H])c(F)c([H])c7F)c([H])c6[H])c(C(=O)N([H])[H])c5N([H])[H])C4([H])[H])n(C([H])([H])C([H])([H])[H])c3[H])c([H])c([H])c2C1([H])[H]

$$$$
77:0:0
     RDKit          3D

 90 98  0  0  1  0  0  0  0  0999 V2000
  -28.4120  -20.0440   20.6990 C   0  0  0  0  0  3  0  0  0  0  0  0
  -29.0060  -18.7590   20.8090 C   0  0  0  0  0  3  0  0  0  0  0  0
  -30.4750  -20.9600   19.8630 C   0  0  0  0  0  3  0  0  0  0  0  0
  -29.1280  -21.1800   20.2370 C   0  0  0  0  0  0  0  0  0  0  0  0
  -30.3490  -18.5310   20.4410 C   0  0  0  0  0  0  0  0  0  0  0  0
  -31.0770  -19.6720   19.9750 C   0  0  0  0  0  0  0  0  0  0  0  0
  -32.7440  -19.5450   19.5440 Cl  0  0  0  0  0  0  0  0  0  0  0  0
  -28.3760  -22.5420   20.0870 C   0  0  0  0  0  2  0  0  0  0  0  0
  -29.0840  -23.9550   20.2260 C   0  0  0  0  0  2  0  0  0  0  0  0
  -28.1040  -25.1340   19.8480 C   0  0  0  0  0  2  0  0  0  0  0  0
  -28.3660  -26.5520   20.1590 O   0  0  0  0  0  0  0  0  0  0  0  0
  -24.6220  -31.9200   23.2130 C   0  0  0  0  0  0  0  0  0  0  0  0
  -27.2520  -27.4080   20.1140 C   0  0  0  0  0  0  0  0  0  0  0  0
  -23.4260  -30.5290   21.5630 C   0  0  0  0  0  3  0  0  0  0  0  0
  -24.8810  -29.0120   20.1220 C   0  0  0  0  0  0  0  0  0  0  0  0
  -25.9660  -30.8620   21.3890 C   0  0  0  0  0  2  0  0  0  0  0  0
  -26.0480  -29.4930   20.7300 C   0  0  0  0  0  0  0  0  0  0  0  0
  -27.2350  -28.7000   20.7200 C   0  0  0  0  0  3  0  0  0  0  0  0
  -26.0590  -26.9900   19.4710 C   0  0  0  0  0  3  0  0  0  0  0  0
  -24.8920  -27.7680   19.4780 C   0  0  0  0  0  3  0  0  0  0  0  0
  -23.6430  -29.8790   20.1730 C   0  0  0  0  0  2  0  0  0  0  0  0
  -24.6900  -31.1220   22.1090 N   0  0  0  0  0  0  0  0  0  0  0  0
  -23.5360  -32.1880   23.7470 O   0  0  0  0  0  0  0  0  0  0  0  0
  -22.7730  -29.4940   22.5120 C   0  0  0  0  0  0  0  0  0  0  0  0
  -21.4490  -29.3020   22.3790 N   0  0  0  0  0  0  0  0  0  0  0  0
  -23.4500  -28.8740   23.3350 O   0  0  0  0  0  0  0  0  0  0  0  0
  -20.9650  -29.8610   21.6950 H   0  0  0  0  0  0  0  0  0  0  0  0
  -18.0690  -28.1090   22.8780 C   0  0  0  0  0  0  0  0  0  0  0  0
  -20.6320  -28.3580   23.1370 C   0  0  0  0  0  3  0  0  0  0  0  0
  -20.7240  -26.9340   22.5370 C   0  0  0  0  0  2  0  0  0  0  0  0
  -19.6140  -26.6290   21.5270 C   0  0  0  0  0  2  0  0  0  0  0  0
  -18.2360  -26.7680   22.1820 C   0  0  0  0  0  2  0  0  0  0  0  0
  -19.1930  -28.8630   23.3100 C   0  0  0  0  0  0  0  0  0  0  0  0
  -18.9810  -30.1170   23.9220 C   0  0  0  0  0  3  0  0  0  0  0  0
  -17.6790  -30.6170   24.1070 C   0  0  0  0  0  3  0  0  0  0  0  0
  -16.5700  -29.8640   23.6860 C   0  0  0  0  0  3  0  0  0  0  0  0
  -16.7650  -28.6120   23.0770 C   0  0  0  0  0  3  0  0  0  0  0  0
  -25.9000  -32.5540   23.8420 C   0  0  0  0  0  3  0  0  0  0  0  0
  -26.4090  -31.7800   25.1210 C   0  0  1  0  0  0  0  0  0  0  0  0
  -25.3020  -31.5260   26.1710 C   0  0  0  0  0  1  0  0  0  0  0  0
  -27.0130  -30.4120   24.7260 C   0  0  0  0  0  1  0  0  0  0  0  0
  -27.5430  -32.5840   25.7970 C   0  0  0  0  0  1  0  0  0  0  0  0
  -25.5820  -33.9510   24.1760 N   0  0  0  0  0  0  0  0  0  0  0  0
  -25.8950  -35.0050   23.4150 C   0  0  0  0  0  0  0  0  0  0  0  0
  -26.5490  -34.9070   22.3730 O   0  0  0  0  0  0  0  0  0  0  0  0
  -24.9960  -34.0980   24.9850 H   0  0  0  0  0  0  0  0  0  0  0  0
  -24.1470  -36.7830   23.0830 C   0  0  0  0  0  1  0  0  0  0  0  0
  -25.4010  -36.3890   23.8800 C   0  0  0  0  0  3  0  0  0  0  0  0
  -27.5270  -37.2960   24.7050 C   0  0  0  0  0  1  0  0  0  0  0  0
  -26.4250  -37.4510   23.7610 N   0  0  0  0  0  0  0  0  0  0  0  0
  -26.0110  -38.3700   23.9000 H   0  0  0  0  0  0  0  0  0  0  0  0
  -31.0220  -17.1290   20.6460 C   0  0  0  0  0  2  0  0  0  0  0  0
  -30.7990  -14.6580   20.1580 C   0  0  0  0  0  0  0  0  0  0  0  0
  -30.3540  -12.4550   19.1090 C   0  0  0  0  0  2  0  0  0  0  0  0
  -29.3840  -12.6260   17.9270 C   0  0  0  0  0  2  0  0  0  0  0  0
  -27.9320  -12.4770   18.4170 C   0  0  0  0  0  2  0  0  0  0  0  0
  -27.6330  -13.3560   19.6660 C   0  0  0  0  0  3  0  0  0  0  0  0
  -28.7440  -13.2430   20.7370 C   0  0  0  0  0  2  0  0  0  0  0  0
  -30.0330  -13.5210   20.0850 N   0  0  0  0  0  0  0  0  0  0  0  0
  -31.9470  -14.6660   19.7250 O   0  0  0  0  0  0  0  0  0  0  0  0
  -30.2420  -15.8460   20.5440 N   0  0  0  0  0  0  0  0  0  0  0  0
  -29.2620  -15.8640   20.7700 H   0  0  0  0  0  0  0  0  0  0  0  0
  -25.2890  -13.9570   20.5200 C   0  0  0  0  0  0  0  0  0  0  0  0
  -24.2250  -13.1890   20.9110 C   0  0  0  0  0  0  0  0  0  0  0  0
  -24.6630  -11.8320   20.8190 C   0  0  0  0  0  0  0  0  0  0  0  0
  -26.3060  -13.0710   20.2110 N   0  0  0  0  0  0  0  0  0  0  0  0
  -25.9380  -11.7850   20.4490 N   0  0  0  0  0  0  0  0  0  0  0  0
  -23.9200  -10.5780   21.0000 C   0  0  0  0  0  0  0  0  0  0  0  0
  -24.3460   -9.5900   21.9150 C   0  0  0  0  0  3  0  0  0  0  0  0
  -23.6010   -8.4020   22.0860 C   0  0  0  0  0  3  0  0  0  0  0  0
  -22.4150   -8.1950   21.3440 C   0  0  0  0  0  0  0  0  0  0  0  0
  -22.0060   -9.1720   20.4190 C   0  0  0  0  0  3  0  0  0  0  0  0
  -22.7510  -10.3500   20.2450 C   0  0  0  0  0  3  0  0  0  0  0  0
  -21.6420   -7.0610   21.4280 O   0  0  0  0  0  0  0  0  0  0  0  0
  -21.5570   -6.3320   22.5870 C   0  0  0  0  0  0  0  0  0  0  0  0
  -21.0410   -6.8800   23.7820 C   0  0  0  0  0  3  0  0  0  0  0  0
  -20.9120   -6.0730   24.9290 C   0  0  0  0  0  3  0  0  0  0  0  0
  -21.2840   -4.7160   24.8820 C   0  0  0  0  0  0  0  0  0  0  0  0
  -21.7920   -4.1660   23.6920 C   0  0  0  0  0  3  0  0  0  0  0  0
  -21.9250   -4.9710   22.5480 C   0  0  0  0  0  0  0  0  0  0  0  0
  -22.3960   -4.4320   21.3970 F   0  0  0  0  0  0  0  0  0  0  0  0
  -21.1530   -3.9390   25.9810 F   0  0  0  0  0  0  0  0  0  0  0  0
  -22.8510  -13.6830   21.2570 C   0  0  0  0  0  0  0  0  0  0  0  0
  -22.1470  -12.9790   22.1380 N   0  0  0  0  0  0  0  0  0  0  0  0
  -22.4110  -14.7310   20.7870 O   0  0  0  0  0  0  0  0  0  0  0  0
  -22.5110  -12.1300   22.5430 H   0  0  0  0  0  0  0  0  0  0  0  0
  -21.2280  -13.2960   22.4120 H   0  0  0  0  0  0  0  0  0  0  0  0
  -25.4610  -15.3290   20.3790 N   0  0  0  0  0  0  0  0  0  0  0  0
  -24.7030  -15.9810   20.5490 H   0  0  0  0  0  0  0  0  0  0  0  0
  -26.2920  -15.7770   20.0130 H   0  0  0  0  0  0  0  0  0  0  0  0
  1  2  1  0
  3  6  2  0
  3  4  1  0
  4  1  2  0
  5 52  1  0
  5  2  2  0
  6  5  1  0
  7  6  1  0
  8  9  1  0
  8  4  1  0
 10 11  1  0
 10  9  1  0
 12 23  2  0
 13 11  1  0
 13 18  1  0
 14 22  1  0
 14 24  1  0
 15 21  1  0
 15 17  1  0
 16 22  1  0
 17 16  1  0
 18 17  2  0
 19 20  1  0
 19 13  2  0
 20 15  2  0
 21 14  1  0
 22 12  1  0
 24 26  2  0
 25 24  1  0
 27 25  1  0
 28 37  2  0
 28 33  1  0
 29 25  1  0
 29 33  1  0
 30 29  1  0
 31 32  1  0
 31 30  1  0
 32 28  1  0
 33 34  2  0
 34 35  1  0
 36 35  2  0
 37 36  1  0
 38 12  1  0
 38 43  1  0
 38 39  1  0
 39 42  1  1
 39 40  1  0
 41 39  1  0
 43 46  1  0
 44 48  1  0
 44 43  1  0
 45 44  2  0
 48 47  1  0
 50 48  1  0
 50 51  1  0
 50 49  1  0
 53 61  1  0
 54 59  1  0
 55 56  1  0
 55 54  1  0
 57 56  1  0
 57 66  1  0
 57 58  1  0
 59 53  1  0
 59 58  1  0
 60 53  2  0
 61 52  1  0
 61 62  1  0
 63 64  2  0
 64 83  1  0
 65 64  1  0
 65 68  1  0
 66 67  1  0
 66 63  1  0
 67 65  2  0
 68 69  1  0
 69 70  2  0
 71 74  1  0
 71 70  1  0
 72 71  2  0
 73 72  1  0
 73 68  2  0
 74 75  1  0
 75 76  1  0
 76 77  2  0
 78 77  1  0
 78 82  1  0
 79 78  2  0
 80 75  2  0
 80 79  1  0
 81 80  1  0
 83 84  1  0
 84 87  1  0
 84 86  1  0
 85 83  2  0
 88 63  1  0
 88 89  1  0
 90 88  1  0
M  ISO  4  10 101  11 101  53 100  61 100
M  END
>  <TORSDO>  (78) 
F 20

>  <SCORE>  (78) 
-13.661

>  <name>  (78) 
77

>  <ligand_id>  (78) 
77

>  <original_smiles>  (78) 
[H]c1c([H])c([H])c2c(c1[H])C([H])([H])C([H])([H])C([H])([H])C2([H])N([H])C(=O)C1([H])N(C(=O)C([H])(N([H])C(=O)C([H])(N([H])C([H])([H])[H])C([H])([H])[H])C(C([H])([H])[H])(C([H])([H])[H])C([H])([H])[H])C([H])([H])c2c([H])c(OC([H])([H])C([H])([H])C([H])([H])c3c([H])c([H])c(C([H])([H])N([H])C(=O)N4C([H])([H])C([H])([H])C([H])([H])C([H])(n5nc(-c6c([H])c([H])c(Oc7c([H])c([H])c(F)c([H])c7F)c([H])c6[H])c(C(=O)N([H])[H])c5N([H])[H])C4([H])[H])c(Cl)c3[H])c([H])c([H])c2C1([H])[H]

>  <smiles>  (78) 
[H]c1c([H])c([H])c2c(c1[H])C([H])([H])C([H])([H])C([H])([H])C2([H])N([H])C(=O)C1([H])N(C(=O)C([H])(N([H])C(=O)C([H])(N([H])C([H])([H])[H])C([H])([H])[H])C(C([H])([H])[H])(C([H])([H])[H])C([H])([H])[H])C([H])([H])c2c([H])c(OC([H])([H])C([H])([H])C([H])([H])c3c([H])c([H])c(C([H])([H])N([H])C(=O)N4C([H])([H])C([H])([H])C([H])([H])C([H])(n5nc(-c6c([H])c([H])c(Oc7c([H])c([H])c(F)c([H])c7F)c([H])c6[H])c(C(=O)N([H])[H])c5N([H])[H])C4([H])[H])c(Cl)c3[H])c([H])c([H])c2C1([H])[H]

$$$$
78:0:0
     RDKit          3D

 93101  0  0  1  0  0  0  0  0999 V2000
  -27.0950  -21.2420   19.5890 C   0  0  0  0  0  0  0  0  0  0  0  0
  -29.2270  -22.1740   20.9690 C   0  0  0  0  0  0  0  0  0  0  0  0
  -28.1700  -20.3860   19.9430 C   0  0  0  0  0  0  0  0  0  0  0  0
  -28.1420  -23.0240   20.6260 C   0  0  0  0  0  0  0  0  0  0  0  0
  -25.8790  -20.7420   18.8300 C   0  0  0  0  0  1  0  0  0  0  0  0
  -30.4300  -22.6720   21.7450 C   0  0  0  0  0  1  0  0  0  0  0  0
  -29.2410  -20.8620   20.6270 N   0  0  0  0  0  0  0  0  0  0  0  0
  -27.0830  -22.5550   19.9210 N   0  0  0  0  0  0  0  0  0  0  0  0
  -28.1340  -18.8950   19.5900 C   0  0  0  0  0  2  0  0  0  0  0  0
  -29.4340  -18.0730   19.7570 C   0  0  0  0  0  2  0  0  0  0  0  0
  -29.8240  -17.7760   21.2210 C   0  0  0  0  0  2  0  0  0  0  0  0
  -30.9330  -16.7140   21.3690 C   0  0  0  0  0  2  0  0  0  0  0  0
  -30.9950  -14.4590   20.2620 C   0  0  0  0  0  0  0  0  0  0  0  0
  -30.6140  -12.3280   19.0750 C   0  0  0  0  0  2  0  0  0  0  0  0
  -29.6360  -12.5320   17.9010 C   0  0  0  0  0  2  0  0  0  0  0  0
  -28.1750  -12.4200   18.3760 C   0  0  0  0  0  2  0  0  0  0  0  0
  -27.8870  -13.2770   19.6370 C   0  0  0  0  0  3  0  0  0  0  0  0
  -28.9650  -13.0330   20.7150 C   0  0  0  0  0  2  0  0  0  0  0  0
  -30.2850  -13.3100   20.1180 N   0  0  0  0  0  0  0  0  0  0  0  0
  -32.0480  -14.6860   19.6580 O   0  0  0  0  0  0  0  0  0  0  0  0
  -30.4400  -15.3670   21.0760 N   0  0  0  0  0  0  0  0  0  0  0  0
  -29.5800  -15.0870   21.5260 H   0  0  0  0  0  0  0  0  0  0  0  0
  -25.5230  -13.9360   20.4220 C   0  0  0  0  0  0  0  0  0  0  0  0
  -24.4480  -13.1850   20.8190 C   0  0  0  0  0  0  0  0  0  0  0  0
  -24.8750  -11.8240   20.7600 C   0  0  0  0  0  0  0  0  0  0  0  0
  -26.5390  -13.0330   20.1520 N   0  0  0  0  0  0  0  0  0  0  0  0
  -26.1530  -11.7570   20.4100 N   0  0  0  0  0  0  0  0  0  0  0  0
  -24.1260  -10.5770   20.9620 C   0  0  0  0  0  0  0  0  0  0  0  0
  -24.5050   -9.6390   21.9470 C   0  0  0  0  0  3  0  0  0  0  0  0
  -23.7600   -8.4550   22.1340 C   0  0  0  0  0  3  0  0  0  0  0  0
  -22.6220   -8.2010   21.3330 C   0  0  0  0  0  0  0  0  0  0  0  0
  -22.2610   -9.1260   20.3380 C   0  0  0  0  0  3  0  0  0  0  0  0
  -23.0060  -10.3020   20.1510 C   0  0  0  0  0  3  0  0  0  0  0  0
  -21.8520   -7.0660   21.4240 O   0  0  0  0  0  0  0  0  0  0  0  0
  -21.6730   -6.4120   22.6180 C   0  0  0  0  0  0  0  0  0  0  0  0
  -21.0640   -7.0400   23.7260 C   0  0  0  0  0  3  0  0  0  0  0  0
  -20.8380   -6.3100   24.9100 C   0  0  0  0  0  3  0  0  0  0  0  0
  -21.2100   -4.9530   24.9840 C   0  0  0  0  0  0  0  0  0  0  0  0
  -21.8120   -4.3260   23.8790 C   0  0  0  0  0  3  0  0  0  0  0  0
  -22.0400   -5.0540   22.6980 C   0  0  0  0  0  0  0  0  0  0  0  0
  -22.6020   -4.4390   21.6290 F   0  0  0  0  0  0  0  0  0  0  0  0
  -20.9820   -4.2490   26.1170 F   0  0  0  0  0  0  0  0  0  0  0  0
  -23.0720  -13.6930   21.1410 C   0  0  0  0  0  0  0  0  0  0  0  0
  -22.3510  -13.0040   22.0190 N   0  0  0  0  0  0  0  0  0  0  0  0
  -22.6450  -14.7370   20.6500 O   0  0  0  0  0  0  0  0  0  0  0  0
  -22.7060  -12.1580   22.4410 H   0  0  0  0  0  0  0  0  0  0  0  0
  -21.4290  -13.3290   22.2710 H   0  0  0  0  0  0  0  0  0  0  0  0
  -25.7150  -15.3050   20.2520 N   0  0  0  0  0  0  0  0  0  0  0  0
  -24.9700  -15.9770   20.3930 H   0  0  0  0  0  0  0  0  0  0  0  0
  -26.5650  -15.7210   19.8970 H   0  0  0  0  0  0  0  0  0  0  0  0
  -28.0670  -24.4900   21.0390 C   0  0  0  0  0  2  0  0  0  0  0  0
  -28.6620  -25.4590   19.9990 C   0  0  0  0  0  2  0  0  0  0  0  0
  -28.5640  -26.8190   20.4380 O   0  0  0  0  0  0  0  0  0  0  0  0
  -24.5400  -31.9280   23.3000 C   0  0  0  0  0  0  0  0  0  0  0  0
  -27.3540  -27.4810   20.3780 C   0  0  0  0  0  0  0  0  0  0  0  0
  -23.4190  -30.5060   21.6140 C   0  0  0  0  0  3  0  0  0  0  0  0
  -24.9440  -28.9650   20.2750 C   0  0  0  0  0  0  0  0  0  0  0  0
  -25.9500  -30.8780   21.5340 C   0  0  0  0  0  2  0  0  0  0  0  0
  -26.0690  -29.5030   20.9100 C   0  0  0  0  0  0  0  0  0  0  0  0
  -27.2740  -28.7690   20.9570 C   0  0  0  0  0  3  0  0  0  0  0  0
  -26.2010  -26.9490   19.7520 C   0  0  0  0  0  3  0  0  0  0  0  0
  -25.0040  -27.6860   19.6980 C   0  0  0  0  0  3  0  0  0  0  0  0
  -23.6960  -29.8170   20.2520 C   0  0  0  0  0  2  0  0  0  0  0  0
  -24.6520  -31.1200   22.2080 N   0  0  0  0  0  0  0  0  0  0  0  0
  -23.4330  -32.1990   23.7860 O   0  0  0  0  0  0  0  0  0  0  0  0
  -22.7290  -29.4890   22.5510 C   0  0  0  0  0  0  0  0  0  0  0  0
  -21.4030  -29.3410   22.3990 N   0  0  0  0  0  0  0  0  0  0  0  0
  -23.3840  -28.8360   23.3680 O   0  0  0  0  0  0  0  0  0  0  0  0
  -20.9390  -29.9200   21.7130 H   0  0  0  0  0  0  0  0  0  0  0  0
  -17.9800  -28.3020   22.8980 C   0  0  0  0  0  0  0  0  0  0  0  0
  -20.5500  -28.4150   23.1420 C   0  0  0  0  0  3  0  0  0  0  0  0
  -20.5700  -27.0070   22.5030 C   0  0  0  0  0  2  0  0  0  0  0  0
  -19.4390  -26.7850   21.4950 C   0  0  0  0  0  2  0  0  0  0  0  0
  -18.0760  -26.9750   22.1660 C   0  0  0  0  0  2  0  0  0  0  0  0
  -19.1420  -28.9860   23.3430 C   0  0  0  0  0  0  0  0  0  0  0  0
  -19.0000  -30.2340   23.9870 C   0  0  0  0  0  3  0  0  0  0  0  0
  -17.7250  -30.7960   24.1930 C   0  0  0  0  0  3  0  0  0  0  0  0
  -16.5770  -30.1080   23.7660 C   0  0  0  0  0  3  0  0  0  0  0  0
  -16.7050  -28.8630   23.1250 C   0  0  0  0  0  3  0  0  0  0  0  0
  -25.7920  -32.5700   23.9750 C   0  0  0  0  0  3  0  0  0  0  0  0
  -25.4730  -33.9760   24.2540 N   0  0  0  0  0  0  0  0  0  0  0  0
  -25.8580  -35.0080   23.4920 C   0  0  0  0  0  0  0  0  0  0  0  0
  -26.5900  -34.8780   22.5070 O   0  0  0  0  0  0  0  0  0  0  0  0
  -24.8340  -34.1520   25.0150 H   0  0  0  0  0  0  0  0  0  0  0  0
  -24.1810  -36.8070   22.9710 C   0  0  0  0  0  1  0  0  0  0  0  0
  -25.3500  -36.4080   23.8850 C   0  0  0  0  0  3  0  0  0  0  0  0
  -27.4140  -37.2950   24.8760 C   0  0  0  0  0  1  0  0  0  0  0  0
  -26.3980  -37.4500   23.8380 N   0  0  0  0  0  0  0  0  0  0  0  0
  -25.9900  -38.3770   23.9300 H   0  0  0  0  0  0  0  0  0  0  0  0
  -26.2380  -31.8250   25.2930 C   0  0  1  0  0  0  0  0  0  0  0  0
  -25.0850  -31.5990   26.2990 C   0  0  0  0  0  1  0  0  0  0  0  0
  -26.8520  -30.4450   24.9610 C   0  0  0  0  0  1  0  0  0  0  0  0
  -27.3410  -32.6410   26.0080 C   0  0  0  0  0  1  0  0  0  0  0  0
  1  8  2  0
  1  3  1  0
  2  6  1  0
  3  7  2  0
  4  2  2  0
  4 51  1  0
  5  1  1  0
  7  2  1  0
  8  4  1  0
  9 10  1  0
  9  3  1  0
 10 11  1  0
 11 12  1  0
 13 21  1  0
 14 19  1  0
 15 16  1  0
 15 14  1  0
 17 16  1  0
 17 26  1  0
 17 18  1  0
 19 13  1  0
 19 18  1  0
 20 13  2  0
 21 12  1  0
 21 22  1  0
 23 24  2  0
 24 43  1  0
 25 24  1  0
 25 28  1  0
 26 27  1  0
 26 23  1  0
 27 25  2  0
 28 29  1  0
 29 30  2  0
 31 34  1  0
 31 30  1  0
 32 31  2  0
 33 32  1  0
 33 28  2  0
 34 35  1  0
 35 40  2  0
 35 36  1  0
 36 37  2  0
 37 38  1  0
 38 42  1  0
 39 38  2  0
 40 39  1  0
 41 40  1  0
 43 44  1  0
 44 47  1  0
 44 46  1  0
 45 43  2  0
 48 49  1  0
 48 23  1  0
 50 48  1  0
 52 53  1  0
 52 51  1  0
 54 65  2  0
 55 53  1  0
 55 60  1  0
 56 64  1  0
 56 66  1  0
 57 59  1  0
 58 64  1  0
 59 60  2  0
 59 58  1  0
 61 55  2  0
 62 61  1  0
 62 57  2  0
 63 57  1  0
 63 56  1  0
 64 54  1  0
 66 68  2  0
 67 66  1  0
 69 67  1  0
 70 79  2  0
 70 75  1  0
 71 67  1  0
 71 75  1  0
 72 71  1  0
 73 74  1  0
 73 72  1  0
 74 70  1  0
 75 76  2  0
 76 77  1  0
 78 77  2  0
 79 78  1  0
 80 54  1  0
 80 81  1  0
 80 90  1  0
 81 84  1  0
 82 86  1  0
 82 81  1  0
 83 82  2  0
 86 85  1  0
 88 86  1  0
 88 89  1  0
 88 87  1  0
 90 93  1  1
 90 91  1  0
 92 90  1  0
M  ISO  4  13 100  21 100  52 101  53 101
M  END
>  <TORSDO>  (79) 
F 22

>  <SCORE>  (79) 
-12.773

>  <name>  (79) 
78

>  <ligand_id>  (79) 
78

>  <original_smiles>  (79) 
[H]c1c([H])c([H])c2c(c1[H])C([H])([H])C([H])([H])C([H])([H])C2([H])N([H])C(=O)C1([H])N(C(=O)C([H])(N([H])C(=O)C([H])(N([H])C([H])([H])[H])C([H])([H])[H])C(C([H])([H])[H])(C([H])([H])[H])C([H])([H])[H])C([H])([H])c2c([H])c(OC([H])([H])C([H])([H])c3nc(C([H])([H])[H])c(C([H])([H])C([H])([H])C([H])([H])C([H])([H])N([H])C(=O)N4C([H])([H])C([H])([H])C([H])([H])C([H])(n5nc(-c6c([H])c([H])c(Oc7c([H])c([H])c(F)c([H])c7F)c([H])c6[H])c(C(=O)N([H])[H])c5N([H])[H])C4([H])[H])nc3C([H])([H])[H])c([H])c([H])c2C1([H])[H]

>  <smiles>  (79) 
[H]c1c([H])c([H])c2c(c1[H])C([H])([H])C([H])([H])C([H])([H])C2([H])N([H])C(=O)C1([H])N(C(=O)C([H])(N([H])C(=O)C([H])(N([H])C([H])([H])[H])C([H])([H])[H])C(C([H])([H])[H])(C([H])([H])[H])C([H])([H])[H])C([H])([H])c2c([H])c(OC([H])([H])C([H])([H])c3nc(C([H])([H])[H])c(C([H])([H])C([H])([H])C([H])([H])C([H])([H])N([H])C(=O)N4C([H])([H])C([H])([H])C([H])([H])C([H])(n5nc(-c6c([H])c([H])c(Oc7c([H])c([H])c(F)c([H])c7F)c([H])c6[H])c(C(=O)N([H])[H])c5N([H])[H])C4([H])[H])nc3C([H])([H])[H])c([H])c([H])c2C1([H])[H]

$$$$
79:0:0
     RDKit          3D

 91 99  0  0  1  0  0  0  0  0999 V2000
  -30.2240  -17.8420   18.2080 C   0  0  0  0  0  3  0  0  0  0  0  0
  -29.5200  -20.4350   17.9120 C   0  0  0  0  0  3  0  0  0  0  0  0
  -29.9420  -18.5480   19.4050 C   0  0  0  0  0  0  0  0  0  0  0  0
  -29.5920  -19.9940   19.2700 C   0  0  0  0  0  0  0  0  0  0  0  0
  -30.1550  -18.4530   16.9550 C   0  0  0  0  0  0  0  0  0  0  0  0
  -30.5050  -17.7020   15.6880 C   0  0  0  0  0  1  0  0  0  0  0  0
  -29.7890  -19.7250   16.8050 N   0  0  0  0  0  0  0  0  0  0  0  0
  -30.1300  -17.6060   20.6680 C   0  0  0  0  0  2  0  0  0  0  0  0
  -30.6220  -14.9800   20.2850 C   0  0  0  0  0  0  0  0  0  0  0  0
  -30.4040  -12.7430   19.1730 C   0  0  0  0  0  2  0  0  0  0  0  0
  -29.4210  -12.8620   17.9870 C   0  0  0  0  0  2  0  0  0  0  0  0
  -27.9690  -12.6480   18.4620 C   0  0  0  0  0  2  0  0  0  0  0  0
  -27.6300  -13.4760   19.7300 C   0  0  0  0  0  3  0  0  0  0  0  0
  -28.7310  -13.3530   20.8060 C   0  0  0  0  0  2  0  0  0  0  0  0
  -30.0000  -13.7510   20.1800 N   0  0  0  0  0  0  0  0  0  0  0  0
  -31.8030  -15.1000   19.9490 O   0  0  0  0  0  0  0  0  0  0  0  0
  -29.8390  -16.0910   20.5590 N   0  0  0  0  0  0  0  0  0  0  0  0
  -28.8780  -15.8580   20.7490 H   0  0  0  0  0  0  0  0  0  0  0  0
  -25.2560  -14.0100   20.5430 C   0  0  0  0  0  0  0  0  0  0  0  0
  -24.2140  -13.2100   20.9260 C   0  0  0  0  0  0  0  0  0  0  0  0
  -24.6990  -11.8680   20.8520 C   0  0  0  0  0  0  0  0  0  0  0  0
  -26.3070  -13.1530   20.2570 N   0  0  0  0  0  0  0  0  0  0  0  0
  -25.9810  -11.8590   20.5060 N   0  0  0  0  0  0  0  0  0  0  0  0
  -23.9980  -10.5900   21.0320 C   0  0  0  0  0  0  0  0  0  0  0  0
  -24.4420   -9.6290   21.9680 C   0  0  0  0  0  3  0  0  0  0  0  0
  -23.7400   -8.4170   22.1360 C   0  0  0  0  0  3  0  0  0  0  0  0
  -22.5800   -8.1550   21.3690 C   0  0  0  0  0  0  0  0  0  0  0  0
  -22.1530   -9.1060   20.4230 C   0  0  0  0  0  3  0  0  0  0  0  0
  -22.8560  -10.3100   20.2550 C   0  0  0  0  0  3  0  0  0  0  0  0
  -21.8480   -6.9940   21.4470 O   0  0  0  0  0  0  0  0  0  0  0  0
  -21.7780   -6.2650   22.6060 C   0  0  0  0  0  0  0  0  0  0  0  0
  -21.2580   -6.8120   23.8000 C   0  0  0  0  0  3  0  0  0  0  0  0
  -21.1390   -6.0040   24.9490 C   0  0  0  0  0  3  0  0  0  0  0  0
  -21.5290   -4.6520   24.9050 C   0  0  0  0  0  0  0  0  0  0  0  0
  -22.0400   -4.1050   23.7140 C   0  0  0  0  0  3  0  0  0  0  0  0
  -22.1600   -4.9090   22.5670 C   0  0  0  0  0  0  0  0  0  0  0  0
  -22.6330   -4.3720   21.4170 F   0  0  0  0  0  0  0  0  0  0  0  0
  -21.4090   -3.8740   26.0060 F   0  0  0  0  0  0  0  0  0  0  0  0
  -22.8180  -13.6580   21.2450 C   0  0  0  0  0  0  0  0  0  0  0  0
  -22.1230  -12.9250   22.1080 N   0  0  0  0  0  0  0  0  0  0  0  0
  -22.3520  -14.6900   20.7660 O   0  0  0  0  0  0  0  0  0  0  0  0
  -22.5130  -12.0890   22.5200 H   0  0  0  0  0  0  0  0  0  0  0  0
  -21.1860  -13.2070   22.3610 H   0  0  0  0  0  0  0  0  0  0  0  0
  -25.3910  -15.3860   20.3820 N   0  0  0  0  0  0  0  0  0  0  0  0
  -24.6100  -16.0210   20.4960 H   0  0  0  0  0  0  0  0  0  0  0  0
  -26.2050  -15.8370   19.9860 H   0  0  0  0  0  0  0  0  0  0  0  0
  -29.3300  -21.0040   20.2640 O   0  0  0  0  0  0  0  0  0  0  0  0
  -29.0170  -22.4300   19.8210 C   0  0  0  0  0  2  0  0  0  0  0  0
  -28.8300  -23.7680   20.7250 C   0  0  0  0  0  3  0  0  0  0  0  0
  -28.1750  -25.0820   20.0130 C   0  0  0  0  0  3  0  0  0  0  0  0
  -28.2770  -26.5130   20.5110 O   0  0  0  0  0  0  0  0  0  0  0  0
  -24.6180  -32.0720   23.4560 C   0  0  0  0  0  0  0  0  0  0  0  0
  -27.1910  -27.4270   20.4130 C   0  0  0  0  0  0  0  0  0  0  0  0
  -23.4180  -30.6900   21.8050 C   0  0  0  0  0  3  0  0  0  0  0  0
  -24.8610  -29.1260   20.3840 C   0  0  0  0  0  0  0  0  0  0  0  0
  -25.9690  -30.9580   21.6560 C   0  0  0  0  0  2  0  0  0  0  0  0
  -26.0340  -29.5770   21.0010 C   0  0  0  0  0  0  0  0  0  0  0  0
  -27.1980  -28.7380   21.0110 C   0  0  0  0  0  3  0  0  0  0  0  0
  -25.9970  -27.0670   19.7460 C   0  0  0  0  0  3  0  0  0  0  0  0
  -24.8460  -27.8780   19.7510 C   0  0  0  0  0  3  0  0  0  0  0  0
  -23.6390  -30.0220   20.4230 C   0  0  0  0  0  2  0  0  0  0  0  0
  -24.6880  -31.2580   22.3610 N   0  0  0  0  0  0  0  0  0  0  0  0
  -23.5310  -32.3630   23.9770 O   0  0  0  0  0  0  0  0  0  0  0  0
  -22.7320  -29.6780   22.7560 C   0  0  0  0  0  0  0  0  0  0  0  0
  -21.4130  -29.4790   22.5850 N   0  0  0  0  0  0  0  0  0  0  0  0
  -23.3870  -29.0760   23.6120 O   0  0  0  0  0  0  0  0  0  0  0  0
  -20.9410  -30.0220   21.8760 H   0  0  0  0  0  0  0  0  0  0  0  0
  -18.0450  -28.2090   22.9670 C   0  0  0  0  0  0  0  0  0  0  0  0
  -20.5820  -28.5400   23.3420 C   0  0  0  0  0  3  0  0  0  0  0  0
  -20.7420  -27.0970   22.8110 C   0  0  0  0  0  2  0  0  0  0  0  0
  -19.6940  -26.7210   21.7580 C   0  0  0  0  0  2  0  0  0  0  0  0
  -18.2830  -26.8480   22.3360 C   0  0  0  0  0  2  0  0  0  0  0  0
  -19.1250  -29.0100   23.4250 C   0  0  0  0  0  0  0  0  0  0  0  0
  -18.8480  -30.2810   23.9720 C   0  0  0  0  0  3  0  0  0  0  0  0
  -17.5240  -30.7540   24.0670 C   0  0  0  0  0  3  0  0  0  0  0  0
  -16.4590  -29.9500   23.6240 C   0  0  0  0  0  3  0  0  0  0  0  0
  -16.7200  -28.6810   23.0800 C   0  0  0  0  0  3  0  0  0  0  0  0
  -25.9000  -32.6940   24.0900 C   0  0  0  0  0  3  0  0  0  0  0  0
  -25.5920  -34.0910   24.4310 N   0  0  0  0  0  0  0  0  0  0  0  0
  -25.9180  -35.1500   23.6790 C   0  0  0  0  0  0  0  0  0  0  0  0
  -26.5760  -35.0540   22.6400 O   0  0  0  0  0  0  0  0  0  0  0  0
  -25.0030  -34.2380   25.2370 H   0  0  0  0  0  0  0  0  0  0  0  0
  -24.1840  -36.9480   23.3730 C   0  0  0  0  0  1  0  0  0  0  0  0
  -25.4400  -36.5360   24.1570 C   0  0  0  0  0  3  0  0  0  0  0  0
  -27.5840  -37.4230   24.9620 C   0  0  0  0  0  1  0  0  0  0  0  0
  -26.4700  -37.5890   24.0310 N   0  0  0  0  0  0  0  0  0  0  0  0
  -26.0660  -38.5100   24.1820 H   0  0  0  0  0  0  0  0  0  0  0  0
  -26.4030  -31.9130   25.3660 C   0  0  1  0  0  0  0  0  0  0  0  0
  -25.2940  -31.6370   26.4080 C   0  0  0  0  0  1  0  0  0  0  0  0
  -27.0230  -30.5530   24.9690 C   0  0  0  0  0  1  0  0  0  0  0  0
  -27.5210  -32.7220   26.0670 C   0  0  0  0  0  1  0  0  0  0  0  0
  1  3  1  0
  2  4  1  0
  3  8  1  0
  4  3  2  0
  4 47  1  0
  5  1  2  0
  6  5  1  0
  7  5  1  0
  7  2  2  0
  9 17  1  0
 10 15  1  0
 11 12  1  0
 11 10  1  0
 13 12  1  0
 13 22  1  0
 13 14  1  0
 15  9  1  0
 15 14  1  0
 16  9  2  0
 17  8  1  0
 17 18  1  0
 19 20  2  0
 20 39  1  0
 21 20  1  0
 21 24  1  0
 22 23  1  0
 22 19  1  0
 23 21  2  0
 24 25  1  0
 25 26  2  0
 27 30  1  0
 27 26  1  0
 28 27  2  0
 29 28  1  0
 29 24  2  0
 30 31  1  0
 31 32  1  0
 32 33  2  0
 34 33  1  0
 34 38  1  0
 35 34  2  0
 36 31  2  0
 36 35  1  0
 37 36  1  0
 39 40  1  0
 40 43  1  0
 40 42  1  0
 41 39  2  0
 44 45  1  0
 44 19  1  0
 46 44  1  0
 48 47  1  0
 48 49  1  0
 50 51  1  0
 50 49  2  0
 52 63  2  0
 53 51  1  0
 53 58  1  0
 54 62  1  0
 54 64  1  0
 55 61  1  0
 55 57  1  0
 56 62  1  0
 57 58  2  0
 57 56  1  0
 59 60  1  0
 59 53  2  0
 60 55  2  0
 61 54  1  0
 62 52  1  0
 64 66  2  0
 65 64  1  0
 67 65  1  0
 68 77  2  0
 68 73  1  0
 69 65  1  0
 69 73  1  0
 70 69  1  0
 71 72  1  0
 71 70  1  0
 72 68  1  0
 73 74  2  0
 74 75  1  0
 76 75  2  0
 77 76  1  0
 78 52  1  0
 78 79  1  0
 78 88  1  0
 79 82  1  0
 80 84  1  0
 80 79  1  0
 81 80  2  0
 84 83  1  0
 86 84  1  0
 86 87  1  0
 86 85  1  0
 88 91  1  1
 88 89  1  0
 90 88  1  0
M  ISO  4   9 100  17 100  50 101  51 101
M  END
>  <TORSDO>  (80) 
F 21

>  <SCORE>  (80) 
-12.791

>  <name>  (80) 
79

>  <ligand_id>  (80) 
79

>  <original_smiles>  (80) 
[H]c1nc(C([H])([H])[H])c([H])c(C([H])([H])N([H])C(=O)N2C([H])([H])C([H])([H])C([H])([H])C([H])(n3nc(-c4c([H])c([H])c(Oc5c([H])c([H])c(F)c([H])c5F)c([H])c4[H])c(C(=O)N([H])[H])c3N([H])[H])C2([H])[H])c1OC([H])([H])C([H])([H])C([H])([H])Oc1c([H])c([H])c2c(c1[H])C([H])([H])N(C(=O)C([H])(N([H])C(=O)C([H])(N([H])C([H])([H])[H])C([H])([H])[H])C(C([H])([H])[H])(C([H])([H])[H])C([H])([H])[H])C([H])(C(=O)N([H])C1([H])c3c([H])c([H])c([H])c([H])c3C([H])([H])C([H])([H])C1([H])[H])C2([H])[H]

>  <smiles>  (80) 
[H]c1nc(C([H])([H])[H])c([H])c(C([H])([H])N([H])C(=O)N2C([H])([H])C([H])([H])C([H])([H])C([H])(n3nc(-c4c([H])c([H])c(Oc5c([H])c([H])c(F)c([H])c5F)c([H])c4[H])c(C(=O)N([H])[H])c3N([H])[H])C2([H])[H])c1OC([H])([H])C([H])([H])C([H])([H])Oc1c([H])c([H])c2c(c1[H])C([H])([H])N(C(=O)C([H])(N([H])C(=O)C([H])(N([H])C([H])([H])[H])C([H])([H])[H])C(C([H])([H])[H])(C([H])([H])[H])C([H])([H])[H])C([H])(C(=O)N([H])C1([H])c3c([H])c([H])c([H])c([H])c3C([H])([H])C([H])([H])C1([H])[H])C2([H])[H]

$$$$
80:0:0
     RDKit          3D

 91 99  0  0  1  0  0  0  0  0999 V2000
  -28.6560  -22.9070   20.5620 C   0  0  0  0  0  3  0  0  0  0  0  0
  -31.3540  -23.2660   20.8470 C   0  0  0  0  0  3  0  0  0  0  0  0
  -29.1300  -24.2320   20.7420 C   0  0  0  0  0  0  0  0  0  0  0  0
  -30.5230  -24.4070   20.9160 C   0  0  0  0  0  0  0  0  0  0  0  0
  -29.5580  -21.8210   20.5640 C   0  0  0  0  0  0  0  0  0  0  0  0
  -30.8920  -22.0080   20.6630 N   0  0  0  0  0  0  0  0  0  0  0  0
  -31.2190  -25.9520   21.2590 Cl  0  0  0  0  0  0  0  0  0  0  0  0
  -28.1120  -25.3750   20.8860 C   0  0  0  0  0  2  0  0  0  0  0  0
  -28.3600  -26.6150   20.1780 O   0  0  0  0  0  0  0  0  0  0  0  0
  -24.6050  -31.8810   23.2320 C   0  0  0  0  0  0  0  0  0  0  0  0
  -27.2380  -27.4230   20.1360 C   0  0  0  0  0  0  0  0  0  0  0  0
  -23.4000  -30.4810   21.5920 C   0  0  0  0  0  3  0  0  0  0  0  0
  -24.8500  -28.9460   20.1600 C   0  0  0  0  0  0  0  0  0  0  0  0
  -25.9310  -30.8310   21.3960 C   0  0  0  0  0  2  0  0  0  0  0  0
  -26.0140  -29.4620   20.7440 C   0  0  0  0  0  0  0  0  0  0  0  0
  -27.2130  -28.7090   20.7280 C   0  0  0  0  0  3  0  0  0  0  0  0
  -26.0600  -26.9400   19.5230 C   0  0  0  0  0  3  0  0  0  0  0  0
  -24.8660  -27.6830   19.5460 C   0  0  0  0  0  3  0  0  0  0  0  0
  -23.6040  -29.8010   20.2130 C   0  0  0  0  0  2  0  0  0  0  0  0
  -24.6640  -31.0790   22.1300 N   0  0  0  0  0  0  0  0  0  0  0  0
  -23.5250  -32.1540   23.7730 O   0  0  0  0  0  0  0  0  0  0  0  0
  -22.7500  -29.4590   22.5530 C   0  0  0  0  0  0  0  0  0  0  0  0
  -21.4250  -29.2760   22.4260 N   0  0  0  0  0  0  0  0  0  0  0  0
  -23.4340  -28.8350   23.3670 O   0  0  0  0  0  0  0  0  0  0  0  0
  -20.9320  -29.8290   21.7380 H   0  0  0  0  0  0  0  0  0  0  0  0
  -18.0550  -28.0720   22.9320 C   0  0  0  0  0  0  0  0  0  0  0  0
  -20.6100  -28.3370   23.2000 C   0  0  0  0  0  3  0  0  0  0  0  0
  -20.7170  -26.9050   22.6250 C   0  0  0  0  0  2  0  0  0  0  0  0
  -19.6160  -26.5790   21.6120 C   0  0  0  0  0  2  0  0  0  0  0  0
  -18.2340  -26.7210   22.2570 C   0  0  0  0  0  2  0  0  0  0  0  0
  -19.1710  -28.8370   23.3600 C   0  0  0  0  0  0  0  0  0  0  0  0
  -18.9490  -30.1010   23.9500 C   0  0  0  0  0  3  0  0  0  0  0  0
  -17.6430  -30.5980   24.1160 C   0  0  0  0  0  3  0  0  0  0  0  0
  -16.5400  -29.8300   23.7050 C   0  0  0  0  0  3  0  0  0  0  0  0
  -16.7470  -28.5680   23.1190 C   0  0  0  0  0  3  0  0  0  0  0  0
  -25.8920  -32.5140   23.8470 C   0  0  0  0  0  3  0  0  0  0  0  0
  -25.5830  -33.9130   24.1770 N   0  0  0  0  0  0  0  0  0  0  0  0
  -25.9170  -34.9650   23.4180 C   0  0  0  0  0  0  0  0  0  0  0  0
  -26.5880  -34.8600   22.3870 O   0  0  0  0  0  0  0  0  0  0  0  0
  -24.9880  -34.0690   24.9770 H   0  0  0  0  0  0  0  0  0  0  0  0
  -24.1940  -36.7610   23.0590 C   0  0  0  0  0  1  0  0  0  0  0  0
  -25.4300  -36.3530   23.8750 C   0  0  0  0  0  3  0  0  0  0  0  0
  -27.5630  -37.2310   24.7190 C   0  0  0  0  0  1  0  0  0  0  0  0
  -26.4650  -37.4040   23.7700 N   0  0  0  0  0  0  0  0  0  0  0  0
  -26.0590  -38.3240   23.9210 H   0  0  0  0  0  0  0  0  0  0  0  0
  -26.4160  -31.7470   25.1230 C   0  0  1  0  0  0  0  0  0  0  0  0
  -25.3290  -31.5110   26.1970 C   0  0  0  0  0  1  0  0  0  0  0  0
  -27.0020  -30.3690   24.7330 C   0  0  0  0  0  1  0  0  0  0  0  0
  -27.5680  -32.5470   25.7770 C   0  0  0  0  0  1  0  0  0  0  0  0
  -29.0620  -20.3730   20.4290 C   0  0  0  0  0  3  0  0  0  0  0  0
  -30.0020  -19.2920   21.0290 C   0  0  0  0  0  3  0  0  0  0  0  0
  -29.4570  -17.8390   20.9780 C   0  0  0  0  0  2  0  0  0  0  0  0
  -30.5380  -16.7820   21.3140 C   0  0  0  0  0  2  0  0  0  0  0  0
  -30.6850  -14.4420   20.4150 C   0  0  0  0  0  0  0  0  0  0  0  0
  -30.3560  -12.3160   19.2050 C   0  0  0  0  0  2  0  0  0  0  0  0
  -29.4060  -12.5290   18.0090 C   0  0  0  0  0  2  0  0  0  0  0  0
  -27.9320  -12.4100   18.4420 C   0  0  0  0  0  2  0  0  0  0  0  0
  -27.6120  -13.2360   19.7180 C   0  0  0  0  0  3  0  0  0  0  0  0
  -28.6650  -12.9890   20.8190 C   0  0  0  0  0  2  0  0  0  0  0  0
  -29.9940  -13.2820   20.2550 N   0  0  0  0  0  0  0  0  0  0  0  0
  -31.7730  -14.6510   19.8640 O   0  0  0  0  0  0  0  0  0  0  0  0
  -30.0710  -15.3960   21.1380 N   0  0  0  0  0  0  0  0  0  0  0  0
  -29.2060  -15.1290   21.5860 H   0  0  0  0  0  0  0  0  0  0  0  0
  -25.2140  -13.8570   20.4280 C   0  0  0  0  0  0  0  0  0  0  0  0
  -24.1470  -13.0890   20.8070 C   0  0  0  0  0  0  0  0  0  0  0  0
  -24.6040  -11.7350   20.7790 C   0  0  0  0  0  0  0  0  0  0  0  0
  -26.2570  -12.9700   20.1990 N   0  0  0  0  0  0  0  0  0  0  0  0
  -25.8910  -11.6900   20.4660 N   0  0  0  0  0  0  0  0  0  0  0  0
  -23.8760  -10.4770   20.9810 C   0  0  0  0  0  0  0  0  0  0  0  0
  -24.3120   -9.5140   21.9190 C   0  0  0  0  0  3  0  0  0  0  0  0
  -23.5810   -8.3210   22.1110 C   0  0  0  0  0  3  0  0  0  0  0  0
  -22.4020   -8.0850   21.3650 C   0  0  0  0  0  0  0  0  0  0  0  0
  -21.9860   -9.0360   20.4170 C   0  0  0  0  0  3  0  0  0  0  0  0
  -22.7160  -10.2210   20.2240 C   0  0  0  0  0  3  0  0  0  0  0  0
  -21.6410   -6.9430   21.4630 O   0  0  0  0  0  0  0  0  0  0  0  0
  -21.5970   -6.2050   22.6180 C   0  0  0  0  0  0  0  0  0  0  0  0
  -21.1840   -6.7660   23.8460 C   0  0  0  0  0  3  0  0  0  0  0  0
  -21.0860   -5.9530   24.9930 C   0  0  0  0  0  3  0  0  0  0  0  0
  -21.3950   -4.5830   24.9150 C   0  0  0  0  0  0  0  0  0  0  0  0
  -21.8030   -4.0210   23.6910 C   0  0  0  0  0  3  0  0  0  0  0  0
  -21.9020   -4.8310   22.5460 C   0  0  0  0  0  0  0  0  0  0  0  0
  -22.2750   -4.2800   21.3660 F   0  0  0  0  0  0  0  0  0  0  0  0
  -21.2950   -3.8010   26.0160 F   0  0  0  0  0  0  0  0  0  0  0  0
  -22.7530  -13.5730   21.0830 C   0  0  0  0  0  0  0  0  0  0  0  0
  -22.0240  -12.8890   21.9580 N   0  0  0  0  0  0  0  0  0  0  0  0
  -22.3140  -14.5960   20.5570 O   0  0  0  0  0  0  0  0  0  0  0  0
  -22.3880  -12.0680   22.4200 H   0  0  0  0  0  0  0  0  0  0  0  0
  -21.0860  -13.1930   22.1730 H   0  0  0  0  0  0  0  0  0  0  0  0
  -25.3790  -15.2270   20.2440 N   0  0  0  0  0  0  0  0  0  0  0  0
  -24.6110  -15.8790   20.3680 H   0  0  0  0  0  0  0  0  0  0  0  0
  -26.2340  -15.6720   19.9380 H   0  0  0  0  0  0  0  0  0  0  0  0
  1  5  2  0
  1  3  1  0
  2  4  1  0
  3  8  1  0
  3  4  2  0
  4  7  1  0
  5  6  1  0
  6  2  2  0
  9  8  1  0
 10 21  2  0
 11  9  1  0
 11 16  1  0
 12 20  1  0
 12 22  1  0
 13 19  1  0
 13 15  1  0
 14 20  1  0
 15 14  1  0
 16 15  2  0
 17 18  1  0
 17 11  2  0
 18 13  2  0
 19 12  1  0
 20 10  1  0
 22 24  2  0
 23 22  1  0
 25 23  1  0
 26 35  2  0
 26 31  1  0
 27 23  1  0
 27 31  1  0
 28 27  1  0
 29 30  1  0
 29 28  1  0
 30 26  1  0
 31 32  2  0
 32 33  1  0
 34 33  2  0
 35 34  1  0
 36 10  1  0
 36 37  1  0
 36 46  1  0
 37 40  1  0
 38 42  1  0
 38 37  1  0
 39 38  2  0
 42 41  1  0
 44 42  1  0
 44 45  1  0
 44 43  1  0
 46 49  1  1
 46 47  1  0
 48 46  1  0
 50  5  1  0
 50 51  2  0
 52 51  1  0
 52 53  1  0
 54 62  1  0
 55 60  1  0
 56 57  1  0
 56 55  1  0
 58 57  1  0
 58 67  1  0
 58 59  1  0
 60 54  1  0
 60 59  1  0
 61 54  2  0
 62 53  1  0
 62 63  1  0
 64 65  2  0
 65 84  1  0
 66 65  1  0
 66 69  1  0
 67 64  1  0
 67 68  1  0
 68 66  2  0
 69 70  1  0
 70 71  2  0
 72 75  1  0
 72 71  1  0
 73 72  2  0
 74 73  1  0
 74 69  2  0
 75 76  1  0
 76 77  1  0
 77 78  2  0
 79 78  1  0
 79 83  1  0
 80 79  2  0
 81 76  2  0
 81 80  1  0
 82 81  1  0
 84 85  1  0
 85 88  1  0
 85 87  1  0
 86 84  2  0
 89 90  1  0
 89 64  1  0
 91 89  1  0
M  ISO  4   8 101   9 101  54 100  62 100
M  END
>  <TORSDO>  (81) 
F 21

>  <SCORE>  (81) 
-13.515

>  <name>  (81) 
80

>  <ligand_id>  (81) 
80

>  <original_smiles>  (81) 
[H]c1nc(C([H])([H])C([H])([H])C([H])([H])C([H])([H])N([H])C(=O)N2C([H])([H])C([H])([H])C([H])([H])C([H])(n3nc(-c4c([H])c([H])c(Oc5c([H])c([H])c(F)c([H])c5F)c([H])c4[H])c(C(=O)N([H])[H])c3N([H])[H])C2([H])[H])c([H])c(C([H])([H])Oc2c([H])c([H])c3c(c2[H])C([H])([H])N(C(=O)C([H])(N([H])C(=O)C([H])(N([H])C([H])([H])[H])C([H])([H])[H])C(C([H])([H])[H])(C([H])([H])[H])C([H])([H])[H])C([H])(C(=O)N([H])C2([H])c4c([H])c([H])c([H])c([H])c4C([H])([H])C([H])([H])C2([H])[H])C3([H])[H])c1Cl

>  <smiles>  (81) 
[H]c1nc(C([H])([H])C([H])([H])C([H])([H])C([H])([H])N([H])C(=O)N2C([H])([H])C([H])([H])C([H])([H])C([H])(n3nc(-c4c([H])c([H])c(Oc5c([H])c([H])c(F)c([H])c5F)c([H])c4[H])c(C(=O)N([H])[H])c3N([H])[H])C2([H])[H])c([H])c(C([H])([H])Oc2c([H])c([H])c3c(c2[H])C([H])([H])N(C(=O)C([H])(N([H])C(=O)C([H])(N([H])C([H])([H])[H])C([H])([H])[H])C(C([H])([H])[H])(C([H])([H])[H])C([H])([H])[H])C([H])(C(=O)N([H])C2([H])c4c([H])c([H])c([H])c([H])c4C([H])([H])C([H])([H])C2([H])[H])C3([H])[H])c1Cl

$$$$
81:0:0
     RDKit          3D

 89 97  0  0  1  0  0  0  0  0999 V2000
  -29.8330  -20.6670   20.0400 C   0  0  0  0  0  3  0  0  0  0  0  0
  -27.3900  -19.8700   19.2770 C   0  0  0  0  0  3  0  0  0  0  0  0
  -28.8750  -21.7840   19.8050 C   0  0  0  0  0  0  0  0  0  0  0  0
  -27.6060  -21.2720   19.4090 C   0  0  0  0  0  0  0  0  0  0  0  0
  -29.5380  -19.2140   19.8950 C   0  0  0  0  0  0  0  0  0  0  0  0
  -28.2950  -18.8790   19.5020 N   0  0  0  0  0  0  0  0  0  0  0  0
  -26.2680  -22.3090   19.0830 Cl  0  0  0  0  0  0  0  0  0  0  0  0
  -29.1480  -23.4190   20.0510 C   0  0  0  0  0  3  0  0  0  0  0  0
  -28.1770  -24.7730   19.6870 C   0  0  0  0  0  3  0  0  0  0  0  0
  -28.4440  -26.3020   19.9480 O   0  0  0  0  0  0  0  0  0  0  0  0
  -24.5630  -31.7140   23.1560 C   0  0  0  0  0  0  0  0  0  0  0  0
  -27.3780  -27.2820   19.9080 C   0  0  0  0  0  0  0  0  0  0  0  0
  -23.4660  -30.3870   21.3970 C   0  0  0  0  0  3  0  0  0  0  0  0
  -25.0030  -28.9690   19.9100 C   0  0  0  0  0  0  0  0  0  0  0  0
  -26.0130  -30.7490   21.3260 C   0  0  0  0  0  2  0  0  0  0  0  0
  -26.1510  -29.4070   20.5830 C   0  0  0  0  0  0  0  0  0  0  0  0
  -27.3440  -28.5830   20.5610 C   0  0  0  0  0  3  0  0  0  0  0  0
  -26.2040  -26.9590   19.1930 C   0  0  0  0  0  3  0  0  0  0  0  0
  -25.0470  -27.7640   19.1950 C   0  0  0  0  0  3  0  0  0  0  0  0
  -23.7430  -29.8180   19.9820 C   0  0  0  0  0  2  0  0  0  0  0  0
  -24.7000  -30.9690   22.0170 N   0  0  0  0  0  0  0  0  0  0  0  0
  -23.4520  -31.9240   23.6670 O   0  0  0  0  0  0  0  0  0  0  0  0
  -22.8020  -29.2910   22.2700 C   0  0  0  0  0  0  0  0  0  0  0  0
  -21.4800  -29.1000   22.1160 N   0  0  0  0  0  0  0  0  0  0  0  0
  -23.4780  -28.6200   23.0530 O   0  0  0  0  0  0  0  0  0  0  0  0
  -20.9880  -29.7020   21.4730 H   0  0  0  0  0  0  0  0  0  0  0  0
  -18.1040  -27.8480   22.5570 C   0  0  0  0  0  0  0  0  0  0  0  0
  -20.6700  -28.0880   22.7990 C   0  0  0  0  0  3  0  0  0  0  0  0
  -20.7580  -26.7210   22.0820 C   0  0  0  0  0  2  0  0  0  0  0  0
  -19.6360  -26.5000   21.0620 C   0  0  0  0  0  2  0  0  0  0  0  0
  -18.2670  -26.5750   21.7430 C   0  0  0  0  0  2  0  0  0  0  0  0
  -19.2310  -28.5670   23.0400 C   0  0  0  0  0  0  0  0  0  0  0  0
  -19.0210  -29.7610   23.7640 C   0  0  0  0  0  3  0  0  0  0  0  0
  -17.7190  -30.2350   24.0090 C   0  0  0  0  0  3  0  0  0  0  0  0
  -16.6080  -29.5110   23.5420 C   0  0  0  0  0  3  0  0  0  0  0  0
  -16.8010  -28.3200   22.8200 C   0  0  0  0  0  3  0  0  0  0  0  0
  -25.7980  -32.3560   23.8610 C   0  0  0  0  0  3  0  0  0  0  0  0
  -26.2310  -31.5850   25.1690 C   0  0  1  0  0  0  0  0  0  0  0  0
  -25.0700  -31.3380   26.1620 C   0  0  0  0  0  1  0  0  0  0  0  0
  -26.8500  -30.2120   24.8240 C   0  0  0  0  0  1  0  0  0  0  0  0
  -27.3340  -32.3820   25.9060 C   0  0  0  0  0  1  0  0  0  0  0  0
  -25.4580  -33.7520   24.1820 N   0  0  0  0  0  0  0  0  0  0  0  0
  -25.7910  -34.8120   23.4320 C   0  0  0  0  0  0  0  0  0  0  0  0
  -26.4880  -34.7190   22.4180 O   0  0  0  0  0  0  0  0  0  0  0  0
  -24.8450  -33.8980   24.9700 H   0  0  0  0  0  0  0  0  0  0  0  0
  -24.0320  -36.5700   23.0600 C   0  0  0  0  0  1  0  0  0  0  0  0
  -25.2770  -36.1960   23.8780 C   0  0  0  0  0  3  0  0  0  0  0  0
  -27.3810  -37.1350   24.7270 C   0  0  0  0  0  1  0  0  0  0  0  0
  -26.2910  -37.2670   23.7630 N   0  0  0  0  0  0  0  0  0  0  0  0
  -25.8660  -38.1820   23.8870 H   0  0  0  0  0  0  0  0  0  0  0  0
  -30.5420  -17.9280   20.1420 C   0  0  0  0  0  2  0  0  0  0  0  0
  -30.8900  -15.2100   20.2070 C   0  0  0  0  0  0  0  0  0  0  0  0
  -30.7480  -12.8430   19.3020 C   0  0  0  0  0  2  0  0  0  0  0  0
  -29.8230  -12.8040   18.0660 C   0  0  0  0  0  2  0  0  0  0  0  0
  -28.3490  -12.6320   18.4760 C   0  0  0  0  0  2  0  0  0  0  0  0
  -27.9530  -13.5590   19.6570 C   0  0  0  0  0  3  0  0  0  0  0  0
  -29.0010  -13.5670   20.7870 C   0  0  0  0  0  2  0  0  0  0  0  0
  -30.2790  -13.9570   20.1790 N   0  0  0  0  0  0  0  0  0  0  0  0
  -32.0990  -15.2490   19.9410 O   0  0  0  0  0  0  0  0  0  0  0  0
  -30.1340  -16.4100   20.3210 N   0  0  0  0  0  0  0  0  0  0  0  0
  -29.1500  -16.2830   20.5040 H   0  0  0  0  0  0  0  0  0  0  0  0
  -25.5890  -14.1760   20.4090 C   0  0  0  0  0  0  0  0  0  0  0  0
  -24.5140  -13.4200   20.7850 C   0  0  0  0  0  0  0  0  0  0  0  0
  -24.9540  -12.0600   20.7510 C   0  0  0  0  0  0  0  0  0  0  0  0
  -26.6140  -13.2790   20.1600 N   0  0  0  0  0  0  0  0  0  0  0  0
  -26.2420  -12.0010   20.4330 N   0  0  0  0  0  0  0  0  0  0  0  0
  -24.2040  -10.8110   20.9400 C   0  0  0  0  0  0  0  0  0  0  0  0
  -24.5960   -9.8530   21.9000 C   0  0  0  0  0  3  0  0  0  0  0  0
  -23.8450   -8.6700   22.0770 C   0  0  0  0  0  3  0  0  0  0  0  0
  -22.6890   -8.4380   21.2950 C   0  0  0  0  0  0  0  0  0  0  0  0
  -22.3160   -9.3840   20.3240 C   0  0  0  0  0  3  0  0  0  0  0  0
  -23.0690  -10.5580   20.1430 C   0  0  0  0  0  3  0  0  0  0  0  0
  -21.9110   -7.3060   21.3830 O   0  0  0  0  0  0  0  0  0  0  0  0
  -21.8020   -6.5950   22.5510 C   0  0  0  0  0  0  0  0  0  0  0  0
  -21.2930   -7.1750   23.7330 C   0  0  0  0  0  3  0  0  0  0  0  0
  -21.1340   -6.3890   24.8910 C   0  0  0  0  0  3  0  0  0  0  0  0
  -21.4730   -5.0230   24.8680 C   0  0  0  0  0  0  0  0  0  0  0  0
  -21.9760   -4.4430   23.6910 C   0  0  0  0  0  3  0  0  0  0  0  0
  -22.1380   -5.2260   22.5350 C   0  0  0  0  0  0  0  0  0  0  0  0
  -22.6020   -4.6550   21.3960 F   0  0  0  0  0  0  0  0  0  0  0  0
  -21.3120   -4.2650   25.9780 F   0  0  0  0  0  0  0  0  0  0  0  0
  -23.1270  -13.9200   21.0570 C   0  0  0  0  0  0  0  0  0  0  0  0
  -22.3850  -13.2390   21.9240 N   0  0  0  0  0  0  0  0  0  0  0  0
  -22.7080  -14.9500   20.5300 O   0  0  0  0  0  0  0  0  0  0  0  0
  -22.7330  -12.4060   22.3750 H   0  0  0  0  0  0  0  0  0  0  0  0
  -21.4480  -13.5540   22.1340 H   0  0  0  0  0  0  0  0  0  0  0  0
  -25.7770  -15.5440   20.2360 N   0  0  0  0  0  0  0  0  0  0  0  0
  -25.0200  -16.2080   20.3390 H   0  0  0  0  0  0  0  0  0  0  0  0
  -26.6320  -15.9770   19.9110 H   0  0  0  0  0  0  0  0  0  0  0  0
  2  4  2  0
  2  6  1  0
  3  1  2  0
  3  8  1  0
  4  3  1  0
  5  1  1  0
  5 51  1  0
  6  5  2  0
  7  4  1  0
  9 10  1  0
  9  8  2  0
 11 22  2  0
 12 10  1  0
 12 17  1  0
 13 21  1  0
 13 23  1  0
 14 20  1  0
 14 16  1  0
 15 21  1  0
 16 15  1  0
 17 16  2  0
 18 19  1  0
 18 12  2  0
 19 14  2  0
 20 13  1  0
 21 11  1  0
 23 25  2  0
 24 23  1  0
 26 24  1  0
 27 36  2  0
 27 32  1  0
 28 24  1  0
 28 32  1  0
 29 28  1  0
 30 31  1  0
 30 29  1  0
 31 27  1  0
 32 33  2  0
 33 34  1  0
 35 34  2  0
 36 35  1  0
 37 11  1  0
 37 42  1  0
 37 38  1  0
 38 41  1  1
 38 39  1  0
 40 38  1  0
 42 45  1  0
 43 47  1  0
 43 42  1  0
 44 43  2  0
 47 46  1  0
 49 47  1  0
 49 50  1  0
 49 48  1  0
 51 60  1  0
 52 60  1  0
 53 58  1  0
 54 55  1  0
 54 53  1  0
 56 55  1  0
 56 65  1  0
 56 57  1  0
 58 52  1  0
 58 57  1  0
 59 52  2  0
 60 61  1  0
 62 63  2  0
 63 82  1  0
 64 63  1  0
 64 67  1  0
 65 62  1  0
 65 66  1  0
 66 64  2  0
 67 68  1  0
 68 69  2  0
 70 73  1  0
 70 69  1  0
 71 70  2  0
 72 71  1  0
 72 67  2  0
 73 74  1  0
 74 75  1  0
 75 76  2  0
 77 76  1  0
 77 81  1  0
 78 77  2  0
 79 74  2  0
 79 78  1  0
 80 79  1  0
 82 83  1  0
 83 86  1  0
 83 85  1  0
 84 82  2  0
 87 88  1  0
 87 62  1  0
 89 87  1  0
M  ISO  4   9 101  10 101  52 100  60 100
M  END
>  <TORSDO>  (82) 
F 19

>  <SCORE>  (82) 
-14.462

>  <name>  (82) 
81

>  <ligand_id>  (82) 
81

>  <original_smiles>  (82) 
[H]c1nc(C([H])([H])N([H])C(=O)N2C([H])([H])C([H])([H])C([H])([H])C([H])(n3nc(-c4c([H])c([H])c(Oc5c([H])c([H])c(F)c([H])c5F)c([H])c4[H])c(C(=O)N([H])[H])c3N([H])[H])C2([H])[H])c([H])c(C([H])([H])C([H])([H])Oc2c([H])c([H])c3c(c2[H])C([H])([H])N(C(=O)C([H])(N([H])C(=O)C([H])(N([H])C([H])([H])[H])C([H])([H])[H])C(C([H])([H])[H])(C([H])([H])[H])C([H])([H])[H])C([H])(C(=O)N([H])C2([H])c4c([H])c([H])c([H])c([H])c4C([H])([H])C([H])([H])C2([H])[H])C3([H])[H])c1Cl

>  <smiles>  (82) 
[H]c1nc(C([H])([H])N([H])C(=O)N2C([H])([H])C([H])([H])C([H])([H])C([H])(n3nc(-c4c([H])c([H])c(Oc5c([H])c([H])c(F)c([H])c5F)c([H])c4[H])c(C(=O)N([H])[H])c3N([H])[H])C2([H])[H])c([H])c(C([H])([H])C([H])([H])Oc2c([H])c([H])c3c(c2[H])C([H])([H])N(C(=O)C([H])(N([H])C(=O)C([H])(N([H])C([H])([H])[H])C([H])([H])[H])C(C([H])([H])[H])(C([H])([H])[H])C([H])([H])[H])C([H])(C(=O)N([H])C2([H])c4c([H])c([H])c([H])c([H])c4C([H])([H])C([H])([H])C2([H])[H])C3([H])[H])c1Cl

$$$$
82:0:0
     RDKit          3D

 93102  0  0  1  0  0  0  0  0999 V2000
  -30.5850  -23.0300   20.7660 C   0  0  0  0  0  3  0  0  0  0  0  0
  -27.0390  -24.4990   20.4730 C   0  0  0  0  0  3  0  0  0  0  0  0
  -30.6380  -21.6580   20.8810 C   0  0  0  0  0  3  0  0  0  0  0  0
  -29.2010  -23.4030   20.6500 C   0  0  0  0  0  0  0  0  0  0  0  0
  -28.4400  -24.6200   20.5870 C   0  0  0  0  0  0  0  0  0  0  0  0
  -26.4280  -23.2300   20.4360 C   0  0  0  0  0  0  0  0  0  0  0  0
  -28.4550  -22.1730   20.6490 C   0  0  0  0  0  0  0  0  0  0  0  0
  -24.9230  -23.1140   20.3000 C   0  0  0  0  0  1  0  0  0  0  0  0
  -27.0970  -22.0610   20.5430 N   0  0  0  0  0  0  0  0  0  0  0  0
  -29.3570  -21.1130   20.8650 N   0  0  0  0  0  0  0  0  0  0  0  0
  -29.0580  -26.0270   20.8220 C   0  0  0  0  0  2  0  0  0  0  0  0
  -28.7700  -27.0890   19.8750 O   0  0  0  0  0  0  0  0  0  0  0  0
  -24.5600  -31.9060   23.1760 C   0  0  0  0  0  0  0  0  0  0  0  0
  -27.5680  -27.7710   19.9690 C   0  0  0  0  0  0  0  0  0  0  0  0
  -23.4920  -30.5070   21.4380 C   0  0  0  0  0  3  0  0  0  0  0  0
  -25.0820  -29.1410   19.9800 C   0  0  0  0  0  0  0  0  0  0  0  0
  -25.9960  -31.0380   21.3250 C   0  0  0  0  0  2  0  0  0  0  0  0
  -26.1910  -29.7020   20.6290 C   0  0  0  0  0  0  0  0  0  0  0  0
  -27.4380  -29.0250   20.6230 C   0  0  0  0  0  3  0  0  0  0  0  0
  -26.4470  -27.2420   19.3010 C   0  0  0  0  0  3  0  0  0  0  0  0
  -25.2070  -27.9100   19.3140 C   0  0  0  0  0  3  0  0  0  0  0  0
  -23.7830  -29.9150   20.0330 C   0  0  0  0  0  2  0  0  0  0  0  0
  -24.6980  -31.1660   22.0380 N   0  0  0  0  0  0  0  0  0  0  0  0
  -23.4490  -32.0730   23.7000 O   0  0  0  0  0  0  0  0  0  0  0  0
  -22.8930  -29.3970   22.3310 C   0  0  0  0  0  0  0  0  0  0  0  0
  -21.5820  -29.1440   22.1800 N   0  0  0  0  0  0  0  0  0  0  0  0
  -23.6060  -28.7670   23.1160 O   0  0  0  0  0  0  0  0  0  0  0  0
  -21.0650  -29.7080   21.5190 H   0  0  0  0  0  0  0  0  0  0  0  0
  -18.2700  -27.7650   22.6200 C   0  0  0  0  0  0  0  0  0  0  0  0
  -20.8180  -28.1160   22.8850 C   0  0  0  0  0  3  0  0  0  0  0  0
  -20.9760  -26.7370   22.2030 C   0  0  0  0  0  2  0  0  0  0  0  0
  -19.8750  -26.4410   21.1780 C   0  0  0  0  0  2  0  0  0  0  0  0
  -18.4960  -26.4780   21.8430 C   0  0  0  0  0  2  0  0  0  0  0  0
  -19.3590  -28.5410   23.0950 C   0  0  0  0  0  0  0  0  0  0  0  0
  -19.0940  -29.7470   23.7800 C   0  0  0  0  0  3  0  0  0  0  0  0
  -17.7700  -30.1770   23.9940 C   0  0  0  0  0  3  0  0  0  0  0  0
  -16.6950  -29.3940   23.5360 C   0  0  0  0  0  3  0  0  0  0  0  0
  -16.9450  -28.1900   22.8540 C   0  0  0  0  0  3  0  0  0  0  0  0
  -25.7820  -32.5940   23.8580 C   0  0  0  0  0  3  0  0  0  0  0  0
  -26.2790  -31.8410   25.1530 C   0  0  1  0  0  0  0  0  0  0  0  0
  -25.1530  -31.5400   26.1680 C   0  0  0  0  0  1  0  0  0  0  0  0
  -26.9490  -30.4970   24.7790 C   0  0  0  0  0  1  0  0  0  0  0  0
  -27.3560  -32.6870   25.8710 C   0  0  0  0  0  1  0  0  0  0  0  0
  -25.3920  -33.9730   24.1790 N   0  0  0  0  0  0  0  0  0  0  0  0
  -25.6840  -35.0420   23.4260 C   0  0  0  0  0  0  0  0  0  0  0  0
  -26.3820  -34.9750   22.4110 O   0  0  0  0  0  0  0  0  0  0  0  0
  -24.7770  -34.0980   24.9700 H   0  0  0  0  0  0  0  0  0  0  0  0
  -23.8620  -36.7300   23.0380 C   0  0  0  0  0  1  0  0  0  0  0  0
  -25.1110  -36.4010   23.8700 C   0  0  0  0  0  3  0  0  0  0  0  0
  -27.1780  -37.4090   24.7310 C   0  0  0  0  0  1  0  0  0  0  0  0
  -26.0840  -37.5110   23.7690 N   0  0  0  0  0  0  0  0  0  0  0  0
  -25.6220  -38.4060   23.9100 H   0  0  0  0  0  0  0  0  0  0  0  0
  -29.0420  -19.7000   21.2160 C   0  0  0  0  0  2  0  0  0  0  0  0
  -29.6350  -18.5180   20.3550 C   0  0  0  0  0  2  0  0  0  0  0  0
  -30.2310  -17.3220   21.2000 C   0  0  0  0  0  2  0  0  0  0  0  0
  -30.6580  -14.9150   20.3880 C   0  0  0  0  0  0  0  0  0  0  0  0
  -30.5170  -12.6710   19.3380 C   0  0  0  0  0  2  0  0  0  0  0  0
  -29.5850  -12.7460   18.1100 C   0  0  0  0  0  2  0  0  0  0  0  0
  -28.1130  -12.5500   18.5250 C   0  0  0  0  0  2  0  0  0  0  0  0
  -27.7100  -13.4360   19.7330 C   0  0  0  0  0  3  0  0  0  0  0  0
  -28.7520  -13.3320   20.8670 C   0  0  0  0  0  2  0  0  0  0  0  0
  -30.0610  -13.6910   20.2980 N   0  0  0  0  0  0  0  0  0  0  0  0
  -31.8090  -15.1170   19.9910 O   0  0  0  0  0  0  0  0  0  0  0  0
  -29.8600  -15.9310   20.8140 N   0  0  0  0  0  0  0  0  0  0  0  0
  -28.9190  -15.6510   21.0480 H   0  0  0  0  0  0  0  0  0  0  0  0
  -25.2910  -13.9870   20.4090 C   0  0  0  0  0  0  0  0  0  0  0  0
  -24.2420  -13.1920   20.7800 C   0  0  0  0  0  0  0  0  0  0  0  0
  -24.7400  -11.8530   20.7750 C   0  0  0  0  0  0  0  0  0  0  0  0
  -26.3620  -13.1310   20.2030 N   0  0  0  0  0  0  0  0  0  0  0  0
  -26.0340  -11.8430   20.4800 N   0  0  0  0  0  0  0  0  0  0  0  0
  -24.0460  -10.5750   20.9750 C   0  0  0  0  0  0  0  0  0  0  0  0
  -24.4690   -9.6500   21.9540 C   0  0  0  0  0  3  0  0  0  0  0  0
  -23.7750   -8.4360   22.1410 C   0  0  0  0  0  3  0  0  0  0  0  0
  -22.6420   -8.1380   21.3460 C   0  0  0  0  0  0  0  0  0  0  0  0
  -22.2380   -9.0510   20.3560 C   0  0  0  0  0  3  0  0  0  0  0  0
  -22.9340  -10.2570   20.1680 C   0  0  0  0  0  3  0  0  0  0  0  0
  -21.9200   -6.9720   21.4380 O   0  0  0  0  0  0  0  0  0  0  0  0
  -21.8230   -6.2780   22.6170 C   0  0  0  0  0  0  0  0  0  0  0  0
  -21.3070   -6.8690   23.7900 C   0  0  0  0  0  3  0  0  0  0  0  0
  -21.1600   -6.0990   24.9600 C   0  0  0  0  0  3  0  0  0  0  0  0
  -21.5180   -4.7390   24.9600 C   0  0  0  0  0  0  0  0  0  0  0  0
  -22.0280   -4.1460   23.7900 C   0  0  0  0  0  3  0  0  0  0  0  0
  -22.1770   -4.9120   22.6220 C   0  0  0  0  0  0  0  0  0  0  0  0
  -22.6490   -4.3320   21.4930 F   0  0  0  0  0  0  0  0  0  0  0  0
  -21.3700   -3.9960   26.0820 F   0  0  0  0  0  0  0  0  0  0  0  0
  -22.8290  -13.6350   21.0290 C   0  0  0  0  0  0  0  0  0  0  0  0
  -22.1100  -12.9300   21.8950 N   0  0  0  0  0  0  0  0  0  0  0  0
  -22.3700  -14.6430   20.4920 O   0  0  0  0  0  0  0  0  0  0  0  0
  -22.4940  -12.1160   22.3500 H   0  0  0  0  0  0  0  0  0  0  0  0
  -21.1630  -13.2080   22.1060 H   0  0  0  0  0  0  0  0  0  0  0  0
  -25.4210  -15.3590   20.2090 N   0  0  0  0  0  0  0  0  0  0  0  0
  -24.6300  -15.9890   20.2800 H   0  0  0  0  0  0  0  0  0  0  0  0
  -26.2540  -15.8110   19.8540 H   0  0  0  0  0  0  0  0  0  0  0  0
  1  3  2  0
  2  5  1  0
  4  1  1  0
  5  4  2  0
  5 11  1  0
  6  2  2  0
  6  9  1  0
  7  4  1  0
  7 10  1  0
  8  6  1  0
  9  7  2  0
 10  3  1  0
 10 53  1  0
 12 14  1  0
 12 11  1  0
 13 24  2  0
 14 19  1  0
 15 23  1  0
 15 25  1  0
 16 22  1  0
 16 18  1  0
 17 23  1  0
 18 17  1  0
 19 18  2  0
 20 21  1  0
 20 14  2  0
 21 16  2  0
 22 15  1  0
 23 13  1  0
 25 27  2  0
 26 25  1  0
 28 26  1  0
 29 38  2  0
 29 34  1  0
 30 26  1  0
 30 34  1  0
 31 30  1  0
 32 33  1  0
 32 31  1  0
 33 29  1  0
 34 35  2  0
 35 36  1  0
 37 36  2  0
 38 37  1  0
 39 13  1  0
 39 44  1  0
 39 40  1  0
 40 43  1  1
 40 41  1  0
 42 40  1  0
 44 47  1  0
 45 49  1  0
 45 44  1  0
 46 45  2  0
 49 48  1  0
 51 49  1  0
 51 52  1  0
 51 50  1  0
 54 55  1  0
 54 53  1  0
 56 64  1  0
 57 62  1  0
 58 59  1  0
 58 57  1  0
 60 59  1  0
 60 69  1  0
 60 61  1  0
 62 56  1  0
 62 61  1  0
 63 56  2  0
 64 65  1  0
 64 55  1  0
 66 67  2  0
 67 86  1  0
 68 67  1  0
 68 71  1  0
 69 66  1  0
 69 70  1  0
 70 68  2  0
 71 72  1  0
 72 73  2  0
 74 77  1  0
 74 73  1  0
 75 74  2  0
 76 75  1  0
 76 71  2  0
 77 78  1  0
 78 83  2  0
 78 79  1  0
 79 80  2  0
 81 80  1  0
 81 85  1  0
 82 81  2  0
 83 82  1  0
 84 83  1  0
 86 87  1  0
 87 90  1  0
 87 89  1  0
 88 86  2  0
 91 92  1  0
 91 66  1  0
 93 91  1  0
M  ISO  4  11 101  12 101  56 100  64 100
M  END
>  <TORSDO>  (83) 
F 20

>  <SCORE>  (83) 
-13.114

>  <name>  (83) 
82

>  <ligand_id>  (83) 
82

>  <original_smiles>  (83) 
[H]c1c([H])c([H])c2c(c1[H])C([H])([H])C([H])([H])C([H])([H])C2([H])N([H])C(=O)C1([H])N(C(=O)C([H])(N([H])C(=O)C([H])(N([H])C([H])([H])[H])C([H])([H])[H])C(C([H])([H])[H])(C([H])([H])[H])C([H])([H])[H])C([H])([H])c2c([H])c(OC([H])([H])c3c([H])c(C([H])([H])[H])nc4c3c([H])c([H])n4C([H])([H])C([H])([H])C([H])([H])N([H])C(=O)N3C([H])([H])C([H])([H])C([H])([H])C([H])(n4nc(-c5c([H])c([H])c(Oc6c([H])c([H])c(F)c([H])c6F)c([H])c5[H])c(C(=O)N([H])[H])c4N([H])[H])C3([H])[H])c([H])c([H])c2C1([H])[H]

>  <smiles>  (83) 
[H]c1c([H])c([H])c2c(c1[H])C([H])([H])C([H])([H])C([H])([H])C2([H])N([H])C(=O)C1([H])N(C(=O)C([H])(N([H])C(=O)C([H])(N([H])C([H])([H])[H])C([H])([H])[H])C(C([H])([H])[H])(C([H])([H])[H])C([H])([H])[H])C([H])([H])c2c([H])c(OC([H])([H])c3c([H])c(C([H])([H])[H])nc4c3c([H])c([H])n4C([H])([H])C([H])([H])C([H])([H])N([H])C(=O)N3C([H])([H])C([H])([H])C([H])([H])C([H])(n4nc(-c5c([H])c([H])c(Oc6c([H])c([H])c(F)c([H])c6F)c([H])c5[H])c(C(=O)N([H])[H])c4N([H])[H])C3([H])[H])c([H])c([H])c2C1([H])[H]

$$$$
83:0:0
     RDKit          3D

 97106  0  0  1  0  0  0  0  0999 V2000
  -30.1760  -22.0540   22.5840 C   0  0  0  0  0  3  0  0  0  0  0  0
  -29.6880  -23.2850   22.1130 C   0  0  0  0  0  0  0  0  0  0  0  0
  -29.7010  -20.8580   22.0070 C   0  0  0  0  0  0  0  0  0  0  0  0
  -28.7150  -23.2740   21.0940 C   0  0  0  0  0  0  0  0  0  0  0  0
  -28.7070  -20.9480   21.0020 C   0  0  0  0  0  0  0  0  0  0  0  0
  -30.2180  -24.5950   22.6770 C   0  0  0  0  0  2  0  0  0  0  0  0
  -28.1890  -24.5490   20.4590 C   0  0  0  0  0  2  0  0  0  0  0  0
  -30.0810  -25.7560   21.6820 C   0  0  0  0  0  2  0  0  0  0  0  0
  -28.6510  -25.8610   21.1310 C   0  0  0  0  0  3  0  0  0  0  0  0
  -28.2340  -22.1330   20.5650 N   0  0  0  0  0  0  0  0  0  0  0  0
  -28.6100  -26.9410   20.1970 O   0  0  0  0  0  0  0  0  0  0  0  0
  -24.5210  -31.8480   23.3180 C   0  0  0  0  0  0  0  0  0  0  0  0
  -27.4330  -27.6410   20.1910 C   0  0  0  0  0  0  0  0  0  0  0  0
  -23.4420  -30.5160   21.5330 C   0  0  0  0  0  3  0  0  0  0  0  0
  -25.0090  -29.0740   20.1310 C   0  0  0  0  0  0  0  0  0  0  0  0
  -25.9640  -30.9250   21.5130 C   0  0  0  0  0  2  0  0  0  0  0  0
  -26.1130  -29.5890   20.8210 C   0  0  0  0  0  0  0  0  0  0  0  0
  -27.3280  -28.8760   20.8610 C   0  0  0  0  0  3  0  0  0  0  0  0
  -26.3230  -27.1330   19.4860 C   0  0  0  0  0  3  0  0  0  0  0  0
  -25.1050  -27.8390   19.4640 C   0  0  0  0  0  3  0  0  0  0  0  0
  -23.7490  -29.9070   20.1380 C   0  0  0  0  0  2  0  0  0  0  0  0
  -24.6560  -31.1080   22.1820 N   0  0  0  0  0  0  0  0  0  0  0  0
  -23.4040  -32.0770   23.8030 O   0  0  0  0  0  0  0  0  0  0  0  0
  -22.7510  -29.4370   22.3970 C   0  0  0  0  0  0  0  0  0  0  0  0
  -21.4260  -29.2930   22.2230 N   0  0  0  0  0  0  0  0  0  0  0  0
  -23.4020  -28.7380   23.1770 O   0  0  0  0  0  0  0  0  0  0  0  0
  -20.9640  -29.9100   21.5700 H   0  0  0  0  0  0  0  0  0  0  0  0
  -17.9950  -28.2840   22.7170 C   0  0  0  0  0  0  0  0  0  0  0  0
  -20.5720  -28.3180   22.9010 C   0  0  0  0  0  3  0  0  0  0  0  0
  -20.5440  -26.9760   22.1340 C   0  0  0  0  0  2  0  0  0  0  0  0
  -19.3840  -26.8750   21.1390 C   0  0  0  0  0  2  0  0  0  0  0  0
  -18.0420  -27.0290   21.8610 C   0  0  0  0  0  2  0  0  0  0  0  0
  -19.1850  -28.8980   23.1920 C   0  0  0  0  0  0  0  0  0  0  0  0
  -19.0850  -30.0830   23.9530 C   0  0  0  0  0  3  0  0  0  0  0  0
  -17.8310  -30.6490   24.2440 C   0  0  0  0  0  3  0  0  0  0  0  0
  -16.6560  -30.0280   23.7870 C   0  0  0  0  0  3  0  0  0  0  0  0
  -16.7400  -28.8480   23.0270 C   0  0  0  0  0  3  0  0  0  0  0  0
  -25.7570  -32.4590   24.0480 C   0  0  0  0  0  3  0  0  0  0  0  0
  -25.4560  -33.8690   24.3190 N   0  0  0  0  0  0  0  0  0  0  0  0
  -25.8820  -34.8950   23.5690 C   0  0  0  0  0  0  0  0  0  0  0  0
  -26.6380  -34.7510   22.6060 O   0  0  0  0  0  0  0  0  0  0  0  0
  -24.7980  -34.0570   25.0620 H   0  0  0  0  0  0  0  0  0  0  0  0
  -24.2190  -36.7030   23.0350 C   0  0  0  0  0  1  0  0  0  0  0  0
  -25.3870  -36.3030   23.9490 C   0  0  0  0  0  3  0  0  0  0  0  0
  -27.4900  -37.1550   24.8890 C   0  0  0  0  0  1  0  0  0  0  0  0
  -26.4450  -37.3360   23.8830 N   0  0  0  0  0  0  0  0  0  0  0  0
  -26.0510  -38.2650   23.9990 H   0  0  0  0  0  0  0  0  0  0  0  0
  -26.1320  -31.7000   25.3790 C   0  0  1  0  0  0  0  0  0  0  0  0
  -24.9260  -31.4600   26.3180 C   0  0  0  0  0  1  0  0  0  0  0  0
  -26.7670  -30.3250   25.0620 C   0  0  0  0  0  1  0  0  0  0  0  0
  -27.1930  -32.5080   26.1630 C   0  0  0  0  0  1  0  0  0  0  0  0
  -30.3210  -19.5410   22.4520 C   0  0  0  0  0  2  0  0  0  0  0  0
  -31.1820  -18.9280   21.3390 C   0  0  0  0  0  2  0  0  0  0  0  0
  -31.4960  -17.4450   21.5670 C   0  0  0  0  0  2  0  0  0  0  0  0
  -32.3570  -16.8680   20.4340 C   0  0  0  0  0  2  0  0  0  0  0  0
  -32.7760  -15.4100   20.6720 C   0  0  0  0  0  2  0  0  0  0  0  0
  -31.6400  -13.6790   19.3080 C   0  0  0  0  0  0  0  0  0  0  0  0
  -31.0210  -11.3860   18.6660 C   0  0  0  0  0  2  0  0  0  0  0  0
  -29.9490  -11.3070   17.5680 C   0  0  0  0  0  2  0  0  0  0  0  0
  -28.5440  -11.3520   18.1890 C   0  0  0  0  0  2  0  0  0  0  0  0
  -28.3700  -12.5400   19.1690 C   0  0  0  0  0  3  0  0  0  0  0  0
  -29.5370  -12.6090   20.1810 C   0  0  0  0  0  2  0  0  0  0  0  0
  -30.8160  -12.6140   19.4470 N   0  0  0  0  0  0  0  0  0  0  0  0
  -32.4450  -13.8060   18.3800 O   0  0  0  0  0  0  0  0  0  0  0  0
  -31.6970  -14.4660   20.3890 N   0  0  0  0  0  0  0  0  0  0  0  0
  -31.0540  -14.2510   21.1390 H   0  0  0  0  0  0  0  0  0  0  0  0
  -26.2750  -13.5160   20.3030 C   0  0  0  0  0  0  0  0  0  0  0  0
  -25.1360  -12.9280   20.7870 C   0  0  0  0  0  0  0  0  0  0  0  0
  -25.3030  -11.5250   20.5850 C   0  0  0  0  0  0  0  0  0  0  0  0
  -27.0740  -12.4820   19.8440 N   0  0  0  0  0  0  0  0  0  0  0  0
  -26.4980  -11.2720   20.0660 N   0  0  0  0  0  0  0  0  0  0  0  0
  -24.3720  -10.4100   20.8020 C   0  0  0  0  0  0  0  0  0  0  0  0
  -24.6920   -9.3360   21.6610 C   0  0  0  0  0  3  0  0  0  0  0  0
  -23.7720   -8.2850   21.8680 C   0  0  0  0  0  3  0  0  0  0  0  0
  -22.5160   -8.3040   21.2160 C   0  0  0  0  0  0  0  0  0  0  0  0
  -22.2120   -9.3640   20.3450 C   0  0  0  0  0  3  0  0  0  0  0  0
  -23.1300  -10.4060   20.1350 C   0  0  0  0  0  3  0  0  0  0  0  0
  -21.5710   -7.3140   21.3370 O   0  0  0  0  0  0  0  0  0  0  0  0
  -21.4350   -6.5860   22.4910 C   0  0  0  0  0  0  0  0  0  0  0  0
  -21.1710   -7.2020   23.7340 C   0  0  0  0  0  3  0  0  0  0  0  0
  -20.9700   -6.4100   24.8840 C   0  0  0  0  0  3  0  0  0  0  0  0
  -21.0200   -5.0070   24.7910 C   0  0  0  0  0  0  0  0  0  0  0  0
  -21.2770   -4.3920   23.5530 C   0  0  0  0  0  3  0  0  0  0  0  0
  -21.4800   -5.1800   22.4060 C   0  0  0  0  0  0  0  0  0  0  0  0
  -21.7060   -4.5810   21.2110 F   0  0  0  0  0  0  0  0  0  0  0  0
  -20.8190   -4.2470   25.8920 F   0  0  0  0  0  0  0  0  0  0  0  0
  -23.9230  -13.6320   21.3220 C   0  0  0  0  0  0  0  0  0  0  0  0
  -23.2330  -13.0230   22.2810 N   0  0  0  0  0  0  0  0  0  0  0  0
  -23.6060  -14.7520   20.9250 O   0  0  0  0  0  0  0  0  0  0  0  0
  -23.5050  -12.1130   22.6220 H   0  0  0  0  0  0  0  0  0  0  0  0
  -22.4220  -13.4740   22.6800 H   0  0  0  0  0  0  0  0  0  0  0  0
  -26.6880  -14.8400   20.1980 N   0  0  0  0  0  0  0  0  0  0  0  0
  -26.1050  -15.6150   20.4920 H   0  0  0  0  0  0  0  0  0  0  0  0
  -27.5680  -15.1320   19.7950 H   0  0  0  0  0  0  0  0  0  0  0  0
  -28.1340  -19.7470   20.2610 C   0  0  0  0  0  2  0  0  0  0  0  0
  -28.3740  -18.2270   18.2160 C   0  0  0  0  0  1  0  0  0  0  0  0
  -28.9850  -19.3650   19.0390 C   0  0  0  0  0  2  0  0  0  0  0  0
  2  1  1  0
  2  6  1  0
  3 52  1  0
  3  1  2  0
  4  2  2  0
  5  3  1  0
  7  4  1  0
  7  9  1  0
  8  6  1  0
  9 11  1  0
  9  8  1  0
 10  5  2  0
 10  4  1  0
 12 23  2  0
 13 11  1  0
 13 18  1  0
 14 22  1  0
 14 24  1  0
 15 21  1  0
 15 17  1  0
 16 22  1  0
 17 18  2  0
 17 16  1  0
 19 13  2  0
 20 19  1  0
 20 15  2  0
 21 14  1  0
 22 12  1  0
 24 26  2  0
 25 24  1  0
 27 25  1  0
 28 37  2  0
 28 33  1  0
 29 25  1  0
 29 33  1  0
 30 29  1  0
 31 32  1  0
 31 30  1  0
 32 28  1  0
 33 34  2  0
 34 35  1  0
 36 35  2  0
 37 36  1  0
 38 12  1  0
 38 39  1  0
 38 48  1  0
 39 42  1  0
 40 44  1  0
 40 39  1  0
 41 40  2  0
 44 43  1  0
 46 44  1  0
 46 47  1  0
 46 45  1  0
 48 51  1  1
 48 49  1  0
 50 48  1  0
 53 54  1  0
 53 52  1  0
 55 56  1  0
 55 54  1  0
 57 63  1  0
 57 65  1  0
 58 63  1  0
 59 60  1  0
 59 58  1  0
 61 60  1  0
 61 70  1  0
 61 62  1  0
 63 62  1  0
 64 57  2  0
 65 56  1  0
 65 66  1  0
 67 68  2  0
 68 87  1  0
 69 68  1  0
 69 72  1  0
 70 71  1  0
 70 67  1  0
 71 69  2  0
 72 73  1  0
 73 74  2  0
 75 78  1  0
 75 74  1  0
 76 75  2  0
 77 76  1  0
 77 72  2  0
 78 79  1  0
 79 80  1  0
 80 81  2  0
 82 81  1  0
 82 86  1  0
 83 82  2  0
 84 79  2  0
 84 83  1  0
 85 84  1  0
 87 88  1  0
 88 90  1  0
 88 91  1  0
 89 87  2  0
 92 67  1  0
 92 93  1  0
 94 92  1  0
 95  5  1  0
 96 97  1  0
 97 95  1  0
M  ISO  4   9 101  11 101  57 100  65 100
M  END
>  <TORSDO>  (84) 
F 23

>  <SCORE>  (84) 
-10.667

>  <name>  (84) 
83

>  <ligand_id>  (84) 
83

>  <original_smiles>  (84) 
[H]c1c([H])c([H])c2c(c1[H])C([H])([H])C([H])([H])C([H])([H])C2([H])N([H])C(=O)C1([H])N(C(=O)C([H])(N([H])C(=O)C([H])(N([H])C([H])([H])[H])C([H])([H])[H])C(C([H])([H])[H])(C([H])([H])[H])C([H])([H])[H])C([H])([H])c2c([H])c(OC3([H])C([H])([H])c4nc(C([H])([H])C([H])([H])C([H])([H])[H])c(C([H])([H])C([H])([H])C([H])([H])C([H])([H])C([H])([H])N([H])C(=O)N5C([H])([H])C([H])([H])C([H])([H])C([H])(n6nc(-c7c([H])c([H])c(Oc8c([H])c([H])c(F)c([H])c8F)c([H])c7[H])c(C(=O)N([H])[H])c6N([H])[H])C5([H])[H])c([H])c4C([H])([H])C3([H])[H])c([H])c([H])c2C1([H])[H]

>  <smiles>  (84) 
[H]c1c([H])c([H])c2c(c1[H])C([H])([H])C([H])([H])C([H])([H])C2([H])N([H])C(=O)C1([H])N(C(=O)C([H])(N([H])C(=O)C([H])(N([H])C([H])([H])[H])C([H])([H])[H])C(C([H])([H])[H])(C([H])([H])[H])C([H])([H])[H])C([H])([H])c2c([H])c(OC3([H])C([H])([H])c4nc(C([H])([H])C([H])([H])C([H])([H])[H])c(C([H])([H])C([H])([H])C([H])([H])C([H])([H])C([H])([H])N([H])C(=O)N5C([H])([H])C([H])([H])C([H])([H])C([H])(n6nc(-c7c([H])c([H])c(Oc8c([H])c([H])c(F)c([H])c8F)c([H])c7[H])c(C(=O)N([H])[H])c6N([H])[H])C5([H])[H])c([H])c4C([H])([H])C3([H])[H])c([H])c([H])c2C1([H])[H]

$$$$
84:0:0
     RDKit          3D

 94103  0  0  1  0  0  0  0  0999 V2000
  -29.9280  -22.3980   20.4890 C   0  0  0  0  0  3  0  0  0  0  0  0
  -28.7140  -22.8530   19.8450 C   0  0  0  0  0  0  0  0  0  0  0  0
  -30.3780  -20.9920   20.6130 C   0  0  0  0  0  0  0  0  0  0  0  0
  -28.0740  -21.6050   19.3750 C   0  0  0  0  0  0  0  0  0  0  0  0
  -29.6720  -19.8170   20.1120 C   0  0  0  0  0  0  0  0  0  0  0  0
  -28.5080  -20.2450   19.4910 N   0  0  0  0  0  0  0  0  0  0  0  0
  -31.5680  -20.7840   21.2270 F   0  0  0  0  0  0  0  0  0  0  0  0
  -24.2770  -20.6290   17.3420 C   0  0  0  0  0  2  0  0  0  0  0  0
  -24.2220  -21.2690   18.7400 C   0  0  0  0  0  2  0  0  0  0  0  0
  -25.4300  -21.2100   16.5060 C   0  0  0  0  0  2  0  0  0  0  0  0
  -25.5670  -21.1260   19.4730 C   0  0  0  0  0  2  0  0  0  0  0  0
  -26.7770  -21.0610   17.2340 C   0  0  0  0  0  2  0  0  0  0  0  0
  -26.7320  -21.6990   18.6380 C   0  0  0  0  0  3  0  0  0  0  0  0
  -28.0720  -24.4550   19.5660 C   0  0  0  0  0  2  0  0  0  0  0  0
  -28.4020  -26.0030   19.9540 O   0  0  0  0  0  0  0  0  0  0  0  0
  -24.5900  -31.7050   23.0830 C   0  0  0  0  0  0  0  0  0  0  0  0
  -27.3790  -27.0840   19.9060 C   0  0  0  0  0  0  0  0  0  0  0  0
  -23.4860  -30.3570   21.3440 C   0  0  0  0  0  3  0  0  0  0  0  0
  -25.0230  -28.8800   19.8860 C   0  0  0  0  0  0  0  0  0  0  0  0
  -26.0470  -30.6590   21.2830 C   0  0  0  0  0  2  0  0  0  0  0  0
  -26.1800  -29.2910   20.5600 C   0  0  0  0  0  0  0  0  0  0  0  0
  -27.3550  -28.4140   20.5490 C   0  0  0  0  0  3  0  0  0  0  0  0
  -26.1870  -26.8270   19.1870 C   0  0  0  0  0  3  0  0  0  0  0  0
  -25.0500  -27.6690   19.1810 C   0  0  0  0  0  3  0  0  0  0  0  0
  -23.7740  -29.7570   19.9430 C   0  0  0  0  0  2  0  0  0  0  0  0
  -24.7270  -30.9310   21.9590 N   0  0  0  0  0  0  0  0  0  0  0  0
  -23.4780  -31.9350   23.5850 O   0  0  0  0  0  0  0  0  0  0  0  0
  -22.7990  -29.2910   22.2380 C   0  0  0  0  0  0  0  0  0  0  0  0
  -21.4690  -29.1350   22.1090 N   0  0  0  0  0  0  0  0  0  0  0  0
  -23.4700  -28.6080   23.0150 O   0  0  0  0  0  0  0  0  0  0  0  0
  -20.9800  -29.7390   21.4620 H   0  0  0  0  0  0  0  0  0  0  0  0
  -18.0800  -27.9310   22.5940 C   0  0  0  0  0  0  0  0  0  0  0  0
  -20.6500  -28.1440   22.8160 C   0  0  0  0  0  3  0  0  0  0  0  0
  -20.7180  -26.7660   22.1190 C   0  0  0  0  0  2  0  0  0  0  0  0
  -19.5890  -26.5440   21.1090 C   0  0  0  0  0  2  0  0  0  0  0  0
  -18.2240  -26.6450   21.7970 C   0  0  0  0  0  2  0  0  0  0  0  0
  -19.2200  -28.6430   23.0590 C   0  0  0  0  0  0  0  0  0  0  0  0
  -19.0280  -29.8470   23.7700 C   0  0  0  0  0  3  0  0  0  0  0  0
  -17.7330  -30.3410   24.0170 C   0  0  0  0  0  3  0  0  0  0  0  0
  -16.6100  -29.6260   23.5660 C   0  0  0  0  0  3  0  0  0  0  0  0
  -16.7850  -28.4220   22.8600 C   0  0  0  0  0  3  0  0  0  0  0  0
  -25.8230  -32.3530   23.7810 C   0  0  0  0  0  3  0  0  0  0  0  0
  -26.2770  -31.5760   25.0790 C   0  0  1  0  0  0  0  0  0  0  0  0
  -25.1340  -31.3330   26.0920 C   0  0  0  0  0  1  0  0  0  0  0  0
  -26.8820  -30.2000   24.7180 C   0  0  0  0  0  1  0  0  0  0  0  0
  -27.3930  -32.3700   25.8000 C   0  0  0  0  0  1  0  0  0  0  0  0
  -25.4720  -33.7430   24.1190 N   0  0  0  0  0  0  0  0  0  0  0  0
  -25.8070  -34.8180   23.3950 C   0  0  0  0  0  0  0  0  0  0  0  0
  -26.5080  -34.7450   22.3820 O   0  0  0  0  0  0  0  0  0  0  0  0
  -24.8510  -33.8720   24.9060 H   0  0  0  0  0  0  0  0  0  0  0  0
  -24.0450  -36.5840   23.0480 C   0  0  0  0  0  1  0  0  0  0  0  0
  -25.2860  -36.1920   23.8650 C   0  0  0  0  0  3  0  0  0  0  0  0
  -27.3910  -37.1170   24.7320 C   0  0  0  0  0  1  0  0  0  0  0  0
  -26.2980  -37.2690   23.7760 N   0  0  0  0  0  0  0  0  0  0  0  0
  -25.8680  -38.1790   23.9260 H   0  0  0  0  0  0  0  0  0  0  0  0
  -30.3620  -18.2170   20.1570 C   0  0  0  0  0  2  0  0  0  0  0  0
  -30.6320  -15.3620   20.2620 C   0  0  0  0  0  0  0  0  0  0  0  0
  -30.5800  -12.9160   19.4270 C   0  0  0  0  0  2  0  0  0  0  0  0
  -29.6730  -12.7110   18.1900 C   0  0  0  0  0  2  0  0  0  0  0  0
  -28.2170  -12.4580   18.6210 C   0  0  0  0  0  2  0  0  0  0  0  0
  -27.7620  -13.4410   19.7300 C   0  0  0  0  0  3  0  0  0  0  0  0
  -28.8000  -13.5990   20.8610 C   0  0  0  0  0  2  0  0  0  0  0  0
  -30.0420  -14.0710   20.2310 N   0  0  0  0  0  0  0  0  0  0  0  0
  -31.8500  -15.3480   20.0380 O   0  0  0  0  0  0  0  0  0  0  0  0
  -29.9060  -16.6420   20.3360 N   0  0  0  0  0  0  0  0  0  0  0  0
  -28.9120  -16.5350   20.4790 H   0  0  0  0  0  0  0  0  0  0  0  0
  -25.3860  -14.0110   20.4620 C   0  0  0  0  0  0  0  0  0  0  0  0
  -24.3200  -13.2390   20.8270 C   0  0  0  0  0  0  0  0  0  0  0  0
  -24.7840  -11.8880   20.8090 C   0  0  0  0  0  0  0  0  0  0  0  0
  -26.4280  -13.1320   20.2310 N   0  0  0  0  0  0  0  0  0  0  0  0
  -26.0780  -11.8490   20.5080 N   0  0  0  0  0  0  0  0  0  0  0  0
  -24.0510  -10.6280   20.9980 C   0  0  0  0  0  0  0  0  0  0  0  0
  -24.4530   -9.6770   21.9630 C   0  0  0  0  0  3  0  0  0  0  0  0
  -23.7170   -8.4850   22.1410 C   0  0  0  0  0  3  0  0  0  0  0  0
  -22.5670   -8.2350   21.3550 C   0  0  0  0  0  0  0  0  0  0  0  0
  -22.1870   -9.1740   20.3800 C   0  0  0  0  0  3  0  0  0  0  0  0
  -22.9220  -10.3580   20.2010 C   0  0  0  0  0  3  0  0  0  0  0  0
  -21.8070   -7.0940   21.4400 O   0  0  0  0  0  0  0  0  0  0  0  0
  -21.6910   -6.3930   22.6140 C   0  0  0  0  0  0  0  0  0  0  0  0
  -21.2010   -6.9930   23.7940 C   0  0  0  0  0  3  0  0  0  0  0  0
  -21.0310   -6.2190   24.9590 C   0  0  0  0  0  3  0  0  0  0  0  0
  -21.3410   -4.8460   24.9450 C   0  0  0  0  0  0  0  0  0  0  0  0
  -21.8250   -4.2460   23.7690 C   0  0  0  0  0  3  0  0  0  0  0  0
  -21.9950   -5.0170   22.6060 C   0  0  0  0  0  0  0  0  0  0  0  0
  -22.4410   -4.4280   21.4700 F   0  0  0  0  0  0  0  0  0  0  0  0
  -21.1720   -4.1010   26.0620 F   0  0  0  0  0  0  0  0  0  0  0  0
  -22.9220  -13.7220   21.0800 C   0  0  0  0  0  0  0  0  0  0  0  0
  -22.1890  -13.0450   21.9560 N   0  0  0  0  0  0  0  0  0  0  0  0
  -22.4890  -14.7370   20.5350 O   0  0  0  0  0  0  0  0  0  0  0  0
  -22.5510  -12.2240   22.4180 H   0  0  0  0  0  0  0  0  0  0  0  0
  -21.2510  -13.3530   22.1700 H   0  0  0  0  0  0  0  0  0  0  0  0
  -25.5520  -15.3800   20.2770 N   0  0  0  0  0  0  0  0  0  0  0  0
  -24.7790  -16.0310   20.3720 H   0  0  0  0  0  0  0  0  0  0  0  0
  -26.3930  -15.8150   19.9210 H   0  0  0  0  0  0  0  0  0  0  0  0
  1  3  1  0
  2  1  2  0
  3  7  1  0
  4  6  2  0
  4  2  1  0
  5 56  1  0
  5  3  2  0
  6  5  1  0
  8  9  1  0
  9 11  1  0
 10 12  1  0
 10  8  1  0
 12 13  1  0
 13  4  1  0
 13 11  1  0
 14  2  1  0
 14 15  1  0
 16 27  2  0
 17 15  1  0
 17 22  1  0
 18 26  1  0
 18 28  1  0
 19 25  1  0
 19 21  1  0
 20 26  1  0
 21 20  1  0
 22 21  2  0
 23 17  2  0
 24 23  1  0
 24 19  2  0
 25 18  1  0
 26 16  1  0
 28 30  2  0
 29 28  1  0
 31 29  1  0
 32 41  2  0
 32 37  1  0
 33 29  1  0
 33 37  1  0
 34 33  1  0
 35 36  1  0
 35 34  1  0
 36 32  1  0
 37 38  2  0
 38 39  1  0
 40 39  2  0
 41 40  1  0
 42 16  1  0
 42 47  1  0
 42 43  1  0
 43 46  1  1
 43 44  1  0
 45 43  1  0
 47 50  1  0
 48 52  1  0
 48 47  1  0
 49 48  2  0
 52 51  1  0
 54 52  1  0
 54 55  1  0
 54 53  1  0
 56 65  1  0
 57 65  1  0
 58 63  1  0
 59 60  1  0
 59 58  1  0
 61 60  1  0
 61 70  1  0
 61 62  1  0
 63 57  1  0
 63 62  1  0
 64 57  2  0
 65 66  1  0
 67 68  2  0
 68 87  1  0
 69 68  1  0
 69 72  1  0
 70 67  1  0
 70 71  1  0
 71 69  2  0
 72 73  1  0
 73 74  2  0
 75 78  1  0
 75 74  1  0
 76 75  2  0
 77 76  1  0
 77 72  2  0
 78 79  1  0
 79 80  1  0
 80 81  2  0
 82 81  1  0
 82 86  1  0
 83 82  2  0
 84 79  2  0
 84 83  1  0
 85 84  1  0
 87 88  1  0
 88 91  1  0
 88 90  1  0
 89 87  2  0
 92 93  1  0
 92 67  1  0
 94 92  1  0
M  ISO  4  14 101  15 101  57 100  65 100
M  END
>  <TORSDO>  (85) 
F 19

>  <SCORE>  (85) 
-12.415

>  <name>  (85) 
84

>  <ligand_id>  (85) 
84

>  <original_smiles>  (85) 
[H]c1c([H])c([H])c2c(c1[H])C([H])([H])C([H])([H])C([H])([H])C2([H])N([H])C(=O)C1([H])N(C(=O)C([H])(N([H])C(=O)C([H])(N([H])C([H])([H])[H])C([H])([H])[H])C(C([H])([H])[H])(C([H])([H])[H])C([H])([H])[H])C([H])([H])c2c([H])c(OC([H])([H])c3c(C4([H])C([H])([H])C([H])([H])C([H])([H])C([H])([H])C4([H])[H])nc(C([H])([H])N([H])C(=O)N4C([H])([H])C([H])([H])C([H])([H])C([H])(n5nc(-c6c([H])c([H])c(Oc7c([H])c([H])c(F)c([H])c7F)c([H])c6[H])c(C(=O)N([H])[H])c5N([H])[H])C4([H])[H])c(F)c3[H])c([H])c([H])c2C1([H])[H]

>  <smiles>  (85) 
[H]c1c([H])c([H])c2c(c1[H])C([H])([H])C([H])([H])C([H])([H])C2([H])N([H])C(=O)C1([H])N(C(=O)C([H])(N([H])C(=O)C([H])(N([H])C([H])([H])[H])C([H])([H])[H])C(C([H])([H])[H])(C([H])([H])[H])C([H])([H])[H])C([H])([H])c2c([H])c(OC([H])([H])c3c(C4([H])C([H])([H])C([H])([H])C([H])([H])C([H])([H])C4([H])[H])nc(C([H])([H])N([H])C(=O)N4C([H])([H])C([H])([H])C([H])([H])C([H])(n5nc(-c6c([H])c([H])c(Oc7c([H])c([H])c(F)c([H])c7F)c([H])c6[H])c(C(=O)N([H])[H])c5N([H])[H])C4([H])[H])c(F)c3[H])c([H])c([H])c2C1([H])[H]

$$$$
85:0:0
     RDKit          3D

 91 99  0  0  1  0  0  0  0  0999 V2000
  -29.5520  -21.8420   22.0580 C   0  0  0  0  0  3  0  0  0  0  0  0
  -30.2450  -19.4760   21.9980 C   0  0  0  0  0  3  0  0  0  0  0  0
  -30.1190  -20.7030   22.6980 C   0  0  0  0  0  0  0  0  0  0  0  0
  -29.1430  -21.8130   20.7060 C   0  0  0  0  0  0  0  0  0  0  0  0
  -29.8470  -19.3570   20.6560 C   0  0  0  0  0  0  0  0  0  0  0  0
  -29.3190  -20.5460   20.0460 N   0  0  0  0  0  0  0  0  0  0  0  0
  -31.9960  -21.6120   24.1450 C   0  0  0  0  0  1  0  0  0  0  0  0
  -30.8370  -19.5090   24.8720 C   0  0  0  0  0  1  0  0  0  0  0  0
  -30.6650  -20.8440   24.1270 C   0  0  0  0  0  3  0  0  0  0  0  0
  -28.7110  -23.2590   19.9600 C   0  0  0  0  0  2  0  0  0  0  0  0
  -28.0160  -24.6980   20.6110 C   0  0  0  0  0  2  0  0  0  0  0  0
  -28.1980  -26.2160   20.1810 O   0  0  0  0  0  0  0  0  0  0  0  0
  -24.6270  -31.9330   23.2580 C   0  0  0  0  0  0  0  0  0  0  0  0
  -27.1360  -27.2090   20.1740 C   0  0  0  0  0  0  0  0  0  0  0  0
  -23.3910  -30.5640   21.6220 C   0  0  0  0  0  3  0  0  0  0  0  0
  -24.8150  -28.9890   20.1570 C   0  0  0  0  0  0  0  0  0  0  0  0
  -25.9460  -30.8120   21.4200 C   0  0  0  0  0  2  0  0  0  0  0  0
  -26.0050  -29.4220   20.7560 C   0  0  0  0  0  0  0  0  0  0  0  0
  -27.1670  -28.5530   20.7360 C   0  0  0  0  0  3  0  0  0  0  0  0
  -25.9210  -26.8860   19.5310 C   0  0  0  0  0  3  0  0  0  0  0  0
  -24.7900  -27.7360   19.5210 C   0  0  0  0  0  3  0  0  0  0  0  0
  -23.5860  -29.8910   20.2360 C   0  0  0  0  0  2  0  0  0  0  0  0
  -24.6750  -31.1270   22.1530 N   0  0  0  0  0  0  0  0  0  0  0  0
  -23.5530  -32.2140   23.8100 O   0  0  0  0  0  0  0  0  0  0  0  0
  -22.7200  -29.5530   22.5850 C   0  0  0  0  0  0  0  0  0  0  0  0
  -21.3990  -29.3490   22.4420 N   0  0  0  0  0  0  0  0  0  0  0  0
  -23.3950  -28.9530   23.4250 O   0  0  0  0  0  0  0  0  0  0  0  0
  -20.9070  -29.8810   21.7380 H   0  0  0  0  0  0  0  0  0  0  0  0
  -18.0570  -27.9990   22.8540 C   0  0  0  0  0  0  0  0  0  0  0  0
  -20.5910  -28.3960   23.2110 C   0  0  0  0  0  3  0  0  0  0  0  0
  -20.7820  -26.9530   22.6900 C   0  0  0  0  0  2  0  0  0  0  0  0
  -19.7400  -26.5450   21.6420 C   0  0  0  0  0  2  0  0  0  0  0  0
  -18.3270  -26.6410   22.2240 C   0  0  0  0  0  2  0  0  0  0  0  0
  -19.1210  -28.8270   23.3030 C   0  0  0  0  0  0  0  0  0  0  0  0
  -18.8170  -30.0940   23.8500 C   0  0  0  0  0  3  0  0  0  0  0  0
  -17.4840  -30.5340   23.9480 C   0  0  0  0  0  3  0  0  0  0  0  0
  -16.4360  -29.7040   23.5200 C   0  0  0  0  0  3  0  0  0  0  0  0
  -16.7220  -28.4370   22.9790 C   0  0  0  0  0  3  0  0  0  0  0  0
  -25.9170  -32.5580   23.8720 C   0  0  0  0  0  3  0  0  0  0  0  0
  -26.4140  -31.7990   25.1640 C   0  0  1  0  0  0  0  0  0  0  0  0
  -25.3150  -31.6000   26.2340 C   0  0  0  0  0  1  0  0  0  0  0  0
  -26.9740  -30.4050   24.8020 C   0  0  0  0  0  1  0  0  0  0  0  0
  -27.5850  -32.5760   25.8130 C   0  0  0  0  0  1  0  0  0  0  0  0
  -25.6340  -33.9660   24.1890 N   0  0  0  0  0  0  0  0  0  0  0  0
  -26.0080  -35.0090   23.4380 C   0  0  0  0  0  0  0  0  0  0  0  0
  -26.6940  -34.8820   22.4200 O   0  0  0  0  0  0  0  0  0  0  0  0
  -25.0270  -34.1390   24.9790 H   0  0  0  0  0  0  0  0  0  0  0  0
  -24.3340  -36.8490   23.0470 C   0  0  0  0  0  1  0  0  0  0  0  0
  -25.5510  -36.4150   23.8810 C   0  0  0  0  0  3  0  0  0  0  0  0
  -27.6890  -37.2530   24.7470 C   0  0  0  0  0  1  0  0  0  0  0  0
  -26.6110  -37.4420   23.7790 N   0  0  0  0  0  0  0  0  0  0  0  0
  -26.2270  -38.3740   23.9070 H   0  0  0  0  0  0  0  0  0  0  0  0
  -30.2020  -17.9220   19.8830 C   0  0  0  0  0  2  0  0  0  0  0  0
  -30.7410  -15.2120   20.1700 C   0  0  0  0  0  0  0  0  0  0  0  0
  -30.6200  -12.8150   19.3120 C   0  0  0  0  0  2  0  0  0  0  0  0
  -29.7040  -12.7520   18.0670 C   0  0  0  0  0  2  0  0  0  0  0  0
  -28.2320  -12.5520   18.4800 C   0  0  0  0  0  2  0  0  0  0  0  0
  -27.8190  -13.4750   19.6580 C   0  0  0  0  0  3  0  0  0  0  0  0
  -28.8780  -13.5280   20.7850 C   0  0  0  0  0  2  0  0  0  0  0  0
  -30.1500  -13.9410   20.1760 N   0  0  0  0  0  0  0  0  0  0  0  0
  -31.9210  -15.2610   19.8060 O   0  0  0  0  0  0  0  0  0  0  0  0
  -29.9890  -16.4130   20.3660 N   0  0  0  0  0  0  0  0  0  0  0  0
  -29.0510  -16.2430   20.6920 H   0  0  0  0  0  0  0  0  0  0  0  0
  -25.4510  -14.0400   20.4410 C   0  0  0  0  0  0  0  0  0  0  0  0
  -24.3910  -13.2650   20.8190 C   0  0  0  0  0  0  0  0  0  0  0  0
  -24.8520  -11.9110   20.7680 C   0  0  0  0  0  0  0  0  0  0  0  0
  -26.4890  -13.1630   20.1730 N   0  0  0  0  0  0  0  0  0  0  0  0
  -26.1380  -11.8770   20.4380 N   0  0  0  0  0  0  0  0  0  0  0  0
  -24.1200  -10.6500   20.9570 C   0  0  0  0  0  0  0  0  0  0  0  0
  -24.5380   -9.6890   21.9030 C   0  0  0  0  0  3  0  0  0  0  0  0
  -23.8070   -8.4950   22.0820 C   0  0  0  0  0  3  0  0  0  0  0  0
  -22.6440   -8.2500   21.3160 C   0  0  0  0  0  0  0  0  0  0  0  0
  -22.2450   -9.1990   20.3610 C   0  0  0  0  0  3  0  0  0  0  0  0
  -22.9740  -10.3860   20.1790 C   0  0  0  0  0  3  0  0  0  0  0  0
  -21.8840   -7.1090   21.4060 O   0  0  0  0  0  0  0  0  0  0  0  0
  -21.7900   -6.3960   22.5740 C   0  0  0  0  0  0  0  0  0  0  0  0
  -21.3060   -6.9770   23.7660 C   0  0  0  0  0  3  0  0  0  0  0  0
  -21.1580   -6.1880   24.9240 C   0  0  0  0  0  3  0  0  0  0  0  0
  -21.4850   -4.8190   24.8910 C   0  0  0  0  0  0  0  0  0  0  0  0
  -21.9620   -4.2380   23.7040 C   0  0  0  0  0  3  0  0  0  0  0  0
  -22.1100   -5.0220   22.5470 C   0  0  0  0  0  0  0  0  0  0  0  0
  -22.5480   -4.4520   21.3990 F   0  0  0  0  0  0  0  0  0  0  0  0
  -21.3350   -4.0590   26.0010 F   0  0  0  0  0  0  0  0  0  0  0  0
  -23.0010  -13.7440   21.1110 C   0  0  0  0  0  0  0  0  0  0  0  0
  -22.2830  -13.0520   21.9900 N   0  0  0  0  0  0  0  0  0  0  0  0
  -22.5590  -14.7670   20.5910 O   0  0  0  0  0  0  0  0  0  0  0  0
  -22.6530  -12.2300   22.4390 H   0  0  0  0  0  0  0  0  0  0  0  0
  -21.3440  -13.3500   22.2160 H   0  0  0  0  0  0  0  0  0  0  0  0
  -25.6100  -15.4140   20.2770 N   0  0  0  0  0  0  0  0  0  0  0  0
  -24.8370  -16.0570   20.3890 H   0  0  0  0  0  0  0  0  0  0  0  0
  -26.4380  -15.8530   19.8920 H   0  0  0  0  0  0  0  0  0  0  0  0
  1  3  1  0
  2  3  2  0
  3  9  1  0
  4  1  2  0
  5  2  1  0
  6  5  2  0
  6  4  1  0
  9  7  1  0
  9  8  1  0
 10 11  1  0
 10  4  1  0
 12 11  1  0
 13 24  2  0
 14 12  1  0
 14 19  1  0
 15 23  1  0
 15 25  1  0
 16 22  1  0
 16 18  1  0
 17 23  1  0
 18 17  1  0
 19 18  2  0
 20 14  2  0
 21 20  1  0
 21 16  2  0
 22 15  1  0
 23 13  1  0
 25 27  2  0
 26 25  1  0
 28 26  1  0
 29 38  2  0
 29 34  1  0
 30 26  1  0
 30 34  1  0
 31 30  1  0
 32 33  1  0
 32 31  1  0
 33 29  1  0
 34 35  2  0
 35 36  1  0
 37 36  2  0
 38 37  1  0
 39 13  1  0
 39 44  1  0
 39 40  1  0
 40 43  1  1
 40 41  1  0
 42 40  1  0
 44 47  1  0
 45 49  1  0
 45 44  1  0
 46 45  2  0
 49 48  1  0
 51 49  1  0
 51 52  1  0
 51 50  1  0
 53 62  1  0
 53  5  1  0
 54 60  1  0
 54 62  1  0
 55 60  1  0
 56 57  1  0
 56 55  1  0
 58 57  1  0
 58 67  1  0
 58 59  1  0
 60 59  1  0
 61 54  2  0
 62 63  1  0
 64 65  2  0
 65 84  1  0
 66 65  1  0
 66 69  1  0
 67 68  1  0
 67 64  1  0
 68 66  2  0
 69 70  1  0
 70 71  2  0
 72 75  1  0
 72 71  1  0
 73 72  2  0
 74 73  1  0
 74 69  2  0
 75 76  1  0
 76 77  1  0
 77 78  2  0
 79 78  1  0
 79 83  1  0
 80 79  2  0
 81 76  2  0
 81 80  1  0
 82 81  1  0
 84 85  1  0
 85 88  1  0
 85 87  1  0
 86 84  2  0
 89 90  1  0
 89 64  1  0
 91 89  1  0
M  ISO  4  11 101  12 101  54 100  62 100
M  END
>  <TORSDO>  (86) 
F 20

>  <SCORE>  (86) 
-13.218

>  <name>  (86) 
85

>  <ligand_id>  (86) 
85

>  <original_smiles>  (86) 
[H]c1c([H])c([H])c2c(c1[H])C([H])([H])C([H])([H])C([H])([H])C2([H])N([H])C(=O)C1([H])N(C(=O)C([H])(N([H])C(=O)C([H])(N([H])C([H])([H])[H])C([H])([H])[H])C(C([H])([H])[H])(C([H])([H])[H])C([H])([H])[H])C([H])([H])c2c([H])c(OC([H])([H])C([H])([H])c3nc(C([H])([H])N([H])C(=O)N4C([H])([H])C([H])([H])C([H])([H])C([H])(n5nc(-c6c([H])c([H])c(Oc7c([H])c([H])c(F)c([H])c7F)c([H])c6[H])c(C(=O)N([H])[H])c5N([H])[H])C4([H])[H])c([H])c(C([H])(C([H])([H])[H])C([H])([H])[H])c3[H])c([H])c([H])c2C1([H])[H]

>  <smiles>  (86) 
[H]c1c([H])c([H])c2c(c1[H])C([H])([H])C([H])([H])C([H])([H])C2([H])N([H])C(=O)C1([H])N(C(=O)C([H])(N([H])C(=O)C([H])(N([H])C([H])([H])[H])C([H])([H])[H])C(C([H])([H])[H])(C([H])([H])[H])C([H])([H])[H])C([H])([H])c2c([H])c(OC([H])([H])C([H])([H])c3nc(C([H])([H])N([H])C(=O)N4C([H])([H])C([H])([H])C([H])([H])C([H])(n5nc(-c6c([H])c([H])c(Oc7c([H])c([H])c(F)c([H])c7F)c([H])c6[H])c(C(=O)N([H])[H])c5N([H])[H])C4([H])[H])c([H])c(C([H])(C([H])([H])[H])C([H])([H])[H])c3[H])c([H])c([H])c2C1([H])[H]

$$$$
86:0:0
     RDKit          3D

 93 98  0  0  1  0  0  0  0  0999 V2000
  -27.1270  -24.2440   21.7550 C   0  0  0  0  0  3  0  0  0  0  0  0
  -29.9510  -23.5470   19.9830 C   0  0  0  0  0  2  0  0  0  0  0  0
  -27.3740  -22.8500   20.6710 C   0  0  0  0  0  0  0  0  0  0  0  0
  -28.5630  -25.3310   22.0660 C   0  0  0  0  0  3  0  0  0  0  0  0
  -30.0280  -25.0080   21.0090 C   0  0  0  0  0  3  0  0  0  0  0  0
  -28.8460  -22.2090   20.0240 C   0  0  0  0  0  2  0  0  0  0  0  0
  -26.2280  -21.8600   20.6880 C   0  0  0  0  0  1  0  0  0  0  0  0
  -28.8280  -25.4060   23.5120 C   0  0  0  0  0  2  0  0  0  0  0  0
  -29.5170  -24.0520   23.5220 C   0  0  0  0  0  2  0  0  0  0  0  0
  -29.2890  -23.3330   22.1130 C   0  0  0  0  0  1  0  0  0  0  0  0
  -28.2600  -25.0630   19.9940 O   0  0  0  0  0  1  0  0  0  0  0  0
  -24.6860  -31.9100   23.0490 C   0  0  0  0  0  0  0  0  0  0  0  0
  -27.4330  -26.5940   20.0020 C   0  0  0  0  0  0  0  0  0  0  0  0
  -23.5810  -30.4780   21.3910 C   0  0  0  0  0  3  0  0  0  0  0  0
  -25.1160  -28.8380   19.9720 C   0  0  0  0  0  0  0  0  0  0  0  0
  -26.1760  -30.5910   21.3420 C   0  0  0  0  0  2  0  0  0  0  0  0
  -26.3000  -29.1240   20.6610 C   0  0  0  0  0  0  0  0  0  0  0  0
  -27.4060  -28.0380   20.6600 C   0  0  0  0  0  3  0  0  0  0  0  0
  -26.2160  -26.6710   19.2300 C   0  0  0  0  0  3  0  0  0  0  0  0
  -25.1390  -27.6380   19.2340 C   0  0  0  0  0  3  0  0  0  0  0  0
  -23.8790  -29.7840   20.0230 C   0  0  0  0  0  2  0  0  0  0  0  0
  -24.8410  -31.0380   21.9770 N   0  0  0  0  0  0  0  0  0  0  0  0
  -23.5710  -32.1730   23.5390 O   0  0  0  0  0  0  0  0  0  0  0  0
  -22.8600  -29.4940   22.3560 C   0  0  0  0  0  0  0  0  0  0  0  0
  -21.5240  -29.3430   22.2620 N   0  0  0  0  0  0  0  0  0  0  0  0
  -23.5260  -28.8590   23.1750 O   0  0  0  0  0  0  0  0  0  0  0  0
  -21.0250  -29.9020   21.5810 H   0  0  0  0  0  0  0  0  0  0  0  0
  -18.1590  -28.0650   22.8400 C   0  0  0  0  0  0  0  0  0  0  0  0
  -20.7250  -28.3730   23.0240 C   0  0  0  0  0  3  0  0  0  0  0  0
  -20.8270  -26.9610   22.3990 C   0  0  0  0  0  2  0  0  0  0  0  0
  -19.7020  -26.6630   21.4040 C   0  0  0  0  0  2  0  0  0  0  0  0
  -18.3380  -26.7520   22.0960 C   0  0  0  0  0  2  0  0  0  0  0  0
  -19.2790  -28.8330   23.2620 C   0  0  0  0  0  0  0  0  0  0  0  0
  -19.0560  -30.0560   23.9300 C   0  0  0  0  0  3  0  0  0  0  0  0
  -17.7480  -30.5160   24.1730 C   0  0  0  0  0  3  0  0  0  0  0  0
  -16.6440  -29.7470   23.7650 C   0  0  0  0  0  3  0  0  0  0  0  0
  -16.8500  -28.5230   23.1050 C   0  0  0  0  0  3  0  0  0  0  0  0
  -25.9000  -32.6260   23.7160 C   0  0  0  0  0  3  0  0  0  0  0  0
  -25.5080  -34.0170   24.0520 N   0  0  0  0  0  0  0  0  0  0  0  0
  -25.8310  -35.1140   23.3520 C   0  0  0  0  0  0  0  0  0  0  0  0
  -26.5410  -35.0670   22.3440 O   0  0  0  0  0  0  0  0  0  0  0  0
  -24.8730  -34.1210   24.8280 H   0  0  0  0  0  0  0  0  0  0  0  0
  -24.0740  -36.8960   23.0040 C   0  0  0  0  0  1  0  0  0  0  0  0
  -25.2940  -36.4810   23.8420 C   0  0  0  0  0  3  0  0  0  0  0  0
  -27.3690  -37.4110   24.7820 C   0  0  0  0  0  1  0  0  0  0  0  0
  -26.3010  -37.5670   23.8000 N   0  0  0  0  0  0  0  0  0  0  0  0
  -25.8620  -38.4720   23.9500 H   0  0  0  0  0  0  0  0  0  0  0  0
  -26.3970  -31.8980   25.0280 C   0  0  1  0  0  0  0  0  0  0  0  0
  -25.2790  -31.6490   26.0690 C   0  0  0  0  0  1  0  0  0  0  0  0
  -27.0320  -30.5290   24.7090 C   0  0  0  0  0  1  0  0  0  0  0  0
  -27.5030  -32.7370   25.7090 C   0  0  0  0  0  1  0  0  0  0  0  0
  -31.3780  -25.6980   21.1250 C   0  0  0  0  0  2  0  0  0  0  0  0
  -32.7840  -27.6440   21.9650 C   0  0  0  0  0  1  0  0  0  0  0  0
  -31.3770  -27.1610   21.5940 C   0  0  0  0  0  2  0  0  0  0  0  0
  -29.5250  -20.2110   19.7870 C   0  0  0  0  0 15  0  0  0  0  0  0
  -30.2250  -16.6640   19.9260 C   0  0  0  0  0  0  0  0  0  0  0  0
  -30.5180  -13.9500   19.1970 C   0  0  0  0  0  2  0  0  0  0  0  0
  -29.6940  -13.2030   18.0830 C   0  0  0  0  0  2  0  0  0  0  0  0
  -28.3600  -12.6810   18.6180 C   0  0  0  0  0  2  0  0  0  0  0  0
  -27.7580  -13.7230   19.5750 C   0  0  0  0  0  3  0  0  0  0  0  0
  -28.7530  -14.3440   20.6100 C   0  0  0  0  0  2  0  0  0  0  0  0
  -29.7830  -15.1760   19.8770 N   0  0  0  0  0  0  0  0  0  0  0  0
  -31.4650  -16.4910   19.7610 O   0  0  0  0  0  0  0  0  0  0  0  0
  -29.4860  -18.2130   19.9820 N   0  0  0  0  0  2  0  0  0  0  0  0
  -28.5120  -17.9880   20.1350 H   0  0  0  0  0  0  0  0  0  0  0  0
  -25.4380  -14.1690   20.4610 C   0  0  0  0  0  0  0  0  0  0  0  0
  -24.3980  -13.3730   20.8340 C   0  0  0  0  0  0  0  0  0  0  0  0
  -24.8700  -12.0260   20.7280 C   0  0  0  0  0  0  0  0  0  0  0  0
  -26.4790  -13.3210   20.1480 N   0  0  0  0  0  0  0  0  0  0  0  0
  -26.1540  -12.0150   20.3630 N   0  0  0  0  0  0  0  0  0  0  0  0
  -24.1440  -10.7580   20.8970 C   0  0  0  0  0  0  0  0  0  0  0  0
  -24.5470   -9.7930   21.8450 C   0  0  0  0  0  3  0  0  0  0  0  0
  -23.8130   -8.5970   22.0070 C   0  0  0  0  0  3  0  0  0  0  0  0
  -22.6610   -8.3550   21.2220 C   0  0  0  0  0  0  0  0  0  0  0  0
  -22.2800   -9.3070   20.2610 C   0  0  0  0  0  3  0  0  0  0  0  0
  -23.0140  -10.4950   20.0970 C   0  0  0  0  0  3  0  0  0  0  0  0
  -21.9060   -7.2080   21.2890 O   0  0  0  0  0  0  0  0  0  0  0  0
  -21.7480   -6.5170   22.4640 C   0  0  0  0  0  0  0  0  0  0  0  0
  -21.1670   -7.1130   23.6050 C   0  0  0  0  0  3  0  0  0  0  0  0
  -20.9590   -6.3480   24.7700 C   0  0  0  0  0  3  0  0  0  0  0  0
  -21.3220   -4.9880   24.7960 C   0  0  0  0  0  0  0  0  0  0  0  0
  -21.8950   -4.3910   23.6580 C   0  0  0  0  0  3  0  0  0  0  0  0
  -22.1050   -5.1550   22.4960 C   0  0  0  0  0  0  0  0  0  0  0  0
  -22.6380   -4.5700   21.3950 F   0  0  0  0  0  0  0  0  0  0  0  0
  -21.1170   -4.2480   25.9110 F   0  0  0  0  0  0  0  0  0  0  0  0
  -23.0120  -13.8390   21.1650 C   0  0  0  0  0  0  0  0  0  0  0  0
  -22.3140  -13.1190   22.0330 N   0  0  0  0  0  0  0  0  0  0  0  0
  -22.5610  -14.8810   20.6890 O   0  0  0  0  0  0  0  0  0  0  0  0
  -22.6940  -12.2780   22.4400 H   0  0  0  0  0  0  0  0  0  0  0  0
  -21.3830  -13.4130   22.2930 H   0  0  0  0  0  0  0  0  0  0  0  0
  -25.5870  -15.5470   20.3270 N   0  0  0  0  0  0  0  0  0  0  0  0
  -24.8230  -16.1950   20.4890 H   0  0  0  0  0  0  0  0  0  0  0  0
  -26.4220  -15.9980   19.9770 H   0  0  0  0  0  0  0  0  0  0  0  0
  1  4  1  0
  2  6  1  0
  2  5  1  0
  3  7  1  0
  3  1  2  0
  4  8  1  0
  5 52  1  0
  5  4  1  0
  6  3  1  0
  8  9  1  0
 10  9  1  0
 11 13  1  0
 12 23  2  0
 13 18  1  0
 14 22  1  0
 14 24  1  0
 15 21  1  0
 15 17  1  0
 16 22  1  0
 17 16  1  0
 18 17  2  0
 19 20  1  0
 19 13  2  0
 20 15  2  0
 21 14  1  0
 22 12  1  0
 24 26  2  0
 25 24  1  0
 27 25  1  0
 28 37  2  0
 28 33  1  0
 29 25  1  0
 29 33  1  0
 30 29  1  0
 31 32  1  0
 31 30  1  0
 32 28  1  0
 33 34  2  0
 34 35  1  0
 36 35  2  0
 37 36  1  0
 38 12  1  0
 38 39  1  0
 38 48  1  0
 39 42  1  0
 40 44  1  0
 40 39  1  0
 41 40  2  0
 44 43  1  0
 46 44  1  0
 46 47  1  0
 46 45  1  0
 48 51  1  1
 48 49  1  0
 50 48  1  0
 52 54  1  0
 54 53  1  0
 56 64  1  0
 57 62  1  0
 58 59  1  0
 58 57  1  0
 60 59  1  0
 60 69  1  0
 60 61  1  0
 62 56  1  0
 62 61  1  0
 63 56  2  0
 64 65  1  0
 66 67  2  0
 67 86  1  0
 68 67  1  0
 68 71  1  0
 69 70  1  0
 69 66  1  0
 70 68  2  0
 71 72  1  0
 72 73  2  0
 74 77  1  0
 74 73  1  0
 75 74  2  0
 76 75  1  0
 76 71  2  0
 77 78  1  0
 78 83  2  0
 78 79  1  0
 79 80  2  0
 80 81  1  0
 81 85  1  0
 82 81  2  0
 83 82  1  0
 84 83  1  0
 86 87  1  0
 87 90  1  0
 87 89  1  0
 88 86  2  0
 91 66  1  0
 91 92  1  0
 93 91  1  0
M  ISO  4  10 101  11 101  56 100  64 100
M  END
>  <TORSDO>  (87) 
F 22

>  <SCORE>  (87) 
-13.875

>  <name>  (87) 
86

>  <ligand_id>  (87) 
86

>  <original_smiles>  (87) 
[H]c1c([H])c([H])c2c(c1[H])C([H])([H])C([H])([H])C([H])([H])C2([H])N([H])C(=O)C1([H])N(C(=O)C([H])(N([H])C(=O)C([H])(N([H])C([H])([H])[H])C([H])([H])[H])C(C([H])([H])[H])(C([H])([H])[H])C([H])([H])[H])C([H])([H])c2c([H])c(OC([H])([H])C([H])([H])C([H])([H])c3c([H])c(C([H])([H])[H])c(C([H])([H])N([H])C(=O)N4C([H])([H])C([H])([H])C([H])([H])C([H])(n5nc(-c6c([H])c([H])c(Oc7c([H])c([H])c(F)c([H])c7F)c([H])c6[H])c(C(=O)N([H])[H])c5N([H])[H])C4([H])[H])c([H])c3C([H])([H])C([H])([H])C([H])([H])[H])c([H])c([H])c2C1([H])[H]

>  <smiles>  (87) 
[H]c1c([H])c([H])c2c(c1[H])C([H])([H])C([H])([H])C([H])([H])C2([H])N([H])C(=O)C1([H])N(C(=O)C([H])(N([H])C(=O)C([H])(N([H])C([H])([H])[H])C([H])([H])[H])C(C([H])([H])[H])(C([H])([H])[H])C([H])([H])[H])C([H])([H])c2c([H])c(OC([H])([H])C([H])([H])C([H])([H])c3c([H])c(C([H])([H])[H])c(C([H])([H])N([H])C(=O)N4C([H])([H])C([H])([H])C([H])([H])C([H])(n5nc(-c6c([H])c([H])c(Oc7c([H])c([H])c(F)c([H])c7F)c([H])c6[H])c(C(=O)N([H])[H])c5N([H])[H])C4([H])[H])c([H])c3C([H])([H])C([H])([H])C([H])([H])[H])c([H])c([H])c2C1([H])[H]

$$$$
87:0:0
     RDKit          3D

 92100  0  0  1  0  0  0  0  0999 V2000
  -29.3250  -21.3040   20.6500 N   0  0  0  0  0  4  0  0  0  0  0  0
  -28.8630  -20.9660   19.8200 H   0  0  0  0  0  0  0  0  0  0  0  0
  -30.2930  -21.4580   20.4170 H   0  0  0  0  0  0  0  0  0  0  0  0
  -29.2880  -20.1870   21.6610 C   0  0  0  0  0  2  0  0  0  0  0  0
  -31.0450  -16.6640   21.7300 C   0  0  0  0  0  3  0  0  0  0  0  0
  -30.4980  -16.0570   20.5810 C   0  0  0  0  0  0  0  0  0  0  0  0
  -30.6990  -17.9990   22.0890 C   0  0  0  0  0  0  0  0  0  0  0  0
  -29.6100  -16.8840   19.8250 C   0  0  0  0  0  0  0  0  0  0  0  0
  -29.8050  -18.7510   21.2710 C   0  0  0  0  0  0  0  0  0  0  0  0
  -31.2980  -18.5670   23.3690 C   0  0  0  0  0  1  0  0  0  0  0  0
  -28.9450  -16.4160   18.5410 C   0  0  0  0  0  1  0  0  0  0  0  0
  -29.2790  -18.1710   20.1640 N   0  0  0  0  0  0  0  0  0  0  0  0
  -31.0570  -14.7150   20.0740 C   0  0  0  0  0  0  0  0  0  0  0  0
  -30.6130  -12.5610   18.9310 C   0  0  0  0  0  2  0  0  0  0  0  0
  -29.6220  -12.7810   17.7690 C   0  0  0  0  0  2  0  0  0  0  0  0
  -28.1720  -12.6630   18.2680 C   0  0  0  0  0  2  0  0  0  0  0  0
  -27.9140  -13.4810   19.5620 C   0  0  0  0  0  3  0  0  0  0  0  0
  -29.0300  -13.2940   20.6160 C   0  0  0  0  0  2  0  0  0  0  0  0
  -30.3170  -13.5700   19.9710 N   0  0  0  0  0  0  0  0  0  0  0  0
  -32.1910  -14.7720   19.5960 O   0  0  0  0  0  0  0  0  0  0  0  0
  -25.5740  -14.1040   20.4120 C   0  0  0  0  0  0  0  0  0  0  0  0
  -24.5090  -13.3440   20.8120 C   0  0  0  0  0  0  0  0  0  0  0  0
  -24.9420  -11.9840   20.7260 C   0  0  0  0  0  0  0  0  0  0  0  0
  -26.5890  -13.2120   20.1100 N   0  0  0  0  0  0  0  0  0  0  0  0
  -26.2170  -11.9280   20.3610 N   0  0  0  0  0  0  0  0  0  0  0  0
  -24.1960  -10.7300   20.9140 C   0  0  0  0  0  0  0  0  0  0  0  0
  -24.6100   -9.7590   21.8520 C   0  0  0  0  0  3  0  0  0  0  0  0
  -23.8660   -8.5720   22.0280 C   0  0  0  0  0  3  0  0  0  0  0  0
  -22.6940   -8.3490   21.2670 C   0  0  0  0  0  0  0  0  0  0  0  0
  -22.3010   -9.3080   20.3180 C   0  0  0  0  0  3  0  0  0  0  0  0
  -23.0450  -10.4860   20.1400 C   0  0  0  0  0  3  0  0  0  0  0  0
  -21.9200   -7.2160   21.3560 O   0  0  0  0  0  0  0  0  0  0  0  0
  -21.7920   -6.5210   22.5310 C   0  0  0  0  0  0  0  0  0  0  0  0
  -21.2860   -7.1240   23.7020 C   0  0  0  0  0  3  0  0  0  0  0  0
  -21.1150   -6.3560   24.8720 C   0  0  0  0  0  3  0  0  0  0  0  0
  -21.4290   -4.9840   24.8660 C   0  0  0  0  0  0  0  0  0  0  0  0
  -21.9200   -4.3790   23.6950 C   0  0  0  0  0  3  0  0  0  0  0  0
  -22.1000   -5.1460   22.5310 C   0  0  0  0  0  0  0  0  0  0  0  0
  -22.5570   -4.5550   21.4010 F   0  0  0  0  0  0  0  0  0  0  0  0
  -21.2530   -4.2420   25.9830 F   0  0  0  0  0  0  0  0  0  0  0  0
  -23.1390  -13.8420   21.1660 C   0  0  0  0  0  0  0  0  0  0  0  0
  -22.4460  -13.1430   22.0570 N   0  0  0  0  0  0  0  0  0  0  0  0
  -22.6940  -14.8830   20.6850 O   0  0  0  0  0  0  0  0  0  0  0  0
  -22.8150  -12.3000   22.4670 H   0  0  0  0  0  0  0  0  0  0  0  0
  -21.5250  -13.4590   22.3300 H   0  0  0  0  0  0  0  0  0  0  0  0
  -25.7590  -15.4760   20.2640 N   0  0  0  0  0  0  0  0  0  0  0  0
  -25.0200  -16.1460   20.4420 H   0  0  0  0  0  0  0  0  0  0  0  0
  -26.6240  -15.9120   19.9680 H   0  0  0  0  0  0  0  0  0  0  0  0
  -28.6910  -22.6040   21.1200 C   0  0  0  0  0  2  0  0  0  0  0  0
  -28.9290  -23.9440   20.2880 C   0  0  0  0  0  3  0  0  0  0  0  0
  -28.2100  -25.2390   20.8660 C   0  0  0  0  0  3  0  0  0  0  0  0
  -28.4530  -26.5610   20.2520 O   0  0  0  0  0  0  0  0  0  0  0  0
  -24.6200  -31.8570   23.2400 C   0  0  0  0  0  0  0  0  0  0  0  0
  -27.3390  -27.3980   20.1900 C   0  0  0  0  0  0  0  0  0  0  0  0
  -23.4570  -30.4470   21.5790 C   0  0  0  0  0  3  0  0  0  0  0  0
  -24.9480  -28.9410   20.1500 C   0  0  0  0  0  0  0  0  0  0  0  0
  -25.9810  -30.8330   21.4050 C   0  0  0  0  0  2  0  0  0  0  0  0
  -26.0980  -29.4600   20.7620 C   0  0  0  0  0  0  0  0  0  0  0  0
  -27.3000  -28.6980   20.7730 C   0  0  0  0  0  3  0  0  0  0  0  0
  -26.1780  -26.9320   19.5370 C   0  0  0  0  0  3  0  0  0  0  0  0
  -24.9890  -27.6840   19.5260 C   0  0  0  0  0  3  0  0  0  0  0  0
  -23.6910  -29.7840   20.1960 C   0  0  0  0  0  2  0  0  0  0  0  0
  -24.7050  -31.0620   22.1330 N   0  0  0  0  0  0  0  0  0  0  0  0
  -23.5280  -32.1080   23.7700 O   0  0  0  0  0  0  0  0  0  0  0  0
  -22.8070  -29.4110   22.5270 C   0  0  0  0  0  0  0  0  0  0  0  0
  -21.4910  -29.1900   22.3700 N   0  0  0  0  0  0  0  0  0  0  0  0
  -23.4870  -28.8080   23.3630 O   0  0  0  0  0  0  0  0  0  0  0  0
  -21.0020  -29.7350   21.6740 H   0  0  0  0  0  0  0  0  0  0  0  0
  -18.1520  -27.8550   22.7470 C   0  0  0  0  0  0  0  0  0  0  0  0
  -20.6830  -28.2280   23.1200 C   0  0  0  0  0  3  0  0  0  0  0  0
  -20.8710  -26.7940   22.5710 C   0  0  0  0  0  2  0  0  0  0  0  0
  -19.8260  -26.4080   21.5210 C   0  0  0  0  0  2  0  0  0  0  0  0
  -18.4130  -26.5030   22.1030 C   0  0  0  0  0  2  0  0  0  0  0  0
  -19.2180  -28.6700   23.2110 C   0  0  0  0  0  0  0  0  0  0  0  0
  -18.9210  -29.9320   23.7700 C   0  0  0  0  0  3  0  0  0  0  0  0
  -17.5900  -30.3770   23.8770 C   0  0  0  0  0  3  0  0  0  0  0  0
  -16.5380  -29.5580   23.4320 C   0  0  0  0  0  3  0  0  0  0  0  0
  -16.8190  -28.3010   22.8700 C   0  0  0  0  0  3  0  0  0  0  0  0
  -25.8870  -32.5060   23.8800 C   0  0  0  0  0  3  0  0  0  0  0  0
  -25.5580  -33.9020   24.2010 N   0  0  0  0  0  0  0  0  0  0  0  0
  -25.8970  -34.9570   23.4480 C   0  0  0  0  0  0  0  0  0  0  0  0
  -26.5890  -34.8570   22.4300 O   0  0  0  0  0  0  0  0  0  0  0  0
  -24.9440  -34.0510   24.9880 H   0  0  0  0  0  0  0  0  0  0  0  0
  -24.1560  -36.7300   23.0580 C   0  0  0  0  0  1  0  0  0  0  0  0
  -25.3880  -36.3430   23.8910 C   0  0  0  0  0  3  0  0  0  0  0  0
  -27.5000  -37.2510   24.7520 C   0  0  0  0  0  1  0  0  0  0  0  0
  -26.4120  -37.4060   23.7920 N   0  0  0  0  0  0  0  0  0  0  0  0
  -25.9940  -38.3220   23.9280 H   0  0  0  0  0  0  0  0  0  0  0  0
  -26.3920  -31.7440   25.1670 C   0  0  1  0  0  0  0  0  0  0  0  0
  -25.2860  -31.4940   26.2210 C   0  0  0  0  0  1  0  0  0  0  0  0
  -27.0000  -30.3740   24.7820 C   0  0  0  0  0  1  0  0  0  0  0  0
  -27.5240  -32.5530   25.8450 C   0  0  0  0  0  1  0  0  0  0  0  0
  1 49  1  0
  1  4  1  0
  2  1  1  0
  3  1  1  0
  5  7  1  0
  6  5  2  0
  7 10  1  0
  8 12  2  0
  8  6  1  0
  9  4  1  0
  9  7  2  0
 11  8  1  0
 12  9  1  0
 13  6  1  0
 14 19  1  0
 15 16  1  0
 15 14  1  0
 17 16  1  0
 17 24  1  0
 17 18  1  0
 19 13  1  0
 19 18  1  0
 20 13  2  0
 21 22  2  0
 22 41  1  0
 23 22  1  0
 23 26  1  0
 24 25  1  0
 24 21  1  0
 25 23  2  0
 26 27  1  0
 27 28  2  0
 29 32  1  0
 29 28  1  0
 30 29  2  0
 31 30  1  0
 31 26  2  0
 32 33  1  0
 33 34  1  0
 34 35  2  0
 36 35  1  0
 36 40  1  0
 37 36  2  0
 38 33  2  0
 38 37  1  0
 39 38  1  0
 41 42  1  0
 42 45  1  0
 42 44  1  0
 43 41  2  0
 46 21  1  0
 46 47  1  0
 48 46  1  0
 50 51  2  0
 50 49  1  0
 52 51  1  0
 53 64  2  0
 54 52  1  0
 54 59  1  0
 55 63  1  0
 55 65  1  0
 56 62  1  0
 56 58  1  0
 57 63  1  0
 58 59  2  0
 58 57  1  0
 60 54  2  0
 61 60  1  0
 61 56  2  0
 62 55  1  0
 63 53  1  0
 65 67  2  0
 66 65  1  0
 68 66  1  0
 69 78  2  0
 69 74  1  0
 70 66  1  0
 70 74  1  0
 71 70  1  0
 72 73  1  0
 72 71  1  0
 73 69  1  0
 74 75  2  0
 75 76  1  0
 77 76  2  0
 78 77  1  0
 79 53  1  0
 79 80  1  0
 79 89  1  0
 80 83  1  0
 81 85  1  0
 81 80  1  0
 82 81  2  0
 85 84  1  0
 87 85  1  0
 87 88  1  0
 87 86  1  0
 89 92  1  1
 89 90  1  0
 91 89  1  0
M  ISO  4   6 100  13 100  51 101  52 101
M  END
>  <TORSDO>  (88) 
F 21

>  <SCORE>  (88) 
-12.085

>  <name>  (88) 
87

>  <ligand_id>  (88) 
87

>  <original_smiles>  (88) 
[H]c1c([H])c([H])c2c(c1[H])C([H])([H])C([H])([H])C([H])([H])C2([H])N([H])C(=O)C1([H])N(C(=O)C([H])(N([H])C(=O)C([H])(N([H])C([H])([H])[H])C([H])([H])[H])C(C([H])([H])[H])(C([H])([H])[H])C([H])([H])[H])C([H])([H])c2c([H])c(OC([H])([H])C([H])([H])C([H])([H])[N+]([H])([H])C([H])([H])c3nc(C([H])([H])[H])c(C(=O)N4C([H])([H])C([H])([H])C([H])([H])C([H])(n5nc(-c6c([H])c([H])c(Oc7c([H])c([H])c(F)c([H])c7F)c([H])c6[H])c(C(=O)N([H])[H])c5N([H])[H])C4([H])[H])c([H])c3C([H])([H])[H])c([H])c([H])c2C1([H])[H]

>  <smiles>  (88) 
[H]c1c([H])c([H])c2c(c1[H])C([H])([H])C([H])([H])C([H])([H])C2([H])N([H])C(=O)C1([H])N(C(=O)C([H])(N([H])C(=O)C([H])(N([H])C([H])([H])[H])C([H])([H])[H])C(C([H])([H])[H])(C([H])([H])[H])C([H])([H])[H])C([H])([H])c2c([H])c(OC([H])([H])C([H])([H])C([H])([H])[N+]([H])([H])C([H])([H])c3nc(C([H])([H])[H])c(C(=O)N4C([H])([H])C([H])([H])C([H])([H])C([H])(n5nc(-c6c([H])c([H])c(Oc7c([H])c([H])c(F)c([H])c7F)c([H])c6[H])c(C(=O)N([H])[H])c5N([H])[H])C4([H])[H])c([H])c3C([H])([H])[H])c([H])c([H])c2C1([H])[H]

$$$$
88:0:0
     RDKit          3D

 95104  0  0  1  0  0  0  0  0999 V2000
  -30.3380  -22.0710   17.8310 C   0  0  0  0  0  3  0  0  0  0  0  0
  -29.5600  -21.4060   20.0220 C   0  0  0  0  0  3  0  0  0  0  0  0
  -30.3980  -20.7220   17.4380 C   0  0  0  0  0  0  0  0  0  0  0  0
  -30.0600  -19.6800   18.3500 C   0  0  0  0  0  0  0  0  0  0  0  0
  -29.9150  -22.4250   19.1190 C   0  0  0  0  0  0  0  0  0  0  0  0
  -29.6180  -20.0330   19.6700 C   0  0  0  0  0  0  0  0  0  0  0  0
  -30.8370  -20.4500   16.0030 C   0  0  0  0  0  2  0  0  0  0  0  0
  -30.1450  -18.2300   17.8660 C   0  0  0  0  0  2  0  0  0  0  0  0
  -30.4630  -19.0560   15.5030 C   0  0  0  0  0  2  0  0  0  0  0  0
  -30.8750  -18.0120   16.5330 C   0  0  0  0  0  2  0  0  0  0  0  0
  -29.8410  -23.8970   19.5040 C   0  0  0  0  0  2  0  0  0  0  0  0
  -28.6220  -24.6110   18.8870 C   0  0  0  0  0  2  0  0  0  0  0  0
  -28.7440  -26.1470   18.8320 C   0  0  0  0  0  2  0  0  0  0  0  0
  -28.4120  -26.7840   20.0690 O   0  0  0  0  0  0  0  0  0  0  0  0
  -24.5680  -31.8880   23.2190 C   0  0  0  0  0  0  0  0  0  0  0  0
  -27.2180  -27.4700   20.1080 C   0  0  0  0  0  0  0  0  0  0  0  0
  -23.3600  -30.4920   21.5720 C   0  0  0  0  0  3  0  0  0  0  0  0
  -24.8110  -28.9530   20.1490 C   0  0  0  0  0  0  0  0  0  0  0  0
  -25.8840  -30.8470   21.3790 C   0  0  0  0  0  2  0  0  0  0  0  0
  -25.9660  -29.4760   20.7410 C   0  0  0  0  0  0  0  0  0  0  0  0
  -27.1680  -28.7340   20.7360 C   0  0  0  0  0  3  0  0  0  0  0  0
  -26.0370  -26.9460   19.5330 C   0  0  0  0  0  3  0  0  0  0  0  0
  -24.8370  -27.6810   19.5530 C   0  0  0  0  0  3  0  0  0  0  0  0
  -23.5690  -29.8140   20.1920 C   0  0  0  0  0  2  0  0  0  0  0  0
  -24.6220  -31.0910   22.1150 N   0  0  0  0  0  0  0  0  0  0  0  0
  -23.4890  -32.1610   23.7600 O   0  0  0  0  0  0  0  0  0  0  0  0
  -22.7090  -29.4680   22.5300 C   0  0  0  0  0  0  0  0  0  0  0  0
  -21.3830  -29.2970   22.4080 N   0  0  0  0  0  0  0  0  0  0  0  0
  -23.3920  -28.8310   23.3360 O   0  0  0  0  0  0  0  0  0  0  0  0
  -20.8930  -29.8640   21.7290 H   0  0  0  0  0  0  0  0  0  0  0  0
  -17.9980  -28.1500   22.9350 C   0  0  0  0  0  0  0  0  0  0  0  0
  -20.5620  -28.3610   23.1750 C   0  0  0  0  0  3  0  0  0  0  0  0
  -20.6340  -26.9380   22.5750 C   0  0  0  0  0  2  0  0  0  0  0  0
  -19.5120  -26.6500   21.5710 C   0  0  0  0  0  2  0  0  0  0  0  0
  -18.1430  -26.8080   22.2370 C   0  0  0  0  0  2  0  0  0  0  0  0
  -19.1350  -28.8860   23.3610 C   0  0  0  0  0  0  0  0  0  0  0  0
  -18.9470  -30.1450   23.9720 C   0  0  0  0  0  3  0  0  0  0  0  0
  -17.6530  -30.6660   24.1620 C   0  0  0  0  0  3  0  0  0  0  0  0
  -16.5300  -29.9270   23.7530 C   0  0  0  0  0  3  0  0  0  0  0  0
  -16.7040  -28.6700   23.1450 C   0  0  0  0  0  3  0  0  0  0  0  0
  -25.8570  -32.5130   23.8410 C   0  0  0  0  0  3  0  0  0  0  0  0
  -25.5540  -33.9110   24.1740 N   0  0  0  0  0  0  0  0  0  0  0  0
  -25.8920  -34.9630   23.4170 C   0  0  0  0  0  0  0  0  0  0  0  0
  -26.5650  -34.8590   22.3880 O   0  0  0  0  0  0  0  0  0  0  0  0
  -24.9580  -34.0660   24.9730 H   0  0  0  0  0  0  0  0  0  0  0  0
  -24.1760  -36.7630   23.0510 C   0  0  0  0  0  1  0  0  0  0  0  0
  -25.4060  -36.3520   23.8750 C   0  0  0  0  0  3  0  0  0  0  0  0
  -27.5350  -37.2210   24.7340 C   0  0  0  0  0  1  0  0  0  0  0  0
  -26.4450  -37.4000   23.7780 N   0  0  0  0  0  0  0  0  0  0  0  0
  -26.0430  -38.3210   23.9230 H   0  0  0  0  0  0  0  0  0  0  0  0
  -26.3750  -31.7350   25.1120 C   0  0  1  0  0  0  0  0  0  0  0  0
  -25.2830  -31.4930   26.1810 C   0  0  0  0  0  1  0  0  0  0  0  0
  -26.9580  -30.3590   24.7100 C   0  0  0  0  0  1  0  0  0  0  0  0
  -27.5280  -32.5250   25.7760 C   0  0  0  0  0  1  0  0  0  0  0  0
  -29.1170  -19.1010   20.7980 C   0  0  0  0  0  2  0  0  0  0  0  0
  -29.0570  -17.5580   20.6940 C   0  0  0  0  0  2  0  0  0  0  0  0
  -30.3090  -16.7890   21.1780 C   0  0  0  0  0  2  0  0  0  0  0  0
  -30.7130  -14.4090   20.4590 C   0  0  0  0  0  0  0  0  0  0  0  0
  -30.4010  -12.2850   19.2500 C   0  0  0  0  0  2  0  0  0  0  0  0
  -29.4600  -12.5230   18.0520 C   0  0  0  0  0  2  0  0  0  0  0  0
  -27.9830  -12.4000   18.4740 C   0  0  0  0  0  2  0  0  0  0  0  0
  -27.6550  -13.2220   19.7500 C   0  0  0  0  0  3  0  0  0  0  0  0
  -28.7000  -12.9440   20.8540 C   0  0  0  0  0  2  0  0  0  0  0  0
  -30.0380  -13.2410   20.3050 N   0  0  0  0  0  0  0  0  0  0  0  0
  -31.8000  -14.6460   19.9220 O   0  0  0  0  0  0  0  0  0  0  0  0
  -30.0450  -15.3480   21.1460 N   0  0  0  0  0  0  0  0  0  0  0  0
  -29.1850  -15.0360   21.5710 H   0  0  0  0  0  0  0  0  0  0  0  0
  -25.2510  -13.8590   20.4230 C   0  0  0  0  0  0  0  0  0  0  0  0
  -24.1740  -13.1000   20.7950 C   0  0  0  0  0  0  0  0  0  0  0  0
  -24.6250  -11.7450   20.7810 C   0  0  0  0  0  0  0  0  0  0  0  0
  -26.2930  -12.9670   20.2150 N   0  0  0  0  0  0  0  0  0  0  0  0
  -25.9160  -11.6900   20.4840 N   0  0  0  0  0  0  0  0  0  0  0  0
  -23.8860  -10.4910   20.9820 C   0  0  0  0  0  0  0  0  0  0  0  0
  -24.3010   -9.5320   21.9330 C   0  0  0  0  0  3  0  0  0  0  0  0
  -23.5650   -8.3430   22.1200 C   0  0  0  0  0  3  0  0  0  0  0  0
  -22.4000   -8.1030   21.3540 C   0  0  0  0  0  0  0  0  0  0  0  0
  -22.0040   -9.0490   20.3920 C   0  0  0  0  0  3  0  0  0  0  0  0
  -22.7410  -10.2300   20.2040 C   0  0  0  0  0  3  0  0  0  0  0  0
  -21.6370   -6.9640   21.4480 O   0  0  0  0  0  0  0  0  0  0  0  0
  -21.5680   -6.2370   22.6100 C   0  0  0  0  0  0  0  0  0  0  0  0
  -21.1150   -6.8070   23.8190 C   0  0  0  0  0  3  0  0  0  0  0  0
  -20.9940   -6.0050   24.9720 C   0  0  0  0  0  3  0  0  0  0  0  0
  -21.3190   -4.6360   24.9160 C   0  0  0  0  0  0  0  0  0  0  0  0
  -21.7670   -4.0670   23.7110 C   0  0  0  0  0  3  0  0  0  0  0  0
  -21.8870   -4.8650   22.5610 C   0  0  0  0  0  0  0  0  0  0  0  0
  -22.2990   -4.3060   21.3970 F   0  0  0  0  0  0  0  0  0  0  0  0
  -21.1970   -3.8650   26.0220 F   0  0  0  0  0  0  0  0  0  0  0  0
  -22.7790  -13.5900   21.0550 C   0  0  0  0  0  0  0  0  0  0  0  0
  -22.0450  -12.9130   21.9300 N   0  0  0  0  0  0  0  0  0  0  0  0
  -22.3490  -14.6100   20.5170 O   0  0  0  0  0  0  0  0  0  0  0  0
  -22.4070  -12.0890   22.3890 H   0  0  0  0  0  0  0  0  0  0  0  0
  -21.1080  -13.2210   22.1470 H   0  0  0  0  0  0  0  0  0  0  0  0
  -25.4250  -15.2260   20.2300 N   0  0  0  0  0  0  0  0  0  0  0  0
  -24.6570  -15.8820   20.3170 H   0  0  0  0  0  0  0  0  0  0  0  0
  -26.2780  -15.6560   19.8960 H   0  0  0  0  0  0  0  0  0  0  0  0
  1  5  1  0
  3  1  2  0
  3  4  1  0
  4  6  2  0
  5 11  1  0
  5  2  2  0
  6  2  1  0
  6 55  1  0
  7  3  1  0
  8  4  1  0
  9  7  1  0
  9 10  1  0
 10  8  1  0
 12 11  1  0
 13 12  1  0
 13 14  1  0
 14 16  1  0
 15 26  2  0
 16 21  1  0
 17 25  1  0
 17 27  1  0
 18 24  1  0
 18 20  1  0
 19 25  1  0
 20 19  1  0
 21 20  2  0
 22 23  1  0
 22 16  2  0
 23 18  2  0
 24 17  1  0
 25 15  1  0
 27 29  2  0
 28 27  1  0
 30 28  1  0
 31 40  2  0
 31 36  1  0
 32 28  1  0
 32 36  1  0
 33 32  1  0
 34 35  1  0
 34 33  1  0
 35 31  1  0
 36 37  2  0
 37 38  1  0
 39 38  2  0
 40 39  1  0
 41 15  1  0
 41 42  1  0
 41 51  1  0
 42 45  1  0
 43 47  1  0
 43 42  1  0
 44 43  2  0
 47 46  1  0
 49 47  1  0
 49 50  1  0
 49 48  1  0
 51 54  1  1
 51 52  1  0
 53 51  1  0
 56 55  1  0
 56 57  1  0
 58 66  1  0
 59 64  1  0
 60 61  1  0
 60 59  1  0
 62 61  1  0
 62 71  1  0
 62 63  1  0
 64 58  1  0
 64 63  1  0
 65 58  2  0
 66 57  1  0
 66 67  1  0
 68 69  2  0
 69 88  1  0
 70 69  1  0
 70 73  1  0
 71 68  1  0
 71 72  1  0
 72 70  2  0
 73 74  1  0
 74 75  2  0
 76 79  1  0
 76 75  1  0
 77 76  2  0
 78 77  1  0
 78 73  2  0
 79 80  1  0
 80 81  1  0
 81 82  2  0
 83 82  1  0
 83 87  1  0
 84 83  2  0
 85 80  2  0
 85 84  1  0
 86 85  1  0
 88 89  1  0
 89 92  1  0
 89 91  1  0
 90 88  2  0
 93 94  1  0
 93 68  1  0
 95 93  1  0
M  ISO  4  13 101  14 101  58 100  66 100
M  END
>  <TORSDO>  (89) 
F 22

>  <SCORE>  (89) 
-13.110

>  <name>  (89) 
88

>  <ligand_id>  (89) 
88

>  <original_smiles>  (89) 
[H]c1c([H])c([H])c2c(c1[H])C([H])([H])C([H])([H])C([H])([H])C2([H])N([H])C(=O)C1([H])N(C(=O)C([H])(N([H])C(=O)C([H])(N([H])C([H])([H])[H])C([H])([H])[H])C(C([H])([H])[H])(C([H])([H])[H])C([H])([H])[H])C([H])([H])c2c([H])c(OC([H])([H])C([H])([H])C([H])([H])c3c([H])c(C([H])([H])C([H])([H])C([H])([H])N([H])C(=O)N4C([H])([H])C([H])([H])C([H])([H])C([H])(n5nc(-c6c([H])c([H])c(Oc7c([H])c([H])c(F)c([H])c7F)c([H])c6[H])c(C(=O)N([H])[H])c5N([H])[H])C4([H])[H])c4c(c3[H])C([H])([H])C([H])([H])C([H])([H])C4([H])[H])c([H])c([H])c2C1([H])[H]

>  <smiles>  (89) 
[H]c1c([H])c([H])c2c(c1[H])C([H])([H])C([H])([H])C([H])([H])C2([H])N([H])C(=O)C1([H])N(C(=O)C([H])(N([H])C(=O)C([H])(N([H])C([H])([H])[H])C([H])([H])[H])C(C([H])([H])[H])(C([H])([H])[H])C([H])([H])[H])C([H])([H])c2c([H])c(OC([H])([H])C([H])([H])C([H])([H])c3c([H])c(C([H])([H])C([H])([H])C([H])([H])N([H])C(=O)N4C([H])([H])C([H])([H])C([H])([H])C([H])(n5nc(-c6c([H])c([H])c(Oc7c([H])c([H])c(F)c([H])c7F)c([H])c6[H])c(C(=O)N([H])[H])c5N([H])[H])C4([H])[H])c4c(c3[H])C([H])([H])C([H])([H])C([H])([H])C4([H])[H])c([H])c([H])c2C1([H])[H]

$$$$
89:0:0
     RDKit          3D

 98106  0  0  1  0  0  0  0  0999 V2000
  -29.8310  -17.1500   21.1270 C   0  0  0  0  0  3  0  0  0  0  0  0
  -31.6850  -18.0670   19.8880 C   0  0  0  0  0  3  0  0  0  0  0  0
  -31.2060  -17.1590   20.8560 C   0  0  0  0  0  0  0  0  0  0  0  0
  -28.9860  -18.0460   20.4540 C   0  0  0  0  0  0  0  0  0  0  0  0
  -30.7650  -18.9140   19.2280 C   0  0  0  0  0  0  0  0  0  0  0  0
  -29.4410  -18.9230   19.5270 N   0  0  0  0  0  0  0  0  0  0  0  0
  -32.1380  -16.2700   21.6680 C   0  0  0  0  0  2  0  0  0  0  0  0
  -32.7050  -15.0250   20.9540 C   0  0  0  0  0  2  0  0  0  0  0  0
  -32.4550  -12.5900   20.6970 C   0  0  0  0  0  0  0  0  0  0  0  0
  -31.9680  -10.2970   19.9330 C   0  0  0  0  0  2  0  0  0  0  0  0
  -31.2610  -10.3570   18.5660 C   0  0  0  0  0  2  0  0  0  0  0  0
  -29.7370  -10.4900   18.7420 C   0  0  0  0  0  2  0  0  0  0  0  0
  -29.3490  -11.6070   19.7470 C   0  0  0  0  0  3  0  0  0  0  0  0
  -30.1890  -11.5270   21.0430 C   0  0  0  0  0  2  0  0  0  0  0  0
  -31.6130  -11.5200   20.6760 N   0  0  0  0  0  0  0  0  0  0  0  0
  -33.6080  -12.5270   20.2570 O   0  0  0  0  0  0  0  0  0  0  0  0
  -31.9640  -13.7590   21.1390 N   0  0  0  0  0  0  0  0  0  0  0  0
  -31.0210  -13.7800   21.5060 H   0  0  0  0  0  0  0  0  0  0  0  0
  -26.9680  -12.5810   19.8310 C   0  0  0  0  0  0  0  0  0  0  0  0
  -25.7700  -12.0370   20.2000 C   0  0  0  0  0  0  0  0  0  0  0  0
  -26.0550  -10.7010   20.6200 C   0  0  0  0  0  0  0  0  0  0  0  0
  -27.9170  -11.5920   20.0330 N   0  0  0  0  0  0  0  0  0  0  0  0
  -27.3610  -10.4700   20.5590 N   0  0  0  0  0  0  0  0  0  0  0  0
  -25.1530   -9.6110   21.0150 C   0  0  0  0  0  0  0  0  0  0  0  0
  -25.2240   -9.0190   22.2960 C   0  0  0  0  0  3  0  0  0  0  0  0
  -24.3310   -7.9860   22.6580 C   0  0  0  0  0  3  0  0  0  0  0  0
  -23.3540   -7.5370   21.7380 C   0  0  0  0  0  0  0  0  0  0  0  0
  -23.3020   -8.1160   20.4580 C   0  0  0  0  0  3  0  0  0  0  0  0
  -24.1930   -9.1390   20.0970 C   0  0  0  0  0  3  0  0  0  0  0  0
  -22.4630   -6.5220   21.9940 O   0  0  0  0  0  0  0  0  0  0  0  0
  -21.8320   -6.4040   23.2070 C   0  0  0  0  0  0  0  0  0  0  0  0
  -21.0720   -7.4590   23.7570 C   0  0  0  0  0  3  0  0  0  0  0  0
  -20.3800   -7.2720   24.9690 C   0  0  0  0  0  3  0  0  0  0  0  0
  -20.4440   -6.0320   25.6310 C   0  0  0  0  0  0  0  0  0  0  0  0
  -21.1980   -4.9790   25.0860 C   0  0  0  0  0  3  0  0  0  0  0  0
  -21.8880   -5.1650   23.8750 C   0  0  0  0  0  0  0  0  0  0  0  0
  -22.5950   -4.1380   23.3420 F   0  0  0  0  0  0  0  0  0  0  0  0
  -19.7760   -5.8510   26.7950 F   0  0  0  0  0  0  0  0  0  0  0  0
  -24.4210  -12.6890   20.0910 C   0  0  0  0  0  0  0  0  0  0  0  0
  -23.5110  -12.3640   21.0020 N   0  0  0  0  0  0  0  0  0  0  0  0
  -24.1820  -13.5260   19.2200 O   0  0  0  0  0  0  0  0  0  0  0  0
  -23.7170  -11.6870   21.7210 H   0  0  0  0  0  0  0  0  0  0  0  0
  -22.5970  -12.7960   20.9780 H   0  0  0  0  0  0  0  0  0  0  0  0
  -27.3320  -13.8280   19.3290 N   0  0  0  0  0  0  0  0  0  0  0  0
  -26.6530  -14.5620   19.1600 H   0  0  0  0  0  0  0  0  0  0  0  0
  -28.2760  -14.0930   19.0790 H   0  0  0  0  0  0  0  0  0  0  0  0
  -31.2190  -19.8660   18.1250 C   0  0  0  0  0  2  0  0  0  0  0  0
  -31.4370  -21.2340   18.6460 N   0  0  0  0  0  4  0  0  0  0  0  0
  -32.4120  -21.3230   18.8910 H   0  0  0  0  0  0  0  0  0  0  0  0
  -30.8970  -21.2880   19.4950 H   0  0  0  0  0  0  0  0  0  0  0  0
  -31.0080  -22.3240   17.7310 C   0  0  0  0  0  2  0  0  0  0  0  0
  -30.4240  -23.5570   18.4680 C   0  0  0  0  0  2  0  0  0  0  0  0
  -31.3450  -24.8010   18.5940 C   0  0  0  0  0  2  0  0  0  0  0  0
  -31.3810  -25.6430   17.4290 O   0  0  0  0  0  0  0  0  0  0  0  0
  -25.0570  -27.4860   19.9840 C   0  0  0  0  0  0  0  0  0  0  0  0
  -30.1740  -26.2360   17.1620 C   0  0  0  0  0  0  0  0  0  0  0  0
  -25.2420  -27.3850   17.5220 C   0  0  0  0  0  3  0  0  0  0  0  0
  -27.6150  -27.2530   16.5900 C   0  0  0  0  0  0  0  0  0  0  0  0
  -27.2670  -27.9790   18.9590 C   0  0  0  0  0  2  0  0  0  0  0  0
  -28.1310  -27.3440   17.8900 C   0  0  0  0  0  0  0  0  0  0  0  0
  -29.4150  -26.8410   18.1830 C   0  0  0  0  0  3  0  0  0  0  0  0
  -29.6690  -26.1850   15.8480 C   0  0  0  0  0  3  0  0  0  0  0  0
  -28.3840  -26.6810   15.5620 C   0  0  0  0  0  3  0  0  0  0  0  0
  -26.2120  -27.7780   16.3720 C   0  0  0  0  0  2  0  0  0  0  0  0
  -25.8430  -27.5880   18.8790 N   0  0  0  0  0  0  0  0  0  0  0  0
  -23.8410  -27.2620   19.8870 O   0  0  0  0  0  0  0  0  0  0  0  0
  -24.7430  -25.9420   17.2810 C   0  0  0  0  0  0  0  0  0  0  0  0
  -23.8220  -25.7820   16.3160 N   0  0  0  0  0  0  0  0  0  0  0  0
  -25.2060  -24.9990   17.9260 O   0  0  0  0  0  0  0  0  0  0  0  0
  -23.4920  -26.6050   15.8310 H   0  0  0  0  0  0  0  0  0  0  0  0
  -21.4690  -24.2760   14.0220 C   0  0  0  0  0  0  0  0  0  0  0  0
  -23.2360  -24.5110   15.8920 C   0  0  0  0  0  3  0  0  0  0  0  0
  -24.1960  -23.7490   14.9500 C   0  0  0  0  0  2  0  0  0  0  0  0
  -23.9230  -23.9940   13.4610 C   0  0  0  0  0  2  0  0  0  0  0  0
  -22.4830  -23.6200   13.1020 C   0  0  0  0  0  2  0  0  0  0  0  0
  -21.8270  -24.7070   15.3260 C   0  0  0  0  0  0  0  0  0  0  0  0
  -20.8560  -25.3440   16.1280 C   0  0  0  0  0  3  0  0  0  0  0  0
  -19.5440  -25.5380   15.6560 C   0  0  0  0  0  3  0  0  0  0  0  0
  -19.1890  -25.0890   14.3710 C   0  0  0  0  0  3  0  0  0  0  0  0
  -20.1490  -24.4590   13.5590 C   0  0  0  0  0  3  0  0  0  0  0  0
  -25.6410  -27.6600   21.4230 C   0  0  0  0  0  3  0  0  0  0  0  0
  -25.7890  -26.2960   22.2020 C   0  0  1  0  0  0  0  0  0  0  0  0
  -24.4910  -25.4530   22.2300 C   0  0  0  0  0  1  0  0  0  0  0  0
  -26.9010  -25.4250   21.5730 C   0  0  0  0  0  1  0  0  0  0  0  0
  -26.2190  -26.5700   23.6600 C   0  0  0  0  0  1  0  0  0  0  0  0
  -24.7630  -28.5860   22.1480 N   0  0  0  0  0  0  0  0  0  0  0  0
  -25.0520  -29.8710   22.3920 C   0  0  0  0  0  0  0  0  0  0  0  0
  -26.1320  -30.3870   22.0870 O   0  0  0  0  0  0  0  0  0  0  0  0
  -23.8400  -28.2440   22.3760 H   0  0  0  0  0  0  0  0  0  0  0  0
  -23.2330  -31.5700   22.0310 C   0  0  0  0  0  1  0  0  0  0  0  0
  -23.9670  -30.7220   23.0800 C   0  0  0  0  0  3  0  0  0  0  0  0
  -24.9670  -30.8580   25.3180 C   0  0  0  0  0  1  0  0  0  0  0  0
  -24.5020  -31.5950   24.1480 N   0  0  0  0  0  0  0  0  0  0  0  0
  -23.7980  -32.2610   24.4570 H   0  0  0  0  0  0  0  0  0  0  0  0
  -27.5010  -18.0590   20.7860 C   0  0  0  0  0  2  0  0  0  0  0  0
  -26.7050  -16.9650   20.0450 C   0  0  0  0  0  2  0  0  0  0  0  0
  -26.8520  -14.7120   21.3080 C   0  0  0  0  0  1  0  0  0  0  0  0
  -26.0040  -15.9530   20.9760 C   0  0  0  0  0  2  0  0  0  0  0  0
  2  3  2  0
  3  1  1  0
  3  7  1  0
  4 95  1  0
  4  1  2  0
  5  6  2  0
  5  2  1  0
  6  4  1  0
  8 17  1  0
  8  7  1  0
  9 17  1  0
 10 15  1  0
 11 12  1  0
 11 10  1  0
 13 12  1  0
 13 22  1  0
 13 14  1  0
 15  9  1  0
 15 14  1  0
 16  9  2  0
 17 18  1  0
 19 22  1  0
 19 20  2  0
 20 21  1  0
 21 24  1  0
 22 23  1  0
 23 21  2  0
 24 25  1  0
 25 26  2  0
 27 30  1  0
 27 26  1  0
 28 27  2  0
 29 28  1  0
 29 24  2  0
 30 31  1  0
 31 32  2  0
 31 36  1  0
 32 33  1  0
 33 34  2  0
 34 38  1  0
 35 34  1  0
 36 35  2  0
 37 36  1  0
 39 20  1  0
 39 40  1  0
 40 42  1  0
 41 39  2  0
 43 40  1  0
 44 19  1  0
 45 44  1  0
 46 44  1  0
 47 48  1  0
 47  5  1  0
 48 49  1  0
 48 50  1  0
 51 52  1  0
 51 48  1  0
 52 53  1  0
 54 53  1  0
 56 54  1  0
 56 61  1  0
 57 67  1  0
 57 65  1  0
 58 60  1  0
 60 61  2  0
 60 59  1  0
 62 56  2  0
 63 62  1  0
 63 58  2  0
 64 58  1  0
 64 57  1  0
 65 59  1  0
 65 55  1  0
 66 55  2  0
 67 69  2  0
 68 67  1  0
 70 68  1  0
 71 76  1  0
 72 68  1  0
 73 72  1  0
 74 73  1  0
 75 74  1  0
 75 71  1  0
 76 72  1  0
 76 77  2  0
 78 77  1  0
 79 78  2  0
 80 71  2  0
 80 79  1  0
 81 55  1  0
 81 86  1  0
 81 82  1  0
 82 83  1  1
 82 85  1  0
 84 82  1  0
 86 89  1  0
 86 87  1  0
 87 91  1  0
 88 87  2  0
 91 90  1  0
 91 93  1  0
 93 94  1  0
 93 92  1  0
 96 95  1  0
 96 98  1  0
 98 97  1  0
M  ISO  4   9 100  17 100  53 101  54 101
M  END
>  <TORSDO>  (90) 
F 26

>  <SCORE>  (90) 
-1.343

>  <name>  (90) 
89

>  <ligand_id>  (90) 
89

>  <original_smiles>  (90) 
[H]c1c([H])c([H])c2c(c1[H])C([H])([H])C([H])([H])C([H])([H])C2([H])N([H])C(=O)C1([H])N(C(=O)C([H])(N([H])C(=O)C([H])(N([H])C([H])([H])[H])C([H])([H])[H])C(C([H])([H])[H])(C([H])([H])[H])C([H])([H])[H])C([H])([H])c2c([H])c(OC([H])([H])C([H])([H])C([H])([H])[N+]([H])([H])C([H])([H])c3nc(C([H])([H])C([H])([H])C([H])([H])C([H])([H])[H])c([H])c(C([H])([H])C([H])([H])N([H])C(=O)N4C([H])([H])C([H])([H])C([H])([H])C([H])(n5nc(-c6c([H])c([H])c(Oc7c([H])c([H])c(F)c([H])c7F)c([H])c6[H])c(C(=O)N([H])[H])c5N([H])[H])C4([H])[H])c3[H])c([H])c([H])c2C1([H])[H]

>  <smiles>  (90) 
[H]c1c([H])c([H])c2c(c1[H])C([H])([H])C([H])([H])C([H])([H])C2([H])N([H])C(=O)C1([H])N(C(=O)C([H])(N([H])C(=O)C([H])(N([H])C([H])([H])[H])C([H])([H])[H])C(C([H])([H])[H])(C([H])([H])[H])C([H])([H])[H])C([H])([H])c2c([H])c(OC([H])([H])C([H])([H])C([H])([H])[N+]([H])([H])C([H])([H])c3nc(C([H])([H])C([H])([H])C([H])([H])C([H])([H])[H])c([H])c(C([H])([H])C([H])([H])N([H])C(=O)N4C([H])([H])C([H])([H])C([H])([H])C([H])(n5nc(-c6c([H])c([H])c(Oc7c([H])c([H])c(F)c([H])c7F)c([H])c6[H])c(C(=O)N([H])[H])c5N([H])[H])C4([H])[H])c3[H])c([H])c([H])c2C1([H])[H]

$$$$
90:0:0
     RDKit          3D

 97106  0  0  1  0  0  0  0  0999 V2000
  -30.6030  -23.6520   22.4200 C   0  0  0  0  0  3  0  0  0  0  0  0
  -29.2800  -24.7930   20.7450 C   0  0  0  0  0  3  0  0  0  0  0  0
  -30.2220  -22.4130   21.8810 C   0  0  0  0  0  0  0  0  0  0  0  0
  -29.3710  -22.3240   20.7490 C   0  0  0  0  0  0  0  0  0  0  0  0
  -30.1550  -24.8500   21.8450 C   0  0  0  0  0  0  0  0  0  0  0  0
  -28.8680  -23.5610   20.1840 C   0  0  0  0  0  0  0  0  0  0  0  0
  -30.8090  -21.1590   22.4920 C   0  0  0  0  0  2  0  0  0  0  0  0
  -29.0640  -20.8940   20.2030 C   0  0  0  0  0  2  0  0  0  0  0  0
  -31.2790  -20.2250   21.3850 C   0  0  0  0  0  2  0  0  0  0  0  0
  -30.0910  -19.7220   20.5370 C   0  0  0  0  0  3  0  0  0  0  0  0
  -30.6650  -26.1770   22.3850 C   0  0  0  0  0  2  0  0  0  0  0  0
  -29.5480  -27.2010   22.6440 C   0  0  0  0  0  2  0  0  0  0  0  0
  -28.4560  -29.3780   21.8500 C   0  0  0  0  0  1  0  0  0  0  0  0
  -29.5400  -28.3260   21.5980 C   0  0  0  0  0  2  0  0  0  0  0  0
  -27.9950  -23.6800   18.9170 C   0  0  0  0  0  2  0  0  0  0  0  0
  -26.8430  -24.7530   18.8640 C   0  0  0  0  0  2  0  0  0  0  0  0
  -27.1250  -26.1910   18.9220 O   0  0  0  0  0  0  0  0  0  0  0  0
  -24.2010  -31.2960   23.0670 C   0  0  0  0  0  0  0  0  0  0  0  0
  -26.0440  -27.0570   19.1460 C   0  0  0  0  0  0  0  0  0  0  0  0
  -22.6930  -30.2230   21.4350 C   0  0  0  0  0  3  0  0  0  0  0  0
  -23.8250  -28.7900   19.6520 C   0  0  0  0  0  0  0  0  0  0  0  0
  -25.2100  -30.3930   20.9640 C   0  0  0  0  0  2  0  0  0  0  0  0
  -25.0940  -29.1190   20.1420 C   0  0  0  0  0  0  0  0  0  0  0  0
  -26.2050  -28.2690   19.8790 C   0  0  0  0  0  3  0  0  0  0  0  0
  -24.7440  -26.7690   18.6580 C   0  0  0  0  0  3  0  0  0  0  0  0
  -23.6500  -27.6200   18.9050 C   0  0  0  0  0  3  0  0  0  0  0  0
  -22.6780  -29.7290   19.9640 C   0  0  0  0  0  2  0  0  0  0  0  0
  -24.0620  -30.6450   21.8760 N   0  0  0  0  0  0  0  0  0  0  0  0
  -23.2180  -31.5770   23.7680 O   0  0  0  0  0  0  0  0  0  0  0  0
  -22.0650  -29.1320   22.3330 C   0  0  0  0  0  0  0  0  0  0  0  0
  -20.7320  -28.9850   22.2620 N   0  0  0  0  0  0  0  0  0  0  0  0
  -22.7750  -28.4230   23.0560 O   0  0  0  0  0  0  0  0  0  0  0  0
  -20.2200  -29.6020   21.6460 H   0  0  0  0  0  0  0  0  0  0  0  0
  -17.3740  -27.7390   22.7580 C   0  0  0  0  0  0  0  0  0  0  0  0
  -19.9350  -28.0000   22.9930 C   0  0  0  0  0  3  0  0  0  0  0  0
  -20.0340  -26.6050   22.3330 C   0  0  0  0  0  2  0  0  0  0  0  0
  -18.9150  -26.3350   21.3230 C   0  0  0  0  0  2  0  0  0  0  0  0
  -17.5440  -26.4340   22.0000 C   0  0  0  0  0  2  0  0  0  0  0  0
  -18.4970  -28.4830   23.2100 C   0  0  0  0  0  0  0  0  0  0  0  0
  -18.2840  -29.7070   23.8810 C   0  0  0  0  0  3  0  0  0  0  0  0
  -16.9790  -30.1890   24.1010 C   0  0  0  0  0  3  0  0  0  0  0  0
  -15.8710  -29.4420   23.6640 C   0  0  0  0  0  3  0  0  0  0  0  0
  -16.0700  -28.2190   23.0000 C   0  0  0  0  0  3  0  0  0  0  0  0
  -25.6010  -31.7450   23.5930 C   0  0  0  0  0  3  0  0  0  0  0  0
  -25.4940  -33.1480   24.0130 N   0  0  0  0  0  0  0  0  0  0  0  0
  -25.9870  -34.1870   23.3270 C   0  0  0  0  0  0  0  0  0  0  0  0
  -26.6520  -34.0530   22.2960 O   0  0  0  0  0  0  0  0  0  0  0  0
  -24.9220  -33.3380   24.8230 H   0  0  0  0  0  0  0  0  0  0  0  0
  -24.5610  -36.2420   23.0530 C   0  0  0  0  0  1  0  0  0  0  0  0
  -25.6950  -35.5990   23.8720 C   0  0  0  0  0  3  0  0  0  0  0  0
  -27.8860  -36.0940   24.8600 C   0  0  0  0  0  1  0  0  0  0  0  0
  -26.8790  -36.4870   23.8760 N   0  0  0  0  0  0  0  0  0  0  0  0
  -26.6070  -37.4480   24.0660 H   0  0  0  0  0  0  0  0  0  0  0  0
  -26.1350  -30.8530   24.7810 C   0  0  1  0  0  0  0  0  0  0  0  0
  -25.1900  -30.8070   26.0030 C   0  0  0  0  0  1  0  0  0  0  0  0
  -26.3590  -29.3990   24.3160 C   0  0  0  0  0  1  0  0  0  0  0  0
  -27.5090  -31.3870   25.2550 C   0  0  0  0  0  1  0  0  0  0  0  0
  -29.4930  -18.3630   21.0970 C   0  0  0  0  0  2  0  0  0  0  0  0
  -30.3260  -17.0760   20.7290 C   0  0  0  0  0  2  0  0  0  0  0  0
  -30.2910  -14.6480   20.1640 C   0  0  0  0  0  0  0  0  0  0  0  0
  -29.9000  -12.5650   18.9000 C   0  0  0  0  0  2  0  0  0  0  0  0
  -28.8700  -12.8370   17.7910 C   0  0  0  0  0  2  0  0  0  0  0  0
  -27.4390  -12.6160   18.3190 C   0  0  0  0  0  2  0  0  0  0  0  0
  -27.1870  -13.3100   19.6870 C   0  0  0  0  0  3  0  0  0  0  0  0
  -28.3480  -13.0900   20.6800 C   0  0  0  0  0  2  0  0  0  0  0  0
  -29.5960  -13.4830   20.0130 N   0  0  0  0  0  0  0  0  0  0  0  0
  -31.4010  -14.7950   19.6520 O   0  0  0  0  0  0  0  0  0  0  0  0
  -29.6750  -15.7290   20.7220 N   0  0  0  0  0  0  0  0  0  0  0  0
  -28.7400  -15.6200   21.0930 H   0  0  0  0  0  0  0  0  0  0  0  0
  -24.8350  -13.7170   20.6300 C   0  0  0  0  0  0  0  0  0  0  0  0
  -23.8480  -12.8620   21.0380 C   0  0  0  0  0  0  0  0  0  0  0  0
  -24.3800  -11.5440   20.8930 C   0  0  0  0  0  0  0  0  0  0  0  0
  -25.9040  -12.9170   20.2600 N   0  0  0  0  0  0  0  0  0  0  0  0
  -25.6400  -11.6020   20.4790 N   0  0  0  0  0  0  0  0  0  0  0  0
  -23.7410  -10.2320   21.0680 C   0  0  0  0  0  0  0  0  0  0  0  0
  -24.2630   -9.2680   21.9590 C   0  0  0  0  0  3  0  0  0  0  0  0
  -23.6140   -8.0240   22.1240 C   0  0  0  0  0  3  0  0  0  0  0  0
  -22.4320   -7.7350   21.4000 C   0  0  0  0  0  0  0  0  0  0  0  0
  -21.9340   -8.6890   20.4960 C   0  0  0  0  0  3  0  0  0  0  0  0
  -22.5820   -9.9240   20.3280 C   0  0  0  0  0  3  0  0  0  0  0  0
  -21.7500   -6.5440   21.4780 O   0  0  0  0  0  0  0  0  0  0  0  0
  -21.7180   -5.8090   22.6360 C   0  0  0  0  0  0  0  0  0  0  0  0
  -21.1100   -6.2980   23.8130 C   0  0  0  0  0  3  0  0  0  0  0  0
  -21.0360   -5.4810   24.9590 C   0  0  0  0  0  3  0  0  0  0  0  0
  -21.5560   -4.1730   24.9290 C   0  0  0  0  0  0  0  0  0  0  0  0
  -22.1580   -3.6820   23.7560 C   0  0  0  0  0  3  0  0  0  0  0  0
  -22.2340   -4.4970   22.6130 C   0  0  0  0  0  0  0  0  0  0  0  0
  -22.7930   -4.0110   21.4780 F   0  0  0  0  0  0  0  0  0  0  0  0
  -21.4780   -3.3870   26.0270 F   0  0  0  0  0  0  0  0  0  0  0  0
  -22.4540  -13.2390   21.4520 C   0  0  0  0  0  0  0  0  0  0  0  0
  -21.8430  -12.4580   22.3360 N   0  0  0  0  0  0  0  0  0  0  0  0
  -21.9200  -14.2630   21.0220 O   0  0  0  0  0  0  0  0  0  0  0  0
  -22.2930  -11.6340   22.7050 H   0  0  0  0  0  0  0  0  0  0  0  0
  -20.9100  -12.6870   22.6480 H   0  0  0  0  0  0  0  0  0  0  0  0
  -24.9060  -15.1040   20.5180 N   0  0  0  0  0  0  0  0  0  0  0  0
  -24.1110  -15.7030   20.7180 H   0  0  0  0  0  0  0  0  0  0  0  0
  -25.7010  -15.6120   20.1520 H   0  0  0  0  0  0  0  0  0  0  0  0
  2  5  1  0
  3  1  1  0
  3  7  1  0
  4  3  2  0
  5 11  1  0
  5  1  2  0
  6  2  2  0
  6  4  1  0
  8 10  1  0
  8  4  1  0
  9  7  1  0
 10 58  1  0
 10  9  1  0
 11 12  1  0
 14 13  1  0
 14 12  1  0
 15  6  1  0
 16 15  1  0
 16 17  1  0
 17 19  1  0
 18 29  2  0
 19 24  1  0
 20 28  1  0
 20 30  1  0
 21 27  1  0
 21 23  1  0
 22 28  1  0
 23 22  1  0
 24 23  2  0
 25 26  1  0
 25 19  2  0
 26 21  2  0
 27 20  1  0
 28 18  1  0
 30 32  2  0
 31 30  1  0
 33 31  1  0
 34 43  2  0
 34 39  1  0
 35 31  1  0
 35 39  1  0
 36 35  1  0
 37 38  1  0
 37 36  1  0
 38 34  1  0
 39 40  2  0
 40 41  1  0
 42 41  2  0
 43 42  1  0
 44 18  1  0
 44 45  1  0
 44 54  1  0
 45 48  1  0
 46 50  1  0
 46 45  1  0
 47 46  2  0
 50 49  1  0
 50 52  1  0
 52 53  1  0
 52 51  1  0
 54 57  1  1
 54 55  1  0
 56 54  1  0
 59 58  1  0
 60 68  1  0
 61 66  1  0
 62 63  1  0
 62 61  1  0
 64 63  1  0
 64 73  1  0
 64 65  1  0
 66 60  1  0
 66 65  1  0
 67 60  2  0
 68 59  1  0
 68 69  1  0
 70 71  2  0
 71 90  1  0
 72 71  1  0
 72 75  1  0
 73 74  1  0
 73 70  1  0
 74 72  2  0
 75 76  1  0
 76 77  2  0
 78 81  1  0
 78 77  1  0
 79 78  2  0
 80 79  1  0
 80 75  2  0
 81 82  1  0
 82 83  1  0
 83 84  2  0
 85 84  1  0
 85 89  1  0
 86 85  2  0
 87 82  2  0
 87 86  1  0
 88 87  1  0
 90 91  1  0
 91 94  1  0
 91 93  1  0
 92 90  2  0
 95 70  1  0
 95 96  1  0
 97 95  1  0
M  ISO  4  16 101  17 101  60 100  68 100
M  END
>  <TORSDO>  (91) 
F 23

>  <SCORE>  (91) 
-10.784

>  <name>  (91) 
90

>  <ligand_id>  (91) 
90

>  <original_smiles>  (91) 
[H]c1c([H])c([H])c2c(c1[H])C([H])([H])C([H])([H])C([H])([H])C2([H])N([H])C(=O)C1([H])N(C(=O)C([H])(N([H])C(=O)C([H])(N([H])C([H])([H])[H])C([H])([H])[H])C(C([H])([H])[H])(C([H])([H])[H])C([H])([H])[H])C([H])([H])c2c([H])c(OC([H])([H])C([H])([H])c3c([H])c(C([H])([H])C([H])([H])C([H])([H])C([H])([H])[H])c([H])c4c3C([H])([H])C([H])(C([H])([H])C([H])([H])N([H])C(=O)N3C([H])([H])C([H])([H])C([H])([H])C([H])(n5nc(-c6c([H])c([H])c(Oc7c([H])c([H])c(F)c([H])c7F)c([H])c6[H])c(C(=O)N([H])[H])c5N([H])[H])C3([H])[H])C([H])([H])C4([H])[H])c([H])c([H])c2C1([H])[H]

>  <smiles>  (91) 
[H]c1c([H])c([H])c2c(c1[H])C([H])([H])C([H])([H])C([H])([H])C2([H])N([H])C(=O)C1([H])N(C(=O)C([H])(N([H])C(=O)C([H])(N([H])C([H])([H])[H])C([H])([H])[H])C(C([H])([H])[H])(C([H])([H])[H])C([H])([H])[H])C([H])([H])c2c([H])c(OC([H])([H])C([H])([H])c3c([H])c(C([H])([H])C([H])([H])C([H])([H])C([H])([H])[H])c([H])c4c3C([H])([H])C([H])(C([H])([H])C([H])([H])N([H])C(=O)N3C([H])([H])C([H])([H])C([H])([H])C([H])(n5nc(-c6c([H])c([H])c(Oc7c([H])c([H])c(F)c([H])c7F)c([H])c6[H])c(C(=O)N([H])[H])c5N([H])[H])C3([H])[H])C([H])([H])C4([H])[H])c([H])c([H])c2C1([H])[H]

$$$$
91:0:0
     RDKit          3D

 94102  0  0  1  0  0  0  0  0999 V2000
  -30.6090  -22.2030   20.0270 C   0  0  0  0  0  3  0  0  0  0  0  0
  -29.1450  -20.4150   20.7430 C   0  0  0  0  0  3  0  0  0  0  0  0
  -29.3040  -21.7490   20.2870 C   0  0  0  0  0  0  0  0  0  0  0  0
  -31.7410  -21.3840   20.2580 C   0  0  0  0  0  0  0  0  0  0  0  0
  -30.2550  -19.5570   20.9860 C   0  0  0  0  0  0  0  0  0  0  0  0
  -31.5720  -20.0700   20.7950 C   0  0  0  0  0  0  0  0  0  0  0  0
  -33.2690  -19.7080   22.6380 C   0  0  0  0  0  1  0  0  0  0  0  0
  -32.7880  -19.2500   21.2550 C   0  0  0  0  0  2  0  0  0  0  0  0
  -33.1570  -22.6660   18.5560 C   0  0  0  0  0  1  0  0  0  0  0  0
  -33.1150  -21.9670   19.9230 C   0  0  0  0  0  2  0  0  0  0  0  0
  -28.0800  -22.6550   20.0130 C   0  0  0  0  0  2  0  0  0  0  0  0
  -28.0550  -24.1070   20.6190 C   0  0  0  0  0  3  0  0  0  0  0  0
  -28.4690  -25.2860   19.6750 C   0  0  0  0  0  3  0  0  0  0  0  0
  -28.3640  -26.6330   20.2170 O   0  0  0  0  0  0  0  0  0  0  0  0
  -24.5720  -31.8930   23.2140 C   0  0  0  0  0  0  0  0  0  0  0  0
  -27.1850  -27.3720   20.1640 C   0  0  0  0  0  0  0  0  0  0  0  0
  -23.3550  -30.4870   21.5810 C   0  0  0  0  0  3  0  0  0  0  0  0
  -24.7980  -28.9300   20.1580 C   0  0  0  0  0  0  0  0  0  0  0  0
  -25.8890  -30.8140   21.3870 C   0  0  0  0  0  2  0  0  0  0  0  0
  -25.9600  -29.4370   20.7490 C   0  0  0  0  0  0  0  0  0  0  0  0
  -27.1520  -28.6670   20.7470 C   0  0  0  0  0  3  0  0  0  0  0  0
  -26.0000  -26.8900   19.5610 C   0  0  0  0  0  3  0  0  0  0  0  0
  -24.8180  -27.6590   19.5550 C   0  0  0  0  0  3  0  0  0  0  0  0
  -23.5550  -29.7960   20.2050 C   0  0  0  0  0  2  0  0  0  0  0  0
  -24.6230  -31.0870   22.1140 N   0  0  0  0  0  0  0  0  0  0  0  0
  -23.4930  -32.1710   23.7550 O   0  0  0  0  0  0  0  0  0  0  0  0
  -22.7000  -29.4770   22.5500 C   0  0  0  0  0  0  0  0  0  0  0  0
  -21.3740  -29.3000   22.4270 N   0  0  0  0  0  0  0  0  0  0  0  0
  -23.3810  -28.8580   23.3710 O   0  0  0  0  0  0  0  0  0  0  0  0
  -20.8840  -29.8540   21.7390 H   0  0  0  0  0  0  0  0  0  0  0  0
  -18.0010  -28.1170   22.9310 C   0  0  0  0  0  0  0  0  0  0  0  0
  -20.5580  -28.3680   23.2050 C   0  0  0  0  0  3  0  0  0  0  0  0
  -20.6600  -26.9320   22.6400 C   0  0  0  0  0  2  0  0  0  0  0  0
  -19.5590  -26.6060   21.6280 C   0  0  0  0  0  2  0  0  0  0  0  0
  -18.1750  -26.7610   22.2690 C   0  0  0  0  0  2  0  0  0  0  0  0
  -19.1200  -28.8780   23.3580 C   0  0  0  0  0  0  0  0  0  0  0  0
  -18.9070  -30.1480   23.9350 C   0  0  0  0  0  3  0  0  0  0  0  0
  -17.6030  -30.6520   24.1040 C   0  0  0  0  0  3  0  0  0  0  0  0
  -16.4980  -29.8870   23.6960 C   0  0  0  0  0  3  0  0  0  0  0  0
  -16.6970  -28.6240   23.1110 C   0  0  0  0  0  3  0  0  0  0  0  0
  -25.8600  -32.5250   23.8260 C   0  0  0  0  0  3  0  0  0  0  0  0
  -25.5540  -33.9220   24.1570 N   0  0  0  0  0  0  0  0  0  0  0  0
  -25.8940  -34.9760   23.4050 C   0  0  0  0  0  0  0  0  0  0  0  0
  -26.5700  -34.8740   22.3770 O   0  0  0  0  0  0  0  0  0  0  0  0
  -24.9600  -34.0780   24.9580 H   0  0  0  0  0  0  0  0  0  0  0  0
  -24.1720  -36.7730   23.0530 C   0  0  0  0  0  1  0  0  0  0  0  0
  -25.4090  -36.3640   23.8680 C   0  0  0  0  0  3  0  0  0  0  0  0
  -27.5400  -37.2330   24.7170 C   0  0  0  0  0  1  0  0  0  0  0  0
  -26.4440  -37.4170   23.7700 N   0  0  0  0  0  0  0  0  0  0  0  0
  -26.0380  -38.3360   23.9280 H   0  0  0  0  0  0  0  0  0  0  0  0
  -26.3830  -31.7620   25.1050 C   0  0  1  0  0  0  0  0  0  0  0  0
  -25.3000  -31.5340   26.1840 C   0  0  0  0  0  1  0  0  0  0  0  0
  -26.9630  -30.3830   24.7110 C   0  0  0  0  0  1  0  0  0  0  0  0
  -27.5330  -32.5610   25.7600 C   0  0  0  0  0  1  0  0  0  0  0  0
  -30.0060  -18.1090   21.4840 C   0  0  0  0  0  2  0  0  0  0  0  0
  -30.2070  -17.0050   20.3980 C   0  0  0  0  0  2  0  0  0  0  0  0
  -30.7750  -14.5570   20.3370 C   0  0  0  0  0  0  0  0  0  0  0  0
  -30.4710  -12.4070   19.1720 C   0  0  0  0  0  2  0  0  0  0  0  0
  -29.5160  -12.6320   17.9800 C   0  0  0  0  0  2  0  0  0  0  0  0
  -28.0470  -12.4770   18.4200 C   0  0  0  0  0  2  0  0  0  0  0  0
  -27.7250  -13.2950   19.6980 C   0  0  0  0  0  3  0  0  0  0  0  0
  -28.7880  -13.0670   20.7980 C   0  0  0  0  0  2  0  0  0  0  0  0
  -30.1100  -13.3710   20.2270 N   0  0  0  0  0  0  0  0  0  0  0  0
  -31.8850  -14.7360   19.8230 O   0  0  0  0  0  0  0  0  0  0  0  0
  -30.0680  -15.5950   20.8490 N   0  0  0  0  0  0  0  0  0  0  0  0
  -29.2090  -15.3600   21.3280 H   0  0  0  0  0  0  0  0  0  0  0  0
  -25.3310  -13.8970   20.4210 C   0  0  0  0  0  0  0  0  0  0  0  0
  -24.2670  -13.1260   20.8000 C   0  0  0  0  0  0  0  0  0  0  0  0
  -24.7270  -11.7730   20.7690 C   0  0  0  0  0  0  0  0  0  0  0  0
  -26.3740  -13.0170   20.1840 N   0  0  0  0  0  0  0  0  0  0  0  0
  -26.0140  -11.7350   20.4500 N   0  0  0  0  0  0  0  0  0  0  0  0
  -24.0030  -10.5120   20.9690 C   0  0  0  0  0  0  0  0  0  0  0  0
  -24.4360   -9.5570   21.9130 C   0  0  0  0  0  3  0  0  0  0  0  0
  -23.7150   -8.3580   22.1020 C   0  0  0  0  0  3  0  0  0  0  0  0
  -22.5450   -8.1060   21.3480 C   0  0  0  0  0  0  0  0  0  0  0  0
  -22.1310   -9.0520   20.3930 C   0  0  0  0  0  3  0  0  0  0  0  0
  -22.8520  -10.2420   20.2030 C   0  0  0  0  0  3  0  0  0  0  0  0
  -21.7950   -6.9600   21.4430 O   0  0  0  0  0  0  0  0  0  0  0  0
  -21.7330   -6.2360   22.6080 C   0  0  0  0  0  0  0  0  0  0  0  0
  -21.2850   -6.8090   23.8170 C   0  0  0  0  0  3  0  0  0  0  0  0
  -21.1720   -6.0120   24.9750 C   0  0  0  0  0  3  0  0  0  0  0  0
  -21.4920   -4.6420   24.9220 C   0  0  0  0  0  0  0  0  0  0  0  0
  -21.9350   -4.0700   23.7180 C   0  0  0  0  0  3  0  0  0  0  0  0
  -22.0510   -4.8650   22.5630 C   0  0  0  0  0  0  0  0  0  0  0  0
  -22.4550   -4.3020   21.3990 F   0  0  0  0  0  0  0  0  0  0  0  0
  -21.3770   -3.8750   26.0320 F   0  0  0  0  0  0  0  0  0  0  0  0
  -22.8730  -13.6020   21.0920 C   0  0  0  0  0  0  0  0  0  0  0  0
  -22.1570  -12.9070   21.9700 N   0  0  0  0  0  0  0  0  0  0  0  0
  -22.4280  -14.6290   20.5770 O   0  0  0  0  0  0  0  0  0  0  0  0
  -22.5280  -12.0790   22.4100 H   0  0  0  0  0  0  0  0  0  0  0  0
  -21.2230  -13.2110   22.2070 H   0  0  0  0  0  0  0  0  0  0  0  0
  -25.5040  -15.2680   20.2420 N   0  0  0  0  0  0  0  0  0  0  0  0
  -24.7510  -15.9390   20.3510 H   0  0  0  0  0  0  0  0  0  0  0  0
  -26.3790  -15.6990   19.9720 H   0  0  0  0  0  0  0  0  0  0  0  0
  1  4  2  0
  1  3  1  0
  2  5  1  0
  3  2  2  0
  4  6  1  0
  5 55  1  0
  6  5  2  0
  6  8  1  0
  8  7  1  0
  9 10  1  0
 10  4  1  0
 11  3  1  0
 11 12  1  0
 13 14  1  0
 13 12  2  0
 15 26  2  0
 16 14  1  0
 16 21  1  0
 17 25  1  0
 17 27  1  0
 18 24  1  0
 18 20  1  0
 19 25  1  0
 20 19  1  0
 21 20  2  0
 22 16  2  0
 23 22  1  0
 23 18  2  0
 24 17  1  0
 25 15  1  0
 27 29  2  0
 28 27  1  0
 30 28  1  0
 31 40  2  0
 31 36  1  0
 32 28  1  0
 32 36  1  0
 33 32  1  0
 34 35  1  0
 34 33  1  0
 35 31  1  0
 36 37  2  0
 37 38  1  0
 39 38  2  0
 40 39  1  0
 41 15  1  0
 41 42  1  0
 41 51  1  0
 42 45  1  0
 43 47  1  0
 43 42  1  0
 44 43  2  0
 47 46  1  0
 49 47  1  0
 49 50  1  0
 49 48  1  0
 51 54  1  1
 51 52  1  0
 53 51  1  0
 56 65  1  0
 56 55  1  0
 57 65  1  0
 58 63  1  0
 59 60  1  0
 59 58  1  0
 61 60  1  0
 61 70  1  0
 61 62  1  0
 63 57  1  0
 63 62  1  0
 64 57  2  0
 65 66  1  0
 67 68  2  0
 68 87  1  0
 69 68  1  0
 69 72  1  0
 70 67  1  0
 70 71  1  0
 71 69  2  0
 72 73  1  0
 73 74  2  0
 75 78  1  0
 75 74  1  0
 76 75  2  0
 77 76  1  0
 77 72  2  0
 78 79  1  0
 79 80  1  0
 80 81  2  0
 82 81  1  0
 82 86  1  0
 83 82  2  0
 84 79  2  0
 84 83  1  0
 85 84  1  0
 87 88  1  0
 88 91  1  0
 88 90  1  0
 89 87  2  0
 92 93  1  0
 92 67  1  0
 94 92  1  0
M  ISO  4  13 101  14 101  57 100  65 100
M  END
>  <TORSDO>  (92) 
F 23

>  <SCORE>  (92) 
-12.827

>  <name>  (92) 
91

>  <ligand_id>  (92) 
91

>  <original_smiles>  (92) 
[H]c1c([H])c([H])c2c(c1[H])C([H])([H])C([H])([H])C([H])([H])C2([H])N([H])C(=O)C1([H])N(C(=O)C([H])(N([H])C(=O)C([H])(N([H])C([H])([H])[H])C([H])([H])[H])C(C([H])([H])[H])(C([H])([H])[H])C([H])([H])[H])C([H])([H])c2c([H])c(OC([H])([H])C([H])([H])C([H])([H])c3c([H])c(C([H])([H])C([H])([H])[H])c(C([H])([H])C([H])([H])[H])c(C([H])([H])C([H])([H])N([H])C(=O)N4C([H])([H])C([H])([H])C([H])([H])C([H])(n5nc(-c6c([H])c([H])c(Oc7c([H])c([H])c(F)c([H])c7F)c([H])c6[H])c(C(=O)N([H])[H])c5N([H])[H])C4([H])[H])c3[H])c([H])c([H])c2C1([H])[H]

>  <smiles>  (92) 
[H]c1c([H])c([H])c2c(c1[H])C([H])([H])C([H])([H])C([H])([H])C2([H])N([H])C(=O)C1([H])N(C(=O)C([H])(N([H])C(=O)C([H])(N([H])C([H])([H])[H])C([H])([H])[H])C(C([H])([H])[H])(C([H])([H])[H])C([H])([H])[H])C([H])([H])c2c([H])c(OC([H])([H])C([H])([H])C([H])([H])c3c([H])c(C([H])([H])C([H])([H])[H])c(C([H])([H])C([H])([H])[H])c(C([H])([H])C([H])([H])N([H])C(=O)N4C([H])([H])C([H])([H])C([H])([H])C([H])(n5nc(-c6c([H])c([H])c(Oc7c([H])c([H])c(F)c([H])c7F)c([H])c6[H])c(C(=O)N([H])[H])c5N([H])[H])C4([H])[H])c3[H])c([H])c([H])c2C1([H])[H]

$$$$
92:0:0
     RDKit          3D

 94102  0  0  1  0  0  0  0  0999 V2000
  -29.0890  -22.1770   19.8290 C   0  0  0  0  0  3  0  0  0  0  0  0
  -28.7820  -23.4580   20.3610 C   0  0  0  0  0  0  0  0  0  0  0  0
  -30.0130  -21.3110   20.4800 C   0  0  0  0  0  0  0  0  0  0  0  0
  -29.4560  -23.8490   21.5340 C   0  0  0  0  0  0  0  0  0  0  0  0
  -30.6040  -21.8110   21.6750 C   0  0  0  0  0  0  0  0  0  0  0  0
  -29.1730  -25.1690   22.2330 C   0  0  0  0  0  1  0  0  0  0  0  0
  -30.3430  -23.0490   22.1520 N   0  0  0  0  0  0  0  0  0  0  0  0
  -30.4040  -19.9650   19.7950 C   0  0  0  0  0  2  0  0  0  0  0  0
  -30.0380  -18.5820   20.4400 C   0  0  0  0  0  2  0  0  0  0  0  0
  -30.9440  -17.4150   19.9360 C   0  0  0  0  0  2  0  0  0  0  0  0
  -31.2250  -14.9370   19.9850 C   0  0  0  0  0  0  0  0  0  0  0  0
  -30.9020  -12.6930   19.0290 C   0  0  0  0  0  2  0  0  0  0  0  0
  -29.9500  -12.8080   17.8190 C   0  0  0  0  0  2  0  0  0  0  0  0
  -28.4810  -12.7130   18.2810 C   0  0  0  0  0  2  0  0  0  0  0  0
  -28.1610  -13.6470   19.4780 C   0  0  0  0  0  3  0  0  0  0  0  0
  -29.2260  -13.5130   20.5900 C   0  0  0  0  0  2  0  0  0  0  0  0
  -30.5430  -13.7580   19.9810 N   0  0  0  0  0  0  0  0  0  0  0  0
  -32.3670  -15.0430   19.5280 O   0  0  0  0  0  0  0  0  0  0  0  0
  -30.5160  -16.0440   20.3030 N   0  0  0  0  0  0  0  0  0  0  0  0
  -29.5970  -15.9180   20.7000 H   0  0  0  0  0  0  0  0  0  0  0  0
  -25.8110  -14.3410   20.2610 C   0  0  0  0  0  0  0  0  0  0  0  0
  -24.7230  -13.6100   20.6460 C   0  0  0  0  0  0  0  0  0  0  0  0
  -25.1240  -12.2390   20.5820 C   0  0  0  0  0  0  0  0  0  0  0  0
  -26.8110  -13.4200   19.9880 N   0  0  0  0  0  0  0  0  0  0  0  0
  -26.4050  -12.1500   20.2410 N   0  0  0  0  0  0  0  0  0  0  0  0
  -24.3500  -11.0060   20.7700 C   0  0  0  0  0  0  0  0  0  0  0  0
  -24.7400  -10.0320   21.7140 C   0  0  0  0  0  3  0  0  0  0  0  0
  -23.9720   -8.8610   21.8910 C   0  0  0  0  0  3  0  0  0  0  0  0
  -22.8000   -8.6570   21.1220 C   0  0  0  0  0  0  0  0  0  0  0  0
  -22.4280   -9.6210   20.1680 C   0  0  0  0  0  3  0  0  0  0  0  0
  -23.1960  -10.7840   19.9900 C   0  0  0  0  0  3  0  0  0  0  0  0
  -22.0050   -7.5400   21.2100 O   0  0  0  0  0  0  0  0  0  0  0  0
  -21.8700   -6.8410   22.3830 C   0  0  0  0  0  0  0  0  0  0  0  0
  -21.3840   -7.4490   23.5610 C   0  0  0  0  0  3  0  0  0  0  0  0
  -21.1960   -6.6770   24.7260 C   0  0  0  0  0  3  0  0  0  0  0  0
  -21.4840   -5.2990   24.7110 C   0  0  0  0  0  0  0  0  0  0  0  0
  -21.9630   -4.6920   23.5380 C   0  0  0  0  0  3  0  0  0  0  0  0
  -22.1510   -5.4600   22.3760 C   0  0  0  0  0  0  0  0  0  0  0  0
  -22.5930   -4.8660   21.2400 F   0  0  0  0  0  0  0  0  0  0  0  0
  -21.2940   -4.5550   25.8260 F   0  0  0  0  0  0  0  0  0  0  0  0
  -23.3550  -14.1410   20.9600 C   0  0  0  0  0  0  0  0  0  0  0  0
  -22.6250  -13.4710   21.8440 N   0  0  0  0  0  0  0  0  0  0  0  0
  -22.9430  -15.1850   20.4570 O   0  0  0  0  0  0  0  0  0  0  0  0
  -22.9710  -12.6270   22.2750 H   0  0  0  0  0  0  0  0  0  0  0  0
  -21.7050  -13.8080   22.0890 H   0  0  0  0  0  0  0  0  0  0  0  0
  -26.0290  -15.7090   20.1030 N   0  0  0  0  0  0  0  0  0  0  0  0
  -25.2950  -16.3940   20.2550 H   0  0  0  0  0  0  0  0  0  0  0  0
  -26.8850  -16.1190   19.7530 H   0  0  0  0  0  0  0  0  0  0  0  0
  -27.6370  -24.3100   19.7810 C   0  0  0  0  0  2  0  0  0  0  0  0
  -27.9540  -25.5420   18.8670 C   0  0  0  0  0  2  0  0  0  0  0  0
  -27.9890  -26.8730   19.4430 O   0  0  0  0  0  0  0  0  0  0  0  0
  -24.5280  -31.9090   23.1280 C   0  0  0  0  0  0  0  0  0  0  0  0
  -26.8350  -27.6440   19.5260 C   0  0  0  0  0  0  0  0  0  0  0  0
  -23.1710  -30.6280   21.5080 C   0  0  0  0  0  3  0  0  0  0  0  0
  -24.4750  -29.1950   19.8460 C   0  0  0  0  0  0  0  0  0  0  0  0
  -25.6750  -30.9790   21.1150 C   0  0  0  0  0  2  0  0  0  0  0  0
  -25.6860  -29.6530   20.3770 C   0  0  0  0  0  0  0  0  0  0  0  0
  -26.8640  -28.8800   20.2240 C   0  0  0  0  0  3  0  0  0  0  0  0
  -25.6040  -27.2310   18.9660 C   0  0  0  0  0  3  0  0  0  0  0  0
  -24.4310  -27.9860   19.1360 C   0  0  0  0  0  3  0  0  0  0  0  0
  -23.2500  -30.0530   20.0680 C   0  0  0  0  0  2  0  0  0  0  0  0
  -24.4810  -31.1850   21.9730 N   0  0  0  0  0  0  0  0  0  0  0  0
  -23.5000  -32.1460   23.7780 O   0  0  0  0  0  0  0  0  0  0  0  0
  -22.5990  -29.5400   22.4490 C   0  0  0  0  0  0  0  0  0  0  0  0
  -21.2850  -29.2830   22.3420 N   0  0  0  0  0  0  0  0  0  0  0  0
  -23.3340  -28.9340   23.2320 O   0  0  0  0  0  0  0  0  0  0  0  0
  -20.7480  -29.8340   21.6860 H   0  0  0  0  0  0  0  0  0  0  0  0
  -18.0280  -27.7750   22.7730 C   0  0  0  0  0  0  0  0  0  0  0  0
  -20.5420  -28.2750   23.1010 C   0  0  0  0  0  3  0  0  0  0  0  0
  -20.7930  -26.8570   22.5380 C   0  0  0  0  0  2  0  0  0  0  0  0
  -19.7500  -26.4250   21.5020 C   0  0  0  0  0  2  0  0  0  0  0  0
  -18.3460  -26.4440   22.1130 C   0  0  0  0  0  2  0  0  0  0  0  0
  -19.0590  -28.6420   23.2230 C   0  0  0  0  0  0  0  0  0  0  0  0
  -18.7100  -29.8820   23.8000 C   0  0  0  0  0  3  0  0  0  0  0  0
  -17.3610  -30.2610   23.9280 C   0  0  0  0  0  3  0  0  0  0  0  0
  -16.3430  -29.3940   23.4940 C   0  0  0  0  0  3  0  0  0  0  0  0
  -16.6770  -28.1510   22.9250 C   0  0  0  0  0  3  0  0  0  0  0  0
  -25.8680  -32.4960   23.6720 C   0  0  0  0  0  3  0  0  0  0  0  0
  -25.6050  -33.8760   24.1020 N   0  0  0  0  0  0  0  0  0  0  0  0
  -25.9140  -34.9670   23.3880 C   0  0  0  0  0  0  0  0  0  0  0  0
  -26.5220  -34.9150   22.3150 O   0  0  0  0  0  0  0  0  0  0  0  0
  -25.0630  -33.9910   24.9460 H   0  0  0  0  0  0  0  0  0  0  0  0
  -24.2090  -36.8090   23.2290 C   0  0  0  0  0  1  0  0  0  0  0  0
  -25.4790  -36.3330   23.9540 C   0  0  0  0  0  3  0  0  0  0  0  0
  -27.6690  -37.1230   24.7330 C   0  0  0  0  0  1  0  0  0  0  0  0
  -26.5280  -37.3710   23.8550 N   0  0  0  0  0  0  0  0  0  0  0  0
  -26.1500  -38.2880   24.0770 H   0  0  0  0  0  0  0  0  0  0  0  0
  -26.4840  -31.6510   24.8530 C   0  0  1  0  0  0  0  0  0  0  0  0
  -25.4850  -31.3650   25.9990 C   0  0  0  0  0  1  0  0  0  0  0  0
  -27.0110  -30.2920   24.3360 C   0  0  0  0  0  1  0  0  0  0  0  0
  -27.7010  -32.3950   25.4510 C   0  0  0  0  0  1  0  0  0  0  0  0
  -31.5780  -21.0390   22.5560 C   0  0  0  0  0  2  0  0  0  0  0  0
  -33.7180  -19.6520   22.6600 C   0  0  0  0  0  1  0  0  0  0  0  0
  -32.9180  -20.7020   21.8840 C   0  0  0  0  0  2  0  0  0  0  0  0
  1  2  2  0
  1  3  1  0
  2  4  1  0
  3  5  2  0
  4  7  2  0
  4  6  1  0
  5  7  1  0
  5 92  1  0
  8  9  1  0
  8  3  1  0
 10 19  1  0
 10  9  1  0
 11 19  1  0
 12 17  1  0
 13 14  1  0
 13 12  1  0
 15 14  1  0
 15 24  1  0
 15 16  1  0
 17 11  1  0
 17 16  1  0
 18 11  2  0
 19 20  1  0
 21 22  2  0
 22 41  1  0
 23 22  1  0
 23 26  1  0
 24 25  1  0
 24 21  1  0
 25 23  2  0
 26 27  1  0
 27 28  2  0
 29 32  1  0
 29 28  1  0
 30 29  2  0
 31 30  1  0
 31 26  2  0
 32 33  1  0
 33 34  1  0
 34 35  2  0
 36 35  1  0
 36 40  1  0
 37 36  2  0
 38 33  2  0
 38 37  1  0
 39 38  1  0
 41 42  1  0
 42 45  1  0
 42 44  1  0
 43 41  2  0
 46 47  1  0
 46 21  1  0
 48 46  1  0
 49  2  1  0
 50 51  1  0
 50 49  1  0
 51 53  1  0
 52 63  2  0
 53 58  1  0
 54 62  1  0
 54 64  1  0
 55 61  1  0
 55 57  1  0
 56 62  1  0
 57 56  1  0
 58 57  2  0
 59 60  1  0
 59 53  2  0
 60 55  2  0
 61 54  1  0
 62 52  1  0
 64 66  2  0
 65 64  1  0
 67 65  1  0
 68 77  2  0
 68 73  1  0
 69 65  1  0
 69 73  1  0
 70 69  1  0
 71 72  1  0
 71 70  1  0
 72 68  1  0
 73 74  2  0
 74 75  1  0
 76 75  2  0
 77 76  1  0
 78 52  1  0
 78 79  1  0
 78 88  1  0
 79 82  1  0
 80 84  1  0
 80 79  1  0
 81 80  2  0
 84 83  1  0
 86 84  1  0
 86 87  1  0
 86 85  1  0
 88 91  1  1
 88 89  1  0
 90 88  1  0
 94 92  1  0
 94 93  1  0
M  ISO  4  11 100  19 100  50 101  51 101
M  END
>  <TORSDO>  (93) 
F 23

>  <SCORE>  (93) 
-11.997

>  <name>  (93) 
92

>  <ligand_id>  (93) 
92

>  <original_smiles>  (93) 
[H]c1c([H])c([H])c2c(c1[H])C([H])([H])C([H])([H])C([H])([H])C2([H])N([H])C(=O)C1([H])N(C(=O)C([H])(N([H])C(=O)C([H])(N([H])C([H])([H])[H])C([H])([H])[H])C(C([H])([H])[H])(C([H])([H])[H])C([H])([H])[H])C([H])([H])c2c([H])c(OC([H])([H])C([H])([H])c3c(C([H])([H])[H])nc(C([H])([H])C([H])([H])C([H])([H])[H])c(C([H])([H])C([H])([H])C([H])([H])N([H])C(=O)N4C([H])([H])C([H])([H])C([H])([H])C([H])(n5nc(-c6c([H])c([H])c(Oc7c([H])c([H])c(F)c([H])c7F)c([H])c6[H])c(C(=O)N([H])[H])c5N([H])[H])C4([H])[H])c3[H])c([H])c([H])c2C1([H])[H]

>  <smiles>  (93) 
[H]c1c([H])c([H])c2c(c1[H])C([H])([H])C([H])([H])C([H])([H])C2([H])N([H])C(=O)C1([H])N(C(=O)C([H])(N([H])C(=O)C([H])(N([H])C([H])([H])[H])C([H])([H])[H])C(C([H])([H])[H])(C([H])([H])[H])C([H])([H])[H])C([H])([H])c2c([H])c(OC([H])([H])C([H])([H])c3c(C([H])([H])[H])nc(C([H])([H])C([H])([H])C([H])([H])[H])c(C([H])([H])C([H])([H])C([H])([H])N([H])C(=O)N4C([H])([H])C([H])([H])C([H])([H])C([H])(n5nc(-c6c([H])c([H])c(Oc7c([H])c([H])c(F)c([H])c7F)c([H])c6[H])c(C(=O)N([H])[H])c5N([H])[H])C4([H])[H])c3[H])c([H])c([H])c2C1([H])[H]

$$$$
93:0:0
     RDKit          3D

 93102  0  0  1  0  0  0  0  0999 V2000
  -28.3280  -20.9750   19.5190 C   0  0  0  0  0  3  0  0  0  0  0  0
  -27.8160  -22.0380   20.1980 C   0  0  0  0  0  0  0  0  0  0  0  0
  -27.8390  -21.7300   21.5590 N   0  0  0  0  0  0  0  0  0  0  0  0
  -28.4140  -20.5710   21.7310 N   0  0  0  0  0  0  0  0  0  0  0  0
  -28.7340  -20.0890   20.5000 N   0  0  0  0  0  0  0  0  0  0  0  0
  -29.3320  -16.5340   19.2760 C   0  0  0  0  0  2  0  0  0  0  0  0
  -30.8670  -16.8520   21.2260 C   0  0  0  0  0  2  0  0  0  0  0  0
  -29.0950  -18.0740   19.1240 C   0  0  0  0  0  2  0  0  0  0  0  0
  -29.8600  -18.0210   21.5180 C   0  0  0  0  0  2  0  0  0  0  0  0
  -30.7460  -16.1960   19.8060 C   0  0  2  0  0  0  0  0  0  0  0  0
  -29.6560  -18.9600   20.2960 C   0  0  2  0  0  0  0  0  0  0  0  0
  -31.7310  -16.8390   18.7560 C   0  0  0  0  0  1  0  0  0  0  0  0
  -31.0070  -19.6790   20.0090 C   0  0  0  0  0  1  0  0  0  0  0  0
  -31.1640  -14.6650   19.8290 C   0  0  0  0  0  0  0  0  0  0  0  0
  -30.6560  -12.4640   18.8810 C   0  0  0  0  0  2  0  0  0  0  0  0
  -29.6870  -12.5960   17.6960 C   0  0  0  0  0  2  0  0  0  0  0  0
  -28.2380  -12.4780   18.1930 C   0  0  0  0  0  2  0  0  0  0  0  0
  -27.9410  -13.3820   19.4140 C   0  0  0  0  0  3  0  0  0  0  0  0
  -29.0620  -13.3730   20.4750 C   0  0  0  0  0  2  0  0  0  0  0  0
  -30.3490  -13.5730   19.8030 N   0  0  0  0  0  0  0  0  0  0  0  0
  -32.3630  -14.4820   19.6270 O   0  0  0  0  0  0  0  0  0  0  0  0
  -25.6220  -13.9990   20.3130 C   0  0  0  0  0  0  0  0  0  0  0  0
  -24.5660  -13.2340   20.7260 C   0  0  0  0  0  0  0  0  0  0  0  0
  -25.0070  -11.8780   20.6440 C   0  0  0  0  0  0  0  0  0  0  0  0
  -26.6330  -13.1070   19.9970 N   0  0  0  0  0  0  0  0  0  0  0  0
  -26.2770  -11.8260   20.2660 N   0  0  0  0  0  0  0  0  0  0  0  0
  -24.2730  -10.6220   20.8470 C   0  0  0  0  0  0  0  0  0  0  0  0
  -24.6820   -9.6760   21.8120 C   0  0  0  0  0  3  0  0  0  0  0  0
  -23.9510   -8.4840   22.0000 C   0  0  0  0  0  3  0  0  0  0  0  0
  -22.7950   -8.2300   21.2250 C   0  0  0  0  0  0  0  0  0  0  0  0
  -22.4050   -9.1640   20.2490 C   0  0  0  0  0  3  0  0  0  0  0  0
  -23.1370  -10.3470   20.0590 C   0  0  0  0  0  3  0  0  0  0  0  0
  -22.0380   -7.0880   21.3230 O   0  0  0  0  0  0  0  0  0  0  0  0
  -21.8820   -6.4290   22.5160 C   0  0  0  0  0  0  0  0  0  0  0  0
  -21.3350   -7.0630   23.6520 C   0  0  0  0  0  3  0  0  0  0  0  0
  -21.1250   -6.3280   24.8360 C   0  0  0  0  0  3  0  0  0  0  0  0
  -21.4540   -4.9600   24.8840 C   0  0  0  0  0  0  0  0  0  0  0  0
  -21.9940   -4.3260   23.7530 C   0  0  0  0  0  3  0  0  0  0  0  0
  -22.2040   -5.0580   22.5700 C   0  0  0  0  0  0  0  0  0  0  0  0
  -22.7040   -4.4370   21.4750 F   0  0  0  0  0  0  0  0  0  0  0  0
  -21.2450   -4.2520   26.0200 F   0  0  0  0  0  0  0  0  0  0  0  0
  -23.1930  -13.7230   21.0800 C   0  0  0  0  0  0  0  0  0  0  0  0
  -22.5130  -13.0320   21.9880 N   0  0  0  0  0  0  0  0  0  0  0  0
  -22.7330  -14.7520   20.5840 O   0  0  0  0  0  0  0  0  0  0  0  0
  -22.8980  -12.1970   22.4050 H   0  0  0  0  0  0  0  0  0  0  0  0
  -21.5940  -13.3410   22.2690 H   0  0  0  0  0  0  0  0  0  0  0  0
  -25.8030  -15.3700   20.1490 N   0  0  0  0  0  0  0  0  0  0  0  0
  -25.0610  -16.0430   20.3050 H   0  0  0  0  0  0  0  0  0  0  0  0
  -26.6500  -15.7910   19.7900 H   0  0  0  0  0  0  0  0  0  0  0  0
  -27.3860  -23.3690   19.6370 C   0  0  0  0  0  2  0  0  0  0  0  0
  -28.2630  -24.5390   20.1400 C   0  0  0  0  0  2  0  0  0  0  0  0
  -28.5970  -25.6200   19.0820 C   0  0  0  0  0  2  0  0  0  0  0  0
  -28.5310  -26.9530   19.6070 O   0  0  0  0  0  0  0  0  0  0  0  0
  -24.5710  -31.7710   23.0450 C   0  0  0  0  0  0  0  0  0  0  0  0
  -27.3100  -27.5960   19.6700 C   0  0  0  0  0  0  0  0  0  0  0  0
  -23.3820  -30.4080   21.3610 C   0  0  0  0  0  3  0  0  0  0  0  0
  -24.8560  -28.9990   19.8350 C   0  0  0  0  0  0  0  0  0  0  0  0
  -25.8900  -30.8700   21.1300 C   0  0  0  0  0  2  0  0  0  0  0  0
  -26.0090  -29.5390   20.4170 C   0  0  0  0  0  0  0  0  0  0  0  0
  -27.2380  -28.8460   20.3300 C   0  0  0  0  0  3  0  0  0  0  0  0
  -26.1280  -27.0640   19.1010 C   0  0  0  0  0  3  0  0  0  0  0  0
  -24.9080  -27.7580   19.1800 C   0  0  0  0  0  3  0  0  0  0  0  0
  -23.5850  -29.8080   19.9470 C   0  0  0  0  0  2  0  0  0  0  0  0
  -24.6330  -31.0300   21.9030 N   0  0  0  0  0  0  0  0  0  0  0  0
  -23.4950  -31.9730   23.6220 O   0  0  0  0  0  0  0  0  0  0  0  0
  -22.7950  -29.3160   22.2830 C   0  0  0  0  0  0  0  0  0  0  0  0
  -21.4770  -29.0860   22.1730 N   0  0  0  0  0  0  0  0  0  0  0  0
  -23.5210  -28.6800   23.0500 O   0  0  0  0  0  0  0  0  0  0  0  0
  -20.9500  -29.6490   21.5200 H   0  0  0  0  0  0  0  0  0  0  0  0
  -18.1670  -27.7340   22.6850 C   0  0  0  0  0  0  0  0  0  0  0  0
  -20.7170  -28.0820   22.9180 C   0  0  0  0  0  3  0  0  0  0  0  0
  -20.8660  -26.6850   22.2730 C   0  0  0  0  0  2  0  0  0  0  0  0
  -19.7570  -26.3660   21.2670 C   0  0  0  0  0  2  0  0  0  0  0  0
  -18.3840  -26.4260   21.9420 C   0  0  0  0  0  2  0  0  0  0  0  0
  -19.2640  -28.5190   23.1300 C   0  0  0  0  0  0  0  0  0  0  0  0
  -19.0090  -29.7440   23.7840 C   0  0  0  0  0  3  0  0  0  0  0  0
  -17.6900  -30.1830   24.0000 C   0  0  0  0  0  3  0  0  0  0  0  0
  -16.6090  -29.3950   23.5710 C   0  0  0  0  0  3  0  0  0  0  0  0
  -16.8470  -28.1730   22.9190 C   0  0  0  0  0  3  0  0  0  0  0  0
  -25.8460  -32.4230   23.6640 C   0  0  0  0  0  3  0  0  0  0  0  0
  -26.4280  -31.6160   24.8890 C   0  0  1  0  0  0  0  0  0  0  0  0
  -25.3810  -31.2790   25.9750 C   0  0  0  0  0  1  0  0  0  0  0  0
  -27.0540  -30.2820   24.4200 C   0  0  0  0  0  1  0  0  0  0  0  0
  -27.5630  -32.4320   25.5550 C   0  0  0  0  0  1  0  0  0  0  0  0
  -25.4910  -33.7920   24.0630 N   0  0  0  0  0  0  0  0  0  0  0  0
  -25.7840  -34.8910   23.3570 C   0  0  0  0  0  0  0  0  0  0  0  0
  -26.4490  -34.8610   22.3170 O   0  0  0  0  0  0  0  0  0  0  0  0
  -24.8870  -33.8860   24.8670 H   0  0  0  0  0  0  0  0  0  0  0  0
  -23.9930  -36.6390   23.1050 C   0  0  0  0  0  1  0  0  0  0  0  0
  -25.2540  -36.2370   23.8870 C   0  0  0  0  0  3  0  0  0  0  0  0
  -27.3630  -37.1480   24.7500 C   0  0  0  0  0  1  0  0  0  0  0  0
  -26.2490  -37.3280   23.8220 N   0  0  0  0  0  0  0  0  0  0  0  0
  -25.8150  -38.2260   24.0230 H   0  0  0  0  0  0  0  0  0  0  0  0
  1  2  2  0
  1  5  1  0
  2  3  1  0
  3  4  2  0
  5  4  1  0
  6 10  1  0
  7  9  1  0
  8  6  1  0
  8 11  1  0
 10 12  1  6
 10 14  1  0
 10  7  1  0
 11 13  1  6
 11  5  1  0
 11  9  1  0
 15 20  1  0
 16 17  1  0
 16 15  1  0
 18 17  1  0
 18 25  1  0
 18 19  1  0
 20 14  1  0
 20 19  1  0
 21 14  2  0
 22 23  2  0
 23 42  1  0
 24 23  1  0
 24 27  1  0
 25 26  1  0
 25 22  1  0
 26 24  2  0
 27 28  1  0
 28 29  2  0
 30 33  1  0
 30 29  1  0
 31 30  2  0
 32 31  1  0
 32 27  2  0
 33 34  1  0
 34 39  2  0
 34 35  1  0
 35 36  2  0
 36 37  1  0
 37 41  1  0
 38 37  2  0
 39 38  1  0
 40 39  1  0
 42 43  1  0
 43 46  1  0
 43 45  1  0
 44 42  2  0
 47 48  1  0
 47 22  1  0
 49 47  1  0
 50 51  1  0
 50  2  1  0
 52 53  1  0
 52 51  1  0
 53 55  1  0
 54 65  2  0
 55 60  1  0
 56 64  1  0
 56 66  1  0
 57 63  1  0
 57 59  1  0
 58 64  1  0
 59 58  1  0
 60 59  2  0
 61 62  1  0
 61 55  2  0
 62 57  2  0
 63 56  1  0
 64 54  1  0
 66 68  2  0
 67 66  1  0
 69 67  1  0
 70 79  2  0
 70 75  1  0
 71 67  1  0
 71 75  1  0
 72 71  1  0
 73 74  1  0
 73 72  1  0
 74 70  1  0
 75 76  2  0
 76 77  1  0
 78 77  2  0
 79 78  1  0
 80 54  1  0
 80 85  1  0
 80 81  1  0
 81 84  1  1
 81 82  1  0
 83 81  1  0
 85 88  1  0
 86 90  1  0
 86 85  1  0
 87 86  2  0
 90 89  1  0
 92 90  1  0
 92 93  1  0
 92 91  1  0
M  ISO  4  10 100  14 100  52 101  53 101
M  END
>  <TORSDO>  (94) 
F 20

>  <SCORE>  (94) 
-12.680

>  <name>  (94) 
93

>  <ligand_id>  (94) 
93

>  <original_smiles>  (94) 
[H]c1c([H])c([H])c2c(c1[H])C([H])([H])C([H])([H])C([H])([H])C2([H])N([H])C(=O)C1([H])N(C(=O)C([H])(N([H])C(=O)C([H])(N([H])C([H])([H])[H])C([H])([H])[H])C(C([H])([H])[H])(C([H])([H])[H])C([H])([H])[H])C([H])([H])c2c([H])c(OC([H])([H])C([H])([H])C([H])([H])c3nnn(C4(C([H])([H])[H])C([H])([H])C([H])([H])C(C(=O)N5C([H])([H])C([H])([H])C([H])([H])C([H])(n6nc(-c7c([H])c([H])c(Oc8c([H])c([H])c(F)c([H])c8F)c([H])c7[H])c(C(=O)N([H])[H])c6N([H])[H])C5([H])[H])(C([H])([H])[H])C([H])([H])C4([H])[H])c3[H])c([H])c([H])c2C1([H])[H]

>  <smiles>  (94) 
[H]c1c([H])c([H])c2c(c1[H])C([H])([H])C([H])([H])C([H])([H])C2([H])N([H])C(=O)C1([H])N(C(=O)C([H])(N([H])C(=O)C([H])(N([H])C([H])([H])[H])C([H])([H])[H])C(C([H])([H])[H])(C([H])([H])[H])C([H])([H])[H])C([H])([H])c2c([H])c(OC([H])([H])C([H])([H])C([H])([H])c3nnn(C4(C([H])([H])[H])C([H])([H])C([H])([H])C(C(=O)N5C([H])([H])C([H])([H])C([H])([H])C([H])(n6nc(-c7c([H])c([H])c(Oc8c([H])c([H])c(F)c([H])c8F)c([H])c7[H])c(C(=O)N([H])[H])c6N([H])[H])C5([H])[H])(C([H])([H])[H])C([H])([H])C4([H])[H])c3[H])c([H])c([H])c2C1([H])[H]

$$$$
94:0:0
     RDKit          3D

 93101  0  0  1  0  0  0  0  0999 V2000
  -30.7530  -19.3550   21.0580 C   0  0  0  0  0  3  0  0  0  0  0  0
  -28.3640  -19.8750   19.7270 C   0  0  0  0  0  3  0  0  0  0  0  0
  -30.1780  -20.6450   21.1400 C   0  0  0  0  0  0  0  0  0  0  0  0
  -28.9570  -20.9190   20.4720 C   0  0  0  0  0  0  0  0  0  0  0  0
  -28.9240  -18.5750   19.6690 C   0  0  0  0  0  0  0  0  0  0  0  0
  -30.1410  -18.2930   20.3540 C   0  0  0  0  0  0  0  0  0  0  0  0
  -30.8990  -21.6870   21.9770 C   0  0  0  0  0  1  0  0  0  0  0  0
  -27.1780  -16.7490   19.7720 C   0  0  0  0  0  1  0  0  0  0  0  0
  -28.1560  -17.5280   18.8870 C   0  0  0  0  0  2  0  0  0  0  0  0
  -28.1830  -22.2420   20.6250 C   0  0  0  0  0  2  0  0  0  0  0  0
  -28.4000  -23.3540   19.5570 C   0  0  0  0  0  2  0  0  0  0  0  0
  -29.4010  -24.4680   19.9480 C   0  0  0  0  0  2  0  0  0  0  0  0
  -29.1960  -25.8430   19.2540 C   0  0  0  0  0  2  0  0  0  0  0  0
  -28.8080  -26.8810   20.1760 O   0  0  0  0  0  0  0  0  0  0  0  0
  -24.6330  -31.7500   23.2470 C   0  0  0  0  0  0  0  0  0  0  0  0
  -27.5890  -27.5330   20.1030 C   0  0  0  0  0  0  0  0  0  0  0  0
  -23.5640  -30.3960   21.4760 C   0  0  0  0  0  3  0  0  0  0  0  0
  -25.1410  -28.9740   20.0600 C   0  0  0  0  0  0  0  0  0  0  0  0
  -26.0840  -30.8350   21.4380 C   0  0  0  0  0  2  0  0  0  0  0  0
  -26.2470  -29.5000   20.7350 C   0  0  0  0  0  0  0  0  0  0  0  0
  -27.4680  -28.7840   20.7570 C   0  0  0  0  0  3  0  0  0  0  0  0
  -26.4520  -27.0180   19.4350 C   0  0  0  0  0  3  0  0  0  0  0  0
  -25.2390  -27.7330   19.4100 C   0  0  0  0  0  3  0  0  0  0  0  0
  -23.8710  -29.7940   20.0780 C   0  0  0  0  0  2  0  0  0  0  0  0
  -24.7750  -31.0050   22.1130 N   0  0  0  0  0  0  0  0  0  0  0  0
  -23.5160  -31.9630   23.7380 O   0  0  0  0  0  0  0  0  0  0  0  0
  -22.8970  -29.3090   22.3480 C   0  0  0  0  0  0  0  0  0  0  0  0
  -21.5680  -29.1650   22.2160 N   0  0  0  0  0  0  0  0  0  0  0  0
  -23.5720  -28.6010   23.1000 O   0  0  0  0  0  0  0  0  0  0  0  0
  -21.0880  -29.7870   21.5810 H   0  0  0  0  0  0  0  0  0  0  0  0
  -18.1670  -28.0460   22.6930 C   0  0  0  0  0  0  0  0  0  0  0  0
  -20.7380  -28.1820   22.9120 C   0  0  0  0  0  3  0  0  0  0  0  0
  -20.7700  -26.8160   22.1910 C   0  0  0  0  0  2  0  0  0  0  0  0
  -19.6320  -26.6370   21.1820 C   0  0  0  0  0  2  0  0  0  0  0  0
  -18.2720  -26.7710   21.8730 C   0  0  0  0  0  2  0  0  0  0  0  0
  -19.3260  -28.7160   23.1660 C   0  0  0  0  0  0  0  0  0  0  0  0
  -19.1760  -29.9200   23.8890 C   0  0  0  0  0  3  0  0  0  0  0  0
  -17.8980  -30.4500   24.1450 C   0  0  0  0  0  3  0  0  0  0  0  0
  -16.7530  -29.7730   23.6890 C   0  0  0  0  0  3  0  0  0  0  0  0
  -16.8880  -28.5730   22.9680 C   0  0  0  0  0  3  0  0  0  0  0  0
  -25.8630  -32.3890   23.9650 C   0  0  0  0  0  3  0  0  0  0  0  0
  -25.5210  -33.7860   24.2670 N   0  0  0  0  0  0  0  0  0  0  0  0
  -25.9050  -34.8380   23.5320 C   0  0  0  0  0  0  0  0  0  0  0  0
  -26.6540  -34.7370   22.5560 O   0  0  0  0  0  0  0  0  0  0  0  0
  -24.8680  -33.9390   25.0210 H   0  0  0  0  0  0  0  0  0  0  0  0
  -24.1990  -36.6180   23.0410 C   0  0  0  0  0  1  0  0  0  0  0  0
  -25.3750  -36.2240   23.9470 C   0  0  0  0  0  3  0  0  0  0  0  0
  -27.4290  -37.1300   24.9400 C   0  0  0  0  0  1  0  0  0  0  0  0
  -26.4060  -37.2840   23.9100 N   0  0  0  0  0  0  0  0  0  0  0  0
  -25.9820  -38.2000   24.0200 H   0  0  0  0  0  0  0  0  0  0  0  0
  -26.2880  -31.6220   25.2770 C   0  0  1  0  0  0  0  0  0  0  0  0
  -25.1240  -31.3960   26.2680 C   0  0  0  0  0  1  0  0  0  0  0  0
  -26.8910  -30.2410   24.9310 C   0  0  0  0  0  1  0  0  0  0  0  0
  -27.3920  -32.4160   26.0140 C   0  0  0  0  0  1  0  0  0  0  0  0
  -30.8720  -16.9300   20.4340 C   0  0  0  0  0  2  0  0  0  0  0  0
  -31.0040  -14.4960   19.9730 C   0  0  0  0  0  0  0  0  0  0  0  0
  -30.6730  -12.2530   19.0030 C   0  0  0  0  0  2  0  0  0  0  0  0
  -29.6590  -12.3430   17.8450 C   0  0  0  0  0  2  0  0  0  0  0  0
  -28.2150  -12.2180   18.3720 C   0  0  0  0  0  2  0  0  0  0  0  0
  -27.9340  -13.1450   19.5850 C   0  0  0  0  0  3  0  0  0  0  0  0
  -29.0570  -13.0370   20.6400 C   0  0  0  0  0  2  0  0  0  0  0  0
  -30.3380  -13.3110   19.9700 N   0  0  0  0  0  0  0  0  0  0  0  0
  -32.0940  -14.6510   19.4140 O   0  0  0  0  0  0  0  0  0  0  0  0
  -30.3460  -15.5550   20.4850 N   0  0  0  0  0  0  0  0  0  0  0  0
  -29.4410  -15.4000   20.9010 H   0  0  0  0  0  0  0  0  0  0  0  0
  -25.6210  -13.7710   20.5270 C   0  0  0  0  0  0  0  0  0  0  0  0
  -24.5680  -13.0110   20.9550 C   0  0  0  0  0  0  0  0  0  0  0  0
  -24.9800  -11.6520   20.8070 C   0  0  0  0  0  0  0  0  0  0  0  0
  -26.6180  -12.8800   20.1650 N   0  0  0  0  0  0  0  0  0  0  0  0
  -26.2380  -11.5940   20.3850 N   0  0  0  0  0  0  0  0  0  0  0  0
  -24.2290  -10.4040   20.9840 C   0  0  0  0  0  0  0  0  0  0  0  0
  -24.6360   -9.4240   21.9150 C   0  0  0  0  0  3  0  0  0  0  0  0
  -23.8850   -8.2400   22.0800 C   0  0  0  0  0  3  0  0  0  0  0  0
  -22.7140   -8.0300   21.3150 C   0  0  0  0  0  0  0  0  0  0  0  0
  -22.3270   -8.9990   20.3730 C   0  0  0  0  0  3  0  0  0  0  0  0
  -23.0780  -10.1740   20.2060 C   0  0  0  0  0  3  0  0  0  0  0  0
  -21.9360   -6.9000   21.3910 O   0  0  0  0  0  0  0  0  0  0  0  0
  -21.7600   -6.2260   22.5730 C   0  0  0  0  0  0  0  0  0  0  0  0
  -21.1950   -6.8480   23.7080 C   0  0  0  0  0  3  0  0  0  0  0  0
  -20.9700   -6.1010   24.8810 C   0  0  0  0  0  3  0  0  0  0  0  0
  -21.2970   -4.7320   24.9180 C   0  0  0  0  0  0  0  0  0  0  0  0
  -21.8530   -4.1100   23.7860 C   0  0  0  0  0  3  0  0  0  0  0  0
  -22.0800   -4.8550   22.6170 C   0  0  0  0  0  0  0  0  0  0  0  0
  -22.5980   -4.2460   21.5230 F   0  0  0  0  0  0  0  0  0  0  0  0
  -21.0720   -4.0110   26.0410 F   0  0  0  0  0  0  0  0  0  0  0  0
  -23.2180  -13.5140   21.3780 C   0  0  0  0  0  0  0  0  0  0  0  0
  -22.5500  -12.7970   22.2740 N   0  0  0  0  0  0  0  0  0  0  0  0
  -22.7700  -14.5780   20.9510 O   0  0  0  0  0  0  0  0  0  0  0  0
  -22.9270  -11.9340   22.6390 H   0  0  0  0  0  0  0  0  0  0  0  0
  -21.6480  -13.1130   22.6000 H   0  0  0  0  0  0  0  0  0  0  0  0
  -25.7950  -15.1400   20.3890 N   0  0  0  0  0  0  0  0  0  0  0  0
  -25.0450  -15.7920   20.5860 H   0  0  0  0  0  0  0  0  0  0  0  0
  -26.5910  -15.5700   19.9390 H   0  0  0  0  0  0  0  0  0  0  0  0
  1  3  1  0
  2  4  1  0
  3  7  1  0
  4 10  1  0
  4  3  2  0
  5  2  2  0
  5  6  1  0
  6 55  1  0
  6  1  2  0
  9  5  1  0
  9  8  1  0
 11 12  1  0
 11 10  1  0
 13 12  1  0
 13 14  1  0
 15 26  2  0
 16 14  1  0
 16 21  1  0
 17 25  1  0
 17 27  1  0
 18 24  1  0
 18 20  1  0
 19 25  1  0
 20 21  2  0
 20 19  1  0
 22 16  2  0
 23 22  1  0
 23 18  2  0
 24 17  1  0
 25 15  1  0
 27 29  2  0
 28 27  1  0
 30 28  1  0
 31 40  2  0
 31 36  1  0
 32 28  1  0
 32 36  1  0
 33 32  1  0
 34 35  1  0
 34 33  1  0
 35 31  1  0
 36 37  2  0
 37 38  1  0
 39 38  2  0
 40 39  1  0
 41 15  1  0
 41 42  1  0
 41 51  1  0
 42 45  1  0
 43 47  1  0
 43 42  1  0
 44 43  2  0
 47 46  1  0
 49 47  1  0
 49 50  1  0
 49 48  1  0
 51 54  1  1
 51 52  1  0
 53 51  1  0
 55 64  1  0
 56 64  1  0
 57 62  1  0
 58 59  1  0
 58 57  1  0
 60 59  1  0
 60 69  1  0
 60 61  1  0
 62 56  1  0
 62 61  1  0
 63 56  2  0
 64 65  1  0
 66 67  2  0
 67 86  1  0
 68 67  1  0
 68 71  1  0
 69 70  1  0
 69 66  1  0
 70 68  2  0
 71 72  1  0
 72 73  2  0
 74 77  1  0
 74 73  1  0
 75 74  2  0
 76 75  1  0
 76 71  2  0
 77 78  1  0
 78 83  2  0
 78 79  1  0
 79 80  2  0
 80 81  1  0
 81 85  1  0
 82 81  2  0
 83 82  1  0
 84 83  1  0
 86 87  1  0
 87 90  1  0
 87 89  1  0
 88 86  2  0
 91 66  1  0
 91 92  1  0
 93 91  1  0
M  ISO  4  13 101  14 101  56 100  64 100
M  END
>  <TORSDO>  (95) 
F 22

>  <SCORE>  (95) 
-13.178

>  <name>  (95) 
94

>  <ligand_id>  (95) 
94

>  <original_smiles>  (95) 
[H]c1c([H])c([H])c2c(c1[H])C([H])([H])C([H])([H])C([H])([H])C2([H])N([H])C(=O)C1([H])N(C(=O)C([H])(N([H])C(=O)C([H])(N([H])C([H])([H])[H])C([H])([H])[H])C(C([H])([H])[H])(C([H])([H])[H])C([H])([H])[H])C([H])([H])c2c([H])c(OC([H])([H])C([H])([H])C([H])([H])C([H])([H])c3c([H])c(C([H])([H])C([H])([H])[H])c(C([H])([H])N([H])C(=O)N4C([H])([H])C([H])([H])C([H])([H])C([H])(n5nc(-c6c([H])c([H])c(Oc7c([H])c([H])c(F)c([H])c7F)c([H])c6[H])c(C(=O)N([H])[H])c5N([H])[H])C4([H])[H])c([H])c3C([H])([H])[H])c([H])c([H])c2C1([H])[H]

>  <smiles>  (95) 
[H]c1c([H])c([H])c2c(c1[H])C([H])([H])C([H])([H])C([H])([H])C2([H])N([H])C(=O)C1([H])N(C(=O)C([H])(N([H])C(=O)C([H])(N([H])C([H])([H])[H])C([H])([H])[H])C(C([H])([H])[H])(C([H])([H])[H])C([H])([H])[H])C([H])([H])c2c([H])c(OC([H])([H])C([H])([H])C([H])([H])C([H])([H])c3c([H])c(C([H])([H])C([H])([H])[H])c(C([H])([H])N([H])C(=O)N4C([H])([H])C([H])([H])C([H])([H])C([H])(n5nc(-c6c([H])c([H])c(Oc7c([H])c([H])c(F)c([H])c7F)c([H])c6[H])c(C(=O)N([H])[H])c5N([H])[H])C4([H])[H])c([H])c3C([H])([H])[H])c([H])c([H])c2C1([H])[H]

$$$$
