0:0:0
     RDKit          3D

 91100  0  0  1  0  0  0  0  0999 V2000
  -29.7490  -20.0100   18.6950 C   0  0  0  0  0  3  0  0  0  0  0  0
  -28.8390  -21.1760   20.6090 C   0  0  0  0  0  3  0  0  0  0  0  0
  -29.6810  -21.2830   18.0540 C   0  0  0  0  0  0  0  0  0  0  0  0
  -29.2180  -22.4840   18.6380 C   0  0  0  0  0  0  0  0  0  0  0  0
  -29.3570  -19.8160   20.0410 C   0  0  0  0  0  0  0  0  0  0  0  0
  -28.7240  -22.5920   19.9620 C   0  0  0  0  0  0  0  0  0  0  0  0
  -29.3140  -23.6290   17.6580 C   0  0  0  0  0  3  0  0  0  0  0  0
  -29.9570  -23.0330   16.3890 C   0  0  0  0  0  3  0  0  0  0  0  0
  -30.1350  -21.5160   16.6310 C   0  0  0  0  0  3  0  0  0  0  0  0
  -29.1400  -20.5820   15.4780 Cl  0  0  0  0  0  0  0  0  0  0  0  0
  -29.7270  -18.2310   20.7430 C   0  0  0  0  0  2  0  0  0  0  0  0
  -30.3430  -15.3030   20.3510 C   0  0  0  0  0  0  0  0  0  0  0  0
  -30.3530  -12.8420   19.4750 C   0  0  0  0  0  2  0  0  0  0  0  0
  -29.4540  -12.5820   18.2400 C   0  0  0  0  0  2  0  0  0  0  0  0
  -28.0030  -12.3020   18.6720 C   0  0  0  0  0  2  0  0  0  0  0  0
  -27.5220  -13.2760   19.7780 C   0  0  0  0  0  3  0  0  0  0  0  0
  -28.5590  -13.4610   20.9040 C   0  0  0  0  0  2  0  0  0  0  0  0
  -29.7770  -13.9940   20.2640 N   0  0  0  0  0  0  0  0  0  0  0  0
  -31.5770  -15.2860   20.2500 O   0  0  0  0  0  0  0  0  0  0  0  0
  -29.5750  -16.5900   20.3470 N   0  0  0  0  0  0  0  0  0  0  0  0
  -28.6000  -16.3640   20.2180 H   0  0  0  0  0  0  0  0  0  0  0  0
  -25.1430  -13.8200   20.5090 C   0  0  0  0  0  0  0  0  0  0  0  0
  -24.0820  -13.0370   20.8720 C   0  0  0  0  0  0  0  0  0  0  0  0
  -24.5590  -11.6900   20.8530 C   0  0  0  0  0  0  0  0  0  0  0  0
  -26.1930  -12.9500   20.2800 N   0  0  0  0  0  0  0  0  0  0  0  0
  -25.8560  -11.6630   20.5600 N   0  0  0  0  0  0  0  0  0  0  0  0
  -23.8390  -10.4230   21.0390 C   0  0  0  0  0  0  0  0  0  0  0  0
  -24.2580   -9.4650   21.9880 C   0  0  0  0  0  3  0  0  0  0  0  0
  -23.5340   -8.2670   22.1620 C   0  0  0  0  0  3  0  0  0  0  0  0
  -22.3760   -8.0180   21.3880 C   0  0  0  0  0  0  0  0  0  0  0  0
  -21.9760   -8.9650   20.4300 C   0  0  0  0  0  3  0  0  0  0  0  0
  -22.7010  -10.1550   20.2520 C   0  0  0  0  0  3  0  0  0  0  0  0
  -21.6230   -6.8710   21.4730 O   0  0  0  0  0  0  0  0  0  0  0  0
  -21.5550   -6.1370   22.6300 C   0  0  0  0  0  0  0  0  0  0  0  0
  -21.0950   -6.6970   23.8420 C   0  0  0  0  0  3  0  0  0  0  0  0
  -20.9770   -5.8890   24.9910 C   0  0  0  0  0  3  0  0  0  0  0  0
  -21.3030   -4.5210   24.9260 C   0  0  0  0  0  0  0  0  0  0  0  0
  -21.7550   -3.9600   23.7190 C   0  0  0  0  0  3  0  0  0  0  0  0
  -21.8790   -4.7660   22.5740 C   0  0  0  0  0  0  0  0  0  0  0  0
  -22.2940   -4.2150   21.4080 F   0  0  0  0  0  0  0  0  0  0  0  0
  -21.1830   -3.7440   26.0290 F   0  0  0  0  0  0  0  0  0  0  0  0
  -22.6770  -13.5070   21.1150 C   0  0  0  0  0  0  0  0  0  0  0  0
  -21.9330  -12.8110   21.9680 N   0  0  0  0  0  0  0  0  0  0  0  0
  -22.2440  -14.5280   20.5830 O   0  0  0  0  0  0  0  0  0  0  0  0
  -22.2950  -11.9900   22.4300 H   0  0  0  0  0  0  0  0  0  0  0  0
  -20.9880  -13.1080   22.1630 H   0  0  0  0  0  0  0  0  0  0  0  0
  -25.2930  -15.1910   20.3230 N   0  0  0  0  0  0  0  0  0  0  0  0
  -24.5120  -15.8320   20.4130 H   0  0  0  0  0  0  0  0  0  0  0  0
  -26.1250  -15.6340   19.9560 H   0  0  0  0  0  0  0  0  0  0  0  0
  -27.9810  -24.1220   20.4730 C   0  0  0  0  0  2  0  0  0  0  0  0
  -28.2060  -25.7500   20.1630 O   0  0  0  0  0  0  0  0  0  0  0  0
  -24.5970  -31.8000   23.1400 C   0  0  0  0  0  0  0  0  0  0  0  0
  -27.1860  -26.8590   20.1840 C   0  0  0  0  0  0  0  0  0  0  0  0
  -23.4240  -30.3940   21.4980 C   0  0  0  0  0  3  0  0  0  0  0  0
  -24.8860  -28.7650   20.1130 C   0  0  0  0  0  0  0  0  0  0  0  0
  -25.9940  -30.5860   21.3850 C   0  0  0  0  0  2  0  0  0  0  0  0
  -26.0720  -29.1650   20.7420 C   0  0  0  0  0  0  0  0  0  0  0  0
  -27.2160  -28.2380   20.7470 C   0  0  0  0  0  3  0  0  0  0  0  0
  -25.9640  -26.6180   19.5200 C   0  0  0  0  0  3  0  0  0  0  0  0
  -24.8590  -27.5110   19.4820 C   0  0  0  0  0  3  0  0  0  0  0  0
  -23.6720  -29.6950   20.1330 C   0  0  0  0  0  2  0  0  0  0  0  0
  -24.6940  -30.9550   22.0630 N   0  0  0  0  0  0  0  0  0  0  0  0
  -23.5020  -32.0980   23.6460 O   0  0  0  0  0  0  0  0  0  0  0  0
  -22.7080  -29.4130   22.4650 C   0  0  0  0  0  0  0  0  0  0  0  0
  -21.3760  -29.2630   22.3320 N   0  0  0  0  0  0  0  0  0  0  0  0
  -23.3590  -28.7830   23.3000 O   0  0  0  0  0  0  0  0  0  0  0  0
  -20.9010  -29.8200   21.6350 H   0  0  0  0  0  0  0  0  0  0  0  0
  -17.9780  -28.0910   22.8380 C   0  0  0  0  0  0  0  0  0  0  0  0
  -20.5410  -28.3330   23.1000 C   0  0  0  0  0  3  0  0  0  0  0  0
  -20.6290  -26.9010   22.5240 C   0  0  0  0  0  2  0  0  0  0  0  0
  -19.5240  -26.5920   21.5080 C   0  0  0  0  0  2  0  0  0  0  0  0
  -18.1430  -26.7440   22.1540 C   0  0  0  0  0  2  0  0  0  0  0  0
  -19.1050  -28.8430   23.2690 C   0  0  0  0  0  0  0  0  0  0  0  0
  -18.8950  -30.1020   23.8730 C   0  0  0  0  0  3  0  0  0  0  0  0
  -17.5950  -30.6100   24.0480 C   0  0  0  0  0  3  0  0  0  0  0  0
  -16.4840  -29.8570   23.6310 C   0  0  0  0  0  3  0  0  0  0  0  0
  -16.6760  -28.5980   23.0340 C   0  0  0  0  0  3  0  0  0  0  0  0
  -25.8600  -32.4470   23.7860 C   0  0  0  0  0  3  0  0  0  0  0  0
  -25.5380  -33.8460   24.1180 N   0  0  0  0  0  0  0  0  0  0  0  0
  -25.8900  -34.9100   23.3840 C   0  0  0  0  0  0  0  0  0  0  0  0
  -26.5810  -34.8160   22.3660 O   0  0  0  0  0  0  0  0  0  0  0  0
  -24.9250  -33.9900   24.9060 H   0  0  0  0  0  0  0  0  0  0  0  0
  -24.1850  -36.7290   23.0150 C   0  0  0  0  0  1  0  0  0  0  0  0
  -25.4010  -36.2980   23.8490 C   0  0  0  0  0  3  0  0  0  0  0  0
  -27.5170  -37.1630   24.7480 C   0  0  0  0  0  1  0  0  0  0  0  0
  -26.4420  -37.3470   23.7770 N   0  0  0  0  0  0  0  0  0  0  0  0
  -26.0380  -38.2680   23.9210 H   0  0  0  0  0  0  0  0  0  0  0  0
  -26.3500  -31.6840   25.0790 C   0  0  1  0  0  0  0  0  0  0  0  0
  -25.2390  -31.4620   26.1320 C   0  0  0  0  0  1  0  0  0  0  0  0
  -26.9370  -30.3000   24.7220 C   0  0  0  0  0  1  0  0  0  0  0  0
  -27.4910  -32.4810   25.7550 C   0  0  0  0  0  1  0  0  0  0  0  0
  1  5  1  0
  3  4  1  0
  3  1  2  0
  4  6  2  0
  5  2  2  0
  5 11  1  0
  6 50  1  0
  6  2  1  0
  7  4  1  0
  8  9  1  0
  8  7  2  0
  9 10  1  0
  9  3  1  0
 13 18  1  0
 14 15  1  0
 14 13  1  0
 16 15  1  0
 16 25  1  0
 16 17  1  0
 18 12  1  0
 18 17  1  0
 19 12  2  0
 20 12  1  0
 20 11  1  0
 21 20  1  0
 22 23  2  0
 23 42  1  0
 24 23  1  0
 24 27  1  0
 25 22  1  0
 25 26  1  0
 26 24  2  0
 27 28  1  0
 28 29  2  0
 30 33  1  0
 30 29  1  0
 31 30  2  0
 32 31  1  0
 32 27  2  0
 33 34  1  0
 34 35  1  0
 35 36  2  0
 37 36  1  0
 37 41  1  0
 38 37  2  0
 39 34  2  0
 39 38  1  0
 40 39  1  0
 42 43  1  0
 43 46  1  0
 43 45  1  0
 44 42  2  0
 47 48  1  0
 47 22  1  0
 49 47  1  0
 51 53  1  0
 51 50  1  0
 52 63  2  0
 53 58  1  0
 54 62  1  0
 54 64  1  0
 55 61  1  0
 55 57  1  0
 56 62  1  0
 57 58  2  0
 57 56  1  0
 59 53  2  0
 60 59  1  0
 60 55  2  0
 61 54  1  0
 62 52  1  0
 64 66  2  0
 65 64  1  0
 67 65  1  0
 68 77  2  0
 68 73  1  0
 69 65  1  0
 69 73  1  0
 70 69  1  0
 71 72  1  0
 71 70  1  0
 72 68  1  0
 73 74  2  0
 74 75  1  0
 76 75  2  0
 77 76  1  0
 78 52  1  0
 78 79  1  0
 78 88  1  0
 79 82  1  0
 80 84  1  0
 80 79  1  0
 81 80  2  0
 84 83  1  0
 86 84  1  0
 86 87  1  0
 86 85  1  0
 88 91  1  1
 88 89  1  0
 90 88  1  0
M  ISO  4  12 100  20 100  50 101  51 101
M  END
>  <TORSDO>  (1) 
F 18

>  <SCORE>  (1) 
-16.320

>  <name>  (1) 
0

>  <ligand_id>  (1) 
0

>  <original_smiles>  (1) 
[H]c1c([H])c([H])c2c(c1[H])C([H])([H])C([H])([H])C([H])([H])C2([H])N([H])C(=O)C1([H])N(C(=O)C([H])(N([H])C(=O)C([H])(N([H])C([H])([H])[H])C([H])([H])[H])C(C([H])([H])[H])(C([H])([H])[H])C([H])([H])[H])C([H])([H])c2c([H])c(OC([H])([H])c3c([H])c(C([H])([H])N([H])C(=O)N4C([H])([H])C([H])([H])C([H])([H])C([H])(n5nc(-c6c([H])c([H])c(Oc7c([H])c([H])c(F)c([H])c7F)c([H])c6[H])c(C(=O)N([H])[H])c5N([H])[H])C4([H])[H])c([H])c4c3C([H])([H])C([H])([H])C4([H])Cl)c([H])c([H])c2C1([H])[H]

>  <smiles>  (1) 
[H]c1c([H])c([H])c2c(c1[H])C([H])([H])C([H])([H])C([H])([H])C2([H])N([H])C(=O)C1([H])N(C(=O)C([H])(N([H])C(=O)C([H])(N([H])C([H])([H])[H])C([H])([H])[H])C(C([H])([H])[H])(C([H])([H])[H])C([H])([H])[H])C([H])([H])c2c([H])c(OC([H])([H])c3c([H])c(C([H])([H])N([H])C(=O)N4C([H])([H])C([H])([H])C([H])([H])C([H])(n5nc(-c6c([H])c([H])c(Oc7c([H])c([H])c(F)c([H])c7F)c([H])c6[H])c(C(=O)N([H])[H])c5N([H])[H])C4([H])[H])c([H])c4c3C([H])([H])C([H])([H])C4([H])Cl)c([H])c([H])c2C1([H])[H]

$$$$
1:0:0
     RDKit          3D

 91 99  0  0  1  0  0  0  0  0999 V2000
  -29.1390  -19.8510   20.6610 C   0  0  0  0  0  3  0  0  0  0  0  0
  -30.5140  -20.0020   18.7480 C   0  0  0  0  0  3  0  0  0  0  0  0
  -30.0290  -19.1450   19.7860 C   0  0  0  0  0  0  0  0  0  0  0  0
  -28.8380  -21.2740   20.5420 C   0  0  0  0  0  0  0  0  0  0  0  0
  -29.4070  -22.1410   19.5330 C   0  0  0  0  0  0  0  0  0  0  0  0
  -30.2300  -21.4100   18.6190 C   0  0  0  0  0  0  0  0  0  0  0  0
  -31.0070  -22.2500   17.3230 Cl  0  0  0  0  0  0  0  0  0  0  0  0
  -28.6710  -22.5650   22.7190 C   0  0  0  0  0  1  0  0  0  0  0  0
  -27.9080  -21.8720   21.5840 C   0  0  0  0  0  2  0  0  0  0  0  0
  -29.4020  -23.7840   19.5710 C   0  0  0  0  0  3  0  0  0  0  0  0
  -28.2860  -24.8510   18.9860 C   0  0  0  0  0  3  0  0  0  0  0  0
  -28.4020  -26.3720   19.1920 O   0  0  0  0  0  0  0  0  0  0  0  0
  -24.5760  -31.4340   22.8400 C   0  0  0  0  0  0  0  0  0  0  0  0
  -27.2640  -27.2390   19.2520 C   0  0  0  0  0  0  0  0  0  0  0  0
  -23.3680  -30.1050   21.1500 C   0  0  0  0  0  3  0  0  0  0  0  0
  -24.8240  -28.7720   19.5080 C   0  0  0  0  0  0  0  0  0  0  0  0
  -25.8800  -30.5760   20.8650 C   0  0  0  0  0  2  0  0  0  0  0  0
  -26.0010  -29.2580   20.0880 C   0  0  0  0  0  0  0  0  0  0  0  0
  -27.2210  -28.5050   19.9480 C   0  0  0  0  0  3  0  0  0  0  0  0
  -26.0560  -26.8460   18.6360 C   0  0  0  0  0  3  0  0  0  0  0  0
  -24.8580  -27.5800   18.7680 C   0  0  0  0  0  3  0  0  0  0  0  0
  -23.5450  -29.5680   19.7040 C   0  0  0  0  0  2  0  0  0  0  0  0
  -24.6300  -30.7240   21.6740 N   0  0  0  0  0  0  0  0  0  0  0  0
  -23.5090  -31.5930   23.4520 O   0  0  0  0  0  0  0  0  0  0  0  0
  -22.8210  -28.9720   22.0530 C   0  0  0  0  0  0  0  0  0  0  0  0
  -21.5080  -28.6980   21.9630 N   0  0  0  0  0  0  0  0  0  0  0  0
  -23.5780  -28.3430   22.7980 O   0  0  0  0  0  0  0  0  0  0  0  0
  -20.9470  -29.2630   21.3410 H   0  0  0  0  0  0  0  0  0  0  0  0
  -18.2710  -27.1490   22.4500 C   0  0  0  0  0  0  0  0  0  0  0  0
  -20.7990  -27.6390   22.6870 C   0  0  0  0  0  3  0  0  0  0  0  0
  -21.0220  -26.2620   22.0190 C   0  0  0  0  0  2  0  0  0  0  0  0
  -19.9320  -25.8980   21.0070 C   0  0  0  0  0  2  0  0  0  0  0  0
  -18.5590  -25.8690   21.6840 C   0  0  0  0  0  2  0  0  0  0  0  0
  -19.3220  -27.9880   22.9060 C   0  0  0  0  0  0  0  0  0  0  0  0
  -18.9970  -29.1830   23.5850 C   0  0  0  0  0  3  0  0  0  0  0  0
  -17.6550  -29.5430   23.8090 C   0  0  0  0  0  3  0  0  0  0  0  0
  -16.6190  -28.7020   23.3660 C   0  0  0  0  0  3  0  0  0  0  0  0
  -16.9280  -27.5060   22.6920 C   0  0  0  0  0  3  0  0  0  0  0  0
  -25.8480  -32.0990   23.4500 C   0  0  0  0  0  3  0  0  0  0  0  0
  -26.4880  -31.2570   24.6230 C   0  0  1  0  0  0  0  0  0  0  0  0
  -25.4790  -30.8630   25.7280 C   0  0  0  0  0  1  0  0  0  0  0  0
  -27.1220  -29.9560   24.0810 C   0  0  0  0  0  1  0  0  0  0  0  0
  -27.6300  -32.0630   25.2840 C   0  0  0  0  0  1  0  0  0  0  0  0
  -25.4670  -33.4380   23.9280 N   0  0  0  0  0  0  0  0  0  0  0  0
  -25.6990  -34.5790   23.2670 C   0  0  0  0  0  0  0  0  0  0  0  0
  -26.3240  -34.6190   22.2040 O   0  0  0  0  0  0  0  0  0  0  0  0
  -24.9040  -33.4760   24.7650 H   0  0  0  0  0  0  0  0  0  0  0  0
  -23.8450  -36.2790   23.1770 C   0  0  0  0  0  1  0  0  0  0  0  0
  -25.1530  -35.8840   23.8810 C   0  0  0  0  0  3  0  0  0  0  0  0
  -27.2700  -36.8310   24.6910 C   0  0  0  0  0  1  0  0  0  0  0  0
  -26.1110  -37.0100   23.8210 N   0  0  0  0  0  0  0  0  0  0  0  0
  -25.6560  -37.8840   24.0730 H   0  0  0  0  0  0  0  0  0  0  0  0
  -30.6790  -17.6500   19.9370 C   0  0  0  0  0  2  0  0  0  0  0  0
  -30.7700  -15.0280   20.1420 C   0  0  0  0  0  0  0  0  0  0  0  0
  -30.5640  -12.6560   19.3300 C   0  0  0  0  0  2  0  0  0  0  0  0
  -29.6420  -12.6020   18.0930 C   0  0  0  0  0  2  0  0  0  0  0  0
  -28.1690  -12.4600   18.5220 C   0  0  0  0  0  2  0  0  0  0  0  0
  -27.7800  -13.4390   19.6610 C   0  0  0  0  0  3  0  0  0  0  0  0
  -28.8320  -13.4800   20.7900 C   0  0  0  0  0  2  0  0  0  0  0  0
  -30.1190  -13.8040   20.1650 N   0  0  0  0  0  0  0  0  0  0  0  0
  -31.9730  -15.0350   19.8630 O   0  0  0  0  0  0  0  0  0  0  0  0
  -30.0680  -16.2480   20.2030 N   0  0  0  0  0  0  0  0  0  0  0  0
  -29.0750  -16.2020   20.3770 H   0  0  0  0  0  0  0  0  0  0  0  0
  -25.4420  -14.0940   20.4710 C   0  0  0  0  0  0  0  0  0  0  0  0
  -24.3470  -13.3530   20.8240 C   0  0  0  0  0  0  0  0  0  0  0  0
  -24.7470  -11.9850   20.7200 C   0  0  0  0  0  0  0  0  0  0  0  0
  -26.4370  -13.1820   20.1700 N   0  0  0  0  0  0  0  0  0  0  0  0
  -26.0290  -11.9040   20.3840 N   0  0  0  0  0  0  0  0  0  0  0  0
  -23.9630  -10.7510   20.8620 C   0  0  0  0  0  0  0  0  0  0  0  0
  -24.3830   -9.7010   21.7080 C   0  0  0  0  0  3  0  0  0  0  0  0
  -23.6010   -8.5340   21.8440 C   0  0  0  0  0  3  0  0  0  0  0  0
  -22.3830   -8.4090   21.1340 C   0  0  0  0  0  0  0  0  0  0  0  0
  -21.9810   -9.4460   20.2740 C   0  0  0  0  0  3  0  0  0  0  0  0
  -22.7640  -10.6040   20.1360 C   0  0  0  0  0  3  0  0  0  0  0  0
  -21.5710   -7.3000   21.1830 O   0  0  0  0  0  0  0  0  0  0  0  0
  -21.5790   -6.4500   22.2590 C   0  0  0  0  0  0  0  0  0  0  0  0
  -21.2840   -6.8980   23.5650 C   0  0  0  0  0  3  0  0  0  0  0  0
  -21.2350   -5.9770   24.6310 C   0  0  0  0  0  3  0  0  0  0  0  0
  -21.4720   -4.6100   24.3930 C   0  0  0  0  0  0  0  0  0  0  0  0
  -21.7620   -4.1620   23.0930 C   0  0  0  0  0  3  0  0  0  0  0  0
  -21.8130   -5.0790   22.0290 C   0  0  0  0  0  0  0  0  0  0  0  0
  -22.0710   -4.6380   20.7740 F   0  0  0  0  0  0  0  0  0  0  0  0
  -21.4190   -3.7250   25.4160 F   0  0  0  0  0  0  0  0  0  0  0  0
  -22.9790  -13.8820   21.1410 C   0  0  0  0  0  0  0  0  0  0  0  0
  -22.2330  -13.1840   21.9890 N   0  0  0  0  0  0  0  0  0  0  0  0
  -22.5830  -14.9480   20.6720 O   0  0  0  0  0  0  0  0  0  0  0  0
  -22.5670  -12.3210   22.3900 H   0  0  0  0  0  0  0  0  0  0  0  0
  -21.3140  -13.5190   22.2420 H   0  0  0  0  0  0  0  0  0  0  0  0
  -25.6660  -15.4630   20.3560 N   0  0  0  0  0  0  0  0  0  0  0  0
  -24.9310  -16.1440   20.5160 H   0  0  0  0  0  0  0  0  0  0  0  0
  -26.5190  -15.8800   20.0040 H   0  0  0  0  0  0  0  0  0  0  0  0
  2  3  1  0
  3 53  1  0
  3  1  2  0
  4  1  1  0
  4  9  1  0
  5 10  1  0
  5  4  2  0
  6  2  2  0
  6  5  1  0
  7  6  1  0
  9  8  1  0
 11 12  1  0
 11 10  2  0
 12 14  1  0
 13 24  2  0
 14 19  1  0
 15 23  1  0
 15 25  1  0
 16 22  1  0
 16 18  1  0
 17 23  1  0
 18 17  1  0
 19 18  2  0
 20 21  1  0
 20 14  2  0
 21 16  2  0
 22 15  1  0
 23 13  1  0
 25 27  2  0
 26 25  1  0
 28 26  1  0
 29 38  2  0
 29 34  1  0
 30 26  1  0
 30 34  1  0
 31 30  1  0
 32 33  1  0
 32 31  1  0
 33 29  1  0
 34 35  2  0
 35 36  1  0
 37 36  2  0
 38 37  1  0
 39 13  1  0
 39 44  1  0
 39 40  1  0
 40 43  1  1
 40 41  1  0
 42 40  1  0
 44 47  1  0
 45 49  1  0
 45 44  1  0
 46 45  2  0
 49 48  1  0
 51 49  1  0
 51 52  1  0
 51 50  1  0
 53 62  1  0
 54 60  1  0
 54 62  1  0
 55 60  1  0
 56 57  1  0
 56 55  1  0
 58 57  1  0
 58 67  1  0
 58 59  1  0
 60 59  1  0
 61 54  2  0
 62 63  1  0
 64 65  2  0
 65 84  1  0
 66 65  1  0
 66 69  1  0
 67 68  1  0
 67 64  1  0
 68 66  2  0
 69 70  1  0
 70 71  2  0
 72 75  1  0
 72 71  1  0
 73 72  2  0
 74 73  1  0
 74 69  2  0
 75 76  1  0
 76 77  1  0
 77 78  2  0
 79 78  1  0
 79 83  1  0
 80 79  2  0
 81 76  2  0
 81 80  1  0
 82 81  1  0
 84 85  1  0
 85 88  1  0
 85 87  1  0
 86 84  2  0
 89 64  1  0
 89 90  1  0
 91 89  1  0
M  ISO  4  11 101  12 101  54 100  62 100
M  END
>  <TORSDO>  (2) 
F 20

>  <SCORE>  (2) 
-11.888

>  <name>  (2) 
1

>  <ligand_id>  (2) 
1

>  <original_smiles>  (2) 
[H]c1c([H])c([H])c2c(c1[H])C([H])([H])C([H])([H])C([H])([H])C2([H])N([H])C(=O)C1([H])N(C(=O)C([H])(N([H])C(=O)C([H])(N([H])C([H])([H])[H])C([H])([H])[H])C(C([H])([H])[H])(C([H])([H])[H])C([H])([H])[H])C([H])([H])c2c([H])c(OC([H])([H])C([H])([H])c3c(Cl)c([H])c(C([H])([H])N([H])C(=O)N4C([H])([H])C([H])([H])C([H])([H])C([H])(n5nc(-c6c([H])c([H])c(Oc7c([H])c([H])c(F)c([H])c7F)c([H])c6[H])c(C(=O)N([H])[H])c5N([H])[H])C4([H])[H])c([H])c3C([H])([H])C([H])([H])[H])c([H])c([H])c2C1([H])[H]

>  <smiles>  (2) 
[H]c1c([H])c([H])c2c(c1[H])C([H])([H])C([H])([H])C([H])([H])C2([H])N([H])C(=O)C1([H])N(C(=O)C([H])(N([H])C(=O)C([H])(N([H])C([H])([H])[H])C([H])([H])[H])C(C([H])([H])[H])(C([H])([H])[H])C([H])([H])[H])C([H])([H])c2c([H])c(OC([H])([H])C([H])([H])c3c(Cl)c([H])c(C([H])([H])N([H])C(=O)N4C([H])([H])C([H])([H])C([H])([H])C([H])(n5nc(-c6c([H])c([H])c(Oc7c([H])c([H])c(F)c([H])c7F)c([H])c6[H])c(C(=O)N([H])[H])c5N([H])[H])C4([H])[H])c([H])c3C([H])([H])C([H])([H])[H])c([H])c([H])c2C1([H])[H]

$$$$
2:0:0
     RDKit          3D

 89 97  0  0  1  0  0  0  0  0999 V2000
  -29.3930  -20.7150   21.4240 C   0  0  0  0  0  3  0  0  0  0  0  0
  -29.9650  -18.8260   20.2010 C   0  0  0  0  0  0  0  0  0  0  0  0
  -29.8440  -19.4210   21.4950 C   0  0  0  0  0  0  0  0  0  0  0  0
  -29.5890  -19.8780   19.3570 C   0  0  0  0  0  0  0  0  0  0  0  0
  -29.5340  -19.8980   17.8580 C   0  0  0  0  0  1  0  0  0  0  0  0
  -29.2140  -21.0420   20.0900 N   0  0  0  0  0  0  0  0  0  0  0  0
  -30.2070  -18.6320   22.9850 Cl  0  0  0  0  0  0  0  0  0  0  0  0
  -30.4720  -17.3780   19.7970 C   0  0  0  0  0  3  0  0  0  0  0  0
  -30.0770  -16.0450   20.6020 C   0  0  0  0  0  3  0  0  0  0  0  0
  -30.7900  -14.6940   20.1510 C   0  0  0  0  0  0  0  0  0  0  0  0
  -30.5190  -12.4590   19.0900 C   0  0  0  0  0  2  0  0  0  0  0  0
  -29.5590  -12.6040   17.8900 C   0  0  0  0  0  2  0  0  0  0  0  0
  -28.0940  -12.4440   18.3400 C   0  0  0  0  0  2  0  0  0  0  0  0
  -27.7580  -13.3000   19.5880 C   0  0  0  0  0  3  0  0  0  0  0  0
  -28.8390  -13.1690   20.6860 C   0  0  0  0  0  2  0  0  0  0  0  0
  -30.1410  -13.4860   20.0850 N   0  0  0  0  0  0  0  0  0  0  0  0
  -31.9470  -14.7830   19.7300 O   0  0  0  0  0  0  0  0  0  0  0  0
  -25.3860  -13.8960   20.3730 C   0  0  0  0  0  0  0  0  0  0  0  0
  -24.3210  -13.1220   20.7520 C   0  0  0  0  0  0  0  0  0  0  0  0
  -24.7750  -11.7690   20.6910 C   0  0  0  0  0  0  0  0  0  0  0  0
  -26.4200  -13.0130   20.1020 N   0  0  0  0  0  0  0  0  0  0  0  0
  -26.0590  -11.7290   20.3540 N   0  0  0  0  0  0  0  0  0  0  0  0
  -24.0430  -10.5080   20.8780 C   0  0  0  0  0  0  0  0  0  0  0  0
  -24.4220   -9.5690   21.8630 C   0  0  0  0  0  3  0  0  0  0  0  0
  -23.6900   -8.3740   22.0340 C   0  0  0  0  0  3  0  0  0  0  0  0
  -22.5640   -8.1090   21.2190 C   0  0  0  0  0  0  0  0  0  0  0  0
  -22.2050   -9.0350   20.2230 C   0  0  0  0  0  3  0  0  0  0  0  0
  -22.9380  -10.2220   20.0510 C   0  0  0  0  0  3  0  0  0  0  0  0
  -21.8080   -6.9640   21.2970 O   0  0  0  0  0  0  0  0  0  0  0  0
  -21.6050   -6.3140   22.4870 C   0  0  0  0  0  0  0  0  0  0  0  0
  -20.9910   -6.9520   23.5870 C   0  0  0  0  0  3  0  0  0  0  0  0
  -20.7380   -6.2280   24.7690 C   0  0  0  0  0  3  0  0  0  0  0  0
  -21.0900   -4.8670   24.8510 C   0  0  0  0  0  0  0  0  0  0  0  0
  -21.6970   -4.2300   23.7550 C   0  0  0  0  0  3  0  0  0  0  0  0
  -21.9520   -4.9510   22.5760 C   0  0  0  0  0  0  0  0  0  0  0  0
  -22.5180   -4.3260   21.5160 F   0  0  0  0  0  0  0  0  0  0  0  0
  -20.8390   -4.1690   25.9840 F   0  0  0  0  0  0  0  0  0  0  0  0
  -22.9320  -13.6050   21.0590 C   0  0  0  0  0  0  0  0  0  0  0  0
  -22.2240  -12.9070   21.9400 N   0  0  0  0  0  0  0  0  0  0  0  0
  -22.4870  -14.6330   20.5530 O   0  0  0  0  0  0  0  0  0  0  0  0
  -22.6000  -12.0780   22.3740 H   0  0  0  0  0  0  0  0  0  0  0  0
  -21.2930  -13.2090   22.1890 H   0  0  0  0  0  0  0  0  0  0  0  0
  -25.5540  -15.2680   20.2180 N   0  0  0  0  0  0  0  0  0  0  0  0
  -24.7960  -15.9260   20.3610 H   0  0  0  0  0  0  0  0  0  0  0  0
  -26.4060  -15.7120   19.8980 H   0  0  0  0  0  0  0  0  0  0  0  0
  -28.5720  -22.3140   19.5690 C   0  0  0  0  0  2  0  0  0  0  0  0
  -28.9840  -23.7710   20.0920 C   0  0  0  0  0  2  0  0  0  0  0  0
  -28.0040  -24.9430   19.6100 C   0  0  0  0  0  2  0  0  0  0  0  0
  -28.2210  -26.3890   19.9020 O   0  0  0  0  0  0  0  0  0  0  0  0
  -24.6300  -31.7910   23.1120 C   0  0  0  0  0  0  0  0  0  0  0  0
  -27.1110  -27.2610   19.8790 C   0  0  0  0  0  0  0  0  0  0  0  0
  -23.3600  -30.4220   21.4960 C   0  0  0  0  0  3  0  0  0  0  0  0
  -24.7520  -28.8920   19.9910 C   0  0  0  0  0  0  0  0  0  0  0  0
  -25.8970  -30.7240   21.2340 C   0  0  0  0  0  2  0  0  0  0  0  0
  -25.9450  -29.3590   20.5570 C   0  0  0  0  0  0  0  0  0  0  0  0
  -27.1240  -28.5530   20.4970 C   0  0  0  0  0  3  0  0  0  0  0  0
  -25.8950  -26.8710   19.2670 C   0  0  0  0  0  3  0  0  0  0  0  0
  -24.7290  -27.6540   19.3360 C   0  0  0  0  0  3  0  0  0  0  0  0
  -23.5230  -29.7710   20.0990 C   0  0  0  0  0  2  0  0  0  0  0  0
  -24.6490  -30.9970   22.0020 N   0  0  0  0  0  0  0  0  0  0  0  0
  -23.5670  -32.0660   23.6890 O   0  0  0  0  0  0  0  0  0  0  0  0
  -22.7300  -29.3910   22.4620 C   0  0  0  0  0  0  0  0  0  0  0  0
  -21.4100  -29.1660   22.3320 N   0  0  0  0  0  0  0  0  0  0  0  0
  -23.4270  -28.7980   23.2920 O   0  0  0  0  0  0  0  0  0  0  0  0
  -20.9070  -29.6960   21.6330 H   0  0  0  0  0  0  0  0  0  0  0  0
  -18.0900  -27.8000   22.7770 C   0  0  0  0  0  0  0  0  0  0  0  0
  -20.6210  -28.2100   23.1090 C   0  0  0  0  0  3  0  0  0  0  0  0
  -20.8170  -26.7680   22.5850 C   0  0  0  0  0  2  0  0  0  0  0  0
  -19.7660  -26.3520   21.5510 C   0  0  0  0  0  2  0  0  0  0  0  0
  -18.3600  -26.4420   22.1500 C   0  0  0  0  0  2  0  0  0  0  0  0
  -19.1520  -28.6370   23.2120 C   0  0  0  0  0  0  0  0  0  0  0  0
  -18.8490  -29.9030   23.7550 C   0  0  0  0  0  3  0  0  0  0  0  0
  -17.5140  -30.3370   23.8700 C   0  0  0  0  0  3  0  0  0  0  0  0
  -16.4660  -29.4990   23.4520 C   0  0  0  0  0  3  0  0  0  0  0  0
  -16.7530  -28.2320   22.9130 C   0  0  0  0  0  3  0  0  0  0  0  0
  -25.9380  -32.4090   23.6950 C   0  0  0  0  0  3  0  0  0  0  0  0
  -25.6430  -33.7970   24.0840 N   0  0  0  0  0  0  0  0  0  0  0  0
  -25.9470  -34.8740   23.3470 C   0  0  0  0  0  0  0  0  0  0  0  0
  -26.5800  -34.8040   22.2900 O   0  0  0  0  0  0  0  0  0  0  0  0
  -25.0960  -33.9270   24.9210 H   0  0  0  0  0  0  0  0  0  0  0  0
  -24.2200  -36.6830   23.0970 C   0  0  0  0  0  1  0  0  0  0  0  0
  -25.4760  -36.2460   23.8660 C   0  0  0  0  0  3  0  0  0  0  0  0
  -27.6270  -37.0960   24.6890 C   0  0  0  0  0  1  0  0  0  0  0  0
  -26.5100  -37.3000   23.7710 N   0  0  0  0  0  0  0  0  0  0  0  0
  -26.1080  -38.2150   23.9580 H   0  0  0  0  0  0  0  0  0  0  0  0
  -26.5150  -31.6010   24.9220 C   0  0  1  0  0  0  0  0  0  0  0  0
  -25.4720  -31.3180   26.0270 C   0  0  0  0  0  1  0  0  0  0  0  0
  -27.0920  -30.2410   24.4620 C   0  0  0  0  0  1  0  0  0  0  0  0
  -27.6880  -32.3820   25.5590 C   0  0  0  0  0  1  0  0  0  0  0  0
  1  3  2  0
  2  3  1  0
  3  7  1  0
  4  6  1  0
  4  2  2  0
  5  4  1  0
  6  1  1  0
  8  2  1  0
  8  9  2  0
 10  9  1  0
 11 16  1  0
 12 13  1  0
 12 11  1  0
 14 13  1  0
 14 21  1  0
 14 15  1  0
 16 10  1  0
 16 15  1  0
 17 10  2  0
 18 19  2  0
 19 38  1  0
 20 19  1  0
 20 23  1  0
 21 22  1  0
 21 18  1  0
 22 20  2  0
 23 24  1  0
 24 25  2  0
 26 29  1  0
 26 25  1  0
 27 26  2  0
 28 27  1  0
 28 23  2  0
 29 30  1  0
 30 35  2  0
 30 31  1  0
 31 32  2  0
 32 33  1  0
 33 37  1  0
 34 33  2  0
 35 34  1  0
 36 35  1  0
 38 39  1  0
 39 42  1  0
 39 41  1  0
 40 38  2  0
 43 44  1  0
 43 18  1  0
 45 43  1  0
 46  6  1  0
 46 47  1  0
 48 49  1  0
 48 47  1  0
 50 61  2  0
 51 49  1  0
 51 56  1  0
 52 60  1  0
 52 62  1  0
 53 59  1  0
 53 55  1  0
 54 60  1  0
 55 54  1  0
 56 55  2  0
 57 58  1  0
 57 51  2  0
 58 53  2  0
 59 52  1  0
 60 50  1  0
 62 64  2  0
 63 62  1  0
 65 63  1  0
 66 75  2  0
 66 71  1  0
 67 63  1  0
 67 71  1  0
 68 67  1  0
 69 70  1  0
 69 68  1  0
 70 66  1  0
 71 72  2  0
 72 73  1  0
 74 73  2  0
 75 74  1  0
 76 50  1  0
 76 77  1  0
 76 86  1  0
 77 80  1  0
 78 82  1  0
 78 77  1  0
 79 78  2  0
 82 81  1  0
 84 82  1  0
 84 85  1  0
 84 83  1  0
 86 89  1  1
 86 87  1  0
 88 86  1  0
M  ISO  4   9 100  10 100  48 101  49 101
M  END
>  <TORSDO>  (3) 
F 21

>  <SCORE>  (3) 
-12.001

>  <name>  (3) 
2

>  <ligand_id>  (3) 
2

>  <original_smiles>  (3) 
[H]c1c([H])c([H])c2c(c1[H])C([H])([H])C([H])([H])C([H])([H])C2([H])N([H])C(=O)C1([H])N(C(=O)C([H])(N([H])C(=O)C([H])(N([H])C([H])([H])[H])C([H])([H])[H])C(C([H])([H])[H])(C([H])([H])[H])C([H])([H])[H])C([H])([H])c2c([H])c(OC([H])([H])C([H])([H])C([H])([H])n3c([H])c(Cl)c(C([H])([H])C([H])([H])C(=O)N4C([H])([H])C([H])([H])C([H])([H])C([H])(n5nc(-c6c([H])c([H])c(Oc7c([H])c([H])c(F)c([H])c7F)c([H])c6[H])c(C(=O)N([H])[H])c5N([H])[H])C4([H])[H])c3C([H])([H])[H])c([H])c([H])c2C1([H])[H]

>  <smiles>  (3) 
[H]c1c([H])c([H])c2c(c1[H])C([H])([H])C([H])([H])C([H])([H])C2([H])N([H])C(=O)C1([H])N(C(=O)C([H])(N([H])C(=O)C([H])(N([H])C([H])([H])[H])C([H])([H])[H])C(C([H])([H])[H])(C([H])([H])[H])C([H])([H])[H])C([H])([H])c2c([H])c(OC([H])([H])C([H])([H])C([H])([H])n3c([H])c(Cl)c(C([H])([H])C([H])([H])C(=O)N4C([H])([H])C([H])([H])C([H])([H])C([H])(n5nc(-c6c([H])c([H])c(Oc7c([H])c([H])c(F)c([H])c7F)c([H])c6[H])c(C(=O)N([H])[H])c5N([H])[H])C4([H])[H])c3C([H])([H])[H])c([H])c([H])c2C1([H])[H]

$$$$
3:0:0
     RDKit          3D

 92100  0  0  1  0  0  0  0  0999 V2000
  -30.7870  -18.6610   21.7540 C   0  0  0  0  0  3  0  0  0  0  0  0
  -29.9550  -18.5620   20.6320 C   0  0  0  0  0  0  0  0  0  0  0  0
  -29.5280  -21.0810   20.7840 C   0  0  0  0  0  0  0  0  0  0  0  0
  -30.4540  -21.1140   21.8770 C   0  0  0  0  0  0  0  0  0  0  0  0
  -29.3180  -19.7790   20.1790 C   0  0  0  0  0  0  0  0  0  0  0  0
  -31.0400  -19.9060   22.3620 C   0  0  0  0  0  0  0  0  0  0  0  0
  -30.8640  -22.4320   22.5210 C   0  0  0  0  0  1  0  0  0  0  0  0
  -28.4720  -19.6910   19.1260 F   0  0  0  0  0  0  0  0  0  0  0  0
  -32.1200  -19.8880   23.7140 Cl  0  0  0  0  0  0  0  0  0  0  0  0
  -28.7100  -22.3450   20.2300 C   0  0  0  0  0  2  0  0  0  0  0  0
  -29.0150  -23.9070   20.5230 C   0  0  0  0  0  3  0  0  0  0  0  0
  -27.9800  -25.0040   19.9700 C   0  0  0  0  0  3  0  0  0  0  0  0
  -28.1930  -26.4700   20.1810 O   0  0  0  0  0  0  0  0  0  0  0  0
  -24.5480  -31.9400   23.2120 C   0  0  0  0  0  0  0  0  0  0  0  0
  -27.0840  -27.3430   20.1250 C   0  0  0  0  0  0  0  0  0  0  0  0
  -23.3070  -30.5390   21.5990 C   0  0  0  0  0  3  0  0  0  0  0  0
  -24.7250  -28.9820   20.1420 C   0  0  0  0  0  0  0  0  0  0  0  0
  -25.8440  -30.8430   21.3690 C   0  0  0  0  0  2  0  0  0  0  0  0
  -25.9060  -29.4610   20.7240 C   0  0  0  0  0  0  0  0  0  0  0  0
  -27.0840  -28.6520   20.7090 C   0  0  0  0  0  3  0  0  0  0  0  0
  -25.8800  -26.9320   19.5030 C   0  0  0  0  0  3  0  0  0  0  0  0
  -24.7170  -27.7250   19.5210 C   0  0  0  0  0  3  0  0  0  0  0  0
  -23.4920  -29.8590   20.2160 C   0  0  0  0  0  2  0  0  0  0  0  0
  -24.5860  -31.1270   22.1160 N   0  0  0  0  0  0  0  0  0  0  0  0
  -23.4780  -32.2250   23.7670 O   0  0  0  0  0  0  0  0  0  0  0  0
  -22.6570  -29.5310   22.5780 C   0  0  0  0  0  0  0  0  0  0  0  0
  -21.3310  -29.3440   22.4660 N   0  0  0  0  0  0  0  0  0  0  0  0
  -23.3450  -28.9180   23.4000 O   0  0  0  0  0  0  0  0  0  0  0  0
  -20.8340  -29.8900   21.7760 H   0  0  0  0  0  0  0  0  0  0  0  0
  -17.9680  -28.1190   22.9910 C   0  0  0  0  0  0  0  0  0  0  0  0
  -20.5240  -28.4100   23.2540 C   0  0  0  0  0  3  0  0  0  0  0  0
  -20.6420  -26.9710   22.7000 C   0  0  0  0  0  2  0  0  0  0  0  0
  -19.5420  -26.6220   21.6920 C   0  0  0  0  0  2  0  0  0  0  0  0
  -18.1590  -26.7610   22.3360 C   0  0  0  0  0  2  0  0  0  0  0  0
  -19.0780  -28.9000   23.4080 C   0  0  0  0  0  0  0  0  0  0  0  0
  -18.8450  -30.1690   23.9800 C   0  0  0  0  0  3  0  0  0  0  0  0
  -17.5350  -30.6590   24.1380 C   0  0  0  0  0  3  0  0  0  0  0  0
  -16.4390  -29.8740   23.7380 C   0  0  0  0  0  3  0  0  0  0  0  0
  -16.6570  -28.6060   23.1710 C   0  0  0  0  0  3  0  0  0  0  0  0
  -25.8460  -32.5660   23.8090 C   0  0  0  0  0  3  0  0  0  0  0  0
  -26.3780  -31.7980   25.0820 C   0  0  1  0  0  0  0  0  0  0  0  0
  -25.3020  -31.5760   26.1720 C   0  0  0  0  0  1  0  0  0  0  0  0
  -26.9400  -30.4130   24.6880 C   0  0  0  0  0  1  0  0  0  0  0  0
  -27.5470  -32.5860   25.7210 C   0  0  0  0  0  1  0  0  0  0  0  0
  -25.5520  -33.9680   24.1400 N   0  0  0  0  0  0  0  0  0  0  0  0
  -25.8880  -35.0180   23.3800 C   0  0  0  0  0  0  0  0  0  0  0  0
  -26.5510  -34.9100   22.3450 O   0  0  0  0  0  0  0  0  0  0  0  0
  -24.9620  -34.1240   24.9430 H   0  0  0  0  0  0  0  0  0  0  0  0
  -24.1850  -36.8340   23.0220 C   0  0  0  0  0  1  0  0  0  0  0  0
  -25.4150  -36.4110   23.8410 C   0  0  0  0  0  3  0  0  0  0  0  0
  -27.5530  -37.2660   24.6910 C   0  0  0  0  0  1  0  0  0  0  0  0
  -26.4620  -37.4510   23.7380 N   0  0  0  0  0  0  0  0  0  0  0  0
  -26.0670  -38.3770   23.8870 H   0  0  0  0  0  0  0  0  0  0  0  0
  -29.8770  -17.1850   19.8700 C   0  0  0  0  0  2  0  0  0  0  0  0
  -30.6080  -14.7450   20.3250 C   0  0  0  0  0  0  0  0  0  0  0  0
  -30.3830  -12.5010   19.2900 C   0  0  0  0  0  2  0  0  0  0  0  0
  -29.4420  -12.6480   18.0720 C   0  0  0  0  0  2  0  0  0  0  0  0
  -27.9700  -12.4800   18.4950 C   0  0  0  0  0  2  0  0  0  0  0  0
  -27.6120  -13.3260   19.7480 C   0  0  0  0  0  3  0  0  0  0  0  0
  -28.6770  -13.1820   20.8630 C   0  0  0  0  0  2  0  0  0  0  0  0
  -29.9860  -13.5230   20.2830 N   0  0  0  0  0  0  0  0  0  0  0  0
  -31.7660  -14.8810   19.9200 O   0  0  0  0  0  0  0  0  0  0  0  0
  -29.8230  -15.8430   20.5770 N   0  0  0  0  0  0  0  0  0  0  0  0
  -28.9240  -15.6110   20.9710 H   0  0  0  0  0  0  0  0  0  0  0  0
  -25.2170  -13.9050   20.4670 C   0  0  0  0  0  0  0  0  0  0  0  0
  -24.1540  -13.1280   20.8360 C   0  0  0  0  0  0  0  0  0  0  0  0
  -24.6210  -11.7780   20.8070 C   0  0  0  0  0  0  0  0  0  0  0  0
  -26.2650  -13.0310   20.2320 N   0  0  0  0  0  0  0  0  0  0  0  0
  -25.9140  -11.7460   20.4970 N   0  0  0  0  0  0  0  0  0  0  0  0
  -23.9020  -10.5140   21.0000 C   0  0  0  0  0  0  0  0  0  0  0  0
  -24.3330   -9.5540   21.9440 C   0  0  0  0  0  3  0  0  0  0  0  0
  -23.6130   -8.3540   22.1230 C   0  0  0  0  0  3  0  0  0  0  0  0
  -22.4460   -8.1050   21.3630 C   0  0  0  0  0  0  0  0  0  0  0  0
  -22.0350   -9.0520   20.4090 C   0  0  0  0  0  3  0  0  0  0  0  0
  -22.7540  -10.2440   20.2260 C   0  0  0  0  0  3  0  0  0  0  0  0
  -21.6970   -6.9560   21.4530 O   0  0  0  0  0  0  0  0  0  0  0  0
  -21.6350   -6.2270   22.6120 C   0  0  0  0  0  0  0  0  0  0  0  0
  -21.1700   -6.7880   23.8220 C   0  0  0  0  0  3  0  0  0  0  0  0
  -21.0560   -5.9830   24.9730 C   0  0  0  0  0  3  0  0  0  0  0  0
  -21.3950   -4.6180   24.9160 C   0  0  0  0  0  0  0  0  0  0  0  0
  -21.8530   -4.0560   23.7120 C   0  0  0  0  0  3  0  0  0  0  0  0
  -21.9700   -4.8580   22.5620 C   0  0  0  0  0  0  0  0  0  0  0  0
  -22.3900   -4.3060   21.3990 F   0  0  0  0  0  0  0  0  0  0  0  0
  -21.2800   -3.8430   26.0200 F   0  0  0  0  0  0  0  0  0  0  0  0
  -22.7540  -13.6010   21.1080 C   0  0  0  0  0  0  0  0  0  0  0  0
  -22.0260  -12.8970   21.9670 N   0  0  0  0  0  0  0  0  0  0  0  0
  -22.3150  -14.6270   20.5900 O   0  0  0  0  0  0  0  0  0  0  0  0
  -22.3930  -12.0660   22.4060 H   0  0  0  0  0  0  0  0  0  0  0  0
  -21.0860  -13.1970   22.1870 H   0  0  0  0  0  0  0  0  0  0  0  0
  -25.3740  -15.2770   20.2890 N   0  0  0  0  0  0  0  0  0  0  0  0
  -24.6080  -15.9300   20.4060 H   0  0  0  0  0  0  0  0  0  0  0  0
  -26.2130  -15.7200   19.9390 H   0  0  0  0  0  0  0  0  0  0  0  0
  1  6  1  0
  2  1  2  0
  3  4  1  0
  4  6  2  0
  4  7  1  0
  5  2  1  0
  5  3  2  0
  6  9  1  0
  8  5  1  0
 10 11  1  0
 10  3  1  0
 12 13  1  0
 12 11  2  0
 14 25  2  0
 15 13  1  0
 15 20  1  0
 16 24  1  0
 16 26  1  0
 17 23  1  0
 17 19  1  0
 18 24  1  0
 19 18  1  0
 20 19  2  0
 21 22  1  0
 21 15  2  0
 22 17  2  0
 23 16  1  0
 24 14  1  0
 26 28  2  0
 27 26  1  0
 29 27  1  0
 30 39  2  0
 30 35  1  0
 31 27  1  0
 31 35  1  0
 32 31  1  0
 33 34  1  0
 33 32  1  0
 34 30  1  0
 35 36  2  0
 36 37  1  0
 38 37  2  0
 39 38  1  0
 40 14  1  0
 40 45  1  0
 40 41  1  0
 41 44  1  1
 41 42  1  0
 43 41  1  0
 45 48  1  0
 46 50  1  0
 46 45  1  0
 47 46  2  0
 50 49  1  0
 52 50  1  0
 52 53  1  0
 52 51  1  0
 54 63  1  0
 54  2  1  0
 55 63  1  0
 56 61  1  0
 57 58  1  0
 57 56  1  0
 59 58  1  0
 59 68  1  0
 59 60  1  0
 61 55  1  0
 61 60  1  0
 62 55  2  0
 63 64  1  0
 65 66  2  0
 66 85  1  0
 67 66  1  0
 67 70  1  0
 68 65  1  0
 68 69  1  0
 69 67  2  0
 70 71  1  0
 71 72  2  0
 73 76  1  0
 73 72  1  0
 74 73  2  0
 75 74  1  0
 75 70  2  0
 76 77  1  0
 77 78  1  0
 78 79  2  0
 80 79  1  0
 80 84  1  0
 81 80  2  0
 82 77  2  0
 82 81  1  0
 83 82  1  0
 85 86  1  0
 86 89  1  0
 86 88  1  0
 87 85  2  0
 90 91  1  0
 90 65  1  0
 92 90  1  0
M  ISO  4  12 101  13 101  55 100  63 100
M  END
>  <TORSDO>  (4) 
F 20

>  <SCORE>  (4) 
-13.869

>  <name>  (4) 
3

>  <ligand_id>  (4) 
3

>  <original_smiles>  (4) 
[H]c1c([H])c([H])c2c(c1[H])C([H])([H])C([H])([H])C([H])([H])C2([H])N([H])C(=O)C1([H])N(C(=O)C([H])(N([H])C(=O)C([H])(N([H])C([H])([H])[H])C([H])([H])[H])C(C([H])([H])[H])(C([H])([H])[H])C([H])([H])[H])C([H])([H])c2c([H])c(OC([H])([H])C([H])([H])C([H])([H])c3c(F)c(C([H])([H])N([H])C(=O)N4C([H])([H])C([H])([H])C([H])([H])C([H])(n5nc(-c6c([H])c([H])c(Oc7c([H])c([H])c(F)c([H])c7F)c([H])c6[H])c(C(=O)N([H])[H])c5N([H])[H])C4([H])[H])c([H])c(Cl)c3C([H])([H])[H])c([H])c([H])c2C1([H])[H]

>  <smiles>  (4) 
[H]c1c([H])c([H])c2c(c1[H])C([H])([H])C([H])([H])C([H])([H])C2([H])N([H])C(=O)C1([H])N(C(=O)C([H])(N([H])C(=O)C([H])(N([H])C([H])([H])[H])C([H])([H])[H])C(C([H])([H])[H])(C([H])([H])[H])C([H])([H])[H])C([H])([H])c2c([H])c(OC([H])([H])C([H])([H])C([H])([H])c3c(F)c(C([H])([H])N([H])C(=O)N4C([H])([H])C([H])([H])C([H])([H])C([H])(n5nc(-c6c([H])c([H])c(Oc7c([H])c([H])c(F)c([H])c7F)c([H])c6[H])c(C(=O)N([H])[H])c5N([H])[H])C4([H])[H])c([H])c(Cl)c3C([H])([H])[H])c([H])c([H])c2C1([H])[H]

$$$$
4:0:0
     RDKit          3D

 90 98  0  0  1  0  0  0  0  0999 V2000
  -26.3930  -23.8550   20.1870 C   0  0  0  0  0  3  0  0  0  0  0  0
  -26.9180  -21.2950   19.5050 C   0  0  0  0  0  3  0  0  0  0  0  0
  -27.7560  -23.5000   20.2690 C   0  0  0  0  0  0  0  0  0  0  0  0
  -28.0380  -22.0090   20.0080 C   0  0  0  0  0  0  0  0  0  0  0  0
  -25.4020  -22.9970   19.7180 C   0  0  0  0  0  0  0  0  0  0  0  0
  -23.9560  -23.4400   19.6280 C   0  0  0  0  0  1  0  0  0  0  0  0
  -25.6660  -21.7470   19.3400 N   0  0  0  0  0  0  0  0  0  0  0  0
  -29.2950  -20.9320   20.1770 C   0  0  0  0  0  2  0  0  0  0  0  0
  -29.0870  -19.2180   20.0880 C   0  0  0  0  0  3  0  0  0  0  0  0
  -30.2070  -17.9430   20.2240 C   0  0  0  0  0  3  0  0  0  0  0  0
  -30.6260  -15.1890   20.1330 C   0  0  0  0  0  0  0  0  0  0  0  0
  -30.5060  -12.8160   19.2280 C   0  0  0  0  0  2  0  0  0  0  0  0
  -29.5640  -12.7390   18.0040 C   0  0  0  0  0  2  0  0  0  0  0  0
  -28.1040  -12.5320   18.4510 C   0  0  0  0  0  2  0  0  0  0  0  0
  -27.7040  -13.4780   19.6130 C   0  0  0  0  0  3  0  0  0  0  0  0
  -28.7670  -13.5170   20.7310 C   0  0  0  0  0  2  0  0  0  0  0  0
  -30.0290  -13.9280   20.1030 N   0  0  0  0  0  0  0  0  0  0  0  0
  -31.8280  -15.2420   19.8480 O   0  0  0  0  0  0  0  0  0  0  0  0
  -29.8550  -16.3860   20.2770 N   0  0  0  0  0  0  0  0  0  0  0  0
  -28.8800  -16.1950   20.4560 H   0  0  0  0  0  0  0  0  0  0  0  0
  -25.3370  -14.0690   20.3820 C   0  0  0  0  0  0  0  0  0  0  0  0
  -24.2730  -13.3000   20.7630 C   0  0  0  0  0  0  0  0  0  0  0  0
  -24.7290  -11.9450   20.7250 C   0  0  0  0  0  0  0  0  0  0  0  0
  -26.3720  -13.1840   20.1280 N   0  0  0  0  0  0  0  0  0  0  0  0
  -26.0160  -11.9020   20.4000 N   0  0  0  0  0  0  0  0  0  0  0  0
  -23.9970  -10.6880   20.9200 C   0  0  0  0  0  0  0  0  0  0  0  0
  -24.4060   -9.7350   21.8790 C   0  0  0  0  0  3  0  0  0  0  0  0
  -23.6710   -8.5420   22.0610 C   0  0  0  0  0  3  0  0  0  0  0  0
  -22.5140   -8.2950   21.2850 C   0  0  0  0  0  0  0  0  0  0  0  0
  -22.1240   -9.2370   20.3170 C   0  0  0  0  0  3  0  0  0  0  0  0
  -22.8590  -10.4200   20.1330 C   0  0  0  0  0  3  0  0  0  0  0  0
  -21.7530   -7.1550   21.3760 O   0  0  0  0  0  0  0  0  0  0  0  0
  -21.6460   -6.4530   22.5500 C   0  0  0  0  0  0  0  0  0  0  0  0
  -21.1390   -7.0440   23.7280 C   0  0  0  0  0  3  0  0  0  0  0  0
  -20.9810   -6.2670   24.8930 C   0  0  0  0  0  3  0  0  0  0  0  0
  -21.3190   -4.9010   24.8800 C   0  0  0  0  0  0  0  0  0  0  0  0
  -21.8190   -4.3100   23.7080 C   0  0  0  0  0  3  0  0  0  0  0  0
  -21.9790   -5.0830   22.5440 C   0  0  0  0  0  0  0  0  0  0  0  0
  -22.4400   -4.5030   21.4100 F   0  0  0  0  0  0  0  0  0  0  0  0
  -21.1610   -4.1520   25.9980 F   0  0  0  0  0  0  0  0  0  0  0  0
  -22.8820  -13.7860   21.0470 C   0  0  0  0  0  0  0  0  0  0  0  0
  -22.1610  -13.1000   21.9270 N   0  0  0  0  0  0  0  0  0  0  0  0
  -22.4430  -14.8080   20.5220 O   0  0  0  0  0  0  0  0  0  0  0  0
  -22.5290  -12.2730   22.3730 H   0  0  0  0  0  0  0  0  0  0  0  0
  -21.2280  -13.4080   22.1600 H   0  0  0  0  0  0  0  0  0  0  0  0
  -25.5060  -15.4390   20.2020 N   0  0  0  0  0  0  0  0  0  0  0  0
  -24.7380  -16.0910   20.3170 H   0  0  0  0  0  0  0  0  0  0  0  0
  -26.3380  -15.8710   19.8240 H   0  0  0  0  0  0  0  0  0  0  0  0
  -28.5620  -24.8330   20.7990 C   0  0  0  0  0  2  0  0  0  0  0  0
  -28.3850  -26.3600   20.3940 O   0  0  0  0  0  0  0  0  0  0  0  0
  -24.6200  -32.0270   23.3910 C   0  0  0  0  0  0  0  0  0  0  0  0
  -27.2790  -27.2910   20.4510 C   0  0  0  0  0  0  0  0  0  0  0  0
  -23.4630  -30.6200   21.7310 C   0  0  0  0  0  3  0  0  0  0  0  0
  -24.9480  -29.0440   20.3470 C   0  0  0  0  0  0  0  0  0  0  0  0
  -26.0180  -30.8910   21.6240 C   0  0  0  0  0  2  0  0  0  0  0  0
  -26.1100  -29.4890   20.9910 C   0  0  0  0  0  0  0  0  0  0  0  0
  -27.2750  -28.6290   21.0270 C   0  0  0  0  0  3  0  0  0  0  0  0
  -26.1110  -26.9790   19.7230 C   0  0  0  0  0  3  0  0  0  0  0  0
  -24.9630  -27.8000   19.6970 C   0  0  0  0  0  3  0  0  0  0  0  0
  -23.7190  -29.9380   20.3590 C   0  0  0  0  0  2  0  0  0  0  0  0
  -24.7190  -31.2040   22.3020 N   0  0  0  0  0  0  0  0  0  0  0  0
  -23.5210  -32.3070   23.8940 O   0  0  0  0  0  0  0  0  0  0  0  0
  -22.7710  -29.6100   22.6810 C   0  0  0  0  0  0  0  0  0  0  0  0
  -21.4490  -29.4200   22.5180 N   0  0  0  0  0  0  0  0  0  0  0  0
  -23.4270  -29.0010   23.5290 O   0  0  0  0  0  0  0  0  0  0  0  0
  -20.9760  -29.9640   21.8100 H   0  0  0  0  0  0  0  0  0  0  0  0
  -18.0690  -28.1950   22.9570 C   0  0  0  0  0  0  0  0  0  0  0  0
  -20.6200  -28.4770   23.2730 C   0  0  0  0  0  3  0  0  0  0  0  0
  -20.7430  -27.0450   22.7020 C   0  0  0  0  0  2  0  0  0  0  0  0
  -19.6640  -26.7130   21.6670 C   0  0  0  0  0  2  0  0  0  0  0  0
  -18.2690  -26.8480   22.2840 C   0  0  0  0  0  2  0  0  0  0  0  0
  -19.1720  -28.9670   23.4080 C   0  0  0  0  0  0  0  0  0  0  0  0
  -18.9310  -30.2260   23.9980 C   0  0  0  0  0  3  0  0  0  0  0  0
  -17.6190  -30.7150   24.1420 C   0  0  0  0  0  3  0  0  0  0  0  0
  -16.5290  -29.9410   23.7070 C   0  0  0  0  0  3  0  0  0  0  0  0
  -16.7540  -28.6830   23.1200 C   0  0  0  0  0  3  0  0  0  0  0  0
  -25.8800  -32.6740   24.0410 C   0  0  0  0  0  3  0  0  0  0  0  0
  -26.3350  -31.9460   25.3660 C   0  0  1  0  0  0  0  0  0  0  0  0
  -25.1930  -31.7460   26.3900 C   0  0  0  0  0  1  0  0  0  0  0  0
  -26.9330  -30.5550   25.0540 C   0  0  0  0  0  1  0  0  0  0  0  0
  -27.4550  -32.7630   26.0530 C   0  0  0  0  0  1  0  0  0  0  0  0
  -25.5700  -34.0860   24.3140 N   0  0  0  0  0  0  0  0  0  0  0  0
  -25.9170  -35.1120   23.5260 C   0  0  0  0  0  0  0  0  0  0  0  0
  -26.5990  -34.9700   22.5070 O   0  0  0  0  0  0  0  0  0  0  0  0
  -24.9640  -34.2710   25.1010 H   0  0  0  0  0  0  0  0  0  0  0  0
  -24.1890  -36.8950   23.1080 C   0  0  0  0  0  1  0  0  0  0  0  0
  -25.4340  -36.5200   23.9290 C   0  0  0  0  0  3  0  0  0  0  0  0
  -27.5690  -37.4410   24.7180 C   0  0  0  0  0  1  0  0  0  0  0  0
  -26.4670  -37.5670   23.7690 N   0  0  0  0  0  0  0  0  0  0  0  0
  -26.0610  -38.4930   23.8750 H   0  0  0  0  0  0  0  0  0  0  0  0
  1  3  1  0
  2  4  1  0
  3 49  1  0
  4  8  1  0
  4  3  2  0
  5  1  2  0
  6  5  1  0
  7  2  2  0
  7  5  1  0
  9  8  1  0
  9 10  2  0
 10 19  1  0
 11 19  1  0
 12 17  1  0
 13 14  1  0
 13 12  1  0
 15 14  1  0
 15 24  1  0
 15 16  1  0
 17 11  1  0
 17 16  1  0
 18 11  2  0
 19 20  1  0
 21 22  2  0
 22 41  1  0
 23 22  1  0
 23 26  1  0
 24 21  1  0
 24 25  1  0
 25 23  2  0
 26 27  1  0
 27 28  2  0
 29 32  1  0
 29 28  1  0
 30 29  2  0
 31 30  1  0
 31 26  2  0
 32 33  1  0
 33 34  1  0
 34 35  2  0
 36 35  1  0
 36 40  1  0
 37 36  2  0
 38 33  2  0
 38 37  1  0
 39 38  1  0
 41 42  1  0
 42 45  1  0
 42 44  1  0
 43 41  2  0
 46 47  1  0
 46 21  1  0
 48 46  1  0
 50 52  1  0
 50 49  1  0
 51 62  2  0
 52 57  1  0
 53 61  1  0
 53 63  1  0
 54 60  1  0
 54 56  1  0
 55 61  1  0
 56 57  2  0
 56 55  1  0
 58 52  2  0
 59 58  1  0
 59 54  2  0
 60 53  1  0
 61 51  1  0
 63 65  2  0
 64 63  1  0
 66 64  1  0
 67 76  2  0
 67 72  1  0
 68 64  1  0
 68 72  1  0
 69 68  1  0
 70 71  1  0
 70 69  1  0
 71 67  1  0
 72 73  2  0
 73 74  1  0
 75 74  2  0
 76 75  1  0
 77 51  1  0
 77 82  1  0
 77 78  1  0
 78 81  1  1
 78 79  1  0
 80 78  1  0
 82 85  1  0
 83 87  1  0
 83 82  1  0
 84 83  2  0
 87 86  1  0
 89 90  1  0
 89 87  1  0
 89 88  1  0
M  ISO  4  11 100  19 100  49 101  50 101
M  END
>  <TORSDO>  (5) 
F 20

>  <SCORE>  (5) 
-14.324

>  <name>  (5) 
4

>  <ligand_id>  (5) 
4

>  <original_smiles>  (5) 
[H]c1nc(C([H])([H])[H])c([H])c(C([H])([H])Oc2c([H])c([H])c3c(c2[H])C([H])([H])N(C(=O)C([H])(N([H])C(=O)C([H])(N([H])C([H])([H])[H])C([H])([H])[H])C(C([H])([H])[H])(C([H])([H])[H])C([H])([H])[H])C([H])(C(=O)N([H])C2([H])c4c([H])c([H])c([H])c([H])c4C([H])([H])C([H])([H])C2([H])[H])C3([H])[H])c1C([H])([H])C([H])([H])C([H])([H])N([H])C(=O)N1C([H])([H])C([H])([H])C([H])([H])C([H])(n2nc(-c3c([H])c([H])c(Oc4c([H])c([H])c(F)c([H])c4F)c([H])c3[H])c(C(=O)N([H])[H])c2N([H])[H])C1([H])[H]

>  <smiles>  (5) 
[H]c1nc(C([H])([H])[H])c([H])c(C([H])([H])Oc2c([H])c([H])c3c(c2[H])C([H])([H])N(C(=O)C([H])(N([H])C(=O)C([H])(N([H])C([H])([H])[H])C([H])([H])[H])C(C([H])([H])[H])(C([H])([H])[H])C([H])([H])[H])C([H])(C(=O)N([H])C2([H])c4c([H])c([H])c([H])c([H])c4C([H])([H])C([H])([H])C2([H])[H])C3([H])[H])c1C([H])([H])C([H])([H])C([H])([H])N([H])C(=O)N1C([H])([H])C([H])([H])C([H])([H])C([H])(n2nc(-c3c([H])c([H])c(Oc4c([H])c([H])c(F)c([H])c4F)c([H])c3[H])c(C(=O)N([H])[H])c2N([H])[H])C1([H])[H]

$$$$
5:0:0
     RDKit          3D

 99108  0  0  1  0  0  0  0  0999 V2000
  -31.9720  -23.6250   20.1840 C   0  0  0  0  0  3  0  0  0  0  0  0
  -31.0250  -24.6690   20.3740 C   0  0  0  0  0  0  0  0  0  0  0  0
  -31.6560  -22.4490   19.4640 C   0  0  0  0  0  0  0  0  0  0  0  0
  -30.3880  -22.3880   18.8250 C   0  0  0  0  0  0  0  0  0  0  0  0
  -29.6970  -24.5430   19.8720 C   0  0  0  0  0  0  0  0  0  0  0  0
  -29.4180  -23.4160   19.0400 C   0  0  0  0  0  0  0  0  0  0  0  0
  -31.4530  -25.9090   21.1470 C   0  0  0  0  0  1  0  0  0  0  0  0
  -30.0630  -21.1710   17.9540 C   0  0  0  0  0  1  0  0  0  0  0  0
  -27.8510  -23.2630   18.3140 Cl  0  0  0  0  0  0  0  0  0  0  0  0
  -32.5900  -21.2110   19.5350 C   0  0  0  0  0  2  0  0  0  0  0  0
  -33.8690  -21.1510   18.6380 C   0  0  0  0  0  2  0  0  0  0  0  0
  -33.4400  -18.6160   18.2950 C   0  0  0  0  0  3  0  0  0  0  0  0
  -34.6970  -19.8130   16.5990 C   0  0  0  0  0  3  0  0  0  0  0  0
  -33.3690  -17.4890   17.4440 C   0  0  0  0  0  3  0  0  0  0  0  0
  -34.6500  -18.6700   15.7620 C   0  0  0  0  0  3  0  0  0  0  0  0
  -34.0210  -19.8290   17.8440 C   0  0  0  0  0  0  0  0  0  0  0  0
  -33.8870  -17.5360   16.1330 C   0  0  0  0  0  0  0  0  0  0  0  0
  -33.5850  -16.3940   15.1400 C   0  0  0  0  0  2  0  0  0  0  0  0
  -32.0660  -16.2200   14.7510 C   0  0  0  0  0  2  0  0  0  0  0  0
  -32.0260  -18.1330   13.0540 C   0  0  0  0  0  0  0  0  0  0  0  0
  -32.5100  -18.0350   10.6900 C   0  0  0  0  0  2  0  0  0  0  0  0
  -33.0650  -19.3380   10.0990 C   0  0  0  0  0  2  0  0  0  0  0  0
  -31.9110  -20.1830    9.5590 C   0  0  0  0  0  2  0  0  0  0  0  0
  -30.8280  -20.4350   10.6380 C   0  0  0  0  0  3  0  0  0  0  0  0
  -30.4000  -19.1260   11.3730 C   0  0  0  0  0  2  0  0  0  0  0  0
  -31.5740  -18.3220   11.7880 N   0  0  0  0  0  0  0  0  0  0  0  0
  -33.1260  -18.5130   13.4170 O   0  0  0  0  0  0  0  0  0  0  0  0
  -31.4620  -17.0890   13.6950 N   0  0  0  0  0  0  0  0  0  0  0  0
  -30.5780  -16.7600   13.3240 H   0  0  0  0  0  0  0  0  0  0  0  0
  -29.2930  -22.4820   10.2360 C   0  0  0  0  0  0  0  0  0  0  0  0
  -28.2220  -22.6790    9.4020 C   0  0  0  0  0  0  0  0  0  0  0  0
  -28.0300  -21.4440    8.7100 C   0  0  0  0  0  0  0  0  0  0  0  0
  -29.6900  -21.1640   10.0540 N   0  0  0  0  0  0  0  0  0  0  0  0
  -28.8900  -20.5300    9.1540 N   0  0  0  0  0  0  0  0  0  0  0  0
  -27.0990  -21.0900    7.6240 C   0  0  0  0  0  0  0  0  0  0  0  0
  -26.1560  -20.0470    7.7640 C   0  0  0  0  0  3  0  0  0  0  0  0
  -25.2640  -19.7410    6.7140 C   0  0  0  0  0  3  0  0  0  0  0  0
  -25.2990  -20.4810    5.5130 C   0  0  0  0  0  0  0  0  0  0  0  0
  -26.2530  -21.5060    5.3670 C   0  0  0  0  0  3  0  0  0  0  0  0
  -27.1450  -21.8050    6.4110 C   0  0  0  0  0  3  0  0  0  0  0  0
  -24.4920  -20.2370    4.4300 O   0  0  0  0  0  0  0  0  0  0  0  0
  -23.2030  -19.7920    4.5790 C   0  0  0  0  0  0  0  0  0  0  0  0
  -22.2150  -20.5830    5.2050 C   0  0  0  0  0  3  0  0  0  0  0  0
  -20.8860  -20.1200    5.2740 C   0  0  0  0  0  3  0  0  0  0  0  0
  -20.5420  -18.8750    4.7100 C   0  0  0  0  0  0  0  0  0  0  0  0
  -21.5270  -18.0900    4.0830 C   0  0  0  0  0  3  0  0  0  0  0  0
  -22.8520  -18.5500    4.0160 C   0  0  0  0  0  0  0  0  0  0  0  0
  -23.7900  -17.8010    3.3890 F   0  0  0  0  0  0  0  0  0  0  0  0
  -19.2650  -18.4320    4.7750 F   0  0  0  0  0  0  0  0  0  0  0  0
  -27.4720  -23.9620    9.1890 C   0  0  0  0  0  0  0  0  0  0  0  0
  -26.1830  -23.8730    8.8860 N   0  0  0  0  0  0  0  0  0  0  0  0
  -28.0160  -25.0560    9.3460 O   0  0  0  0  0  0  0  0  0  0  0  0
  -25.7380  -22.9710    8.7800 H   0  0  0  0  0  0  0  0  0  0  0  0
  -25.6340  -24.7090    8.7470 H   0  0  0  0  0  0  0  0  0  0  0  0
  -29.9670  -23.3170   11.1210 N   0  0  0  0  0  0  0  0  0  0  0  0
  -29.7160  -24.2940   11.2270 H   0  0  0  0  0  0  0  0  0  0  0  0
  -30.7760  -23.0560   11.6730 H   0  0  0  0  0  0  0  0  0  0  0  0
  -28.5450  -25.4820   20.3590 C   0  0  0  0  0  2  0  0  0  0  0  0
  -28.4940  -26.8330   19.8490 O   0  0  0  0  0  0  0  0  0  0  0  0
  -24.3260  -31.6810   23.1350 C   0  0  0  0  0  0  0  0  0  0  0  0
  -27.2710  -27.4880   19.9400 C   0  0  0  0  0  0  0  0  0  0  0  0
  -23.2190  -30.2890   21.4120 C   0  0  0  0  0  3  0  0  0  0  0  0
  -24.7790  -28.8630   19.9740 C   0  0  0  0  0  0  0  0  0  0  0  0
  -25.7290  -30.7710   21.2830 C   0  0  0  0  0  2  0  0  0  0  0  0
  -25.9000  -29.4270   20.5980 C   0  0  0  0  0  0  0  0  0  0  0  0
  -27.1480  -28.7490   20.5730 C   0  0  0  0  0  3  0  0  0  0  0  0
  -26.1240  -26.9320   19.3280 C   0  0  0  0  0  3  0  0  0  0  0  0
  -24.8860  -27.6150   19.3360 C   0  0  0  0  0  3  0  0  0  0  0  0
  -23.4910  -29.6610   20.0180 C   0  0  0  0  0  2  0  0  0  0  0  0
  -24.4400  -30.9280   22.0050 N   0  0  0  0  0  0  0  0  0  0  0  0
  -23.2200  -31.8840   23.6610 O   0  0  0  0  0  0  0  0  0  0  0  0
  -22.5890  -29.2110   22.3240 C   0  0  0  0  0  0  0  0  0  0  0  0
  -21.2770  -28.9710   22.1530 N   0  0  0  0  0  0  0  0  0  0  0  0
  -23.2800  -28.5870   23.1350 O   0  0  0  0  0  0  0  0  0  0  0  0
  -20.7840  -29.5240   21.4660 H   0  0  0  0  0  0  0  0  0  0  0  0
  -17.9470  -27.6180   22.5310 C   0  0  0  0  0  0  0  0  0  0  0  0
  -20.4850  -27.9690   22.8640 C   0  0  0  0  0  3  0  0  0  0  0  0
  -20.6580  -26.5710   22.2270 C   0  0  0  0  0  2  0  0  0  0  0  0
  -19.5900  -26.2490   21.1770 C   0  0  0  0  0  2  0  0  0  0  0  0
  -18.1900  -26.3130   21.7950 C   0  0  0  0  0  2  0  0  0  0  0  0
  -19.0240  -28.4040   23.0150 C   0  0  0  0  0  0  0  0  0  0  0  0
  -18.7450  -29.6320   23.6530 C   0  0  0  0  0  3  0  0  0  0  0  0
  -17.4160  -30.0700   23.8190 C   0  0  0  0  0  3  0  0  0  0  0  0
  -16.3520  -29.2770   23.3540 C   0  0  0  0  0  3  0  0  0  0  0  0
  -16.6170  -28.0540   22.7150 C   0  0  0  0  0  3  0  0  0  0  0  0
  -25.5680  -32.3410   23.8110 C   0  0  0  0  0  3  0  0  0  0  0  0
  -25.2280  -33.7410   24.0980 N   0  0  0  0  0  0  0  0  0  0  0  0
  -25.5760  -34.7810   23.3290 C   0  0  0  0  0  0  0  0  0  0  0  0
  -26.2920  -34.6630   22.3290 O   0  0  0  0  0  0  0  0  0  0  0  0
  -24.6080  -33.9070   24.8780 H   0  0  0  0  0  0  0  0  0  0  0  0
  -23.8300  -36.5230   22.8500 C   0  0  0  0  0  1  0  0  0  0  0  0
  -25.0430  -36.1690   23.7270 C   0  0  0  0  0  3  0  0  0  0  0  0
  -27.1330  -37.1040   24.6100 C   0  0  0  0  0  1  0  0  0  0  0  0
  -26.0570  -37.2440   23.6340 N   0  0  0  0  0  0  0  0  0  0  0  0
  -25.6270  -38.1580   23.7650 H   0  0  0  0  0  0  0  0  0  0  0  0
  -26.0280  -31.5960   25.1240 C   0  0  1  0  0  0  0  0  0  0  0  0
  -24.8840  -31.3550   26.1370 C   0  0  0  0  0  1  0  0  0  0  0  0
  -26.6490  -30.2200   24.7830 C   0  0  0  0  0  1  0  0  0  0  0  0
  -27.1390  -32.4100   25.8300 C   0  0  0  0  0  1  0  0  0  0  0  0
  1  2  1  0
  2  7  1  0
  3 10  1  0
  3  1  2  0
  4  6  2  0
  4  3  1  0
  5 58  1  0
  5  2  2  0
  6  5  1  0
  8  4  1  0
  9  6  1  0
 11 10  1  0
 13 16  2  0
 14 12  2  0
 15 17  2  0
 15 13  1  0
 16 12  1  0
 16 11  1  0
 17 14  1  0
 18 17  1  0
 19 18  1  0
 20 27  2  0
 20 28  1  0
 21 26  1  0
 22 21  1  0
 23 22  1  0
 24 23  1  0
 24 25  1  0
 25 26  1  0
 26 20  1  0
 28 19  1  0
 29 28  1  0
 30 55  1  0
 31 30  2  0
 32 34  2  0
 32 31  1  0
 33 30  1  0
 33 24  1  0
 34 33  1  0
 35 36  1  0
 35 32  1  0
 37 36  2  0
 38 37  1  0
 39 38  2  0
 39 40  1  0
 40 35  2  0
 41 42  1  0
 41 38  1  0
 42 43  1  0
 43 44  2  0
 45 49  1  0
 45 44  1  0
 46 45  2  0
 47 46  1  0
 47 42  2  0
 48 47  1  0
 50 52  2  0
 50 31  1  0
 51 50  1  0
 53 51  1  0
 54 51  1  0
 55 56  1  0
 55 57  1  0
 59 61  1  0
 59 58  1  0
 60 71  2  0
 61 66  1  0
 62 70  1  0
 62 72  1  0
 63 69  1  0
 63 65  1  0
 64 70  1  0
 65 64  1  0
 66 65  2  0
 67 68  1  0
 67 61  2  0
 68 63  2  0
 69 62  1  0
 70 60  1  0
 72 74  2  0
 73 72  1  0
 75 73  1  0
 76 85  2  0
 76 81  1  0
 77 73  1  0
 77 81  1  0
 78 77  1  0
 79 80  1  0
 79 78  1  0
 80 76  1  0
 81 82  2  0
 82 83  1  0
 84 83  2  0
 85 84  1  0
 86 60  1  0
 86 87  1  0
 86 96  1  0
 87 90  1  0
 88 92  1  0
 88 87  1  0
 89 88  2  0
 92 91  1  0
 94 92  1  0
 94 95  1  0
 94 93  1  0
 96 99  1  1
 96 97  1  0
 98 96  1  0
M  ISO  4  20 100  28 100  58 101  59 101
M  END
>  <TORSDO>  (6) 
F 22

>  <SCORE>  (6) 
-7.408

>  <name>  (6) 
5

>  <ligand_id>  (6) 
5

>  <original_smiles>  (6) 
[H]c1c([H])c([H])c2c(c1[H])C([H])([H])C([H])([H])C([H])([H])C2([H])N([H])C(=O)C1([H])N(C(=O)C([H])(N([H])C(=O)C([H])(N([H])C([H])([H])[H])C([H])([H])[H])C(C([H])([H])[H])(C([H])([H])[H])C([H])([H])[H])C([H])([H])c2c([H])c(OC([H])([H])c3c(Cl)c(C([H])([H])[H])c(C([H])([H])C([H])([H])c4c([H])c([H])c(C([H])([H])C([H])([H])N([H])C(=O)N5C([H])([H])C([H])([H])C([H])([H])C([H])(n6nc(-c7c([H])c([H])c(Oc8c([H])c([H])c(F)c([H])c8F)c([H])c7[H])c(C(=O)N([H])[H])c6N([H])[H])C5([H])[H])c([H])c4[H])c([H])c3C([H])([H])[H])c([H])c([H])c2C1([H])[H]

>  <smiles>  (6) 
[H]c1c([H])c([H])c2c(c1[H])C([H])([H])C([H])([H])C([H])([H])C2([H])N([H])C(=O)C1([H])N(C(=O)C([H])(N([H])C(=O)C([H])(N([H])C([H])([H])[H])C([H])([H])[H])C(C([H])([H])[H])(C([H])([H])[H])C([H])([H])[H])C([H])([H])c2c([H])c(OC([H])([H])c3c(Cl)c(C([H])([H])[H])c(C([H])([H])C([H])([H])c4c([H])c([H])c(C([H])([H])C([H])([H])N([H])C(=O)N5C([H])([H])C([H])([H])C([H])([H])C([H])(n6nc(-c7c([H])c([H])c(Oc8c([H])c([H])c(F)c([H])c8F)c([H])c7[H])c(C(=O)N([H])[H])c6N([H])[H])C5([H])[H])c([H])c4[H])c([H])c3C([H])([H])[H])c([H])c([H])c2C1([H])[H]

$$$$
6:0:0
     RDKit          3D

 95103  0  0  1  0  0  0  0  0999 V2000
  -32.1270  -23.4630   20.7780 C   0  0  0  0  0  3  0  0  0  0  0  0
  -30.8150  -25.3930   19.3530 C   0  0  0  0  0  3  0  0  0  0  0  0
  -30.8400  -23.8430   21.2220 C   0  0  0  0  0  0  0  0  0  0  0  0
  -30.1740  -24.8570   20.4880 C   0  0  0  0  0  0  0  0  0  0  0  0
  -32.6850  -24.0730   19.6440 C   0  0  0  0  0  0  0  0  0  0  0  0
  -32.0380  -25.0160   18.9320 N   0  0  0  0  0  0  0  0  0  0  0  0
  -34.2600  -23.6000   19.1270 Cl  0  0  0  0  0  0  0  0  0  0  0  0
  -30.2000  -23.1950   22.4510 C   0  0  0  0  0  2  0  0  0  0  0  0
  -30.9510  -21.9810   23.0340 C   0  0  0  0  0  2  0  0  0  0  0  0
  -30.1950  -21.3210   24.2000 C   0  0  0  0  0  2  0  0  0  0  0  0
  -30.9160  -20.0990   24.8060 C   0  0  0  0  0  2  0  0  0  0  0  0
  -30.5090  -18.7230   24.2390 C   0  0  0  0  0  2  0  0  0  0  0  0
  -31.0170  -18.3800   22.8240 C   0  0  0  0  0  2  0  0  0  0  0  0
  -30.5650  -16.9710   22.4020 C   0  0  0  0  0  2  0  0  0  0  0  0
  -31.2440  -16.4240   21.1310 C   0  0  0  0  0  2  0  0  0  0  0  0
  -31.2190  -14.2010   19.9580 C   0  0  0  0  0  0  0  0  0  0  0  0
  -30.7850  -12.0020   18.9120 C   0  0  0  0  0  2  0  0  0  0  0  0
  -29.7660  -12.1020   17.7620 C   0  0  0  0  0  2  0  0  0  0  0  0
  -28.3200  -12.0280   18.2930 C   0  0  0  0  0  2  0  0  0  0  0  0
  -28.0740  -12.9980   19.4760 C   0  0  0  0  0  3  0  0  0  0  0  0
  -29.1800  -12.8380   20.5410 C   0  0  0  0  0  2  0  0  0  0  0  0
  -30.4930  -13.0530   19.8960 N   0  0  0  0  0  0  0  0  0  0  0  0
  -32.1690  -14.4580   19.2100 O   0  0  0  0  0  0  0  0  0  0  0  0
  -30.8300  -15.0380   20.9300 N   0  0  0  0  0  0  0  0  0  0  0  0
  -30.1070  -14.6850   21.5360 H   0  0  0  0  0  0  0  0  0  0  0  0
  -25.7900  -13.7570   20.4040 C   0  0  0  0  0  0  0  0  0  0  0  0
  -24.6980  -13.0500   20.8310 C   0  0  0  0  0  0  0  0  0  0  0  0
  -25.0460  -11.6710   20.7050 C   0  0  0  0  0  0  0  0  0  0  0  0
  -26.7420  -12.8100   20.0500 N   0  0  0  0  0  0  0  0  0  0  0  0
  -26.2980  -11.5480   20.2840 N   0  0  0  0  0  0  0  0  0  0  0  0
  -24.2420  -10.4590   20.9030 C   0  0  0  0  0  0  0  0  0  0  0  0
  -24.6470   -9.4410   21.7950 C   0  0  0  0  0  3  0  0  0  0  0  0
  -23.8480   -8.2930   21.9790 C   0  0  0  0  0  3  0  0  0  0  0  0
  -22.6280   -8.1560   21.2730 C   0  0  0  0  0  0  0  0  0  0  0  0
  -22.2420   -9.1610   20.3690 C   0  0  0  0  0  3  0  0  0  0  0  0
  -23.0420  -10.3000   20.1810 C   0  0  0  0  0  3  0  0  0  0  0  0
  -21.7980   -7.0650   21.3710 O   0  0  0  0  0  0  0  0  0  0  0  0
  -21.6430   -6.3820   22.5510 C   0  0  0  0  0  0  0  0  0  0  0  0
  -21.2210   -7.0240   23.7340 C   0  0  0  0  0  3  0  0  0  0  0  0
  -21.0080   -6.2720   24.9060 C   0  0  0  0  0  3  0  0  0  0  0  0
  -21.2080   -4.8790   24.8960 C   0  0  0  0  0  0  0  0  0  0  0  0
  -21.6240   -4.2360   23.7170 C   0  0  0  0  0  3  0  0  0  0  0  0
  -21.8380   -4.9850   22.5460 C   0  0  0  0  0  0  0  0  0  0  0  0
  -22.2170   -4.3580   21.4070 F   0  0  0  0  0  0  0  0  0  0  0  0
  -20.9970   -4.1540   26.0200 F   0  0  0  0  0  0  0  0  0  0  0  0
  -23.3690  -13.6160   21.2450 C   0  0  0  0  0  0  0  0  0  0  0  0
  -22.6810  -12.9580   22.1710 N   0  0  0  0  0  0  0  0  0  0  0  0
  -22.9540  -14.6780   20.7800 O   0  0  0  0  0  0  0  0  0  0  0  0
  -23.0310  -12.0990   22.5710 H   0  0  0  0  0  0  0  0  0  0  0  0
  -21.7930  -13.3190   22.4880 H   0  0  0  0  0  0  0  0  0  0  0  0
  -26.0490  -15.1180   20.2710 N   0  0  0  0  0  0  0  0  0  0  0  0
  -25.3490  -15.8270   20.4680 H   0  0  0  0  0  0  0  0  0  0  0  0
  -26.9140  -15.5040   19.9110 H   0  0  0  0  0  0  0  0  0  0  0  0
  -28.7980  -25.4010   20.8630 C   0  0  0  0  0  2  0  0  0  0  0  0
  -28.7630  -26.8140   20.7010 O   0  0  0  0  0  0  0  0  0  0  0  0
  -24.6240  -31.9670   23.2520 C   0  0  0  0  0  0  0  0  0  0  0  0
  -27.5400  -27.4380   20.5950 C   0  0  0  0  0  0  0  0  0  0  0  0
  -23.5340  -30.4260   21.6530 C   0  0  0  0  0  3  0  0  0  0  0  0
  -25.0940  -28.8420   20.4010 C   0  0  0  0  0  0  0  0  0  0  0  0
  -26.0510  -30.8540   21.5410 C   0  0  0  0  0  2  0  0  0  0  0  0
  -26.2040  -29.4490   20.9980 C   0  0  0  0  0  0  0  0  0  0  0  0
  -27.4290  -28.7550   21.0850 C   0  0  0  0  0  3  0  0  0  0  0  0
  -26.4080  -26.8300   20.0000 C   0  0  0  0  0  3  0  0  0  0  0  0
  -25.1890  -27.5300   19.9000 C   0  0  0  0  0  3  0  0  0  0  0  0
  -23.8240  -29.6600   20.3330 C   0  0  0  0  0  2  0  0  0  0  0  0
  -24.7510  -31.1010   22.2070 N   0  0  0  0  0  0  0  0  0  0  0  0
  -23.5130  -32.2420   23.7240 O   0  0  0  0  0  0  0  0  0  0  0  0
  -22.8670  -29.4520   22.6490 C   0  0  0  0  0  0  0  0  0  0  0  0
  -21.5590  -29.2090   22.4600 N   0  0  0  0  0  0  0  0  0  0  0  0
  -23.5230  -28.9130   23.5440 O   0  0  0  0  0  0  0  0  0  0  0  0
  -21.0920  -29.6940   21.7080 H   0  0  0  0  0  0  0  0  0  0  0  0
  -18.2050  -27.9280   22.8500 C   0  0  0  0  0  0  0  0  0  0  0  0
  -20.7310  -28.2970   23.2490 C   0  0  0  0  0  3  0  0  0  0  0  0
  -20.9150  -26.8350   22.7820 C   0  0  0  0  0  2  0  0  0  0  0  0
  -19.8860  -26.4020   21.7330 C   0  0  0  0  0  2  0  0  0  0  0  0
  -18.4650  -26.5410   22.2860 C   0  0  0  0  0  2  0  0  0  0  0  0
  -19.2690  -28.7570   23.2880 C   0  0  0  0  0  0  0  0  0  0  0  0
  -18.9770  -30.0510   23.7710 C   0  0  0  0  0  3  0  0  0  0  0  0
  -17.6490  -30.5160   23.8250 C   0  0  0  0  0  3  0  0  0  0  0  0
  -16.5960  -29.6830   23.4060 C   0  0  0  0  0  3  0  0  0  0  0  0
  -16.8750  -28.3910   22.9250 C   0  0  0  0  0  3  0  0  0  0  0  0
  -25.8640  -32.6720   23.8870 C   0  0  0  0  0  3  0  0  0  0  0  0
  -26.3840  -31.9580   25.1950 C   0  0  1  0  0  0  0  0  0  0  0  0
  -25.2680  -31.6460   26.2190 C   0  0  0  0  0  1  0  0  0  0  0  0
  -27.0890  -30.6260   24.8460 C   0  0  0  0  0  1  0  0  0  0  0  0
  -27.4380  -32.8480   25.8940 C   0  0  0  0  0  1  0  0  0  0  0  0
  -25.4860  -34.0630   24.1680 N   0  0  0  0  0  0  0  0  0  0  0  0
  -25.8660  -35.1170   23.4340 C   0  0  0  0  0  0  0  0  0  0  0  0
  -26.6410  -35.0230   22.4780 O   0  0  0  0  0  0  0  0  0  0  0  0
  -24.8060  -34.2070   24.9000 H   0  0  0  0  0  0  0  0  0  0  0  0
  -24.1500  -36.8660   22.8640 C   0  0  0  0  0  1  0  0  0  0  0  0
  -25.2940  -36.4940   23.8200 C   0  0  0  0  0  3  0  0  0  0  0  0
  -27.2970  -37.4280   24.8900 C   0  0  0  0  0  1  0  0  0  0  0  0
  -26.3080  -37.5710   23.8250 N   0  0  0  0  0  0  0  0  0  0  0  0
  -25.8660  -38.4810   23.9210 H   0  0  0  0  0  0  0  0  0  0  0  0
  1  3  1  0
  2  4  1  0
  3  8  1  0
  4 54  1  0
  4  3  2  0
  5  1  2  0
  6  2  2  0
  6  5  1  0
  7  5  1  0
  8  9  1  0
  9 10  1  0
 10 11  1  0
 12 11  1  0
 13 12  1  0
 14 13  1  0
 15 14  1  0
 16 24  1  0
 17 22  1  0
 18 19  1  0
 18 17  1  0
 20 19  1  0
 20 29  1  0
 20 21  1  0
 22 16  1  0
 22 21  1  0
 23 16  2  0
 24 15  1  0
 24 25  1  0
 26 27  2  0
 27 46  1  0
 28 27  1  0
 28 31  1  0
 29 30  1  0
 29 26  1  0
 30 28  2  0
 31 32  1  0
 32 33  2  0
 34 37  1  0
 34 33  1  0
 35 34  2  0
 36 35  1  0
 36 31  2  0
 37 38  1  0
 38 39  1  0
 39 40  2  0
 41 40  1  0
 41 45  1  0
 42 41  2  0
 43 38  2  0
 43 42  1  0
 44 43  1  0
 46 47  1  0
 47 50  1  0
 47 49  1  0
 48 46  2  0
 51 26  1  0
 51 52  1  0
 53 51  1  0
 55 54  1  0
 56 67  2  0
 57 55  1  0
 57 62  1  0
 58 66  1  0
 58 68  1  0
 59 61  1  0
 60 66  1  0
 61 62  2  0
 61 60  1  0
 63 57  2  0
 64 63  1  0
 64 59  2  0
 65 59  1  0
 65 58  1  0
 66 56  1  0
 68 70  2  0
 69 68  1  0
 71 69  1  0
 72 81  2  0
 72 77  1  0
 73 69  1  0
 73 77  1  0
 74 73  1  0
 75 76  1  0
 75 74  1  0
 76 72  1  0
 77 78  2  0
 78 79  1  0
 80 79  2  0
 81 80  1  0
 82 56  1  0
 82 87  1  0
 82 83  1  0
 83 86  1  1
 83 84  1  0
 85 83  1  0
 87 90  1  0
 88 92  1  0
 88 87  1  0
 89 88  2  0
 92 91  1  0
 92 94  1  0
 94 95  1  0
 94 93  1  0
M  ISO  4  16 100  24 100  54 101  55 101
M  END
>  <TORSDO>  (7) 
F 25

>  <SCORE>  (7) 
-10.447

>  <name>  (7) 
6

>  <ligand_id>  (7) 
6

>  <original_smiles>  (7) 
[H]c1nc(Cl)c([H])c(C([H])([H])C([H])([H])C([H])([H])C([H])([H])C([H])([H])C([H])([H])C([H])([H])C([H])([H])N([H])C(=O)N2C([H])([H])C([H])([H])C([H])([H])C([H])(n3nc(-c4c([H])c([H])c(Oc5c([H])c([H])c(F)c([H])c5F)c([H])c4[H])c(C(=O)N([H])[H])c3N([H])[H])C2([H])[H])c1C([H])([H])Oc1c([H])c([H])c2c(c1[H])C([H])([H])N(C(=O)C([H])(N([H])C(=O)C([H])(N([H])C([H])([H])[H])C([H])([H])[H])C(C([H])([H])[H])(C([H])([H])[H])C([H])([H])[H])C([H])(C(=O)N([H])C1([H])c3c([H])c([H])c([H])c([H])c3C([H])([H])C([H])([H])C1([H])[H])C2([H])[H]

>  <smiles>  (7) 
[H]c1nc(Cl)c([H])c(C([H])([H])C([H])([H])C([H])([H])C([H])([H])C([H])([H])C([H])([H])C([H])([H])C([H])([H])N([H])C(=O)N2C([H])([H])C([H])([H])C([H])([H])C([H])(n3nc(-c4c([H])c([H])c(Oc5c([H])c([H])c(F)c([H])c5F)c([H])c4[H])c(C(=O)N([H])[H])c3N([H])[H])C2([H])[H])c1C([H])([H])Oc1c([H])c([H])c2c(c1[H])C([H])([H])N(C(=O)C([H])(N([H])C(=O)C([H])(N([H])C([H])([H])[H])C([H])([H])[H])C(C([H])([H])[H])(C([H])([H])[H])C([H])([H])[H])C([H])(C(=O)N([H])C1([H])c3c([H])c([H])c([H])c([H])c3C([H])([H])C([H])([H])C1([H])[H])C2([H])[H]

$$$$
7:0:0
     RDKit          3D

 91 99  0  0  1  0  0  0  0  0999 V2000
  -30.3790  -20.8590   19.9690 C   0  0  0  0  0  3  0  0  0  0  0  0
  -30.8160  -19.5080   19.9240 C   0  0  0  0  0  0  0  0  0  0  0  0
  -29.8640  -18.4400   19.9280 C   0  0  0  0  0  0  0  0  0  0  0  0
  -29.0050  -21.1550   20.0120 C   0  0  0  0  0  0  0  0  0  0  0  0
  -28.5080  -18.8440   20.0560 C   0  0  0  0  0  0  0  0  0  0  0  0
  -32.3090  -19.2610   19.7660 C   0  0  0  0  0  1  0  0  0  0  0  0
  -27.3670  -17.8470   20.0150 C   0  0  0  0  0  1  0  0  0  0  0  0
  -28.1070  -20.1440   20.1060 N   0  0  0  0  0  0  0  0  0  0  0  0
  -30.2950  -16.9780   19.5280 C   0  0  0  0  0  2  0  0  0  0  0  0
  -30.7170  -14.5920   20.1460 C   0  0  0  0  0  0  0  0  0  0  0  0
  -30.3600  -12.3910   19.0940 C   0  0  0  0  0  2  0  0  0  0  0  0
  -29.4080  -12.5920   17.8970 C   0  0  0  0  0  2  0  0  0  0  0  0
  -27.9440  -12.4620   18.3510 C   0  0  0  0  0  2  0  0  0  0  0  0
  -27.6280  -13.3060   19.6160 C   0  0  0  0  0  3  0  0  0  0  0  0
  -28.7130  -13.1480   20.7100 C   0  0  0  0  0  2  0  0  0  0  0  0
  -30.0200  -13.4180   20.1000 N   0  0  0  0  0  0  0  0  0  0  0  0
  -31.8850  -14.6480   19.7510 O   0  0  0  0  0  0  0  0  0  0  0  0
  -30.0090  -15.7460   20.3330 N   0  0  0  0  0  0  0  0  0  0  0  0
  -29.0830  -15.6370   20.7130 H   0  0  0  0  0  0  0  0  0  0  0  0
  -25.2470  -13.9010   20.3810 C   0  0  0  0  0  0  0  0  0  0  0  0
  -24.1910  -13.1320   20.7840 C   0  0  0  0  0  0  0  0  0  0  0  0
  -24.6540  -11.7820   20.7520 C   0  0  0  0  0  0  0  0  0  0  0  0
  -26.2900  -13.0230   20.1320 N   0  0  0  0  0  0  0  0  0  0  0  0
  -25.9380  -11.7420   20.4160 N   0  0  0  0  0  0  0  0  0  0  0  0
  -23.9300  -10.5220   20.9600 C   0  0  0  0  0  0  0  0  0  0  0  0
  -24.3790   -9.5580   21.8900 C   0  0  0  0  0  3  0  0  0  0  0  0
  -23.6520   -8.3610   22.0870 C   0  0  0  0  0  3  0  0  0  0  0  0
  -22.4630   -8.1230   21.3570 C   0  0  0  0  0  0  0  0  0  0  0  0
  -22.0350   -9.0780   20.4170 C   0  0  0  0  0  3  0  0  0  0  0  0
  -22.7610  -10.2630   20.2180 C   0  0  0  0  0  3  0  0  0  0  0  0
  -21.7050   -6.9810   21.4650 O   0  0  0  0  0  0  0  0  0  0  0  0
  -21.6770   -6.2480   22.6230 C   0  0  0  0  0  0  0  0  0  0  0  0
  -21.2760   -6.8110   23.8560 C   0  0  0  0  0  3  0  0  0  0  0  0
  -21.1920   -6.0020   25.0060 C   0  0  0  0  0  3  0  0  0  0  0  0
  -21.4980   -4.6300   24.9270 C   0  0  0  0  0  0  0  0  0  0  0  0
  -21.8920   -4.0660   23.7010 C   0  0  0  0  0  3  0  0  0  0  0  0
  -21.9780   -4.8730   22.5520 C   0  0  0  0  0  0  0  0  0  0  0  0
  -22.3370   -4.3200   21.3690 F   0  0  0  0  0  0  0  0  0  0  0  0
  -21.4120   -3.8500   26.0300 F   0  0  0  0  0  0  0  0  0  0  0  0
  -22.8000  -13.6120   21.0810 C   0  0  0  0  0  0  0  0  0  0  0  0
  -22.0850  -12.9290   21.9680 N   0  0  0  0  0  0  0  0  0  0  0  0
  -22.3540  -14.6350   20.5610 O   0  0  0  0  0  0  0  0  0  0  0  0
  -22.4560  -12.1030   22.4180 H   0  0  0  0  0  0  0  0  0  0  0  0
  -21.1540  -13.2380   22.2090 H   0  0  0  0  0  0  0  0  0  0  0  0
  -25.3990  -15.2670   20.1790 N   0  0  0  0  0  0  0  0  0  0  0  0
  -24.6140  -15.9020   20.2670 H   0  0  0  0  0  0  0  0  0  0  0  0
  -26.2050  -15.6890   19.7410 H   0  0  0  0  0  0  0  0  0  0  0  0
  -28.4140  -22.5510   19.6700 C   0  0  0  0  0  2  0  0  0  0  0  0
  -28.9580  -23.9040   20.2830 C   0  0  0  0  0  2  0  0  0  0  0  0
  -28.0540  -25.1010   19.8160 C   0  0  0  0  0  2  0  0  0  0  0  0
  -28.3020  -26.5000   20.1940 O   0  0  0  0  0  0  0  0  0  0  0  0
  -24.6110  -31.8610   23.2530 C   0  0  0  0  0  0  0  0  0  0  0  0
  -27.1920  -27.3550   20.1360 C   0  0  0  0  0  0  0  0  0  0  0  0
  -23.3970  -30.4880   21.6060 C   0  0  0  0  0  3  0  0  0  0  0  0
  -24.8340  -28.9640   20.1550 C   0  0  0  0  0  0  0  0  0  0  0  0
  -25.9360  -30.8030   21.4200 C   0  0  0  0  0  2  0  0  0  0  0  0
  -26.0050  -29.4380   20.7580 C   0  0  0  0  0  0  0  0  0  0  0  0
  -27.1860  -28.6420   20.7510 C   0  0  0  0  0  3  0  0  0  0  0  0
  -26.0020  -26.9490   19.4840 C   0  0  0  0  0  3  0  0  0  0  0  0
  -24.8310  -27.7220   19.5130 C   0  0  0  0  0  3  0  0  0  0  0  0
  -23.5990  -29.8380   20.2150 C   0  0  0  0  0  2  0  0  0  0  0  0
  -24.6670  -31.0650   22.1500 N   0  0  0  0  0  0  0  0  0  0  0  0
  -23.5310  -32.1380   23.7940 O   0  0  0  0  0  0  0  0  0  0  0  0
  -22.7390  -29.4540   22.5490 C   0  0  0  0  0  0  0  0  0  0  0  0
  -21.4130  -29.2790   22.4200 N   0  0  0  0  0  0  0  0  0  0  0  0
  -23.4190  -28.8130   23.3550 O   0  0  0  0  0  0  0  0  0  0  0  0
  -20.9240  -29.8460   21.7400 H   0  0  0  0  0  0  0  0  0  0  0  0
  -18.0330  -28.1010   22.9190 C   0  0  0  0  0  0  0  0  0  0  0  0
  -20.5930  -28.3380   23.1860 C   0  0  0  0  0  3  0  0  0  0  0  0
  -20.6840  -26.9110   22.5970 C   0  0  0  0  0  2  0  0  0  0  0  0
  -19.5770  -26.6060   21.5840 C   0  0  0  0  0  2  0  0  0  0  0  0
  -18.1980  -26.7560   22.2310 C   0  0  0  0  0  2  0  0  0  0  0  0
  -19.1590  -28.8490   23.3540 C   0  0  0  0  0  0  0  0  0  0  0  0
  -18.9510  -30.1080   23.9570 C   0  0  0  0  0  3  0  0  0  0  0  0
  -17.6510  -30.6180   24.1320 C   0  0  0  0  0  3  0  0  0  0  0  0
  -16.5410  -29.8650   23.7150 C   0  0  0  0  0  3  0  0  0  0  0  0
  -16.7310  -28.6100   23.1110 C   0  0  0  0  0  3  0  0  0  0  0  0
  -25.9010  -32.4790   23.8780 C   0  0  0  0  0  3  0  0  0  0  0  0
  -26.4120  -31.6950   25.1500 C   0  0  1  0  0  0  0  0  0  0  0  0
  -25.3140  -31.4680   26.2130 C   0  0  0  0  0  1  0  0  0  0  0  0
  -26.9850  -30.3140   24.7560 C   0  0  0  0  0  1  0  0  0  0  0  0
  -27.5630  -32.4800   25.8210 C   0  0  0  0  0  1  0  0  0  0  0  0
  -25.6010  -33.8780   24.2130 N   0  0  0  0  0  0  0  0  0  0  0  0
  -25.9220  -34.9300   23.4490 C   0  0  0  0  0  0  0  0  0  0  0  0
  -26.5760  -34.8280   22.4080 O   0  0  0  0  0  0  0  0  0  0  0  0
  -25.0200  -34.0310   25.0260 H   0  0  0  0  0  0  0  0  0  0  0  0
  -24.1840  -36.7200   23.1310 C   0  0  0  0  0  1  0  0  0  0  0  0
  -25.4420  -36.3170   23.9160 C   0  0  0  0  0  3  0  0  0  0  0  0
  -27.5910  -37.2070   24.7040 C   0  0  0  0  0  1  0  0  0  0  0  0
  -26.4700  -37.3710   23.7800 N   0  0  0  0  0  0  0  0  0  0  0  0
  -26.0650  -38.2890   23.9390 H   0  0  0  0  0  0  0  0  0  0  0  0
  1  4  1  0
  2  3  1  0
  2  1  2  0
  3  5  2  0
  4  8  2  0
  5  8  1  0
  6  2  1  0
  7  5  1  0
  9  3  1  0
  9 18  1  0
 10 18  1  0
 11 16  1  0
 12 13  1  0
 12 11  1  0
 14 13  1  0
 14 23  1  0
 14 15  1  0
 16 10  1  0
 16 15  1  0
 17 10  2  0
 18 19  1  0
 20 21  2  0
 21 40  1  0
 22 21  1  0
 22 25  1  0
 23 20  1  0
 23 24  1  0
 24 22  2  0
 25 26  1  0
 26 27  2  0
 28 31  1  0
 28 27  1  0
 29 28  2  0
 30 29  1  0
 30 25  2  0
 31 32  1  0
 32 33  1  0
 33 34  2  0
 35 34  1  0
 35 39  1  0
 36 35  2  0
 37 32  2  0
 37 36  1  0
 38 37  1  0
 40 41  1  0
 41 44  1  0
 41 43  1  0
 42 40  2  0
 45 46  1  0
 45 20  1  0
 47 45  1  0
 48  4  1  0
 48 49  1  0
 50 51  1  0
 50 49  1  0
 52 63  2  0
 53 51  1  0
 53 58  1  0
 54 62  1  0
 54 64  1  0
 55 61  1  0
 55 57  1  0
 56 62  1  0
 57 56  1  0
 58 57  2  0
 59 60  1  0
 59 53  2  0
 60 55  2  0
 61 54  1  0
 62 52  1  0
 64 66  2  0
 65 64  1  0
 67 65  1  0
 68 77  2  0
 68 73  1  0
 69 65  1  0
 69 73  1  0
 70 69  1  0
 71 72  1  0
 71 70  1  0
 72 68  1  0
 73 74  2  0
 74 75  1  0
 76 75  2  0
 77 76  1  0
 78 52  1  0
 78 83  1  0
 78 79  1  0
 79 82  1  1
 79 80  1  0
 81 79  1  0
 83 86  1  0
 84 88  1  0
 84 83  1  0
 85 84  2  0
 88 87  1  0
 90 88  1  0
 90 91  1  0
 90 89  1  0
M  ISO  4  10 100  18 100  50 101  51 101
M  END
>  <TORSDO>  (8) 
F 20

>  <SCORE>  (8) 
-14.053

>  <name>  (8) 
7

>  <ligand_id>  (8) 
7

>  <original_smiles>  (8) 
[H]c1c([H])c([H])c2c(c1[H])C([H])([H])C([H])([H])C([H])([H])C2([H])N([H])C(=O)C1([H])N(C(=O)C([H])(N([H])C(=O)C([H])(N([H])C([H])([H])[H])C([H])([H])[H])C(C([H])([H])[H])(C([H])([H])[H])C([H])([H])[H])C([H])([H])c2c([H])c(OC([H])([H])C([H])([H])C([H])([H])c3nc(C([H])([H])[H])c(C([H])([H])N([H])C(=O)N4C([H])([H])C([H])([H])C([H])([H])C([H])(n5nc(-c6c([H])c([H])c(Oc7c([H])c([H])c(F)c([H])c7F)c([H])c6[H])c(C(=O)N([H])[H])c5N([H])[H])C4([H])[H])c(C([H])([H])[H])c3[H])c([H])c([H])c2C1([H])[H]

>  <smiles>  (8) 
[H]c1c([H])c([H])c2c(c1[H])C([H])([H])C([H])([H])C([H])([H])C2([H])N([H])C(=O)C1([H])N(C(=O)C([H])(N([H])C(=O)C([H])(N([H])C([H])([H])[H])C([H])([H])[H])C(C([H])([H])[H])(C([H])([H])[H])C([H])([H])[H])C([H])([H])c2c([H])c(OC([H])([H])C([H])([H])C([H])([H])c3nc(C([H])([H])[H])c(C([H])([H])N([H])C(=O)N4C([H])([H])C([H])([H])C([H])([H])C([H])(n5nc(-c6c([H])c([H])c(Oc7c([H])c([H])c(F)c([H])c7F)c([H])c6[H])c(C(=O)N([H])[H])c5N([H])[H])C4([H])[H])c(C([H])([H])[H])c3[H])c([H])c([H])c2C1([H])[H]

$$$$
8:0:0
     RDKit          3D

 91 99  0  0  1  0  0  0  0  0999 V2000
  -29.7550  -21.4840   21.9970 C   0  0  0  0  0  3  0  0  0  0  0  0
  -29.8240  -19.2130   20.9310 C   0  0  0  0  0  0  0  0  0  0  0  0
  -29.4090  -20.7140   20.8710 C   0  0  0  0  0  0  0  0  0  0  0  0
  -30.4780  -20.9690   23.0680 C   0  0  0  0  0  0  0  0  0  0  0  0
  -30.4930  -18.8530   22.1510 C   0  0  0  0  0  0  0  0  0  0  0  0
  -31.0260  -21.8560   24.1660 C   0  0  0  0  0  1  0  0  0  0  0  0
  -31.0390  -17.4740   22.4820 C   0  0  0  0  0  1  0  0  0  0  0  0
  -30.8010  -19.6870   23.1540 N   0  0  0  0  0  0  0  0  0  0  0  0
  -29.7660  -17.9030   19.8750 C   0  0  0  0  0  2  0  0  0  0  0  0
  -30.5380  -15.1330   19.9760 C   0  0  0  0  0  0  0  0  0  0  0  0
  -30.4190  -12.7770   19.0300 C   0  0  0  0  0  2  0  0  0  0  0  0
  -29.4330  -12.7380   17.8410 C   0  0  0  0  0  2  0  0  0  0  0  0
  -27.9880  -12.5300   18.3320 C   0  0  0  0  0  2  0  0  0  0  0  0
  -27.6350  -13.4190   19.5520 C   0  0  0  0  0  3  0  0  0  0  0  0
  -28.7410  -13.3990   20.6280 C   0  0  0  0  0  2  0  0  0  0  0  0
  -29.9750  -13.8520   19.9670 N   0  0  0  0  0  0  0  0  0  0  0  0
  -31.7210  -15.2110   19.6200 O   0  0  0  0  0  0  0  0  0  0  0  0
  -29.7290  -16.3060   20.1890 N   0  0  0  0  0  0  0  0  0  0  0  0
  -28.8170  -16.0240   20.5130 H   0  0  0  0  0  0  0  0  0  0  0  0
  -25.2910  -13.9970   20.3900 C   0  0  0  0  0  0  0  0  0  0  0  0
  -24.2400  -13.2180   20.7990 C   0  0  0  0  0  0  0  0  0  0  0  0
  -24.6980  -11.8670   20.7310 C   0  0  0  0  0  0  0  0  0  0  0  0
  -26.3200  -13.1160   20.1000 N   0  0  0  0  0  0  0  0  0  0  0  0
  -25.9780  -11.8310   20.3720 N   0  0  0  0  0  0  0  0  0  0  0  0
  -23.9750  -10.6040   20.9400 C   0  0  0  0  0  0  0  0  0  0  0  0
  -24.4290   -9.6410   21.8680 C   0  0  0  0  0  3  0  0  0  0  0  0
  -23.7090   -8.4440   22.0670 C   0  0  0  0  0  3  0  0  0  0  0  0
  -22.5220   -8.2000   21.3360 C   0  0  0  0  0  0  0  0  0  0  0  0
  -22.0830   -9.1530   20.4010 C   0  0  0  0  0  3  0  0  0  0  0  0
  -22.8030  -10.3440   20.2030 C   0  0  0  0  0  3  0  0  0  0  0  0
  -21.7740   -7.0530   21.4420 O   0  0  0  0  0  0  0  0  0  0  0  0
  -21.7340   -6.3250   22.6030 C   0  0  0  0  0  0  0  0  0  0  0  0
  -21.3140   -6.8950   23.8240 C   0  0  0  0  0  3  0  0  0  0  0  0
  -21.2230   -6.0960   24.9800 C   0  0  0  0  0  3  0  0  0  0  0  0
  -21.5360   -4.7260   24.9160 C   0  0  0  0  0  0  0  0  0  0  0  0
  -21.9450   -4.1540   23.6980 C   0  0  0  0  0  3  0  0  0  0  0  0
  -22.0400   -4.9510   22.5440 C   0  0  0  0  0  0  0  0  0  0  0  0
  -22.4160   -4.3900   21.3690 F   0  0  0  0  0  0  0  0  0  0  0  0
  -21.4390   -3.9550   26.0250 F   0  0  0  0  0  0  0  0  0  0  0  0
  -22.8550  -13.6980   21.1240 C   0  0  0  0  0  0  0  0  0  0  0  0
  -22.1630  -12.9990   22.0170 N   0  0  0  0  0  0  0  0  0  0  0  0
  -22.3960  -14.7250   20.6280 O   0  0  0  0  0  0  0  0  0  0  0  0
  -22.5480  -12.1710   22.4500 H   0  0  0  0  0  0  0  0  0  0  0  0
  -21.2300  -13.2890   22.2720 H   0  0  0  0  0  0  0  0  0  0  0  0
  -25.4470  -15.3690   20.2120 N   0  0  0  0  0  0  0  0  0  0  0  0
  -24.6870  -16.0260   20.3610 H   0  0  0  0  0  0  0  0  0  0  0  0
  -26.2540  -15.7960   19.7780 H   0  0  0  0  0  0  0  0  0  0  0  0
  -28.8520  -21.6540   19.8850 O   0  0  0  0  0  0  0  0  0  0  0  0
  -28.1110  -23.0730   20.0570 C   0  0  0  0  0  2  0  0  0  0  0  0
  -28.4000  -24.6610   20.6970 C   0  0  0  0  0  2  0  0  0  0  0  0
  -28.3040  -26.1730   20.1790 O   0  0  0  0  0  0  0  0  0  0  0  0
  -24.6020  -31.9110   23.2310 C   0  0  0  0  0  0  0  0  0  0  0  0
  -27.2090  -27.1340   20.2460 C   0  0  0  0  0  0  0  0  0  0  0  0
  -23.4190  -30.5010   21.5960 C   0  0  0  0  0  3  0  0  0  0  0  0
  -24.8770  -28.9080   20.1970 C   0  0  0  0  0  0  0  0  0  0  0  0
  -25.9790  -30.7610   21.4440 C   0  0  0  0  0  2  0  0  0  0  0  0
  -26.0600  -29.3590   20.7970 C   0  0  0  0  0  0  0  0  0  0  0  0
  -27.2300  -28.4970   20.7810 C   0  0  0  0  0  3  0  0  0  0  0  0
  -25.9930  -26.7910   19.6220 C   0  0  0  0  0  3  0  0  0  0  0  0
  -24.8620  -27.6420   19.5890 C   0  0  0  0  0  3  0  0  0  0  0  0
  -23.6520  -29.8120   20.2260 C   0  0  0  0  0  2  0  0  0  0  0  0
  -24.6890  -31.0800   22.1470 N   0  0  0  0  0  0  0  0  0  0  0  0
  -23.5100  -32.1960   23.7480 O   0  0  0  0  0  0  0  0  0  0  0  0
  -22.7270  -29.5020   22.5590 C   0  0  0  0  0  0  0  0  0  0  0  0
  -21.4000  -29.3310   22.4270 N   0  0  0  0  0  0  0  0  0  0  0  0
  -23.3910  -28.8810   23.3930 O   0  0  0  0  0  0  0  0  0  0  0  0
  -20.9190  -29.8830   21.7290 H   0  0  0  0  0  0  0  0  0  0  0  0
  -18.0200  -28.1150   22.9090 C   0  0  0  0  0  0  0  0  0  0  0  0
  -20.5750  -28.3940   23.1980 C   0  0  0  0  0  3  0  0  0  0  0  0
  -20.6900  -26.9550   22.6370 C   0  0  0  0  0  2  0  0  0  0  0  0
  -19.6000  -26.6190   21.6160 C   0  0  0  0  0  2  0  0  0  0  0  0
  -18.2120  -26.7610   22.2450 C   0  0  0  0  0  2  0  0  0  0  0  0
  -19.1290  -28.8880   23.3440 C   0  0  0  0  0  0  0  0  0  0  0  0
  -18.8960  -30.1540   23.9250 C   0  0  0  0  0  3  0  0  0  0  0  0
  -17.5840  -30.6410   24.0830 C   0  0  0  0  0  3  0  0  0  0  0  0
  -16.4900  -29.8640   23.6650 C   0  0  0  0  0  3  0  0  0  0  0  0
  -16.7090  -28.6050   23.0800 C   0  0  0  0  0  3  0  0  0  0  0  0
  -25.8690  -32.5590   23.8640 C   0  0  0  0  0  3  0  0  0  0  0  0
  -26.3620  -31.8120   25.1630 C   0  0  1  0  0  0  0  0  0  0  0  0
  -25.2500  -31.5940   26.2170 C   0  0  0  0  0  1  0  0  0  0  0  0
  -26.9510  -30.4270   24.8100 C   0  0  0  0  0  1  0  0  0  0  0  0
  -27.5030  -32.6190   25.8300 C   0  0  0  0  0  1  0  0  0  0  0  0
  -25.5450  -33.9610   24.1770 N   0  0  0  0  0  0  0  0  0  0  0  0
  -25.8850  -35.0140   23.4220 C   0  0  0  0  0  0  0  0  0  0  0  0
  -26.5670  -34.9100   22.3970 O   0  0  0  0  0  0  0  0  0  0  0  0
  -24.9300  -34.1170   24.9610 H   0  0  0  0  0  0  0  0  0  0  0  0
  -24.1570  -36.8160   23.0590 C   0  0  0  0  0  1  0  0  0  0  0  0
  -25.3930  -36.4050   23.8740 C   0  0  0  0  0  3  0  0  0  0  0  0
  -27.5220  -37.2980   24.7130 C   0  0  0  0  0  1  0  0  0  0  0  0
  -26.4240  -37.4600   23.7630 N   0  0  0  0  0  0  0  0  0  0  0  0
  -26.0140  -38.3760   23.9100 H   0  0  0  0  0  0  0  0  0  0  0  0
  1  4  1  0
  2  5  2  0
  3  2  1  0
  3  1  2  0
  4  8  2  0
  4  6  1  0
  5  7  1  0
  5  8  1  0
  9 18  1  0
  9  2  1  0
 10 18  1  0
 11 16  1  0
 12 13  1  0
 12 11  1  0
 14 13  1  0
 14 23  1  0
 14 15  1  0
 16 10  1  0
 16 15  1  0
 17 10  2  0
 18 19  1  0
 20 21  2  0
 21 40  1  0
 22 21  1  0
 22 25  1  0
 23 24  1  0
 23 20  1  0
 24 22  2  0
 25 26  1  0
 26 27  2  0
 28 31  1  0
 28 27  1  0
 29 28  2  0
 30 29  1  0
 30 25  2  0
 31 32  1  0
 32 33  1  0
 33 34  2  0
 35 34  1  0
 35 39  1  0
 36 35  2  0
 37 32  2  0
 37 36  1  0
 38 37  1  0
 40 41  1  0
 41 44  1  0
 41 43  1  0
 42 40  2  0
 45 46  1  0
 45 20  1  0
 47 45  1  0
 48 49  1  0
 48  3  1  0
 49 50  1  0
 51 53  1  0
 51 50  1  0
 52 63  2  0
 53 58  1  0
 54 62  1  0
 54 64  1  0
 55 61  1  0
 55 57  1  0
 56 62  1  0
 57 56  1  0
 58 57  2  0
 59 53  2  0
 60 59  1  0
 60 55  2  0
 61 54  1  0
 62 52  1  0
 64 66  2  0
 65 64  1  0
 67 65  1  0
 68 77  2  0
 68 73  1  0
 69 65  1  0
 69 73  1  0
 70 69  1  0
 71 72  1  0
 71 70  1  0
 72 68  1  0
 73 74  2  0
 74 75  1  0
 76 75  2  0
 77 76  1  0
 78 52  1  0
 78 83  1  0
 78 79  1  0
 79 82  1  1
 79 80  1  0
 81 79  1  0
 83 86  1  0
 84 88  1  0
 84 83  1  0
 85 84  2  0
 88 87  1  0
 90 88  1  0
 90 91  1  0
 90 89  1  0
M  ISO  4  10 100  18 100  50 101  51 101
M  END
>  <TORSDO>  (9) 
F 20

>  <SCORE>  (9) 
-14.317

>  <name>  (9) 
8

>  <ligand_id>  (9) 
8

>  <original_smiles>  (9) 
[H]c1c([H])c([H])c2c(c1[H])C([H])([H])C([H])([H])C([H])([H])C2([H])N([H])C(=O)C1([H])N(C(=O)C([H])(N([H])C(=O)C([H])(N([H])C([H])([H])[H])C([H])([H])[H])C(C([H])([H])[H])(C([H])([H])[H])C([H])([H])[H])C([H])([H])c2c([H])c(OC([H])([H])C([H])([H])Oc3c([H])c(C([H])([H])[H])nc(C([H])([H])[H])c3C([H])([H])N([H])C(=O)N3C([H])([H])C([H])([H])C([H])([H])C([H])(n4nc(-c5c([H])c([H])c(Oc6c([H])c([H])c(F)c([H])c6F)c([H])c5[H])c(C(=O)N([H])[H])c4N([H])[H])C3([H])[H])c([H])c([H])c2C1([H])[H]

>  <smiles>  (9) 
[H]c1c([H])c([H])c2c(c1[H])C([H])([H])C([H])([H])C([H])([H])C2([H])N([H])C(=O)C1([H])N(C(=O)C([H])(N([H])C(=O)C([H])(N([H])C([H])([H])[H])C([H])([H])[H])C(C([H])([H])[H])(C([H])([H])[H])C([H])([H])[H])C([H])([H])c2c([H])c(OC([H])([H])C([H])([H])Oc3c([H])c(C([H])([H])[H])nc(C([H])([H])[H])c3C([H])([H])N([H])C(=O)N3C([H])([H])C([H])([H])C([H])([H])C([H])(n4nc(-c5c([H])c([H])c(Oc6c([H])c([H])c(F)c([H])c6F)c([H])c5[H])c(C(=O)N([H])[H])c4N([H])[H])C3([H])[H])c([H])c([H])c2C1([H])[H]

$$$$
9:0:0
     RDKit          3D

 92100  0  0  1  0  0  0  0  0999 V2000
  -28.4650  -20.0860   20.3200 C   0  0  0  0  0  3  0  0  0  0  0  0
  -30.5820  -20.9990   19.6390 C   0  0  0  0  0  3  0  0  0  0  0  0
  -29.2200  -21.2190   19.9270 C   0  0  0  0  0  0  0  0  0  0  0  0
  -29.0360  -18.7830   20.4120 C   0  0  0  0  0  0  0  0  0  0  0  0
  -30.4100  -18.5580   20.1110 C   0  0  0  0  0  0  0  0  0  0  0  0
  -31.1860  -19.7060   19.7470 C   0  0  0  0  0  0  0  0  0  0  0  0
  -28.1450  -17.6420   20.8710 C   0  0  0  0  0  1  0  0  0  0  0  0
  -33.3660  -20.6680   19.3490 C   0  0  0  0  0  1  0  0  0  0  0  0
  -32.5350  -19.5210   19.5190 O   0  0  0  0  0  0  0  0  0  0  0  0
  -28.5300  -22.5940   19.6610 C   0  0  0  0  0  2  0  0  0  0  0  0
  -29.0000  -23.9390   20.3520 C   0  0  0  0  0  2  0  0  0  0  0  0
  -28.0790  -25.1500   19.9280 C   0  0  0  0  0  2  0  0  0  0  0  0
  -28.3090  -26.5460   20.3490 O   0  0  0  0  0  0  0  0  0  0  0  0
  -24.5900  -31.9630   23.3030 C   0  0  0  0  0  0  0  0  0  0  0  0
  -27.1990  -27.4020   20.2680 C   0  0  0  0  0  0  0  0  0  0  0  0
  -23.3820  -30.5460   21.6830 C   0  0  0  0  0  3  0  0  0  0  0  0
  -24.8290  -29.0000   20.2620 C   0  0  0  0  0  0  0  0  0  0  0  0
  -25.9220  -30.8730   21.4870 C   0  0  0  0  0  2  0  0  0  0  0  0
  -26.0000  -29.4930   20.8510 C   0  0  0  0  0  0  0  0  0  0  0  0
  -27.1880  -28.7050   20.8520 C   0  0  0  0  0  3  0  0  0  0  0  0
  -26.0050  -26.9740   19.6340 C   0  0  0  0  0  3  0  0  0  0  0  0
  -24.8320  -27.7420   19.6480 C   0  0  0  0  0  3  0  0  0  0  0  0
  -23.5900  -29.8650   20.3060 C   0  0  0  0  0  2  0  0  0  0  0  0
  -24.6500  -31.1450   22.2130 N   0  0  0  0  0  0  0  0  0  0  0  0
  -23.5070  -32.2420   23.8380 O   0  0  0  0  0  0  0  0  0  0  0  0
  -22.7320  -29.5320   22.6550 C   0  0  0  0  0  0  0  0  0  0  0  0
  -21.4140  -29.3110   22.5040 N   0  0  0  0  0  0  0  0  0  0  0  0
  -23.4110  -28.9470   23.5030 O   0  0  0  0  0  0  0  0  0  0  0  0
  -20.9270  -29.8350   21.7920 H   0  0  0  0  0  0  0  0  0  0  0  0
  -18.0620  -28.0310   22.9580 C   0  0  0  0  0  0  0  0  0  0  0  0
  -20.6050  -28.3720   23.2820 C   0  0  0  0  0  3  0  0  0  0  0  0
  -20.7630  -26.9280   22.7550 C   0  0  0  0  0  2  0  0  0  0  0  0
  -19.6970  -26.5420   21.7250 C   0  0  0  0  0  2  0  0  0  0  0  0
  -18.2950  -26.6680   22.3290 C   0  0  0  0  0  2  0  0  0  0  0  0
  -19.1480  -28.8380   23.3920 C   0  0  0  0  0  0  0  0  0  0  0  0
  -18.8780  -30.1120   23.9390 C   0  0  0  0  0  3  0  0  0  0  0  0
  -17.5570  -30.5800   24.0560 C   0  0  0  0  0  3  0  0  0  0  0  0
  -16.4860  -29.7720   23.6390 C   0  0  0  0  0  3  0  0  0  0  0  0
  -16.7390  -28.4980   23.0970 C   0  0  0  0  0  3  0  0  0  0  0  0
  -25.8740  -32.6050   23.9120 C   0  0  0  0  0  3  0  0  0  0  0  0
  -25.5760  -34.0200   24.1740 N   0  0  0  0  0  0  0  0  0  0  0  0
  -25.8970  -35.0310   23.3560 C   0  0  0  0  0  0  0  0  0  0  0  0
  -26.5480  -34.8710   22.3200 O   0  0  0  0  0  0  0  0  0  0  0  0
  -24.9950  -34.2200   24.9760 H   0  0  0  0  0  0  0  0  0  0  0  0
  -24.1590  -36.8060   22.9620 C   0  0  0  0  0  1  0  0  0  0  0  0
  -25.4260  -36.4440   23.7530 C   0  0  0  0  0  3  0  0  0  0  0  0
  -27.5800  -37.3780   24.4730 C   0  0  0  0  0  1  0  0  0  0  0  0
  -26.4540  -37.4870   23.5480 N   0  0  0  0  0  0  0  0  0  0  0  0
  -26.0520  -38.4160   23.6470 H   0  0  0  0  0  0  0  0  0  0  0  0
  -26.3640  -31.8840   25.2270 C   0  0  1  0  0  0  0  0  0  0  0  0
  -25.2480  -31.6760   26.2770 C   0  0  0  0  0  1  0  0  0  0  0  0
  -26.9650  -30.4980   24.8990 C   0  0  0  0  0  1  0  0  0  0  0  0
  -27.4920  -32.7120   25.8860 C   0  0  0  0  0  1  0  0  0  0  0  0
  -31.1200  -17.1660   20.3260 C   0  0  0  0  0  2  0  0  0  0  0  0
  -31.0350  -14.6950   19.7620 C   0  0  0  0  0  0  0  0  0  0  0  0
  -30.6300  -12.4370   18.8200 C   0  0  0  0  0  2  0  0  0  0  0  0
  -29.6200  -12.5280   17.6590 C   0  0  0  0  0  2  0  0  0  0  0  0
  -28.1780  -12.4310   18.1890 C   0  0  0  0  0  2  0  0  0  0  0  0
  -27.9160  -13.3650   19.4010 C   0  0  0  0  0  3  0  0  0  0  0  0
  -29.0450  -13.2740   20.4520 C   0  0  0  0  0  2  0  0  0  0  0  0
  -30.3170  -13.5300   19.7610 N   0  0  0  0  0  0  0  0  0  0  0  0
  -32.1720  -14.7320   19.2880 O   0  0  0  0  0  0  0  0  0  0  0  0
  -30.4210  -15.8470   20.1540 N   0  0  0  0  0  0  0  0  0  0  0  0
  -29.4620  -15.7840   20.4570 H   0  0  0  0  0  0  0  0  0  0  0  0
  -25.6290  -14.0460   20.3510 C   0  0  0  0  0  0  0  0  0  0  0  0
  -24.5570  -13.3110   20.7780 C   0  0  0  0  0  0  0  0  0  0  0  0
  -24.9380  -11.9410   20.6450 C   0  0  0  0  0  0  0  0  0  0  0  0
  -26.6010  -13.1270   19.9890 N   0  0  0  0  0  0  0  0  0  0  0  0
  -26.1950  -11.8520   20.2250 N   0  0  0  0  0  0  0  0  0  0  0  0
  -24.1580  -10.7110   20.8350 C   0  0  0  0  0  0  0  0  0  0  0  0
  -24.5500   -9.7250   21.7670 C   0  0  0  0  0  3  0  0  0  0  0  0
  -23.7720   -8.5610   21.9470 C   0  0  0  0  0  3  0  0  0  0  0  0
  -22.5890   -8.3740   21.1940 C   0  0  0  0  0  0  0  0  0  0  0  0
  -22.2160   -9.3470   20.2500 C   0  0  0  0  0  3  0  0  0  0  0  0
  -22.9940  -10.5030   20.0680 C   0  0  0  0  0  3  0  0  0  0  0  0
  -21.7860   -7.2630   21.2830 O   0  0  0  0  0  0  0  0  0  0  0  0
  -21.6190   -6.5860   22.4650 C   0  0  0  0  0  0  0  0  0  0  0  0
  -21.0750   -7.2090   23.6090 C   0  0  0  0  0  3  0  0  0  0  0  0
  -20.8580   -6.4590   24.7820 C   0  0  0  0  0  3  0  0  0  0  0  0
  -21.1750   -5.0870   24.8110 C   0  0  0  0  0  0  0  0  0  0  0  0
  -21.7120   -4.4650   23.6710 C   0  0  0  0  0  3  0  0  0  0  0  0
  -21.9300   -5.2120   22.5000 C   0  0  0  0  0  0  0  0  0  0  0  0
  -22.4280   -4.6020   21.3970 F   0  0  0  0  0  0  0  0  0  0  0  0
  -20.9600   -4.3640   25.9350 F   0  0  0  0  0  0  0  0  0  0  0  0
  -23.2160  -13.8480   21.1890 C   0  0  0  0  0  0  0  0  0  0  0  0
  -22.5270  -13.1530   22.0890 N   0  0  0  0  0  0  0  0  0  0  0  0
  -22.7910  -14.9140   20.7470 O   0  0  0  0  0  0  0  0  0  0  0  0
  -22.8830  -12.2910   22.4710 H   0  0  0  0  0  0  0  0  0  0  0  0
  -21.6290  -13.4930   22.4020 H   0  0  0  0  0  0  0  0  0  0  0  0
  -25.8500  -15.4130   20.2180 N   0  0  0  0  0  0  0  0  0  0  0  0
  -25.1210  -16.0930   20.4060 H   0  0  0  0  0  0  0  0  0  0  0  0
  -26.6590  -15.8170   19.7650 H   0  0  0  0  0  0  0  0  0  0  0  0
  1  4  1  0
  2  6  2  0
  2  3  1  0
  3  1  2  0
  4  7  1  0
  5 54  1  0
  5  4  2  0
  6  5  1  0
  8  9  1  0
  9  6  1  0
 10  3  1  0
 10 11  1  0
 12 13  1  0
 12 11  1  0
 14 25  2  0
 15 13  1  0
 15 20  1  0
 16 24  1  0
 16 26  1  0
 17 23  1  0
 17 19  1  0
 18 24  1  0
 19 20  2  0
 19 18  1  0
 21 22  1  0
 21 15  2  0
 22 17  2  0
 23 16  1  0
 24 14  1  0
 26 28  2  0
 27 26  1  0
 29 27  1  0
 30 39  2  0
 30 35  1  0
 31 27  1  0
 31 35  1  0
 32 31  1  0
 33 34  1  0
 33 32  1  0
 34 30  1  0
 35 36  2  0
 36 37  1  0
 38 37  2  0
 39 38  1  0
 40 14  1  0
 40 41  1  0
 40 50  1  0
 41 44  1  0
 42 46  1  0
 42 41  1  0
 43 42  2  0
 46 45  1  0
 48 49  1  0
 48 46  1  0
 48 47  1  0
 50 53  1  1
 50 51  1  0
 52 50  1  0
 55 63  1  0
 56 61  1  0
 57 58  1  0
 57 56  1  0
 59 58  1  0
 59 68  1  0
 59 60  1  0
 61 55  1  0
 61 60  1  0
 62 55  2  0
 63 54  1  0
 63 64  1  0
 65 66  2  0
 66 85  1  0
 67 66  1  0
 67 70  1  0
 68 69  1  0
 68 65  1  0
 69 67  2  0
 70 71  1  0
 71 72  2  0
 73 76  1  0
 73 72  1  0
 74 73  2  0
 75 74  1  0
 75 70  2  0
 76 77  1  0
 77 82  2  0
 77 78  1  0
 78 79  2  0
 79 80  1  0
 80 84  1  0
 81 80  2  0
 82 81  1  0
 83 82  1  0
 85 86  1  0
 86 89  1  0
 86 88  1  0
 87 85  2  0
 90 65  1  0
 90 91  1  0
 92 90  1  0
M  ISO  4  12 101  13 101  55 100  63 100
M  END
>  <TORSDO>  (10) 
F 21

>  <SCORE>  (10) 
-12.738

>  <name>  (10) 
9

>  <ligand_id>  (10) 
9

>  <original_smiles>  (10) 
[H]c1c([H])c([H])c2c(c1[H])C([H])([H])C([H])([H])C([H])([H])C2([H])N([H])C(=O)C1([H])N(C(=O)C([H])(N([H])C(=O)C([H])(N([H])C([H])([H])[H])C([H])([H])[H])C(C([H])([H])[H])(C([H])([H])[H])C([H])([H])[H])C([H])([H])c2c([H])c(OC([H])([H])C([H])([H])C([H])([H])c3c([H])c(OC([H])([H])[H])c(C([H])([H])N([H])C(=O)N4C([H])([H])C([H])([H])C([H])([H])C([H])(n5nc(-c6c([H])c([H])c(Oc7c([H])c([H])c(F)c([H])c7F)c([H])c6[H])c(C(=O)N([H])[H])c5N([H])[H])C4([H])[H])c(C([H])([H])[H])c3[H])c([H])c([H])c2C1([H])[H]

>  <smiles>  (10) 
[H]c1c([H])c([H])c2c(c1[H])C([H])([H])C([H])([H])C([H])([H])C2([H])N([H])C(=O)C1([H])N(C(=O)C([H])(N([H])C(=O)C([H])(N([H])C([H])([H])[H])C([H])([H])[H])C(C([H])([H])[H])(C([H])([H])[H])C([H])([H])[H])C([H])([H])c2c([H])c(OC([H])([H])C([H])([H])C([H])([H])c3c([H])c(OC([H])([H])[H])c(C([H])([H])N([H])C(=O)N4C([H])([H])C([H])([H])C([H])([H])C([H])(n5nc(-c6c([H])c([H])c(Oc7c([H])c([H])c(F)c([H])c7F)c([H])c6[H])c(C(=O)N([H])[H])c5N([H])[H])C4([H])[H])c(C([H])([H])[H])c3[H])c([H])c([H])c2C1([H])[H]

$$$$
10:0:0
     RDKit          3D

 93101  0  0  1  0  0  0  0  0999 V2000
  -28.7050  -16.7950   20.9290 C   0  0  0  0  0  3  0  0  0  0  0  0
  -30.6720  -18.2110   20.8790 C   0  0  0  0  0  3  0  0  0  0  0  0
  -30.0030  -17.0880   21.3970 C   0  0  0  0  0  0  0  0  0  0  0  0
  -28.0700  -17.6200   19.9690 C   0  0  0  0  0  0  0  0  0  0  0  0
  -30.0800  -19.0140   19.8810 C   0  0  0  0  0  0  0  0  0  0  0  0
  -28.7670  -18.7320   19.4240 C   0  0  0  0  0  0  0  0  0  0  0  0
  -26.6360  -17.3190   19.5500 C   0  0  0  0  0  1  0  0  0  0  0  0
  -28.0810  -19.6370   18.4020 C   0  0  0  0  0  1  0  0  0  0  0  0
  -30.8980  -20.1750   19.3380 C   0  0  0  0  0  2  0  0  0  0  0  0
  -30.5210  -21.5280   19.9590 C   0  0  0  0  0  2  0  0  0  0  0  0
  -30.9330  -22.6760   19.0320 C   0  0  0  0  0  2  0  0  0  0  0  0
  -30.5130  -24.0670   19.5280 C   0  0  0  0  0  2  0  0  0  0  0  0
  -30.8490  -25.1440   18.4900 C   0  0  0  0  0  2  0  0  0  0  0  0
  -30.7360  -26.4290   19.0760 O   0  0  0  0  0  0  0  0  0  0  0  0
  -26.6150  -29.4460   23.9500 C   0  0  0  0  0  0  0  0  0  0  0  0
  -29.4930  -26.9750   19.3080 C   0  0  0  0  0  0  0  0  0  0  0  0
  -25.5000  -28.9510   21.7960 C   0  0  0  0  0  3  0  0  0  0  0  0
  -27.0400  -28.2490   19.8940 C   0  0  0  0  0  0  0  0  0  0  0  0
  -28.0160  -29.3930   21.8930 C   0  0  0  0  0  2  0  0  0  0  0  0
  -28.1560  -28.4700   20.7070 C   0  0  0  0  0  0  0  0  0  0  0  0
  -29.3820  -27.8410   20.4150 C   0  0  0  0  0  3  0  0  0  0  0  0
  -28.3500  -26.7400   18.5060 C   0  0  0  0  0  3  0  0  0  0  0  0
  -27.1280  -27.3780   18.7930 C   0  0  0  0  0  3  0  0  0  0  0  0
  -25.7710  -28.9800   20.2690 C   0  0  0  0  0  2  0  0  0  0  0  0
  -26.7260  -29.2490   22.6050 N   0  0  0  0  0  0  0  0  0  0  0  0
  -25.5120  -29.4310   24.5090 O   0  0  0  0  0  0  0  0  0  0  0  0
  -24.8450  -27.5980   22.1520 C   0  0  0  0  0  0  0  0  0  0  0  0
  -23.5490  -27.4570   21.8220 N   0  0  0  0  0  0  0  0  0  0  0  0
  -25.5020  -26.6950   22.6810 O   0  0  0  0  0  0  0  0  0  0  0  0
  -23.0810  -28.2420   21.3870 H   0  0  0  0  0  0  0  0  0  0  0  0
  -20.2550  -26.0650   21.3390 C   0  0  0  0  0  0  0  0  0  0  0  0
  -22.7370  -26.2600   22.0270 C   0  0  0  0  0  3  0  0  0  0  0  0
  -23.0210  -25.2000   20.9380 C   0  0  0  0  0  2  0  0  0  0  0  0
  -22.0650  -25.2920   19.7450 C   0  0  0  0  0  2  0  0  0  0  0  0
  -20.6140  -25.1210   20.2010 C   0  0  0  0  0  2  0  0  0  0  0  0
  -21.2540  -26.6110   22.1870 C   0  0  0  0  0  0  0  0  0  0  0  0
  -20.8740  -27.5090   23.2070 C   0  0  0  0  0  3  0  0  0  0  0  0
  -19.5230  -27.8590   23.3900 C   0  0  0  0  0  3  0  0  0  0  0  0
  -18.5350  -27.3020   22.5590 C   0  0  0  0  0  3  0  0  0  0  0  0
  -18.9020  -26.4050   21.5390 C   0  0  0  0  0  3  0  0  0  0  0  0
  -27.8660  -29.7290   24.8400 C   0  0  0  0  0  3  0  0  0  0  0  0
  -27.4760  -30.7340   25.8370 N   0  0  0  0  0  0  0  0  0  0  0  0
  -27.8440  -32.0200   25.8030 C   0  0  0  0  0  0  0  0  0  0  0  0
  -28.6130  -32.4770   24.9530 O   0  0  0  0  0  0  0  0  0  0  0  0
  -26.8000  -30.4460   26.5280 H   0  0  0  0  0  0  0  0  0  0  0  0
  -26.1350  -33.8050   26.2780 C   0  0  0  0  0  1  0  0  0  0  0  0
  -27.2610  -32.9510   26.8820 C   0  0  0  0  0  3  0  0  0  0  0  0
  -29.2330  -33.1110   28.3350 C   0  0  0  0  0  1  0  0  0  0  0  0
  -28.2710  -33.8310   27.5060 N   0  0  0  0  0  0  0  0  0  0  0  0
  -27.8240  -34.5410   28.0810 H   0  0  0  0  0  0  0  0  0  0  0  0
  -28.4380  -28.4350   25.5380 C   0  0  1  0  0  0  0  0  0  0  0  0
  -27.3630  -27.6000   26.2700 C   0  0  0  0  0  1  0  0  0  0  0  0
  -29.1310  -27.5140   24.5040 C   0  0  0  0  0  1  0  0  0  0  0  0
  -29.5180  -28.8310   26.5730 C   0  0  0  0  0  1  0  0  0  0  0  0
  -30.6850  -16.2220   22.4580 C   0  0  0  0  0  2  0  0  0  0  0  0
  -31.1120  -13.9180   21.5520 C   0  0  0  0  0  0  0  0  0  0  0  0
  -30.9580  -11.7150   20.4430 C   0  0  0  0  0  2  0  0  0  0  0  0
  -30.1750  -11.8410   19.1200 C   0  0  0  0  0  2  0  0  0  0  0  0
  -28.6520  -11.7550   19.3620 C   0  0  0  0  0  2  0  0  0  0  0  0
  -28.1760  -12.6810   20.5110 C   0  0  0  0  0  3  0  0  0  0  0  0
  -29.0650  -12.4730   21.7580 C   0  0  0  0  0  2  0  0  0  0  0  0
  -30.4630  -12.7400   21.3680 N   0  0  0  0  0  0  0  0  0  0  0  0
  -32.2250  -14.1650   21.0710 O   0  0  0  0  0  0  0  0  0  0  0  0
  -30.4170  -14.7980   22.2840 N   0  0  0  0  0  0  0  0  0  0  0  0
  -29.5490  -14.4530   22.6580 H   0  0  0  0  0  0  0  0  0  0  0  0
  -25.7340  -13.4000   20.9120 C   0  0  0  0  0  0  0  0  0  0  0  0
  -24.5980  -12.6790   21.1600 C   0  0  0  0  0  0  0  0  0  0  0  0
  -25.0010  -11.3080   21.1940 C   0  0  0  0  0  0  0  0  0  0  0  0
  -26.7610  -12.4720   20.8160 N   0  0  0  0  0  0  0  0  0  0  0  0
  -26.3160  -11.2100   21.0400 N   0  0  0  0  0  0  0  0  0  0  0  0
  -24.2030  -10.0810   21.3110 C   0  0  0  0  0  0  0  0  0  0  0  0
  -24.5280   -9.0770   22.2510 C   0  0  0  0  0  3  0  0  0  0  0  0
  -23.7400   -7.9100   22.3560 C   0  0  0  0  0  3  0  0  0  0  0  0
  -22.6110   -7.7420   21.5200 C   0  0  0  0  0  0  0  0  0  0  0  0
  -22.3040   -8.7310   20.5690 C   0  0  0  0  0  3  0  0  0  0  0  0
  -23.0930   -9.8900   20.4630 C   0  0  0  0  0  3  0  0  0  0  0  0
  -21.8010   -6.6310   21.5340 O   0  0  0  0  0  0  0  0  0  0  0  0
  -21.6700   -5.8510   22.6550 C   0  0  0  0  0  0  0  0  0  0  0  0
  -21.2470   -6.3880   23.8910 C   0  0  0  0  0  3  0  0  0  0  0  0
  -21.0550   -5.5380   24.9980 C   0  0  0  0  0  3  0  0  0  0  0  0
  -21.2790   -4.1540   24.8730 C   0  0  0  0  0  0  0  0  0  0  0  0
  -21.6940   -3.6170   23.6420 C   0  0  0  0  0  3  0  0  0  0  0  0
  -21.8870   -4.4640   22.5360 C   0  0  0  0  0  0  0  0  0  0  0  0
  -22.2690   -3.9380   21.3470 F   0  0  0  0  0  0  0  0  0  0  0  0
  -21.0870   -3.3370   25.9350 F   0  0  0  0  0  0  0  0  0  0  0  0
  -23.2000  -13.2140   21.2640 C   0  0  0  0  0  0  0  0  0  0  0  0
  -22.3610  -12.5820   22.0750 N   0  0  0  0  0  0  0  0  0  0  0  0
  -22.8560  -14.2320   20.6640 O   0  0  0  0  0  0  0  0  0  0  0  0
  -22.6460  -11.7560   22.5820 H   0  0  0  0  0  0  0  0  0  0  0  0
  -21.4190  -12.9270   22.1930 H   0  0  0  0  0  0  0  0  0  0  0  0
  -25.9800  -14.7590   20.7450 N   0  0  0  0  0  0  0  0  0  0  0  0
  -25.2510  -15.4640   20.7720 H   0  0  0  0  0  0  0  0  0  0  0  0
  -26.8990  -15.1500   20.5770 H   0  0  0  0  0  0  0  0  0  0  0  0
  1  3  1  0
  2  3  2  0
  3 55  1  0
  4  1  2  0
  5  2  1  0
  6  5  2  0
  6  4  1  0
  7  4  1  0
  8  6  1  0
  9  5  1  0
  9 10  1  0
 11 12  1  0
 11 10  1  0
 13 14  1  0
 13 12  1  0
 14 16  1  0
 15 26  2  0
 16 21  1  0
 17 27  1  0
 17 25  1  0
 18 24  1  0
 18 20  1  0
 19 25  1  0
 20 19  1  0
 21 20  2  0
 22 23  1  0
 22 16  2  0
 23 18  2  0
 24 17  1  0
 25 15  1  0
 27 29  2  0
 28 27  1  0
 30 28  1  0
 31 40  2  0
 31 36  1  0
 32 28  1  0
 32 36  1  0
 33 32  1  0
 34 35  1  0
 34 33  1  0
 35 31  1  0
 36 37  2  0
 37 38  1  0
 39 38  2  0
 40 39  1  0
 41 15  1  0
 41 51  1  0
 41 42  1  0
 42 45  1  0
 43 42  1  0
 43 47  1  0
 44 43  2  0
 47 46  1  0
 47 49  1  0
 49 50  1  0
 49 48  1  0
 51 52  1  1
 51 54  1  0
 53 51  1  0
 56 64  1  0
 57 62  1  0
 58 59  1  0
 58 57  1  0
 60 59  1  0
 60 69  1  0
 60 61  1  0
 62 56  1  0
 62 61  1  0
 63 56  2  0
 64 55  1  0
 64 65  1  0
 66 67  2  0
 67 68  1  0
 67 86  1  0
 68 71  1  0
 69 66  1  0
 69 70  1  0
 70 68  2  0
 71 72  1  0
 72 73  2  0
 74 77  1  0
 74 73  1  0
 75 74  2  0
 76 75  1  0
 76 71  2  0
 77 78  1  0
 78 79  1  0
 79 80  2  0
 81 80  1  0
 81 85  1  0
 82 81  2  0
 83 78  2  0
 83 82  1  0
 84 83  1  0
 86 87  1  0
 87 90  1  0
 87 89  1  0
 88 86  2  0
 91 92  1  0
 91 66  1  0
 93 91  1  0
M  ISO  4  13 101  14 101  56 100  64 100
M  END
>  <TORSDO>  (11) 
F 22

>  <SCORE>  (11) 
-7.782

>  <name>  (11) 
10

>  <ligand_id>  (11) 
10

>  <original_smiles>  (11) 
[H]c1c([H])c([H])c2c(c1[H])C([H])([H])C([H])([H])C([H])([H])C2([H])N([H])C(=O)C1([H])N(C(=O)C([H])(N([H])C(=O)C([H])(N([H])C([H])([H])[H])C([H])([H])[H])C(C([H])([H])[H])(C([H])([H])[H])C([H])([H])[H])C([H])([H])c2c([H])c(OC([H])([H])C([H])([H])C([H])([H])C([H])([H])C([H])([H])c3c([H])c(C([H])([H])N([H])C(=O)N4C([H])([H])C([H])([H])C([H])([H])C([H])(n5nc(-c6c([H])c([H])c(Oc7c([H])c([H])c(F)c([H])c7F)c([H])c6[H])c(C(=O)N([H])[H])c5N([H])[H])C4([H])[H])c([H])c(C([H])([H])[H])c3C([H])([H])[H])c([H])c([H])c2C1([H])[H]

>  <smiles>  (11) 
[H]c1c([H])c([H])c2c(c1[H])C([H])([H])C([H])([H])C([H])([H])C2([H])N([H])C(=O)C1([H])N(C(=O)C([H])(N([H])C(=O)C([H])(N([H])C([H])([H])[H])C([H])([H])[H])C(C([H])([H])[H])(C([H])([H])[H])C([H])([H])[H])C([H])([H])c2c([H])c(OC([H])([H])C([H])([H])C([H])([H])C([H])([H])C([H])([H])c3c([H])c(C([H])([H])N([H])C(=O)N4C([H])([H])C([H])([H])C([H])([H])C([H])(n5nc(-c6c([H])c([H])c(Oc7c([H])c([H])c(F)c([H])c7F)c([H])c6[H])c(C(=O)N([H])[H])c5N([H])[H])C4([H])[H])c([H])c(C([H])([H])[H])c3C([H])([H])[H])c([H])c([H])c2C1([H])[H]

$$$$
11:0:0
     RDKit          3D

 92100  0  0  1  0  0  0  0  0999 V2000
  -29.6160  -22.0570   18.0200 C   0  0  0  0  0  3  0  0  0  0  0  0
  -28.6120  -21.6950   20.5830 C   0  0  0  0  0  3  0  0  0  0  0  0
  -29.6780  -20.7710   18.6030 C   0  0  0  0  0  0  0  0  0  0  0  0
  -29.0260  -23.1540   18.6770 C   0  0  0  0  0  0  0  0  0  0  0  0
  -29.1770  -20.5610   19.9200 C   0  0  0  0  0  0  0  0  0  0  0  0
  -28.5150  -22.9900   19.9850 C   0  0  0  0  0  0  0  0  0  0  0  0
  -30.2550  -19.6640   17.7340 C   0  0  0  0  0  1  0  0  0  0  0  0
  -28.9290  -24.4770   17.9390 C   0  0  0  0  0  1  0  0  0  0  0  0
  -29.1340  -19.1760   20.6500 C   0  0  0  0  0  3  0  0  0  0  0  0
  -30.2420  -18.0950   20.3740 C   0  0  0  0  0  3  0  0  0  0  0  0
  -30.4500  -16.9500   21.4230 C   0  0  0  0  0  2  0  0  0  0  0  0
  -30.6770  -14.5690   20.5290 C   0  0  0  0  0  0  0  0  0  0  0  0
  -30.4100  -12.4020   19.3650 C   0  0  0  0  0  2  0  0  0  0  0  0
  -29.4770  -12.5710   18.1490 C   0  0  0  0  0  2  0  0  0  0  0  0
  -27.9990  -12.4320   18.5630 C   0  0  0  0  0  2  0  0  0  0  0  0
  -27.6430  -13.2680   19.8220 C   0  0  0  0  0  3  0  0  0  0  0  0
  -28.6890  -13.0720   20.9420 C   0  0  0  0  0  2  0  0  0  0  0  0
  -30.0090  -13.3920   20.3760 N   0  0  0  0  0  0  0  0  0  0  0  0
  -31.8280  -14.7330   20.1110 O   0  0  0  0  0  0  0  0  0  0  0  0
  -29.9650  -15.5980   21.0490 N   0  0  0  0  0  0  0  0  0  0  0  0
  -29.0090  -15.3830   21.2940 H   0  0  0  0  0  0  0  0  0  0  0  0
  -25.2340  -13.8730   20.4910 C   0  0  0  0  0  0  0  0  0  0  0  0
  -24.1630  -13.1030   20.8550 C   0  0  0  0  0  0  0  0  0  0  0  0
  -24.6260  -11.7510   20.8430 C   0  0  0  0  0  0  0  0  0  0  0  0
  -26.2840  -12.9910   20.2850 N   0  0  0  0  0  0  0  0  0  0  0  0
  -25.9220  -11.7110   20.5560 N   0  0  0  0  0  0  0  0  0  0  0  0
  -23.8980  -10.4900   21.0320 C   0  0  0  0  0  0  0  0  0  0  0  0
  -24.3230   -9.5280   21.9760 C   0  0  0  0  0  3  0  0  0  0  0  0
  -23.5960   -8.3320   22.1540 C   0  0  0  0  0  3  0  0  0  0  0  0
  -22.4310   -8.0860   21.3880 C   0  0  0  0  0  0  0  0  0  0  0  0
  -22.0280   -9.0360   20.4340 C   0  0  0  0  0  3  0  0  0  0  0  0
  -22.7550  -10.2250   20.2540 C   0  0  0  0  0  3  0  0  0  0  0  0
  -21.6780   -6.9400   21.4750 O   0  0  0  0  0  0  0  0  0  0  0  0
  -21.6210   -6.2020   22.6300 C   0  0  0  0  0  0  0  0  0  0  0  0
  -21.1820   -6.7610   23.8510 C   0  0  0  0  0  3  0  0  0  0  0  0
  -21.0730   -5.9490   24.9970 C   0  0  0  0  0  3  0  0  0  0  0  0
  -21.3900   -4.5790   24.9250 C   0  0  0  0  0  0  0  0  0  0  0  0
  -21.8200   -4.0200   23.7090 C   0  0  0  0  0  3  0  0  0  0  0  0
  -21.9320   -4.8290   22.5640 C   0  0  0  0  0  0  0  0  0  0  0  0
  -22.3250   -4.2800   21.3900 F   0  0  0  0  0  0  0  0  0  0  0  0
  -21.2770   -3.7970   26.0240 F   0  0  0  0  0  0  0  0  0  0  0  0
  -22.7610  -13.5800   21.1010 C   0  0  0  0  0  0  0  0  0  0  0  0
  -22.0200  -12.8880   21.9600 N   0  0  0  0  0  0  0  0  0  0  0  0
  -22.3290  -14.5980   20.5640 O   0  0  0  0  0  0  0  0  0  0  0  0
  -22.3840  -12.0650   22.4190 H   0  0  0  0  0  0  0  0  0  0  0  0
  -21.0770  -13.1850   22.1650 H   0  0  0  0  0  0  0  0  0  0  0  0
  -25.4000  -15.2420   20.2970 N   0  0  0  0  0  0  0  0  0  0  0  0
  -24.6290  -15.8950   20.3760 H   0  0  0  0  0  0  0  0  0  0  0  0
  -26.2480  -15.6720   19.9470 H   0  0  0  0  0  0  0  0  0  0  0  0
  -27.7610  -24.1360   20.7120 C   0  0  0  0  0  2  0  0  0  0  0  0
  -28.4910  -25.4920   21.0290 C   0  0  0  0  0  2  0  0  0  0  0  0
  -28.3940  -26.6210   20.1210 O   0  0  0  0  0  0  0  0  0  0  0  0
  -24.5990  -31.8670   23.2360 C   0  0  0  0  0  0  0  0  0  0  0  0
  -27.2430  -27.3870   20.1720 C   0  0  0  0  0  0  0  0  0  0  0  0
  -23.4050  -30.4730   21.5840 C   0  0  0  0  0  3  0  0  0  0  0  0
  -24.8640  -28.9350   20.1640 C   0  0  0  0  0  0  0  0  0  0  0  0
  -25.9380  -30.8160   21.4060 C   0  0  0  0  0  2  0  0  0  0  0  0
  -26.0220  -29.4410   20.7670 C   0  0  0  0  0  0  0  0  0  0  0  0
  -27.2170  -28.6770   20.7650 C   0  0  0  0  0  3  0  0  0  0  0  0
  -26.0710  -26.9100   19.5510 C   0  0  0  0  0  3  0  0  0  0  0  0
  -24.8850  -27.6700   19.5510 C   0  0  0  0  0  3  0  0  0  0  0  0
  -23.6210  -29.7990   20.2040 C   0  0  0  0  0  2  0  0  0  0  0  0
  -24.6660  -31.0700   22.1320 N   0  0  0  0  0  0  0  0  0  0  0  0
  -23.5140  -32.1360   23.7700 O   0  0  0  0  0  0  0  0  0  0  0  0
  -22.7440  -29.4480   22.5360 C   0  0  0  0  0  0  0  0  0  0  0  0
  -21.4200  -29.2740   22.4070 N   0  0  0  0  0  0  0  0  0  0  0  0
  -23.4230  -28.8140   23.3490 O   0  0  0  0  0  0  0  0  0  0  0  0
  -20.9350  -29.8330   21.7190 H   0  0  0  0  0  0  0  0  0  0  0  0
  -18.0350  -28.0990   22.9000 C   0  0  0  0  0  0  0  0  0  0  0  0
  -20.5960  -28.3350   23.1700 C   0  0  0  0  0  3  0  0  0  0  0  0
  -20.6870  -26.9090   22.5790 C   0  0  0  0  0  2  0  0  0  0  0  0
  -19.5800  -26.6030   21.5660 C   0  0  0  0  0  2  0  0  0  0  0  0
  -18.2000  -26.7540   22.2130 C   0  0  0  0  0  2  0  0  0  0  0  0
  -19.1600  -28.8480   23.3360 C   0  0  0  0  0  0  0  0  0  0  0  0
  -18.9540  -30.1070   23.9380 C   0  0  0  0  0  3  0  0  0  0  0  0
  -17.6530  -30.6180   24.1120 C   0  0  0  0  0  3  0  0  0  0  0  0
  -16.5420  -29.8650   23.6940 C   0  0  0  0  0  3  0  0  0  0  0  0
  -16.7340  -28.6080   23.0930 C   0  0  0  0  0  3  0  0  0  0  0  0
  -25.8790  -32.4980   23.8660 C   0  0  0  0  0  3  0  0  0  0  0  0
  -25.5680  -33.8940   24.1980 N   0  0  0  0  0  0  0  0  0  0  0  0
  -25.8970  -34.9490   23.4410 C   0  0  0  0  0  0  0  0  0  0  0  0
  -26.5690  -34.8500   22.4100 O   0  0  0  0  0  0  0  0  0  0  0  0
  -24.9720  -34.0480   25.0000 H   0  0  0  0  0  0  0  0  0  0  0  0
  -24.1650  -36.7400   23.0890 C   0  0  0  0  0  1  0  0  0  0  0  0
  -25.4050  -36.3360   23.9010 C   0  0  0  0  0  3  0  0  0  0  0  0
  -27.5350  -37.2240   24.7400 C   0  0  0  0  0  1  0  0  0  0  0  0
  -26.4350  -37.3920   23.7930 N   0  0  0  0  0  0  0  0  0  0  0  0
  -26.0260  -38.3100   23.9440 H   0  0  0  0  0  0  0  0  0  0  0  0
  -26.3880  -31.7230   25.1420 C   0  0  1  0  0  0  0  0  0  0  0  0
  -25.2910  -31.4780   26.2050 C   0  0  0  0  0  1  0  0  0  0  0  0
  -26.9760  -30.3490   24.7430 C   0  0  0  0  0  1  0  0  0  0  0  0
  -27.5380  -32.5150   25.8100 C   0  0  0  0  0  1  0  0  0  0  0  0
  1  3  2  0
  1  4  1  0
  3  5  1  0
  4  6  2  0
  5  2  2  0
  5  9  1  0
  6  2  1  0
  6 50  1  0
  7  3  1  0
  8  4  1  0
 10  9  2  0
 10 11  1  0
 12 20  1  0
 13 18  1  0
 14 15  1  0
 14 13  1  0
 16 15  1  0
 16 25  1  0
 16 17  1  0
 18 12  1  0
 18 17  1  0
 19 12  2  0
 20 21  1  0
 20 11  1  0
 22 23  2  0
 23 42  1  0
 24 23  1  0
 24 27  1  0
 25 22  1  0
 25 26  1  0
 26 24  2  0
 27 28  1  0
 28 29  2  0
 30 33  1  0
 30 29  1  0
 31 30  2  0
 32 31  1  0
 32 27  2  0
 33 34  1  0
 34 35  1  0
 35 36  2  0
 37 36  1  0
 37 41  1  0
 38 37  2  0
 39 34  2  0
 39 38  1  0
 40 39  1  0
 42 43  1  0
 43 46  1  0
 43 45  1  0
 44 42  2  0
 47 48  1  0
 47 22  1  0
 49 47  1  0
 50 51  1  0
 52 54  1  0
 52 51  1  0
 53 64  2  0
 54 59  1  0
 55 63  1  0
 55 65  1  0
 56 62  1  0
 56 58  1  0
 57 63  1  0
 58 57  1  0
 59 58  2  0
 60 61  1  0
 60 54  2  0
 61 56  2  0
 62 55  1  0
 63 53  1  0
 65 67  2  0
 66 65  1  0
 68 66  1  0
 69 78  2  0
 69 74  1  0
 70 66  1  0
 70 74  1  0
 71 70  1  0
 72 73  1  0
 72 71  1  0
 73 69  1  0
 74 75  2  0
 75 76  1  0
 77 76  2  0
 78 77  1  0
 79 53  1  0
 79 80  1  0
 79 89  1  0
 80 83  1  0
 81 85  1  0
 81 80  1  0
 82 81  2  0
 85 84  1  0
 87 85  1  0
 87 88  1  0
 87 86  1  0
 89 92  1  1
 89 90  1  0
 91 89  1  0
M  ISO  4  12 100  20 100  51 101  52 101
M  END
>  <TORSDO>  (12) 
F 21

>  <SCORE>  (12) 
-13.563

>  <name>  (12) 
11

>  <ligand_id>  (12) 
11

>  <original_smiles>  (12) 
[H]c1c([H])c([H])c2c(c1[H])C([H])([H])C([H])([H])C([H])([H])C2([H])N([H])C(=O)C1([H])N(C(=O)C([H])(N([H])C(=O)C([H])(N([H])C([H])([H])[H])C([H])([H])[H])C(C([H])([H])[H])(C([H])([H])[H])C([H])([H])[H])C([H])([H])c2c([H])c(OC([H])([H])C([H])([H])c3c([H])c(C([H])([H])C([H])([H])C([H])([H])N([H])C(=O)N4C([H])([H])C([H])([H])C([H])([H])C([H])(n5nc(-c6c([H])c([H])c(Oc7c([H])c([H])c(F)c([H])c7F)c([H])c6[H])c(C(=O)N([H])[H])c5N([H])[H])C4([H])[H])c(C([H])([H])[H])c([H])c3C([H])([H])[H])c([H])c([H])c2C1([H])[H]

>  <smiles>  (12) 
[H]c1c([H])c([H])c2c(c1[H])C([H])([H])C([H])([H])C([H])([H])C2([H])N([H])C(=O)C1([H])N(C(=O)C([H])(N([H])C(=O)C([H])(N([H])C([H])([H])[H])C([H])([H])[H])C(C([H])([H])[H])(C([H])([H])[H])C([H])([H])[H])C([H])([H])c2c([H])c(OC([H])([H])C([H])([H])c3c([H])c(C([H])([H])C([H])([H])C([H])([H])N([H])C(=O)N4C([H])([H])C([H])([H])C([H])([H])C([H])(n5nc(-c6c([H])c([H])c(Oc7c([H])c([H])c(F)c([H])c7F)c([H])c6[H])c(C(=O)N([H])[H])c5N([H])[H])C4([H])[H])c(C([H])([H])[H])c([H])c3C([H])([H])[H])c([H])c([H])c2C1([H])[H]

$$$$
13:0:0
     RDKit          3D

 91 99  0  0  1  0  0  0  0  0999 V2000
  -29.6290  -22.0500   21.5680 C   0  0  0  0  0  3  0  0  0  0  0  0
  -30.3130  -19.6640   21.6290 C   0  0  0  0  0  3  0  0  0  0  0  0
  -29.6320  -20.7360   19.5540 C   0  0  0  0  0  3  0  0  0  0  0  0
  -30.0960  -20.9100   22.2670 C   0  0  0  0  0  0  0  0  0  0  0  0
  -29.3560  -22.0670   20.1800 C   0  0  0  0  0  0  0  0  0  0  0  0
  -30.1100  -19.4980   20.2450 C   0  0  0  0  0  0  0  0  0  0  0  0
  -30.4420  -21.0550   23.7370 C   0  0  0  0  0  1  0  0  0  0  0  0
  -28.9700  -23.5230   19.4430 C   0  0  0  0  0  2  0  0  0  0  0  0
  -27.9510  -24.8180   19.9420 C   0  0  0  0  0  3  0  0  0  0  0  0
  -26.2030  -24.0780   21.7020 C   0  0  0  0  0  1  0  0  0  0  0  0
  -27.5730  -24.7260   21.4420 C   0  0  0  0  0  2  0  0  0  0  0  0
  -28.1910  -26.3600   19.7300 O   0  0  0  0  0  0  0  0  0  0  0  0
  -24.5270  -31.7530   23.1950 C   0  0  0  0  0  0  0  0  0  0  0  0
  -27.1170  -27.3310   19.7730 C   0  0  0  0  0  0  0  0  0  0  0  0
  -23.3090  -30.4520   21.4900 C   0  0  0  0  0  3  0  0  0  0  0  0
  -24.7510  -29.0220   19.9190 C   0  0  0  0  0  0  0  0  0  0  0  0
  -25.8490  -30.7960   21.2700 C   0  0  0  0  0  2  0  0  0  0  0  0
  -25.9380  -29.4530   20.5240 C   0  0  0  0  0  0  0  0  0  0  0  0
  -27.1200  -28.6250   20.4360 C   0  0  0  0  0  3  0  0  0  0  0  0
  -25.9060  -27.0130   19.1220 C   0  0  0  0  0  3  0  0  0  0  0  0
  -24.7480  -27.8160   19.2020 C   0  0  0  0  0  3  0  0  0  0  0  0
  -23.5060  -29.8820   20.0590 C   0  0  0  0  0  2  0  0  0  0  0  0
  -24.5830  -31.0190   22.0410 N   0  0  0  0  0  0  0  0  0  0  0  0
  -23.4530  -31.9660   23.7780 O   0  0  0  0  0  0  0  0  0  0  0  0
  -22.6870  -29.3590   22.3960 C   0  0  0  0  0  0  0  0  0  0  0  0
  -21.3750  -29.1060   22.2450 N   0  0  0  0  0  0  0  0  0  0  0  0
  -23.3890  -28.7460   23.2060 O   0  0  0  0  0  0  0  0  0  0  0  0
  -20.8600  -29.6540   21.5700 H   0  0  0  0  0  0  0  0  0  0  0  0
  -18.1010  -27.5970   22.5800 C   0  0  0  0  0  0  0  0  0  0  0  0
  -20.6110  -28.0850   22.9680 C   0  0  0  0  0  3  0  0  0  0  0  0
  -20.8690  -26.6780   22.3760 C   0  0  0  0  0  2  0  0  0  0  0  0
  -19.8460  -26.2780   21.3100 C   0  0  0  0  0  2  0  0  0  0  0  0
  -18.4300  -26.2840   21.8890 C   0  0  0  0  0  2  0  0  0  0  0  0
  -19.1250  -28.4490   23.0740 C   0  0  0  0  0  0  0  0  0  0  0  0
  -18.7640  -29.6730   23.6780 C   0  0  0  0  0  3  0  0  0  0  0  0
  -17.4120  -30.0460   23.7970 C   0  0  0  0  0  3  0  0  0  0  0  0
  -16.4020  -29.1920   23.3190 C   0  0  0  0  0  3  0  0  0  0  0  0
  -16.7480  -27.9710   22.7160 C   0  0  0  0  0  3  0  0  0  0  0  0
  -25.8090  -32.3770   23.8260 C   0  0  0  0  0  3  0  0  0  0  0  0
  -26.3090  -31.6060   25.1100 C   0  0  1  0  0  0  0  0  0  0  0  0
  -25.2050  -31.3800   26.1700 C   0  0  0  0  0  1  0  0  0  0  0  0
  -26.8860  -30.2210   24.7310 C   0  0  0  0  0  1  0  0  0  0  0  0
  -27.4530  -32.3950   25.7850 C   0  0  0  0  0  1  0  0  0  0  0  0
  -25.5100  -33.7790   24.1550 N   0  0  0  0  0  0  0  0  0  0  0  0
  -25.9160  -34.8380   23.4410 C   0  0  0  0  0  0  0  0  0  0  0  0
  -26.6490  -34.7350   22.4540 O   0  0  0  0  0  0  0  0  0  0  0  0
  -24.8710  -33.9330   24.9220 H   0  0  0  0  0  0  0  0  0  0  0  0
  -24.2750  -36.6970   23.0030 C   0  0  0  0  0  1  0  0  0  0  0  0
  -25.4360  -36.2320   23.8950 C   0  0  0  0  0  3  0  0  0  0  0  0
  -27.5250  -37.0400   24.9080 C   0  0  0  0  0  1  0  0  0  0  0  0
  -26.5050  -37.2560   23.8860 N   0  0  0  0  0  0  0  0  0  0  0  0
  -26.1120  -38.1840   24.0220 H   0  0  0  0  0  0  0  0  0  0  0  0
  -30.5530  -18.0480   19.5820 C   0  0  0  0  0  2  0  0  0  0  0  0
  -31.0690  -15.3850   20.0340 C   0  0  0  0  0  0  0  0  0  0  0  0
  -30.9620  -12.9630   19.2810 C   0  0  0  0  0  2  0  0  0  0  0  0
  -30.0370  -12.8240   18.0490 C   0  0  0  0  0  2  0  0  0  0  0  0
  -28.5730  -12.6310   18.4860 C   0  0  0  0  0  2  0  0  0  0  0  0
  -28.1540  -13.6310   19.5980 C   0  0  0  0  0  3  0  0  0  0  0  0
  -29.2060  -13.7520   20.7230 C   0  0  0  0  0  2  0  0  0  0  0  0
  -30.4790  -14.1220   20.0920 N   0  0  0  0  0  0  0  0  0  0  0  0
  -32.2570  -15.4290   19.6940 O   0  0  0  0  0  0  0  0  0  0  0  0
  -30.3030  -16.5820   20.1330 N   0  0  0  0  0  0  0  0  0  0  0  0
  -29.3570  -16.4230   20.4470 H   0  0  0  0  0  0  0  0  0  0  0  0
  -25.8090  -14.2470   20.4120 C   0  0  0  0  0  0  0  0  0  0  0  0
  -24.7320  -13.4900   20.7810 C   0  0  0  0  0  0  0  0  0  0  0  0
  -25.1560  -12.1290   20.6970 C   0  0  0  0  0  0  0  0  0  0  0  0
  -26.8220  -13.3500   20.1190 N   0  0  0  0  0  0  0  0  0  0  0  0
  -26.4390  -12.0670   20.3560 N   0  0  0  0  0  0  0  0  0  0  0  0
  -24.3980  -10.8810   20.8650 C   0  0  0  0  0  0  0  0  0  0  0  0
  -24.7670   -9.9130   21.8250 C   0  0  0  0  0  3  0  0  0  0  0  0
  -24.0060   -8.7350   21.9830 C   0  0  0  0  0  3  0  0  0  0  0  0
  -22.8630   -8.5130   21.1780 C   0  0  0  0  0  0  0  0  0  0  0  0
  -22.5150   -9.4680   20.2070 C   0  0  0  0  0  3  0  0  0  0  0  0
  -23.2760  -10.6390   20.0470 C   0  0  0  0  0  3  0  0  0  0  0  0
  -22.0810   -7.3850   21.2400 O   0  0  0  0  0  0  0  0  0  0  0  0
  -21.8840   -6.7100   22.4180 C   0  0  0  0  0  0  0  0  0  0  0  0
  -21.2950   -7.3280   23.5430 C   0  0  0  0  0  3  0  0  0  0  0  0
  -21.0470   -6.5780   24.7090 C   0  0  0  0  0  3  0  0  0  0  0  0
  -21.3790   -5.2100   24.7510 C   0  0  0  0  0  0  0  0  0  0  0  0
  -21.9610   -4.5920   23.6310 C   0  0  0  0  0  3  0  0  0  0  0  0
  -22.2100   -5.3390   22.4670 C   0  0  0  0  0  0  0  0  0  0  0  0
  -22.7500   -4.7330   21.3820 F   0  0  0  0  0  0  0  0  0  0  0  0
  -21.1350   -4.4870   25.8690 F   0  0  0  0  0  0  0  0  0  0  0  0
  -23.3550  -13.9980   21.0980 C   0  0  0  0  0  0  0  0  0  0  0  0
  -22.6300  -13.3010   21.9650 N   0  0  0  0  0  0  0  0  0  0  0  0
  -22.9360  -15.0460   20.6110 O   0  0  0  0  0  0  0  0  0  0  0  0
  -22.9850  -12.4500   22.3760 H   0  0  0  0  0  0  0  0  0  0  0  0
  -21.7070  -13.6220   22.2190 H   0  0  0  0  0  0  0  0  0  0  0  0
  -26.0080  -15.6180   20.2760 N   0  0  0  0  0  0  0  0  0  0  0  0
  -25.2600  -16.2890   20.4130 H   0  0  0  0  0  0  0  0  0  0  0  0
  -26.8610  -16.0440   19.9390 H   0  0  0  0  0  0  0  0  0  0  0  0
  1  4  1  0
  2  4  2  0
  3  5  1  0
  3  6  2  0
  4  7  1  0
  5  1  2  0
  6  2  1  0
  8  5  1  0
  9  8  1  0
  9 11  1  0
 11 10  1  0
 12 14  1  0
 12  9  1  0
 13 24  2  0
 14 19  1  0
 15 23  1  0
 15 25  1  0
 16 22  1  0
 16 18  1  0
 17 23  1  0
 18 17  1  0
 19 18  2  0
 20 21  1  0
 20 14  2  0
 21 16  2  0
 22 15  1  0
 23 13  1  0
 25 27  2  0
 26 25  1  0
 28 26  1  0
 29 38  2  0
 29 34  1  0
 30 26  1  0
 30 34  1  0
 31 30  1  0
 32 33  1  0
 32 31  1  0
 33 29  1  0
 34 35  2  0
 35 36  1  0
 37 36  2  0
 38 37  1  0
 39 13  1  0
 39 44  1  0
 39 40  1  0
 40 43  1  1
 40 41  1  0
 42 40  1  0
 44 47  1  0
 45 49  1  0
 45 44  1  0
 46 45  2  0
 49 48  1  0
 51 49  1  0
 51 52  1  0
 51 50  1  0
 53 62  1  0
 53  6  1  0
 54 60  1  0
 54 62  1  0
 55 60  1  0
 56 57  1  0
 56 55  1  0
 58 57  1  0
 58 67  1  0
 58 59  1  0
 60 59  1  0
 61 54  2  0
 62 63  1  0
 64 65  2  0
 65 84  1  0
 66 65  1  0
 66 69  1  0
 67 68  1  0
 67 64  1  0
 68 66  2  0
 69 70  1  0
 70 71  2  0
 72 75  1  0
 72 71  1  0
 73 72  2  0
 74 73  1  0
 74 69  2  0
 75 76  1  0
 76 81  2  0
 76 77  1  0
 77 78  2  0
 78 79  1  0
 79 83  1  0
 80 79  2  0
 81 80  1  0
 82 81  1  0
 84 85  1  0
 85 88  1  0
 85 87  1  0
 86 84  2  0
 89 64  1  0
 89 90  1  0
 91 89  1  0
M  ISO  4   9 101  12 101  54 100  62 100
M  END
>  <TORSDO>  (13) 
F 20

>  <SCORE>  (13) 
-13.582

>  <name>  (13) 
13

>  <ligand_id>  (13) 
13

>  <original_smiles>  (13) 
[H]c1c([H])c([H])c2c(c1[H])C([H])([H])C([H])([H])C([H])([H])C2([H])N([H])C(=O)C1([H])N(C(=O)C([H])(N([H])C(=O)C([H])(N([H])C([H])([H])[H])C([H])([H])[H])C(C([H])([H])[H])(C([H])([H])[H])C([H])([H])[H])C([H])([H])c2c([H])c(OC([H])(C([H])([H])c3c([H])c(C([H])([H])[H])c([H])c(C([H])([H])N([H])C(=O)N4C([H])([H])C([H])([H])C([H])([H])C([H])(n5nc(-c6c([H])c([H])c(Oc7c([H])c([H])c(F)c([H])c7F)c([H])c6[H])c(C(=O)N([H])[H])c5N([H])[H])C4([H])[H])c3[H])C([H])([H])C([H])([H])[H])c([H])c([H])c2C1([H])[H]

>  <smiles>  (13) 
[H]c1c([H])c([H])c2c(c1[H])C([H])([H])C([H])([H])C([H])([H])C2([H])N([H])C(=O)C1([H])N(C(=O)C([H])(N([H])C(=O)C([H])(N([H])C([H])([H])[H])C([H])([H])[H])C(C([H])([H])[H])(C([H])([H])[H])C([H])([H])[H])C([H])([H])c2c([H])c(OC([H])(C([H])([H])c3c([H])c(C([H])([H])[H])c([H])c(C([H])([H])N([H])C(=O)N4C([H])([H])C([H])([H])C([H])([H])C([H])(n5nc(-c6c([H])c([H])c(Oc7c([H])c([H])c(F)c([H])c7F)c([H])c6[H])c(C(=O)N([H])[H])c5N([H])[H])C4([H])[H])c3[H])C([H])([H])C([H])([H])[H])c([H])c([H])c2C1([H])[H]

$$$$
14:0:0
     RDKit          3D

 95104  0  0  1  0  0  0  0  0999 V2000
  -28.6980  -22.4060   20.7840 C   0  0  0  0  0  0  0  0  0  0  0  0
  -28.3820  -22.2460   19.4040 C   0  0  0  0  0  0  0  0  0  0  0  0
  -28.8500  -21.1190   21.2320 C   0  0  0  0  0  0  0  0  0  0  0  0
  -28.0810  -23.3060   18.3830 C   0  0  0  0  0  1  0  0  0  0  0  0
  -29.1360  -20.6160   22.6110 C   0  0  0  0  0  1  0  0  0  0  0  0
  -28.4400  -20.9780   19.0190 N   0  0  0  0  0  0  0  0  0  0  0  0
  -28.7760  -20.2850   20.1290 N   0  0  0  0  0  0  0  0  0  0  0  0
  -27.7080  -24.6530   21.5290 C   0  0  0  0  0  2  0  0  0  0  0  0
  -30.2710  -24.3510   21.3250 C   0  0  0  0  0  2  0  0  0  0  0  0
  -28.1470  -26.0760   21.9140 C   0  0  0  0  0  2  0  0  0  0  0  0
  -30.2800  -25.7100   20.5710 C   0  0  0  0  0  2  0  0  0  0  0  0
  -28.8980  -23.6770   21.5940 C   0  0  0  0  0  3  0  0  0  0  0  0
  -29.0990  -26.6750   20.8500 C   0  0  0  0  0  3  0  0  0  0  0  0
  -28.4430  -26.9520   19.5970 O   0  0  0  0  0  0  0  0  0  0  0  0
  -24.7030  -31.8270   23.1900 C   0  0  0  0  0  0  0  0  0  0  0  0
  -27.3090  -27.7240   19.6690 C   0  0  0  0  0  0  0  0  0  0  0  0
  -23.4580  -30.5240   21.4910 C   0  0  0  0  0  3  0  0  0  0  0  0
  -24.8840  -29.1420   19.8940 C   0  0  0  0  0  0  0  0  0  0  0  0
  -25.9580  -30.9730   21.2140 C   0  0  0  0  0  2  0  0  0  0  0  0
  -26.0490  -29.6540   20.4770 C   0  0  0  0  0  0  0  0  0  0  0  0
  -27.2680  -28.9500   20.3690 C   0  0  0  0  0  3  0  0  0  0  0  0
  -26.1370  -27.2290   19.0600 C   0  0  0  0  0  3  0  0  0  0  0  0
  -24.9210  -27.9250   19.1840 C   0  0  0  0  0  3  0  0  0  0  0  0
  -23.6200  -29.9530   20.0570 C   0  0  0  0  0  2  0  0  0  0  0  0
  -24.7270  -31.1180   22.0250 N   0  0  0  0  0  0  0  0  0  0  0  0
  -23.6400  -32.0290   23.7940 O   0  0  0  0  0  0  0  0  0  0  0  0
  -22.8680  -29.4200   22.3980 C   0  0  0  0  0  0  0  0  0  0  0  0
  -21.5540  -29.1730   22.2670 N   0  0  0  0  0  0  0  0  0  0  0  0
  -23.5910  -28.7860   23.1720 O   0  0  0  0  0  0  0  0  0  0  0  0
  -21.0320  -29.7470   21.6200 H   0  0  0  0  0  0  0  0  0  0  0  0
  -18.2630  -27.7330   22.6640 C   0  0  0  0  0  0  0  0  0  0  0  0
  -20.7930  -28.1490   22.9830 C   0  0  0  0  0  3  0  0  0  0  0  0
  -20.9990  -26.7540   22.3490 C   0  0  0  0  0  2  0  0  0  0  0  0
  -19.9350  -26.4040   21.3040 C   0  0  0  0  0  2  0  0  0  0  0  0
  -18.5390  -26.4270   21.9350 C   0  0  0  0  0  2  0  0  0  0  0  0
  -19.3230  -28.5480   23.1430 C   0  0  0  0  0  0  0  0  0  0  0  0
  -19.0130  -29.7680   23.7830 C   0  0  0  0  0  3  0  0  0  0  0  0
  -17.6750  -30.1750   23.9450 C   0  0  0  0  0  3  0  0  0  0  0  0
  -16.6310  -29.3560   23.4830 C   0  0  0  0  0  3  0  0  0  0  0  0
  -16.9260  -28.1370   22.8510 C   0  0  0  0  0  3  0  0  0  0  0  0
  -26.0030  -32.4350   23.8080 C   0  0  0  0  0  3  0  0  0  0  0  0
  -26.5660  -31.6010   25.0230 C   0  0  1  0  0  0  0  0  0  0  0  0
  -25.5070  -31.2990   26.1090 C   0  0  0  0  0  1  0  0  0  0  0  0
  -27.1400  -30.2500   24.5340 C   0  0  0  0  0  1  0  0  0  0  0  0
  -27.7330  -32.3690   25.6900 C   0  0  0  0  0  1  0  0  0  0  0  0
  -25.6940  -33.8130   24.2130 N   0  0  0  0  0  0  0  0  0  0  0  0
  -26.0130  -34.9030   23.5030 C   0  0  0  0  0  0  0  0  0  0  0  0
  -26.6710  -34.8560   22.4600 O   0  0  0  0  0  0  0  0  0  0  0  0
  -25.1080  -33.9240   25.0280 H   0  0  0  0  0  0  0  0  0  0  0  0
  -24.2880  -36.7120   23.2510 C   0  0  0  0  0  1  0  0  0  0  0  0
  -25.5290  -36.2650   24.0380 C   0  0  0  0  0  3  0  0  0  0  0  0
  -27.6610  -37.1030   24.9240 C   0  0  0  0  0  1  0  0  0  0  0  0
  -26.5640  -37.3200   23.9830 N   0  0  0  0  0  0  0  0  0  0  0  0
  -26.1590  -38.2330   24.1700 H   0  0  0  0  0  0  0  0  0  0  0  0
  -29.1000  -18.8620   20.0180 C   0  0  0  0  0  2  0  0  0  0  0  0
  -30.5730  -18.6160   20.4330 C   0  0  0  0  0  2  0  0  0  0  0  0
  -31.2960  -17.4160   19.7850 C   0  0  0  0  0  2  0  0  0  0  0  0
  -31.5880  -14.9850   20.1530 C   0  0  0  0  0  0  0  0  0  0  0  0
  -31.3520  -12.6530   19.4420 C   0  0  0  0  0  2  0  0  0  0  0  0
  -30.4610  -12.6240   18.1840 C   0  0  0  0  0  2  0  0  0  0  0  0
  -28.9690  -12.5560   18.5680 C   0  0  0  0  0  2  0  0  0  0  0  0
  -28.5670  -13.6110   19.6400 C   0  0  0  0  0  3  0  0  0  0  0  0
  -29.5790  -13.6170   20.8090 C   0  0  0  0  0  2  0  0  0  0  0  0
  -30.9250  -13.8070   20.2440 N   0  0  0  0  0  0  0  0  0  0  0  0
  -32.7760  -15.0590   19.8200 O   0  0  0  0  0  0  0  0  0  0  0  0
  -30.8170  -16.0900   20.1960 N   0  0  0  0  0  0  0  0  0  0  0  0
  -29.8280  -15.9660   20.3510 H   0  0  0  0  0  0  0  0  0  0  0  0
  -26.2150  -14.3500   20.3670 C   0  0  0  0  0  0  0  0  0  0  0  0
  -25.1010  -13.6400   20.7200 C   0  0  0  0  0  0  0  0  0  0  0  0
  -25.4730  -12.2620   20.6590 C   0  0  0  0  0  0  0  0  0  0  0  0
  -27.2020  -13.4110   20.1160 N   0  0  0  0  0  0  0  0  0  0  0  0
  -26.7590  -12.1470   20.3490 N   0  0  0  0  0  0  0  0  0  0  0  0
  -24.6680  -11.0460   20.8180 C   0  0  0  0  0  0  0  0  0  0  0  0
  -24.9960  -10.0620   21.7770 C   0  0  0  0  0  3  0  0  0  0  0  0
  -24.1980   -8.9080   21.9210 C   0  0  0  0  0  3  0  0  0  0  0  0
  -23.0540   -8.7280   21.1060 C   0  0  0  0  0  0  0  0  0  0  0  0
  -22.7450   -9.7000   20.1370 C   0  0  0  0  0  3  0  0  0  0  0  0
  -23.5440  -10.8460   19.9920 C   0  0  0  0  0  3  0  0  0  0  0  0
  -22.2310   -7.6300   21.1640 O   0  0  0  0  0  0  0  0  0  0  0  0
  -22.0030   -6.9620   22.3410 C   0  0  0  0  0  0  0  0  0  0  0  0
  -21.4310   -7.6000   23.4630 C   0  0  0  0  0  3  0  0  0  0  0  0
  -21.1450   -6.8570   24.6260 C   0  0  0  0  0  3  0  0  0  0  0  0
  -21.4230   -5.4780   24.6670 C   0  0  0  0  0  0  0  0  0  0  0  0
  -21.9870   -4.8390   23.5490 C   0  0  0  0  0  3  0  0  0  0  0  0
  -22.2740   -5.5790   22.3890 C   0  0  0  0  0  0  0  0  0  0  0  0
  -22.7990   -4.9540   21.3070 F   0  0  0  0  0  0  0  0  0  0  0  0
  -21.1420   -4.7620   25.7810 F   0  0  0  0  0  0  0  0  0  0  0  0
  -23.7350  -14.1980   20.9950 C   0  0  0  0  0  0  0  0  0  0  0  0
  -22.9620  -13.5490   21.8580 N   0  0  0  0  0  0  0  0  0  0  0  0
  -23.3600  -15.2500   20.4750 O   0  0  0  0  0  0  0  0  0  0  0  0
  -23.2640  -12.6970   22.3090 H   0  0  0  0  0  0  0  0  0  0  0  0
  -22.0410  -13.9110   22.0700 H   0  0  0  0  0  0  0  0  0  0  0  0
  -26.4640  -15.7130   20.2140 N   0  0  0  0  0  0  0  0  0  0  0  0
  -25.7300  -16.4090   20.3120 H   0  0  0  0  0  0  0  0  0  0  0  0
  -27.3180  -16.1010   19.8400 H   0  0  0  0  0  0  0  0  0  0  0  0
  1  3  2  0
  2  1  1  0
  3  5  1  0
  4  2  1  0
  6  2  2  0
  6  7  1  0
  7  3  1  0
  8 12  1  0
  8 10  1  0
  9 12  1  0
 11 13  1  0
 11  9  1  0
 12  1  1  0
 13 14  1  0
 13 10  1  0
 14 16  1  0
 15 26  2  0
 16 21  1  0
 17 25  1  0
 17 27  1  0
 18 24  1  0
 18 20  1  0
 19 25  1  0
 20 19  1  0
 21 20  2  0
 22 23  1  0
 22 16  2  0
 23 18  2  0
 24 17  1  0
 25 15  1  0
 27 29  2  0
 28 27  1  0
 30 28  1  0
 31 40  2  0
 31 36  1  0
 32 28  1  0
 32 36  1  0
 33 32  1  0
 34 35  1  0
 34 33  1  0
 35 31  1  0
 36 37  2  0
 37 38  1  0
 39 38  2  0
 40 39  1  0
 41 15  1  0
 41 46  1  0
 41 42  1  0
 42 45  1  1
 42 43  1  0
 44 42  1  0
 46 49  1  0
 47 51  1  0
 47 46  1  0
 48 47  2  0
 51 50  1  0
 53 51  1  0
 53 54  1  0
 53 52  1  0
 55  7  1  0
 55 56  1  0
 57 66  1  0
 57 56  1  0
 58 66  1  0
 58 64  1  0
 59 64  1  0
 60 61  1  0
 60 59  1  0
 62 61  1  0
 62 71  1  0
 62 63  1  0
 64 63  1  0
 65 58  2  0
 66 67  1  0
 68 69  2  0
 69 88  1  0
 70 69  1  0
 70 73  1  0
 71 72  1  0
 71 68  1  0
 72 70  2  0
 73 74  1  0
 74 75  2  0
 76 79  1  0
 76 75  1  0
 77 76  2  0
 78 77  1  0
 78 73  2  0
 79 80  1  0
 80 85  2  0
 80 81  1  0
 81 82  2  0
 82 83  1  0
 83 87  1  0
 84 83  2  0
 85 84  1  0
 86 85  1  0
 88 89  1  0
 89 92  1  0
 89 91  1  0
 90 88  2  0
 93 94  1  0
 93 68  1  0
 95 93  1  0
M  ISO  4  13 101  14 101  58 100  66 100
M  END
>  <TORSDO>  (14) 
F 20

>  <SCORE>  (14) 
-11.559

>  <name>  (14) 
14

>  <ligand_id>  (14) 
14

>  <original_smiles>  (14) 
[H]c1c([H])c([H])c2c(c1[H])C([H])([H])C([H])([H])C([H])([H])C2([H])N([H])C(=O)C1([H])N(C(=O)C([H])(N([H])C(=O)C([H])(N([H])C([H])([H])[H])C([H])([H])[H])C(C([H])([H])[H])(C([H])([H])[H])C([H])([H])[H])C([H])([H])c2c([H])c(OC3([H])C([H])([H])C([H])([H])C([H])(c4c(C([H])([H])[H])nn(C([H])([H])C([H])([H])C([H])([H])N([H])C(=O)N5C([H])([H])C([H])([H])C([H])([H])C([H])(n6nc(-c7c([H])c([H])c(Oc8c([H])c([H])c(F)c([H])c8F)c([H])c7[H])c(C(=O)N([H])[H])c6N([H])[H])C5([H])[H])c4C([H])([H])[H])C([H])([H])C3([H])[H])c([H])c([H])c2C1([H])[H]

>  <smiles>  (14) 
[H]c1c([H])c([H])c2c(c1[H])C([H])([H])C([H])([H])C([H])([H])C2([H])N([H])C(=O)C1([H])N(C(=O)C([H])(N([H])C(=O)C([H])(N([H])C([H])([H])[H])C([H])([H])[H])C(C([H])([H])[H])(C([H])([H])[H])C([H])([H])[H])C([H])([H])c2c([H])c(OC3([H])C([H])([H])C([H])([H])C([H])(c4c(C([H])([H])[H])nn(C([H])([H])C([H])([H])C([H])([H])N([H])C(=O)N5C([H])([H])C([H])([H])C([H])([H])C([H])(n6nc(-c7c([H])c([H])c(Oc8c([H])c([H])c(F)c([H])c8F)c([H])c7[H])c(C(=O)N([H])[H])c6N([H])[H])C5([H])[H])c4C([H])([H])[H])C([H])([H])C3([H])[H])c([H])c([H])c2C1([H])[H]

$$$$
15:0:0
     RDKit          3D

 96102  0  0  1  0  0  0  0  0999 V2000
  -28.6710  -17.2810   19.5320 C   0  0  0  0  0  3  0  0  0  0  0  0
  -27.8940  -18.0270   17.9600 C   0  0  0  0  0  0  0  0  0  0  0  0
  -28.5670  -18.7640   19.6260 C   0  0  2  0  0  0  0  0  0  0  0  0
  -28.0740  -19.6560   18.5260 C   0  0  0  0  0  2  0  0  0  0  0  0
  -28.1220  -13.4330   18.2610 C   0  0  0  0  0  1  0  0  0  0  0  0
  -28.2120  -16.2800   18.4840 N   0  0  0  0  0  2  0  0  0  0  0  0
  -28.8830  -19.4730   20.9460 C   0  0  0  0  0  2  0  0  0  0  0  0
  -29.9320  -18.8380   21.7690 N   0  0  0  0  0  4  0  0  0  0  0  0
  -29.7900  -17.8430   21.7900 H   0  0  0  0  0  0  0  0  0  0  0  0
  -29.7910  -19.1540   22.7150 H   0  0  0  0  0  0  0  0  0  0  0  0
  -31.3260  -19.1900   21.4410 C   0  0  0  0  0  2  0  0  0  0  0  0
  -32.0080  -18.2750   20.4010 C   0  0  0  0  0  2  0  0  0  0  0  0
  -33.5190  -18.2270   20.6750 C   0  0  0  0  0  2  0  0  0  0  0  0
  -34.3310  -17.1280   19.9600 C   0  0  0  0  0  2  0  0  0  0  0  0
  -33.7980  -15.6780   20.0260 C   0  0  0  0  0  2  0  0  0  0  0  0
  -32.8340  -15.2980   21.1820 C   0  0  0  0  0  2  0  0  0  0  0  0
  -32.1570  -13.1250   20.1600 C   0  0  0  0  0  0  0  0  0  0  0  0
  -31.8480  -11.4390   18.3480 C   0  0  0  0  0  2  0  0  0  0  0  0
  -30.6590  -10.3800   17.2130 C   0  0  0  0  0  1  0  0  0  0  0  0
  -28.6930  -10.6050   17.5040 C   0  0  0  0  0 15  0  0  0  0  0  0
  -28.1630  -11.8830   18.9210 C   0  0  0  0  0  3  0  0  0  0  0  0
  -29.4770  -12.7740   19.9910 C   0  0  0  0  0  2  0  0  0  0  0  0
  -31.1660  -12.5720   19.5540 N   0  0  0  0  0  0  0  0  0  0  0  0
  -33.2900  -12.7090   19.9460 O   0  0  0  0  0  0  0  0  0  0  0  0
  -31.8680  -14.2630   20.8000 N   0  0  0  0  0  0  0  0  0  0  0  0
  -30.8900  -14.4750   20.9180 H   0  0  0  0  0  0  0  0  0  0  0  0
  -26.2400  -12.4270   20.0930 C   0  0  0  0  0  0  0  0  0  0  0  0
  -25.2280  -11.8470   20.7400 C   0  0  0  0  0  0  0  0  0  0  0  0
  -25.2240  -10.4570   20.3970 C   0  0  0  0  0  0  0  0  0  0  0  0
  -26.9500  -11.4210   19.5520 N   0  0  0  0  0  0  0  0  0  0  0  0
  -26.3330  -10.1790   19.6600 N   0  0  0  0  0  0  0  0  0  0  0  0
  -24.1590   -9.4780   20.7410 C   0  0  0  0  0  0  0  0  0  0  0  0
  -24.3200   -8.4510   21.6990 C   0  0  0  0  0  3  0  0  0  0  0  0
  -23.2320   -7.6200   22.0620 C   0  0  0  0  0  3  0  0  0  0  0  0
  -21.9560   -7.8070   21.4740 C   0  0  0  0  0  0  0  0  0  0  0  0
  -21.8010   -8.8100   20.5050 C   0  0  0  0  0  3  0  0  0  0  0  0
  -22.8860   -9.6300   20.1400 C   0  0  0  0  0  3  0  0  0  0  0  0
  -20.8500   -7.0290   21.7360 O   0  0  0  0  0  0  0  0  0  0  0  0
  -20.7360   -6.2960   22.8880 C   0  0  0  0  0  0  0  0  0  0  0  0
  -20.4710   -6.9030   24.1350 C   0  0  0  0  0  3  0  0  0  0  0  0
  -20.2940   -6.1070   25.2840 C   0  0  0  0  0  3  0  0  0  0  0  0
  -20.3680   -4.7030   25.1870 C   0  0  0  0  0  0  0  0  0  0  0  0
  -20.6190   -4.0950   23.9440 C   0  0  0  0  0  3  0  0  0  0  0  0
  -20.7960   -4.8890   22.7970 C   0  0  0  0  0  0  0  0  0  0  0  0
  -21.0180   -4.2980   21.5990 F   0  0  0  0  0  0  0  0  0  0  0  0
  -20.1910   -3.9360   26.2890 F   0  0  0  0  0  0  0  0  0  0  0  0
  -24.2890  -12.6570   21.5510 C   0  0  0  0  0  0  0  0  0  0  0  0
  -23.6870  -12.0490   22.5560 N   0  0  0  0  0  0  0  0  0  0  0  0
  -24.1780  -13.8710   21.3560 O   0  0  0  0  0  0  0  0  0  0  0  0
  -23.8280  -11.0610   22.7210 H   0  0  0  0  0  0  0  0  0  0  0  0
  -23.0590  -12.5590   23.1600 H   0  0  0  0  0  0  0  0  0  0  0  0
  -26.6150  -13.7680   19.9550 N   0  0  0  0  0  0  0  0  0  0  0  0
  -26.0340  -14.5090   20.3350 H   0  0  0  0  0  0  0  0  0  0  0  0
  -27.3390  -14.1030   19.3270 H   0  0  0  0  0  0  0  0  0  0  0  0
  -27.7190  -22.0950   18.4290 C   0  0  0  0  0 15  0  0  0  0  0  0
  -27.9930  -24.2930   18.8560 O   0  0  0  0  0  1  0  0  0  0  0  0
  -25.5020  -31.4960   23.1070 C   0  0  0  0  0  0  0  0  0  0  0  0
  -27.3430  -25.9810   19.1580 C   0  0  0  0  0  0  0  0  0  0  0  0
  -24.1770  -30.3610   21.4000 C   0  0  0  0  0  3  0  0  0  0  0  0
  -25.4050  -28.6840   19.6830 C   0  0  0  0  0  0  0  0  0  0  0  0
  -26.7590  -30.1010   21.1780 C   0  0  0  0  0  2  0  0  0  0  0  0
  -26.6610  -28.6860   20.2910 C   0  0  0  0  0  0  0  0  0  0  0  0
  -27.5740  -27.4000   19.9940 C   0  0  0  0  0  3  0  0  0  0  0  0
  -26.0990  -26.4480   18.5670 C   0  0  0  0  0  3  0  0  0  0  0  0
  -25.2180  -27.5990   18.7970 C   0  0  0  0  0  3  0  0  0  0  0  0
  -24.3220  -29.7910   19.9450 C   0  0  0  0  0  2  0  0  0  0  0  0
  -25.5270  -30.7000   21.9510 N   0  0  0  0  0  0  0  0  0  0  0  0
  -24.4390  -31.8190   23.6770 O   0  0  0  0  0  0  0  0  0  0  0  0
  -23.4000  -29.3660   22.3130 C   0  0  0  0  0  0  0  0  0  0  0  0
  -22.0600  -29.2560   22.1910 N   0  0  0  0  0  0  0  0  0  0  0  0
  -24.0310  -28.6840   23.1220 O   0  0  0  0  0  0  0  0  0  0  0  0
  -21.5870  -29.8610   21.5350 H   0  0  0  0  0  0  0  0  0  0  0  0
  -18.6760  -27.9300   22.5850 C   0  0  0  0  0  0  0  0  0  0  0  0
  -21.2290  -28.2600   22.8900 C   0  0  0  0  0  3  0  0  0  0  0  0
  -21.3680  -26.8640   22.2320 C   0  0  0  0  0  2  0  0  0  0  0  0
  -20.2900  -26.5830   21.1800 C   0  0  0  0  0  2  0  0  0  0  0  0
  -18.8970  -26.6420   21.8120 C   0  0  0  0  0  2  0  0  0  0  0  0
  -19.7670  -28.6990   23.0750 C   0  0  0  0  0  0  0  0  0  0  0  0
  -19.4940  -29.8980   23.7680 C   0  0  0  0  0  3  0  0  0  0  0  0
  -18.1690  -30.3320   23.9690 C   0  0  0  0  0  3  0  0  0  0  0  0
  -17.0960  -29.5620   23.4850 C   0  0  0  0  0  3  0  0  0  0  0  0
  -17.3500  -28.3630   22.8000 C   0  0  0  0  0  3  0  0  0  0  0  0
  -26.7900  -32.0590   23.7960 C   0  0  0  0  0  3  0  0  0  0  0  0
  -27.3700  -31.0800   24.8930 C   0  0  1  0  0  0  0  0  0  0  0  0
  -26.3390  -30.6550   25.9690 C   0  0  0  0  0  1  0  0  0  0  0  0
  -27.9190  -29.7910   24.2500 C   0  0  0  0  0  1  0  0  0  0  0  0
  -28.5670  -31.7460   25.6110 C   0  0  0  0  0  1  0  0  0  0  0  0
  -26.4800  -33.3610   24.4470 N   0  0  0  0  0  0  0  0  0  0  0  0
  -26.8340  -34.5760   23.9990 C   0  0  0  0  0  0  0  0  0  0  0  0
  -27.4880  -34.7260   22.9640 O   0  0  0  0  0  0  0  0  0  0  0  0
  -25.8910  -33.3170   25.2660 H   0  0  0  0  0  0  0  0  0  0  0  0
  -25.1610  -36.4610   24.1820 C   0  0  0  0  0  1  0  0  0  0  0  0
  -26.4070  -35.8200   24.8170 C   0  0  0  0  0  3  0  0  0  0  0  0
  -28.5820  -36.4280   25.7880 C   0  0  0  0  0  1  0  0  0  0  0  0
  -27.4690  -36.8460   24.9430 N   0  0  0  0  0  0  0  0  0  0  0  0
  -27.0910  -37.7110   25.3180 H   0  0  0  0  0  0  0  0  0  0  0  0
  1  6  1  0
  1  3  1  0
  2  6  1  0
  2  4  1  0
  2  1  1  0
  2  3  1  0
  3  7  1  1
  4  3  1  0
  7  8  1  0
  8  9  1  0
  8 10  1  0
 11  8  1  0
 12 13  1  0
 12 11  1  0
 14 15  1  0
 14 13  1  0
 15 16  1  0
 17 25  1  0
 18 23  1  0
 19 18  1  0
 21  5  1  0
 21 30  1  0
 21 22  1  0
 23 22  1  0
 23 17  1  0
 24 17  2  0
 25 26  1  0
 25 16  1  0
 27 28  2  0
 28 47  1  0
 29 28  1  0
 29 32  1  0
 30 31  1  0
 30 27  1  0
 31 29  2  0
 32 33  1  0
 33 34  2  0
 35 38  1  0
 35 34  1  0
 36 35  2  0
 37 36  1  0
 37 32  2  0
 38 39  1  0
 39 40  1  0
 40 41  2  0
 42 41  1  0
 42 46  1  0
 43 42  2  0
 44 39  2  0
 44 43  1  0
 45 44  1  0
 47 48  1  0
 48 50  1  0
 48 51  1  0
 49 47  2  0
 52 27  1  0
 52 53  1  0
 54 52  1  0
 56 58  1  0
 57 68  2  0
 58 63  1  0
 59 67  1  0
 59 69  1  0
 60 66  1  0
 60 62  1  0
 61 67  1  0
 62 61  1  0
 63 62  2  0
 64 65  1  0
 64 58  2  0
 65 60  2  0
 66 59  1  0
 67 57  1  0
 69 71  2  0
 70 69  1  0
 72 70  1  0
 73 82  2  0
 73 78  1  0
 74 70  1  0
 74 78  1  0
 75 74  1  0
 76 77  1  0
 76 75  1  0
 77 73  1  0
 78 79  2  0
 79 80  1  0
 81 80  2  0
 82 81  1  0
 83 57  1  0
 83 88  1  0
 83 84  1  0
 84 87  1  1
 84 85  1  0
 86 84  1  0
 88 91  1  0
 89 88  1  0
 89 93  1  0
 90 89  2  0
 93 92  1  0
 93 95  1  0
 95 96  1  0
 95 94  1  0
M  ISO  4  17 100  25 100  55 101  56 101
M  END
>  <TORSDO>  (15) 
F 25

>  <SCORE>  (15) 
-0.457

>  <name>  (15) 
15

>  <ligand_id>  (15) 
15

>  <original_smiles>  (15) 
[H]c1c([H])c([H])c2c(c1[H])C([H])([H])C([H])([H])C([H])([H])C2([H])N([H])C(=O)C1([H])N(C(=O)C([H])(N([H])C(=O)C([H])(N([H])C([H])([H])[H])C([H])([H])[H])C(C([H])([H])[H])(C([H])([H])[H])C([H])([H])[H])C([H])([H])c2c([H])c(OC([H])([H])c3c(C([H])([H])[N+]([H])([H])C([H])([H])C([H])([H])C([H])([H])C([H])([H])C([H])([H])C([H])([H])N([H])C(=O)N4C([H])([H])C([H])([H])C([H])([H])C([H])(n5nc(-c6c([H])c([H])c(Oc7c([H])c([H])c(F)c([H])c7F)c([H])c6[H])c(C(=O)N([H])[H])c5N([H])[H])C4([H])[H])c([H])n(C([H])([H])[H])c3[H])c([H])c([H])c2C1([H])[H]

>  <smiles>  (15) 
[H]c1c([H])c([H])c2c(c1[H])C([H])([H])C([H])([H])C([H])([H])C2([H])N([H])C(=O)C1([H])N(C(=O)C([H])(N([H])C(=O)C([H])(N([H])C([H])([H])[H])C([H])([H])[H])C(C([H])([H])[H])(C([H])([H])[H])C([H])([H])[H])C([H])([H])c2c([H])c(OC([H])([H])c3c(C([H])([H])[N+]([H])([H])C([H])([H])C([H])([H])C([H])([H])C([H])([H])C([H])([H])C([H])([H])N([H])C(=O)N4C([H])([H])C([H])([H])C([H])([H])C([H])(n5nc(-c6c([H])c([H])c(Oc7c([H])c([H])c(F)c([H])c7F)c([H])c6[H])c(C(=O)N([H])[H])c5N([H])[H])C4([H])[H])c([H])n(C([H])([H])[H])c3[H])c([H])c([H])c2C1([H])[H]

$$$$
16:0:0
     RDKit          3D

 89 97  0  0  1  0  0  0  0  0999 V2000
  -29.5970  -20.7510   18.9270 C   0  0  0  0  0  3  0  0  0  0  0  0
  -29.2710  -22.3430   21.1140 C   0  0  0  0  0  3  0  0  0  0  0  0
  -29.1690  -22.1700   18.8130 C   0  0  0  0  0  0  0  0  0  0  0  0
  -29.7010  -20.9200   21.2250 C   0  0  0  0  0  0  0  0  0  0  0  0
  -29.8910  -19.9790   20.1260 C   0  0  0  0  0  0  0  0  0  0  0  0
  -28.9750  -23.1120   19.9130 C   0  0  0  0  0  0  0  0  0  0  0  0
  -28.8720  -22.6700   17.4080 C   0  0  0  0  0  1  0  0  0  0  0  0
  -29.9890  -20.4120   22.6270 C   0  0  0  0  0  1  0  0  0  0  0  0
  -30.6560  -18.4160   20.1350 C   0  0  0  0  0  2  0  0  0  0  0  0
  -30.9890  -15.5670   20.2050 C   0  0  0  0  0  0  0  0  0  0  0  0
  -30.9710  -13.1080   19.4220 C   0  0  0  0  0  2  0  0  0  0  0  0
  -30.0500  -12.8550   18.2030 C   0  0  0  0  0  2  0  0  0  0  0  0
  -28.6050  -12.5890   18.6580 C   0  0  0  0  0  2  0  0  0  0  0  0
  -28.1430  -13.5890   19.7490 C   0  0  0  0  0  3  0  0  0  0  0  0
  -29.1940  -13.7920   20.8620 C   0  0  0  0  0  2  0  0  0  0  0  0
  -30.4200  -14.2690   20.2040 N   0  0  0  0  0  0  0  0  0  0  0  0
  -32.2060  -15.5720   19.9820 O   0  0  0  0  0  0  0  0  0  0  0  0
  -30.2350  -16.8300   20.2490 N   0  0  0  0  0  0  0  0  0  0  0  0
  -29.2440  -16.6860   20.3740 H   0  0  0  0  0  0  0  0  0  0  0  0
  -25.7890  -14.1370   20.5650 C   0  0  0  0  0  0  0  0  0  0  0  0
  -24.7310  -13.3540   20.9310 C   0  0  0  0  0  0  0  0  0  0  0  0
  -25.1930  -12.0030   20.8530 C   0  0  0  0  0  0  0  0  0  0  0  0
  -26.8240  -13.2660   20.2760 N   0  0  0  0  0  0  0  0  0  0  0  0
  -26.4790  -11.9740   20.5180 N   0  0  0  0  0  0  0  0  0  0  0  0
  -24.4650  -10.7380   21.0180 C   0  0  0  0  0  0  0  0  0  0  0  0
  -24.8660   -9.7700   21.9640 C   0  0  0  0  0  3  0  0  0  0  0  0
  -24.1330   -8.5720   22.1200 C   0  0  0  0  0  3  0  0  0  0  0  0
  -22.9850   -8.3340   21.3260 C   0  0  0  0  0  0  0  0  0  0  0  0
  -22.6040   -9.2910   20.3690 C   0  0  0  0  0  3  0  0  0  0  0  0
  -23.3380  -10.4790   20.2120 C   0  0  0  0  0  3  0  0  0  0  0  0
  -22.2280   -7.1890   21.3880 O   0  0  0  0  0  0  0  0  0  0  0  0
  -22.0520   -6.5060   22.5640 C   0  0  0  0  0  0  0  0  0  0  0  0
  -21.4570   -7.1090   23.6930 C   0  0  0  0  0  3  0  0  0  0  0  0
  -21.2310   -6.3490   24.8590 C   0  0  0  0  0  3  0  0  0  0  0  0
  -21.5930   -4.9900   24.8960 C   0  0  0  0  0  0  0  0  0  0  0  0
  -22.1820   -4.3860   23.7710 C   0  0  0  0  0  3  0  0  0  0  0  0
  -22.4080   -5.1430   22.6070 C   0  0  0  0  0  0  0  0  0  0  0  0
  -22.9570   -4.5510   21.5180 F   0  0  0  0  0  0  0  0  0  0  0  0
  -21.3700   -4.2580   26.0130 F   0  0  0  0  0  0  0  0  0  0  0  0
  -23.3400  -13.8280   21.2350 C   0  0  0  0  0  0  0  0  0  0  0  0
  -22.6280  -13.1180   22.1020 N   0  0  0  0  0  0  0  0  0  0  0  0
  -22.8960  -14.8620   20.7390 O   0  0  0  0  0  0  0  0  0  0  0  0
  -23.0020  -12.2790   22.5220 H   0  0  0  0  0  0  0  0  0  0  0  0
  -21.6970  -13.4170   22.3510 H   0  0  0  0  0  0  0  0  0  0  0  0
  -25.9520  -15.5120   20.4220 N   0  0  0  0  0  0  0  0  0  0  0  0
  -25.1890  -16.1640   20.5710 H   0  0  0  0  0  0  0  0  0  0  0  0
  -26.7870  -15.9580   20.0640 H   0  0  0  0  0  0  0  0  0  0  0  0
  -28.1640  -24.6470   19.8310 C   0  0  0  0  0  2  0  0  0  0  0  0
  -28.5350  -26.2100   20.0670 O   0  0  0  0  0  0  0  0  0  0  0  0
  -24.8140  -31.8730   23.3490 C   0  0  0  0  0  0  0  0  0  0  0  0
  -27.5210  -27.2950   20.0510 C   0  0  0  0  0  0  0  0  0  0  0  0
  -23.6840  -30.5870   21.5810 C   0  0  0  0  0  3  0  0  0  0  0  0
  -25.1940  -29.1190   20.0860 C   0  0  0  0  0  0  0  0  0  0  0  0
  -26.2500  -30.8490   21.5210 C   0  0  0  0  0  2  0  0  0  0  0  0
  -26.3590  -29.4960   20.7670 C   0  0  0  0  0  0  0  0  0  0  0  0
  -27.5180  -28.6050   20.7320 C   0  0  0  0  0  3  0  0  0  0  0  0
  -26.3250  -27.0690   19.3310 C   0  0  0  0  0  3  0  0  0  0  0  0
  -25.2000  -27.9250   19.3530 C   0  0  0  0  0  3  0  0  0  0  0  0
  -23.9590  -30.0120   20.1660 C   0  0  0  0  0  2  0  0  0  0  0  0
  -24.9360  -31.1230   22.2070 N   0  0  0  0  0  0  0  0  0  0  0  0
  -23.7070  -32.1120   23.8570 O   0  0  0  0  0  0  0  0  0  0  0  0
  -22.9790  -29.5130   22.4510 C   0  0  0  0  0  0  0  0  0  0  0  0
  -21.6570  -29.3380   22.2700 N   0  0  0  0  0  0  0  0  0  0  0  0
  -23.6280  -28.8420   23.2570 O   0  0  0  0  0  0  0  0  0  0  0  0
  -21.1860  -29.9310   21.6010 H   0  0  0  0  0  0  0  0  0  0  0  0
  -18.2780  -28.0540   22.5800 C   0  0  0  0  0  0  0  0  0  0  0  0
  -20.8240  -28.3360   22.9480 C   0  0  0  0  0  3  0  0  0  0  0  0
  -20.9680  -26.9500   22.2800 C   0  0  0  0  0  2  0  0  0  0  0  0
  -19.9040  -26.6820   21.2110 C   0  0  0  0  0  2  0  0  0  0  0  0
  -18.5000  -26.7600   21.8160 C   0  0  0  0  0  2  0  0  0  0  0  0
  -19.3700  -28.8020   23.0980 C   0  0  0  0  0  0  0  0  0  0  0  0
  -19.1070  -30.0130   23.7750 C   0  0  0  0  0  3  0  0  0  0  0  0
  -17.7880  -30.4780   23.9360 C   0  0  0  0  0  3  0  0  0  0  0  0
  -16.7110  -29.7260   23.4350 C   0  0  0  0  0  3  0  0  0  0  0  0
  -16.9580  -28.5150   22.7620 C   0  0  0  0  0  3  0  0  0  0  0  0
  -26.0590  -32.4800   24.0620 C   0  0  0  0  0  3  0  0  0  0  0  0
  -25.7360  -33.8690   24.4370 N   0  0  0  0  0  0  0  0  0  0  0  0
  -26.0710  -34.9520   23.7250 C   0  0  0  0  0  0  0  0  0  0  0  0
  -26.7500  -34.8890   22.6970 O   0  0  0  0  0  0  0  0  0  0  0  0
  -25.1360  -33.9920   25.2380 H   0  0  0  0  0  0  0  0  0  0  0  0
  -24.3290  -36.7490   23.4450 C   0  0  0  0  0  1  0  0  0  0  0  0
  -25.5780  -36.3230   24.2330 C   0  0  0  0  0  3  0  0  0  0  0  0
  -27.7050  -37.2030   25.0880 C   0  0  0  0  0  1  0  0  0  0  0  0
  -26.6010  -37.3890   24.1510 N   0  0  0  0  0  0  0  0  0  0  0  0
  -26.1860  -38.3000   24.3290 H   0  0  0  0  0  0  0  0  0  0  0  0
  -26.5030  -31.6630   25.3370 C   0  0  1  0  0  0  0  0  0  0  0  0
  -25.3540  -31.4000   26.3390 C   0  0  0  0  0  1  0  0  0  0  0  0
  -27.0940  -30.2930   24.9330 C   0  0  0  0  0  1  0  0  0  0  0  0
  -27.6280  -32.4210   26.0820 C   0  0  0  0  0  1  0  0  0  0  0  0
  1  5  1  0
  2  4  1  0
  3  1  2  0
  3  6  1  0
  4  8  1  0
  5  9  1  0
  5  4  2  0
  6  2  2  0
  7  3  1  0
  9 18  1  0
 10 18  1  0
 11 16  1  0
 12 13  1  0
 12 11  1  0
 14 13  1  0
 14 23  1  0
 14 15  1  0
 16 10  1  0
 16 15  1  0
 17 10  2  0
 18 19  1  0
 20 21  2  0
 21 40  1  0
 22 21  1  0
 22 25  1  0
 23 24  1  0
 23 20  1  0
 24 22  2  0
 25 26  1  0
 26 27  2  0
 28 31  1  0
 28 27  1  0
 29 28  2  0
 30 29  1  0
 30 25  2  0
 31 32  1  0
 32 37  2  0
 32 33  1  0
 33 34  2  0
 34 35  1  0
 35 39  1  0
 36 35  2  0
 37 36  1  0
 38 37  1  0
 40 41  1  0
 41 44  1  0
 41 43  1  0
 42 40  2  0
 45 20  1  0
 45 46  1  0
 47 45  1  0
 48  6  1  0
 48 49  1  0
 50 61  2  0
 51 49  1  0
 51 56  1  0
 52 60  1  0
 52 62  1  0
 53 59  1  0
 53 55  1  0
 54 60  1  0
 55 54  1  0
 56 55  2  0
 57 58  1  0
 57 51  2  0
 58 53  2  0
 59 52  1  0
 60 50  1  0
 62 64  2  0
 63 62  1  0
 65 63  1  0
 66 75  2  0
 66 71  1  0
 67 63  1  0
 67 71  1  0
 68 67  1  0
 69 70  1  0
 69 68  1  0
 70 66  1  0
 71 72  2  0
 72 73  1  0
 74 73  2  0
 75 74  1  0
 76 50  1  0
 76 77  1  0
 76 86  1  0
 77 80  1  0
 78 82  1  0
 78 77  1  0
 79 78  2  0
 82 81  1  0
 84 82  1  0
 84 85  1  0
 84 83  1  0
 86 89  1  1
 86 87  1  0
 88 86  1  0
M  ISO  4  10 100  18 100  48 101  49 101
M  END
>  <TORSDO>  (16) 
F 18

>  <SCORE>  (16) 
-14.451

>  <name>  (16) 
16

>  <ligand_id>  (16) 
16

>  <original_smiles>  (16) 
[H]c1c([H])c([H])c2c(c1[H])C([H])([H])C([H])([H])C([H])([H])C2([H])N([H])C(=O)C1([H])N(C(=O)C([H])(N([H])C(=O)C([H])(N([H])C([H])([H])[H])C([H])([H])[H])C(C([H])([H])[H])(C([H])([H])[H])C([H])([H])[H])C([H])([H])c2c([H])c(OC([H])([H])c3c([H])c(C([H])([H])[H])c(C([H])([H])N([H])C(=O)N4C([H])([H])C([H])([H])C([H])([H])C([H])(n5nc(-c6c([H])c([H])c(Oc7c([H])c([H])c(F)c([H])c7F)c([H])c6[H])c(C(=O)N([H])[H])c5N([H])[H])C4([H])[H])c([H])c3C([H])([H])[H])c([H])c([H])c2C1([H])[H]

>  <smiles>  (16) 
[H]c1c([H])c([H])c2c(c1[H])C([H])([H])C([H])([H])C([H])([H])C2([H])N([H])C(=O)C1([H])N(C(=O)C([H])(N([H])C(=O)C([H])(N([H])C([H])([H])[H])C([H])([H])[H])C(C([H])([H])[H])(C([H])([H])[H])C([H])([H])[H])C([H])([H])c2c([H])c(OC([H])([H])c3c([H])c(C([H])([H])[H])c(C([H])([H])N([H])C(=O)N4C([H])([H])C([H])([H])C([H])([H])C([H])(n5nc(-c6c([H])c([H])c(Oc7c([H])c([H])c(F)c([H])c7F)c([H])c6[H])c(C(=O)N([H])[H])c5N([H])[H])C4([H])[H])c([H])c3C([H])([H])[H])c([H])c([H])c2C1([H])[H]

$$$$
17:0:0
     RDKit          3D

 95103  0  0  1  0  0  0  0  0999 V2000
  -28.5250  -22.6470   21.4460 C   0  0  0  0  0  3  0  0  0  0  0  0
  -29.0570  -21.7930   19.2350 C   0  0  0  0  0  3  0  0  0  0  0  0
  -28.1350  -22.3860   20.1200 C   0  0  0  0  0  0  0  0  0  0  0  0
  -29.8430  -22.3860   21.8730 C   0  0  0  0  0  0  0  0  0  0  0  0
  -30.3810  -21.5120   19.6370 C   0  0  0  0  0  0  0  0  0  0  0  0
  -30.7860  -21.8370   20.9610 C   0  0  0  0  0  0  0  0  0  0  0  0
  -32.4340  -21.6270   21.4500 Cl  0  0  0  0  0  0  0  0  0  0  0  0
  -29.7570  -21.7260   24.3360 C   0  0  0  0  0  1  0  0  0  0  0  0
  -30.2110  -22.7680   23.3050 C   0  0  0  0  0  2  0  0  0  0  0  0
  -26.7610  -22.8100   19.6260 C   0  0  0  0  0  2  0  0  0  0  0  0
  -26.6190  -24.3470   19.5850 C   0  0  0  0  0  2  0  0  0  0  0  0
  -25.8250  -24.8600   18.3710 C   0  0  0  0  0  2  0  0  0  0  0  0
  -26.0340  -26.2600   18.1620 O   0  0  0  0  0  0  0  0  0  0  0  0
  -25.0310  -30.8960   23.4530 C   0  0  0  0  0  0  0  0  0  0  0  0
  -25.1750  -27.1920   18.7100 C   0  0  0  0  0  0  0  0  0  0  0  0
  -23.0760  -30.5110   21.9870 C   0  0  0  0  0  3  0  0  0  0  0  0
  -23.5360  -29.2010   19.8500 C   0  0  0  0  0  0  0  0  0  0  0  0
  -25.4540  -30.2080   21.0950 C   0  0  0  0  0  2  0  0  0  0  0  0
  -24.9010  -29.1570   20.1530 C   0  0  0  0  0  0  0  0  0  0  0  0
  -25.7210  -28.1570   19.5860 C   0  0  0  0  0  3  0  0  0  0  0  0
  -23.7880  -27.2410   18.4280 C   0  0  0  0  0  3  0  0  0  0  0  0
  -22.9730  -28.2430   18.9900 C   0  0  0  0  0  3  0  0  0  0  0  0
  -22.7230  -30.3020   20.4900 C   0  0  0  0  0  2  0  0  0  0  0  0
  -24.5560  -30.5270   22.2300 N   0  0  0  0  0  0  0  0  0  0  0  0
  -24.2620  -31.2610   24.3540 O   0  0  0  0  0  0  0  0  0  0  0  0
  -22.3280  -29.4490   22.8240 C   0  0  0  0  0  0  0  0  0  0  0  0
  -20.9870  -29.4720   22.7580 N   0  0  0  0  0  0  0  0  0  0  0  0
  -22.9490  -28.6150   23.4870 O   0  0  0  0  0  0  0  0  0  0  0  0
  -20.5570  -30.1960   22.2000 H   0  0  0  0  0  0  0  0  0  0  0  0
  -17.5440  -28.3860   22.9240 C   0  0  0  0  0  0  0  0  0  0  0  0
  -20.0750  -28.5470   23.4290 C   0  0  0  0  0  3  0  0  0  0  0  0
  -20.1810  -27.1270   22.8290 C   0  0  0  0  0  2  0  0  0  0  0  0
  -19.1640  -26.8650   21.7140 C   0  0  0  0  0  2  0  0  0  0  0  0
  -17.7350  -27.0450   22.2350 C   0  0  0  0  0  2  0  0  0  0  0  0
  -18.6450  -29.0980   23.4700 C   0  0  0  0  0  0  0  0  0  0  0  0
  -18.4170  -30.3570   24.0680 C   0  0  0  0  0  3  0  0  0  0  0  0
  -17.1210  -30.9020   24.1290 C   0  0  0  0  0  3  0  0  0  0  0  0
  -16.0330  -30.1860   23.5990 C   0  0  0  0  0  3  0  0  0  0  0  0
  -16.2450  -28.9290   23.0040 C   0  0  0  0  0  3  0  0  0  0  0  0
  -26.5590  -30.9020   23.7710 C   0  0  0  0  0  3  0  0  0  0  0  0
  -26.8220  -32.0510   24.6480 N   0  0  0  0  0  0  0  0  0  0  0  0
  -27.4180  -33.1860   24.2560 C   0  0  0  0  0  0  0  0  0  0  0  0
  -27.8730  -33.3470   23.1190 O   0  0  0  0  0  0  0  0  0  0  0  0
  -26.4270  -32.0120   25.5760 H   0  0  0  0  0  0  0  0  0  0  0  0
  -26.4620  -35.3910   24.9930 C   0  0  0  0  0  1  0  0  0  0  0  0
  -27.5280  -34.3240   25.2890 C   0  0  0  0  0  3  0  0  0  0  0  0
  -29.9010  -34.0750   25.8690 C   0  0  0  0  0  1  0  0  0  0  0  0
  -28.8660  -34.9540   25.3290 N   0  0  0  0  0  0  0  0  0  0  0  0
  -28.8490  -35.8030   25.8870 H   0  0  0  0  0  0  0  0  0  0  0  0
  -27.0580  -29.5640   24.4380 C   0  0  1  0  0  0  0  0  0  0  0  0
  -26.2220  -29.1350   25.6670 C   0  0  0  0  0  1  0  0  0  0  0  0
  -27.0340  -28.4040   23.4160 C   0  0  0  0  0  1  0  0  0  0  0  0
  -28.5290  -29.7240   24.8920 C   0  0  0  0  0  1  0  0  0  0  0  0
  -31.3480  -21.0050   18.5610 C   0  0  0  0  0  2  0  0  0  0  0  0
  -32.1520  -19.7120   18.8250 C   0  0  0  0  0  2  0  0  0  0  0  0
  -31.3530  -18.4060   18.9770 C   0  0  0  0  0  2  0  0  0  0  0  0
  -32.2540  -17.3020   19.5680 C   0  0  0  0  0  2  0  0  0  0  0  0
  -32.1020  -14.8610   19.0160 C   0  0  0  0  0  0  0  0  0  0  0  0
  -31.9890  -12.3930   19.0780 C   0  0  0  0  0  2  0  0  0  0  0  0
  -30.9880  -11.8190   18.0600 C   0  0  0  0  0  2  0  0  0  0  0  0
  -29.5630  -11.7930   18.6430 C   0  0  0  0  0  2  0  0  0  0  0  0
  -29.1540  -13.1490   19.2740 C   0  0  0  0  0  3  0  0  0  0  0  0
  -30.2530  -13.6510   20.2330 C   0  0  0  0  0  2  0  0  0  0  0  0
  -31.5230  -13.7260   19.4860 N   0  0  0  0  0  0  0  0  0  0  0  0
  -33.0420  -14.8690   18.2150 O   0  0  0  0  0  0  0  0  0  0  0  0
  -31.6310  -15.9830   19.5740 N   0  0  0  0  0  0  0  0  0  0  0  0
  -30.8570  -15.8550   20.2100 H   0  0  0  0  0  0  0  0  0  0  0  0
  -27.0710  -14.0690   20.4810 C   0  0  0  0  0  0  0  0  0  0  0  0
  -25.9290  -13.4590   20.9240 C   0  0  0  0  0  0  0  0  0  0  0  0
  -26.0780  -12.0710   20.6190 C   0  0  0  0  0  0  0  0  0  0  0  0
  -27.8570  -13.0590   19.9430 N   0  0  0  0  0  0  0  0  0  0  0  0
  -27.2680  -11.8440   20.0790 N   0  0  0  0  0  0  0  0  0  0  0  0
  -25.1340  -10.9550   20.7560 C   0  0  0  0  0  0  0  0  0  0  0  0
  -25.3890   -9.8780   21.6350 C   0  0  0  0  0  3  0  0  0  0  0  0
  -24.4600   -8.8240   21.7630 C   0  0  0  0  0  3  0  0  0  0  0  0
  -23.2590   -8.8410   21.0120 C   0  0  0  0  0  0  0  0  0  0  0  0
  -23.0220   -9.9040   20.1230 C   0  0  0  0  0  3  0  0  0  0  0  0
  -23.9500  -10.9490   19.9940 C   0  0  0  0  0  3  0  0  0  0  0  0
  -22.3100   -7.8480   21.0530 O   0  0  0  0  0  0  0  0  0  0  0  0
  -21.9580   -7.2360   22.2290 C   0  0  0  0  0  0  0  0  0  0  0  0
  -21.4080   -7.9590   23.3100 C   0  0  0  0  0  3  0  0  0  0  0  0
  -20.9970   -7.2790   24.4740 C   0  0  0  0  0  3  0  0  0  0  0  0
  -21.1250   -5.8790   24.5560 C   0  0  0  0  0  0  0  0  0  0  0  0
  -21.6670   -5.1570   23.4780 C   0  0  0  0  0  3  0  0  0  0  0  0
  -22.0790   -5.8340   22.3170 C   0  0  0  0  0  0  0  0  0  0  0  0
  -22.5820   -5.1320   21.2730 F   0  0  0  0  0  0  0  0  0  0  0  0
  -20.7210   -5.2260   25.6700 F   0  0  0  0  0  0  0  0  0  0  0  0
  -24.7220  -14.1340   21.5100 C   0  0  0  0  0  0  0  0  0  0  0  0
  -24.0110  -13.4540   22.4020 N   0  0  0  0  0  0  0  0  0  0  0  0
  -24.4310  -15.2920   21.2140 O   0  0  0  0  0  0  0  0  0  0  0  0
  -24.2630  -12.5100   22.6620 H   0  0  0  0  0  0  0  0  0  0  0  0
  -23.2030  -13.8810   22.8320 H   0  0  0  0  0  0  0  0  0  0  0  0
  -27.5000  -15.3920   20.4730 N   0  0  0  0  0  0  0  0  0  0  0  0
  -26.9230  -16.1520   20.8170 H   0  0  0  0  0  0  0  0  0  0  0  0
  -28.3770  -15.7070   20.0780 H   0  0  0  0  0  0  0  0  0  0  0  0
  1  4  1  0
  2  5  2  0
  2  3  1  0
  3  1  2  0
  4  9  1  0
  5  6  1  0
  6  7  1  0
  6  4  2  0
  9  8  1  0
 10  3  1  0
 11 10  1  0
 12 11  1  0
 13 12  1  0
 13 15  1  0
 14 25  2  0
 15 20  1  0
 16 24  1  0
 16 26  1  0
 17 19  1  0
 17 23  1  0
 18 24  1  0
 19 18  1  0
 20 19  2  0
 21 15  2  0
 21 22  1  0
 22 17  2  0
 23 16  1  0
 24 14  1  0
 26 28  2  0
 27 26  1  0
 29 27  1  0
 30 39  2  0
 30 35  1  0
 31 27  1  0
 31 35  1  0
 32 31  1  0
 33 34  1  0
 33 32  1  0
 34 30  1  0
 35 36  2  0
 36 37  1  0
 38 37  2  0
 39 38  1  0
 40 14  1  0
 40 50  1  0
 40 41  1  0
 41 44  1  0
 42 41  1  0
 42 46  1  0
 43 42  2  0
 46 45  1  0
 46 48  1  0
 48 47  1  0
 48 49  1  0
 50 53  1  1
 50 51  1  0
 52 50  1  0
 54 55  1  0
 54  5  1  0
 55 56  1  0
 56 57  1  0
 57 66  1  0
 58 64  1  0
 58 66  1  0
 59 64  1  0
 60 61  1  0
 60 59  1  0
 62 61  1  0
 62 71  1  0
 62 63  1  0
 64 63  1  0
 65 58  2  0
 66 67  1  0
 68 69  2  0
 69 88  1  0
 70 73  1  0
 70 69  1  0
 71 72  1  0
 71 68  1  0
 72 70  2  0
 73 74  1  0
 74 75  2  0
 76 79  1  0
 76 75  1  0
 77 76  2  0
 78 77  1  0
 78 73  2  0
 79 80  1  0
 80 85  2  0
 80 81  1  0
 81 82  2  0
 82 83  1  0
 83 87  1  0
 84 83  2  0
 85 84  1  0
 86 85  1  0
 88 89  1  0
 89 91  1  0
 89 92  1  0
 90 88  2  0
 93 68  1  0
 93 94  1  0
 95 93  1  0
M  ISO  4  12 101  13 101  58 100  66 100
M  END
>  <TORSDO>  (17) 
F 24

>  <SCORE>  (17) 
-8.798

>  <name>  (17) 
17

>  <ligand_id>  (17) 
17

>  <original_smiles>  (17) 
[H]c1c([H])c([H])c2c(c1[H])C([H])([H])C([H])([H])C([H])([H])C2([H])N([H])C(=O)C1([H])N(C(=O)C([H])(N([H])C(=O)C([H])(N([H])C([H])([H])[H])C([H])([H])[H])C(C([H])([H])[H])(C([H])([H])[H])C([H])([H])[H])C([H])([H])c2c([H])c(OC([H])([H])C([H])([H])C([H])([H])c3c([H])c(C([H])([H])C([H])([H])[H])c(Cl)c(C([H])([H])C([H])([H])C([H])([H])C([H])([H])N([H])C(=O)N4C([H])([H])C([H])([H])C([H])([H])C([H])(n5nc(-c6c([H])c([H])c(Oc7c([H])c([H])c(F)c([H])c7F)c([H])c6[H])c(C(=O)N([H])[H])c5N([H])[H])C4([H])[H])c3[H])c([H])c([H])c2C1([H])[H]

>  <smiles>  (17) 
[H]c1c([H])c([H])c2c(c1[H])C([H])([H])C([H])([H])C([H])([H])C2([H])N([H])C(=O)C1([H])N(C(=O)C([H])(N([H])C(=O)C([H])(N([H])C([H])([H])[H])C([H])([H])[H])C(C([H])([H])[H])(C([H])([H])[H])C([H])([H])[H])C([H])([H])c2c([H])c(OC([H])([H])C([H])([H])C([H])([H])c3c([H])c(C([H])([H])C([H])([H])[H])c(Cl)c(C([H])([H])C([H])([H])C([H])([H])C([H])([H])N([H])C(=O)N4C([H])([H])C([H])([H])C([H])([H])C([H])(n5nc(-c6c([H])c([H])c(Oc7c([H])c([H])c(F)c([H])c7F)c([H])c6[H])c(C(=O)N([H])[H])c5N([H])[H])C4([H])[H])c3[H])c([H])c([H])c2C1([H])[H]

$$$$
18:0:0
     RDKit          3D

 89 97  0  0  1  0  0  0  0  0999 V2000
  -27.9900  -21.7850   20.6450 C   0  0  0  0  0  3  0  0  0  0  0  0
  -30.1950  -20.9750   19.2980 C   0  0  0  0  0  3  0  0  0  0  0  0
  -28.6270  -22.9440   20.0160 C   0  0  0  0  0  0  0  0  0  0  0  0
  -29.5630  -19.8150   19.9200 C   0  0  0  0  0  0  0  0  0  0  0  0
  -28.4080  -20.3560   20.6200 C   0  0  0  0  0  0  0  0  0  0  0  0
  -29.7790  -22.3970   19.3220 C   0  0  0  0  0  0  0  0  0  0  0  0
  -27.6450  -19.4820   21.3170 F   0  0  0  0  0  0  0  0  0  0  0  0
  -30.7360  -23.5010   18.4030 Cl  0  0  0  0  0  0  0  0  0  0  0  0
  -30.2910  -18.2350   19.8870 C   0  0  0  0  0  2  0  0  0  0  0  0
  -30.6160  -15.3900   19.8470 C   0  0  0  0  0  0  0  0  0  0  0  0
  -30.5260  -12.9750   18.9440 C   0  0  0  0  0  2  0  0  0  0  0  0
  -29.5270  -12.8000   17.7740 C   0  0  0  0  0  2  0  0  0  0  0  0
  -28.1110  -12.5240   18.3080 C   0  0  0  0  0  2  0  0  0  0  0  0
  -27.7350  -13.4670   19.4790 C   0  0  0  0  0  3  0  0  0  0  0  0
  -28.8540  -13.5960   20.5330 C   0  0  0  0  0  2  0  0  0  0  0  0
  -30.0410  -14.0950   19.8240 N   0  0  0  0  0  0  0  0  0  0  0  0
  -31.8120  -15.4070   19.5290 O   0  0  0  0  0  0  0  0  0  0  0  0
  -29.8740  -16.6490   20.0160 N   0  0  0  0  0  0  0  0  0  0  0  0
  -28.8990  -16.5050   20.2310 H   0  0  0  0  0  0  0  0  0  0  0  0
  -25.4290  -13.9930   20.4330 C   0  0  0  0  0  0  0  0  0  0  0  0
  -24.3950  -13.1980   20.8460 C   0  0  0  0  0  0  0  0  0  0  0  0
  -24.8560  -11.8520   20.7190 C   0  0  0  0  0  0  0  0  0  0  0  0
  -26.4480  -13.1300   20.0730 N   0  0  0  0  0  0  0  0  0  0  0  0
  -26.1200  -11.8330   20.3110 N   0  0  0  0  0  0  0  0  0  0  0  0
  -24.1420  -10.5810   20.9060 C   0  0  0  0  0  0  0  0  0  0  0  0
  -24.5650   -9.6270   21.8580 C   0  0  0  0  0  3  0  0  0  0  0  0
  -23.8490   -8.4230   22.0310 C   0  0  0  0  0  3  0  0  0  0  0  0
  -22.6940   -8.1650   21.2530 C   0  0  0  0  0  0  0  0  0  0  0  0
  -22.2920   -9.1070   20.2910 C   0  0  0  0  0  3  0  0  0  0  0  0
  -23.0090  -10.3020   20.1150 C   0  0  0  0  0  3  0  0  0  0  0  0
  -21.9500   -7.0130   21.3360 O   0  0  0  0  0  0  0  0  0  0  0  0
  -21.7770   -6.3530   22.5270 C   0  0  0  0  0  0  0  0  0  0  0  0
  -21.1630   -6.9700   23.6390 C   0  0  0  0  0  3  0  0  0  0  0  0
  -20.9420   -6.2330   24.8200 C   0  0  0  0  0  3  0  0  0  0  0  0
  -21.3230   -4.8800   24.8880 C   0  0  0  0  0  0  0  0  0  0  0  0
  -21.9270   -4.2620   23.7790 C   0  0  0  0  0  3  0  0  0  0  0  0
  -22.1520   -4.9960   22.6010 C   0  0  0  0  0  0  0  0  0  0  0  0
  -22.7150   -4.3900   21.5280 F   0  0  0  0  0  0  0  0  0  0  0  0
  -21.1020   -4.1690   26.0180 F   0  0  0  0  0  0  0  0  0  0  0  0
  -23.0230  -13.6610   21.2400 C   0  0  0  0  0  0  0  0  0  0  0  0
  -22.3600  -12.9280   22.1260 N   0  0  0  0  0  0  0  0  0  0  0  0
  -22.5520  -14.7080   20.7960 O   0  0  0  0  0  0  0  0  0  0  0  0
  -22.7570  -12.0790   22.5020 H   0  0  0  0  0  0  0  0  0  0  0  0
  -21.4430  -13.2180   22.4340 H   0  0  0  0  0  0  0  0  0  0  0  0
  -25.5760  -15.3700   20.3060 N   0  0  0  0  0  0  0  0  0  0  0  0
  -24.8150  -16.0120   20.5010 H   0  0  0  0  0  0  0  0  0  0  0  0
  -26.3900  -15.8310   19.9200 H   0  0  0  0  0  0  0  0  0  0  0  0
  -27.8900  -24.5070   19.8560 C   0  0  0  0  0  2  0  0  0  0  0  0
  -28.2510  -26.0490   20.2240 O   0  0  0  0  0  0  0  0  0  0  0  0
  -24.6980  -31.9120   23.3070 C   0  0  0  0  0  0  0  0  0  0  0  0
  -27.2580  -27.1500   20.1700 C   0  0  0  0  0  0  0  0  0  0  0  0
  -23.5050  -30.5590   21.6330 C   0  0  0  0  0  3  0  0  0  0  0  0
  -24.9570  -29.0060   20.1680 C   0  0  0  0  0  0  0  0  0  0  0  0
  -26.0710  -30.7880   21.4930 C   0  0  0  0  0  2  0  0  0  0  0  0
  -26.1440  -29.4000   20.8000 C   0  0  0  0  0  0  0  0  0  0  0  0
  -27.2900  -28.4910   20.7800 C   0  0  0  0  0  3  0  0  0  0  0  0
  -26.0430  -26.9050   19.4880 C   0  0  0  0  0  3  0  0  0  0  0  0
  -24.9310  -27.7780   19.4940 C   0  0  0  0  0  3  0  0  0  0  0  0
  -23.7360  -29.9170   20.2380 C   0  0  0  0  0  2  0  0  0  0  0  0
  -24.7790  -31.1110   22.1980 N   0  0  0  0  0  0  0  0  0  0  0  0
  -23.6080  -32.1870   23.8370 O   0  0  0  0  0  0  0  0  0  0  0  0
  -22.8150  -29.5340   22.5700 C   0  0  0  0  0  0  0  0  0  0  0  0
  -21.4900  -29.3460   22.4180 N   0  0  0  0  0  0  0  0  0  0  0  0
  -23.4760  -28.9100   23.4030 O   0  0  0  0  0  0  0  0  0  0  0  0
  -21.0080  -29.9030   21.7250 H   0  0  0  0  0  0  0  0  0  0  0  0
  -18.1180  -28.0850   22.8580 C   0  0  0  0  0  0  0  0  0  0  0  0
  -20.6700  -28.3860   23.1630 C   0  0  0  0  0  3  0  0  0  0  0  0
  -20.8010  -26.9630   22.5690 C   0  0  0  0  0  2  0  0  0  0  0  0
  -19.7190  -26.6420   21.5340 C   0  0  0  0  0  2  0  0  0  0  0  0
  -18.3270  -26.7520   22.1610 C   0  0  0  0  0  2  0  0  0  0  0  0
  -19.2180  -28.8590   23.3140 C   0  0  0  0  0  0  0  0  0  0  0  0
  -18.9680  -30.1050   23.9300 C   0  0  0  0  0  3  0  0  0  0  0  0
  -17.6510  -30.5800   24.0890 C   0  0  0  0  0  3  0  0  0  0  0  0
  -16.5670  -29.8030   23.6470 C   0  0  0  0  0  3  0  0  0  0  0  0
  -16.8020  -28.5570   23.0390 C   0  0  0  0  0  3  0  0  0  0  0  0
  -25.9700  -32.5410   23.9560 C   0  0  0  0  0  3  0  0  0  0  0  0
  -25.6710  -33.9490   24.2670 N   0  0  0  0  0  0  0  0  0  0  0  0
  -26.0040  -34.9930   23.4970 C   0  0  0  0  0  0  0  0  0  0  0  0
  -26.6600  -34.8710   22.4590 O   0  0  0  0  0  0  0  0  0  0  0  0
  -25.0900  -34.1180   25.0750 H   0  0  0  0  0  0  0  0  0  0  0  0
  -24.2790  -36.7930   23.1660 C   0  0  0  0  0  1  0  0  0  0  0  0
  -25.5400  -36.3920   23.9480 C   0  0  0  0  0  3  0  0  0  0  0  0
  -27.6940  -37.2840   24.7150 C   0  0  0  0  0  1  0  0  0  0  0  0
  -26.5740  -37.4380   23.7900 N   0  0  0  0  0  0  0  0  0  0  0  0
  -26.1750  -38.3620   23.9280 H   0  0  0  0  0  0  0  0  0  0  0  0
  -26.4360  -31.7830   25.2600 C   0  0  1  0  0  0  0  0  0  0  0  0
  -25.3090  -31.5770   26.2990 C   0  0  0  0  0  1  0  0  0  0  0  0
  -27.0130  -30.3920   24.9150 C   0  0  0  0  0  1  0  0  0  0  0  0
  -27.5750  -32.5740   25.9460 C   0  0  0  0  0  1  0  0  0  0  0  0
  2  6  2  0
  2  4  1  0
  3  1  2  0
  4  5  2  0
  5  1  1  0
  5  7  1  0
  6  3  1  0
  8  6  1  0
  9  4  1  0
  9 18  1  0
 10 18  1  0
 11 16  1  0
 12 13  1  0
 12 11  1  0
 14 13  1  0
 14 23  1  0
 14 15  1  0
 16 10  1  0
 16 15  1  0
 17 10  2  0
 18 19  1  0
 20 21  2  0
 21 40  1  0
 22 21  1  0
 22 25  1  0
 23 24  1  0
 23 20  1  0
 24 22  2  0
 25 26  1  0
 26 27  2  0
 28 31  1  0
 28 27  1  0
 29 28  2  0
 30 29  1  0
 30 25  2  0
 31 32  1  0
 32 37  2  0
 32 33  1  0
 33 34  2  0
 34 35  1  0
 35 39  1  0
 36 35  2  0
 37 36  1  0
 38 37  1  0
 40 41  1  0
 41 44  1  0
 41 43  1  0
 42 40  2  0
 45 20  1  0
 45 46  1  0
 47 45  1  0
 48  3  1  0
 48 49  1  0
 50 61  2  0
 51 49  1  0
 51 56  1  0
 52 60  1  0
 52 62  1  0
 53 59  1  0
 53 55  1  0
 54 60  1  0
 55 54  1  0
 56 55  2  0
 57 58  1  0
 57 51  2  0
 58 53  2  0
 59 52  1  0
 60 50  1  0
 62 64  2  0
 63 62  1  0
 65 63  1  0
 66 75  2  0
 66 71  1  0
 67 63  1  0
 67 71  1  0
 68 67  1  0
 69 70  1  0
 69 68  1  0
 70 66  1  0
 71 72  2  0
 72 73  1  0
 74 73  2  0
 75 74  1  0
 76 50  1  0
 76 77  1  0
 76 86  1  0
 77 80  1  0
 78 82  1  0
 78 77  1  0
 79 78  2  0
 82 81  1  0
 84 85  1  0
 84 82  1  0
 84 83  1  0
 86 89  1  1
 86 87  1  0
 88 86  1  0
M  ISO  4  10 100  18 100  48 101  49 101
M  END
>  <TORSDO>  (18) 
F 18

>  <SCORE>  (18) 
-14.988

>  <name>  (18) 
18

>  <ligand_id>  (18) 
18

>  <original_smiles>  (18) 
[H]c1c([H])c([H])c2c(c1[H])C([H])([H])C([H])([H])C([H])([H])C2([H])N([H])C(=O)C1([H])N(C(=O)C([H])(N([H])C(=O)C([H])(N([H])C([H])([H])[H])C([H])([H])[H])C(C([H])([H])[H])(C([H])([H])[H])C([H])([H])[H])C([H])([H])c2c([H])c(OC([H])([H])c3c([H])c(F)c(C([H])([H])N([H])C(=O)N4C([H])([H])C([H])([H])C([H])([H])C([H])(n5nc(-c6c([H])c([H])c(Oc7c([H])c([H])c(F)c([H])c7F)c([H])c6[H])c(C(=O)N([H])[H])c5N([H])[H])C4([H])[H])c([H])c3Cl)c([H])c([H])c2C1([H])[H]

>  <smiles>  (18) 
[H]c1c([H])c([H])c2c(c1[H])C([H])([H])C([H])([H])C([H])([H])C2([H])N([H])C(=O)C1([H])N(C(=O)C([H])(N([H])C(=O)C([H])(N([H])C([H])([H])[H])C([H])([H])[H])C(C([H])([H])[H])(C([H])([H])[H])C([H])([H])[H])C([H])([H])c2c([H])c(OC([H])([H])c3c([H])c(F)c(C([H])([H])N([H])C(=O)N4C([H])([H])C([H])([H])C([H])([H])C([H])(n5nc(-c6c([H])c([H])c(Oc7c([H])c([H])c(F)c([H])c7F)c([H])c6[H])c(C(=O)N([H])[H])c5N([H])[H])C4([H])[H])c([H])c3Cl)c([H])c([H])c2C1([H])[H]

$$$$
19:0:0
     RDKit          3D

 92100  0  0  1  0  0  0  0  0999 V2000
  -28.6540  -20.1540   19.7820 C   0  0  0  0  0  3  0  0  0  0  0  0
  -29.1270  -17.7570   19.7350 C   0  0  0  0  0  3  0  0  0  0  0  0
  -30.9040  -19.3490   20.2350 C   0  0  0  0  0  3  0  0  0  0  0  0
  -28.2070  -18.8230   19.6140 C   0  0  0  0  0  0  0  0  0  0  0  0
  -29.9950  -20.4370   20.1020 C   0  0  0  0  0  0  0  0  0  0  0  0
  -30.4830  -18.0020   20.0370 C   0  0  0  0  0  0  0  0  0  0  0  0
  -25.8970  -19.6610   18.7940 C   0  0  0  0  0  1  0  0  0  0  0  0
  -26.7480  -18.4940   19.3210 C   0  0  0  0  0  2  0  0  0  0  0  0
  -30.4200  -21.9140   20.2460 C   0  0  0  0  0  2  0  0  0  0  0  0
  -29.7400  -22.7040   21.4120 C   0  0  0  0  0  2  0  0  0  0  0  0
  -28.9090  -23.9890   21.0740 C   0  0  0  0  0  2  0  0  0  0  0  0
  -29.6430  -25.1700   20.3730 C   0  0  0  0  0  2  0  0  0  0  0  0
  -29.4260  -26.4720   20.9780 O   0  0  0  0  0  0  0  0  0  0  0  0
  -25.2210  -31.5100   23.7820 C   0  0  0  0  0  0  0  0  0  0  0  0
  -28.2280  -27.1640   20.8550 C   0  0  0  0  0  0  0  0  0  0  0  0
  -24.2110  -30.1500   21.9830 C   0  0  0  0  0  3  0  0  0  0  0  0
  -25.8210  -28.6700   20.6670 C   0  0  0  0  0  0  0  0  0  0  0  0
  -26.7410  -30.5340   22.0570 C   0  0  0  0  0  2  0  0  0  0  0  0
  -26.9080  -29.1820   21.3830 C   0  0  0  0  0  0  0  0  0  0  0  0
  -28.1110  -28.4390   21.4680 C   0  0  0  0  0  3  0  0  0  0  0  0
  -27.1140  -26.6680   20.1400 C   0  0  0  0  0  3  0  0  0  0  0  0
  -25.9210  -27.4130   20.0430 C   0  0  0  0  0  3  0  0  0  0  0  0
  -24.5700  -29.5200   20.6110 C   0  0  0  0  0  2  0  0  0  0  0  0
  -25.4040  -30.7470   22.6670 N   0  0  0  0  0  0  0  0  0  0  0  0
  -24.0860  -31.7530   24.2160 O   0  0  0  0  0  0  0  0  0  0  0  0
  -23.4790  -29.0920   22.8400 C   0  0  0  0  0  0  0  0  0  0  0  0
  -22.1990  -28.8390   22.5190 N   0  0  0  0  0  0  0  0  0  0  0  0
  -24.0660  -28.5000   23.7500 O   0  0  0  0  0  0  0  0  0  0  0  0
  -21.7870  -29.3690   21.7640 H   0  0  0  0  0  0  0  0  0  0  0  0
  -18.8530  -27.4760   22.5330 C   0  0  0  0  0  0  0  0  0  0  0  0
  -21.3310  -27.8530   23.1640 C   0  0  0  0  0  3  0  0  0  0  0  0
  -21.5830  -26.4350   22.6020 C   0  0  0  0  0  2  0  0  0  0  0  0
  -20.6530  -26.0720   21.4390 C   0  0  0  0  0  2  0  0  0  0  0  0
  -19.1880  -26.1430   21.8840 C   0  0  0  0  0  2  0  0  0  0  0  0
  -19.8610  -28.2860   23.1210 C   0  0  0  0  0  0  0  0  0  0  0  0
  -19.5010  -29.5310   23.6800 C   0  0  0  0  0  3  0  0  0  0  0  0
  -18.1630  -29.9670   23.6640 C   0  0  0  0  0  3  0  0  0  0  0  0
  -17.1660  -29.1570   23.0950 C   0  0  0  0  0  3  0  0  0  0  0  0
  -17.5120  -27.9120   22.5360 C   0  0  0  0  0  3  0  0  0  0  0  0
  -26.4260  -32.1380   24.5490 C   0  0  0  0  0  3  0  0  0  0  0  0
  -26.1200  -33.5580   24.7670 N   0  0  0  0  0  0  0  0  0  0  0  0
  -26.6100  -34.5650   24.0320 C   0  0  0  0  0  0  0  0  0  0  0  0
  -27.4360  -34.3950   23.1320 O   0  0  0  0  0  0  0  0  0  0  0  0
  -25.4070  -33.7670   25.4520 H   0  0  0  0  0  0  0  0  0  0  0  0
  -25.0540  -36.4030   23.3090 C   0  0  0  0  0  1  0  0  0  0  0  0
  -26.1080  -35.9870   24.3470 C   0  0  0  0  0  3  0  0  0  0  0  0
  -28.0820  -36.8350   25.5360 C   0  0  0  0  0  1  0  0  0  0  0  0
  -27.1870  -36.9970   24.3920 N   0  0  0  0  0  0  0  0  0  0  0  0
  -26.8010  -37.9370   24.4220 H   0  0  0  0  0  0  0  0  0  0  0  0
  -26.7350  -31.4180   25.9190 C   0  0  1  0  0  0  0  0  0  0  0  0
  -25.4900  -31.2280   26.8180 C   0  0  0  0  0  1  0  0  0  0  0  0
  -27.3560  -30.0230   25.6730 C   0  0  0  0  0  1  0  0  0  0  0  0
  -27.7800  -32.2340   26.7170 C   0  0  0  0  0  1  0  0  0  0  0  0
  -31.4770  -16.8340   20.2140 C   0  0  0  0  0  2  0  0  0  0  0  0
  -31.6320  -14.3400   20.3410 C   0  0  0  0  0  0  0  0  0  0  0  0
  -31.3780  -11.9440   19.7900 C   0  0  0  0  0  2  0  0  0  0  0  0
  -30.5280  -11.8150   18.5110 C   0  0  0  0  0  2  0  0  0  0  0  0
  -29.0260  -11.7810   18.8570 C   0  0  0  0  0  2  0  0  0  0  0  0
  -28.6110  -12.9180   19.8300 C   0  0  0  0  0  3  0  0  0  0  0  0
  -29.5880  -13.0240   21.0230 C   0  0  0  0  0  2  0  0  0  0  0  0
  -30.9460  -13.1720   20.4810 N   0  0  0  0  0  0  0  0  0  0  0  0
  -32.8040  -14.3710   19.9550 O   0  0  0  0  0  0  0  0  0  0  0  0
  -30.9260  -15.4840   20.4840 N   0  0  0  0  0  0  0  0  0  0  0  0
  -29.9520  -15.4110   20.7330 H   0  0  0  0  0  0  0  0  0  0  0  0
  -26.2670  -13.7380   20.5010 C   0  0  0  0  0  0  0  0  0  0  0  0
  -25.1240  -13.0660   20.8360 C   0  0  0  0  0  0  0  0  0  0  0  0
  -25.4560  -11.6760   20.7980 C   0  0  0  0  0  0  0  0  0  0  0  0
  -27.2300  -12.7630   20.2790 N   0  0  0  0  0  0  0  0  0  0  0  0
  -26.7440  -11.5170   20.5160 N   0  0  0  0  0  0  0  0  0  0  0  0
  -24.6070  -10.4890   20.9590 C   0  0  0  0  0  0  0  0  0  0  0  0
  -24.8020   -9.5800   22.0220 C   0  0  0  0  0  3  0  0  0  0  0  0
  -23.9650   -8.4530   22.1650 C   0  0  0  0  0  3  0  0  0  0  0  0
  -22.9160   -8.2280   21.2430 C   0  0  0  0  0  0  0  0  0  0  0  0
  -22.7410   -9.1210   20.1720 C   0  0  0  0  0  3  0  0  0  0  0  0
  -23.5780  -10.2390   20.0280 C   0  0  0  0  0  3  0  0  0  0  0  0
  -22.0670   -7.1480   21.2870 O   0  0  0  0  0  0  0  0  0  0  0  0
  -21.6250   -6.6280   22.4770 C   0  0  0  0  0  0  0  0  0  0  0  0
  -20.8740   -7.3980   23.3920 C   0  0  0  0  0  3  0  0  0  0  0  0
  -20.3800   -6.8040   24.5700 C   0  0  0  0  0  3  0  0  0  0  0  0
  -20.6280   -5.4430   24.8320 C   0  0  0  0  0  0  0  0  0  0  0  0
  -21.3720   -4.6760   23.9200 C   0  0  0  0  0  3  0  0  0  0  0  0
  -21.8680   -5.2670   22.7450 C   0  0  0  0  0  0  0  0  0  0  0  0
  -22.5660   -4.5160   21.8590 F   0  0  0  0  0  0  0  0  0  0  0  0
  -20.1470   -4.8710   25.9610 F   0  0  0  0  0  0  0  0  0  0  0  0
  -23.7730  -13.6710   21.0820 C   0  0  0  0  0  0  0  0  0  0  0  0
  -22.9800  -13.0630   21.9570 N   0  0  0  0  0  0  0  0  0  0  0  0
  -23.4310  -14.7190   20.5340 O   0  0  0  0  0  0  0  0  0  0  0  0
  -23.2680  -12.2140   22.4210 H   0  0  0  0  0  0  0  0  0  0  0  0
  -22.0720  -13.4520   22.1660 H   0  0  0  0  0  0  0  0  0  0  0  0
  -26.5680  -15.0880   20.3440 N   0  0  0  0  0  0  0  0  0  0  0  0
  -25.8610  -15.8100   20.4290 H   0  0  0  0  0  0  0  0  0  0  0  0
  -27.4640  -15.4460   20.0410 H   0  0  0  0  0  0  0  0  0  0  0  0
  1  5  1  0
  2  6  2  0
  4  2  1  0
  4  1  2  0
  5  3  2  0
  5  9  1  0
  6 54  1  0
  6  3  1  0
  7  8  1  0
  8  4  1  0
  9 10  1  0
 11 10  1  0
 12 13  1  0
 12 11  1  0
 14 25  2  0
 15 13  1  0
 15 20  1  0
 16 24  1  0
 16 26  1  0
 17 19  1  0
 18 24  1  0
 19 20  2  0
 19 18  1  0
 21 15  2  0
 22 21  1  0
 22 17  2  0
 23 17  1  0
 23 16  1  0
 24 14  1  0
 26 28  2  0
 27 26  1  0
 29 27  1  0
 30 39  2  0
 30 35  1  0
 31 27  1  0
 32 31  1  0
 33 34  1  0
 33 32  1  0
 34 30  1  0
 35 31  1  0
 35 36  2  0
 37 36  1  0
 38 37  2  0
 39 38  1  0
 40 14  1  0
 40 41  1  0
 40 50  1  0
 41 44  1  0
 42 46  1  0
 42 41  1  0
 43 42  2  0
 46 45  1  0
 46 48  1  0
 48 49  1  0
 48 47  1  0
 50 53  1  1
 50 51  1  0
 52 50  1  0
 54 63  1  0
 55 61  1  0
 55 63  1  0
 56 61  1  0
 57 58  1  0
 57 56  1  0
 59 58  1  0
 59 68  1  0
 59 60  1  0
 61 60  1  0
 62 55  2  0
 63 64  1  0
 65 66  2  0
 66 85  1  0
 67 66  1  0
 67 70  1  0
 68 65  1  0
 68 69  1  0
 69 67  2  0
 70 71  1  0
 71 72  2  0
 73 76  1  0
 73 72  1  0
 74 73  2  0
 75 74  1  0
 75 70  2  0
 76 77  1  0
 77 82  2  0
 77 78  1  0
 78 79  2  0
 79 80  1  0
 80 84  1  0
 81 80  2  0
 82 81  1  0
 83 82  1  0
 85 86  1  0
 86 89  1  0
 86 88  1  0
 87 85  2  0
 90 91  1  0
 90 65  1  0
 92 90  1  0
M  ISO  4  12 101  13 101  55 100  63 100
M  END
>  <TORSDO>  (19) 
F 22

>  <SCORE>  (19) 
-9.935

>  <name>  (19) 
19

>  <ligand_id>  (19) 
19

>  <original_smiles>  (19) 
[H]c1c([H])c([H])c2c(c1[H])C([H])([H])C([H])([H])C([H])([H])C2([H])N([H])C(=O)C1([H])N(C(=O)C([H])(N([H])C(=O)C([H])(N([H])C([H])([H])[H])C([H])([H])[H])C(C([H])([H])[H])(C([H])([H])[H])C([H])([H])[H])C([H])([H])c2c([H])c(OC([H])([H])C([H])([H])C([H])([H])C([H])([H])c3c([H])c(C([H])([H])N([H])C(=O)N4C([H])([H])C([H])([H])C([H])([H])C([H])(n5nc(-c6c([H])c([H])c(Oc7c([H])c([H])c(F)c([H])c7F)c([H])c6[H])c(C(=O)N([H])[H])c5N([H])[H])C4([H])[H])c([H])c(C([H])([H])C([H])([H])[H])c3[H])c([H])c([H])c2C1([H])[H]

>  <smiles>  (19) 
[H]c1c([H])c([H])c2c(c1[H])C([H])([H])C([H])([H])C([H])([H])C2([H])N([H])C(=O)C1([H])N(C(=O)C([H])(N([H])C(=O)C([H])(N([H])C([H])([H])[H])C([H])([H])[H])C(C([H])([H])[H])(C([H])([H])[H])C([H])([H])[H])C([H])([H])c2c([H])c(OC([H])([H])C([H])([H])C([H])([H])C([H])([H])c3c([H])c(C([H])([H])N([H])C(=O)N4C([H])([H])C([H])([H])C([H])([H])C([H])(n5nc(-c6c([H])c([H])c(Oc7c([H])c([H])c(F)c([H])c7F)c([H])c6[H])c(C(=O)N([H])[H])c5N([H])[H])C4([H])[H])c([H])c(C([H])([H])C([H])([H])[H])c3[H])c([H])c([H])c2C1([H])[H]

$$$$
20:0:0
     RDKit          3D

 91 99  0  0  1  0  0  0  0  0999 V2000
  -28.2030  -20.4330   19.3970 C   0  0  0  0  0  3  0  0  0  0  0  0
  -29.6900  -20.2000   21.2480 C   0  0  0  0  0  3  0  0  0  0  0  0
  -28.8320  -21.0540   20.4970 C   0  0  0  0  0  0  0  0  0  0  0  0
  -28.3960  -19.0450   19.1390 C   0  0  0  0  0  0  0  0  0  0  0  0
  -29.2250  -18.2590   19.9930 C   0  0  0  0  0  0  0  0  0  0  0  0
  -27.6650  -18.4380   17.9450 C   0  0  0  0  0  1  0  0  0  0  0  0
  -29.8810  -18.8590   21.0170 N   0  0  0  0  0  0  0  0  0  0  0  0
  -26.9500  -22.4630   21.4240 C   0  0  0  0  0  1  0  0  0  0  0  0
  -28.4380  -22.4980   21.0070 C   0  0  0  0  0  3  0  0  0  0  0  0
  -28.7510  -23.8200   20.1450 C   0  0  0  0  0  3  0  0  0  0  0  0
  -28.2590  -25.2080   20.7770 C   0  0  0  0  0  3  0  0  0  0  0  0
  -28.5070  -26.5240   20.1350 O   0  0  0  0  0  0  0  0  0  0  0  0
  -24.6810  -31.8520   23.1370 C   0  0  0  0  0  0  0  0  0  0  0  0
  -27.4070  -27.3870   20.0770 C   0  0  0  0  0  0  0  0  0  0  0  0
  -23.5230  -30.4440   21.4730 C   0  0  0  0  0  3  0  0  0  0  0  0
  -25.0180  -28.9410   20.0450 C   0  0  0  0  0  0  0  0  0  0  0  0
  -26.0560  -30.8240   21.3130 C   0  0  0  0  0  2  0  0  0  0  0  0
  -26.1700  -29.4560   20.6560 C   0  0  0  0  0  0  0  0  0  0  0  0
  -27.3760  -28.6920   20.6540 C   0  0  0  0  0  3  0  0  0  0  0  0
  -26.2450  -26.9340   19.4210 C   0  0  0  0  0  3  0  0  0  0  0  0
  -25.0600  -27.6890   19.4070 C   0  0  0  0  0  3  0  0  0  0  0  0
  -23.7590  -29.7810   20.0910 C   0  0  0  0  0  2  0  0  0  0  0  0
  -24.7720  -31.0580   22.0320 N   0  0  0  0  0  0  0  0  0  0  0  0
  -23.5860  -32.0980   23.6680 O   0  0  0  0  0  0  0  0  0  0  0  0
  -22.8680  -29.4080   22.4180 C   0  0  0  0  0  0  0  0  0  0  0  0
  -21.5490  -29.2070   22.2690 N   0  0  0  0  0  0  0  0  0  0  0  0
  -23.5510  -28.7930   23.2440 O   0  0  0  0  0  0  0  0  0  0  0  0
  -21.0630  -29.7440   21.5640 H   0  0  0  0  0  0  0  0  0  0  0  0
  -18.1870  -27.9560   22.7490 C   0  0  0  0  0  0  0  0  0  0  0  0
  -20.7420  -28.2440   23.0180 C   0  0  0  0  0  3  0  0  0  0  0  0
  -20.8670  -26.8260   22.4130 C   0  0  0  0  0  2  0  0  0  0  0  0
  -19.7520  -26.4790   21.4210 C   0  0  0  0  0  2  0  0  0  0  0  0
  -18.3720  -26.6130   22.0660 C   0  0  0  0  0  2  0  0  0  0  0  0
  -19.2950  -28.7270   23.1840 C   0  0  0  0  0  0  0  0  0  0  0  0
  -19.0650  -29.9790   23.7880 C   0  0  0  0  0  3  0  0  0  0  0  0
  -17.7560  -30.4680   23.9590 C   0  0  0  0  0  3  0  0  0  0  0  0
  -16.6580  -29.6940   23.5380 C   0  0  0  0  0  3  0  0  0  0  0  0
  -16.8730  -28.4470   22.9290 C   0  0  0  0  0  3  0  0  0  0  0  0
  -25.9420  -32.5060   23.7800 C   0  0  0  0  0  3  0  0  0  0  0  0
  -26.4660  -31.7290   25.0500 C   0  0  1  0  0  0  0  0  0  0  0  0
  -25.3700  -31.4510   26.1050 C   0  0  0  0  0  1  0  0  0  0  0  0
  -27.0830  -30.3720   24.6390 C   0  0  0  0  0  1  0  0  0  0  0  0
  -27.5930  -32.5380   25.7310 C   0  0  0  0  0  1  0  0  0  0  0  0
  -25.5960  -33.8910   24.1280 N   0  0  0  0  0  0  0  0  0  0  0  0
  -25.9060  -34.9620   23.3850 C   0  0  0  0  0  0  0  0  0  0  0  0
  -26.5860  -34.8890   22.3570 O   0  0  0  0  0  0  0  0  0  0  0  0
  -24.9850  -34.0190   24.9210 H   0  0  0  0  0  0  0  0  0  0  0  0
  -24.1340  -36.7140   23.0530 C   0  0  0  0  0  1  0  0  0  0  0  0
  -25.3850  -36.3320   23.8610 C   0  0  0  0  0  3  0  0  0  0  0  0
  -27.4940  -37.2590   24.7080 C   0  0  0  0  0  1  0  0  0  0  0  0
  -26.3910  -37.4120   23.7640 N   0  0  0  0  0  0  0  0  0  0  0  0
  -25.9600  -38.3190   23.9230 H   0  0  0  0  0  0  0  0  0  0  0  0
  -29.3520  -16.7080   19.7630 C   0  0  0  0  0  2  0  0  0  0  0  0
  -30.7320  -14.6820   20.2460 C   0  0  0  0  0  0  0  0  0  0  0  0
  -30.4400  -12.4730   19.1330 C   0  0  0  0  0  2  0  0  0  0  0  0
  -29.4840  -12.6180   17.9320 C   0  0  0  0  0  2  0  0  0  0  0  0
  -28.0210  -12.4550   18.3860 C   0  0  0  0  0  2  0  0  0  0  0  0
  -27.6820  -13.3110   19.6340 C   0  0  0  0  0  3  0  0  0  0  0  0
  -28.7600  -13.1620   20.7320 C   0  0  0  0  0  2  0  0  0  0  0  0
  -30.0560  -13.4950   20.1290 N   0  0  0  0  0  0  0  0  0  0  0  0
  -31.8870  -14.7900   19.8280 O   0  0  0  0  0  0  0  0  0  0  0  0
  -30.0680  -15.7860   20.6950 N   0  0  0  0  0  0  0  0  0  0  0  0
  -30.6730  -16.3510   21.2770 H   0  0  0  0  0  0  0  0  0  0  0  0
  -25.3030  -13.9200   20.3920 C   0  0  0  0  0  0  0  0  0  0  0  0
  -24.2430  -13.1470   20.7770 C   0  0  0  0  0  0  0  0  0  0  0  0
  -24.7050  -11.7950   20.7480 C   0  0  0  0  0  0  0  0  0  0  0  0
  -26.3420  -13.0370   20.1430 N   0  0  0  0  0  0  0  0  0  0  0  0
  -25.9900  -11.7570   20.4200 N   0  0  0  0  0  0  0  0  0  0  0  0
  -23.9840  -10.5310   20.9550 C   0  0  0  0  0  0  0  0  0  0  0  0
  -24.4280   -9.5740   21.8920 C   0  0  0  0  0  3  0  0  0  0  0  0
  -23.7030   -8.3790   22.0880 C   0  0  0  0  0  3  0  0  0  0  0  0
  -22.5220   -8.1330   21.3470 C   0  0  0  0  0  0  0  0  0  0  0  0
  -22.0950   -9.0840   20.4010 C   0  0  0  0  0  3  0  0  0  0  0  0
  -22.8210  -10.2710   20.2040 C   0  0  0  0  0  3  0  0  0  0  0  0
  -21.7670   -6.9910   21.4540 O   0  0  0  0  0  0  0  0  0  0  0  0
  -21.7340   -6.2580   22.6140 C   0  0  0  0  0  0  0  0  0  0  0  0
  -21.3180   -6.8200   23.8390 C   0  0  0  0  0  3  0  0  0  0  0  0
  -21.2290   -6.0130   24.9910 C   0  0  0  0  0  3  0  0  0  0  0  0
  -21.5480   -4.6440   24.9180 C   0  0  0  0  0  0  0  0  0  0  0  0
  -21.9550   -4.0800   23.6950 C   0  0  0  0  0  3  0  0  0  0  0  0
  -22.0450   -4.8840   22.5470 C   0  0  0  0  0  0  0  0  0  0  0  0
  -22.4200   -4.3330   21.3660 F   0  0  0  0  0  0  0  0  0  0  0  0
  -21.4560   -3.8650   26.0200 F   0  0  0  0  0  0  0  0  0  0  0  0
  -22.8490  -13.6240   21.0590 C   0  0  0  0  0  0  0  0  0  0  0  0
  -22.1320  -12.9400   21.9420 N   0  0  0  0  0  0  0  0  0  0  0  0
  -22.4030  -14.6430   20.5310 O   0  0  0  0  0  0  0  0  0  0  0  0
  -22.4980  -12.1150   22.3940 H   0  0  0  0  0  0  0  0  0  0  0  0
  -21.1970  -13.2480   22.1680 H   0  0  0  0  0  0  0  0  0  0  0  0
  -25.4580  -15.2900   20.2060 N   0  0  0  0  0  0  0  0  0  0  0  0
  -24.6740  -15.9210   20.3250 H   0  0  0  0  0  0  0  0  0  0  0  0
  -26.3010  -15.7530   19.9010 H   0  0  0  0  0  0  0  0  0  0  0  0
  1  3  1  0
  3  9  1  0
  3  2  2  0
  4  1  2  0
  4  5  1  0
  5  7  2  0
  6  4  1  0
  7  2  1  0
  9  8  1  0
 10 11  2  0
 10  9  1  0
 12 11  1  0
 13 24  2  0
 14 12  1  0
 14 19  1  0
 15 23  1  0
 15 25  1  0
 16 22  1  0
 16 18  1  0
 17 23  1  0
 18 17  1  0
 19 18  2  0
 20 14  2  0
 21 20  1  0
 21 16  2  0
 22 15  1  0
 23 13  1  0
 25 27  2  0
 26 25  1  0
 28 26  1  0
 29 38  2  0
 29 34  1  0
 30 26  1  0
 30 34  1  0
 31 30  1  0
 32 33  1  0
 32 31  1  0
 33 29  1  0
 34 35  2  0
 35 36  1  0
 37 36  2  0
 38 37  1  0
 39 13  1  0
 39 44  1  0
 39 40  1  0
 40 43  1  1
 40 41  1  0
 42 40  1  0
 44 47  1  0
 45 49  1  0
 45 44  1  0
 46 45  2  0
 49 48  1  0
 51 49  1  0
 51 52  1  0
 51 50  1  0
 53  5  1  0
 53 62  1  0
 54 62  1  0
 55 60  1  0
 56 57  1  0
 56 55  1  0
 58 57  1  0
 58 67  1  0
 58 59  1  0
 60 54  1  0
 60 59  1  0
 61 54  2  0
 62 63  1  0
 64 65  2  0
 65 84  1  0
 66 65  1  0
 66 69  1  0
 67 64  1  0
 67 68  1  0
 68 66  2  0
 69 70  1  0
 70 71  2  0
 72 75  1  0
 72 71  1  0
 73 72  2  0
 74 73  1  0
 74 69  2  0
 75 76  1  0
 76 77  1  0
 77 78  2  0
 79 78  1  0
 79 83  1  0
 80 79  2  0
 81 76  2  0
 81 80  1  0
 82 81  1  0
 84 85  1  0
 85 88  1  0
 85 87  1  0
 86 84  2  0
 89 90  1  0
 89 64  1  0
 91 89  1  0
M  ISO  4  11 101  12 101  54 100  62 100
M  END
>  <TORSDO>  (20) 
F 20

>  <SCORE>  (20) 
-13.638

>  <name>  (20) 
20

>  <ligand_id>  (20) 
20

>  <original_smiles>  (20) 
[H]c1nc(C([H])([H])N([H])C(=O)N2C([H])([H])C([H])([H])C([H])([H])C([H])(n3nc(-c4c([H])c([H])c(Oc5c([H])c([H])c(F)c([H])c5F)c([H])c4[H])c(C(=O)N([H])[H])c3N([H])[H])C2([H])[H])c(C([H])([H])[H])c([H])c1C([H])(C([H])([H])[H])C([H])([H])C([H])([H])Oc1c([H])c([H])c2c(c1[H])C([H])([H])N(C(=O)C([H])(N([H])C(=O)C([H])(N([H])C([H])([H])[H])C([H])([H])[H])C(C([H])([H])[H])(C([H])([H])[H])C([H])([H])[H])C([H])(C(=O)N([H])C1([H])c3c([H])c([H])c([H])c([H])c3C([H])([H])C([H])([H])C1([H])[H])C2([H])[H]

>  <smiles>  (20) 
[H]c1nc(C([H])([H])N([H])C(=O)N2C([H])([H])C([H])([H])C([H])([H])C([H])(n3nc(-c4c([H])c([H])c(Oc5c([H])c([H])c(F)c([H])c5F)c([H])c4[H])c(C(=O)N([H])[H])c3N([H])[H])C2([H])[H])c(C([H])([H])[H])c([H])c1C([H])(C([H])([H])[H])C([H])([H])C([H])([H])Oc1c([H])c([H])c2c(c1[H])C([H])([H])N(C(=O)C([H])(N([H])C(=O)C([H])(N([H])C([H])([H])[H])C([H])([H])[H])C(C([H])([H])[H])(C([H])([H])[H])C([H])([H])[H])C([H])(C(=O)N([H])C1([H])c3c([H])c([H])c([H])c([H])c3C([H])([H])C([H])([H])C1([H])[H])C2([H])[H]

$$$$
21:0:0
     RDKit          3D

 94102  0  0  1  0  0  0  0  0999 V2000
  -28.2820  -23.5340   17.1790 C   0  0  0  0  0  3  0  0  0  0  0  0
  -28.8900  -24.8180   17.1530 C   0  0  0  0  0  0  0  0  0  0  0  0
  -29.0730  -22.7650   16.3780 C   0  0  0  0  0  0  0  0  0  0  0  0
  -31.1510  -23.2970   14.9630 C   0  0  0  0  0  1  0  0  0  0  0  0
  -29.9470  -24.8520   16.3560 N   0  0  0  0  0  0  0  0  0  0  0  0
  -30.0580  -23.5960   15.8690 N   0  0  0  0  0  0  0  0  0  0  0  0
  -28.4890  -26.0330   17.9350 C   0  0  0  0  0  2  0  0  0  0  0  0
  -28.4580  -25.7360   19.4470 C   0  0  0  0  0  2  0  0  0  0  0  0
  -28.3130  -26.9240   20.2200 O   0  0  0  0  0  0  0  0  0  0  0  0
  -24.5080  -32.0400   23.3070 C   0  0  0  0  0  0  0  0  0  0  0  0
  -27.1050  -27.5880   20.2270 C   0  0  0  0  0  0  0  0  0  0  0  0
  -23.2830  -30.6530   21.6660 C   0  0  0  0  0  3  0  0  0  0  0  0
  -24.7130  -29.0960   20.2500 C   0  0  0  0  0  0  0  0  0  0  0  0
  -25.8100  -30.9850   21.4670 C   0  0  0  0  0  2  0  0  0  0  0  0
  -25.8760  -29.6140   20.8300 C   0  0  0  0  0  0  0  0  0  0  0  0
  -27.0710  -28.8660   20.8200 C   0  0  0  0  0  3  0  0  0  0  0  0
  -25.9120  -27.0610   19.6740 C   0  0  0  0  0  3  0  0  0  0  0  0
  -24.7220  -27.8120   19.6790 C   0  0  0  0  0  3  0  0  0  0  0  0
  -23.4820  -29.9700   20.2870 C   0  0  0  0  0  2  0  0  0  0  0  0
  -24.5520  -31.2400   22.2050 N   0  0  0  0  0  0  0  0  0  0  0  0
  -23.4320  -32.3280   23.8470 O   0  0  0  0  0  0  0  0  0  0  0  0
  -22.6210  -29.6390   22.6270 C   0  0  0  0  0  0  0  0  0  0  0  0
  -21.2950  -29.4660   22.4930 N   0  0  0  0  0  0  0  0  0  0  0  0
  -23.2970  -29.0080   23.4450 O   0  0  0  0  0  0  0  0  0  0  0  0
  -20.8110  -30.0230   21.8040 H   0  0  0  0  0  0  0  0  0  0  0  0
  -17.9100  -28.3060   22.9780 C   0  0  0  0  0  0  0  0  0  0  0  0
  -20.4680  -28.5390   23.2660 C   0  0  0  0  0  3  0  0  0  0  0  0
  -20.5620  -27.1040   22.6970 C   0  0  0  0  0  2  0  0  0  0  0  0
  -19.4630  -26.7870   21.6790 C   0  0  0  0  0  2  0  0  0  0  0  0
  -18.0780  -26.9510   22.3110 C   0  0  0  0  0  2  0  0  0  0  0  0
  -19.0340  -29.0590   23.4120 C   0  0  0  0  0  0  0  0  0  0  0  0
  -18.8250  -30.3290   23.9900 C   0  0  0  0  0  3  0  0  0  0  0  0
  -17.5250  -30.8460   24.1430 C   0  0  0  0  0  3  0  0  0  0  0  0
  -16.4150  -30.0900   23.7270 C   0  0  0  0  0  3  0  0  0  0  0  0
  -16.6090  -28.8230   23.1500 C   0  0  0  0  0  3  0  0  0  0  0  0
  -25.8060  -32.6520   23.9220 C   0  0  0  0  0  3  0  0  0  0  0  0
  -26.3100  -31.8820   25.2050 C   0  0  1  0  0  0  0  0  0  0  0  0
  -25.2090  -31.6610   26.2680 C   0  0  0  0  0  1  0  0  0  0  0  0
  -26.8820  -30.4960   24.8220 C   0  0  0  0  0  1  0  0  0  0  0  0
  -27.4630  -32.6690   25.8690 C   0  0  0  0  0  1  0  0  0  0  0  0
  -25.5220  -34.0570   24.2390 N   0  0  0  0  0  0  0  0  0  0  0  0
  -25.8950  -35.0970   23.4800 C   0  0  0  0  0  0  0  0  0  0  0  0
  -26.5870  -34.9730   22.4670 O   0  0  0  0  0  0  0  0  0  0  0  0
  -24.9170  -34.2300   25.0270 H   0  0  0  0  0  0  0  0  0  0  0  0
  -24.2230  -36.9290   23.0610 C   0  0  0  0  0  1  0  0  0  0  0  0
  -25.4250  -36.4980   23.9170 C   0  0  0  0  0  3  0  0  0  0  0  0
  -27.5500  -37.3310   24.8220 C   0  0  0  0  0  1  0  0  0  0  0  0
  -26.4860  -37.5260   23.8390 N   0  0  0  0  0  0  0  0  0  0  0  0
  -26.0960  -38.4540   23.9740 H   0  0  0  0  0  0  0  0  0  0  0  0
  -28.9880  -21.2980   16.1050 C   0  0  0  0  0  2  0  0  0  0  0  0
  -30.0360  -20.5120   16.9020 C   0  0  0  0  0  2  0  0  0  0  0  0
  -29.9260  -18.9930   16.7140 C   0  0  0  0  0  2  0  0  0  0  0  0
  -31.1230  -18.2340   17.3070 C   0  0  0  0  0  2  0  0  0  0  0  0
  -31.2240  -18.2680   18.8450 C   0  0  0  0  0  2  0  0  0  0  0  0
  -30.1690  -17.3960   19.5410 C   0  0  0  0  0  2  0  0  0  0  0  0
  -30.4670  -17.1620   21.0400 C   0  0  0  0  0  2  0  0  0  0  0  0
  -30.9610  -14.7480   21.0400 C   0  0  0  0  0  0  0  0  0  0  0  0
  -30.7470  -12.6010   19.8810 C   0  0  0  0  0  2  0  0  0  0  0  0
  -29.9220  -12.8430   18.6000 C   0  0  0  0  0  2  0  0  0  0  0  0
  -28.4130  -12.7220   18.8920 C   0  0  0  0  0  2  0  0  0  0  0  0
  -27.9720  -13.5510   20.1300 C   0  0  0  0  0  3  0  0  0  0  0  0
  -28.9200  -13.3030   21.3260 C   0  0  0  0  0  2  0  0  0  0  0  0
  -30.2980  -13.5760   20.8840 N   0  0  0  0  0  0  0  0  0  0  0  0
  -32.1210  -14.9320   20.6640 O   0  0  0  0  0  0  0  0  0  0  0  0
  -30.1840  -15.7760   21.4070 N   0  0  0  0  0  0  0  0  0  0  0  0
  -29.2470  -15.5560   21.7090 H   0  0  0  0  0  0  0  0  0  0  0  0
  -25.5200  -14.1700   20.6230 C   0  0  0  0  0  0  0  0  0  0  0  0
  -24.4210  -13.4030   20.9010 C   0  0  0  0  0  0  0  0  0  0  0  0
  -24.8790  -12.0490   20.9120 C   0  0  0  0  0  0  0  0  0  0  0  0
  -26.5780  -13.2850   20.4850 N   0  0  0  0  0  0  0  0  0  0  0  0
  -26.1910  -12.0050   20.7140 N   0  0  0  0  0  0  0  0  0  0  0  0
  -24.1360  -10.7890   21.0430 C   0  0  0  0  0  0  0  0  0  0  0  0
  -24.4930   -9.8180   22.0040 C   0  0  0  0  0  3  0  0  0  0  0  0
  -23.7510   -8.6220   22.1210 C   0  0  0  0  0  3  0  0  0  0  0  0
  -22.6400   -8.3890   21.2760 C   0  0  0  0  0  0  0  0  0  0  0  0
  -22.3050   -9.3500   20.3050 C   0  0  0  0  0  3  0  0  0  0  0  0
  -23.0460  -10.5370   20.1860 C   0  0  0  0  0  3  0  0  0  0  0  0
  -21.8770   -7.2470   21.3000 O   0  0  0  0  0  0  0  0  0  0  0  0
  -21.7330   -6.5020   22.4430 C   0  0  0  0  0  0  0  0  0  0  0  0
  -21.2110   -7.0560   23.6320 C   0  0  0  0  0  3  0  0  0  0  0  0
  -21.0140   -6.2380   24.7620 C   0  0  0  0  0  3  0  0  0  0  0  0
  -21.3290   -4.8670   24.7050 C   0  0  0  0  0  0  0  0  0  0  0  0
  -21.8450   -4.3120   23.5190 C   0  0  0  0  0  3  0  0  0  0  0  0
  -22.0430   -5.1280   22.3910 C   0  0  0  0  0  0  0  0  0  0  0  0
  -22.5200   -4.5830   21.2460 F   0  0  0  0  0  0  0  0  0  0  0  0
  -21.1330   -4.0800   25.7880 F   0  0  0  0  0  0  0  0  0  0  0  0
  -23.0080  -13.8840   21.0560 C   0  0  0  0  0  0  0  0  0  0  0  0
  -22.2110  -13.1920   21.8630 N   0  0  0  0  0  0  0  0  0  0  0  0
  -22.6160  -14.9080   20.4980 O   0  0  0  0  0  0  0  0  0  0  0  0
  -22.5420  -12.3640   22.3360 H   0  0  0  0  0  0  0  0  0  0  0  0
  -21.2600  -13.4950   22.0130 H   0  0  0  0  0  0  0  0  0  0  0  0
  -25.7060  -15.5400   20.4610 N   0  0  0  0  0  0  0  0  0  0  0  0
  -24.9360  -16.1990   20.5040 H   0  0  0  0  0  0  0  0  0  0  0  0
  -26.5850  -15.9740   20.2070 H   0  0  0  0  0  0  0  0  0  0  0  0
  2  1  1  0
  2  7  1  0
  3  1  2  0
  4  6  1  0
  5  2  2  0
  6  5  1  0
  6  3  1  0
  7  8  1  0
  8  9  1  0
  9 11  1  0
 10 21  2  0
 11 16  1  0
 12 20  1  0
 12 22  1  0
 13 19  1  0
 13 15  1  0
 14 20  1  0
 15 14  1  0
 16 15  2  0
 17 18  1  0
 17 11  2  0
 18 13  2  0
 19 12  1  0
 20 10  1  0
 22 24  2  0
 23 22  1  0
 25 23  1  0
 26 35  2  0
 26 31  1  0
 27 23  1  0
 27 31  1  0
 28 27  1  0
 29 30  1  0
 29 28  1  0
 30 26  1  0
 31 32  2  0
 32 33  1  0
 34 33  2  0
 35 34  1  0
 36 10  1  0
 36 41  1  0
 36 37  1  0
 37 40  1  1
 37 38  1  0
 39 37  1  0
 41 44  1  0
 42 46  1  0
 42 41  1  0
 43 42  2  0
 46 45  1  0
 48 46  1  0
 48 49  1  0
 48 47  1  0
 50  3  1  0
 50 51  1  0
 52 51  1  0
 52 53  1  0
 53 54  1  0
 54 55  1  0
 55 56  1  0
 56 65  1  0
 57 65  1  0
 58 63  1  0
 59 60  1  0
 59 58  1  0
 61 60  1  0
 61 70  1  0
 61 62  1  0
 63 57  1  0
 63 62  1  0
 64 57  2  0
 65 66  1  0
 67 68  2  0
 68 69  1  0
 68 87  1  0
 69 72  1  0
 70 67  1  0
 70 71  1  0
 71 69  2  0
 72 73  1  0
 73 74  2  0
 75 78  1  0
 75 74  1  0
 76 75  2  0
 77 76  1  0
 77 72  2  0
 78 79  1  0
 79 80  1  0
 80 81  2  0
 82 81  1  0
 82 86  1  0
 83 82  2  0
 84 79  2  0
 84 83  1  0
 85 84  1  0
 87 88  1  0
 88 91  1  0
 88 90  1  0
 89 87  2  0
 92 93  1  0
 92 67  1  0
 94 92  1  0
M  ISO  4   8 101   9 101  57 100  65 100
M  END
>  <TORSDO>  (21) 
F 25

>  <SCORE>  (21) 
-11.084

>  <name>  (21) 
21

>  <ligand_id>  (21) 
21

>  <original_smiles>  (21) 
[H]c1c([H])c([H])c2c(c1[H])C([H])([H])C([H])([H])C([H])([H])C2([H])N([H])C(=O)C1([H])N(C(=O)C([H])(N([H])C(=O)C([H])(N([H])C([H])([H])[H])C([H])([H])[H])C(C([H])([H])[H])(C([H])([H])[H])C([H])([H])[H])C([H])([H])c2c([H])c(OC([H])([H])C([H])([H])c3nn(C([H])([H])[H])c(C([H])([H])C([H])([H])C([H])([H])C([H])([H])C([H])([H])C([H])([H])C([H])([H])N([H])C(=O)N4C([H])([H])C([H])([H])C([H])([H])C([H])(n5nc(-c6c([H])c([H])c(Oc7c([H])c([H])c(F)c([H])c7F)c([H])c6[H])c(C(=O)N([H])[H])c5N([H])[H])C4([H])[H])c3[H])c([H])c([H])c2C1([H])[H]

>  <smiles>  (21) 
[H]c1c([H])c([H])c2c(c1[H])C([H])([H])C([H])([H])C([H])([H])C2([H])N([H])C(=O)C1([H])N(C(=O)C([H])(N([H])C(=O)C([H])(N([H])C([H])([H])[H])C([H])([H])[H])C(C([H])([H])[H])(C([H])([H])[H])C([H])([H])[H])C([H])([H])c2c([H])c(OC([H])([H])C([H])([H])c3nn(C([H])([H])[H])c(C([H])([H])C([H])([H])C([H])([H])C([H])([H])C([H])([H])C([H])([H])C([H])([H])N([H])C(=O)N4C([H])([H])C([H])([H])C([H])([H])C([H])(n5nc(-c6c([H])c([H])c(Oc7c([H])c([H])c(F)c([H])c7F)c([H])c6[H])c(C(=O)N([H])[H])c5N([H])[H])C4([H])[H])c3[H])c([H])c([H])c2C1([H])[H]

$$$$
22:0:0
     RDKit          3D

 90 98  0  0  1  0  0  0  0  0999 V2000
  -30.9760  -20.3180   19.8280 C   0  0  0  0  0  3  0  0  0  0  0  0
  -31.3710  -21.6460   19.6140 C   0  0  0  0  0  0  0  0  0  0  0  0
  -29.6810  -20.0720   20.3040 C   0  0  0  0  0  0  0  0  0  0  0  0
  -29.3100  -22.4500   20.2750 C   0  0  0  0  0  0  0  0  0  0  0  0
  -32.7640  -21.9880   19.1330 C   0  0  0  0  0  1  0  0  0  0  0  0
  -30.5460  -22.6820   19.8450 N   0  0  0  0  0  0  0  0  0  0  0  0
  -28.8590  -21.1750   20.5240 N   0  0  0  0  0  0  0  0  0  0  0  0
  -29.2150  -18.5680   20.5880 C   0  0  0  0  0  3  0  0  0  0  0  0
  -30.2560  -17.3320   20.4000 C   0  0  0  0  0  3  0  0  0  0  0  0
  -30.5860  -14.7350   20.3830 C   0  0  0  0  0  0  0  0  0  0  0  0
  -30.3650  -12.4700   19.3620 C   0  0  0  0  0  2  0  0  0  0  0  0
  -29.4290  -12.5670   18.1380 C   0  0  0  0  0  2  0  0  0  0  0  0
  -27.9570  -12.4020   18.5670 C   0  0  0  0  0  2  0  0  0  0  0  0
  -27.5910  -13.2790   19.7930 C   0  0  0  0  0  3  0  0  0  0  0  0
  -28.6500  -13.1750   20.9130 C   0  0  0  0  0  2  0  0  0  0  0  0
  -29.9490  -13.5180   20.3220 N   0  0  0  0  0  0  0  0  0  0  0  0
  -31.7650  -14.8340   20.0370 O   0  0  0  0  0  0  0  0  0  0  0  0
  -29.8310  -15.8740   20.6120 N   0  0  0  0  0  0  0  0  0  0  0  0
  -28.8670  -15.7150   20.8630 H   0  0  0  0  0  0  0  0  0  0  0  0
  -25.2020  -13.8720   20.5120 C   0  0  0  0  0  0  0  0  0  0  0  0
  -24.1360  -13.1000   20.8880 C   0  0  0  0  0  0  0  0  0  0  0  0
  -24.6000  -11.7480   20.8630 C   0  0  0  0  0  0  0  0  0  0  0  0
  -26.2470  -12.9930   20.2820 N   0  0  0  0  0  0  0  0  0  0  0  0
  -25.8910  -11.7110   20.5550 N   0  0  0  0  0  0  0  0  0  0  0  0
  -23.8740  -10.4860   21.0570 C   0  0  0  0  0  0  0  0  0  0  0  0
  -24.3120   -9.5170   21.9840 C   0  0  0  0  0  3  0  0  0  0  0  0
  -23.5860   -8.3200   22.1670 C   0  0  0  0  0  3  0  0  0  0  0  0
  -22.4060   -8.0840   21.4200 C   0  0  0  0  0  0  0  0  0  0  0  0
  -21.9870   -9.0420   20.4820 C   0  0  0  0  0  3  0  0  0  0  0  0
  -22.7130  -10.2310   20.2980 C   0  0  0  0  0  3  0  0  0  0  0  0
  -21.6510   -6.9410   21.5130 O   0  0  0  0  0  0  0  0  0  0  0  0
  -21.6210   -6.1890   22.6600 C   0  0  0  0  0  0  0  0  0  0  0  0
  -21.2290   -6.7370   23.9010 C   0  0  0  0  0  3  0  0  0  0  0  0
  -21.1450   -5.9120   25.0400 C   0  0  0  0  0  3  0  0  0  0  0  0
  -21.4430   -4.5400   24.9400 C   0  0  0  0  0  0  0  0  0  0  0  0
  -21.8290   -3.9910   23.7050 C   0  0  0  0  0  3  0  0  0  0  0  0
  -21.9150   -4.8130   22.5680 C   0  0  0  0  0  0  0  0  0  0  0  0
  -22.2650   -4.2750   21.3750 F   0  0  0  0  0  0  0  0  0  0  0  0
  -21.3570   -3.7460   26.0330 F   0  0  0  0  0  0  0  0  0  0  0  0
  -22.7380  -13.5760   21.1550 C   0  0  0  0  0  0  0  0  0  0  0  0
  -22.0080  -12.8830   22.0220 N   0  0  0  0  0  0  0  0  0  0  0  0
  -22.3010  -14.6000   20.6290 O   0  0  0  0  0  0  0  0  0  0  0  0
  -22.3740  -12.0550   22.4690 H   0  0  0  0  0  0  0  0  0  0  0  0
  -21.0720  -13.1860   22.2450 H   0  0  0  0  0  0  0  0  0  0  0  0
  -25.3650  -15.2420   20.3260 N   0  0  0  0  0  0  0  0  0  0  0  0
  -24.5940  -15.8950   20.4190 H   0  0  0  0  0  0  0  0  0  0  0  0
  -26.2040  -15.6720   19.9600 H   0  0  0  0  0  0  0  0  0  0  0  0
  -28.5230  -23.7690   20.7070 C   0  0  0  0  0  2  0  0  0  0  0  0
  -28.4840  -25.0710   19.7430 C   0  0  0  0  0  2  0  0  0  0  0  0
  -28.3750  -26.4720   20.2730 O   0  0  0  0  0  0  0  0  0  0  0  0
  -24.6270  -31.8890   23.2380 C   0  0  0  0  0  0  0  0  0  0  0  0
  -27.2340  -27.2960   20.1930 C   0  0  0  0  0  0  0  0  0  0  0  0
  -23.4210  -30.4850   21.6040 C   0  0  0  0  0  3  0  0  0  0  0  0
  -24.8680  -28.9250   20.1770 C   0  0  0  0  0  0  0  0  0  0  0  0
  -25.9600  -30.7960   21.4160 C   0  0  0  0  0  2  0  0  0  0  0  0
  -26.0370  -29.4140   20.7710 C   0  0  0  0  0  0  0  0  0  0  0  0
  -27.2180  -28.6100   20.7680 C   0  0  0  0  0  3  0  0  0  0  0  0
  -26.0380  -26.8620   19.5800 C   0  0  0  0  0  3  0  0  0  0  0  0
  -24.8730  -27.6570   19.5710 C   0  0  0  0  0  3  0  0  0  0  0  0
  -23.6310  -29.8020   20.2250 C   0  0  0  0  0  2  0  0  0  0  0  0
  -24.6890  -31.0750   22.1420 N   0  0  0  0  0  0  0  0  0  0  0  0
  -23.5440  -32.1690   23.7730 O   0  0  0  0  0  0  0  0  0  0  0  0
  -22.7590  -29.4740   22.5710 C   0  0  0  0  0  0  0  0  0  0  0  0
  -21.4330  -29.2920   22.4430 N   0  0  0  0  0  0  0  0  0  0  0  0
  -23.4380  -28.8530   23.3940 O   0  0  0  0  0  0  0  0  0  0  0  0
  -20.9450  -29.8440   21.7520 H   0  0  0  0  0  0  0  0  0  0  0  0
  -18.0610  -28.0740   22.9310 C   0  0  0  0  0  0  0  0  0  0  0  0
  -20.6150  -28.3560   23.2170 C   0  0  0  0  0  3  0  0  0  0  0  0
  -20.7320  -26.9190   22.6560 C   0  0  0  0  0  2  0  0  0  0  0  0
  -19.6400  -26.5790   21.6370 C   0  0  0  0  0  2  0  0  0  0  0  0
  -18.2520  -26.7200   22.2700 C   0  0  0  0  0  2  0  0  0  0  0  0
  -19.1700  -28.8500   23.3610 C   0  0  0  0  0  0  0  0  0  0  0  0
  -18.9370  -30.1160   23.9400 C   0  0  0  0  0  3  0  0  0  0  0  0
  -17.6270  -30.6090   24.0910 C   0  0  0  0  0  3  0  0  0  0  0  0
  -16.5320  -29.8300   23.6760 C   0  0  0  0  0  3  0  0  0  0  0  0
  -16.7490  -28.5660   23.1030 C   0  0  0  0  0  3  0  0  0  0  0  0
  -25.9100  -32.5240   23.8580 C   0  0  0  0  0  3  0  0  0  0  0  0
  -26.4300  -31.7550   25.1340 C   0  0  1  0  0  0  0  0  0  0  0  0
  -25.3400  -31.5190   26.2060 C   0  0  0  0  0  1  0  0  0  0  0  0
  -27.0110  -30.3760   24.7440 C   0  0  0  0  0  1  0  0  0  0  0  0
  -27.5830  -32.5500   25.7910 C   0  0  0  0  0  1  0  0  0  0  0  0
  -25.5980  -33.9210   24.1900 N   0  0  0  0  0  0  0  0  0  0  0  0
  -25.9250  -34.9770   23.4310 C   0  0  0  0  0  0  0  0  0  0  0  0
  -26.5890  -34.8760   22.3960 O   0  0  0  0  0  0  0  0  0  0  0  0
  -25.0060  -34.0740   24.9940 H   0  0  0  0  0  0  0  0  0  0  0  0
  -24.1900  -36.7680   23.0930 C   0  0  0  0  0  1  0  0  0  0  0  0
  -25.4400  -36.3650   23.8930 C   0  0  0  0  0  3  0  0  0  0  0  0
  -27.5810  -37.2530   24.7020 C   0  0  0  0  0  1  0  0  0  0  0  0
  -26.4690  -37.4200   23.7710 N   0  0  0  0  0  0  0  0  0  0  0  0
  -26.0630  -38.3400   23.9210 H   0  0  0  0  0  0  0  0  0  0  0  0
  1  3  1  0
  2  1  2  0
  2  6  1  0
  3  7  2  0
  3  8  1  0
  4  7  1  0
  4 48  1  0
  5  2  1  0
  6  4  2  0
  9  8  2  0
  9 18  1  0
 10 18  1  0
 11 16  1  0
 12 13  1  0
 12 11  1  0
 14 13  1  0
 14 23  1  0
 14 15  1  0
 16 10  1  0
 16 15  1  0
 17 10  2  0
 18 19  1  0
 20 21  2  0
 21 40  1  0
 22 21  1  0
 22 25  1  0
 23 20  1  0
 23 24  1  0
 24 22  2  0
 25 26  1  0
 26 27  2  0
 28 31  1  0
 28 27  1  0
 29 28  2  0
 30 29  1  0
 30 25  2  0
 31 32  1  0
 32 33  1  0
 33 34  2  0
 35 34  1  0
 35 39  1  0
 36 35  2  0
 37 32  2  0
 37 36  1  0
 38 37  1  0
 40 41  1  0
 41 44  1  0
 41 43  1  0
 42 40  2  0
 45 46  1  0
 45 20  1  0
 47 45  1  0
 49 50  1  0
 49 48  1  0
 51 62  2  0
 52 50  1  0
 52 57  1  0
 53 61  1  0
 53 63  1  0
 54 60  1  0
 54 56  1  0
 55 61  1  0
 56 55  1  0
 57 56  2  0
 58 52  2  0
 59 58  1  0
 59 54  2  0
 60 53  1  0
 61 51  1  0
 63 65  2  0
 64 63  1  0
 66 64  1  0
 67 76  2  0
 67 72  1  0
 68 64  1  0
 68 72  1  0
 69 68  1  0
 70 71  1  0
 70 69  1  0
 71 67  1  0
 72 73  2  0
 73 74  1  0
 75 74  2  0
 76 75  1  0
 77 51  1  0
 77 82  1  0
 77 78  1  0
 78 81  1  1
 78 79  1  0
 80 78  1  0
 82 85  1  0
 83 87  1  0
 83 82  1  0
 84 83  2  0
 87 86  1  0
 89 87  1  0
 89 90  1  0
 89 88  1  0
M  ISO  4  10 100  18 100  49 101  50 101
M  END
>  <TORSDO>  (22) 
F 20

>  <SCORE>  (22) 
-13.776

>  <name>  (22) 
22

>  <ligand_id>  (22) 
22

>  <original_smiles>  (22) 
[H]c1c(C([H])([H])[H])nc(C([H])([H])C([H])([H])Oc2c([H])c([H])c3c(c2[H])C([H])([H])N(C(=O)C([H])(N([H])C(=O)C([H])(N([H])C([H])([H])[H])C([H])([H])[H])C(C([H])([H])[H])(C([H])([H])[H])C([H])([H])[H])C([H])(C(=O)N([H])C2([H])c4c([H])c([H])c([H])c([H])c4C([H])([H])C([H])([H])C2([H])[H])C3([H])[H])nc1C([H])([H])C([H])([H])N([H])C(=O)N1C([H])([H])C([H])([H])C([H])([H])C([H])(n2nc(-c3c([H])c([H])c(Oc4c([H])c([H])c(F)c([H])c4F)c([H])c3[H])c(C(=O)N([H])[H])c2N([H])[H])C1([H])[H]

>  <smiles>  (22) 
[H]c1c(C([H])([H])[H])nc(C([H])([H])C([H])([H])Oc2c([H])c([H])c3c(c2[H])C([H])([H])N(C(=O)C([H])(N([H])C(=O)C([H])(N([H])C([H])([H])[H])C([H])([H])[H])C(C([H])([H])[H])(C([H])([H])[H])C([H])([H])[H])C([H])(C(=O)N([H])C2([H])c4c([H])c([H])c([H])c([H])c4C([H])([H])C([H])([H])C2([H])[H])C3([H])[H])nc1C([H])([H])C([H])([H])N([H])C(=O)N1C([H])([H])C([H])([H])C([H])([H])C([H])(n2nc(-c3c([H])c([H])c(Oc4c([H])c([H])c(F)c([H])c4F)c([H])c3[H])c(C(=O)N([H])[H])c2N([H])[H])C1([H])[H]

$$$$
23:0:0
     RDKit          3D

 90 98  0  0  1  0  0  0  0  0999 V2000
  -29.4590  -19.7030   20.8700 C   0  0  0  0  0  3  0  0  0  0  0  0
  -30.5300  -21.1120   19.2390 C   0  0  0  0  0  3  0  0  0  0  0  0
  -29.5760  -21.0150   20.2700 C   0  0  0  0  0  0  0  0  0  0  0  0
  -30.2720  -18.5790   20.4500 C   0  0  0  0  0  0  0  0  0  0  0  0
  -31.1770  -18.8680   19.4020 C   0  0  0  0  0  0  0  0  0  0  0  0
  -31.2890  -20.0820   18.8200 N   0  0  0  0  0  0  0  0  0  0  0  0
  -32.2790  -17.6780   18.8150 Cl  0  0  0  0  0  0  0  0  0  0  0  0
  -28.6490  -22.2650   20.6060 C   0  0  0  0  0  2  0  0  0  0  0  0
  -29.1250  -23.7910   20.3520 C   0  0  0  0  0  3  0  0  0  0  0  0
  -27.9980  -24.9400   20.4000 C   0  0  0  0  0  3  0  0  0  0  0  0
  -28.2870  -26.4060   20.2370 O   0  0  0  0  0  0  0  0  0  0  0  0
  -24.6040  -31.8900   23.2480 C   0  0  0  0  0  0  0  0  0  0  0  0
  -27.1900  -27.2970   20.1920 C   0  0  0  0  0  0  0  0  0  0  0  0
  -23.3940  -30.4900   21.6210 C   0  0  0  0  0  3  0  0  0  0  0  0
  -24.8350  -28.9380   20.1890 C   0  0  0  0  0  0  0  0  0  0  0  0
  -25.9380  -30.7970   21.4290 C   0  0  0  0  0  2  0  0  0  0  0  0
  -26.0140  -29.4180   20.7770 C   0  0  0  0  0  0  0  0  0  0  0  0
  -27.1980  -28.6160   20.7570 C   0  0  0  0  0  3  0  0  0  0  0  0
  -25.9890  -26.8910   19.5660 C   0  0  0  0  0  3  0  0  0  0  0  0
  -24.8280  -27.6810   19.5740 C   0  0  0  0  0  3  0  0  0  0  0  0
  -23.6020  -29.8130   20.2410 C   0  0  0  0  0  2  0  0  0  0  0  0
  -24.6650  -31.0740   22.1570 N   0  0  0  0  0  0  0  0  0  0  0  0
  -23.5210  -32.1710   23.7820 O   0  0  0  0  0  0  0  0  0  0  0  0
  -22.7290  -29.4750   22.5850 C   0  0  0  0  0  0  0  0  0  0  0  0
  -21.4030  -29.2990   22.4560 N   0  0  0  0  0  0  0  0  0  0  0  0
  -23.4060  -28.8520   23.4060 O   0  0  0  0  0  0  0  0  0  0  0  0
  -20.9160  -29.8520   21.7650 H   0  0  0  0  0  0  0  0  0  0  0  0
  -18.0250  -28.1040   22.9580 C   0  0  0  0  0  0  0  0  0  0  0  0
  -20.5830  -28.3660   23.2290 C   0  0  0  0  0  3  0  0  0  0  0  0
  -20.6860  -26.9310   22.6620 C   0  0  0  0  0  2  0  0  0  0  0  0
  -19.5840  -26.6030   21.6490 C   0  0  0  0  0  2  0  0  0  0  0  0
  -18.2020  -26.7510   22.2910 C   0  0  0  0  0  2  0  0  0  0  0  0
  -19.1420  -28.8710   23.3850 C   0  0  0  0  0  0  0  0  0  0  0  0
  -18.9210  -30.1350   23.9700 C   0  0  0  0  0  3  0  0  0  0  0  0
  -17.6160  -30.6350   24.1330 C   0  0  0  0  0  3  0  0  0  0  0  0
  -16.5130  -29.8680   23.7230 C   0  0  0  0  0  3  0  0  0  0  0  0
  -16.7180  -28.6040   23.1400 C   0  0  0  0  0  3  0  0  0  0  0  0
  -25.8860  -32.5220   23.8670 C   0  0  0  0  0  3  0  0  0  0  0  0
  -26.4000  -31.7540   25.1450 C   0  0  1  0  0  0  0  0  0  0  0  0
  -25.3070  -31.5240   26.2150 C   0  0  0  0  0  1  0  0  0  0  0  0
  -26.9770  -30.3710   24.7600 C   0  0  0  0  0  1  0  0  0  0  0  0
  -27.5550  -32.5460   25.8020 C   0  0  0  0  0  1  0  0  0  0  0  0
  -25.5790  -33.9230   24.1940 N   0  0  0  0  0  0  0  0  0  0  0  0
  -25.9140  -34.9750   23.4350 C   0  0  0  0  0  0  0  0  0  0  0  0
  -26.5820  -34.8690   22.4030 O   0  0  0  0  0  0  0  0  0  0  0  0
  -24.9830  -34.0790   24.9930 H   0  0  0  0  0  0  0  0  0  0  0  0
  -24.1900  -36.7730   23.0820 C   0  0  0  0  0  1  0  0  0  0  0  0
  -25.4310  -36.3650   23.8920 C   0  0  0  0  0  3  0  0  0  0  0  0
  -27.5700  -37.2450   24.7190 C   0  0  0  0  0  1  0  0  0  0  0  0
  -26.4690  -37.4130   23.7750 N   0  0  0  0  0  0  0  0  0  0  0  0
  -26.0680  -38.3360   23.9170 H   0  0  0  0  0  0  0  0  0  0  0  0
  -30.3580  -17.1920   21.2330 C   0  0  0  0  0  2  0  0  0  0  0  0
  -30.6310  -14.7000   20.4500 C   0  0  0  0  0  0  0  0  0  0  0  0
  -30.3710  -12.4630   19.3710 C   0  0  0  0  0  2  0  0  0  0  0  0
  -29.4440  -12.5810   18.1420 C   0  0  0  0  0  2  0  0  0  0  0  0
  -27.9670  -12.4270   18.5580 C   0  0  0  0  0  2  0  0  0  0  0  0
  -27.6000  -13.2950   19.7940 C   0  0  0  0  0  3  0  0  0  0  0  0
  -28.6540  -13.1730   20.9130 C   0  0  0  0  0  2  0  0  0  0  0  0
  -29.9580  -13.5090   20.3260 N   0  0  0  0  0  0  0  0  0  0  0  0
  -31.8270  -14.7700   20.1760 O   0  0  0  0  0  0  0  0  0  0  0  0
  -29.8990  -15.8400   20.7050 N   0  0  0  0  0  0  0  0  0  0  0  0
  -28.9050  -15.6840   20.7540 H   0  0  0  0  0  0  0  0  0  0  0  0
  -25.2100  -13.8900   20.4980 C   0  0  0  0  0  0  0  0  0  0  0  0
  -24.1410  -13.1170   20.8650 C   0  0  0  0  0  0  0  0  0  0  0  0
  -24.6030  -11.7660   20.8440 C   0  0  0  0  0  0  0  0  0  0  0  0
  -26.2530  -13.0070   20.2750 N   0  0  0  0  0  0  0  0  0  0  0  0
  -25.8970  -11.7250   20.5470 N   0  0  0  0  0  0  0  0  0  0  0  0
  -23.8720  -10.5060   21.0370 C   0  0  0  0  0  0  0  0  0  0  0  0
  -24.2980   -9.5390   21.9730 C   0  0  0  0  0  3  0  0  0  0  0  0
  -23.5680   -8.3450   22.1530 C   0  0  0  0  0  3  0  0  0  0  0  0
  -22.3950   -8.1100   21.3960 C   0  0  0  0  0  0  0  0  0  0  0  0
  -21.9870   -9.0660   20.4500 C   0  0  0  0  0  3  0  0  0  0  0  0
  -22.7190  -10.2520   20.2690 C   0  0  0  0  0  3  0  0  0  0  0  0
  -21.6350   -6.9700   21.4860 O   0  0  0  0  0  0  0  0  0  0  0  0
  -21.5870   -6.2240   22.6370 C   0  0  0  0  0  0  0  0  0  0  0  0
  -21.1770   -6.7810   23.8680 C   0  0  0  0  0  3  0  0  0  0  0  0
  -21.0740   -5.9630   25.0100 C   0  0  0  0  0  3  0  0  0  0  0  0
  -21.3720   -4.5900   24.9240 C   0  0  0  0  0  0  0  0  0  0  0  0
  -21.7770   -4.0330   23.6980 C   0  0  0  0  0  3  0  0  0  0  0  0
  -21.8810   -4.8480   22.5570 C   0  0  0  0  0  0  0  0  0  0  0  0
  -22.2500   -4.3030   21.3730 F   0  0  0  0  0  0  0  0  0  0  0  0
  -21.2670   -3.8030   26.0190 F   0  0  0  0  0  0  0  0  0  0  0  0
  -22.7420  -13.5990   21.1220 C   0  0  0  0  0  0  0  0  0  0  0  0
  -22.0100  -12.9100   21.9880 N   0  0  0  0  0  0  0  0  0  0  0  0
  -22.3100  -14.6220   20.5930 O   0  0  0  0  0  0  0  0  0  0  0  0
  -22.3750  -12.0820   22.4360 H   0  0  0  0  0  0  0  0  0  0  0  0
  -21.0710  -13.2110   22.2090 H   0  0  0  0  0  0  0  0  0  0  0  0
  -25.3740  -15.2590   20.3160 N   0  0  0  0  0  0  0  0  0  0  0  0
  -24.5980  -15.9090   20.3900 H   0  0  0  0  0  0  0  0  0  0  0  0
  -26.2300  -15.7000   20.0070 H   0  0  0  0  0  0  0  0  0  0  0  0
  2  3  1  0
  3  8  1  0
  3  1  2  0
  4  1  1  0
  4 52  1  0
  5  4  2  0
  6  2  2  0
  6  5  1  0
  7  5  1  0
  9 10  2  0
  9  8  1  0
 11 10  1  0
 12 23  2  0
 13 11  1  0
 13 18  1  0
 14 22  1  0
 14 24  1  0
 15 21  1  0
 15 17  1  0
 16 22  1  0
 17 16  1  0
 18 17  2  0
 19 20  1  0
 19 13  2  0
 20 15  2  0
 21 14  1  0
 22 12  1  0
 24 26  2  0
 25 24  1  0
 27 25  1  0
 28 37  2  0
 28 33  1  0
 29 25  1  0
 29 33  1  0
 30 29  1  0
 31 32  1  0
 31 30  1  0
 32 28  1  0
 33 34  2  0
 34 35  1  0
 36 35  2  0
 37 36  1  0
 38 12  1  0
 38 43  1  0
 38 39  1  0
 39 42  1  1
 39 40  1  0
 41 39  1  0
 43 46  1  0
 44 48  1  0
 44 43  1  0
 45 44  2  0
 48 47  1  0
 50 48  1  0
 50 51  1  0
 50 49  1  0
 53 61  1  0
 54 59  1  0
 55 56  1  0
 55 54  1  0
 57 56  1  0
 57 66  1  0
 57 58  1  0
 59 53  1  0
 59 58  1  0
 60 53  2  0
 61 62  1  0
 61 52  1  0
 63 64  2  0
 64 83  1  0
 65 64  1  0
 65 68  1  0
 66 63  1  0
 66 67  1  0
 67 65  2  0
 68 69  1  0
 69 70  2  0
 71 74  1  0
 71 70  1  0
 72 71  2  0
 73 72  1  0
 73 68  2  0
 74 75  1  0
 75 76  1  0
 76 77  2  0
 78 77  1  0
 78 82  1  0
 79 78  2  0
 80 75  2  0
 80 79  1  0
 81 80  1  0
 83 84  1  0
 84 87  1  0
 84 86  1  0
 85 83  2  0
 88 89  1  0
 88 63  1  0
 90 88  1  0
M  ISO  4  10 101  11 101  53 100  61 100
M  END
>  <TORSDO>  (23) 
F 20

>  <SCORE>  (23) 
-13.820

>  <name>  (23) 
23

>  <ligand_id>  (23) 
23

>  <original_smiles>  (23) 
[H]c1nc(Cl)c(C([H])([H])N([H])C(=O)N2C([H])([H])C([H])([H])C([H])([H])C([H])(n3nc(-c4c([H])c([H])c(Oc5c([H])c([H])c(F)c([H])c5F)c([H])c4[H])c(C(=O)N([H])[H])c3N([H])[H])C2([H])[H])c([H])c1C([H])([H])C([H])([H])C([H])([H])Oc1c([H])c([H])c2c(c1[H])C([H])([H])N(C(=O)C([H])(N([H])C(=O)C([H])(N([H])C([H])([H])[H])C([H])([H])[H])C(C([H])([H])[H])(C([H])([H])[H])C([H])([H])[H])C([H])(C(=O)N([H])C1([H])c3c([H])c([H])c([H])c([H])c3C([H])([H])C([H])([H])C1([H])[H])C2([H])[H]

>  <smiles>  (23) 
[H]c1nc(Cl)c(C([H])([H])N([H])C(=O)N2C([H])([H])C([H])([H])C([H])([H])C([H])(n3nc(-c4c([H])c([H])c(Oc5c([H])c([H])c(F)c([H])c5F)c([H])c4[H])c(C(=O)N([H])[H])c3N([H])[H])C2([H])[H])c([H])c1C([H])([H])C([H])([H])C([H])([H])Oc1c([H])c([H])c2c(c1[H])C([H])([H])N(C(=O)C([H])(N([H])C(=O)C([H])(N([H])C([H])([H])[H])C([H])([H])[H])C(C([H])([H])[H])(C([H])([H])[H])C([H])([H])[H])C([H])(C(=O)N([H])C1([H])c3c([H])c([H])c([H])c([H])c3C([H])([H])C([H])([H])C1([H])[H])C2([H])[H]

$$$$
24:0:0
     RDKit          3D

 92100  0  0  1  0  0  0  0  0999 V2000
  -27.6950  -21.8420   22.1590 C   0  0  0  0  0  3  0  0  0  0  0  0
  -28.9660  -21.5540   21.6460 C   0  0  0  0  0  0  0  0  0  0  0  0
  -29.2980  -21.9900   20.3350 C   0  0  0  0  0  0  0  0  0  0  0  0
  -28.4710  -23.0840   19.8190 C   0  0  0  0  0  0  0  0  0  0  0  0
  -27.1200  -23.0360   20.2770 C   0  0  0  0  0  0  0  0  0  0  0  0
  -29.9220  -20.7720   22.5370 C   0  0  0  0  0  1  0  0  0  0  0  0
  -25.9230  -23.5210   19.4750 C   0  0  0  0  0  1  0  0  0  0  0  0
  -26.7520  -22.4460   21.4270 N   0  0  0  0  0  0  0  0  0  0  0  0
  -30.3740  -21.1140   19.5760 C   0  0  0  0  0  2  0  0  0  0  0  0
  -30.0860  -19.5080   19.4930 C   0  0  0  0  0  3  0  0  0  0  0  0
  -31.2300  -18.4080   19.7770 C   0  0  0  0  0  3  0  0  0  0  0  0
  -31.6190  -15.8310   20.0300 C   0  0  0  0  0  0  0  0  0  0  0  0
  -31.5290  -13.4030   19.4580 C   0  0  0  0  0  2  0  0  0  0  0  0
  -30.6440  -13.1940   18.2090 C   0  0  0  0  0  2  0  0  0  0  0  0
  -29.1630  -13.0430   18.6070 C   0  0  0  0  0  2  0  0  0  0  0  0
  -28.7010  -14.1310   19.6140 C   0  0  0  0  0  3  0  0  0  0  0  0
  -29.7120  -14.3150   20.7660 C   0  0  0  0  0  2  0  0  0  0  0  0
  -31.0230  -14.5990   20.1680 N   0  0  0  0  0  0  0  0  0  0  0  0
  -32.8060  -15.9140   19.7070 O   0  0  0  0  0  0  0  0  0  0  0  0
  -30.8260  -16.9610   20.0540 N   0  0  0  0  0  0  0  0  0  0  0  0
  -29.8580  -16.8010   20.2840 H   0  0  0  0  0  0  0  0  0  0  0  0
  -26.3470  -14.7840   20.3980 C   0  0  0  0  0  0  0  0  0  0  0  0
  -25.2510  -14.0400   20.7380 C   0  0  0  0  0  0  0  0  0  0  0  0
  -25.6550  -12.6730   20.6370 C   0  0  0  0  0  0  0  0  0  0  0  0
  -27.3510  -13.8750   20.1060 N   0  0  0  0  0  0  0  0  0  0  0  0
  -26.9410  -12.5970   20.3140 N   0  0  0  0  0  0  0  0  0  0  0  0
  -24.8780  -11.4350   20.7710 C   0  0  0  0  0  0  0  0  0  0  0  0
  -25.2050  -10.4570   21.7370 C   0  0  0  0  0  3  0  0  0  0  0  0
  -24.4280   -9.2860   21.8620 C   0  0  0  0  0  3  0  0  0  0  0  0
  -23.3090   -9.0810   21.0190 C   0  0  0  0  0  0  0  0  0  0  0  0
  -23.0020  -10.0460   20.0440 C   0  0  0  0  0  3  0  0  0  0  0  0
  -23.7800  -11.2090   19.9170 C   0  0  0  0  0  3  0  0  0  0  0  0
  -22.5130   -7.9620   21.0500 O   0  0  0  0  0  0  0  0  0  0  0  0
  -22.2130   -7.3230   22.2270 C   0  0  0  0  0  0  0  0  0  0  0  0
  -21.5620   -7.9870   23.2900 C   0  0  0  0  0  3  0  0  0  0  0  0
  -21.2080   -7.2750   24.4540 C   0  0  0  0  0  3  0  0  0  0  0  0
  -21.4980   -5.9020   24.5540 C   0  0  0  0  0  0  0  0  0  0  0  0
  -22.1420   -5.2380   23.4970 C   0  0  0  0  0  3  0  0  0  0  0  0
  -22.4970   -5.9470   22.3350 C   0  0  0  0  0  0  0  0  0  0  0  0
  -23.0980   -5.2970   21.3090 F   0  0  0  0  0  0  0  0  0  0  0  0
  -21.1520   -5.2170   25.6700 F   0  0  0  0  0  0  0  0  0  0  0  0
  -23.8770  -14.5610   21.0440 C   0  0  0  0  0  0  0  0  0  0  0  0
  -23.1360  -13.8660   21.9000 N   0  0  0  0  0  0  0  0  0  0  0  0
  -23.4720  -15.6170   20.5600 O   0  0  0  0  0  0  0  0  0  0  0  0
  -23.4820  -13.0150   22.3140 H   0  0  0  0  0  0  0  0  0  0  0  0
  -22.2100  -14.1900   22.1420 H   0  0  0  0  0  0  0  0  0  0  0  0
  -26.5670  -16.1550   20.2870 N   0  0  0  0  0  0  0  0  0  0  0  0
  -25.8280  -16.8320   20.4360 H   0  0  0  0  0  0  0  0  0  0  0  0
  -27.4280  -16.5750   19.9590 H   0  0  0  0  0  0  0  0  0  0  0  0
  -28.9820  -24.4210   19.0900 C   0  0  0  0  0  2  0  0  0  0  0  0
  -27.9910  -25.7090   19.0920 C   0  0  0  0  0  2  0  0  0  0  0  0
  -28.2500  -27.1880   19.0100 O   0  0  0  0  0  0  0  0  0  0  0  0
  -24.5240  -31.8520   23.1670 C   0  0  0  0  0  0  0  0  0  0  0  0
  -27.1070  -28.0130   19.1910 C   0  0  0  0  0  0  0  0  0  0  0  0
  -23.2550  -30.6240   21.4440 C   0  0  0  0  0  3  0  0  0  0  0  0
  -24.6560  -29.4450   19.6630 C   0  0  0  0  0  0  0  0  0  0  0  0
  -25.7410  -31.1700   21.0840 C   0  0  0  0  0  2  0  0  0  0  0  0
  -25.8510  -29.9160   20.2190 C   0  0  0  0  0  0  0  0  0  0  0  0
  -27.0800  -29.2160   19.9740 C   0  0  0  0  0  3  0  0  0  0  0  0
  -25.8710  -27.6290   18.6080 C   0  0  0  0  0  3  0  0  0  0  0  0
  -24.6690  -28.3110   18.8470 C   0  0  0  0  0  3  0  0  0  0  0  0
  -23.3750  -30.1960   19.9600 C   0  0  0  0  0  2  0  0  0  0  0  0
  -24.5300  -31.2250   21.9540 N   0  0  0  0  0  0  0  0  0  0  0  0
  -23.4840  -31.9520   23.8360 O   0  0  0  0  0  0  0  0  0  0  0  0
  -22.7680  -29.4170   22.2820 C   0  0  0  0  0  0  0  0  0  0  0  0
  -21.4690  -29.0860   22.1740 N   0  0  0  0  0  0  0  0  0  0  0  0
  -23.5550  -28.7860   22.9930 O   0  0  0  0  0  0  0  0  0  0  0  0
  -20.8810  -29.6590   21.5870 H   0  0  0  0  0  0  0  0  0  0  0  0
  -18.3140  -27.3530   22.5420 C   0  0  0  0  0  0  0  0  0  0  0  0
  -20.8090  -27.9630   22.8460 C   0  0  0  0  0  3  0  0  0  0  0  0
  -21.1150  -26.6260   22.1320 C   0  0  0  0  0  2  0  0  0  0  0  0
  -20.0620  -26.2430   21.0870 C   0  0  0  0  0  2  0  0  0  0  0  0
  -18.6800  -26.1190   21.7350 C   0  0  0  0  0  2  0  0  0  0  0  0
  -19.3120  -28.2270   23.0500 C   0  0  0  0  0  0  0  0  0  0  0  0
  -18.9140  -29.3770   23.7650 C   0  0  0  0  0  3  0  0  0  0  0  0
  -17.5510  -29.6600   23.9760 C   0  0  0  0  0  3  0  0  0  0  0  0
  -16.5680  -28.7840   23.4840 C   0  0  0  0  0  3  0  0  0  0  0  0
  -16.9500  -27.6320   22.7730 C   0  0  0  0  0  3  0  0  0  0  0  0
  -25.8170  -32.4910   23.7580 C   0  0  0  0  0  3  0  0  0  0  0  0
  -25.4910  -33.8680   24.1520 N   0  0  0  0  0  0  0  0  0  0  0  0
  -25.7720  -34.9560   23.4220 C   0  0  0  0  0  0  0  0  0  0  0  0
  -26.4030  -34.9070   22.3630 O   0  0  0  0  0  0  0  0  0  0  0  0
  -24.9290  -33.9810   24.9820 H   0  0  0  0  0  0  0  0  0  0  0  0
  -23.9930  -36.7230   23.2030 C   0  0  0  0  0  1  0  0  0  0  0  0
  -25.2740  -36.3140   23.9500 C   0  0  0  0  0  3  0  0  0  0  0  0
  -27.4200  -37.2150   24.7310 C   0  0  0  0  0  1  0  0  0  0  0  0
  -26.2770  -37.3940   23.8400 N   0  0  0  0  0  0  0  0  0  0  0  0
  -25.8570  -38.2970   24.0430 H   0  0  0  0  0  0  0  0  0  0  0  0
  -26.4010  -31.6850   24.9820 C   0  0  1  0  0  0  0  0  0  0  0  0
  -25.3550  -31.3770   26.0790 C   0  0  0  0  0  1  0  0  0  0  0  0
  -27.0070  -30.3390   24.5180 C   0  0  0  0  0  1  0  0  0  0  0  0
  -27.5510  -32.4860   25.6360 C   0  0  0  0  0  1  0  0  0  0  0  0
  2  1  1  0
  2  6  1  0
  3  2  2  0
  4  5  2  0
  4  3  1  0
  5  8  1  0
  7  5  1  0
  8  1  2  0
  9  3  1  0
 10  9  1  0
 10 11  2  0
 11 20  1  0
 12 20  1  0
 12 18  1  0
 13 18  1  0
 14 15  1  0
 14 13  1  0
 16 15  1  0
 16 25  1  0
 16 17  1  0
 18 17  1  0
 19 12  2  0
 20 21  1  0
 22 23  2  0
 23 42  1  0
 24 23  1  0
 24 27  1  0
 25 26  1  0
 25 22  1  0
 26 24  2  0
 27 28  1  0
 28 29  2  0
 30 33  1  0
 30 29  1  0
 31 30  2  0
 32 31  1  0
 32 27  2  0
 33 34  1  0
 34 39  2  0
 34 35  1  0
 35 36  2  0
 36 37  1  0
 37 41  1  0
 38 37  2  0
 39 38  1  0
 40 39  1  0
 42 43  1  0
 43 46  1  0
 43 45  1  0
 44 42  2  0
 47 22  1  0
 47 48  1  0
 49 47  1  0
 50 51  1  0
 50  4  1  0
 52 51  1  0
 52 54  1  0
 53 64  2  0
 54 59  1  0
 55 63  1  0
 55 65  1  0
 56 62  1  0
 56 58  1  0
 57 63  1  0
 58 57  1  0
 59 58  2  0
 60 61  1  0
 60 54  2  0
 61 56  2  0
 62 55  1  0
 63 53  1  0
 65 67  2  0
 66 65  1  0
 68 66  1  0
 69 78  2  0
 69 74  1  0
 70 66  1  0
 70 74  1  0
 71 70  1  0
 72 73  1  0
 72 71  1  0
 73 69  1  0
 74 75  2  0
 75 76  1  0
 77 76  2  0
 78 77  1  0
 79 53  1  0
 79 80  1  0
 79 89  1  0
 80 83  1  0
 81 85  1  0
 81 80  1  0
 82 81  2  0
 85 84  1  0
 87 85  1  0
 87 88  1  0
 87 86  1  0
 89 92  1  1
 89 90  1  0
 91 89  1  0
M  ISO  4  12 100  20 100  51 101  52 101
M  END
>  <TORSDO>  (24) 
F 21

>  <SCORE>  (24) 
-9.212

>  <name>  (24) 
24

>  <ligand_id>  (24) 
24

>  <original_smiles>  (24) 
[H]c1nc(C([H])([H])[H])c(C([H])([H])C([H])([H])Oc2c([H])c([H])c3c(c2[H])C([H])([H])N(C(=O)C([H])(N([H])C(=O)C([H])(N([H])C([H])([H])[H])C([H])([H])[H])C(C([H])([H])[H])(C([H])([H])[H])C([H])([H])[H])C([H])(C(=O)N([H])C2([H])c4c([H])c([H])c([H])c([H])c4C([H])([H])C([H])([H])C2([H])[H])C3([H])[H])c(C([H])([H])C([H])([H])C([H])([H])N([H])C(=O)N2C([H])([H])C([H])([H])C([H])([H])C([H])(n3nc(-c4c([H])c([H])c(Oc5c([H])c([H])c(F)c([H])c5F)c([H])c4[H])c(C(=O)N([H])[H])c3N([H])[H])C2([H])[H])c1C([H])([H])[H]

>  <smiles>  (24) 
[H]c1nc(C([H])([H])[H])c(C([H])([H])C([H])([H])Oc2c([H])c([H])c3c(c2[H])C([H])([H])N(C(=O)C([H])(N([H])C(=O)C([H])(N([H])C([H])([H])[H])C([H])([H])[H])C(C([H])([H])[H])(C([H])([H])[H])C([H])([H])[H])C([H])(C(=O)N([H])C2([H])c4c([H])c([H])c([H])c([H])c4C([H])([H])C([H])([H])C2([H])[H])C3([H])[H])c(C([H])([H])C([H])([H])C([H])([H])N([H])C(=O)N2C([H])([H])C([H])([H])C([H])([H])C([H])(n3nc(-c4c([H])c([H])c(Oc5c([H])c([H])c(F)c([H])c5F)c([H])c4[H])c(C(=O)N([H])[H])c3N([H])[H])C2([H])[H])c1C([H])([H])[H]

$$$$
25:0:0
     RDKit          3D

 91 99  0  0  1  0  0  0  0  0999 V2000
  -30.8700  -19.3190   19.0270 C   0  0  0  0  0  3  0  0  0  0  0  0
  -29.1050  -20.6170   20.7540 C   0  0  0  0  0  3  0  0  0  0  0  0
  -30.6120  -20.7200   18.8800 C   0  0  0  0  0  0  0  0  0  0  0  0
  -30.3170  -18.5460   20.0820 C   0  0  0  0  0  0  0  0  0  0  0  0
  -29.7470  -21.4210   19.7760 C   0  0  0  0  0  0  0  0  0  0  0  0
  -29.3910  -19.2270   20.9180 C   0  0  0  0  0  0  0  0  0  0  0  0
  -31.3680  -21.4690   17.7970 C   0  0  0  0  0  1  0  0  0  0  0  0
  -28.8380  -18.5700   21.9640 F   0  0  0  0  0  0  0  0  0  0  0  0
  -29.6860  -23.0000   19.8520 C   0  0  0  0  0  2  0  0  0  0  0  0
  -28.4530  -23.8370   19.3120 C   0  0  0  0  0  2  0  0  0  0  0  0
  -28.6770  -25.3770   18.9420 C   0  0  0  0  0  2  0  0  0  0  0  0
  -28.4700  -26.4960   19.8820 O   0  0  0  0  0  0  0  0  0  0  0  0
  -24.5460  -31.6810   23.0250 C   0  0  0  0  0  0  0  0  0  0  0  0
  -27.3100  -27.2820   19.8550 C   0  0  0  0  0  0  0  0  0  0  0  0
  -23.3970  -30.3040   21.3300 C   0  0  0  0  0  3  0  0  0  0  0  0
  -24.9010  -28.8230   19.8850 C   0  0  0  0  0  0  0  0  0  0  0  0
  -25.9320  -30.6770   21.2000 C   0  0  0  0  0  2  0  0  0  0  0  0
  -26.0510  -29.3270   20.5050 C   0  0  0  0  0  0  0  0  0  0  0  0
  -27.2560  -28.5650   20.4840 C   0  0  0  0  0  3  0  0  0  0  0  0
  -26.1240  -26.8110   19.2500 C   0  0  0  0  0  3  0  0  0  0  0  0
  -24.9380  -27.5680   19.2590 C   0  0  0  0  0  3  0  0  0  0  0  0
  -23.6460  -29.6680   19.9380 C   0  0  0  0  0  2  0  0  0  0  0  0
  -24.6420  -30.9020   21.9080 N   0  0  0  0  0  0  0  0  0  0  0  0
  -23.4500  -31.9220   23.5500 O   0  0  0  0  0  0  0  0  0  0  0  0
  -22.7440  -29.2480   22.2520 C   0  0  0  0  0  0  0  0  0  0  0  0
  -21.4180  -29.0740   22.1290 N   0  0  0  0  0  0  0  0  0  0  0  0
  -23.4310  -28.5890   23.0360 O   0  0  0  0  0  0  0  0  0  0  0  0
  -20.9220  -29.6590   21.4710 H   0  0  0  0  0  0  0  0  0  0  0  0
  -18.0410  -27.8980   22.6830 C   0  0  0  0  0  0  0  0  0  0  0  0
  -20.6110  -28.1050   22.8730 C   0  0  0  0  0  3  0  0  0  0  0  0
  -20.6650  -26.7070   22.2160 C   0  0  0  0  0  2  0  0  0  0  0  0
  -19.5250  -26.4600   21.2230 C   0  0  0  0  0  2  0  0  0  0  0  0
  -18.1690  -26.5890   21.9230 C   0  0  0  0  0  2  0  0  0  0  0  0
  -19.1880  -28.6170   23.1160 C   0  0  0  0  0  0  0  0  0  0  0  0
  -19.0110  -29.8450   23.7910 C   0  0  0  0  0  3  0  0  0  0  0  0
  -17.7220  -30.3560   24.0320 C   0  0  0  0  0  3  0  0  0  0  0  0
  -16.5910  -29.6340   23.6120 C   0  0  0  0  0  3  0  0  0  0  0  0
  -16.7520  -28.4070   22.9440 C   0  0  0  0  0  3  0  0  0  0  0  0
  -25.8060  -32.3270   23.6780 C   0  0  0  0  0  3  0  0  0  0  0  0
  -26.3090  -31.5530   24.9590 C   0  0  1  0  0  0  0  0  0  0  0  0
  -25.1960  -31.2840   26.0000 C   0  0  0  0  0  1  0  0  0  0  0  0
  -26.9330  -30.1880   24.5810 C   0  0  0  0  0  1  0  0  0  0  0  0
  -27.4250  -32.3720   25.6480 C   0  0  0  0  0  1  0  0  0  0  0  0
  -25.4700  -33.7190   24.0140 N   0  0  0  0  0  0  0  0  0  0  0  0
  -25.7970  -34.7820   23.2670 C   0  0  0  0  0  0  0  0  0  0  0  0
  -26.4850  -34.6950   22.2470 O   0  0  0  0  0  0  0  0  0  0  0  0
  -24.8660  -33.8580   24.8090 H   0  0  0  0  0  0  0  0  0  0  0  0
  -24.0540  -36.5560   22.8890 C   0  0  0  0  0  1  0  0  0  0  0  0
  -25.2830  -36.1630   23.7250 C   0  0  0  0  0  3  0  0  0  0  0  0
  -27.3770  -37.0810   24.6190 C   0  0  0  0  0  1  0  0  0  0  0  0
  -26.3050  -37.2290   23.6380 N   0  0  0  0  0  0  0  0  0  0  0  0
  -25.8820  -38.1450   23.7650 H   0  0  0  0  0  0  0  0  0  0  0  0
  -30.9430  -17.1560   20.4840 C   0  0  0  0  0  2  0  0  0  0  0  0
  -31.0150  -14.6640   19.9040 C   0  0  0  0  0  0  0  0  0  0  0  0
  -30.6800  -12.3960   18.9360 C   0  0  0  0  0  2  0  0  0  0  0  0
  -29.6760  -12.4720   17.7650 C   0  0  0  0  0  2  0  0  0  0  0  0
  -28.2330  -12.3350   18.2820 C   0  0  0  0  0  2  0  0  0  0  0  0
  -27.9450  -13.2620   19.4950 C   0  0  0  0  0  3  0  0  0  0  0  0
  -29.0630  -13.1810   20.5580 C   0  0  0  0  0  2  0  0  0  0  0  0
  -30.3320  -13.4750   19.8820 N   0  0  0  0  0  0  0  0  0  0  0  0
  -32.1790  -14.7290   19.5050 O   0  0  0  0  0  0  0  0  0  0  0  0
  -30.3260  -15.8070   20.2170 N   0  0  0  0  0  0  0  0  0  0  0  0
  -29.3550  -15.6960   20.4640 H   0  0  0  0  0  0  0  0  0  0  0  0
  -25.6310  -13.9070   20.3880 C   0  0  0  0  0  0  0  0  0  0  0  0
  -24.5680  -13.1540   20.8030 C   0  0  0  0  0  0  0  0  0  0  0  0
  -24.9870  -11.7900   20.7110 C   0  0  0  0  0  0  0  0  0  0  0  0
  -26.6290  -13.0040   20.0630 N   0  0  0  0  0  0  0  0  0  0  0  0
  -26.2530  -11.7240   20.3220 N   0  0  0  0  0  0  0  0  0  0  0  0
  -24.2360  -10.5440   20.9090 C   0  0  0  0  0  0  0  0  0  0  0  0
  -24.6450   -9.5790   21.8550 C   0  0  0  0  0  3  0  0  0  0  0  0
  -23.8970   -8.3970   22.0420 C   0  0  0  0  0  3  0  0  0  0  0  0
  -22.7240   -8.1740   21.2820 C   0  0  0  0  0  0  0  0  0  0  0  0
  -22.3340   -9.1250   20.3240 C   0  0  0  0  0  3  0  0  0  0  0  0
  -23.0830  -10.2990   20.1360 C   0  0  0  0  0  3  0  0  0  0  0  0
  -21.9480   -7.0440   21.3780 O   0  0  0  0  0  0  0  0  0  0  0  0
  -21.8080   -6.3640   22.5600 C   0  0  0  0  0  0  0  0  0  0  0  0
  -21.2350   -6.9640   23.7020 C   0  0  0  0  0  3  0  0  0  0  0  0
  -21.0470   -6.2080   24.8760 C   0  0  0  0  0  3  0  0  0  0  0  0
  -21.4280   -4.8520   24.9100 C   0  0  0  0  0  0  0  0  0  0  0  0
  -21.9950   -4.2520   23.7720 C   0  0  0  0  0  3  0  0  0  0  0  0
  -22.1830   -5.0050   22.6000 C   0  0  0  0  0  0  0  0  0  0  0  0
  -22.7090   -4.4180   21.5000 F   0  0  0  0  0  0  0  0  0  0  0  0
  -21.2410   -4.1230   26.0340 F   0  0  0  0  0  0  0  0  0  0  0  0
  -23.2060  -13.6600   21.1780 C   0  0  0  0  0  0  0  0  0  0  0  0
  -22.5210  -12.9620   22.0770 N   0  0  0  0  0  0  0  0  0  0  0  0
  -22.7610  -14.7060   20.7060 O   0  0  0  0  0  0  0  0  0  0  0  0
  -22.8960  -12.1120   22.4700 H   0  0  0  0  0  0  0  0  0  0  0  0
  -21.6120  -13.2810   22.3770 H   0  0  0  0  0  0  0  0  0  0  0  0
  -25.8250  -15.2770   20.2310 N   0  0  0  0  0  0  0  0  0  0  0  0
  -25.0870  -15.9510   20.4070 H   0  0  0  0  0  0  0  0  0  0  0  0
  -26.6590  -15.6980   19.8430 H   0  0  0  0  0  0  0  0  0  0  0  0
  1  4  1  0
  2  6  1  0
  3  1  2  0
  3  5  1  0
  4 53  1  0
  4  6  2  0
  5  9  1  0
  5  2  2  0
  6  8  1  0
  7  3  1  0
 10  9  1  0
 11 10  1  0
 11 12  1  0
 13 24  2  0
 14 12  1  0
 14 19  1  0
 15 23  1  0
 15 25  1  0
 16 22  1  0
 16 18  1  0
 17 23  1  0
 18 17  1  0
 19 18  2  0
 20 21  1  0
 20 14  2  0
 21 16  2  0
 22 15  1  0
 23 13  1  0
 25 27  2  0
 26 25  1  0
 28 26  1  0
 29 38  2  0
 29 34  1  0
 30 26  1  0
 30 34  1  0
 31 30  1  0
 32 33  1  0
 32 31  1  0
 33 29  1  0
 34 35  2  0
 35 36  1  0
 37 36  2  0
 38 37  1  0
 39 13  1  0
 39 44  1  0
 39 40  1  0
 40 43  1  1
 40 41  1  0
 42 40  1  0
 44 47  1  0
 45 49  1  0
 45 44  1  0
 46 45  2  0
 49 48  1  0
 51 49  1  0
 51 52  1  0
 51 50  1  0
 54 62  1  0
 55 60  1  0
 56 57  1  0
 56 55  1  0
 58 57  1  0
 58 67  1  0
 58 59  1  0
 60 54  1  0
 60 59  1  0
 61 54  2  0
 62 63  1  0
 62 53  1  0
 64 65  2  0
 65 84  1  0
 66 65  1  0
 66 69  1  0
 67 68  1  0
 67 64  1  0
 68 66  2  0
 69 70  1  0
 70 71  2  0
 72 75  1  0
 72 71  1  0
 73 72  2  0
 74 73  1  0
 74 69  2  0
 75 76  1  0
 76 81  2  0
 76 77  1  0
 77 78  2  0
 78 79  1  0
 79 83  1  0
 80 79  2  0
 81 80  1  0
 82 81  1  0
 84 85  1  0
 85 88  1  0
 85 87  1  0
 86 84  2  0
 89 64  1  0
 89 90  1  0
 91 89  1  0
M  ISO  4  11 101  12 101  54 100  62 100
M  END
>  <TORSDO>  (25) 
F 20

>  <SCORE>  (25) 
-12.331

>  <name>  (25) 
25

>  <ligand_id>  (25) 
25

>  <original_smiles>  (25) 
[H]c1c([H])c([H])c2c(c1[H])C([H])([H])C([H])([H])C([H])([H])C2([H])N([H])C(=O)C1([H])N(C(=O)C([H])(N([H])C(=O)C([H])(N([H])C([H])([H])[H])C([H])([H])[H])C(C([H])([H])[H])(C([H])([H])[H])C([H])([H])[H])C([H])([H])c2c([H])c(OC([H])([H])C([H])([H])C([H])([H])c3c([H])c(F)c(C([H])([H])N([H])C(=O)N4C([H])([H])C([H])([H])C([H])([H])C([H])(n5nc(-c6c([H])c([H])c(Oc7c([H])c([H])c(F)c([H])c7F)c([H])c6[H])c(C(=O)N([H])[H])c5N([H])[H])C4([H])[H])c([H])c3C([H])([H])[H])c([H])c([H])c2C1([H])[H]

>  <smiles>  (25) 
[H]c1c([H])c([H])c2c(c1[H])C([H])([H])C([H])([H])C([H])([H])C2([H])N([H])C(=O)C1([H])N(C(=O)C([H])(N([H])C(=O)C([H])(N([H])C([H])([H])[H])C([H])([H])[H])C(C([H])([H])[H])(C([H])([H])[H])C([H])([H])[H])C([H])([H])c2c([H])c(OC([H])([H])C([H])([H])C([H])([H])c3c([H])c(F)c(C([H])([H])N([H])C(=O)N4C([H])([H])C([H])([H])C([H])([H])C([H])(n5nc(-c6c([H])c([H])c(Oc7c([H])c([H])c(F)c([H])c7F)c([H])c6[H])c(C(=O)N([H])[H])c5N([H])[H])C4([H])[H])c([H])c3C([H])([H])[H])c([H])c([H])c2C1([H])[H]

$$$$
26:0:0
     RDKit          3D

 96104  0  0  1  0  0  0  0  0999 V2000
  -27.6350  -25.5980   22.6220 C   0  0  0  0  0  3  0  0  0  0  0  0
  -27.7200  -25.1900   20.2270 C   0  0  0  0  0  3  0  0  0  0  0  0
  -28.2580  -25.8070   21.3740 C   0  0  0  0  0  0  0  0  0  0  0  0
  -26.4920  -24.7790   22.7250 C   0  0  0  0  0  0  0  0  0  0  0  0
  -26.5570  -24.3960   20.3040 C   0  0  0  0  0  0  0  0  0  0  0  0
  -25.9490  -24.1710   21.5670 C   0  0  0  0  0  0  0  0  0  0  0  0
  -25.8440  -24.5630   24.0830 C   0  0  0  0  0  1  0  0  0  0  0  0
  -24.5490  -23.1620   21.7170 Cl  0  0  0  0  0  0  0  0  0  0  0  0
  -25.9620  -23.8560   19.0060 C   0  0  0  0  0  2  0  0  0  0  0  0
  -26.8840  -22.9140   18.2130 C   0  0  0  0  0  2  0  0  0  0  0  0
  -27.4920  -21.7750   19.0480 C   0  0  0  0  0  2  0  0  0  0  0  0
  -28.1130  -20.6770   18.1630 C   0  0  0  0  0  2  0  0  0  0  0  0
  -29.3560  -20.0220   18.7840 C   0  0  0  0  0  2  0  0  0  0  0  0
  -29.0780  -19.1200   19.9980 C   0  0  0  0  0  2  0  0  0  0  0  0
  -30.3830  -18.8000   20.7510 C   0  0  0  0  0  2  0  0  0  0  0  0
  -30.2120  -17.9070   21.9960 C   0  0  0  0  0  2  0  0  0  0  0  0
  -30.5090  -15.6490   20.9880 C   0  0  0  0  0  0  0  0  0  0  0  0
  -30.5360  -13.4020   19.9780 C   0  0  0  0  0  2  0  0  0  0  0  0
  -29.7130  -13.3800   18.6780 C   0  0  0  0  0  2  0  0  0  0  0  0
  -28.2290  -13.0970   18.9790 C   0  0  0  0  0  2  0  0  0  0  0  0
  -27.6650  -14.0070   20.1020 C   0  0  0  0  0  3  0  0  0  0  0  0
  -28.6070  -14.0220   21.3250 C   0  0  0  0  0  2  0  0  0  0  0  0
  -29.9520  -14.4170   20.8660 N   0  0  0  0  0  0  0  0  0  0  0  0
  -31.5940  -15.9520   20.4830 O   0  0  0  0  0  0  0  0  0  0  0  0
  -29.7960  -16.5400   21.6850 N   0  0  0  0  0  0  0  0  0  0  0  0
  -28.9200  -16.2230   22.0720 H   0  0  0  0  0  0  0  0  0  0  0  0
  -25.1800  -14.4010   20.6570 C   0  0  0  0  0  0  0  0  0  0  0  0
  -24.1530  -13.5350   20.9210 C   0  0  0  0  0  0  0  0  0  0  0  0
  -24.7210  -12.2250   20.8740 C   0  0  0  0  0  0  0  0  0  0  0  0
  -26.3060  -13.6130   20.4700 N   0  0  0  0  0  0  0  0  0  0  0  0
  -26.0270  -12.2970   20.6560 N   0  0  0  0  0  0  0  0  0  0  0  0
  -24.0850  -10.9040   20.9660 C   0  0  0  0  0  0  0  0  0  0  0  0
  -24.4950   -9.9540   21.9270 C   0  0  0  0  0  3  0  0  0  0  0  0
  -23.8570   -8.6970   22.0080 C   0  0  0  0  0  3  0  0  0  0  0  0
  -22.7950   -8.3810   21.1270 C   0  0  0  0  0  0  0  0  0  0  0  0
  -22.4070   -9.3230   20.1580 C   0  0  0  0  0  3  0  0  0  0  0  0
  -23.0460  -10.5710   20.0740 C   0  0  0  0  0  3  0  0  0  0  0  0
  -22.1350   -7.1770   21.1160 O   0  0  0  0  0  0  0  0  0  0  0  0
  -21.9630   -6.4400   22.2600 C   0  0  0  0  0  0  0  0  0  0  0  0
  -21.3040   -6.9650   23.3930 C   0  0  0  0  0  3  0  0  0  0  0  0
  -21.0880   -6.1500   24.5220 C   0  0  0  0  0  3  0  0  0  0  0  0
  -21.5190   -4.8090   24.5180 C   0  0  0  0  0  0  0  0  0  0  0  0
  -22.1680   -4.2820   23.3870 C   0  0  0  0  0  3  0  0  0  0  0  0
  -22.3870   -5.0950   22.2610 C   0  0  0  0  0  0  0  0  0  0  0  0
  -22.9950   -4.5770   21.1670 F   0  0  0  0  0  0  0  0  0  0  0  0
  -21.3040   -4.0240   25.5980 F   0  0  0  0  0  0  0  0  0  0  0  0
  -22.7070  -13.8930   21.1130 C   0  0  0  0  0  0  0  0  0  0  0  0
  -21.9820  -13.1120   21.9070 N   0  0  0  0  0  0  0  0  0  0  0  0
  -22.2230  -14.8980   20.5940 O   0  0  0  0  0  0  0  0  0  0  0  0
  -22.3850  -12.2990   22.3490 H   0  0  0  0  0  0  0  0  0  0  0  0
  -21.0120  -13.3330   22.0760 H   0  0  0  0  0  0  0  0  0  0  0  0
  -25.2510  -15.7860   20.5430 N   0  0  0  0  0  0  0  0  0  0  0  0
  -24.4350  -16.3830   20.6320 H   0  0  0  0  0  0  0  0  0  0  0  0
  -26.0930  -16.2990   20.3150 H   0  0  0  0  0  0  0  0  0  0  0  0
  -29.5190  -26.6550   21.2710 C   0  0  0  0  0  2  0  0  0  0  0  0
  -29.4320  -27.7060   20.3050 O   0  0  0  0  0  0  0  0  0  0  0  0
  -24.8580  -32.0330   23.6250 C   0  0  0  0  0  0  0  0  0  0  0  0
  -28.2270  -28.3600   20.2890 C   0  0  0  0  0  0  0  0  0  0  0  0
  -23.9880  -30.8540   21.6310 C   0  0  0  0  0  3  0  0  0  0  0  0
  -25.7350  -29.6710   20.1950 C   0  0  0  0  0  0  0  0  0  0  0  0
  -26.4770  -31.3990   21.8430 C   0  0  0  0  0  2  0  0  0  0  0  0
  -26.7540  -30.1610   21.0220 C   0  0  0  0  0  0  0  0  0  0  0  0
  -28.0030  -29.5080   21.0780 C   0  0  0  0  0  3  0  0  0  0  0  0
  -27.2040  -27.8880   19.4440 C   0  0  0  0  0  3  0  0  0  0  0  0
  -25.9510  -28.5280   19.4050 C   0  0  0  0  0  3  0  0  0  0  0  0
  -24.4270  -30.4290   20.2020 C   0  0  0  0  0  2  0  0  0  0  0  0
  -25.1170  -31.4350   22.4280 N   0  0  0  0  0  0  0  0  0  0  0  0
  -23.7010  -32.1390   24.0490 O   0  0  0  0  0  0  0  0  0  0  0  0
  -23.3150  -29.6440   22.3180 C   0  0  0  0  0  0  0  0  0  0  0  0
  -22.0090  -29.4680   22.0660 N   0  0  0  0  0  0  0  0  0  0  0  0
  -23.9670  -28.8830   23.0390 O   0  0  0  0  0  0  0  0  0  0  0  0
  -21.5480  -30.1390   21.4670 H   0  0  0  0  0  0  0  0  0  0  0  0
  -18.6090  -28.2710   22.2960 C   0  0  0  0  0  0  0  0  0  0  0  0
  -21.1760  -28.3810   22.5790 C   0  0  0  0  0  3  0  0  0  0  0  0
  -21.2300  -27.1530   21.6420 C   0  0  0  0  0  2  0  0  0  0  0  0
  -20.1080  -27.1400   20.6010 C   0  0  0  0  0  2  0  0  0  0  0  0
  -18.7380  -27.1440   21.2860 C   0  0  0  0  0  2  0  0  0  0  0  0
  -19.7540  -28.8620   22.8940 C   0  0  0  0  0  0  0  0  0  0  0  0
  -19.5800  -29.9280   23.8000 C   0  0  0  0  0  3  0  0  0  0  0  0
  -18.2920  -30.4020   24.1160 C   0  0  0  0  0  3  0  0  0  0  0  0
  -17.1610  -29.8070   23.5320 C   0  0  0  0  0  3  0  0  0  0  0  0
  -17.3210  -28.7410   22.6280 C   0  0  0  0  0  3  0  0  0  0  0  0
  -26.0020  -32.6290   24.5030 C   0  0  0  0  0  3  0  0  0  0  0  0
  -26.2490  -31.8200   25.8350 C   0  0  1  0  0  0  0  0  0  0  0  0
  -24.9610  -31.5530   26.6460 C   0  0  0  0  0  1  0  0  0  0  0  0
  -26.9090  -30.4550   25.5290 C   0  0  0  0  0  1  0  0  0  0  0  0
  -27.2320  -32.5950   26.7430 C   0  0  0  0  0  1  0  0  0  0  0  0
  -25.6520  -34.0240   24.7980 N   0  0  0  0  0  0  0  0  0  0  0  0
  -26.1200  -35.0840   24.1270 C   0  0  0  0  0  0  0  0  0  0  0  0
  -26.9620  -34.9910   23.2310 O   0  0  0  0  0  0  0  0  0  0  0  0
  -24.9240  -34.1730   25.4810 H   0  0  0  0  0  0  0  0  0  0  0  0
  -24.4820  -36.8870   23.5040 C   0  0  0  0  0  1  0  0  0  0  0  0
  -25.5650  -36.4690   24.5120 C   0  0  0  0  0  3  0  0  0  0  0  0
  -27.5360  -37.3250   25.7000 C   0  0  0  0  0  1  0  0  0  0  0  0
  -26.6040  -37.5180   24.5910 N   0  0  0  0  0  0  0  0  0  0  0  0
  -26.1810  -38.4370   24.6880 H   0  0  0  0  0  0  0  0  0  0  0  0
  1  4  1  0
  2  5  2  0
  2  3  1  0
  3  1  2  0
  4  7  1  0
  5  6  1  0
  6  8  1  0
  6  4  2  0
  9  5  1  0
 10  9  1  0
 10 11  1  0
 12 13  1  0
 12 11  1  0
 13 14  1  0
 14 15  1  0
 15 16  1  0
 17 25  1  0
 18 23  1  0
 19 20  1  0
 19 18  1  0
 21 20  1  0
 21 30  1  0
 21 22  1  0
 23 17  1  0
 23 22  1  0
 24 17  2  0
 25 16  1  0
 25 26  1  0
 27 28  2  0
 28 47  1  0
 29 28  1  0
 29 32  1  0
 30 31  1  0
 30 27  1  0
 31 29  2  0
 32 33  1  0
 33 34  2  0
 35 34  1  0
 36 35  2  0
 37 36  1  0
 37 32  2  0
 38 35  1  0
 38 39  1  0
 39 44  2  0
 39 40  1  0
 40 41  2  0
 42 41  1  0
 42 46  1  0
 43 42  2  0
 44 43  1  0
 45 44  1  0
 47 48  1  0
 48 51  1  0
 48 50  1  0
 49 47  2  0
 52 53  1  0
 52 27  1  0
 54 52  1  0
 55  3  1  0
 56 55  1  0
 57 68  2  0
 58 56  1  0
 58 63  1  0
 59 69  1  0
 59 67  1  0
 60 66  1  0
 60 62  1  0
 61 67  1  0
 62 63  2  0
 62 61  1  0
 64 58  2  0
 65 64  1  0
 65 60  2  0
 66 59  1  0
 67 57  1  0
 69 71  2  0
 70 69  1  0
 72 70  1  0
 73 82  2  0
 73 78  1  0
 74 70  1  0
 74 78  1  0
 75 74  1  0
 76 77  1  0
 76 75  1  0
 77 73  1  0
 78 79  2  0
 79 80  1  0
 81 80  2  0
 82 81  1  0
 83 57  1  0
 83 88  1  0
 83 84  1  0
 84 85  1  1
 84 87  1  0
 86 84  1  0
 88 91  1  0
 89 93  1  0
 89 88  1  0
 90 89  2  0
 93 92  1  0
 93 95  1  0
 95 96  1  0
 95 94  1  0
M  ISO  4  17 100  25 100  55 101  56 101
M  END
>  <TORSDO>  (26) 
F 25

>  <SCORE>  (26) 
-8.222

>  <name>  (26) 
26

>  <ligand_id>  (26) 
26

>  <original_smiles>  (26) 
[H]c1c([H])c([H])c2c(c1[H])C([H])([H])C([H])([H])C([H])([H])C2([H])N([H])C(=O)C1([H])N(C(=O)C([H])(N([H])C(=O)C([H])(N([H])C([H])([H])[H])C([H])([H])[H])C(C([H])([H])[H])(C([H])([H])[H])C([H])([H])[H])C([H])([H])c2c([H])c(OC([H])([H])c3c([H])c(C([H])([H])[H])c(Cl)c(C([H])([H])C([H])([H])C([H])([H])C([H])([H])C([H])([H])C([H])([H])C([H])([H])C([H])([H])N([H])C(=O)N4C([H])([H])C([H])([H])C([H])([H])C([H])(n5nc(-c6c([H])c([H])c(Oc7c([H])c([H])c(F)c([H])c7F)c([H])c6[H])c(C(=O)N([H])[H])c5N([H])[H])C4([H])[H])c3[H])c([H])c([H])c2C1([H])[H]

>  <smiles>  (26) 
[H]c1c([H])c([H])c2c(c1[H])C([H])([H])C([H])([H])C([H])([H])C2([H])N([H])C(=O)C1([H])N(C(=O)C([H])(N([H])C(=O)C([H])(N([H])C([H])([H])[H])C([H])([H])[H])C(C([H])([H])[H])(C([H])([H])[H])C([H])([H])[H])C([H])([H])c2c([H])c(OC([H])([H])c3c([H])c(C([H])([H])[H])c(Cl)c(C([H])([H])C([H])([H])C([H])([H])C([H])([H])C([H])([H])C([H])([H])C([H])([H])C([H])([H])N([H])C(=O)N4C([H])([H])C([H])([H])C([H])([H])C([H])(n5nc(-c6c([H])c([H])c(Oc7c([H])c([H])c(F)c([H])c7F)c([H])c6[H])c(C(=O)N([H])[H])c5N([H])[H])C4([H])[H])c3[H])c([H])c([H])c2C1([H])[H]

$$$$
27:0:0
     RDKit          3D

 92100  0  0  1  0  0  0  0  0999 V2000
  -28.9910  -20.7470   21.2290 C   0  0  0  0  0  3  0  0  0  0  0  0
  -30.0060  -22.2980   19.1340 C   0  0  0  0  0  3  0  0  0  0  0  0
  -28.9840  -22.1580   21.3350 C   0  0  0  0  0  0  0  0  0  0  0  0
  -29.5220  -20.0910   20.0970 C   0  0  0  0  0  0  0  0  0  0  0  0
  -29.4960  -22.9570   20.2800 C   0  0  0  0  0  0  0  0  0  0  0  0
  -30.0310  -20.8860   19.0400 C   0  0  0  0  0  0  0  0  0  0  0  0
  -28.4440  -22.7780   22.6140 C   0  0  0  0  0  1  0  0  0  0  0  0
  -30.6930  -20.1550   17.6180 Cl  0  0  0  0  0  0  0  0  0  0  0  0
  -29.4970  -18.5530   20.0370 C   0  0  0  0  0  2  0  0  0  0  0  0
  -30.8300  -17.8590   20.4220 C   0  0  0  0  0  2  0  0  0  0  0  0
  -30.7280  -16.7290   21.4820 C   0  0  0  0  0  2  0  0  0  0  0  0
  -30.7220  -14.5080   20.3090 C   0  0  0  0  0  0  0  0  0  0  0  0
  -30.3520  -12.4120   19.0570 C   0  0  0  0  0  2  0  0  0  0  0  0
  -29.3710  -12.6620   17.8950 C   0  0  0  0  0  2  0  0  0  0  0  0
  -27.9120  -12.5080   18.3690 C   0  0  0  0  0  2  0  0  0  0  0  0
  -27.6210  -13.3020   19.6700 C   0  0  0  0  0  3  0  0  0  0  0  0
  -28.7080  -13.0360   20.7320 C   0  0  0  0  0  2  0  0  0  0  0  0
  -30.0160  -13.3560   20.1340 N   0  0  0  0  0  0  0  0  0  0  0  0
  -31.8150  -14.7110   19.7800 O   0  0  0  0  0  0  0  0  0  0  0  0
  -30.1180  -15.4650   21.0360 N   0  0  0  0  0  0  0  0  0  0  0  0
  -29.2110  -15.2340   21.4120 H   0  0  0  0  0  0  0  0  0  0  0  0
  -25.2350  -13.8900   20.4380 C   0  0  0  0  0  0  0  0  0  0  0  0
  -24.1810  -13.1080   20.8290 C   0  0  0  0  0  0  0  0  0  0  0  0
  -24.6510  -11.7610   20.7820 C   0  0  0  0  0  0  0  0  0  0  0  0
  -26.2810  -13.0180   20.1800 N   0  0  0  0  0  0  0  0  0  0  0  0
  -25.9330  -11.7310   20.4420 N   0  0  0  0  0  0  0  0  0  0  0  0
  -23.9390  -10.4920   20.9830 C   0  0  0  0  0  0  0  0  0  0  0  0
  -24.3900   -9.5300   21.9140 C   0  0  0  0  0  3  0  0  0  0  0  0
  -23.6780   -8.3260   22.1030 C   0  0  0  0  0  3  0  0  0  0  0  0
  -22.5000   -8.0750   21.3590 C   0  0  0  0  0  0  0  0  0  0  0  0
  -22.0690   -9.0240   20.4170 C   0  0  0  0  0  3  0  0  0  0  0  0
  -22.7820  -10.2200   20.2260 C   0  0  0  0  0  3  0  0  0  0  0  0
  -21.7570   -6.9220   21.4570 O   0  0  0  0  0  0  0  0  0  0  0  0
  -21.7130   -6.1910   22.6170 C   0  0  0  0  0  0  0  0  0  0  0  0
  -21.2530   -6.7470   23.8310 C   0  0  0  0  0  3  0  0  0  0  0  0
  -21.1580   -5.9400   24.9820 C   0  0  0  0  0  3  0  0  0  0  0  0
  -21.5140   -4.5790   24.9210 C   0  0  0  0  0  0  0  0  0  0  0  0
  -21.9680   -4.0240   23.7120 C   0  0  0  0  0  3  0  0  0  0  0  0
  -22.0640   -4.8270   22.5630 C   0  0  0  0  0  0  0  0  0  0  0  0
  -22.4820   -4.2820   21.3950 F   0  0  0  0  0  0  0  0  0  0  0  0
  -21.4150   -3.8020   26.0260 F   0  0  0  0  0  0  0  0  0  0  0  0
  -22.7870  -13.5740   21.1360 C   0  0  0  0  0  0  0  0  0  0  0  0
  -22.0840  -12.8670   22.0150 N   0  0  0  0  0  0  0  0  0  0  0  0
  -22.3300  -14.5990   20.6340 O   0  0  0  0  0  0  0  0  0  0  0  0
  -22.4670  -12.0370   22.4440 H   0  0  0  0  0  0  0  0  0  0  0  0
  -21.1490  -13.1600   22.2620 H   0  0  0  0  0  0  0  0  0  0  0  0
  -25.3880  -15.2620   20.2610 N   0  0  0  0  0  0  0  0  0  0  0  0
  -24.6220  -15.9160   20.3860 H   0  0  0  0  0  0  0  0  0  0  0  0
  -26.2300  -15.7020   19.9110 H   0  0  0  0  0  0  0  0  0  0  0  0
  -29.5790  -24.4970   20.3650 C   0  0  0  0  0  2  0  0  0  0  0  0
  -28.2840  -25.2590   19.9750 C   0  0  0  0  0  2  0  0  0  0  0  0
  -28.4250  -26.6970   19.9900 O   0  0  0  0  0  0  0  0  0  0  0  0
  -24.6400  -31.8230   23.1790 C   0  0  0  0  0  0  0  0  0  0  0  0
  -27.2560  -27.4430   19.9770 C   0  0  0  0  0  0  0  0  0  0  0  0
  -23.4200  -30.4580   21.5200 C   0  0  0  0  0  3  0  0  0  0  0  0
  -24.8570  -28.9590   20.0410 C   0  0  0  0  0  0  0  0  0  0  0  0
  -25.9420  -30.8280   21.2960 C   0  0  0  0  0  2  0  0  0  0  0  0
  -26.0240  -29.4730   20.6200 C   0  0  0  0  0  0  0  0  0  0  0  0
  -27.2260  -28.7230   20.5810 C   0  0  0  0  0  3  0  0  0  0  0  0
  -26.0670  -26.9530   19.3880 C   0  0  0  0  0  3  0  0  0  0  0  0
  -24.8750  -27.6970   19.4230 C   0  0  0  0  0  3  0  0  0  0  0  0
  -23.6100  -29.8090   20.1250 C   0  0  0  0  0  2  0  0  0  0  0  0
  -24.6870  -31.0500   22.0570 N   0  0  0  0  0  0  0  0  0  0  0  0
  -23.5650  -32.0780   23.7380 O   0  0  0  0  0  0  0  0  0  0  0  0
  -22.7820  -29.4130   22.4650 C   0  0  0  0  0  0  0  0  0  0  0  0
  -21.4590  -29.2170   22.3400 N   0  0  0  0  0  0  0  0  0  0  0  0
  -23.4760  -28.7770   23.2620 O   0  0  0  0  0  0  0  0  0  0  0  0
  -20.9550  -29.7860   21.6730 H   0  0  0  0  0  0  0  0  0  0  0  0
  -18.1050  -27.9610   22.8190 C   0  0  0  0  0  0  0  0  0  0  0  0
  -20.6580  -28.2540   23.0970 C   0  0  0  0  0  3  0  0  0  0  0  0
  -20.7830  -26.8330   22.4990 C   0  0  0  0  0  2  0  0  0  0  0  0
  -19.6860  -26.5100   21.4810 C   0  0  0  0  0  2  0  0  0  0  0  0
  -18.3020  -26.6250   22.1250 C   0  0  0  0  0  2  0  0  0  0  0  0
  -19.2120  -28.7330   23.2610 C   0  0  0  0  0  0  0  0  0  0  0  0
  -18.9740  -29.9850   23.8690 C   0  0  0  0  0  3  0  0  0  0  0  0
  -17.6620  -30.4640   24.0410 C   0  0  0  0  0  3  0  0  0  0  0  0
  -16.5690  -29.6880   23.6180 C   0  0  0  0  0  3  0  0  0  0  0  0
  -16.7910  -28.4400   23.0110 C   0  0  0  0  0  3  0  0  0  0  0  0
  -25.9310  -32.4450   23.7960 C   0  0  0  0  0  3  0  0  0  0  0  0
  -25.6250  -33.8360   24.1590 N   0  0  0  0  0  0  0  0  0  0  0  0
  -25.9360  -34.9020   23.4110 C   0  0  0  0  0  0  0  0  0  0  0  0
  -26.5800  -34.8200   22.3610 O   0  0  0  0  0  0  0  0  0  0  0  0
  -25.0510  -33.9730   24.9770 H   0  0  0  0  0  0  0  0  0  0  0  0
  -24.1920  -36.6920   23.1270 C   0  0  0  0  0  1  0  0  0  0  0  0
  -25.4530  -36.2800   23.9040 C   0  0  0  0  0  3  0  0  0  0  0  0
  -27.5960  -37.1640   24.7080 C   0  0  0  0  0  1  0  0  0  0  0  0
  -26.4770  -37.3400   23.7860 N   0  0  0  0  0  0  0  0  0  0  0  0
  -26.0690  -38.2570   23.9540 H   0  0  0  0  0  0  0  0  0  0  0  0
  -26.4660  -31.6490   25.0490 C   0  0  1  0  0  0  0  0  0  0  0  0
  -25.3900  -31.3860   26.1270 C   0  0  0  0  0  1  0  0  0  0  0  0
  -27.0470  -30.2830   24.6160 C   0  0  0  0  0  1  0  0  0  0  0  0
  -27.6210  -32.4350   25.7140 C   0  0  0  0  0  1  0  0  0  0  0  0
  1  3  1  0
  2  5  1  0
  3  7  1  0
  4  1  2  0
  5 50  1  0
  5  3  2  0
  6  2  2  0
  6  4  1  0
  8  6  1  0
  9  4  1  0
  9 10  1  0
 10 11  1  0
 12 20  1  0
 13 18  1  0
 14 15  1  0
 14 13  1  0
 16 15  1  0
 16 25  1  0
 16 17  1  0
 18 12  1  0
 18 17  1  0
 19 12  2  0
 20 21  1  0
 20 11  1  0
 22 23  2  0
 23 42  1  0
 24 23  1  0
 24 27  1  0
 25 22  1  0
 25 26  1  0
 26 24  2  0
 27 28  1  0
 28 29  2  0
 30 33  1  0
 30 29  1  0
 31 30  2  0
 32 31  1  0
 32 27  2  0
 33 34  1  0
 34 35  1  0
 35 36  2  0
 37 36  1  0
 37 41  1  0
 38 37  2  0
 39 34  2  0
 39 38  1  0
 40 39  1  0
 42 43  1  0
 43 46  1  0
 43 45  1  0
 44 42  2  0
 47 48  1  0
 47 22  1  0
 49 47  1  0
 51 52  1  0
 51 50  1  0
 53 64  2  0
 54 52  1  0
 54 59  1  0
 55 63  1  0
 55 65  1  0
 56 62  1  0
 56 58  1  0
 57 63  1  0
 58 57  1  0
 59 58  2  0
 60 61  1  0
 60 54  2  0
 61 56  2  0
 62 55  1  0
 63 53  1  0
 65 67  2  0
 66 65  1  0
 68 66  1  0
 69 78  2  0
 69 74  1  0
 70 66  1  0
 70 74  1  0
 71 70  1  0
 72 73  1  0
 72 71  1  0
 73 69  1  0
 74 75  2  0
 75 76  1  0
 77 76  2  0
 78 77  1  0
 79 53  1  0
 79 80  1  0
 79 89  1  0
 80 83  1  0
 81 85  1  0
 81 80  1  0
 82 81  2  0
 85 84  1  0
 87 85  1  0
 87 88  1  0
 87 86  1  0
 89 92  1  1
 89 90  1  0
 91 89  1  0
M  ISO  4  12 100  20 100  51 101  52 101
M  END
>  <TORSDO>  (27) 
F 21

>  <SCORE>  (27) 
-13.250

>  <name>  (27) 
27

>  <ligand_id>  (27) 
27

>  <original_smiles>  (27) 
[H]c1c([H])c([H])c2c(c1[H])C([H])([H])C([H])([H])C([H])([H])C2([H])N([H])C(=O)C1([H])N(C(=O)C([H])(N([H])C(=O)C([H])(N([H])C([H])([H])[H])C([H])([H])[H])C(C([H])([H])[H])(C([H])([H])[H])C([H])([H])[H])C([H])([H])c2c([H])c(OC([H])([H])C([H])([H])c3c([H])c(Cl)c(C([H])([H])C([H])([H])C([H])([H])N([H])C(=O)N4C([H])([H])C([H])([H])C([H])([H])C([H])(n5nc(-c6c([H])c([H])c(Oc7c([H])c([H])c(F)c([H])c7F)c([H])c6[H])c(C(=O)N([H])[H])c5N([H])[H])C4([H])[H])c([H])c3C([H])([H])[H])c([H])c([H])c2C1([H])[H]

>  <smiles>  (27) 
[H]c1c([H])c([H])c2c(c1[H])C([H])([H])C([H])([H])C([H])([H])C2([H])N([H])C(=O)C1([H])N(C(=O)C([H])(N([H])C(=O)C([H])(N([H])C([H])([H])[H])C([H])([H])[H])C(C([H])([H])[H])(C([H])([H])[H])C([H])([H])[H])C([H])([H])c2c([H])c(OC([H])([H])C([H])([H])c3c([H])c(Cl)c(C([H])([H])C([H])([H])C([H])([H])N([H])C(=O)N4C([H])([H])C([H])([H])C([H])([H])C([H])(n5nc(-c6c([H])c([H])c(Oc7c([H])c([H])c(F)c([H])c7F)c([H])c6[H])c(C(=O)N([H])[H])c5N([H])[H])C4([H])[H])c([H])c3C([H])([H])[H])c([H])c([H])c2C1([H])[H]

$$$$
28:0:0
     RDKit          3D

 91 99  0  0  1  0  0  0  0  0999 V2000
  -30.4080  -19.2140   22.1170 C   0  0  0  0  0  3  0  0  0  0  0  0
  -28.7240  -20.1810   20.0940 C   0  0  0  0  0  3  0  0  0  0  0  0
  -29.7500  -20.4530   22.2890 C   0  0  0  0  0  0  0  0  0  0  0  0
  -30.2520  -18.4660   20.9310 C   0  0  0  0  0  0  0  0  0  0  0  0
  -28.9120  -20.9560   21.2590 C   0  0  0  0  0  0  0  0  0  0  0  0
  -29.3840  -18.9480   19.9240 C   0  0  0  0  0  0  0  0  0  0  0  0
  -29.9750  -21.2270   23.5750 C   0  0  0  0  0  1  0  0  0  0  0  0
  -29.1270  -18.0600   18.4620 Cl  0  0  0  0  0  0  0  0  0  0  0  0
  -31.0790  -17.2000   20.7190 C   0  0  0  0  0  2  0  0  0  0  0  0
  -30.3140  -15.8760   20.9580 C   0  0  0  0  0  2  0  0  0  0  0  0
  -31.0150  -14.6480   20.3340 C   0  0  0  0  0  0  0  0  0  0  0  0
  -30.6880  -12.4820   19.2010 C   0  0  0  0  0  2  0  0  0  0  0  0
  -29.7380  -12.6940   18.0050 C   0  0  0  0  0  2  0  0  0  0  0  0
  -28.2640  -12.5800   18.4470 C   0  0  0  0  0  2  0  0  0  0  0  0
  -27.9490  -13.4350   19.7030 C   0  0  0  0  0  3  0  0  0  0  0  0
  -29.0100  -13.2170   20.8040 C   0  0  0  0  0  2  0  0  0  0  0  0
  -30.3350  -13.4760   20.2250 N   0  0  0  0  0  0  0  0  0  0  0  0
  -32.1350  -14.8010   19.8370 O   0  0  0  0  0  0  0  0  0  0  0  0
  -25.5680  -14.0860   20.4310 C   0  0  0  0  0  0  0  0  0  0  0  0
  -24.4930  -13.3310   20.8200 C   0  0  0  0  0  0  0  0  0  0  0  0
  -24.9350  -11.9730   20.7980 C   0  0  0  0  0  0  0  0  0  0  0  0
  -26.5970  -13.1860   20.1990 N   0  0  0  0  0  0  0  0  0  0  0  0
  -26.2210  -11.9120   20.4760 N   0  0  0  0  0  0  0  0  0  0  0  0
  -24.1940  -10.7230   21.0110 C   0  0  0  0  0  0  0  0  0  0  0  0
  -24.6050   -9.7740   21.9730 C   0  0  0  0  0  3  0  0  0  0  0  0
  -23.8660   -8.5880   22.1690 C   0  0  0  0  0  3  0  0  0  0  0  0
  -22.7020   -8.3420   21.4040 C   0  0  0  0  0  0  0  0  0  0  0  0
  -22.3110   -9.2790   20.4310 C   0  0  0  0  0  3  0  0  0  0  0  0
  -23.0500  -10.4570   20.2330 C   0  0  0  0  0  3  0  0  0  0  0  0
  -21.9370   -7.2060   21.5080 O   0  0  0  0  0  0  0  0  0  0  0  0
  -21.8500   -6.5020   22.6820 C   0  0  0  0  0  0  0  0  0  0  0  0
  -21.3810   -7.0940   23.8740 C   0  0  0  0  0  3  0  0  0  0  0  0
  -21.2430   -6.3150   25.0400 C   0  0  0  0  0  3  0  0  0  0  0  0
  -21.5630   -4.9460   25.0150 C   0  0  0  0  0  0  0  0  0  0  0  0
  -22.0260   -4.3520   23.8270 C   0  0  0  0  0  3  0  0  0  0  0  0
  -22.1660   -5.1280   22.6630 C   0  0  0  0  0  0  0  0  0  0  0  0
  -22.5910   -4.5460   21.5150 F   0  0  0  0  0  0  0  0  0  0  0  0
  -21.4240   -4.1950   26.1340 F   0  0  0  0  0  0  0  0  0  0  0  0
  -23.1050  -13.8300   21.1030 C   0  0  0  0  0  0  0  0  0  0  0  0
  -22.3810  -13.1580   21.9900 N   0  0  0  0  0  0  0  0  0  0  0  0
  -22.6720  -14.8520   20.5720 O   0  0  0  0  0  0  0  0  0  0  0  0
  -22.7440  -12.3310   22.4420 H   0  0  0  0  0  0  0  0  0  0  0  0
  -21.4500  -13.4740   22.2230 H   0  0  0  0  0  0  0  0  0  0  0  0
  -25.7500  -15.4500   20.2380 N   0  0  0  0  0  0  0  0  0  0  0  0
  -24.9950  -16.1180   20.3500 H   0  0  0  0  0  0  0  0  0  0  0  0
  -26.6070  -15.8750   19.9050 H   0  0  0  0  0  0  0  0  0  0  0  0
  -28.2000  -22.3060   21.3580 C   0  0  0  0  0  2  0  0  0  0  0  0
  -29.1100  -23.5130   21.0410 C   0  0  0  0  0  2  0  0  0  0  0  0
  -28.3380  -24.7720   20.5940 C   0  0  0  0  0  2  0  0  0  0  0  0
  -29.1480  -26.0730   20.7800 C   0  0  0  0  0  2  0  0  0  0  0  0
  -28.8450  -27.0660   19.8040 O   0  0  0  0  0  0  0  0  0  0  0  0
  -24.6360  -31.7240   23.1910 C   0  0  0  0  0  0  0  0  0  0  0  0
  -27.6220  -27.6750   19.9130 C   0  0  0  0  0  0  0  0  0  0  0  0
  -23.5510  -30.3440   21.4450 C   0  0  0  0  0  3  0  0  0  0  0  0
  -25.1290  -28.9900   19.9690 C   0  0  0  0  0  0  0  0  0  0  0  0
  -26.0470  -30.8870   21.3180 C   0  0  0  0  0  2  0  0  0  0  0  0
  -26.2350  -29.5620   20.6110 C   0  0  0  0  0  0  0  0  0  0  0  0
  -27.4860  -28.9090   20.5850 C   0  0  0  0  0  3  0  0  0  0  0  0
  -26.5030  -27.1120   19.2670 C   0  0  0  0  0  3  0  0  0  0  0  0
  -25.2540  -27.7600   19.2990 C   0  0  0  0  0  3  0  0  0  0  0  0
  -23.8280  -29.7590   20.0350 C   0  0  0  0  0  2  0  0  0  0  0  0
  -24.7600  -30.9980   22.0440 N   0  0  0  0  0  0  0  0  0  0  0  0
  -23.5310  -31.8930   23.7260 O   0  0  0  0  0  0  0  0  0  0  0  0
  -22.9580  -29.2270   22.3320 C   0  0  0  0  0  0  0  0  0  0  0  0
  -21.6480  -28.9740   22.1810 N   0  0  0  0  0  0  0  0  0  0  0  0
  -23.6720  -28.5910   23.1120 O   0  0  0  0  0  0  0  0  0  0  0  0
  -21.1290  -29.5400   21.5240 H   0  0  0  0  0  0  0  0  0  0  0  0
  -18.3480  -27.5570   22.5610 C   0  0  0  0  0  0  0  0  0  0  0  0
  -20.8840  -27.9420   22.8800 C   0  0  0  0  0  3  0  0  0  0  0  0
  -21.0760  -26.5600   22.2120 C   0  0  0  0  0  2  0  0  0  0  0  0
  -20.0020  -26.2420   21.1670 C   0  0  0  0  0  2  0  0  0  0  0  0
  -18.6090  -26.2680   21.8020 C   0  0  0  0  0  2  0  0  0  0  0  0
  -19.4170  -28.3520   23.0530 C   0  0  0  0  0  0  0  0  0  0  0  0
  -19.1210  -29.5620   23.7170 C   0  0  0  0  0  3  0  0  0  0  0  0
  -17.7890  -29.9760   23.9000 C   0  0  0  0  0  3  0  0  0  0  0  0
  -16.7330  -29.1760   23.4260 C   0  0  0  0  0  3  0  0  0  0  0  0
  -17.0140  -27.9700   22.7610 C   0  0  0  0  0  3  0  0  0  0  0  0
  -25.8680  -32.4000   23.8690 C   0  0  0  0  0  3  0  0  0  0  0  0
  -25.4840  -33.7740   24.2170 N   0  0  0  0  0  0  0  0  0  0  0  0
  -25.7820  -34.8530   23.4830 C   0  0  0  0  0  0  0  0  0  0  0  0
  -26.4790  -34.8030   22.4650 O   0  0  0  0  0  0  0  0  0  0  0  0
  -24.8670  -33.8860   25.0080 H   0  0  0  0  0  0  0  0  0  0  0  0
  -23.9640  -36.5530   23.1280 C   0  0  0  0  0  1  0  0  0  0  0  0
  -25.2160  -36.2070   23.9500 C   0  0  0  0  0  3  0  0  0  0  0  0
  -27.2870  -37.1980   24.8210 C   0  0  0  0  0  1  0  0  0  0  0  0
  -26.1900  -37.3160   23.8630 N   0  0  0  0  0  0  0  0  0  0  0  0
  -25.7310  -38.2090   24.0160 H   0  0  0  0  0  0  0  0  0  0  0  0
  -26.3820  -31.6230   25.1440 C   0  0  1  0  0  0  0  0  0  0  0  0
  -25.2670  -31.3150   26.1700 C   0  0  0  0  0  1  0  0  0  0  0  0
  -27.0380  -30.2820   24.7380 C   0  0  0  0  0  1  0  0  0  0  0  0
  -27.4740  -32.4520   25.8590 C   0  0  0  0  0  1  0  0  0  0  0  0
  1  3  1  0
  2  5  1  0
  3  7  1  0
  4  1  2  0
  5 47  1  0
  5  3  2  0
  6  2  2  0
  6  4  1  0
  8  6  1  0
  9  4  1  0
  9 10  1  0
 11 10  1  0
 12 17  1  0
 13 14  1  0
 13 12  1  0
 15 14  1  0
 15 22  1  0
 15 16  1  0
 17 11  1  0
 17 16  1  0
 18 11  2  0
 19 20  2  0
 20 39  1  0
 21 20  1  0
 21 24  1  0
 22 19  1  0
 22 23  1  0
 23 21  2  0
 24 25  1  0
 25 26  2  0
 27 30  1  0
 27 26  1  0
 28 27  2  0
 29 28  1  0
 29 24  2  0
 30 31  1  0
 31 32  1  0
 32 33  2  0
 34 33  1  0
 34 38  1  0
 35 34  2  0
 36 31  2  0
 36 35  1  0
 37 36  1  0
 39 40  1  0
 40 43  1  0
 40 42  1  0
 41 39  2  0
 44 45  1  0
 44 19  1  0
 46 44  1  0
 48 47  1  0
 49 50  1  0
 49 48  1  0
 51 53  1  0
 51 50  1  0
 52 63  2  0
 53 58  1  0
 54 62  1  0
 54 64  1  0
 55 61  1  0
 55 57  1  0
 56 62  1  0
 57 56  1  0
 58 57  2  0
 59 60  1  0
 59 53  2  0
 60 55  2  0
 61 54  1  0
 62 52  1  0
 64 66  2  0
 65 64  1  0
 67 65  1  0
 68 77  2  0
 68 73  1  0
 69 65  1  0
 69 73  1  0
 70 69  1  0
 71 72  1  0
 71 70  1  0
 72 68  1  0
 73 74  2  0
 74 75  1  0
 76 75  2  0
 77 76  1  0
 78 52  1  0
 78 79  1  0
 78 88  1  0
 79 82  1  0
 80 84  1  0
 80 79  1  0
 81 80  2  0
 84 83  1  0
 86 84  1  0
 86 87  1  0
 86 85  1  0
 88 91  1  1
 88 89  1  0
 90 88  1  0
M  ISO  4  10 100  11 100  50 101  51 101
M  END
>  <TORSDO>  (28) 
F 22

>  <SCORE>  (28) 
-12.170

>  <name>  (28) 
28

>  <ligand_id>  (28) 
28

>  <original_smiles>  (28) 
[H]c1c([H])c([H])c2c(c1[H])C([H])([H])C([H])([H])C([H])([H])C2([H])N([H])C(=O)C1([H])N(C(=O)C([H])(N([H])C(=O)C([H])(N([H])C([H])([H])[H])C([H])([H])[H])C(C([H])([H])[H])(C([H])([H])[H])C([H])([H])[H])C([H])([H])c2c([H])c(OC([H])([H])C([H])([H])C([H])([H])C([H])([H])c3c([H])c(Cl)c(C([H])([H])C([H])([H])C(=O)N4C([H])([H])C([H])([H])C([H])([H])C([H])(n5nc(-c6c([H])c([H])c(Oc7c([H])c([H])c(F)c([H])c7F)c([H])c6[H])c(C(=O)N([H])[H])c5N([H])[H])C4([H])[H])c([H])c3C([H])([H])[H])c([H])c([H])c2C1([H])[H]

>  <smiles>  (28) 
[H]c1c([H])c([H])c2c(c1[H])C([H])([H])C([H])([H])C([H])([H])C2([H])N([H])C(=O)C1([H])N(C(=O)C([H])(N([H])C(=O)C([H])(N([H])C([H])([H])[H])C([H])([H])[H])C(C([H])([H])[H])(C([H])([H])[H])C([H])([H])[H])C([H])([H])c2c([H])c(OC([H])([H])C([H])([H])C([H])([H])C([H])([H])c3c([H])c(Cl)c(C([H])([H])C([H])([H])C(=O)N4C([H])([H])C([H])([H])C([H])([H])C([H])(n5nc(-c6c([H])c([H])c(Oc7c([H])c([H])c(F)c([H])c7F)c([H])c6[H])c(C(=O)N([H])[H])c5N([H])[H])C4([H])[H])c([H])c3C([H])([H])[H])c([H])c([H])c2C1([H])[H]

$$$$
29:0:0
     RDKit          3D

 87 95  0  0  1  0  0  0  0  0999 V2000
  -29.0390  -22.9300   21.7820 C   0  0  0  0  0  3  0  0  0  0  0  0
  -29.5910  -22.3050   22.8910 C   0  0  0  0  0  3  0  0  0  0  0  0
  -29.9470  -20.3570   21.7410 C   0  0  0  0  0  3  0  0  0  0  0  0
  -28.8630  -22.3420   20.5070 C   0  0  0  0  0  0  0  0  0  0  0  0
  -29.3910  -20.7290   20.4910 C   0  0  0  0  0  0  0  0  0  0  0  0
  -30.0450  -21.0580   22.8760 N   0  0  0  0  0  0  0  0  0  0  0  0
  -29.6970  -19.0920   19.6220 C   0  0  0  0  0  2  0  0  0  0  0  0
  -30.5490  -15.9520   19.8740 C   0  0  0  0  0  0  0  0  0  0  0  0
  -30.6470  -13.3740   19.1230 C   0  0  0  0  0  2  0  0  0  0  0  0
  -29.7200  -12.9460   17.9470 C   0  0  0  0  0  2  0  0  0  0  0  0
  -28.3230  -12.5730   18.4610 C   0  0  0  0  0  2  0  0  0  0  0  0
  -27.8440  -13.5790   19.5330 C   0  0  0  0  0  3  0  0  0  0  0  0
  -28.9110  -13.9310   20.6020 C   0  0  0  0  0  2  0  0  0  0  0  0
  -30.0490  -14.5660   19.8910 N   0  0  0  0  0  0  0  0  0  0  0  0
  -31.7580  -15.8930   19.5710 O   0  0  0  0  0  0  0  0  0  0  0  0
  -29.7790  -17.3210   20.0140 N   0  0  0  0  0  0  0  0  0  0  0  0
  -28.8710  -17.0600   20.3720 H   0  0  0  0  0  0  0  0  0  0  0  0
  -25.5310  -14.0930   20.4400 C   0  0  0  0  0  0  0  0  0  0  0  0
  -24.4890  -13.3080   20.8400 C   0  0  0  0  0  0  0  0  0  0  0  0
  -24.9480  -11.9570   20.7360 C   0  0  0  0  0  0  0  0  0  0  0  0
  -26.5550  -13.2270   20.1110 N   0  0  0  0  0  0  0  0  0  0  0  0
  -26.2220  -11.9310   20.3540 N   0  0  0  0  0  0  0  0  0  0  0  0
  -24.2200  -10.6930   20.9230 C   0  0  0  0  0  0  0  0  0  0  0  0
  -24.6270   -9.7410   21.8830 C   0  0  0  0  0  3  0  0  0  0  0  0
  -23.8970   -8.5460   22.0610 C   0  0  0  0  0  3  0  0  0  0  0  0
  -22.7450   -8.2940   21.2790 C   0  0  0  0  0  0  0  0  0  0  0  0
  -22.3560   -9.2350   20.3100 C   0  0  0  0  0  3  0  0  0  0  0  0
  -23.0860  -10.4220   20.1300 C   0  0  0  0  0  3  0  0  0  0  0  0
  -21.9890   -7.1500   21.3650 O   0  0  0  0  0  0  0  0  0  0  0  0
  -21.8250   -6.4820   22.5520 C   0  0  0  0  0  0  0  0  0  0  0  0
  -21.2380   -7.0980   23.6780 C   0  0  0  0  0  3  0  0  0  0  0  0
  -21.0230   -6.3540   24.8560 C   0  0  0  0  0  3  0  0  0  0  0  0
  -21.3860   -4.9960   24.9070 C   0  0  0  0  0  0  0  0  0  0  0  0
  -21.9650   -4.3790   23.7850 C   0  0  0  0  0  3  0  0  0  0  0  0
  -22.1820   -5.1190   22.6100 C   0  0  0  0  0  0  0  0  0  0  0  0
  -22.7210   -4.5140   21.5240 F   0  0  0  0  0  0  0  0  0  0  0  0
  -21.1740   -4.2810   26.0360 F   0  0  0  0  0  0  0  0  0  0  0  0
  -23.1130  -13.7830   21.1970 C   0  0  0  0  0  0  0  0  0  0  0  0
  -22.4340  -13.0800   22.0920 N   0  0  0  0  0  0  0  0  0  0  0  0
  -22.6510  -14.8160   20.7110 O   0  0  0  0  0  0  0  0  0  0  0  0
  -22.8240  -12.2450   22.5070 H   0  0  0  0  0  0  0  0  0  0  0  0
  -21.5110  -13.3810   22.3730 H   0  0  0  0  0  0  0  0  0  0  0  0
  -25.6920  -15.4680   20.2990 N   0  0  0  0  0  0  0  0  0  0  0  0
  -24.9290  -16.1190   20.4510 H   0  0  0  0  0  0  0  0  0  0  0  0
  -26.5120  -15.9100   19.9010 H   0  0  0  0  0  0  0  0  0  0  0  0
  -28.0470  -23.8280   19.7210 C   0  0  0  0  0  2  0  0  0  0  0  0
  -28.0880  -25.5940   20.0060 O   0  0  0  0  0  0  0  0  0  0  0  0
  -24.6830  -31.9030   23.0550 C   0  0  0  0  0  0  0  0  0  0  0  0
  -27.1170  -26.8220   19.9350 C   0  0  0  0  0  0  0  0  0  0  0  0
  -23.4380  -30.4970   21.4700 C   0  0  0  0  0  3  0  0  0  0  0  0
  -24.8350  -28.8590   19.9830 C   0  0  0  0  0  0  0  0  0  0  0  0
  -26.0090  -30.6480   21.2410 C   0  0  0  0  0  2  0  0  0  0  0  0
  -26.0530  -29.2160   20.5710 C   0  0  0  0  0  0  0  0  0  0  0  0
  -27.1730  -28.2250   20.5160 C   0  0  0  0  0  3  0  0  0  0  0  0
  -25.8650  -26.6890   19.2800 C   0  0  0  0  0  3  0  0  0  0  0  0
  -24.7810  -27.6250   19.3090 C   0  0  0  0  0  3  0  0  0  0  0  0
  -23.6230  -29.8030   20.0880 C   0  0  0  0  0  2  0  0  0  0  0  0
  -24.7370  -31.0510   21.9720 N   0  0  0  0  0  0  0  0  0  0  0  0
  -23.6090  -32.1950   23.6090 O   0  0  0  0  0  0  0  0  0  0  0  0
  -22.7690  -29.5150   22.4710 C   0  0  0  0  0  0  0  0  0  0  0  0
  -21.4430  -29.3000   22.3580 N   0  0  0  0  0  0  0  0  0  0  0  0
  -23.4550  -28.9460   23.3220 O   0  0  0  0  0  0  0  0  0  0  0  0
  -20.9380  -29.8130   21.6490 H   0  0  0  0  0  0  0  0  0  0  0  0
  -18.1360  -27.8690   22.8480 C   0  0  0  0  0  0  0  0  0  0  0  0
  -20.6610  -28.3470   23.1570 C   0  0  0  0  0  3  0  0  0  0  0  0
  -20.8840  -26.8980   22.6650 C   0  0  0  0  0  2  0  0  0  0  0  0
  -19.8400  -26.4400   21.6420 C   0  0  0  0  0  2  0  0  0  0  0  0
  -18.4330  -26.5070   22.2430 C   0  0  0  0  0  2  0  0  0  0  0  0
  -19.1810  -28.7390   23.2610 C   0  0  0  0  0  0  0  0  0  0  0  0
  -18.8460  -30.0040   23.7910 C   0  0  0  0  0  3  0  0  0  0  0  0
  -17.5010  -30.4050   23.9080 C   0  0  0  0  0  3  0  0  0  0  0  0
  -16.4720  -29.5350   23.5070 C   0  0  0  0  0  3  0  0  0  0  0  0
  -16.7910  -28.2690   22.9840 C   0  0  0  0  0  3  0  0  0  0  0  0
  -25.9640  -32.5650   23.6450 C   0  0  0  0  0  3  0  0  0  0  0  0
  -25.6270  -33.9460   24.0480 N   0  0  0  0  0  0  0  0  0  0  0  0
  -25.9320  -35.0510   23.3550 C   0  0  0  0  0  0  0  0  0  0  0  0
  -26.5850  -35.0180   22.3100 O   0  0  0  0  0  0  0  0  0  0  0  0
  -25.0390  -34.0420   24.8630 H   0  0  0  0  0  0  0  0  0  0  0  0
  -24.1810  -36.8540   23.1480 C   0  0  0  0  0  1  0  0  0  0  0  0
  -25.4430  -36.4080   23.9050 C   0  0  0  0  0  3  0  0  0  0  0  0
  -27.5800  -37.2800   24.7500 C   0  0  0  0  0  1  0  0  0  0  0  0
  -26.4620  -37.4800   23.8330 N   0  0  0  0  0  0  0  0  0  0  0  0
  -26.0470  -38.3880   24.0300 H   0  0  0  0  0  0  0  0  0  0  0  0
  -26.5480  -31.7790   24.8850 C   0  0  1  0  0  0  0  0  0  0  0  0
  -25.5030  -31.4730   25.9840 C   0  0  0  0  0  1  0  0  0  0  0  0
  -27.1670  -30.4330   24.4470 C   0  0  0  0  0  1  0  0  0  0  0  0
  -27.6910  -32.5970   25.5300 C   0  0  0  0  0  1  0  0  0  0  0  0
  1  2  1  0
  3  6  1  0
  4  1  2  0
  5  4  1  0
  5  3  2  0
  6  2  2  0
  7 16  1  0
  7  5  1  0
  8 14  1  0
  8 16  1  0
  9 14  1  0
 10 11  1  0
 10  9  1  0
 12 11  1  0
 12 21  1  0
 12 13  1  0
 14 13  1  0
 15  8  2  0
 16 17  1  0
 18 19  2  0
 19 38  1  0
 20 19  1  0
 20 23  1  0
 21 22  1  0
 21 18  1  0
 22 20  2  0
 23 24  1  0
 24 25  2  0
 26 29  1  0
 26 25  1  0
 27 26  2  0
 28 27  1  0
 28 23  2  0
 29 30  1  0
 30 35  2  0
 30 31  1  0
 31 32  2  0
 32 33  1  0
 33 37  1  0
 34 33  2  0
 35 34  1  0
 36 35  1  0
 38 39  1  0
 39 42  1  0
 39 41  1  0
 40 38  2  0
 43 18  1  0
 43 44  1  0
 45 43  1  0
 46 47  1  0
 46  4  1  0
 48 59  2  0
 49 47  1  0
 49 54  1  0
 50 58  1  0
 50 60  1  0
 51 57  1  0
 51 53  1  0
 52 58  1  0
 53 52  1  0
 54 53  2  0
 55 56  1  0
 55 49  2  0
 56 51  2  0
 57 50  1  0
 58 48  1  0
 60 62  2  0
 61 60  1  0
 63 61  1  0
 64 73  2  0
 64 69  1  0
 65 61  1  0
 65 69  1  0
 66 65  1  0
 67 68  1  0
 67 66  1  0
 68 64  1  0
 69 70  2  0
 70 71  1  0
 72 71  2  0
 73 72  1  0
 74 48  1  0
 74 75  1  0
 74 84  1  0
 75 78  1  0
 76 80  1  0
 76 75  1  0
 77 76  2  0
 80 79  1  0
 82 80  1  0
 82 83  1  0
 82 81  1  0
 84 87  1  1
 84 85  1  0
 86 84  1  0
M  ISO  4   8 100  16 100  46 101  47 101
M  END
>  <TORSDO>  (29) 
F 18

>  <SCORE>  (29) 
-16.055

>  <name>  (29) 
29

>  <ligand_id>  (29) 
29

>  <original_smiles>  (29) 
[H]c1nc([H])c(C([H])([H])N([H])C(=O)N2C([H])([H])C([H])([H])C([H])([H])C([H])(n3nc(-c4c([H])c([H])c(Oc5c([H])c([H])c(F)c([H])c5F)c([H])c4[H])c(C(=O)N([H])[H])c3N([H])[H])C2([H])[H])c(C([H])([H])Oc2c([H])c([H])c3c(c2[H])C([H])([H])N(C(=O)C([H])(N([H])C(=O)C([H])(N([H])C([H])([H])[H])C([H])([H])[H])C(C([H])([H])[H])(C([H])([H])[H])C([H])([H])[H])C([H])(C(=O)N([H])C2([H])c4c([H])c([H])c([H])c([H])c4C([H])([H])C([H])([H])C2([H])[H])C3([H])[H])c1[H]

>  <smiles>  (29) 
[H]c1nc([H])c(C([H])([H])N([H])C(=O)N2C([H])([H])C([H])([H])C([H])([H])C([H])(n3nc(-c4c([H])c([H])c(Oc5c([H])c([H])c(F)c([H])c5F)c([H])c4[H])c(C(=O)N([H])[H])c3N([H])[H])C2([H])[H])c(C([H])([H])Oc2c([H])c([H])c3c(c2[H])C([H])([H])N(C(=O)C([H])(N([H])C(=O)C([H])(N([H])C([H])([H])[H])C([H])([H])[H])C(C([H])([H])[H])(C([H])([H])[H])C([H])([H])[H])C([H])(C(=O)N([H])C2([H])c4c([H])c([H])c([H])c([H])c4C([H])([H])C([H])([H])C2([H])[H])C3([H])[H])c1[H]

$$$$
30:0:0
     RDKit          3D

 92100  0  0  1  0  0  0  0  0999 V2000
  -29.2100  -21.5070   21.2690 C   0  0  0  0  0  3  0  0  0  0  0  0
  -27.2110  -21.0860   19.4410 C   0  0  0  0  0  3  0  0  0  0  0  0
  -29.2110  -20.2910   20.5600 C   0  0  0  0  0  0  0  0  0  0  0  0
  -28.1880  -20.0840   19.6030 C   0  0  0  0  0  0  0  0  0  0  0  0
  -28.2030  -22.4520   21.0200 C   0  0  0  0  0  0  0  0  0  0  0  0
  -27.2080  -22.2490   20.1320 N   0  0  0  0  0  0  0  0  0  0  0  0
  -28.1370  -18.9670   18.8390 F   0  0  0  0  0  0  0  0  0  0  0  0
  -30.3290  -19.2920   20.8280 C   0  0  0  0  0  2  0  0  0  0  0  0
  -29.8940  -17.8250   20.9750 C   0  0  0  0  0  2  0  0  0  0  0  0
  -31.0740  -16.9020   21.3130 C   0  0  0  0  0  2  0  0  0  0  0  0
  -31.2460  -14.5490   20.5390 C   0  0  0  0  0  0  0  0  0  0  0  0
  -30.8690  -12.4240   19.3560 C   0  0  0  0  0  2  0  0  0  0  0  0
  -29.9620  -12.6720   18.1330 C   0  0  0  0  0  2  0  0  0  0  0  0
  -28.4760  -12.5930   18.5310 C   0  0  0  0  0  2  0  0  0  0  0  0
  -28.1480  -13.4540   19.7800 C   0  0  0  0  0  3  0  0  0  0  0  0
  -29.1610  -13.1820   20.9140 C   0  0  0  0  0  2  0  0  0  0  0  0
  -30.5190  -13.4140   20.3830 N   0  0  0  0  0  0  0  0  0  0  0  0
  -32.3340  -14.7410   19.9850 O   0  0  0  0  0  0  0  0  0  0  0  0
  -30.6550  -15.5030   21.2670 N   0  0  0  0  0  0  0  0  0  0  0  0
  -29.7760  -15.2610   21.6990 H   0  0  0  0  0  0  0  0  0  0  0  0
  -25.7670  -14.1760   20.4470 C   0  0  0  0  0  0  0  0  0  0  0  0
  -24.6520  -13.4540   20.7820 C   0  0  0  0  0  0  0  0  0  0  0  0
  -25.0470  -12.0800   20.7410 C   0  0  0  0  0  0  0  0  0  0  0  0
  -26.7710  -13.2460   20.2250 N   0  0  0  0  0  0  0  0  0  0  0  0
  -26.3370  -11.9800   20.4550 N   0  0  0  0  0  0  0  0  0  0  0  0
  -24.2550  -10.8540   20.9040 C   0  0  0  0  0  0  0  0  0  0  0  0
  -24.6270   -9.8530   21.8290 C   0  0  0  0  0  3  0  0  0  0  0  0
  -23.8430   -8.6900   21.9790 C   0  0  0  0  0  3  0  0  0  0  0  0
  -22.6730   -8.5180   21.2020 C   0  0  0  0  0  0  0  0  0  0  0  0
  -22.3180   -9.5080   20.2690 C   0  0  0  0  0  3  0  0  0  0  0  0
  -23.1030  -10.6630   20.1160 C   0  0  0  0  0  3  0  0  0  0  0  0
  -21.8640   -7.4090   21.2610 O   0  0  0  0  0  0  0  0  0  0  0  0
  -21.7580   -6.6540   22.4020 C   0  0  0  0  0  0  0  0  0  0  0  0
  -21.3430   -7.2140   23.6300 C   0  0  0  0  0  3  0  0  0  0  0  0
  -21.1800   -6.3890   24.7600 C   0  0  0  0  0  3  0  0  0  0  0  0
  -21.4240   -5.0050   24.6640 C   0  0  0  0  0  0  0  0  0  0  0  0
  -21.8340   -4.4460   23.4420 C   0  0  0  0  0  3  0  0  0  0  0  0
  -21.9990   -5.2680   22.3130 C   0  0  0  0  0  0  0  0  0  0  0  0
  -22.3730   -4.7200   21.1320 F   0  0  0  0  0  0  0  0  0  0  0  0
  -21.2620   -4.2110   25.7480 F   0  0  0  0  0  0  0  0  0  0  0  0
  -23.2770  -13.9970   21.0360 C   0  0  0  0  0  0  0  0  0  0  0  0
  -22.5040  -13.3350   21.8910 N   0  0  0  0  0  0  0  0  0  0  0  0
  -22.8950  -15.0420   20.5140 O   0  0  0  0  0  0  0  0  0  0  0  0
  -22.8220  -12.4890   22.3390 H   0  0  0  0  0  0  0  0  0  0  0  0
  -21.5800  -13.6830   22.1050 H   0  0  0  0  0  0  0  0  0  0  0  0
  -26.0080  -15.5390   20.3040 N   0  0  0  0  0  0  0  0  0  0  0  0
  -25.2850  -16.2350   20.4510 H   0  0  0  0  0  0  0  0  0  0  0  0
  -26.9070  -15.9450   20.0800 H   0  0  0  0  0  0  0  0  0  0  0  0
  -28.2630  -23.8150   21.6730 C   0  0  0  0  0  2  0  0  0  0  0  0
  -28.5620  -24.8850   20.6180 C   0  0  0  0  0  2  0  0  0  0  0  0
  -28.9400  -26.2440   21.2100 C   0  0  0  0  0  2  0  0  0  0  0  0
  -28.8490  -27.2280   20.1840 O   0  0  0  0  0  0  0  0  0  0  0  0
  -24.6420  -31.9890   23.3370 C   0  0  0  0  0  0  0  0  0  0  0  0
  -27.6470  -27.8800   20.1740 C   0  0  0  0  0  0  0  0  0  0  0  0
  -23.5770  -30.6050   21.5800 C   0  0  0  0  0  3  0  0  0  0  0  0
  -25.1690  -29.2160   20.1510 C   0  0  0  0  0  0  0  0  0  0  0  0
  -26.0790  -31.1160   21.5040 C   0  0  0  0  0  2  0  0  0  0  0  0
  -26.2650  -29.7830   20.8130 C   0  0  0  0  0  0  0  0  0  0  0  0
  -27.5060  -29.1190   20.8310 C   0  0  0  0  0  3  0  0  0  0  0  0
  -26.5440  -27.3170   19.5030 C   0  0  0  0  0  3  0  0  0  0  0  0
  -25.3000  -27.9770   19.4970 C   0  0  0  0  0  3  0  0  0  0  0  0
  -23.8760  -29.9990   20.1810 C   0  0  0  0  0  2  0  0  0  0  0  0
  -24.7800  -31.2480   22.2010 N   0  0  0  0  0  0  0  0  0  0  0  0
  -23.5280  -32.1810   23.8440 O   0  0  0  0  0  0  0  0  0  0  0  0
  -22.9430  -29.5080   22.4660 C   0  0  0  0  0  0  0  0  0  0  0  0
  -21.6270  -29.3000   22.3050 N   0  0  0  0  0  0  0  0  0  0  0  0
  -23.6330  -28.8490   23.2490 O   0  0  0  0  0  0  0  0  0  0  0  0
  -21.1340  -29.8840   21.6450 H   0  0  0  0  0  0  0  0  0  0  0  0
  -18.2660  -28.0600   22.7390 C   0  0  0  0  0  0  0  0  0  0  0  0
  -20.8240  -28.2970   23.0040 C   0  0  0  0  0  3  0  0  0  0  0  0
  -20.9190  -26.9200   22.3070 C   0  0  0  0  0  2  0  0  0  0  0  0
  -19.8110  -26.6910   21.2750 C   0  0  0  0  0  2  0  0  0  0  0  0
  -18.4350  -26.7790   21.9400 C   0  0  0  0  0  2  0  0  0  0  0  0
  -19.3870  -28.7830   23.2230 C   0  0  0  0  0  0  0  0  0  0  0  0
  -19.1760  -29.9890   23.9260 C   0  0  0  0  0  3  0  0  0  0  0  0
  -17.8730  -30.4730   24.1490 C   0  0  0  0  0  3  0  0  0  0  0  0
  -16.7630  -29.7430   23.6860 C   0  0  0  0  0  3  0  0  0  0  0  0
  -16.9620  -28.5390   22.9870 C   0  0  0  0  0  3  0  0  0  0  0  0
  -25.8690  -32.6490   24.0390 C   0  0  0  0  0  3  0  0  0  0  0  0
  -25.5240  -34.0500   24.3090 N   0  0  0  0  0  0  0  0  0  0  0  0
  -25.8890  -35.0840   23.5400 C   0  0  0  0  0  0  0  0  0  0  0  0
  -26.6260  -34.9630   22.5570 O   0  0  0  0  0  0  0  0  0  0  0  0
  -24.8790  -34.2190   25.0690 H   0  0  0  0  0  0  0  0  0  0  0  0
  -24.1500  -36.8270   23.0300 C   0  0  0  0  0  1  0  0  0  0  0  0
  -25.3510  -36.4770   23.9220 C   0  0  0  0  0  3  0  0  0  0  0  0
  -27.4220  -37.4270   24.8350 C   0  0  0  0  0  1  0  0  0  0  0  0
  -26.3680  -37.5460   23.8310 N   0  0  0  0  0  0  0  0  0  0  0  0
  -25.9390  -38.4620   23.9300 H   0  0  0  0  0  0  0  0  0  0  0  0
  -26.2990  -31.9130   25.3660 C   0  0  1  0  0  0  0  0  0  0  0  0
  -25.1280  -31.6630   26.3460 C   0  0  0  0  0  1  0  0  0  0  0  0
  -26.9480  -30.5450   25.0450 C   0  0  0  0  0  1  0  0  0  0  0  0
  -27.3710  -32.7470   26.1070 C   0  0  0  0  0  1  0  0  0  0  0  0
  2  4  2  0
  2  6  1  0
  3  8  1  0
  3  1  2  0
  4  3  1  0
  5  1  1  0
  5 49  1  0
  6  5  2  0
  7  4  1  0
  8  9  1  0
  9 10  1  0
 11 19  1  0
 12 17  1  0
 13 14  1  0
 13 12  1  0
 15 14  1  0
 15 24  1  0
 15 16  1  0
 17 11  1  0
 17 16  1  0
 18 11  2  0
 19 10  1  0
 19 20  1  0
 21 22  2  0
 22 41  1  0
 23 22  1  0
 23 26  1  0
 24 21  1  0
 24 25  1  0
 25 23  2  0
 26 27  1  0
 27 28  2  0
 29 32  1  0
 29 28  1  0
 30 29  2  0
 31 30  1  0
 31 26  2  0
 32 33  1  0
 33 34  1  0
 34 35  2  0
 36 35  1  0
 36 40  1  0
 37 36  2  0
 38 33  2  0
 38 37  1  0
 39 38  1  0
 41 42  1  0
 42 45  1  0
 42 44  1  0
 43 41  2  0
 46 21  1  0
 46 47  1  0
 48 46  1  0
 50 51  1  0
 50 49  1  0
 52 51  1  0
 53 64  2  0
 54 52  1  0
 54 59  1  0
 55 63  1  0
 55 65  1  0
 56 62  1  0
 56 58  1  0
 57 63  1  0
 58 59  2  0
 58 57  1  0
 60 54  2  0
 61 60  1  0
 61 56  2  0
 62 55  1  0
 63 53  1  0
 65 67  2  0
 66 65  1  0
 68 66  1  0
 69 78  2  0
 69 74  1  0
 70 66  1  0
 70 74  1  0
 71 70  1  0
 72 73  1  0
 72 71  1  0
 73 69  1  0
 74 75  2  0
 75 76  1  0
 77 76  2  0
 78 77  1  0
 79 53  1  0
 79 80  1  0
 79 89  1  0
 80 83  1  0
 81 85  1  0
 81 80  1  0
 82 81  2  0
 85 84  1  0
 87 85  1  0
 87 88  1  0
 87 86  1  0
 89 92  1  1
 89 90  1  0
 91 89  1  0
M  ISO  4  11 100  19 100  51 101  52 101
M  END
>  <TORSDO>  (30) 
F 22

>  <SCORE>  (30) 
-12.799

>  <name>  (30) 
30

>  <ligand_id>  (30) 
30

>  <original_smiles>  (30) 
[H]c1nc(C([H])([H])C([H])([H])C([H])([H])Oc2c([H])c([H])c3c(c2[H])C([H])([H])N(C(=O)C([H])(N([H])C(=O)C([H])(N([H])C([H])([H])[H])C([H])([H])[H])C(C([H])([H])[H])(C([H])([H])[H])C([H])([H])[H])C([H])(C(=O)N([H])C2([H])c4c([H])c([H])c([H])c([H])c4C([H])([H])C([H])([H])C2([H])[H])C3([H])[H])c([H])c(C([H])([H])C([H])([H])C([H])([H])N([H])C(=O)N2C([H])([H])C([H])([H])C([H])([H])C([H])(n3nc(-c4c([H])c([H])c(Oc5c([H])c([H])c(F)c([H])c5F)c([H])c4[H])c(C(=O)N([H])[H])c3N([H])[H])C2([H])[H])c1F

>  <smiles>  (30) 
[H]c1nc(C([H])([H])C([H])([H])C([H])([H])Oc2c([H])c([H])c3c(c2[H])C([H])([H])N(C(=O)C([H])(N([H])C(=O)C([H])(N([H])C([H])([H])[H])C([H])([H])[H])C(C([H])([H])[H])(C([H])([H])[H])C([H])([H])[H])C([H])(C(=O)N([H])C2([H])c4c([H])c([H])c([H])c([H])c4C([H])([H])C([H])([H])C2([H])[H])C3([H])[H])c([H])c(C([H])([H])C([H])([H])C([H])([H])N([H])C(=O)N2C([H])([H])C([H])([H])C([H])([H])C([H])(n3nc(-c4c([H])c([H])c(Oc5c([H])c([H])c(F)c([H])c5F)c([H])c4[H])c(C(=O)N([H])[H])c3N([H])[H])C2([H])[H])c1F

$$$$
31:0:0
     RDKit          3D

 93101  0  0  1  0  0  0  0  0999 V2000
  -30.7960  -20.3490   17.0490 C   0  0  0  0  0  3  0  0  0  0  0  0
  -30.1830  -19.9110   19.7440 C   0  0  0  0  0  3  0  0  0  0  0  0
  -30.7790  -21.4440   17.9330 C   0  0  0  0  0  0  0  0  0  0  0  0
  -30.5180  -19.0420   17.4920 C   0  0  0  0  0  0  0  0  0  0  0  0
  -30.4660  -21.2320   19.3020 C   0  0  0  0  0  0  0  0  0  0  0  0
  -30.2060  -18.8020   18.8570 C   0  0  0  0  0  0  0  0  0  0  0  0
  -31.1090  -22.8170   17.3650 C   0  0  0  0  0  1  0  0  0  0  0  0
  -30.5630  -17.9190   16.4650 C   0  0  0  0  0  1  0  0  0  0  0  0
  -30.4930  -22.3900   20.3120 C   0  0  0  0  0  2  0  0  0  0  0  0
  -29.3510  -23.4320   20.1810 C   0  0  0  0  0  2  0  0  0  0  0  0
  -29.5010  -24.6210   21.1590 C   0  0  0  0  0  2  0  0  0  0  0  0
  -28.3200  -25.6190   21.1870 C   0  0  0  0  0  2  0  0  0  0  0  0
  -28.4190  -26.6820   20.2310 O   0  0  0  0  0  0  0  0  0  0  0  0
  -24.5770  -31.8770   23.2300 C   0  0  0  0  0  0  0  0  0  0  0  0
  -27.2760  -27.4490   20.1910 C   0  0  0  0  0  0  0  0  0  0  0  0
  -23.3970  -30.4730   21.5700 C   0  0  0  0  0  3  0  0  0  0  0  0
  -24.8770  -28.9420   20.1620 C   0  0  0  0  0  0  0  0  0  0  0  0
  -25.9240  -30.8430   21.4060 C   0  0  0  0  0  2  0  0  0  0  0  0
  -26.0250  -29.4730   20.7650 C   0  0  0  0  0  0  0  0  0  0  0  0
  -27.2310  -28.7340   20.7770 C   0  0  0  0  0  3  0  0  0  0  0  0
  -26.1160  -26.9320   19.5780 C   0  0  0  0  0  3  0  0  0  0  0  0
  -24.9170  -27.6700   19.5640 C   0  0  0  0  0  3  0  0  0  0  0  0
  -23.6260  -29.7930   20.1950 C   0  0  0  0  0  2  0  0  0  0  0  0
  -24.6500  -31.0780   22.1280 N   0  0  0  0  0  0  0  0  0  0  0  0
  -23.4880  -32.1470   23.7550 O   0  0  0  0  0  0  0  0  0  0  0  0
  -22.7380  -29.4500   22.5220 C   0  0  0  0  0  0  0  0  0  0  0  0
  -21.4150  -29.2670   22.3800 N   0  0  0  0  0  0  0  0  0  0  0  0
  -23.4120  -28.8240   23.3440 O   0  0  0  0  0  0  0  0  0  0  0  0
  -20.9320  -29.8210   21.6860 H   0  0  0  0  0  0  0  0  0  0  0  0
  -18.0330  -28.0830   22.8460 C   0  0  0  0  0  0  0  0  0  0  0  0
  -20.5890  -28.3290   23.1400 C   0  0  0  0  0  3  0  0  0  0  0  0
  -20.6920  -26.9000   22.5560 C   0  0  0  0  0  2  0  0  0  0  0  0
  -19.5970  -26.5880   21.5320 C   0  0  0  0  0  2  0  0  0  0  0  0
  -18.2100  -26.7360   22.1660 C   0  0  0  0  0  2  0  0  0  0  0  0
  -19.1510  -28.8380   23.2890 C   0  0  0  0  0  0  0  0  0  0  0  0
  -18.9330  -30.1000   23.8840 C   0  0  0  0  0  3  0  0  0  0  0  0
  -17.6290  -30.6060   24.0410 C   0  0  0  0  0  3  0  0  0  0  0  0
  -16.5250  -29.8470   23.6150 C   0  0  0  0  0  3  0  0  0  0  0  0
  -16.7280  -28.5880   23.0230 C   0  0  0  0  0  3  0  0  0  0  0  0
  -25.8530  -32.5120   23.8670 C   0  0  0  0  0  3  0  0  0  0  0  0
  -25.5400  -33.9110   24.1870 N   0  0  0  0  0  0  0  0  0  0  0  0
  -25.8840  -34.9600   23.4280 C   0  0  0  0  0  0  0  0  0  0  0  0
  -26.5710  -34.8520   22.4080 O   0  0  0  0  0  0  0  0  0  0  0  0
  -24.9310  -34.0680   24.9770 H   0  0  0  0  0  0  0  0  0  0  0  0
  -24.1640  -36.7500   23.0310 C   0  0  0  0  0  1  0  0  0  0  0  0
  -25.3870  -36.3490   23.8700 C   0  0  0  0  0  3  0  0  0  0  0  0
  -27.5050  -37.2340   24.7430 C   0  0  0  0  0  1  0  0  0  0  0  0
  -26.4230  -37.4010   23.7760 N   0  0  0  0  0  0  0  0  0  0  0  0
  -26.0170  -38.3220   23.9120 H   0  0  0  0  0  0  0  0  0  0  0  0
  -26.3540  -31.7430   25.1500 C   0  0  1  0  0  0  0  0  0  0  0  0
  -25.2480  -31.5050   26.2040 C   0  0  0  0  0  1  0  0  0  0  0  0
  -26.9460  -30.3670   24.7660 C   0  0  0  0  0  1  0  0  0  0  0  0
  -27.4960  -32.5410   25.8250 C   0  0  0  0  0  1  0  0  0  0  0  0
  -29.8470  -17.3730   19.3160 C   0  0  0  0  0  2  0  0  0  0  0  0
  -30.2590  -16.9280   20.7410 C   0  0  0  0  0  2  0  0  0  0  0  0
  -30.6680  -14.4710   20.4890 C   0  0  0  0  0  0  0  0  0  0  0  0
  -30.3630  -12.3220   19.3330 C   0  0  0  0  0  2  0  0  0  0  0  0
  -29.4330  -12.5540   18.1250 C   0  0  0  0  0  2  0  0  0  0  0  0
  -27.9550  -12.4280   18.5430 C   0  0  0  0  0  2  0  0  0  0  0  0
  -27.6180  -13.2580   19.8110 C   0  0  0  0  0  3  0  0  0  0  0  0
  -28.6630  -13.0100   20.9230 C   0  0  0  0  0  2  0  0  0  0  0  0
  -29.9940  -13.2980   20.3680 N   0  0  0  0  0  0  0  0  0  0  0  0
  -31.8000  -14.6500   20.0330 O   0  0  0  0  0  0  0  0  0  0  0  0
  -29.9410  -15.5040   20.9500 N   0  0  0  0  0  0  0  0  0  0  0  0
  -29.0190  -15.2850   21.2980 H   0  0  0  0  0  0  0  0  0  0  0  0
  -25.2170  -13.8790   20.4990 C   0  0  0  0  0  0  0  0  0  0  0  0
  -24.1430  -13.1090   20.8620 C   0  0  0  0  0  0  0  0  0  0  0  0
  -24.6010  -11.7560   20.8410 C   0  0  0  0  0  0  0  0  0  0  0  0
  -26.2590  -12.9920   20.2790 N   0  0  0  0  0  0  0  0  0  0  0  0
  -25.8930  -11.7120   20.5430 N   0  0  0  0  0  0  0  0  0  0  0  0
  -23.8710  -10.4960   21.0300 C   0  0  0  0  0  0  0  0  0  0  0  0
  -24.2900   -9.5300   21.9710 C   0  0  0  0  0  3  0  0  0  0  0  0
  -23.5590   -8.3360   22.1470 C   0  0  0  0  0  3  0  0  0  0  0  0
  -22.3940   -8.0990   21.3780 C   0  0  0  0  0  0  0  0  0  0  0  0
  -21.9950   -9.0520   20.4230 C   0  0  0  0  0  3  0  0  0  0  0  0
  -22.7290  -10.2360   20.2460 C   0  0  0  0  0  3  0  0  0  0  0  0
  -21.6340   -6.9570   21.4610 O   0  0  0  0  0  0  0  0  0  0  0  0
  -21.5640   -6.2210   22.6190 C   0  0  0  0  0  0  0  0  0  0  0  0
  -21.1140   -6.7850   23.8330 C   0  0  0  0  0  3  0  0  0  0  0  0
  -20.9920   -5.9780   24.9820 C   0  0  0  0  0  3  0  0  0  0  0  0
  -21.3100   -4.6080   24.9160 C   0  0  0  0  0  0  0  0  0  0  0  0
  -21.7530   -4.0440   23.7060 C   0  0  0  0  0  3  0  0  0  0  0  0
  -21.8770   -4.8480   22.5610 C   0  0  0  0  0  0  0  0  0  0  0  0
  -22.2840   -4.2940   21.3930 F   0  0  0  0  0  0  0  0  0  0  0  0
  -21.1840   -3.8300   26.0170 F   0  0  0  0  0  0  0  0  0  0  0  0
  -22.7430  -13.5890   21.1220 C   0  0  0  0  0  0  0  0  0  0  0  0
  -22.0080  -12.8950   21.9820 N   0  0  0  0  0  0  0  0  0  0  0  0
  -22.3140  -14.6170   20.5980 O   0  0  0  0  0  0  0  0  0  0  0  0
  -22.3710  -12.0630   22.4260 H   0  0  0  0  0  0  0  0  0  0  0  0
  -21.0690  -13.1960   22.2010 H   0  0  0  0  0  0  0  0  0  0  0  0
  -25.3910  -15.2480   20.3180 N   0  0  0  0  0  0  0  0  0  0  0  0
  -24.6370  -15.9170   20.4390 H   0  0  0  0  0  0  0  0  0  0  0  0
  -26.2490  -15.6790   20.0040 H   0  0  0  0  0  0  0  0  0  0  0  0
  1  4  2  0
  1  3  1  0
  3  5  2  0
  4  6  1  0
  5  2  1  0
  5  9  1  0
  6 54  1  0
  6  2  2  0
  7  3  1  0
  8  4  1  0
 10  9  1  0
 10 11  1  0
 11 12  1  0
 13 12  1  0
 14 25  2  0
 15 13  1  0
 15 20  1  0
 16 24  1  0
 16 26  1  0
 17 23  1  0
 17 19  1  0
 18 24  1  0
 19 20  2  0
 19 18  1  0
 21 15  2  0
 22 21  1  0
 22 17  2  0
 23 16  1  0
 24 14  1  0
 26 28  2  0
 27 26  1  0
 29 27  1  0
 30 39  2  0
 30 35  1  0
 31 27  1  0
 31 35  1  0
 32 31  1  0
 33 34  1  0
 33 32  1  0
 34 30  1  0
 35 36  2  0
 36 37  1  0
 38 37  2  0
 39 38  1  0
 40 14  1  0
 40 41  1  0
 40 50  1  0
 41 44  1  0
 42 46  1  0
 42 41  1  0
 43 42  2  0
 46 45  1  0
 48 46  1  0
 48 49  1  0
 48 47  1  0
 50 53  1  1
 50 51  1  0
 52 50  1  0
 54 55  1  0
 55 64  1  0
 56 64  1  0
 57 62  1  0
 58 59  1  0
 58 57  1  0
 60 59  1  0
 60 69  1  0
 60 61  1  0
 62 56  1  0
 62 61  1  0
 63 56  2  0
 64 65  1  0
 66 67  2  0
 67 86  1  0
 68 67  1  0
 68 71  1  0
 69 66  1  0
 69 70  1  0
 70 68  2  0
 71 72  1  0
 72 73  2  0
 74 77  1  0
 74 73  1  0
 75 74  2  0
 76 75  1  0
 76 71  2  0
 77 78  1  0
 78 79  1  0
 79 80  2  0
 81 80  1  0
 81 85  1  0
 82 81  2  0
 83 78  2  0
 83 82  1  0
 84 83  1  0
 86 87  1  0
 87 90  1  0
 87 89  1  0
 88 86  2  0
 91 92  1  0
 91 66  1  0
 93 91  1  0
M  ISO  4  12 101  13 101  56 100  64 100
M  END
>  <TORSDO>  (31) 
F 22

>  <SCORE>  (31) 
-12.958

>  <name>  (31) 
31

>  <ligand_id>  (31) 
31

>  <original_smiles>  (31) 
[H]c1c([H])c([H])c2c(c1[H])C([H])([H])C([H])([H])C([H])([H])C2([H])N([H])C(=O)C1([H])N(C(=O)C([H])(N([H])C(=O)C([H])(N([H])C([H])([H])[H])C([H])([H])[H])C(C([H])([H])[H])(C([H])([H])[H])C([H])([H])[H])C([H])([H])c2c([H])c(OC([H])([H])C([H])([H])C([H])([H])C([H])([H])c3c([H])c(C([H])([H])C([H])([H])N([H])C(=O)N4C([H])([H])C([H])([H])C([H])([H])C([H])(n5nc(-c6c([H])c([H])c(Oc7c([H])c([H])c(F)c([H])c7F)c([H])c6[H])c(C(=O)N([H])[H])c5N([H])[H])C4([H])[H])c(C([H])([H])[H])c([H])c3C([H])([H])[H])c([H])c([H])c2C1([H])[H]

>  <smiles>  (31) 
[H]c1c([H])c([H])c2c(c1[H])C([H])([H])C([H])([H])C([H])([H])C2([H])N([H])C(=O)C1([H])N(C(=O)C([H])(N([H])C(=O)C([H])(N([H])C([H])([H])[H])C([H])([H])[H])C(C([H])([H])[H])(C([H])([H])[H])C([H])([H])[H])C([H])([H])c2c([H])c(OC([H])([H])C([H])([H])C([H])([H])C([H])([H])c3c([H])c(C([H])([H])C([H])([H])N([H])C(=O)N4C([H])([H])C([H])([H])C([H])([H])C([H])(n5nc(-c6c([H])c([H])c(Oc7c([H])c([H])c(F)c([H])c7F)c([H])c6[H])c(C(=O)N([H])[H])c5N([H])[H])C4([H])[H])c(C([H])([H])[H])c([H])c3C([H])([H])[H])c([H])c([H])c2C1([H])[H]

$$$$
32:0:0
     RDKit          3D

 92100  0  0  1  0  0  0  0  0999 V2000
  -27.2890  -20.6390   17.4510 C   0  0  0  0  0  3  0  0  0  0  0  0
  -26.3560  -21.4800   18.0580 C   0  0  0  0  0  3  0  0  0  0  0  0
  -28.4910  -20.3500   18.1160 C   0  0  0  0  0  0  0  0  0  0  0  0
  -26.7160  -22.2340   19.1870 C   0  0  0  0  0  0  0  0  0  0  0  0
  -28.7920  -20.9740   19.3630 C   0  0  0  0  0  0  0  0  0  0  0  0
  -28.0570  -22.2070   19.6830 C   0  0  0  0  0  0  0  0  0  0  0  0
  -29.4020  -19.3190   17.4570 C   0  0  0  0  0  1  0  0  0  0  0  0
  -25.5800  -22.9910   19.8550 C   0  0  0  0  0  1  0  0  0  0  0  0
  -29.7330  -20.1230   20.3080 C   0  0  0  0  0  2  0  0  0  0  0  0
  -29.3100  -18.5670   20.5510 C   0  0  0  0  0  3  0  0  0  0  0  0
  -30.4010  -17.3830   20.6060 C   0  0  0  0  0  3  0  0  0  0  0  0
  -30.6720  -14.7940   20.4180 C   0  0  0  0  0  0  0  0  0  0  0  0
  -30.4420  -12.5460   19.3690 C   0  0  0  0  0  2  0  0  0  0  0  0
  -29.5090  -12.6540   18.1420 C   0  0  0  0  0  2  0  0  0  0  0  0
  -28.0370  -12.4800   18.5620 C   0  0  0  0  0  2  0  0  0  0  0  0
  -27.6650  -13.3480   19.7940 C   0  0  0  0  0  3  0  0  0  0  0  0
  -28.7190  -13.2410   20.9200 C   0  0  0  0  0  2  0  0  0  0  0  0
  -30.0220  -13.5860   20.3350 N   0  0  0  0  0  0  0  0  0  0  0  0
  -31.8520  -14.8910   20.0740 O   0  0  0  0  0  0  0  0  0  0  0  0
  -29.9350  -15.9320   20.6810 N   0  0  0  0  0  0  0  0  0  0  0  0
  -28.9650  -15.7780   20.9140 H   0  0  0  0  0  0  0  0  0  0  0  0
  -25.2660  -13.9240   20.4930 C   0  0  0  0  0  0  0  0  0  0  0  0
  -24.2040  -13.1430   20.8580 C   0  0  0  0  0  0  0  0  0  0  0  0
  -24.6790  -11.7960   20.8410 C   0  0  0  0  0  0  0  0  0  0  0  0
  -26.3190  -13.0510   20.2730 N   0  0  0  0  0  0  0  0  0  0  0  0
  -25.9730  -11.7670   20.5450 N   0  0  0  0  0  0  0  0  0  0  0  0
  -23.9620  -10.5280   21.0320 C   0  0  0  0  0  0  0  0  0  0  0  0
  -24.3960   -9.5640   21.9700 C   0  0  0  0  0  3  0  0  0  0  0  0
  -23.6760   -8.3630   22.1470 C   0  0  0  0  0  3  0  0  0  0  0  0
  -22.5080   -8.1160   21.3870 C   0  0  0  0  0  0  0  0  0  0  0  0
  -22.0950   -9.0680   20.4390 C   0  0  0  0  0  3  0  0  0  0  0  0
  -22.8150  -10.2610   20.2590 C   0  0  0  0  0  3  0  0  0  0  0  0
  -21.7600   -6.9670   21.4750 O   0  0  0  0  0  0  0  0  0  0  0  0
  -21.7090   -6.2280   22.6300 C   0  0  0  0  0  0  0  0  0  0  0  0
  -21.2690   -6.7830   23.8520 C   0  0  0  0  0  3  0  0  0  0  0  0
  -21.1640   -5.9690   24.9980 C   0  0  0  0  0  3  0  0  0  0  0  0
  -21.4910   -4.6020   24.9240 C   0  0  0  0  0  0  0  0  0  0  0  0
  -21.9240   -4.0470   23.7080 C   0  0  0  0  0  3  0  0  0  0  0  0
  -22.0290   -4.8570   22.5640 C   0  0  0  0  0  0  0  0  0  0  0  0
  -22.4260   -4.3120   21.3890 F   0  0  0  0  0  0  0  0  0  0  0  0
  -21.3850   -3.8190   26.0230 F   0  0  0  0  0  0  0  0  0  0  0  0
  -22.8020  -13.6080   21.1160 C   0  0  0  0  0  0  0  0  0  0  0  0
  -22.0750  -12.9060   21.9770 N   0  0  0  0  0  0  0  0  0  0  0  0
  -22.3580  -14.6290   20.5920 O   0  0  0  0  0  0  0  0  0  0  0  0
  -22.4470  -12.0740   22.4120 H   0  0  0  0  0  0  0  0  0  0  0  0
  -21.1380  -13.2040   22.2070 H   0  0  0  0  0  0  0  0  0  0  0  0
  -25.4200  -15.2940   20.3060 N   0  0  0  0  0  0  0  0  0  0  0  0
  -26.2600  -15.7360   19.9560 H   0  0  0  0  0  0  0  0  0  0  0  0
  -24.6450  -15.9420   20.4020 H   0  0  0  0  0  0  0  0  0  0  0  0
  -28.6520  -23.5620   20.3080 C   0  0  0  0  0  3  0  0  0  0  0  0
  -27.9370  -24.9630   19.8640 C   0  0  0  0  0  3  0  0  0  0  0  0
  -28.2910  -26.4070   20.1170 O   0  0  0  0  0  0  0  0  0  0  0  0
  -24.6380  -31.8890   23.2080 C   0  0  0  0  0  0  0  0  0  0  0  0
  -27.2210  -27.3430   20.0540 C   0  0  0  0  0  0  0  0  0  0  0  0
  -23.4210  -30.5080   21.5670 C   0  0  0  0  0  3  0  0  0  0  0  0
  -24.8630  -28.9950   20.0940 C   0  0  0  0  0  0  0  0  0  0  0  0
  -25.9640  -30.8230   21.3690 C   0  0  0  0  0  2  0  0  0  0  0  0
  -26.0410  -29.4560   20.6960 C   0  0  0  0  0  0  0  0  0  0  0  0
  -27.2220  -28.6400   20.6750 C   0  0  0  0  0  3  0  0  0  0  0  0
  -26.0230  -26.9830   19.3880 C   0  0  0  0  0  3  0  0  0  0  0  0
  -24.8590  -27.7650   19.4300 C   0  0  0  0  0  3  0  0  0  0  0  0
  -23.6250  -29.8630   20.1740 C   0  0  0  0  0  2  0  0  0  0  0  0
  -24.6920  -31.0900   22.1040 N   0  0  0  0  0  0  0  0  0  0  0  0
  -23.5590  -32.1550   23.7590 O   0  0  0  0  0  0  0  0  0  0  0  0
  -22.7740  -29.4730   22.5180 C   0  0  0  0  0  0  0  0  0  0  0  0
  -21.4450  -29.2950   22.4100 N   0  0  0  0  0  0  0  0  0  0  0  0
  -23.4640  -28.8340   23.3160 O   0  0  0  0  0  0  0  0  0  0  0  0
  -20.9430  -29.8620   21.7390 H   0  0  0  0  0  0  0  0  0  0  0  0
  -18.0830  -28.0690   22.9360 C   0  0  0  0  0  0  0  0  0  0  0  0
  -20.6420  -28.3460   23.1820 C   0  0  0  0  0  3  0  0  0  0  0  0
  -20.7470  -26.9200   22.5940 C   0  0  0  0  0  2  0  0  0  0  0  0
  -19.6370  -26.5970   21.5870 C   0  0  0  0  0  2  0  0  0  0  0  0
  -18.2610  -26.7260   22.2470 C   0  0  0  0  0  2  0  0  0  0  0  0
  -19.2000  -28.8360   23.3610 C   0  0  0  0  0  0  0  0  0  0  0  0
  -18.9780  -30.0910   23.9670 C   0  0  0  0  0  3  0  0  0  0  0  0
  -17.6720  -30.5820   24.1490 C   0  0  0  0  0  3  0  0  0  0  0  0
  -16.5680  -29.8130   23.7410 C   0  0  0  0  0  3  0  0  0  0  0  0
  -16.7750  -28.5570   23.1400 C   0  0  0  0  0  3  0  0  0  0  0  0
  -25.9230  -32.5220   23.8190 C   0  0  0  0  0  3  0  0  0  0  0  0
  -25.6090  -33.9150   24.1670 N   0  0  0  0  0  0  0  0  0  0  0  0
  -25.9260  -34.9780   23.4150 C   0  0  0  0  0  0  0  0  0  0  0  0
  -26.5830  -34.8900   22.3740 O   0  0  0  0  0  0  0  0  0  0  0  0
  -25.0200  -34.0560   24.9720 H   0  0  0  0  0  0  0  0  0  0  0  0
  -24.1870  -36.7710   23.1040 C   0  0  0  0  0  1  0  0  0  0  0  0
  -25.4380  -36.3590   23.8950 C   0  0  0  0  0  3  0  0  0  0  0  0
  -27.5790  -37.2460   24.7110 C   0  0  0  0  0  1  0  0  0  0  0  0
  -26.4660  -37.4180   23.7820 N   0  0  0  0  0  0  0  0  0  0  0  0
  -26.0570  -38.3340   23.9430 H   0  0  0  0  0  0  0  0  0  0  0  0
  -26.4570  -31.7420   25.0840 C   0  0  1  0  0  0  0  0  0  0  0  0
  -25.3770  -31.4930   26.1620 C   0  0  0  0  0  1  0  0  0  0  0  0
  -27.0430  -30.3690   24.6790 C   0  0  0  0  0  1  0  0  0  0  0  0
  -27.6100  -32.5370   25.7380 C   0  0  0  0  0  1  0  0  0  0  0  0
  1  2  2  0
  1  3  1  0
  2  4  1  0
  3  5  2  0
  4  6  2  0
  4  8  1  0
  5  6  1  0
  5  9  1  0
  6 50  1  0
  7  3  1  0
  9 10  1  0
 10 11  2  0
 11 20  1  0
 12 20  1  0
 13 18  1  0
 14 15  1  0
 14 13  1  0
 16 15  1  0
 16 25  1  0
 16 17  1  0
 18 12  1  0
 18 17  1  0
 19 12  2  0
 20 21  1  0
 22 23  2  0
 23 42  1  0
 24 23  1  0
 24 27  1  0
 25 22  1  0
 25 26  1  0
 26 24  2  0
 27 28  1  0
 28 29  2  0
 30 33  1  0
 30 29  1  0
 31 30  2  0
 32 31  1  0
 32 27  2  0
 33 34  1  0
 34 35  1  0
 35 36  2  0
 37 36  1  0
 37 41  1  0
 38 37  2  0
 39 34  2  0
 39 38  1  0
 40 39  1  0
 42 43  1  0
 43 46  1  0
 43 45  1  0
 44 42  2  0
 47 49  1  0
 47 22  1  0
 48 47  1  0
 51 52  1  0
 51 50  2  0
 53 64  2  0
 54 52  1  0
 54 59  1  0
 55 63  1  0
 55 65  1  0
 56 62  1  0
 56 58  1  0
 57 63  1  0
 58 57  1  0
 59 58  2  0
 60 61  1  0
 60 54  2  0
 61 56  2  0
 62 55  1  0
 63 53  1  0
 65 67  2  0
 66 65  1  0
 68 66  1  0
 69 78  2  0
 69 74  1  0
 70 66  1  0
 70 74  1  0
 71 70  1  0
 72 73  1  0
 72 71  1  0
 73 69  1  0
 74 75  2  0
 75 76  1  0
 77 76  2  0
 78 77  1  0
 79 53  1  0
 79 80  1  0
 79 89  1  0
 80 83  1  0
 81 85  1  0
 81 80  1  0
 82 81  2  0
 85 84  1  0
 87 85  1  0
 87 88  1  0
 87 86  1  0
 89 92  1  1
 89 90  1  0
 91 89  1  0
M  ISO  4  12 100  20 100  51 101  52 101
M  END
>  <TORSDO>  (32) 
F 21

>  <SCORE>  (32) 
-13.607

>  <name>  (32) 
32

>  <ligand_id>  (32) 
32

>  <original_smiles>  (32) 
[H]c1c([H])c([H])c2c(c1[H])C([H])([H])C([H])([H])C([H])([H])C2([H])N([H])C(=O)C1([H])N(C(=O)C([H])(N([H])C(=O)C([H])(N([H])C([H])([H])[H])C([H])([H])[H])C(C([H])([H])[H])(C([H])([H])[H])C([H])([H])[H])C([H])([H])c2c([H])c(OC([H])([H])C([H])([H])c3c(C([H])([H])[H])c([H])c([H])c(C([H])([H])[H])c3C([H])([H])C([H])([H])C([H])([H])N([H])C(=O)N3C([H])([H])C([H])([H])C([H])([H])C([H])(n4nc(-c5c([H])c([H])c(Oc6c([H])c([H])c(F)c([H])c6F)c([H])c5[H])c(C(=O)N([H])[H])c4N([H])[H])C3([H])[H])c([H])c([H])c2C1([H])[H]

>  <smiles>  (32) 
[H]c1c([H])c([H])c2c(c1[H])C([H])([H])C([H])([H])C([H])([H])C2([H])N([H])C(=O)C1([H])N(C(=O)C([H])(N([H])C(=O)C([H])(N([H])C([H])([H])[H])C([H])([H])[H])C(C([H])([H])[H])(C([H])([H])[H])C([H])([H])[H])C([H])([H])c2c([H])c(OC([H])([H])C([H])([H])c3c(C([H])([H])[H])c([H])c([H])c(C([H])([H])[H])c3C([H])([H])C([H])([H])C([H])([H])N([H])C(=O)N3C([H])([H])C([H])([H])C([H])([H])C([H])(n4nc(-c5c([H])c([H])c(Oc6c([H])c([H])c(F)c([H])c6F)c([H])c5[H])c(C(=O)N([H])[H])c4N([H])[H])C3([H])[H])c([H])c([H])c2C1([H])[H]

$$$$
33:0:0
     RDKit          3D

 99107  0  0  1  0  0  0  0  0999 V2000
  -30.6260  -25.4750   18.8290 C   0  0  0  0  0  3  0  0  0  0  0  0
  -32.0950  -26.3440   20.5490 C   0  0  0  0  0  3  0  0  0  0  0  0
  -30.8190  -26.3010   19.9550 C   0  0  0  0  0  0  0  0  0  0  0  0
  -31.6780  -24.7080   18.2780 C   0  0  0  0  0  0  0  0  0  0  0  0
  -32.9720  -24.7690   18.8750 C   0  0  0  0  0  0  0  0  0  0  0  0
  -33.1580  -25.5880   20.0150 C   0  0  0  0  0  0  0  0  0  0  0  0
  -34.3750  -25.6680   20.6060 F   0  0  0  0  0  0  0  0  0  0  0  0
  -34.8980  -24.6390   17.1610 C   0  0  0  0  0  1  0  0  0  0  0  0
  -34.1810  -23.9860   18.3530 C   0  0  0  0  0  2  0  0  0  0  0  0
  -29.6780  -27.1830   20.4620 C   0  0  0  0  0  2  0  0  0  0  0  0
  -28.4080  -26.6920   20.0290 O   0  0  0  0  0  0  0  0  0  0  0  0
  -24.6110  -31.8710   23.2120 C   0  0  0  0  0  0  0  0  0  0  0  0
  -27.2800  -27.4810   20.1090 C   0  0  0  0  0  0  0  0  0  0  0  0
  -23.4030  -30.4890   21.5500 C   0  0  0  0  0  3  0  0  0  0  0  0
  -24.8650  -28.9570   20.1230 C   0  0  0  0  0  0  0  0  0  0  0  0
  -25.9260  -30.8540   21.3600 C   0  0  0  0  0  2  0  0  0  0  0  0
  -26.0160  -29.4860   20.7190 C   0  0  0  0  0  0  0  0  0  0  0  0
  -27.2250  -28.7570   20.7170 C   0  0  0  0  0  3  0  0  0  0  0  0
  -26.1090  -26.9570   19.5240 C   0  0  0  0  0  3  0  0  0  0  0  0
  -24.9040  -27.6870   19.5210 C   0  0  0  0  0  3  0  0  0  0  0  0
  -23.6190  -29.8140   20.1670 C   0  0  0  0  0  2  0  0  0  0  0  0
  -24.6630  -31.0850   22.0990 N   0  0  0  0  0  0  0  0  0  0  0  0
  -23.5310  -32.1440   23.7520 O   0  0  0  0  0  0  0  0  0  0  0  0
  -22.7420  -29.4650   22.5020 C   0  0  0  0  0  0  0  0  0  0  0  0
  -21.4150  -29.3020   22.3750 N   0  0  0  0  0  0  0  0  0  0  0  0
  -23.4200  -28.8210   23.3060 O   0  0  0  0  0  0  0  0  0  0  0  0
  -20.9330  -29.8780   21.7000 H   0  0  0  0  0  0  0  0  0  0  0  0
  -18.0260  -28.1380   22.8490 C   0  0  0  0  0  0  0  0  0  0  0  0
  -20.5850  -28.3650   23.1330 C   0  0  0  0  0  3  0  0  0  0  0  0
  -20.6760  -26.9390   22.5420 C   0  0  0  0  0  2  0  0  0  0  0  0
  -19.5730  -26.6380   21.5220 C   0  0  0  0  0  2  0  0  0  0  0  0
  -18.1910  -26.7920   22.1630 C   0  0  0  0  0  2  0  0  0  0  0  0
  -19.1520  -28.8830   23.2900 C   0  0  0  0  0  0  0  0  0  0  0  0
  -18.9440  -30.1440   23.8920 C   0  0  0  0  0  3  0  0  0  0  0  0
  -17.6450  -30.6580   24.0560 C   0  0  0  0  0  3  0  0  0  0  0  0
  -16.5340  -29.9090   23.6330 C   0  0  0  0  0  3  0  0  0  0  0  0
  -16.7250  -28.6500   23.0350 C   0  0  0  0  0  3  0  0  0  0  0  0
  -25.9000  -32.4850   23.8440 C   0  0  0  0  0  3  0  0  0  0  0  0
  -26.4450  -31.6600   25.0740 C   0  0  1  0  0  0  0  0  0  0  0  0
  -25.3740  -31.3690   26.1500 C   0  0  0  0  0  1  0  0  0  0  0  0
  -27.0260  -30.3050   24.6050 C   0  0  0  0  0  1  0  0  0  0  0  0
  -27.6070  -32.4290   25.7460 C   0  0  0  0  0  1  0  0  0  0  0  0
  -25.5870  -33.8650   24.2380 N   0  0  0  0  0  0  0  0  0  0  0  0
  -25.9010  -34.9500   23.5160 C   0  0  0  0  0  0  0  0  0  0  0  0
  -26.5580  -34.8920   22.4720 O   0  0  0  0  0  0  0  0  0  0  0  0
  -25.0040  -33.9830   25.0530 H   0  0  0  0  0  0  0  0  0  0  0  0
  -24.1480  -36.7330   23.2630 C   0  0  0  0  0  1  0  0  0  0  0  0
  -25.4090  -36.3130   24.0350 C   0  0  0  0  0  3  0  0  0  0  0  0
  -27.5590  -37.1810   24.8460 C   0  0  0  0  0  1  0  0  0  0  0  0
  -26.4290  -37.3810   23.9420 N   0  0  0  0  0  0  0  0  0  0  0  0
  -26.0200  -38.2890   24.1420 H   0  0  0  0  0  0  0  0  0  0  0  0
  -31.3600  -23.9000   17.0200 C   0  0  0  0  0  2  0  0  0  0  0  0
  -31.2930  -22.3680   17.1800 C   0  0  0  0  0  2  0  0  0  0  0  0
  -30.4140  -21.8110   18.3120 C   0  0  0  0  0  2  0  0  0  0  0  0
  -28.9110  -21.8100   17.9840 C   0  0  0  0  0  2  0  0  0  0  0  0
  -28.0370  -20.9990   18.9650 C   0  0  0  0  0  2  0  0  0  0  0  0
  -28.4900  -19.5400   19.1870 C   0  0  0  0  0  2  0  0  0  0  0  0
  -29.2540  -19.3350   20.5120 C   0  0  0  0  0  2  0  0  0  0  0  0
  -29.6890  -17.8760   20.7260 C   0  0  0  0  0  2  0  0  0  0  0  0
  -30.3780  -17.6630   22.0840 C   0  0  0  0  0  2  0  0  0  0  0  0
  -31.1260  -16.3250   22.2260 C   0  0  0  0  0  2  0  0  0  0  0  0
  -30.7900  -14.3770   20.6950 C   0  0  0  0  0  0  0  0  0  0  0  0
  -30.4060  -12.3070   19.3920 C   0  0  0  0  0  2  0  0  0  0  0  0
  -29.4810  -12.5400   18.1870 C   0  0  0  0  0  2  0  0  0  0  0  0
  -28.0100  -12.4010   18.6130 C   0  0  0  0  0  2  0  0  0  0  0  0
  -27.6720  -13.2140   19.8850 C   0  0  0  0  0  3  0  0  0  0  0  0
  -28.7110  -12.9710   21.0030 C   0  0  0  0  0  2  0  0  0  0  0  0
  -30.0510  -13.2590   20.4590 N   0  0  0  0  0  0  0  0  0  0  0  0
  -31.8080  -14.6420   20.0470 O   0  0  0  0  0  0  0  0  0  0  0  0
  -30.3840  -15.1630   21.7070 N   0  0  0  0  0  0  0  0  0  0  0  0
  -29.5330  -14.8990   22.1840 H   0  0  0  0  0  0  0  0  0  0  0  0
  -25.2650  -13.8200   20.5630 C   0  0  0  0  0  0  0  0  0  0  0  0
  -24.1890  -13.0480   20.9160 C   0  0  0  0  0  0  0  0  0  0  0  0
  -24.6410  -11.6930   20.8660 C   0  0  0  0  0  0  0  0  0  0  0  0
  -26.3110  -12.9370   20.3440 N   0  0  0  0  0  0  0  0  0  0  0  0
  -25.9370  -11.6510   20.5810 N   0  0  0  0  0  0  0  0  0  0  0  0
  -23.9090  -10.4330   21.0360 C   0  0  0  0  0  0  0  0  0  0  0  0
  -24.3620   -9.4280   21.9140 C   0  0  0  0  0  3  0  0  0  0  0  0
  -23.6300   -8.2310   22.0750 C   0  0  0  0  0  3  0  0  0  0  0  0
  -22.4290   -8.0340   21.3580 C   0  0  0  0  0  0  0  0  0  0  0  0
  -21.9920   -9.0320   20.4660 C   0  0  0  0  0  3  0  0  0  0  0  0
  -22.7240  -10.2190   20.3060 C   0  0  0  0  0  3  0  0  0  0  0  0
  -21.6680   -6.8930   21.4270 O   0  0  0  0  0  0  0  0  0  0  0  0
  -21.6890   -6.0750   22.5280 C   0  0  0  0  0  0  0  0  0  0  0  0
  -21.4020   -6.5630   23.8230 C   0  0  0  0  0  3  0  0  0  0  0  0
  -21.3660   -5.6780   24.9170 C   0  0  0  0  0  3  0  0  0  0  0  0
  -21.6090   -4.3070   24.7230 C   0  0  0  0  0  0  0  0  0  0  0  0
  -21.8830   -3.8160   23.4340 C   0  0  0  0  0  3  0  0  0  0  0  0
  -21.9190   -4.6980   22.3390 C   0  0  0  0  0  0  0  0  0  0  0  0
  -22.1670   -4.2160   21.0980 F   0  0  0  0  0  0  0  0  0  0  0  0
  -21.5610   -3.4550   25.7720 F   0  0  0  0  0  0  0  0  0  0  0  0
  -22.7930  -13.5310   21.1780 C   0  0  0  0  0  0  0  0  0  0  0  0
  -22.0500  -12.8370   22.0350 N   0  0  0  0  0  0  0  0  0  0  0  0
  -22.3640  -14.5610   20.6640 O   0  0  0  0  0  0  0  0  0  0  0  0
  -22.4030  -12.0070   22.4890 H   0  0  0  0  0  0  0  0  0  0  0  0
  -21.1140  -13.1550   22.2380 H   0  0  0  0  0  0  0  0  0  0  0  0
  -25.4320  -15.1920   20.3940 N   0  0  0  0  0  0  0  0  0  0  0  0
  -24.6760  -15.8620   20.4970 H   0  0  0  0  0  0  0  0  0  0  0  0
  -26.2950  -15.6310   20.0990 H   0  0  0  0  0  0  0  0  0  0  0  0
  1  3  1  0
  3 10  1  0
  3  2  2  0
  4  1  2  0
  4  5  1  0
  5  6  2  0
  6  2  1  0
  6  7  1  0
  8  9  1  0
  9  5  1  0
 11 13  1  0
 11 10  1  0
 12 23  2  0
 13 18  1  0
 14 22  1  0
 14 24  1  0
 15 21  1  0
 15 17  1  0
 16 22  1  0
 17 16  1  0
 18 17  2  0
 19 13  2  0
 20 19  1  0
 20 15  2  0
 21 14  1  0
 22 12  1  0
 24 26  2  0
 25 24  1  0
 27 25  1  0
 28 37  2  0
 28 33  1  0
 29 25  1  0
 29 33  1  0
 30 29  1  0
 31 32  1  0
 31 30  1  0
 32 28  1  0
 33 34  2  0
 34 35  1  0
 36 35  2  0
 37 36  1  0
 38 12  1  0
 38 43  1  0
 38 39  1  0
 39 42  1  1
 39 40  1  0
 41 39  1  0
 43 46  1  0
 44 48  1  0
 44 43  1  0
 45 44  2  0
 48 47  1  0
 50 48  1  0
 50 51  1  0
 50 49  1  0
 52 53  1  0
 52  4  1  0
 53 54  1  0
 55 54  1  0
 55 56  1  0
 56 57  1  0
 57 58  1  0
 58 59  1  0
 59 60  1  0
 60 61  1  0
 62 70  1  0
 63 68  1  0
 64 65  1  0
 64 63  1  0
 66 65  1  0
 66 75  1  0
 66 67  1  0
 68 62  1  0
 68 67  1  0
 69 62  2  0
 70 71  1  0
 70 61  1  0
 72 73  2  0
 73 92  1  0
 74 73  1  0
 74 77  1  0
 75 72  1  0
 75 76  1  0
 76 74  2  0
 77 78  1  0
 78 79  2  0
 80 83  1  0
 80 79  1  0
 81 80  2  0
 82 81  1  0
 82 77  2  0
 83 84  1  0
 84 85  1  0
 85 86  2  0
 87 86  1  0
 87 91  1  0
 88 87  2  0
 89 84  2  0
 89 88  1  0
 90 89  1  0
 92 93  1  0
 93 96  1  0
 93 95  1  0
 94 92  2  0
 97 98  1  0
 97 72  1  0
 99 97  1  0
M  ISO  4  10 101  11 101  62 100  70 100
M  END
>  <TORSDO>  (33) 
F 28

>  <SCORE>  (33) 
-11.129

>  <name>  (33) 
33

>  <ligand_id>  (33) 
33

>  <original_smiles>  (33) 
[H]c1c([H])c([H])c2c(c1[H])C([H])([H])C([H])([H])C([H])([H])C2([H])N([H])C(=O)C1([H])N(C(=O)C([H])(N([H])C(=O)C([H])(N([H])C([H])([H])[H])C([H])([H])[H])C(C([H])([H])[H])(C([H])([H])[H])C([H])([H])[H])C([H])([H])c2c([H])c(OC([H])([H])c3c([H])c(F)c(C([H])([H])C([H])([H])[H])c(C([H])([H])C([H])([H])C([H])([H])C([H])([H])C([H])([H])C([H])([H])C([H])([H])C([H])([H])C([H])([H])C([H])([H])N([H])C(=O)N4C([H])([H])C([H])([H])C([H])([H])C([H])(n5nc(-c6c([H])c([H])c(Oc7c([H])c([H])c(F)c([H])c7F)c([H])c6[H])c(C(=O)N([H])[H])c5N([H])[H])C4([H])[H])c3[H])c([H])c([H])c2C1([H])[H]

>  <smiles>  (33) 
[H]c1c([H])c([H])c2c(c1[H])C([H])([H])C([H])([H])C([H])([H])C2([H])N([H])C(=O)C1([H])N(C(=O)C([H])(N([H])C(=O)C([H])(N([H])C([H])([H])[H])C([H])([H])[H])C(C([H])([H])[H])(C([H])([H])[H])C([H])([H])[H])C([H])([H])c2c([H])c(OC([H])([H])c3c([H])c(F)c(C([H])([H])C([H])([H])[H])c(C([H])([H])C([H])([H])C([H])([H])C([H])([H])C([H])([H])C([H])([H])C([H])([H])C([H])([H])C([H])([H])C([H])([H])N([H])C(=O)N4C([H])([H])C([H])([H])C([H])([H])C([H])(n5nc(-c6c([H])c([H])c(Oc7c([H])c([H])c(F)c([H])c7F)c([H])c6[H])c(C(=O)N([H])[H])c5N([H])[H])C4([H])[H])c3[H])c([H])c([H])c2C1([H])[H]

$$$$
34:0:0
     RDKit          3D

 95 98  0  0  1  0  0  0  0  0999 V2000
  -25.5550  -27.2800   20.8220 C   0  0  0  0  0  3  0  0  0  0  0  0
  -25.5560  -29.3890   17.8080 C   0  0  0  0  0  2  0  0  0  0  0  0
  -24.7770  -28.3580   20.8640 C   0  0  0  0  0  0  0  0  0  0  0  0
  -26.9080  -28.1920   17.6160 C   0  0  0  0  0  0  0  0  0  0  0  0
  -27.2280  -26.9020   18.8540 C   0  0  0  0  0  3  0  0  0  0  0  0
  -24.3260  -29.4590   19.1230 C   0  0  0  0  0  1  0  0  0  0  0  0
  -25.0980  -28.6540   22.4810 C   0  0  0  0  0  1  0  0  0  0  0  0
  -27.7400  -28.2220   16.3560 C   0  0  0  0  0  1  0  0  0  0  0  0
  -28.4660  -25.3780   18.7630 C   0  0  0  0  0  1  0  0  0  0  0  0
  -28.4410  -23.4130   19.2070 C   0  0  0  0  0  1  0  0  0  0  0  0
  -29.4150  -21.7120   19.2850 C   0  0  0  0  0  2  0  0  0  0  0  0
  -29.1850  -19.8220   19.7750 C   0  0  0  0  0  3  0  0  0  0  0  0
  -30.0560  -18.0670   19.6460 C   0  0  0  0  0  3  0  0  0  0  0  0
  -30.4100  -14.8880   19.8890 C   0  0  0  0  0  0  0  0  0  0  0  0
  -30.3270  -12.3630   19.0510 C   0  0  0  0  0  2  0  0  0  0  0  0
  -29.3030  -12.0110   17.9400 C   0  0  0  0  0  2  0  0  0  0  0  0
  -27.9350  -11.6570   18.5390 C   0  0  0  0  0  2  0  0  0  0  0  0
  -27.5490  -12.6180   19.6860 C   0  0  0  0  0  3  0  0  0  0  0  0
  -28.7130  -12.9220   20.6660 C   0  0  0  0  0  2  0  0  0  0  0  0
  -29.8100  -13.5470   19.8710 N   0  0  0  0  0  0  0  0  0  0  0  0
  -31.6320  -14.7510   19.7030 O   0  0  0  0  0  0  0  0  0  0  0  0
  -29.7510  -16.3130   19.8940 N   0  0  0  0  0  0  0  0  0  0  0  0
  -28.7600  -16.1760   20.0370 H   0  0  0  0  0  0  0  0  0  0  0  0
  -25.2640  -13.0990   20.6980 C   0  0  0  0  0  0  0  0  0  0  0  0
  -24.2420  -12.2990   21.1240 C   0  0  0  0  0  0  0  0  0  0  0  0
  -24.7160  -10.9550   21.0070 C   0  0  0  0  0  0  0  0  0  0  0  0
  -26.2930  -12.2490   20.3360 N   0  0  0  0  0  0  0  0  0  0  0  0
  -25.9800  -10.9480   20.5880 N   0  0  0  0  0  0  0  0  0  0  0  0
  -24.0110   -9.6800   21.2130 C   0  0  0  0  0  0  0  0  0  0  0  0
  -24.4780   -8.7150   22.1330 C   0  0  0  0  0  3  0  0  0  0  0  0
  -23.7680   -7.5100   22.3300 C   0  0  0  0  0  3  0  0  0  0  0  0
  -22.5770   -7.2600   21.6080 C   0  0  0  0  0  0  0  0  0  0  0  0
  -22.1280   -8.2140   20.6770 C   0  0  0  0  0  3  0  0  0  0  0  0
  -22.8380   -9.4110   20.4790 C   0  0  0  0  0  3  0  0  0  0  0  0
  -21.8370   -6.1070   21.7150 O   0  0  0  0  0  0  0  0  0  0  0  0
  -21.7490   -5.4130   22.8960 C   0  0  0  0  0  0  0  0  0  0  0  0
  -21.1490   -5.9730   24.0450 C   0  0  0  0  0  3  0  0  0  0  0  0
  -21.0180   -5.2020   25.2170 C   0  0  0  0  0  3  0  0  0  0  0  0
  -21.4770   -3.8710   25.2410 C   0  0  0  0  0  0  0  0  0  0  0  0
  -22.0700   -3.3110   24.0960 C   0  0  0  0  0  3  0  0  0  0  0  0
  -22.2030   -4.0790   22.9260 C   0  0  0  0  0  0  0  0  0  0  0  0
  -22.7550   -3.5260   21.8190 F   0  0  0  0  0  0  0  0  0  0  0  0
  -21.3440   -3.1270   26.3640 F   0  0  0  0  0  0  0  0  0  0  0  0
  -22.8660  -12.7540   21.5140 C   0  0  0  0  0  0  0  0  0  0  0  0
  -22.2020  -12.0130   22.3940 N   0  0  0  0  0  0  0  0  0  0  0  0
  -22.3930  -13.8020   21.0760 O   0  0  0  0  0  0  0  0  0  0  0  0
  -22.6000  -11.1640   22.7690 H   0  0  0  0  0  0  0  0  0  0  0  0
  -21.2820  -12.3000   22.6970 H   0  0  0  0  0  0  0  0  0  0  0  0
  -25.3960  -14.4770   20.5520 N   0  0  0  0  0  0  0  0  0  0  0  0
  -24.6370  -15.1180   20.7520 H   0  0  0  0  0  0  0  0  0  0  0  0
  -26.2100  -14.9360   20.1650 H   0  0  0  0  0  0  0  0  0  0  0  0
  -22.2710  -28.9160   18.7860 C   0  0  0  0  0 15  0  0  0  0  0  0
  -21.6420  -27.6420   20.6590 C   0  0  0  0  0 15  0  0  0  0  0  0
  -23.0640  -26.1720   21.7070 C   0  0  0  0  0 15  0  0  0  0  0  0
  -24.8270  -25.0690   21.8280 O   0  0  0  0  0  0  0  0  0  0  0  0
  -24.5330  -31.6130   23.0870 C   0  0  0  0  0  0  0  0  0  0  0  0
  -26.5040  -25.2870   21.7270 C   0  0  0  0  0  2  0  0  0  0  0  0
  -23.1100  -29.7580   21.6200 C   0  0  0  0  0  2  0  0  0  0  0  0
  -25.0480  -27.3690   19.4590 C   0  0  1  0  0  0  0  0  0  0  0  0
  -26.4010  -30.1860   21.5980 C   0  0  0  0  0  2  0  0  0  0  0  0
  -26.8930  -28.4730   20.7900 C   0  0  0  0  0  3  0  0  0  0  0  0
  -27.5380  -26.9970   21.8780 C   0  0  0  0  0  1  0  0  0  0  0  0
  -25.4650  -24.8940   20.5320 C   0  0  0  0  0  3  0  0  0  0  0  0
  -24.7600  -25.8380   19.5170 C   0  0  0  0  0  2  0  0  0  0  0  0
  -23.7370  -27.6520   19.7200 C   0  0  0  0  0  2  0  0  0  0  0  0
  -24.6510  -30.7410   22.0510 N   0  0  0  0  0  0  0  0  0  0  0  0
  -23.4330  -31.9960   23.5090 O   0  0  0  0  0  0  0  0  0  0  0  0
  -22.1920  -29.3730   22.8650 C   0  0  0  0  0  0  0  0  0  0  0  0
  -20.8740  -29.3870   22.6970 N   0  0  0  0  0  0  0  0  0  0  0  0
  -22.5920  -28.8520   23.8920 O   0  0  0  0  0  0  0  0  0  0  0  0
  -20.5060  -29.8090   21.8560 H   0  0  0  0  0  0  0  0  0  0  0  0
  -17.4210  -28.5020   23.0040 C   0  0  0  0  0  0  0  0  0  0  0  0
  -19.9440  -28.5290   23.4440 C   0  0  0  0  0  3  0  0  0  0  0  0
  -19.8950  -27.0150   23.0540 C   0  0  0  0  0  2  0  0  0  0  0  0
  -18.8110  -26.6260   22.0260 C   0  0  0  0  0  2  0  0  0  0  0  0
  -17.4430  -27.0540   22.5380 C   0  0  0  0  0  2  0  0  0  0  0  0
  -18.5930  -29.1830   23.4170 C   0  0  0  0  0  0  0  0  0  0  0  0
  -18.5240  -30.5300   23.8270 C   0  0  0  0  0  3  0  0  0  0  0  0
  -17.2950  -31.2020   23.8380 C   0  0  0  0  0  3  0  0  0  0  0  0
  -16.1280  -30.5240   23.4490 C   0  0  0  0  0  3  0  0  0  0  0  0
  -16.1900  -29.1810   23.0360 C   0  0  0  0  0  3  0  0  0  0  0  0
  -25.8240  -32.1080   23.8070 C   0  0  0  0  0  3  0  0  0  0  0  0
  -25.5170  -33.4840   24.1820 N   0  0  0  0  0  0  0  0  0  0  0  0
  -25.8280  -34.5480   23.4360 C   0  0  0  0  0  0  0  0  0  0  0  0
  -26.4460  -34.4680   22.3710 O   0  0  0  0  0  0  0  0  0  0  0  0
  -24.9540  -33.6190   25.0090 H   0  0  0  0  0  0  0  0  0  0  0  0
  -24.1020  -36.3590   23.2430 C   0  0  0  0  0  1  0  0  0  0  0  0
  -25.3830  -35.9180   23.9680 C   0  0  0  0  0  3  0  0  0  0  0  0
  -27.5810  -36.7240   24.7010 C   0  0  0  0  0  1  0  0  0  0  0  0
  -26.4240  -36.9570   23.8400 N   0  0  0  0  0  0  0  0  0  0  0  0
  -26.0470  -37.8750   24.0600 H   0  0  0  0  0  0  0  0  0  0  0  0
  -26.3350  -31.2870   25.0790 C   0  0  1  0  0  0  0  0  0  0  0  0
  -25.1860  -30.8680   26.0210 C   0  0  0  0  0  1  0  0  0  0  0  0
  -27.1900  -30.0160   24.8240 C   0  0  0  0  0  1  0  0  0  0  0  0
  -27.3280  -32.1840   25.8570 C   0  0  0  0  0  1  0  0  0  0  0  0
  1 61  1  0
  1  3  1  0
  2  6  1  0
  3  7  1  0
  4  2  1  0
  4  5  2  0
  8  4  1  0
  9  5  1  0
 10 11  1  0
 11 12  1  0
 13 12  2  0
 13 22  1  0
 14 22  1  0
 15 20  1  0
 16 17  1  0
 16 15  1  0
 18 17  1  0
 18 27  1  0
 18 19  1  0
 20 14  1  0
 20 19  1  0
 21 14  2  0
 22 23  1  0
 24 25  2  0
 25 44  1  0
 26 25  1  0
 26 29  1  0
 27 28  1  0
 27 24  1  0
 28 26  2  0
 29 30  1  0
 30 31  2  0
 32 35  1  0
 32 31  1  0
 33 32  2  0
 34 33  1  0
 34 29  2  0
 35 36  1  0
 36 41  2  0
 36 37  1  0
 37 38  2  0
 38 39  1  0
 39 43  1  0
 40 39  2  0
 41 40  1  0
 42 41  1  0
 44 45  1  0
 45 48  1  0
 45 47  1  0
 46 44  2  0
 49 24  1  0
 49 50  1  0
 51 49  1  0
 56 67  2  0
 57 55  1  0
 58 66  1  0
 58 68  1  0
 59 64  1  6
 59 65  1  0
 59  1  1  0
 59  3  1  0
 60 66  1  0
 61 60  1  0
 61 62  1  0
 63 64  1  0
 63 57  1  0
 63 55  1  0
 65  3  1  0
 66 56  1  0
 68 70  2  0
 69 68  1  0
 71 69  1  0
 72 81  2  0
 72 77  1  0
 73 69  1  0
 74 73  1  0
 75 76  1  0
 75 74  1  0
 76 72  1  0
 77 73  1  0
 77 78  2  0
 78 79  1  0
 80 79  2  0
 81 80  1  0
 82 56  1  0
 82 83  1  0
 82 92  1  0
 83 86  1  0
 84 88  1  0
 84 83  1  0
 85 84  2  0
 88 87  1  0
 90 88  1  0
 90 91  1  0
 90 89  1  0
 92 95  1  1
 92 93  1  0
 94 92  1  0
M  ISO  4  14 100  22 100  54 101  55 101
M  END
>  <TORSDO>  (34) 
F 24

>  <SCORE>  (34) 
-14.220

>  <name>  (34) 
34

>  <ligand_id>  (34) 
34

>  <original_smiles>  (34) 
[H]c1c([H])c([H])c2c(c1[H])C([H])([H])C([H])([H])C([H])([H])C2([H])N([H])C(=O)C1([H])N(C(=O)C([H])(N([H])C(=O)C([H])(N([H])C([H])([H])[H])C([H])([H])[H])C(C([H])([H])[H])(C([H])([H])[H])C([H])([H])[H])C([H])([H])c2c([H])c(OC([H])([H])C([H])([H])C([H])([H])c3c([H])c(C([H])([H])[H])c(C([H])([H])C([H])([H])C([H])([H])C([H])([H])C([H])([H])N([H])C(=O)N4C([H])([H])C([H])([H])C([H])([H])C([H])(n5nc(-c6c([H])c([H])c(Oc7c([H])c([H])c(F)c([H])c7F)c([H])c6[H])c(C(=O)N([H])[H])c5N([H])[H])C4([H])[H])c([H])c3C([H])([H])[H])c([H])c([H])c2C1([H])[H]

>  <smiles>  (34) 
[H]c1c([H])c([H])c2c(c1[H])C([H])([H])C([H])([H])C([H])([H])C2([H])N([H])C(=O)C1([H])N(C(=O)C([H])(N([H])C(=O)C([H])(N([H])C([H])([H])[H])C([H])([H])[H])C(C([H])([H])[H])(C([H])([H])[H])C([H])([H])[H])C([H])([H])c2c([H])c(OC([H])([H])C([H])([H])C([H])([H])c3c([H])c(C([H])([H])[H])c(C([H])([H])C([H])([H])C([H])([H])C([H])([H])C([H])([H])N([H])C(=O)N4C([H])([H])C([H])([H])C([H])([H])C([H])(n5nc(-c6c([H])c([H])c(Oc7c([H])c([H])c(F)c([H])c7F)c([H])c6[H])c(C(=O)N([H])[H])c5N([H])[H])C4([H])[H])c([H])c3C([H])([H])[H])c([H])c([H])c2C1([H])[H]

$$$$
35:0:0
     RDKit          3D

 88 96  0  0  1  0  0  0  0  0999 V2000
  -27.8000  -25.4410   21.5640 C   0  0  0  0  0  3  0  0  0  0  0  0
  -28.6800  -23.5790   20.4290 C   0  0  0  0  0  0  0  0  0  0  0  0
  -28.2130  -25.1110   20.3040 C   0  0  0  0  0  0  0  0  0  0  0  0
  -28.4910  -23.3360   21.7920 C   0  0  0  0  0  0  0  0  0  0  0  0
  -28.7990  -22.1310   22.6410 C   0  0  0  0  0  1  0  0  0  0  0  0
  -27.6230  -24.5550   23.8680 C   0  0  0  0  0  1  0  0  0  0  0  0
  -27.9590  -24.4280   22.4500 N   0  0  0  0  0  0  0  0  0  0  0  0
  -28.1110  -26.3180   19.4050 O   0  0  0  0  0  0  0  0  0  0  0  0
  -24.7460  -31.8800   23.2350 C   0  0  0  0  0  0  0  0  0  0  0  0
  -27.1390  -27.4280   19.5750 C   0  0  0  0  0  0  0  0  0  0  0  0
  -23.4760  -30.7100   21.4790 C   0  0  0  0  0  3  0  0  0  0  0  0
  -24.8570  -29.2870   19.8240 C   0  0  0  0  0  0  0  0  0  0  0  0
  -26.0360  -30.9270   21.2710 C   0  0  0  0  0  2  0  0  0  0  0  0
  -26.0680  -29.6090   20.4550 C   0  0  0  0  0  0  0  0  0  0  0  0
  -27.2040  -28.6960   20.3240 C   0  0  0  0  0  3  0  0  0  0  0  0
  -25.9060  -27.2610   18.9040 C   0  0  0  0  0  3  0  0  0  0  0  0
  -24.7970  -28.1310   19.0330 C   0  0  0  0  0  3  0  0  0  0  0  0
  -23.6490  -30.1990   20.0230 C   0  0  0  0  0  2  0  0  0  0  0  0
  -24.7760  -31.1910   22.0510 N   0  0  0  0  0  0  0  0  0  0  0  0
  -23.6800  -32.1120   23.8280 O   0  0  0  0  0  0  0  0  0  0  0  0
  -22.8080  -29.6060   22.3370 C   0  0  0  0  0  0  0  0  0  0  0  0
  -21.4780  -29.4350   22.2030 N   0  0  0  0  0  0  0  0  0  0  0  0
  -23.4920  -28.9090   23.0910 O   0  0  0  0  0  0  0  0  0  0  0  0
  -20.9780  -30.0530   21.5790 H   0  0  0  0  0  0  0  0  0  0  0  0
  -18.1290  -28.0970   22.5670 C   0  0  0  0  0  0  0  0  0  0  0  0
  -20.6780  -28.4060   22.8780 C   0  0  0  0  0  3  0  0  0  0  0  0
  -20.8250  -27.0370   22.1770 C   0  0  0  0  0  2  0  0  0  0  0  0
  -19.7410  -26.7780   21.1270 C   0  0  0  0  0  2  0  0  0  0  0  0
  -18.3510  -26.8240   21.7680 C   0  0  0  0  0  2  0  0  0  0  0  0
  -19.2220  -28.8480   23.0750 C   0  0  0  0  0  0  0  0  0  0  0  0
  -18.9630  -30.0400   23.7860 C   0  0  0  0  0  3  0  0  0  0  0  0
  -17.6440  -30.4830   23.9920 C   0  0  0  0  0  3  0  0  0  0  0  0
  -16.5640  -29.7290   23.4990 C   0  0  0  0  0  3  0  0  0  0  0  0
  -16.8080  -28.5360   22.7950 C   0  0  0  0  0  3  0  0  0  0  0  0
  -26.0470  -32.4290   23.8940 C   0  0  0  0  0  3  0  0  0  0  0  0
  -26.6110  -31.4870   25.0290 C   0  0  1  0  0  0  0  0  0  0  0  0
  -25.5570  -31.0980   26.0940 C   0  0  0  0  0  1  0  0  0  0  0  0
  -27.1750  -30.1790   24.4290 C   0  0  0  0  0  1  0  0  0  0  0  0
  -27.7920  -32.1800   25.7490 C   0  0  0  0  0  1  0  0  0  0  0  0
  -25.7490  -33.7640   24.4410 N   0  0  0  0  0  0  0  0  0  0  0  0
  -26.0990  -34.9250   23.8700 C   0  0  0  0  0  0  0  0  0  0  0  0
  -26.7710  -34.9820   22.8370 O   0  0  0  0  0  0  0  0  0  0  0  0
  -25.1560  -33.7940   25.2570 H   0  0  0  0  0  0  0  0  0  0  0  0
  -24.4020  -36.7860   23.8240 C   0  0  0  0  0  1  0  0  0  0  0  0
  -25.6350  -36.2280   24.5530 C   0  0  0  0  0  3  0  0  0  0  0  0
  -27.7800  -36.9360   25.5210 C   0  0  0  0  0  1  0  0  0  0  0  0
  -26.6850  -37.2700   24.6140 N   0  0  0  0  0  0  0  0  0  0  0  0
  -26.2910  -38.1600   24.9070 H   0  0  0  0  0  0  0  0  0  0  0  0
  -29.3420  -22.1830   19.5870 C   0  0  0  0  0  3  0  0  0  0  0  0
  -29.4250  -20.4560   20.0860 C   0  0  0  0  0  3  0  0  0  0  0  0
  -30.1570  -18.9420   19.4910 C   0  0  0  0  0  3  0  0  0  0  0  0
  -29.9830  -17.2580   20.0510 C   0  0  0  0  0  3  0  0  0  0  0  0
  -30.8260  -15.7640   19.7520 C   0  0  0  0  0  0  0  0  0  0  0  0
  -30.8180  -13.2990   18.9460 C   0  0  0  0  0  2  0  0  0  0  0  0
  -29.8330  -13.0700   17.7680 C   0  0  0  0  0  2  0  0  0  0  0  0
  -28.4030  -12.8060   18.2800 C   0  0  0  0  0  2  0  0  0  0  0  0
  -28.0010  -13.7850   19.4120 C   0  0  0  0  0  3  0  0  0  0  0  0
  -29.1020  -13.9560   20.4770 C   0  0  0  0  0  2  0  0  0  0  0  0
  -30.3140  -14.4390   19.7950 N   0  0  0  0  0  0  0  0  0  0  0  0
  -32.0100  -15.8100   19.3890 O   0  0  0  0  0  0  0  0  0  0  0  0
  -25.7060  -14.3170   20.3930 C   0  0  0  0  0  0  0  0  0  0  0  0
  -24.6590  -13.5280   20.7850 C   0  0  0  0  0  0  0  0  0  0  0  0
  -25.0960  -12.1790   20.6190 C   0  0  0  0  0  0  0  0  0  0  0  0
  -26.7090  -13.4480   20.0020 N   0  0  0  0  0  0  0  0  0  0  0  0
  -26.3610  -12.1520   20.2050 N   0  0  0  0  0  0  0  0  0  0  0  0
  -24.3600  -10.9150   20.7700 C   0  0  0  0  0  0  0  0  0  0  0  0
  -24.7430   -9.9470   21.7240 C   0  0  0  0  0  3  0  0  0  0  0  0
  -24.0080   -8.7500   21.8620 C   0  0  0  0  0  3  0  0  0  0  0  0
  -22.8750   -8.5140   21.0510 C   0  0  0  0  0  0  0  0  0  0  0  0
  -22.5100   -9.4720   20.0890 C   0  0  0  0  0  3  0  0  0  0  0  0
  -23.2440  -10.6600   19.9460 C   0  0  0  0  0  3  0  0  0  0  0  0
  -22.1140   -7.3710   21.1010 O   0  0  0  0  0  0  0  0  0  0  0  0
  -21.8630   -6.7240   22.2850 C   0  0  0  0  0  0  0  0  0  0  0  0
  -21.2050   -7.3620   23.3590 C   0  0  0  0  0  3  0  0  0  0  0  0
  -20.9070   -6.6370   24.5310 C   0  0  0  0  0  3  0  0  0  0  0  0
  -21.2580   -5.2770   24.6270 C   0  0  0  0  0  0  0  0  0  0  0  0
  -21.9070   -4.6390   23.5550 C   0  0  0  0  0  3  0  0  0  0  0  0
  -22.2060   -5.3610   22.3860 C   0  0  0  0  0  0  0  0  0  0  0  0
  -22.8140   -4.7350   21.3490 F   0  0  0  0  0  0  0  0  0  0  0  0
  -20.9640   -4.5780   25.7490 F   0  0  0  0  0  0  0  0  0  0  0  0
  -23.2970  -14.0090   21.1920 C   0  0  0  0  0  0  0  0  0  0  0  0
  -22.6160  -13.2750   22.0660 N   0  0  0  0  0  0  0  0  0  0  0  0
  -22.8420  -15.0670   20.7640 O   0  0  0  0  0  0  0  0  0  0  0  0
  -22.9890  -12.4210   22.4510 H   0  0  0  0  0  0  0  0  0  0  0  0
  -21.7010  -13.5870   22.3630 H   0  0  0  0  0  0  0  0  0  0  0  0
  -25.8810  -15.6940   20.3060 N   0  0  0  0  0  0  0  0  0  0  0  0
  -25.1400  -16.3460   20.5400 H   0  0  0  0  0  0  0  0  0  0  0  0
  -26.7100  -16.1490   19.9460 H   0  0  0  0  0  0  0  0  0  0  0  0
  1  7  1  0
  2  4  2  0
  3  2  1  0
  3  1  2  0
  4  7  1  0
  4  5  1  0
  7  6  1  0
  8 10  1  0
  8  3  1  0
  9 20  2  0
 10 15  1  0
 11 19  1  0
 11 21  1  0
 12 18  1  0
 12 14  1  0
 13 19  1  0
 14 13  1  0
 15 14  2  0
 16 17  1  0
 16 10  2  0
 17 12  2  0
 18 11  1  0
 19  9  1  0
 21 23  2  0
 22 21  1  0
 24 22  1  0
 25 34  2  0
 25 30  1  0
 26 22  1  0
 26 30  1  0
 27 26  1  0
 28 29  1  0
 28 27  1  0
 29 25  1  0
 30 31  2  0
 31 32  1  0
 33 32  2  0
 34 33  1  0
 35  9  1  0
 35 40  1  0
 35 36  1  0
 36 39  1  1
 36 37  1  0
 38 36  1  0
 40 43  1  0
 41 40  1  0
 41 45  1  0
 42 41  2  0
 45 44  1  0
 45 47  1  0
 47 48  1  0
 47 46  1  0
 49 50  2  0
 49  2  1  0
 51 52  2  0
 51 50  1  0
 53 59  1  0
 53 52  1  0
 54 59  1  0
 55 56  1  0
 55 54  1  0
 57 56  1  0
 57 64  1  0
 57 58  1  0
 59 58  1  0
 60 53  2  0
 61 62  2  0
 62 81  1  0
 63 66  1  0
 63 62  1  0
 64 65  1  0
 64 61  1  0
 65 63  2  0
 66 67  1  0
 67 68  2  0
 69 72  1  0
 69 68  1  0
 70 69  2  0
 71 70  1  0
 71 66  2  0
 72 73  1  0
 73 78  2  0
 73 74  1  0
 74 75  2  0
 75 76  1  0
 76 80  1  0
 77 76  2  0
 78 77  1  0
 79 78  1  0
 81 82  1  0
 82 85  1  0
 82 84  1  0
 83 81  2  0
 86 61  1  0
 86 87  1  0
 88 86  1  0
M  ISO  4   3 101   8 101  52 100  53 100
M  END
>  <TORSDO>  (35) 
F 20

>  <SCORE>  (35) 
-12.131

>  <name>  (35) 
35

>  <ligand_id>  (35) 
35

>  <original_smiles>  (35) 
[H]c1c([H])c([H])c2c(c1[H])C([H])([H])C([H])([H])C([H])([H])C2([H])N([H])C(=O)C1([H])N(C(=O)C([H])(N([H])C(=O)C([H])(N([H])C([H])([H])[H])C([H])([H])[H])C(C([H])([H])[H])(C([H])([H])[H])C([H])([H])[H])C([H])([H])c2c([H])c(Oc3c(C([H])([H])C([H])([H])C([H])([H])C([H])([H])C(=O)N4C([H])([H])C([H])([H])C([H])([H])C([H])(n5nc(-c6c([H])c([H])c(Oc7c([H])c([H])c(F)c([H])c7F)c([H])c6[H])c(C(=O)N([H])[H])c5N([H])[H])C4([H])[H])c(C([H])([H])[H])n(C([H])([H])[H])c3[H])c([H])c([H])c2C1([H])[H]

>  <smiles>  (35) 
[H]c1c([H])c([H])c2c(c1[H])C([H])([H])C([H])([H])C([H])([H])C2([H])N([H])C(=O)C1([H])N(C(=O)C([H])(N([H])C(=O)C([H])(N([H])C([H])([H])[H])C([H])([H])[H])C(C([H])([H])[H])(C([H])([H])[H])C([H])([H])[H])C([H])([H])c2c([H])c(Oc3c(C([H])([H])C([H])([H])C([H])([H])C([H])([H])C(=O)N4C([H])([H])C([H])([H])C([H])([H])C([H])(n5nc(-c6c([H])c([H])c(Oc7c([H])c([H])c(F)c([H])c7F)c([H])c6[H])c(C(=O)N([H])[H])c5N([H])[H])C4([H])[H])c(C([H])([H])[H])n(C([H])([H])[H])c3[H])c([H])c([H])c2C1([H])[H]

$$$$
36:0:0
     RDKit          3D

 93101  0  0  1  0  0  0  0  0999 V2000
  -31.1950  -18.2080   21.4440 C   0  0  0  0  0  3  0  0  0  0  0  0
  -31.8560  -19.4170   21.7310 C   0  0  0  0  0  0  0  0  0  0  0  0
  -30.0700  -18.1780   20.5980 C   0  0  0  0  0  0  0  0  0  0  0  0
  -31.3990  -20.6360   21.1720 C   0  0  0  0  0  0  0  0  0  0  0  0
  -29.5810  -19.4110   20.0550 C   0  0  0  0  0  0  0  0  0  0  0  0
  -30.2640  -20.6430   20.3130 C   0  0  0  0  0  0  0  0  0  0  0  0
  -33.0960  -19.3670   22.6110 C   0  0  0  0  0  1  0  0  0  0  0  0
  -32.1790  -21.9190   21.4630 C   0  0  0  0  0  1  0  0  0  0  0  0
  -28.3440  -19.4140   19.1560 C   0  0  0  0  0  1  0  0  0  0  0  0
  -29.8660  -21.9560   19.5910 C   0  0  0  0  0  2  0  0  0  0  0  0
  -28.9820  -22.9510   20.3980 C   0  0  0  0  0  2  0  0  0  0  0  0
  -28.9310  -24.3800   19.7830 C   0  0  0  0  0  2  0  0  0  0  0  0
  -28.1050  -25.4010   20.6050 C   0  0  0  0  0  2  0  0  0  0  0  0
  -28.1980  -26.7420   20.0820 O   0  0  0  0  0  0  0  0  0  0  0  0
  -24.5040  -31.9530   23.2750 C   0  0  0  0  0  0  0  0  0  0  0  0
  -27.0410  -27.4970   20.1180 C   0  0  0  0  0  0  0  0  0  0  0  0
  -23.2540  -30.5790   21.6420 C   0  0  0  0  0  3  0  0  0  0  0  0
  -24.6640  -29.0370   20.1770 C   0  0  0  0  0  0  0  0  0  0  0  0
  -25.7800  -30.9080   21.4030 C   0  0  0  0  0  2  0  0  0  0  0  0
  -25.8390  -29.5420   20.7510 C   0  0  0  0  0  0  0  0  0  0  0  0
  -27.0320  -28.7800   20.7140 C   0  0  0  0  0  3  0  0  0  0  0  0
  -25.8520  -27.0130   19.5310 C   0  0  0  0  0  3  0  0  0  0  0  0
  -24.6660  -27.7730   19.5630 C   0  0  0  0  0  3  0  0  0  0  0  0
  -23.4310  -29.9090   20.2530 C   0  0  0  0  0  2  0  0  0  0  0  0
  -24.5320  -31.1620   22.1650 N   0  0  0  0  0  0  0  0  0  0  0  0
  -23.4360  -32.2330   23.8360 O   0  0  0  0  0  0  0  0  0  0  0  0
  -22.6070  -29.5570   22.6040 C   0  0  0  0  0  0  0  0  0  0  0  0
  -21.2820  -29.3720   22.4800 N   0  0  0  0  0  0  0  0  0  0  0  0
  -23.2940  -28.9340   23.4200 O   0  0  0  0  0  0  0  0  0  0  0  0
  -20.7910  -29.9220   21.7900 H   0  0  0  0  0  0  0  0  0  0  0  0
  -17.9170  -28.1510   22.9630 C   0  0  0  0  0  0  0  0  0  0  0  0
  -20.4690  -28.4340   23.2530 C   0  0  0  0  0  3  0  0  0  0  0  0
  -20.5890  -26.9990   22.6880 C   0  0  0  0  0  2  0  0  0  0  0  0
  -19.4980  -26.6590   21.6690 C   0  0  0  0  0  2  0  0  0  0  0  0
  -18.1090  -26.7970   22.3000 C   0  0  0  0  0  2  0  0  0  0  0  0
  -19.0240  -28.9260   23.3950 C   0  0  0  0  0  0  0  0  0  0  0  0
  -18.7900  -30.1930   23.9720 C   0  0  0  0  0  3  0  0  0  0  0  0
  -17.4800  -30.6850   24.1230 C   0  0  0  0  0  3  0  0  0  0  0  0
  -16.3860  -29.9060   23.7080 C   0  0  0  0  0  3  0  0  0  0  0  0
  -16.6040  -28.6420   23.1320 C   0  0  0  0  0  3  0  0  0  0  0  0
  -25.8090  -32.5620   23.8770 C   0  0  0  0  0  3  0  0  0  0  0  0
  -25.5320  -33.9670   24.2010 N   0  0  0  0  0  0  0  0  0  0  0  0
  -25.8820  -35.0070   23.4330 C   0  0  0  0  0  0  0  0  0  0  0  0
  -26.5450  -34.8840   22.3980 O   0  0  0  0  0  0  0  0  0  0  0  0
  -24.9460  -34.1390   25.0050 H   0  0  0  0  0  0  0  0  0  0  0  0
  -24.1980  -36.8380   23.0610 C   0  0  0  0  0  1  0  0  0  0  0  0
  -25.4250  -36.4090   23.8820 C   0  0  0  0  0  3  0  0  0  0  0  0
  -27.5730  -37.2470   24.7230 C   0  0  0  0  0  1  0  0  0  0  0  0
  -26.4830  -37.4360   23.7710 N   0  0  0  0  0  0  0  0  0  0  0  0
  -26.0970  -38.3660   23.9110 H   0  0  0  0  0  0  0  0  0  0  0  0
  -26.3270  -31.7870   25.1520 C   0  0  1  0  0  0  0  0  0  0  0  0
  -25.2430  -31.5750   26.2330 C   0  0  0  0  0  1  0  0  0  0  0  0
  -26.8810  -30.3970   24.7580 C   0  0  0  0  0  1  0  0  0  0  0  0
  -27.4990  -32.5650   25.7950 C   0  0  0  0  0  1  0  0  0  0  0  0
  -29.4510  -16.8170   20.2150 C   0  0  0  0  0  2  0  0  0  0  0  0
  -30.5660  -14.6080   20.6160 C   0  0  0  0  0  0  0  0  0  0  0  0
  -30.4200  -12.3740   19.5860 C   0  0  0  0  0  2  0  0  0  0  0  0
  -29.5240  -12.5030   18.3340 C   0  0  0  0  0  2  0  0  0  0  0  0
  -28.0340  -12.3480   18.7020 C   0  0  0  0  0  2  0  0  0  0  0  0
  -27.6230  -13.2180   19.9190 C   0  0  0  0  0  3  0  0  0  0  0  0
  -28.6350  -13.0550   21.0790 C   0  0  0  0  0  2  0  0  0  0  0  0
  -29.9770  -13.3810   20.5650 N   0  0  0  0  0  0  0  0  0  0  0  0
  -31.6860  -14.8330   20.1460 O   0  0  0  0  0  0  0  0  0  0  0  0
  -29.7510  -15.6070   21.0110 N   0  0  0  0  0  0  0  0  0  0  0  0
  -28.9630  -15.2820   21.5510 H   0  0  0  0  0  0  0  0  0  0  0  0
  -25.1890  -13.8020   20.5220 C   0  0  0  0  0  0  0  0  0  0  0  0
  -24.1170  -13.0200   20.8620 C   0  0  0  0  0  0  0  0  0  0  0  0
  -24.5980  -11.6750   20.8680 C   0  0  0  0  0  0  0  0  0  0  0  0
  -26.2540  -12.9330   20.3450 N   0  0  0  0  0  0  0  0  0  0  0  0
  -25.9000  -11.6490   20.6100 N   0  0  0  0  0  0  0  0  0  0  0  0
  -23.8820  -10.4050   21.0490 C   0  0  0  0  0  0  0  0  0  0  0  0
  -24.2960   -9.4550   22.0080 C   0  0  0  0  0  3  0  0  0  0  0  0
  -23.5800   -8.2490   22.1750 C   0  0  0  0  0  3  0  0  0  0  0  0
  -22.4390   -7.9850   21.3830 C   0  0  0  0  0  0  0  0  0  0  0  0
  -22.0450   -8.9250   20.4130 C   0  0  0  0  0  3  0  0  0  0  0  0
  -22.7600  -10.1220   20.2450 C   0  0  0  0  0  3  0  0  0  0  0  0
  -21.6980   -6.8320   21.4570 O   0  0  0  0  0  0  0  0  0  0  0  0
  -21.6150   -6.1040   22.6160 C   0  0  0  0  0  0  0  0  0  0  0  0
  -21.1180   -6.6630   23.8130 C   0  0  0  0  0  3  0  0  0  0  0  0
  -20.9860   -5.8600   24.9630 C   0  0  0  0  0  3  0  0  0  0  0  0
  -21.3400   -4.4990   24.9190 C   0  0  0  0  0  0  0  0  0  0  0  0
  -21.8300   -3.9390   23.7260 C   0  0  0  0  0  3  0  0  0  0  0  0
  -21.9640   -4.7390   22.5770 C   0  0  0  0  0  0  0  0  0  0  0  0
  -22.4170   -4.1890   21.4250 F   0  0  0  0  0  0  0  0  0  0  0  0
  -21.2050   -3.7260   26.0210 F   0  0  0  0  0  0  0  0  0  0  0  0
  -22.7050  -13.4810   21.0750 C   0  0  0  0  0  0  0  0  0  0  0  0
  -21.9530  -12.7880   21.9240 N   0  0  0  0  0  0  0  0  0  0  0  0
  -22.2730  -14.4920   20.5220 O   0  0  0  0  0  0  0  0  0  0  0  0
  -22.3130  -11.9720   22.3950 H   0  0  0  0  0  0  0  0  0  0  0  0
  -21.0040  -13.0820   22.1060 H   0  0  0  0  0  0  0  0  0  0  0  0
  -25.3420  -15.1730   20.3290 N   0  0  0  0  0  0  0  0  0  0  0  0
  -24.5620  -15.8170   20.3970 H   0  0  0  0  0  0  0  0  0  0  0  0
  -26.1910  -15.6150   20.0040 H   0  0  0  0  0  0  0  0  0  0  0  0
  1  2  1  0
  2  7  1  0
  3  1  2  0
  4  8  1  0
  4  2  2  0
  5  6  2  0
  5  3  1  0
  6  4  1  0
  9  5  1  0
 10  6  1  0
 10 11  1  0
 12 11  1  0
 12 13  1  0
 14 16  1  0
 14 13  1  0
 15 26  2  0
 16 21  1  0
 17 25  1  0
 17 27  1  0
 18 24  1  0
 18 20  1  0
 19 25  1  0
 20 19  1  0
 21 20  2  0
 22 23  1  0
 22 16  2  0
 23 18  2  0
 24 17  1  0
 25 15  1  0
 27 29  2  0
 28 27  1  0
 30 28  1  0
 31 40  2  0
 31 36  1  0
 32 28  1  0
 32 36  1  0
 33 32  1  0
 34 35  1  0
 34 33  1  0
 35 31  1  0
 36 37  2  0
 37 38  1  0
 39 38  2  0
 40 39  1  0
 41 15  1  0
 41 42  1  0
 41 51  1  0
 42 45  1  0
 43 47  1  0
 43 42  1  0
 44 43  2  0
 47 46  1  0
 49 47  1  0
 49 50  1  0
 49 48  1  0
 51 54  1  1
 51 52  1  0
 53 51  1  0
 55  3  1  0
 55 64  1  0
 56 64  1  0
 57 62  1  0
 58 59  1  0
 58 57  1  0
 60 59  1  0
 60 69  1  0
 60 61  1  0
 62 56  1  0
 62 61  1  0
 63 56  2  0
 64 65  1  0
 66 67  2  0
 67 68  1  0
 67 86  1  0
 68 71  1  0
 69 66  1  0
 69 70  1  0
 70 68  2  0
 71 72  1  0
 72 73  2  0
 74 77  1  0
 74 73  1  0
 75 74  2  0
 76 75  1  0
 76 71  2  0
 77 78  1  0
 78 79  1  0
 79 80  2  0
 81 80  1  0
 81 85  1  0
 82 81  2  0
 83 78  2  0
 83 82  1  0
 84 83  1  0
 86 87  1  0
 87 90  1  0
 87 89  1  0
 88 86  2  0
 91 92  1  0
 91 66  1  0
 93 91  1  0
M  ISO  4  13 101  14 101  56 100  64 100
M  END
>  <TORSDO>  (36) 
F 21

>  <SCORE>  (36) 
-13.123

>  <name>  (36) 
36

>  <ligand_id>  (36) 
36

>  <original_smiles>  (36) 
[H]c1c([H])c([H])c2c(c1[H])C([H])([H])C([H])([H])C([H])([H])C2([H])N([H])C(=O)C1([H])N(C(=O)C([H])(N([H])C(=O)C([H])(N([H])C([H])([H])[H])C([H])([H])[H])C(C([H])([H])[H])(C([H])([H])[H])C([H])([H])[H])C([H])([H])c2c([H])c(OC([H])([H])C([H])([H])C([H])([H])C([H])([H])c3c(C([H])([H])[H])c(C([H])([H])[H])c([H])c(C([H])([H])N([H])C(=O)N4C([H])([H])C([H])([H])C([H])([H])C([H])(n5nc(-c6c([H])c([H])c(Oc7c([H])c([H])c(F)c([H])c7F)c([H])c6[H])c(C(=O)N([H])[H])c5N([H])[H])C4([H])[H])c3C([H])([H])[H])c([H])c([H])c2C1([H])[H]

>  <smiles>  (36) 
[H]c1c([H])c([H])c2c(c1[H])C([H])([H])C([H])([H])C([H])([H])C2([H])N([H])C(=O)C1([H])N(C(=O)C([H])(N([H])C(=O)C([H])(N([H])C([H])([H])[H])C([H])([H])[H])C(C([H])([H])[H])(C([H])([H])[H])C([H])([H])[H])C([H])([H])c2c([H])c(OC([H])([H])C([H])([H])C([H])([H])C([H])([H])c3c(C([H])([H])[H])c(C([H])([H])[H])c([H])c(C([H])([H])N([H])C(=O)N4C([H])([H])C([H])([H])C([H])([H])C([H])(n5nc(-c6c([H])c([H])c(Oc7c([H])c([H])c(F)c([H])c7F)c([H])c6[H])c(C(=O)N([H])[H])c5N([H])[H])C4([H])[H])c3C([H])([H])[H])c([H])c([H])c2C1([H])[H]

$$$$
37:0:0
     RDKit          3D

 93101  0  0  1  0  0  0  0  0999 V2000
  -30.7070  -20.8470   21.3830 C   0  0  0  0  0  0  0  0  0  0  0  0
  -30.2180  -21.6300   22.4500 C   0  0  0  0  0  0  0  0  0  0  0  0
  -30.6840  -21.4670   20.1130 C   0  0  0  0  0  0  0  0  0  0  0  0
  -30.0310  -23.4520   21.0600 C   0  0  0  0  0  0  0  0  0  0  0  0
  -30.0410  -21.0600   23.8460 C   0  0  0  0  0  1  0  0  0  0  0  0
  -29.8850  -22.9290   22.2780 N   0  0  0  0  0  0  0  0  0  0  0  0
  -30.3590  -22.7640   19.9740 N   0  0  0  0  0  0  0  0  0  0  0  0
  -32.5350  -21.0480   18.4420 C   0  0  0  0  0  1  0  0  0  0  0  0
  -31.0780  -20.7690   18.8210 C   0  0  0  0  0  2  0  0  0  0  0  0
  -31.3310  -19.4610   21.6080 C   0  0  0  0  0  2  0  0  0  0  0  0
  -30.3950  -18.2410   21.4550 C   0  0  0  0  0  2  0  0  0  0  0  0
  -31.2400  -16.9980   21.1120 C   0  0  0  0  0  2  0  0  0  0  0  0
  -31.1190  -14.6740   20.3550 C   0  0  0  0  0  0  0  0  0  0  0  0
  -30.7040  -12.5680   19.1530 C   0  0  0  0  0  2  0  0  0  0  0  0
  -29.7680  -12.8400   17.9570 C   0  0  0  0  0  2  0  0  0  0  0  0
  -28.2880  -12.7600   18.3940 C   0  0  0  0  0  2  0  0  0  0  0  0
  -27.9900  -13.5610   19.6920 C   0  0  0  0  0  3  0  0  0  0  0  0
  -29.0520  -13.2940   20.7800 C   0  0  0  0  0  2  0  0  0  0  0  0
  -30.3740  -13.5520   20.1950 N   0  0  0  0  0  0  0  0  0  0  0  0
  -32.2610  -14.7900   19.8990 O   0  0  0  0  0  0  0  0  0  0  0  0
  -30.5150  -15.7380   20.9120 N   0  0  0  0  0  0  0  0  0  0  0  0
  -29.5430  -15.6600   21.1700 H   0  0  0  0  0  0  0  0  0  0  0  0
  -25.5940  -14.1770   20.4070 C   0  0  0  0  0  0  0  0  0  0  0  0
  -24.5210  -13.4120   20.7750 C   0  0  0  0  0  0  0  0  0  0  0  0
  -24.9720  -12.0580   20.7480 C   0  0  0  0  0  0  0  0  0  0  0  0
  -26.6360  -13.2910   20.1840 N   0  0  0  0  0  0  0  0  0  0  0  0
  -26.2660  -12.0110   20.4470 N   0  0  0  0  0  0  0  0  0  0  0  0
  -24.2350  -10.8010   20.9400 C   0  0  0  0  0  0  0  0  0  0  0  0
  -24.6280   -9.8580   21.9110 C   0  0  0  0  0  3  0  0  0  0  0  0
  -23.8990   -8.6630   22.0890 C   0  0  0  0  0  3  0  0  0  0  0  0
  -22.7560   -8.4040   21.2970 C   0  0  0  0  0  0  0  0  0  0  0  0
  -22.3780   -9.3390   20.3180 C   0  0  0  0  0  3  0  0  0  0  0  0
  -23.1100  -10.5260   20.1370 C   0  0  0  0  0  3  0  0  0  0  0  0
  -21.9940   -7.2650   21.3870 O   0  0  0  0  0  0  0  0  0  0  0  0
  -21.8710   -6.5720   22.5630 C   0  0  0  0  0  0  0  0  0  0  0  0
  -21.3290   -7.1640   23.7240 C   0  0  0  0  0  3  0  0  0  0  0  0
  -21.1500   -6.3960   24.8890 C   0  0  0  0  0  3  0  0  0  0  0  0
  -21.5010   -5.0320   24.8980 C   0  0  0  0  0  0  0  0  0  0  0  0
  -22.0340   -4.4390   23.7400 C   0  0  0  0  0  3  0  0  0  0  0  0
  -22.2150   -5.2040   22.5770 C   0  0  0  0  0  0  0  0  0  0  0  0
  -22.7070   -4.6180   21.4600 F   0  0  0  0  0  0  0  0  0  0  0  0
  -21.3260   -4.2940   26.0190 F   0  0  0  0  0  0  0  0  0  0  0  0
  -23.1270  -13.9030   21.0500 C   0  0  0  0  0  0  0  0  0  0  0  0
  -22.3930  -13.2140   21.9170 N   0  0  0  0  0  0  0  0  0  0  0  0
  -22.7010  -14.9380   20.5360 O   0  0  0  0  0  0  0  0  0  0  0  0
  -22.7470  -12.3830   22.3670 H   0  0  0  0  0  0  0  0  0  0  0  0
  -21.4620  -13.5360   22.1430 H   0  0  0  0  0  0  0  0  0  0  0  0
  -25.7690  -15.5430   20.2210 N   0  0  0  0  0  0  0  0  0  0  0  0
  -24.9900  -16.1930   20.2500 H   0  0  0  0  0  0  0  0  0  0  0  0
  -26.6310  -15.9750   19.9150 H   0  0  0  0  0  0  0  0  0  0  0  0
  -29.8980  -24.9680   20.8870 C   0  0  0  0  0  2  0  0  0  0  0  0
  -28.5670  -25.4500   20.2710 C   0  0  0  0  0  2  0  0  0  0  0  0
  -28.6200  -26.8580   19.9600 O   0  0  0  0  0  0  0  0  0  0  0  0
  -24.5750  -31.7380   23.1130 C   0  0  0  0  0  0  0  0  0  0  0  0
  -27.4190  -27.5310   19.9180 C   0  0  0  0  0  0  0  0  0  0  0  0
  -23.4270  -30.3300   21.4290 C   0  0  0  0  0  3  0  0  0  0  0  0
  -24.9500  -28.9090   19.9520 C   0  0  0  0  0  0  0  0  0  0  0  0
  -25.9270  -30.8290   21.2280 C   0  0  0  0  0  2  0  0  0  0  0  0
  -26.0790  -29.4810   20.5530 C   0  0  0  0  0  0  0  0  0  0  0  0
  -27.3160  -28.8010   20.5260 C   0  0  0  0  0  3  0  0  0  0  0  0
  -26.2790  -26.9810   19.2880 C   0  0  0  0  0  3  0  0  0  0  0  0
  -25.0460  -27.6610   19.3090 C   0  0  0  0  0  3  0  0  0  0  0  0
  -23.6610  -29.6970   20.0310 C   0  0  0  0  0  2  0  0  0  0  0  0
  -24.6610  -30.9800   21.9820 N   0  0  0  0  0  0  0  0  0  0  0  0
  -23.4870  -31.9370   23.6700 O   0  0  0  0  0  0  0  0  0  0  0  0
  -22.8350  -29.2490   22.3640 C   0  0  0  0  0  0  0  0  0  0  0  0
  -21.5240  -28.9960   22.2300 N   0  0  0  0  0  0  0  0  0  0  0  0
  -23.5520  -28.6420   23.1650 O   0  0  0  0  0  0  0  0  0  0  0  0
  -21.0020  -29.5440   21.5610 H   0  0  0  0  0  0  0  0  0  0  0  0
  -18.2270  -27.5830   22.6650 C   0  0  0  0  0  0  0  0  0  0  0  0
  -20.7610  -27.9930   22.9750 C   0  0  0  0  0  3  0  0  0  0  0  0
  -20.9560  -26.5810   22.3720 C   0  0  0  0  0  2  0  0  0  0  0  0
  -19.8880  -26.2140   21.3380 C   0  0  0  0  0  2  0  0  0  0  0  0
  -18.4940  -26.2600   21.9690 C   0  0  0  0  0  2  0  0  0  0  0  0
  -19.2910  -28.4040   23.1240 C   0  0  0  0  0  0  0  0  0  0  0  0
  -18.9860  -29.6400   23.7340 C   0  0  0  0  0  3  0  0  0  0  0  0
  -17.6510  -30.0560   23.8900 C   0  0  0  0  0  3  0  0  0  0  0  0
  -16.6010  -29.2310   23.4480 C   0  0  0  0  0  3  0  0  0  0  0  0
  -16.8920  -27.9970   22.8410 C   0  0  0  0  0  3  0  0  0  0  0  0
  -25.8340  -32.4100   23.7470 C   0  0  0  0  0  3  0  0  0  0  0  0
  -25.4660  -33.7840   24.1080 N   0  0  0  0  0  0  0  0  0  0  0  0
  -25.7560  -34.8650   23.3750 C   0  0  0  0  0  0  0  0  0  0  0  0
  -26.4320  -34.8130   22.3410 O   0  0  0  0  0  0  0  0  0  0  0  0
  -24.8580  -33.8920   24.9070 H   0  0  0  0  0  0  0  0  0  0  0  0
  -23.9420  -36.5790   23.0660 C   0  0  0  0  0  1  0  0  0  0  0  0
  -25.2080  -36.2200   23.8600 C   0  0  0  0  0  3  0  0  0  0  0  0
  -27.2990  -37.1950   24.7000 C   0  0  0  0  0  1  0  0  0  0  0  0
  -26.1910  -37.3220   23.7580 N   0  0  0  0  0  0  0  0  0  0  0  0
  -25.7430  -38.2210   23.9150 H   0  0  0  0  0  0  0  0  0  0  0  0
  -26.3880  -31.6340   25.0030 C   0  0  1  0  0  0  0  0  0  0  0  0
  -25.3100  -31.3250   26.0680 C   0  0  0  0  0  1  0  0  0  0  0  0
  -27.0290  -30.2930   24.5730 C   0  0  0  0  0  1  0  0  0  0  0  0
  -27.5040  -32.4620   25.6810 C   0  0  0  0  0  1  0  0  0  0  0  0
  1 10  1  0
  1  2  2  0
  2  5  1  0
  3  1  1  0
  4  6  2  0
  6  2  1  0
  7  3  2  0
  7  4  1  0
  8  9  1  0
  9  3  1  0
 11 10  1  0
 12 11  1  0
 13 21  1  0
 14 19  1  0
 15 16  1  0
 15 14  1  0
 17 16  1  0
 17 26  1  0
 17 18  1  0
 19 13  1  0
 19 18  1  0
 20 13  2  0
 21 12  1  0
 21 22  1  0
 23 24  2  0
 24 43  1  0
 25 24  1  0
 25 28  1  0
 26 23  1  0
 26 27  1  0
 27 25  2  0
 28 29  1  0
 29 30  2  0
 31 34  1  0
 31 30  1  0
 32 31  2  0
 33 32  1  0
 33 28  2  0
 34 35  1  0
 35 40  2  0
 35 36  1  0
 36 37  2  0
 37 38  1  0
 38 42  1  0
 39 38  2  0
 40 39  1  0
 41 40  1  0
 43 44  1  0
 44 47  1  0
 44 46  1  0
 45 43  2  0
 48 49  1  0
 48 23  1  0
 50 48  1  0
 51  4  1  0
 52 51  1  0
 53 52  1  0
 54 65  2  0
 55 53  1  0
 55 60  1  0
 56 64  1  0
 56 66  1  0
 57 63  1  0
 57 59  1  0
 58 64  1  0
 59 58  1  0
 60 59  2  0
 61 62  1  0
 61 55  2  0
 62 57  2  0
 63 56  1  0
 64 54  1  0
 66 68  2  0
 67 66  1  0
 69 67  1  0
 70 79  2  0
 70 75  1  0
 71 67  1  0
 71 75  1  0
 72 71  1  0
 73 74  1  0
 73 72  1  0
 74 70  1  0
 75 76  2  0
 76 77  1  0
 78 77  2  0
 79 78  1  0
 80 54  1  0
 80 81  1  0
 80 90  1  0
 81 84  1  0
 82 86  1  0
 82 81  1  0
 83 82  2  0
 86 85  1  0
 88 86  1  0
 88 89  1  0
 88 87  1  0
 90 93  1  1
 90 91  1  0
 92 90  1  0
M  ISO  4  13 100  21 100  52 101  53 101
M  END
>  <TORSDO>  (37) 
F 22

>  <SCORE>  (37) 
-12.780

>  <name>  (37) 
37

>  <ligand_id>  (37) 
37

>  <original_smiles>  (37) 
[H]c1c([H])c([H])c2c(c1[H])C([H])([H])C([H])([H])C([H])([H])C2([H])N([H])C(=O)C1([H])N(C(=O)C([H])(N([H])C(=O)C([H])(N([H])C([H])([H])[H])C([H])([H])[H])C(C([H])([H])[H])(C([H])([H])[H])C([H])([H])[H])C([H])([H])c2c([H])c(OC([H])([H])C([H])([H])c3nc(C([H])([H])[H])c(C([H])([H])C([H])([H])C([H])([H])N([H])C(=O)N4C([H])([H])C([H])([H])C([H])([H])C([H])(n5nc(-c6c([H])c([H])c(Oc7c([H])c([H])c(F)c([H])c7F)c([H])c6[H])c(C(=O)N([H])[H])c5N([H])[H])C4([H])[H])c(C([H])([H])C([H])([H])[H])n3)c([H])c([H])c2C1([H])[H]

>  <smiles>  (37) 
[H]c1c([H])c([H])c2c(c1[H])C([H])([H])C([H])([H])C([H])([H])C2([H])N([H])C(=O)C1([H])N(C(=O)C([H])(N([H])C(=O)C([H])(N([H])C([H])([H])[H])C([H])([H])[H])C(C([H])([H])[H])(C([H])([H])[H])C([H])([H])[H])C([H])([H])c2c([H])c(OC([H])([H])C([H])([H])c3nc(C([H])([H])[H])c(C([H])([H])C([H])([H])C([H])([H])N([H])C(=O)N4C([H])([H])C([H])([H])C([H])([H])C([H])(n5nc(-c6c([H])c([H])c(Oc7c([H])c([H])c(F)c([H])c7F)c([H])c6[H])c(C(=O)N([H])[H])c5N([H])[H])C4([H])[H])c(C([H])([H])C([H])([H])[H])n3)c([H])c([H])c2C1([H])[H]

$$$$
38:0:0
     RDKit          3D

102110  0  0  1  0  0  0  0  0999 V2000
  -24.1440  -24.7050   22.1890 C   0  0  0  0  0  2  0  0  0  0  0  0
  -25.5470  -22.9940   20.9140 C   0  0  0  0  0  3  0  0  0  0  0  0
  -26.2330  -25.3220   20.8900 C   0  0  0  0  0  3  0  0  0  0  0  0
  -25.3620  -24.3200   21.3540 C   0  0  0  0  0  0  0  0  0  0  0  0
  -26.5600  -22.6850   19.9820 C   0  0  0  0  0  0  0  0  0  0  0  0
  -27.1280  -25.0710   19.8220 C   0  0  0  0  0  0  0  0  0  0  0  0
  -27.3380  -23.7270   19.4070 C   0  0  0  0  0  0  0  0  0  0  0  0
  -26.7430  -21.2330   19.5710 C   0  0  0  0  0  1  0  0  0  0  0  0
  -28.3880  -23.4100   18.3440 C   0  0  0  0  0  1  0  0  0  0  0  0
  -27.7680  -26.2320   19.0260 C   0  0  0  0  0  2  0  0  0  0  0  0
  -27.4020  -27.5830   19.3550 O   0  0  0  0  0  0  0  0  0  0  0  0
  -22.8030  -31.8460   22.5970 C   0  0  0  0  0  0  0  0  0  0  0  0
  -26.0850  -27.9970   19.3430 C   0  0  0  0  0  0  0  0  0  0  0  0
  -21.8010  -30.0670   21.2040 C   0  0  0  0  0  3  0  0  0  0  0  0
  -23.4020  -28.8440   19.6380 C   0  0  0  0  0  0  0  0  0  0  0  0
  -24.1020  -31.0270   20.6370 C   0  0  0  0  0  2  0  0  0  0  0  0
  -24.4490  -29.6790   20.0430 C   0  0  0  0  0  0  0  0  0  0  0  0
  -25.7890  -29.2580   19.9020 C   0  0  0  0  0  3  0  0  0  0  0  0
  -25.0140  -27.1950   18.8770 C   0  0  0  0  0  3  0  0  0  0  0  0
  -23.6790  -27.5960   19.0570 C   0  0  0  0  0  3  0  0  0  0  0  0
  -21.9960  -29.3610   19.8370 C   0  0  0  0  0  2  0  0  0  0  0  0
  -22.9240  -31.0020   21.5350 N   0  0  0  0  0  0  0  0  0  0  0  0
  -21.7650  -31.8820   23.2710 O   0  0  0  0  0  0  0  0  0  0  0  0
  -21.5600  -28.9900   22.2840 C   0  0  0  0  0  0  0  0  0  0  0  0
  -20.3190  -28.4810   22.3550 N   0  0  0  0  0  0  0  0  0  0  0  0
  -22.4800  -28.6070   23.0130 O   0  0  0  0  0  0  0  0  0  0  0  0
  -19.6210  -28.8510   21.7250 H   0  0  0  0  0  0  0  0  0  0  0  0
  -17.4530  -26.5250   23.3550 C   0  0  0  0  0  0  0  0  0  0  0  0
  -19.8700  -27.4340   23.2710 C   0  0  0  0  0  3  0  0  0  0  0  0
  -20.2690  -26.0340   22.7540 C   0  0  0  0  0  2  0  0  0  0  0  0
  -19.1770  -25.3690   21.9100 C   0  0  0  0  0  2  0  0  0  0  0  0
  -17.8900  -25.2130   22.7270 C   0  0  0  0  0  2  0  0  0  0  0  0
  -18.3800  -27.5740   23.5960 C   0  0  0  0  0  0  0  0  0  0  0  0
  -17.9150  -28.7860   24.1490 C   0  0  0  0  0  3  0  0  0  0  0  0
  -16.5550  -28.9590   24.4640 C   0  0  0  0  0  3  0  0  0  0  0  0
  -15.6430  -27.9140   24.2370 C   0  0  0  0  0  3  0  0  0  0  0  0
  -16.0920  -26.6980   23.6890 C   0  0  0  0  0  3  0  0  0  0  0  0
  -23.9530  -32.8200   23.0000 C   0  0  0  0  0  3  0  0  0  0  0  0
  -23.3400  -34.1090   23.3440 N   0  0  0  0  0  0  0  0  0  0  0  0
  -23.2610  -35.1600   22.5150 C   0  0  0  0  0  0  0  0  0  0  0  0
  -23.7730  -35.1670   21.3910 O   0  0  0  0  0  0  0  0  0  0  0  0
  -22.8520  -34.1590   24.2270 H   0  0  0  0  0  0  0  0  0  0  0  0
  -21.0770  -36.4020   22.4190 C   0  0  0  0  0  1  0  0  0  0  0  0
  -22.4950  -36.4010   23.0110 C   0  0  0  0  0  3  0  0  0  0  0  0
  -24.4230  -37.8650   23.4200 C   0  0  0  0  0  1  0  0  0  0  0  0
  -23.1720  -37.6780   22.6900 N   0  0  0  0  0  0  0  0  0  0  0  0
  -22.5640  -38.4680   22.8920 H   0  0  0  0  0  0  0  0  0  0  0  0
  -24.8330  -32.2820   24.1940 C   0  0  1  0  0  0  0  0  0  0  0  0
  -24.0080  -31.8390   25.4230 C   0  0  0  0  0  1  0  0  0  0  0  0
  -25.6880  -31.0770   23.7410 C   0  0  0  0  0  1  0  0  0  0  0  0
  -25.8230  -33.3790   24.6520 C   0  0  0  0  0  1  0  0  0  0  0  0
  -24.0010  -23.9030   23.4130 N   0  0  0  0  0  4  0  0  0  0  0  0
  -24.5460  -23.0640   23.3050 H   0  0  0  0  0  0  0  0  0  0  0  0
  -23.0340  -23.6310   23.4900 H   0  0  0  0  0  0  0  0  0  0  0  0
  -24.3840  -24.5860   24.6640 C   0  0  0  0  0  2  0  0  0  0  0  0
  -25.0720  -23.6060   25.6340 C   0  0  0  0  0  2  0  0  0  0  0  0
  -26.6110  -23.6040   25.5330 C   0  0  0  0  0  2  0  0  0  0  0  0
  -27.1600  -23.6160   24.0980 C   0  0  0  0  0  2  0  0  0  0  0  0
  -28.6870  -23.6260   24.0650 C   0  0  0  0  0  2  0  0  0  0  0  0
  -29.2470  -24.0710   22.7080 C   0  0  0  0  0  2  0  0  0  0  0  0
  -30.7760  -23.9720   22.6970 C   0  0  0  0  0  2  0  0  0  0  0  0
  -31.4300  -24.6620   21.4950 C   0  0  0  0  0  2  0  0  0  0  0  0
  -32.8930  -24.2210   21.3500 C   0  0  0  0  0  2  0  0  0  0  0  0
  -33.6340  -24.9050   20.1910 C   0  0  0  0  0  2  0  0  0  0  0  0
  -35.0480  -24.0380   18.3180 C   0  0  0  0  0  0  0  0  0  0  0  0
  -35.8110  -22.8550   16.2950 C   0  0  0  0  0  2  0  0  0  0  0  0
  -34.6680  -22.7400   15.2660 C   0  0  0  0  0  2  0  0  0  0  0  0
  -33.7570  -21.5310   15.5600 C   0  0  0  0  0  2  0  0  0  0  0  0
  -33.3200  -21.4530   17.0460 C   0  0  0  0  0  3  0  0  0  0  0  0
  -34.5550  -21.5950   17.9610 C   0  0  0  0  0  2  0  0  0  0  0  0
  -35.2230  -22.8760   17.6420 N   0  0  0  0  0  0  0  0  0  0  0  0
  -35.4460  -25.1400   17.9260 O   0  0  0  0  0  0  0  0  0  0  0  0
  -34.3540  -23.8870   19.4470 N   0  0  0  0  0  0  0  0  0  0  0  0
  -34.1290  -22.9330   19.6840 H   0  0  0  0  0  0  0  0  0  0  0  0
  -31.2960  -20.0530   17.8250 C   0  0  0  0  0  0  0  0  0  0  0  0
  -31.0610  -18.7040   17.8170 C   0  0  0  0  0  0  0  0  0  0  0  0
  -32.2380  -18.1020   17.2760 C   0  0  0  0  0  0  0  0  0  0  0  0
  -32.5770  -20.2210   17.3160 N   0  0  0  0  0  0  0  0  0  0  0  0
  -33.1560  -19.0280   17.0290 N   0  0  0  0  0  0  0  0  0  0  0  0
  -32.5230  -16.7050   16.9230 C   0  0  0  0  0  0  0  0  0  0  0  0
  -33.7020  -16.0610   17.3580 C   0  0  0  0  0  3  0  0  0  0  0  0
  -33.9460  -14.7120   17.0250 C   0  0  0  0  0  3  0  0  0  0  0  0
  -33.0050  -13.9920   16.2520 C   0  0  0  0  0  0  0  0  0  0  0  0
  -31.8420  -14.6440   15.8040 C   0  0  0  0  0  3  0  0  0  0  0  0
  -31.6030  -15.9880   16.1320 C   0  0  0  0  0  3  0  0  0  0  0  0
  -33.1700  -12.6860   15.8560 O   0  0  0  0  0  0  0  0  0  0  0  0
  -33.9690  -11.8170   16.5550 C   0  0  0  0  0  0  0  0  0  0  0  0
  -33.7670  -11.5590   17.9280 C   0  0  0  0  0  3  0  0  0  0  0  0
  -34.5690  -10.6090   18.5920 C   0  0  0  0  0  3  0  0  0  0  0  0
  -35.5660   -9.9100   17.8830 C   0  0  0  0  0  0  0  0  0  0  0  0
  -35.7640  -10.1610   16.5150 C   0  0  0  0  0  3  0  0  0  0  0  0
  -34.9670  -11.1110   15.8520 C   0  0  0  0  0  0  0  0  0  0  0  0
  -35.1500  -11.3340   14.5290 F   0  0  0  0  0  0  0  0  0  0  0  0
  -36.3300   -8.9910   18.5180 F   0  0  0  0  0  0  0  0  0  0  0  0
  -29.7850  -18.0130   18.2050 C   0  0  0  0  0  0  0  0  0  0  0  0
  -29.8780  -16.7850   18.7040 N   0  0  0  0  0  0  0  0  0  0  0  0
  -28.6970  -18.5800   18.1100 O   0  0  0  0  0  0  0  0  0  0  0  0
  -30.7730  -16.3260   18.7990 H   0  0  0  0  0  0  0  0  0  0  0  0
  -29.0430  -16.3000   18.9970 H   0  0  0  0  0  0  0  0  0  0  0  0
  -30.5310  -21.1530   18.2070 N   0  0  0  0  0  0  0  0  0  0  0  0
  -29.5790  -21.0650   18.5430 H   0  0  0  0  0  0  0  0  0  0  0  0
  -30.8360  -22.1140   18.1250 H   0  0  0  0  0  0  0  0  0  0  0  0
  1 52  1  0
  2  4  1  0
  3  4  2  0
  4  1  1  0
  5  2  2  0
  6  3  1  0
  7  6  2  0
  7  5  1  0
  8  5  1  0
  9  7  1  0
 10 11  1  0
 10  6  1  0
 12 23  2  0
 13 11  1  0
 13 18  1  0
 14 22  1  0
 14 24  1  0
 15 21  1  0
 15 17  1  0
 16 22  1  0
 17 16  1  0
 18 17  2  0
 19 20  1  0
 19 13  2  0
 20 15  2  0
 21 14  1  0
 22 12  1  0
 24 25  1  0
 24 26  2  0
 27 25  1  0
 28 33  2  0
 28 37  1  0
 29 25  1  0
 29 33  1  0
 30 29  1  0
 31 32  1  0
 31 30  1  0
 32 28  1  0
 33 34  1  0
 34 35  2  0
 36 35  1  0
 37 36  2  0
 38 12  1  0
 38 39  1  0
 38 48  1  0
 39 42  1  0
 40 44  1  0
 40 39  1  0
 41 40  2  0
 44 43  1  0
 46 47  1  0
 46 44  1  0
 46 45  1  0
 48 51  1  1
 48 49  1  0
 50 48  1  0
 52 54  1  0
 52 55  1  0
 53 52  1  0
 55 56  1  0
 57 56  1  0
 58 57  1  0
 59 58  1  0
 60 59  1  0
 61 60  1  0
 62 61  1  0
 63 62  1  0
 64 63  1  0
 65 73  1  0
 66 71  1  0
 67 68  1  0
 67 66  1  0
 69 68  1  0
 69 78  1  0
 69 70  1  0
 71 70  1  0
 71 65  1  0
 72 65  2  0
 73 74  1  0
 73 64  1  0
 75100  1  0
 76 75  2  0
 76 95  1  0
 77 76  1  0
 78 75  1  0
 79 77  2  0
 79 78  1  0
 80 77  1  0
 80 81  1  0
 82 81  2  0
 83 82  1  0
 84 85  1  0
 84 83  2  0
 85 80  2  0
 86 83  1  0
 86 87  1  0
 87 88  1  0
 88 89  2  0
 90 94  1  0
 90 89  1  0
 91 90  2  0
 92 91  1  0
 92 87  2  0
 93 92  1  0
 95 96  1  0
 96 98  1  0
 96 99  1  0
 97 95  2  0
100101  1  0
102100  1  0
M  ISO  4  10 101  11 101  65 100  73 100
M  END
>  <TORSDO>  (38) 
F 29

>  <SCORE>  (38) 
30.931

>  <name>  (38) 
38

>  <ligand_id>  (38) 
38

>  <original_smiles>  (38) 
[H]c1c([H])c([H])c2c(c1[H])C([H])([H])C([H])([H])C([H])([H])C2([H])N([H])C(=O)C1([H])N(C(=O)C([H])(N([H])C(=O)C([H])(N([H])C([H])([H])[H])C([H])([H])[H])C(C([H])([H])[H])(C([H])([H])[H])C([H])([H])[H])C([H])([H])c2c([H])c(OC([H])([H])c3c([H])c(C([H])([H])[N+]([H])([H])C([H])([H])C([H])([H])C([H])([H])C([H])([H])C([H])([H])C([H])([H])C([H])([H])C([H])([H])C([H])([H])C([H])([H])N([H])C(=O)N4C([H])([H])C([H])([H])C([H])([H])C([H])(n5nc(-c6c([H])c([H])c(Oc7c([H])c([H])c(F)c([H])c7F)c([H])c6[H])c(C(=O)N([H])[H])c5N([H])[H])C4([H])[H])c([H])c(C([H])([H])[H])c3C([H])([H])[H])c([H])c([H])c2C1([H])[H]

>  <smiles>  (38) 
[H]c1c([H])c([H])c2c(c1[H])C([H])([H])C([H])([H])C([H])([H])C2([H])N([H])C(=O)C1([H])N(C(=O)C([H])(N([H])C(=O)C([H])(N([H])C([H])([H])[H])C([H])([H])[H])C(C([H])([H])[H])(C([H])([H])[H])C([H])([H])[H])C([H])([H])c2c([H])c(OC([H])([H])c3c([H])c(C([H])([H])[N+]([H])([H])C([H])([H])C([H])([H])C([H])([H])C([H])([H])C([H])([H])C([H])([H])C([H])([H])C([H])([H])C([H])([H])C([H])([H])N([H])C(=O)N4C([H])([H])C([H])([H])C([H])([H])C([H])(n5nc(-c6c([H])c([H])c(Oc7c([H])c([H])c(F)c([H])c7F)c([H])c6[H])c(C(=O)N([H])[H])c5N([H])[H])C4([H])[H])c([H])c(C([H])([H])[H])c3C([H])([H])[H])c([H])c([H])c2C1([H])[H]

$$$$
39:0:0
     RDKit          3D

 92100  0  0  1  0  0  0  0  0999 V2000
  -29.1140  -19.6230   19.2920 C   0  0  0  0  0  3  0  0  0  0  0  0
  -30.1180  -19.8050   21.4170 C   0  0  0  0  0  3  0  0  0  0  0  0
  -29.8090  -18.9290   20.3300 C   0  0  0  0  0  0  0  0  0  0  0  0
  -28.8520  -21.0520   19.2890 C   0  0  0  0  0  0  0  0  0  0  0  0
  -29.8580  -21.2340   21.4450 C   0  0  0  0  0  0  0  0  0  0  0  0
  -29.2620  -21.9460   20.3420 C   0  0  0  0  0  0  0  0  0  0  0  0
  -28.1840  -21.6310   18.0560 C   0  0  0  0  0  1  0  0  0  0  0  0
  -31.8660  -22.1500   22.6730 C   0  0  0  0  0  1  0  0  0  0  0  0
  -29.8110  -21.4270   23.9910 C   0  0  0  0  0  1  0  0  0  0  0  0
  -30.3360  -22.0150   22.6700 C   0  0  0  0  0  3  0  0  0  0  0  0
  -29.3380  -23.5800   20.1580 C   0  0  0  0  0  3  0  0  0  0  0  0
  -28.1880  -24.7230   20.4650 C   0  0  0  0  0  3  0  0  0  0  0  0
  -28.4300  -26.2360   20.2920 O   0  0  0  0  0  0  0  0  0  0  0  0
  -24.6770  -31.8170   23.2180 C   0  0  0  0  0  0  0  0  0  0  0  0
  -27.3460  -27.1690   20.2310 C   0  0  0  0  0  0  0  0  0  0  0  0
  -23.5180  -30.4210   21.5510 C   0  0  0  0  0  3  0  0  0  0  0  0
  -25.0030  -28.8660   20.1540 C   0  0  0  0  0  0  0  0  0  0  0  0
  -26.0700  -30.7140   21.4360 C   0  0  0  0  0  2  0  0  0  0  0  0
  -26.1650  -29.3270   20.7860 C   0  0  0  0  0  0  0  0  0  0  0  0
  -27.3400  -28.4960   20.8060 C   0  0  0  0  0  3  0  0  0  0  0  0
  -26.1620  -26.7980   19.5590 C   0  0  0  0  0  3  0  0  0  0  0  0
  -25.0110  -27.6120   19.5260 C   0  0  0  0  0  3  0  0  0  0  0  0
  -23.7700  -29.7520   20.1750 C   0  0  0  0  0  2  0  0  0  0  0  0
  -24.7740  -31.0040   22.1250 N   0  0  0  0  0  0  0  0  0  0  0  0
  -23.5790  -32.0930   23.7250 O   0  0  0  0  0  0  0  0  0  0  0  0
  -22.8280  -29.4030   22.4940 C   0  0  0  0  0  0  0  0  0  0  0  0
  -21.4980  -29.2540   22.3630 N   0  0  0  0  0  0  0  0  0  0  0  0
  -23.4910  -28.7530   23.3050 O   0  0  0  0  0  0  0  0  0  0  0  0
  -21.0220  -29.8290   21.6820 H   0  0  0  0  0  0  0  0  0  0  0  0
  -18.0930  -28.1340   22.8790 C   0  0  0  0  0  0  0  0  0  0  0  0
  -20.6620  -28.3180   23.1180 C   0  0  0  0  0  3  0  0  0  0  0  0
  -20.7170  -26.9020   22.5020 C   0  0  0  0  0  2  0  0  0  0  0  0
  -19.5920  -26.6380   21.4950 C   0  0  0  0  0  2  0  0  0  0  0  0
  -18.2240  -26.8020   22.1620 C   0  0  0  0  0  2  0  0  0  0  0  0
  -19.2380  -28.8540   23.3140 C   0  0  0  0  0  0  0  0  0  0  0  0
  -19.0600  -30.1030   23.9480 C   0  0  0  0  0  3  0  0  0  0  0  0
  -17.7720  -30.6330   24.1470 C   0  0  0  0  0  3  0  0  0  0  0  0
  -16.6420  -29.9120   23.7250 C   0  0  0  0  0  3  0  0  0  0  0  0
  -16.8040  -28.6630   23.0990 C   0  0  0  0  0  3  0  0  0  0  0  0
  -25.9390  -32.4550   23.8740 C   0  0  0  0  0  3  0  0  0  0  0  0
  -26.4320  -31.6780   25.1570 C   0  0  1  0  0  0  0  0  0  0  0  0
  -25.3170  -31.4260   26.1990 C   0  0  0  0  0  1  0  0  0  0  0  0
  -27.0310  -30.3050   24.7710 C   0  0  0  0  0  1  0  0  0  0  0  0
  -27.5650  -32.4730   25.8480 C   0  0  0  0  0  1  0  0  0  0  0  0
  -25.6100  -33.8490   24.2120 N   0  0  0  0  0  0  0  0  0  0  0  0
  -25.9170  -34.9110   23.4540 C   0  0  0  0  0  0  0  0  0  0  0  0
  -26.5760  -34.8220   22.4150 O   0  0  0  0  0  0  0  0  0  0  0  0
  -25.0230  -33.9910   25.0210 H   0  0  0  0  0  0  0  0  0  0  0  0
  -24.1410  -36.6680   23.1560 C   0  0  0  0  0  1  0  0  0  0  0  0
  -25.4170  -36.2910   23.9250 C   0  0  0  0  0  3  0  0  0  0  0  0
  -27.5580  -37.2260   24.6830 C   0  0  0  0  0  1  0  0  0  0  0  0
  -26.4240  -37.3650   23.7730 N   0  0  0  0  0  0  0  0  0  0  0  0
  -26.0040  -38.2780   23.9270 H   0  0  0  0  0  0  0  0  0  0  0  0
  -30.5030  -17.4570   20.1570 C   0  0  0  0  0  2  0  0  0  0  0  0
  -30.6230  -14.8210   20.0700 C   0  0  0  0  0  0  0  0  0  0  0  0
  -30.3690  -12.5270   19.0720 C   0  0  0  0  0  2  0  0  0  0  0  0
  -29.3820  -12.5670   17.8860 C   0  0  0  0  0  2  0  0  0  0  0  0
  -27.9340  -12.3850   18.3810 C   0  0  0  0  0  2  0  0  0  0  0  0
  -27.6100  -13.2720   19.6140 C   0  0  0  0  0  3  0  0  0  0  0  0
  -28.7190  -13.2230   20.6850 C   0  0  0  0  0  2  0  0  0  0  0  0
  -29.9720  -13.6000   20.0210 N   0  0  0  0  0  0  0  0  0  0  0  0
  -31.8070  -14.8610   19.7230 O   0  0  0  0  0  0  0  0  0  0  0  0
  -29.9230  -16.0240   20.2890 N   0  0  0  0  0  0  0  0  0  0  0  0
  -28.9420  -15.9480   20.5110 H   0  0  0  0  0  0  0  0  0  0  0  0
  -25.2770  -13.8580   20.4880 C   0  0  0  0  0  0  0  0  0  0  0  0
  -24.2230  -13.0840   20.8890 C   0  0  0  0  0  0  0  0  0  0  0  0
  -24.6670  -11.7300   20.7960 C   0  0  0  0  0  0  0  0  0  0  0  0
  -26.2950  -12.9750   20.1700 N   0  0  0  0  0  0  0  0  0  0  0  0
  -25.9410  -11.6870   20.4200 N   0  0  0  0  0  0  0  0  0  0  0  0
  -23.9340  -10.4720   20.9860 C   0  0  0  0  0  0  0  0  0  0  0  0
  -24.3710   -9.4950   21.9080 C   0  0  0  0  0  3  0  0  0  0  0  0
  -23.6400   -8.3020   22.0880 C   0  0  0  0  0  3  0  0  0  0  0  0
  -22.4560   -8.0760   21.3450 C   0  0  0  0  0  0  0  0  0  0  0  0
  -22.0370   -9.0420   20.4120 C   0  0  0  0  0  3  0  0  0  0  0  0
  -22.7710  -10.2260   20.2310 C   0  0  0  0  0  3  0  0  0  0  0  0
  -21.6950   -6.9360   21.4350 O   0  0  0  0  0  0  0  0  0  0  0  0
  -21.6100   -6.2160   22.5980 C   0  0  0  0  0  0  0  0  0  0  0  0
  -21.1440   -6.7930   23.7990 C   0  0  0  0  0  3  0  0  0  0  0  0
  -21.0060   -6.0000   24.9550 C   0  0  0  0  0  3  0  0  0  0  0  0
  -21.3250   -4.6300   24.9120 C   0  0  0  0  0  0  0  0  0  0  0  0
  -21.7840   -4.0510   23.7150 C   0  0  0  0  0  3  0  0  0  0  0  0
  -21.9230   -4.8420   22.5620 C   0  0  0  0  0  0  0  0  0  0  0  0
  -22.3460   -4.2740   21.4060 F   0  0  0  0  0  0  0  0  0  0  0  0
  -21.1860   -3.8660   26.0210 F   0  0  0  0  0  0  0  0  0  0  0  0
  -22.8480  -13.5700   21.2420 C   0  0  0  0  0  0  0  0  0  0  0  0
  -22.1560  -12.8590   22.1250 N   0  0  0  0  0  0  0  0  0  0  0  0
  -22.3980  -14.6140   20.7710 O   0  0  0  0  0  0  0  0  0  0  0  0
  -22.5360  -12.0150   22.5270 H   0  0  0  0  0  0  0  0  0  0  0  0
  -21.2330  -13.1630   22.4020 H   0  0  0  0  0  0  0  0  0  0  0  0
  -25.4480  -15.2320   20.3410 N   0  0  0  0  0  0  0  0  0  0  0  0
  -24.6930  -15.8900   20.5040 H   0  0  0  0  0  0  0  0  0  0  0  0
  -26.2740  -15.6710   19.9550 H   0  0  0  0  0  0  0  0  0  0  0  0
  1  3  1  0
  2  5  1  0
  3  2  2  0
  4  1  2  0
  4  6  1  0
  5 10  1  0
  6  5  2  0
  7  4  1  0
 10  8  1  0
 10  9  1  0
 11  6  1  0
 11 12  2  0
 13 12  1  0
 14 25  2  0
 15 13  1  0
 15 20  1  0
 16 24  1  0
 16 26  1  0
 17 23  1  0
 17 19  1  0
 18 24  1  0
 19 20  2  0
 19 18  1  0
 21 15  2  0
 22 21  1  0
 22 17  2  0
 23 16  1  0
 24 14  1  0
 26 28  2  0
 27 26  1  0
 29 27  1  0
 30 39  2  0
 30 35  1  0
 31 27  1  0
 31 35  1  0
 32 31  1  0
 33 34  1  0
 33 32  1  0
 34 30  1  0
 35 36  2  0
 36 37  1  0
 38 37  2  0
 39 38  1  0
 40 14  1  0
 40 45  1  0
 40 41  1  0
 41 44  1  1
 41 42  1  0
 43 41  1  0
 45 48  1  0
 46 50  1  0
 46 45  1  0
 47 46  2  0
 50 49  1  0
 52 50  1  0
 52 53  1  0
 52 51  1  0
 54 63  1  0
 54  3  1  0
 55 63  1  0
 56 61  1  0
 57 58  1  0
 57 56  1  0
 59 58  1  0
 59 68  1  0
 59 60  1  0
 61 55  1  0
 61 60  1  0
 62 55  2  0
 63 64  1  0
 65 66  2  0
 66 85  1  0
 67 66  1  0
 67 70  1  0
 68 69  1  0
 68 65  1  0
 69 67  2  0
 70 71  1  0
 71 72  2  0
 73 76  1  0
 73 72  1  0
 74 73  2  0
 75 74  1  0
 75 70  2  0
 76 77  1  0
 77 78  1  0
 78 79  2  0
 80 79  1  0
 80 84  1  0
 81 80  2  0
 82 77  2  0
 82 81  1  0
 83 82  1  0
 85 86  1  0
 86 89  1  0
 86 88  1  0
 87 85  2  0
 90 65  1  0
 90 91  1  0
 92 90  1  0
M  ISO  4  12 101  13 101  55 100  63 100
M  END
>  <TORSDO>  (39) 
F 20

>  <SCORE>  (39) 
-13.332

>  <name>  (39) 
39

>  <ligand_id>  (39) 
39

>  <original_smiles>  (39) 
[H]c1c([H])c([H])c2c(c1[H])C([H])([H])C([H])([H])C([H])([H])C2([H])N([H])C(=O)C1([H])N(C(=O)C([H])(N([H])C(=O)C([H])(N([H])C([H])([H])[H])C([H])([H])[H])C(C([H])([H])[H])(C([H])([H])[H])C([H])([H])[H])C([H])([H])c2c([H])c(OC([H])([H])C([H])([H])c3c(C([H])([H])[H])c([H])c(C([H])([H])N([H])C(=O)N4C([H])([H])C([H])([H])C([H])([H])C([H])(n5nc(-c6c([H])c([H])c(Oc7c([H])c([H])c(F)c([H])c7F)c([H])c6[H])c(C(=O)N([H])[H])c5N([H])[H])C4([H])[H])c([H])c3C([H])(C([H])([H])[H])C([H])([H])[H])c([H])c([H])c2C1([H])[H]

>  <smiles>  (39) 
[H]c1c([H])c([H])c2c(c1[H])C([H])([H])C([H])([H])C([H])([H])C2([H])N([H])C(=O)C1([H])N(C(=O)C([H])(N([H])C(=O)C([H])(N([H])C([H])([H])[H])C([H])([H])[H])C(C([H])([H])[H])(C([H])([H])[H])C([H])([H])[H])C([H])([H])c2c([H])c(OC([H])([H])C([H])([H])c3c(C([H])([H])[H])c([H])c(C([H])([H])N([H])C(=O)N4C([H])([H])C([H])([H])C([H])([H])C([H])(n5nc(-c6c([H])c([H])c(Oc7c([H])c([H])c(F)c([H])c7F)c([H])c6[H])c(C(=O)N([H])[H])c5N([H])[H])C4([H])[H])c([H])c3C([H])(C([H])([H])[H])C([H])([H])[H])c([H])c([H])c2C1([H])[H]

$$$$
40:0:0
     RDKit          3D

 95103  0  0  1  0  0  0  0  0999 V2000
  -30.5990  -22.6820   20.9670 C   0  0  0  0  0  2  0  0  0  0  0  0
  -28.7030  -21.7000   19.6580 C   0  0  0  0  0  2  0  0  0  0  0  0
  -30.3120  -24.0750   20.3570 C   0  0  0  0  0  2  0  0  0  0  0  0
  -28.4270  -23.0790   19.0090 C   0  0  0  0  0  2  0  0  0  0  0  0
  -30.1740  -21.4580   20.0980 C   0  0  1  0  0  0  0  0  0  0  0  0
  -28.8460  -24.2630   19.9070 C   0  0  1  0  0  0  0  0  0  0  0  0
  -28.0580  -24.2190   20.9840 F   0  0  0  0  0  0  0  0  0  0  0  0
  -31.1340  -21.2640   18.8720 C   0  0  1  0  0  0  0  0  0  0  0  0
  -32.3590  -20.9380   19.2860 F   0  0  0  0  0  0  0  0  0  0  0  0
  -30.6960  -20.2960   18.0680 F   0  0  0  0  0  0  0  0  0  0  0  0
  -31.2470  -22.3600   18.1270 F   0  0  0  0  0  0  0  0  0  0  0  0
  -30.2500  -20.2010   21.0330 C   0  0  0  0  0  2  0  0  0  0  0  0
  -29.7550  -18.8320   20.4960 C   0  0  0  0  0  2  0  0  0  0  0  0
  -29.7940  -17.7120   21.5630 C   0  0  0  0  0  2  0  0  0  0  0  0
  -30.8600  -16.6170   21.3220 C   0  0  0  0  0  2  0  0  0  0  0  0
  -30.8490  -14.3820   20.1800 C   0  0  0  0  0  0  0  0  0  0  0  0
  -30.4500  -12.2670   18.9680 C   0  0  0  0  0  2  0  0  0  0  0  0
  -29.4460  -12.4850   17.8190 C   0  0  0  0  0  2  0  0  0  0  0  0
  -27.9930  -12.3610   18.3200 C   0  0  0  0  0  2  0  0  0  0  0  0
  -27.7300  -13.2000   19.6010 C   0  0  0  0  0  3  0  0  0  0  0  0
  -28.8330  -12.9340   20.6500 C   0  0  0  0  0  2  0  0  0  0  0  0
  -30.1330  -13.2350   20.0270 N   0  0  0  0  0  0  0  0  0  0  0  0
  -31.9310  -14.5840   19.6210 O   0  0  0  0  0  0  0  0  0  0  0  0
  -30.2690  -15.3300   20.9330 N   0  0  0  0  0  0  0  0  0  0  0  0
  -29.3640  -15.0950   21.3130 H   0  0  0  0  0  0  0  0  0  0  0  0
  -25.3820  -13.8460   20.4340 C   0  0  0  0  0  0  0  0  0  0  0  0
  -24.3130  -13.0930   20.8380 C   0  0  0  0  0  0  0  0  0  0  0  0
  -24.7410  -11.7320   20.7620 C   0  0  0  0  0  0  0  0  0  0  0  0
  -26.3940  -12.9470   20.1400 N   0  0  0  0  0  0  0  0  0  0  0  0
  -26.0160  -11.6700   20.3990 N   0  0  0  0  0  0  0  0  0  0  0  0
  -23.9960  -10.4830   20.9660 C   0  0  0  0  0  0  0  0  0  0  0  0
  -24.4230   -9.5080   21.8950 C   0  0  0  0  0  3  0  0  0  0  0  0
  -23.6780   -8.3240   22.0840 C   0  0  0  0  0  3  0  0  0  0  0  0
  -22.4910   -8.1060   21.3460 C   0  0  0  0  0  0  0  0  0  0  0  0
  -22.0820   -9.0700   20.4070 C   0  0  0  0  0  3  0  0  0  0  0  0
  -22.8270  -10.2460   20.2150 C   0  0  0  0  0  3  0  0  0  0  0  0
  -21.7170   -6.9750   21.4440 O   0  0  0  0  0  0  0  0  0  0  0  0
  -21.6430   -6.2540   22.6070 C   0  0  0  0  0  0  0  0  0  0  0  0
  -21.1880   -6.8310   23.8130 C   0  0  0  0  0  3  0  0  0  0  0  0
  -21.0630   -6.0360   24.9690 C   0  0  0  0  0  3  0  0  0  0  0  0
  -21.3820   -4.6650   24.9210 C   0  0  0  0  0  0  0  0  0  0  0  0
  -21.8330   -4.0890   23.7200 C   0  0  0  0  0  3  0  0  0  0  0  0
  -21.9600   -4.8810   22.5650 C   0  0  0  0  0  0  0  0  0  0  0  0
  -22.3760   -4.3180   21.4050 F   0  0  0  0  0  0  0  0  0  0  0  0
  -21.2550   -3.8990   26.0290 F   0  0  0  0  0  0  0  0  0  0  0  0
  -22.9390  -13.5960   21.1800 C   0  0  0  0  0  0  0  0  0  0  0  0
  -22.2330  -12.9020   22.0630 N   0  0  0  0  0  0  0  0  0  0  0  0
  -22.5030  -14.6420   20.6970 O   0  0  0  0  0  0  0  0  0  0  0  0
  -22.5980  -12.0560   22.4740 H   0  0  0  0  0  0  0  0  0  0  0  0
  -21.3140  -13.2240   22.3340 H   0  0  0  0  0  0  0  0  0  0  0  0
  -25.5740  -15.2160   20.2750 N   0  0  0  0  0  0  0  0  0  0  0  0
  -24.8390  -15.8920   20.4450 H   0  0  0  0  0  0  0  0  0  0  0  0
  -26.4300  -15.6350   19.9350 H   0  0  0  0  0  0  0  0  0  0  0  0
  -28.6440  -25.6340   19.1970 C   0  0  0  0  0  2  0  0  0  0  0  0
  -28.4290  -26.7250   20.1130 O   0  0  0  0  0  0  0  0  0  0  0  0
  -24.5610  -31.8630   23.2000 C   0  0  0  0  0  0  0  0  0  0  0  0
  -27.2180  -27.3960   20.1360 C   0  0  0  0  0  0  0  0  0  0  0  0
  -23.3570  -30.4520   21.5640 C   0  0  0  0  0  3  0  0  0  0  0  0
  -24.8100  -28.8950   20.1650 C   0  0  0  0  0  0  0  0  0  0  0  0
  -25.8840  -30.8020   21.3720 C   0  0  0  0  0  2  0  0  0  0  0  0
  -25.9700  -29.4250   20.7430 C   0  0  0  0  0  0  0  0  0  0  0  0
  -27.1730  -28.6810   20.7290 C   0  0  0  0  0  3  0  0  0  0  0  0
  -26.0220  -26.8640   19.5970 C   0  0  0  0  0  3  0  0  0  0  0  0
  -24.8300  -27.6110   19.5960 C   0  0  0  0  0  3  0  0  0  0  0  0
  -23.5680  -29.7550   20.1950 C   0  0  0  0  0  2  0  0  0  0  0  0
  -24.6200  -31.0540   22.1050 N   0  0  0  0  0  0  0  0  0  0  0  0
  -23.4780  -32.1420   23.7350 O   0  0  0  0  0  0  0  0  0  0  0  0
  -22.7000  -29.4410   22.5300 C   0  0  0  0  0  0  0  0  0  0  0  0
  -21.3710  -29.2820   22.4150 N   0  0  0  0  0  0  0  0  0  0  0  0
  -23.3810  -28.8030   23.3370 O   0  0  0  0  0  0  0  0  0  0  0  0
  -20.8820  -29.8460   21.7340 H   0  0  0  0  0  0  0  0  0  0  0  0
  -17.9820  -28.1650   22.9740 C   0  0  0  0  0  0  0  0  0  0  0  0
  -20.5490  -28.3540   23.1930 C   0  0  0  0  0  3  0  0  0  0  0  0
  -20.6030  -26.9280   22.5980 C   0  0  0  0  0  2  0  0  0  0  0  0
  -19.4730  -26.6460   21.6040 C   0  0  0  0  0  2  0  0  0  0  0  0
  -18.1090  -26.8180   22.2800 C   0  0  0  0  0  2  0  0  0  0  0  0
  -19.1270  -28.8920   23.3900 C   0  0  0  0  0  0  0  0  0  0  0  0
  -18.9530  -30.1530   24.0000 C   0  0  0  0  0  3  0  0  0  0  0  0
  -17.6650  -30.6850   24.1970 C   0  0  0  0  0  3  0  0  0  0  0  0
  -16.5340  -29.9530   23.7970 C   0  0  0  0  0  3  0  0  0  0  0  0
  -16.6930  -28.6950   23.1910 C   0  0  0  0  0  3  0  0  0  0  0  0
  -25.8470  -32.4940   23.8200 C   0  0  0  0  0  3  0  0  0  0  0  0
  -25.5340  -33.8880   24.1590 N   0  0  0  0  0  0  0  0  0  0  0  0
  -25.8610  -34.9460   23.4050 C   0  0  0  0  0  0  0  0  0  0  0  0
  -26.5290  -34.8520   22.3710 O   0  0  0  0  0  0  0  0  0  0  0  0
  -24.9410  -34.0350   24.9620 H   0  0  0  0  0  0  0  0  0  0  0  0
  -24.1330  -36.7400   23.0560 C   0  0  0  0  0  1  0  0  0  0  0  0
  -25.3690  -36.3290   23.8720 C   0  0  0  0  0  3  0  0  0  0  0  0
  -27.4940  -37.2150   24.7270 C   0  0  0  0  0  1  0  0  0  0  0  0
  -26.4000  -37.3840   23.7740 N   0  0  0  0  0  0  0  0  0  0  0  0
  -25.9900  -38.3030   23.9220 H   0  0  0  0  0  0  0  0  0  0  0  0
  -26.3750  -31.7150   25.0870 C   0  0  1  0  0  0  0  0  0  0  0  0
  -25.2870  -31.4660   26.1570 C   0  0  0  0  0  1  0  0  0  0  0  0
  -26.9630  -30.3430   24.6820 C   0  0  0  0  0  1  0  0  0  0  0  0
  -27.5230  -32.5110   25.7520 C   0  0  0  0  0  1  0  0  0  0  0  0
  2  5  1  0
  3  1  1  0
  4  2  1  0
  4  6  1  0
  5  1  1  0
  5 12  1  1
  6  3  1  0
  6  7  1  1
  8  9  1  1
  8  5  1  0
 10  8  1  0
 11  8  1  0
 13 12  1  0
 13 14  1  0
 15 14  1  0
 16 24  1  0
 17 22  1  0
 18 19  1  0
 18 17  1  0
 20 19  1  0
 20 29  1  0
 20 21  1  0
 22 16  1  0
 22 21  1  0
 23 16  2  0
 24 25  1  0
 24 15  1  0
 26 27  2  0
 27 46  1  0
 28 27  1  0
 28 31  1  0
 29 30  1  0
 29 26  1  0
 30 28  2  0
 31 32  1  0
 32 33  2  0
 34 37  1  0
 34 33  1  0
 35 34  2  0
 36 35  1  0
 36 31  2  0
 37 38  1  0
 38 39  1  0
 39 40  2  0
 41 40  1  0
 41 45  1  0
 42 41  2  0
 43 38  2  0
 43 42  1  0
 44 43  1  0
 46 47  1  0
 47 50  1  0
 47 49  1  0
 48 46  2  0
 51 26  1  0
 51 52  1  0
 53 51  1  0
 54  6  1  0
 54 55  1  0
 55 57  1  0
 56 67  2  0
 57 62  1  0
 58 66  1  0
 58 68  1  0
 59 65  1  0
 59 61  1  0
 60 66  1  0
 61 60  1  0
 62 61  2  0
 63 57  2  0
 64 63  1  0
 64 59  2  0
 65 58  1  0
 66 56  1  0
 68 70  2  0
 69 68  1  0
 71 69  1  0
 72 81  2  0
 72 77  1  0
 73 69  1  0
 73 77  1  0
 74 73  1  0
 75 76  1  0
 75 74  1  0
 76 72  1  0
 77 78  2  0
 78 79  1  0
 80 79  2  0
 81 80  1  0
 82 56  1  0
 82 83  1  0
 82 92  1  0
 83 86  1  0
 84 88  1  0
 84 83  1  0
 85 84  2  0
 88 87  1  0
 90 88  1  0
 90 91  1  0
 90 89  1  0
 92 95  1  1
 92 93  1  0
 94 92  1  0
M  ISO  4  16 100  24 100  54 101  55 101
M  END
>  <TORSDO>  (40) 
F 22

>  <SCORE>  (40) 
-13.136

>  <name>  (40) 
40

>  <ligand_id>  (40) 
40

>  <original_smiles>  (40) 
[H]c1c([H])c([H])c2c(c1[H])C([H])([H])C([H])([H])C([H])([H])C2([H])N([H])C(=O)C1([H])N(C(=O)C([H])(N([H])C(=O)C([H])(N([H])C([H])([H])[H])C([H])([H])[H])C(C([H])([H])[H])(C([H])([H])[H])C([H])([H])[H])C([H])([H])c2c([H])c(OC([H])([H])C3(F)C([H])([H])C([H])([H])C(C(F)(F)F)(C([H])([H])C([H])([H])C([H])([H])C([H])([H])N([H])C(=O)N4C([H])([H])C([H])([H])C([H])([H])C([H])(n5nc(-c6c([H])c([H])c(Oc7c([H])c([H])c(F)c([H])c7F)c([H])c6[H])c(C(=O)N([H])[H])c5N([H])[H])C4([H])[H])C([H])([H])C3([H])[H])c([H])c([H])c2C1([H])[H]

>  <smiles>  (40) 
[H]c1c([H])c([H])c2c(c1[H])C([H])([H])C([H])([H])C([H])([H])C2([H])N([H])C(=O)C1([H])N(C(=O)C([H])(N([H])C(=O)C([H])(N([H])C([H])([H])[H])C([H])([H])[H])C(C([H])([H])[H])(C([H])([H])[H])C([H])([H])[H])C([H])([H])c2c([H])c(OC([H])([H])C3(F)C([H])([H])C([H])([H])C(C(F)(F)F)(C([H])([H])C([H])([H])C([H])([H])C([H])([H])N([H])C(=O)N4C([H])([H])C([H])([H])C([H])([H])C([H])(n5nc(-c6c([H])c([H])c(Oc7c([H])c([H])c(F)c([H])c7F)c([H])c6[H])c(C(=O)N([H])[H])c5N([H])[H])C4([H])[H])C([H])([H])C3([H])[H])c([H])c([H])c2C1([H])[H]

$$$$
41:0:0
     RDKit          3D

 91100  0  0  1  0  0  0  0  0999 V2000
  -28.9260  -21.3450   19.8500 C   0  0  0  0  0  3  0  0  0  0  0  0
  -30.2460  -20.3140   21.5810 C   0  0  0  0  0  3  0  0  0  0  0  0
  -28.9010  -22.7800   20.4540 C   0  0  0  0  0  0  0  0  0  0  0  0
  -29.5970  -22.7610   21.6960 C   0  0  0  0  0  0  0  0  0  0  0  0
  -29.5810  -20.0320   20.3750 C   0  0  0  0  0  0  0  0  0  0  0  0
  -30.2660  -21.5950   22.2090 C   0  0  0  0  0  0  0  0  0  0  0  0
  -29.5250  -24.0500   22.5220 C   0  0  0  0  0  2  0  0  0  0  0  0
  -28.0820  -24.5940   22.6770 C   0  0  0  0  0  2  0  0  0  0  0  0
  -27.1460  -24.2580   21.4930 C   0  0  0  0  0  2  0  0  0  0  0  0
  -27.9470  -24.2560   20.1750 C   0  0  0  0  0  3  0  0  0  0  0  0
  -31.0390  -21.6760   23.5170 C   0  0  0  0  0  1  0  0  0  0  0  0
  -28.2560  -25.9010   20.1010 O   0  0  0  0  0  0  0  0  0  0  0  0
  -24.6650  -31.8860   23.1070 C   0  0  0  0  0  0  0  0  0  0  0  0
  -27.2490  -27.0260   20.0380 C   0  0  0  0  0  0  0  0  0  0  0  0
  -23.4730  -30.4860   21.4740 C   0  0  0  0  0  3  0  0  0  0  0  0
  -24.9260  -28.9020   20.0260 C   0  0  0  0  0  0  0  0  0  0  0  0
  -26.0340  -30.7190   21.3040 C   0  0  0  0  0  2  0  0  0  0  0  0
  -26.1170  -29.3070   20.6430 C   0  0  0  0  0  0  0  0  0  0  0  0
  -27.2690  -28.3900   20.6260 C   0  0  0  0  0  3  0  0  0  0  0  0
  -26.0280  -26.7900   19.3560 C   0  0  0  0  0  3  0  0  0  0  0  0
  -24.9090  -27.6660   19.3590 C   0  0  0  0  0  3  0  0  0  0  0  0
  -23.6970  -29.8120   20.0920 C   0  0  0  0  0  2  0  0  0  0  0  0
  -24.7460  -31.0600   22.0150 N   0  0  0  0  0  0  0  0  0  0  0  0
  -23.5780  -32.1590   23.6440 O   0  0  0  0  0  0  0  0  0  0  0  0
  -22.7950  -29.4800   22.4430 C   0  0  0  0  0  0  0  0  0  0  0  0
  -21.4620  -29.3140   22.3400 N   0  0  0  0  0  0  0  0  0  0  0  0
  -23.4750  -28.8510   23.2570 O   0  0  0  0  0  0  0  0  0  0  0  0
  -20.9650  -29.8750   21.6640 H   0  0  0  0  0  0  0  0  0  0  0  0
  -18.0930  -28.0820   22.8980 C   0  0  0  0  0  0  0  0  0  0  0  0
  -20.6560  -28.3620   23.1150 C   0  0  0  0  0  3  0  0  0  0  0  0
  -20.7540  -26.9360   22.5260 C   0  0  0  0  0  2  0  0  0  0  0  0
  -19.6360  -26.6190   21.5280 C   0  0  0  0  0  2  0  0  0  0  0  0
  -18.2660  -26.7440   22.1990 C   0  0  0  0  0  2  0  0  0  0  0  0
  -19.2150  -28.8490   23.3130 C   0  0  0  0  0  0  0  0  0  0  0  0
  -18.9960  -30.0980   23.9330 C   0  0  0  0  0  3  0  0  0  0  0  0
  -17.6900  -30.5820   24.1410 C   0  0  0  0  0  3  0  0  0  0  0  0
  -16.5840  -29.8150   23.7380 C   0  0  0  0  0  3  0  0  0  0  0  0
  -16.7870  -28.5680   23.1220 C   0  0  0  0  0  3  0  0  0  0  0  0
  -25.9340  -32.5420   23.7320 C   0  0  0  0  0  3  0  0  0  0  0  0
  -25.5960  -33.9310   24.0930 N   0  0  0  0  0  0  0  0  0  0  0  0
  -25.9160  -35.0130   23.3710 C   0  0  0  0  0  0  0  0  0  0  0  0
  -26.5870  -34.9480   22.3390 O   0  0  0  0  0  0  0  0  0  0  0  0
  -24.9930  -34.0510   24.8930 H   0  0  0  0  0  0  0  0  0  0  0  0
  -24.1790  -36.8150   23.0710 C   0  0  0  0  0  1  0  0  0  0  0  0
  -25.4170  -36.3840   23.8730 C   0  0  0  0  0  3  0  0  0  0  0  0
  -27.5370  -37.2650   24.7510 C   0  0  0  0  0  1  0  0  0  0  0  0
  -26.4420  -37.4490   23.8010 N   0  0  0  0  0  0  0  0  0  0  0  0
  -26.0280  -38.3620   23.9740 H   0  0  0  0  0  0  0  0  0  0  0  0
  -26.4680  -31.7690   25.0010 C   0  0  1  0  0  0  0  0  0  0  0  0
  -25.3830  -31.5110   26.0740 C   0  0  0  0  0  1  0  0  0  0  0  0
  -27.0650  -30.4000   24.6050 C   0  0  0  0  0  1  0  0  0  0  0  0
  -27.6130  -32.5750   25.6600 C   0  0  0  0  0  1  0  0  0  0  0  0
  -29.8100  -18.3950   19.7440 C   0  0  0  0  0  2  0  0  0  0  0  0
  -30.5240  -15.5110   20.2420 C   0  0  0  0  0  0  0  0  0  0  0  0
  -30.5280  -13.0040   19.5050 C   0  0  0  0  0  2  0  0  0  0  0  0
  -29.6390  -12.7390   18.2650 C   0  0  0  0  0  2  0  0  0  0  0  0
  -28.1860  -12.4640   18.6880 C   0  0  0  0  0  2  0  0  0  0  0  0
  -27.7050  -13.4560   19.7770 C   0  0  0  0  0  3  0  0  0  0  0  0
  -28.7370  -13.6920   20.9050 C   0  0  0  0  0  2  0  0  0  0  0  0
  -29.9700  -14.1890   20.2700 N   0  0  0  0  0  0  0  0  0  0  0  0
  -31.7340  -15.4950   19.9760 O   0  0  0  0  0  0  0  0  0  0  0  0
  -29.7580  -16.7980   20.3130 N   0  0  0  0  0  0  0  0  0  0  0  0
  -28.8130  -16.5820   20.5930 H   0  0  0  0  0  0  0  0  0  0  0  0
  -25.3320  -14.0060   20.5220 C   0  0  0  0  0  0  0  0  0  0  0  0
  -24.2690  -13.2250   20.8800 C   0  0  0  0  0  0  0  0  0  0  0  0
  -24.7360  -11.8760   20.8500 C   0  0  0  0  0  0  0  0  0  0  0  0
  -26.3760  -13.1320   20.2830 N   0  0  0  0  0  0  0  0  0  0  0  0
  -26.0310  -11.8430   20.5480 N   0  0  0  0  0  0  0  0  0  0  0  0
  -24.0040  -10.6130   21.0310 C   0  0  0  0  0  0  0  0  0  0  0  0
  -24.4330   -9.6330   21.9540 C   0  0  0  0  0  3  0  0  0  0  0  0
  -23.6950   -8.4430   22.1270 C   0  0  0  0  0  3  0  0  0  0  0  0
  -22.5150   -8.2210   21.3760 C   0  0  0  0  0  0  0  0  0  0  0  0
  -22.1060   -9.1900   20.4420 C   0  0  0  0  0  3  0  0  0  0  0  0
  -22.8450  -10.3730   20.2680 C   0  0  0  0  0  3  0  0  0  0  0  0
  -21.7500   -7.0820   21.4580 O   0  0  0  0  0  0  0  0  0  0  0  0
  -21.7110   -6.3200   22.5980 C   0  0  0  0  0  0  0  0  0  0  0  0
  -21.2860   -6.8530   23.8350 C   0  0  0  0  0  3  0  0  0  0  0  0
  -21.1940   -6.0180   24.9670 C   0  0  0  0  0  3  0  0  0  0  0  0
  -21.5190   -4.6520   24.8630 C   0  0  0  0  0  0  0  0  0  0  0  0
  -21.9370   -4.1190   23.6320 C   0  0  0  0  0  3  0  0  0  0  0  0
  -22.0290   -4.9510   22.5010 C   0  0  0  0  0  0  0  0  0  0  0  0
  -22.4130   -4.4260   21.3130 F   0  0  0  0  0  0  0  0  0  0  0  0
  -21.4240   -3.8490   25.9480 F   0  0  0  0  0  0  0  0  0  0  0  0
  -22.8700  -13.7050   21.1390 C   0  0  0  0  0  0  0  0  0  0  0  0
  -22.1320  -13.0100   21.9970 N   0  0  0  0  0  0  0  0  0  0  0  0
  -22.4410  -14.7340   20.6180 O   0  0  0  0  0  0  0  0  0  0  0  0
  -22.4900  -12.1770   22.4390 H   0  0  0  0  0  0  0  0  0  0  0  0
  -21.1970  -13.3200   22.2190 H   0  0  0  0  0  0  0  0  0  0  0  0
  -25.4890  -15.3780   20.3520 N   0  0  0  0  0  0  0  0  0  0  0  0
  -24.7090  -16.0170   20.4610 H   0  0  0  0  0  0  0  0  0  0  0  0
  -26.3310  -15.8360   20.0240 H   0  0  0  0  0  0  0  0  0  0  0  0
  1  5  2  0
  1  3  1  0
  2  6  2  0
  3  4  2  0
  4  6  1  0
  4  7  1  0
  5  2  1  0
  6 11  1  0
  7  8  1  0
  9  8  1  0
 10 12  1  0
 10  3  1  0
 10  9  1  0
 13 24  2  0
 14 12  1  0
 14 19  1  0
 15 23  1  0
 15 25  1  0
 16 22  1  0
 16 18  1  0
 17 23  1  0
 18 17  1  0
 19 18  2  0
 20 21  1  0
 20 14  2  0
 21 16  2  0
 22 15  1  0
 23 13  1  0
 25 27  2  0
 26 25  1  0
 28 26  1  0
 29 38  2  0
 29 34  1  0
 30 26  1  0
 30 34  1  0
 31 30  1  0
 32 33  1  0
 32 31  1  0
 33 29  1  0
 34 35  2  0
 35 36  1  0
 37 36  2  0
 38 37  1  0
 39 13  1  0
 39 40  1  0
 39 49  1  0
 40 43  1  0
 41 45  1  0
 41 40  1  0
 42 41  2  0
 45 44  1  0
 47 45  1  0
 47 48  1  0
 47 46  1  0
 49 52  1  1
 49 50  1  0
 51 49  1  0
 53 62  1  0
 53  5  1  0
 54 60  1  0
 54 62  1  0
 55 60  1  0
 56 57  1  0
 56 55  1  0
 58 57  1  0
 58 67  1  0
 58 59  1  0
 60 59  1  0
 61 54  2  0
 62 63  1  0
 64 65  2  0
 65 84  1  0
 66 65  1  0
 66 69  1  0
 67 64  1  0
 67 68  1  0
 68 66  2  0
 69 70  1  0
 70 71  2  0
 72 75  1  0
 72 71  1  0
 73 72  2  0
 74 73  1  0
 74 69  2  0
 75 76  1  0
 76 77  1  0
 77 78  2  0
 79 78  1  0
 79 83  1  0
 80 79  2  0
 81 76  2  0
 81 80  1  0
 82 81  1  0
 84 85  1  0
 85 88  1  0
 85 87  1  0
 86 84  2  0
 89 90  1  0
 89 64  1  0
 91 89  1  0
M  ISO  4  10 101  12 101  54 100  62 100
M  END
>  <TORSDO>  (41) 
F 17

>  <SCORE>  (41) 
-16.823

>  <name>  (41) 
41

>  <ligand_id>  (41) 
41

>  <original_smiles>  (41) 
[H]c1c([H])c([H])c2c(c1[H])C([H])([H])C([H])([H])C([H])([H])C2([H])N([H])C(=O)C1([H])N(C(=O)C([H])(N([H])C(=O)C([H])(N([H])C([H])([H])[H])C([H])([H])[H])C(C([H])([H])[H])(C([H])([H])[H])C([H])([H])[H])C([H])([H])c2c([H])c(OC3([H])c4c([H])c(C([H])([H])N([H])C(=O)N5C([H])([H])C([H])([H])C([H])([H])C([H])(n6nc(-c7c([H])c([H])c(Oc8c([H])c([H])c(F)c([H])c8F)c([H])c7[H])c(C(=O)N([H])[H])c6N([H])[H])C5([H])[H])c([H])c(C([H])([H])[H])c4C([H])([H])C([H])([H])C3([H])[H])c([H])c([H])c2C1([H])[H]

>  <smiles>  (41) 
[H]c1c([H])c([H])c2c(c1[H])C([H])([H])C([H])([H])C([H])([H])C2([H])N([H])C(=O)C1([H])N(C(=O)C([H])(N([H])C(=O)C([H])(N([H])C([H])([H])[H])C([H])([H])[H])C(C([H])([H])[H])(C([H])([H])[H])C([H])([H])[H])C([H])([H])c2c([H])c(OC3([H])c4c([H])c(C([H])([H])N([H])C(=O)N5C([H])([H])C([H])([H])C([H])([H])C([H])(n6nc(-c7c([H])c([H])c(Oc8c([H])c([H])c(F)c([H])c8F)c([H])c7[H])c(C(=O)N([H])[H])c6N([H])[H])C5([H])[H])c([H])c(C([H])([H])[H])c4C([H])([H])C([H])([H])C3([H])[H])c([H])c([H])c2C1([H])[H]

$$$$
42:0:0
     RDKit          3D

 96105  0  0  1  0  0  0  0  0999 V2000
  -30.6560  -22.8660   19.0500 C   0  0  0  0  0  3  0  0  0  0  0  0
  -30.3850  -21.7170   19.8180 C   0  0  0  0  0  0  0  0  0  0  0  0
  -29.9830  -24.0820   19.3170 C   0  0  0  0  0  0  0  0  0  0  0  0
  -29.3900  -21.7980   20.7970 C   0  0  0  0  0  0  0  0  0  0  0  0
  -29.0240  -24.1220   20.3650 C   0  0  0  0  0  0  0  0  0  0  0  0
  -31.1740  -20.4190   19.6240 C   0  0  0  0  0  2  0  0  0  0  0  0
  -29.0700  -20.5390   21.6300 C   0  0  0  0  0  2  0  0  0  0  0  0
  -30.3440  -19.2610   19.0280 C   0  0  0  0  0  2  0  0  0  0  0  0
  -28.5310  -19.2940   20.8410 C   0  0  0  0  0  2  0  0  0  0  0  0
  -29.4830  -18.3630   19.9830 C   0  0  1  0  0  0  0  0  0  0  0  0
  -28.7310  -22.9700   21.0570 N   0  0  0  0  0  0  0  0  0  0  0  0
  -31.4940  -26.1010   19.1100 C   0  0  0  0  0  1  0  0  0  0  0  0
  -30.3580  -25.2910   18.4740 C   0  0  0  0  0  2  0  0  0  0  0  0
  -29.1930  -16.7620   17.9010 C   0  0  0  0  0  1  0  0  0  0  0  0
  -28.5340  -17.5260   19.0670 C   0  0  0  0  0  2  0  0  0  0  0  0
  -28.2590  -25.4110   20.8460 C   0  0  0  0  0  2  0  0  0  0  0  0
  -28.4290  -26.7170   20.1830 O   0  0  0  0  0  0  0  0  0  0  0  0
  -24.6150  -31.9840   23.2660 C   0  0  0  0  0  0  0  0  0  0  0  0
  -27.3020  -27.5370   20.1650 C   0  0  0  0  0  0  0  0  0  0  0  0
  -23.4290  -30.5800   21.6140 C   0  0  0  0  0  3  0  0  0  0  0  0
  -24.9040  -29.0750   20.1650 C   0  0  0  0  0  0  0  0  0  0  0  0
  -25.9550  -30.9600   21.4210 C   0  0  0  0  0  2  0  0  0  0  0  0
  -26.0600  -29.5900   20.7670 C   0  0  0  0  0  0  0  0  0  0  0  0
  -27.2640  -28.8300   20.7630 C   0  0  0  0  0  3  0  0  0  0  0  0
  -26.1330  -27.0730   19.5250 C   0  0  0  0  0  3  0  0  0  0  0  0
  -24.9410  -27.8230   19.5320 C   0  0  0  0  0  3  0  0  0  0  0  0
  -23.6490  -29.9190   20.2270 C   0  0  0  0  0  2  0  0  0  0  0  0
  -24.6840  -31.1910   22.1580 N   0  0  0  0  0  0  0  0  0  0  0  0
  -23.5290  -32.2380   23.8090 O   0  0  0  0  0  0  0  0  0  0  0  0
  -22.7900  -29.5420   22.5680 C   0  0  0  0  0  0  0  0  0  0  0  0
  -21.4720  -29.3270   22.4280 N   0  0  0  0  0  0  0  0  0  0  0  0
  -23.4800  -28.9350   23.3910 O   0  0  0  0  0  0  0  0  0  0  0  0
  -20.9740  -29.8740   21.7400 H   0  0  0  0  0  0  0  0  0  0  0  0
  -18.1240  -28.0360   22.8870 C   0  0  0  0  0  0  0  0  0  0  0  0
  -20.6700  -28.3660   23.1880 C   0  0  0  0  0  3  0  0  0  0  0  0
  -20.8200  -26.9390   22.6110 C   0  0  0  0  0  2  0  0  0  0  0  0
  -19.7380  -26.5880   21.5850 C   0  0  0  0  0  2  0  0  0  0  0  0
  -18.3450  -26.6930   22.2120 C   0  0  0  0  0  2  0  0  0  0  0  0
  -19.2160  -28.8290   23.3310 C   0  0  0  0  0  0  0  0  0  0  0  0
  -18.9540  -30.0840   23.9200 C   0  0  0  0  0  3  0  0  0  0  0  0
  -17.6340  -30.5490   24.0700 C   0  0  0  0  0  3  0  0  0  0  0  0
  -16.5560  -29.7540   23.6440 C   0  0  0  0  0  3  0  0  0  0  0  0
  -16.8020  -28.4990   23.0590 C   0  0  0  0  0  3  0  0  0  0  0  0
  -25.8910  -32.6290   23.8920 C   0  0  0  0  0  3  0  0  0  0  0  0
  -26.4050  -31.8700   25.1780 C   0  0  1  0  0  0  0  0  0  0  0  0
  -25.3080  -31.6340   26.2420 C   0  0  0  0  0  1  0  0  0  0  0  0
  -26.9990  -30.4930   24.7960 C   0  0  0  0  0  1  0  0  0  0  0  0
  -27.5480  -32.6760   25.8390 C   0  0  0  0  0  1  0  0  0  0  0  0
  -25.5770  -34.0290   24.2070 N   0  0  0  0  0  0  0  0  0  0  0  0
  -25.9090  -35.0740   23.4370 C   0  0  0  0  0  0  0  0  0  0  0  0
  -26.5840  -34.9620   22.4090 O   0  0  0  0  0  0  0  0  0  0  0  0
  -24.9840  -34.1940   25.0080 H   0  0  0  0  0  0  0  0  0  0  0  0
  -24.1860  -36.8600   23.0370 C   0  0  0  0  0  1  0  0  0  0  0  0
  -25.4130  -36.4650   23.8740 C   0  0  0  0  0  3  0  0  0  0  0  0
  -27.5290  -37.3620   24.7380 C   0  0  0  0  0  1  0  0  0  0  0  0
  -26.4450  -37.5180   23.7710 N   0  0  0  0  0  0  0  0  0  0  0  0
  -26.0360  -38.4390   23.8990 H   0  0  0  0  0  0  0  0  0  0  0  0
  -30.3950  -17.3720   20.8540 C   0  0  0  0  0  2  0  0  0  0  0  0
  -30.7960  -14.8300   20.6260 C   0  0  0  0  0  0  0  0  0  0  0  0
  -30.6170  -12.6000   19.5620 C   0  0  0  0  0  2  0  0  0  0  0  0
  -29.7200  -12.7190   18.3130 C   0  0  0  0  0  2  0  0  0  0  0  0
  -28.2380  -12.5340   18.6920 C   0  0  0  0  0  2  0  0  0  0  0  0
  -27.8210  -13.4000   19.9100 C   0  0  0  0  0  3  0  0  0  0  0  0
  -28.8410  -13.2830   21.0660 C   0  0  0  0  0  2  0  0  0  0  0  0
  -30.1670  -13.6200   20.5290 N   0  0  0  0  0  0  0  0  0  0  0  0
  -31.9690  -14.9750   20.2700 O   0  0  0  0  0  0  0  0  0  0  0  0
  -30.0230  -15.9140   20.9360 N   0  0  0  0  0  0  0  0  0  0  0  0
  -29.0740  -15.7110   21.2080 H   0  0  0  0  0  0  0  0  0  0  0  0
  -25.3920  -13.9590   20.5330 C   0  0  0  0  0  0  0  0  0  0  0  0
  -24.3260  -13.1680   20.8700 C   0  0  0  0  0  0  0  0  0  0  0  0
  -24.8140  -11.8250   20.8670 C   0  0  0  0  0  0  0  0  0  0  0  0
  -26.4600  -13.0960   20.3470 N   0  0  0  0  0  0  0  0  0  0  0  0
  -26.1150  -11.8090   20.6070 N   0  0  0  0  0  0  0  0  0  0  0  0
  -24.1020  -10.5520   21.0430 C   0  0  0  0  0  0  0  0  0  0  0  0
  -24.5080   -9.6090   22.0120 C   0  0  0  0  0  3  0  0  0  0  0  0
  -23.8010   -8.3990   22.1750 C   0  0  0  0  0  3  0  0  0  0  0  0
  -22.6720   -8.1230   21.3670 C   0  0  0  0  0  0  0  0  0  0  0  0
  -22.2870   -9.0550   20.3860 C   0  0  0  0  0  3  0  0  0  0  0  0
  -22.9950  -10.2570   20.2220 C   0  0  0  0  0  3  0  0  0  0  0  0
  -21.9370   -6.9660   21.4360 O   0  0  0  0  0  0  0  0  0  0  0  0
  -21.8260   -6.2520   22.6040 C   0  0  0  0  0  0  0  0  0  0  0  0
  -21.2690   -6.8160   23.7720 C   0  0  0  0  0  3  0  0  0  0  0  0
  -21.1100   -6.0260   24.9280 C   0  0  0  0  0  3  0  0  0  0  0  0
  -21.4990   -4.6740   24.9170 C   0  0  0  0  0  0  0  0  0  0  0  0
  -22.0470   -4.1080   23.7520 C   0  0  0  0  0  3  0  0  0  0  0  0
  -22.2070   -4.8950   22.5980 C   0  0  0  0  0  0  0  0  0  0  0  0
  -22.7180   -4.3410   21.4720 F   0  0  0  0  0  0  0  0  0  0  0  0
  -21.3400   -3.9120   26.0230 F   0  0  0  0  0  0  0  0  0  0  0  0
  -22.9110  -13.6220   21.0890 C   0  0  0  0  0  0  0  0  0  0  0  0
  -22.1660  -12.9180   21.9340 N   0  0  0  0  0  0  0  0  0  0  0  0
  -22.4730  -14.6340   20.5450 O   0  0  0  0  0  0  0  0  0  0  0  0
  -22.5340  -12.1000   22.3960 H   0  0  0  0  0  0  0  0  0  0  0  0
  -21.2130  -13.1970   22.1210 H   0  0  0  0  0  0  0  0  0  0  0  0
  -25.5340  -15.3300   20.3490 N   0  0  0  0  0  0  0  0  0  0  0  0
  -24.7450  -15.9650   20.4210 H   0  0  0  0  0  0  0  0  0  0  0  0
  -26.3830  -15.7850   20.0400 H   0  0  0  0  0  0  0  0  0  0  0  0
  1  3  2  0
  1  2  1  0
  2  4  2  0
  3  5  1  0
  4 11  1  0
  4  7  1  0
  5 16  1  0
  5 11  2  0
  6  2  1  0
  8  6  1  0
  8 10  1  0
  9  7  1  0
 10 15  1  6
 10  9  1  0
 10 58  1  0
 13 12  1  0
 13  3  1  0
 14 15  1  0
 17 16  1  0
 18 29  2  0
 19 17  1  0
 19 24  1  0
 20 28  1  0
 20 30  1  0
 21 27  1  0
 21 23  1  0
 22 28  1  0
 23 22  1  0
 24 23  2  0
 25 26  1  0
 25 19  2  0
 26 21  2  0
 27 20  1  0
 28 18  1  0
 30 32  2  0
 31 30  1  0
 33 31  1  0
 34 43  2  0
 34 39  1  0
 35 31  1  0
 35 39  1  0
 36 35  1  0
 37 38  1  0
 37 36  1  0
 38 34  1  0
 39 40  2  0
 40 41  1  0
 42 41  2  0
 43 42  1  0
 44 18  1  0
 44 49  1  0
 44 45  1  0
 45 48  1  1
 45 46  1  0
 47 45  1  0
 49 52  1  0
 50 54  1  0
 50 49  1  0
 51 50  2  0
 54 53  1  0
 56 54  1  0
 56 57  1  0
 56 55  1  0
 58 67  1  0
 59 67  1  0
 60 65  1  0
 61 62  1  0
 61 60  1  0
 63 62  1  0
 63 72  1  0
 63 64  1  0
 65 59  1  0
 65 64  1  0
 66 59  2  0
 67 68  1  0
 69 70  2  0
 70 89  1  0
 71 70  1  0
 71 74  1  0
 72 69  1  0
 72 73  1  0
 73 71  2  0
 74 75  1  0
 75 76  2  0
 77 80  1  0
 77 76  1  0
 78 77  2  0
 79 78  1  0
 79 74  2  0
 80 81  1  0
 81 82  1  0
 82 83  2  0
 84 83  1  0
 84 88  1  0
 85 84  2  0
 86 81  2  0
 86 85  1  0
 87 86  1  0
 89 90  1  0
 90 93  1  0
 90 92  1  0
 91 89  2  0
 94 95  1  0
 94 69  1  0
 96 94  1  0
M  ISO  4  16 101  17 101  59 100  67 100
M  END
>  <TORSDO>  (42) 
F 20

>  <SCORE>  (42) 
-12.813

>  <name>  (42) 
42

>  <ligand_id>  (42) 
42

>  <original_smiles>  (42) 
[H]c1c([H])c([H])c2c(c1[H])C([H])([H])C([H])([H])C([H])([H])C2([H])N([H])C(=O)C1([H])N(C(=O)C([H])(N([H])C(=O)C([H])(N([H])C([H])([H])[H])C([H])([H])[H])C(C([H])([H])[H])(C([H])([H])[H])C([H])([H])[H])C([H])([H])c2c([H])c(OC([H])([H])c3nc4c(c([H])c3C([H])([H])C([H])([H])[H])C([H])([H])C([H])([H])C(C([H])([H])N([H])C(=O)N3C([H])([H])C([H])([H])C([H])([H])C([H])(n5nc(-c6c([H])c([H])c(Oc7c([H])c([H])c(F)c([H])c7F)c([H])c6[H])c(C(=O)N([H])[H])c5N([H])[H])C3([H])[H])(C([H])([H])C([H])([H])[H])C([H])([H])C4([H])[H])c([H])c([H])c2C1([H])[H]

>  <smiles>  (42) 
[H]c1c([H])c([H])c2c(c1[H])C([H])([H])C([H])([H])C([H])([H])C2([H])N([H])C(=O)C1([H])N(C(=O)C([H])(N([H])C(=O)C([H])(N([H])C([H])([H])[H])C([H])([H])[H])C(C([H])([H])[H])(C([H])([H])[H])C([H])([H])[H])C([H])([H])c2c([H])c(OC([H])([H])c3nc4c(c([H])c3C([H])([H])C([H])([H])[H])C([H])([H])C([H])([H])C(C([H])([H])N([H])C(=O)N3C([H])([H])C([H])([H])C([H])([H])C([H])(n5nc(-c6c([H])c([H])c(Oc7c([H])c([H])c(F)c([H])c7F)c([H])c6[H])c(C(=O)N([H])[H])c5N([H])[H])C3([H])[H])(C([H])([H])C([H])([H])[H])C([H])([H])C4([H])[H])c([H])c([H])c2C1([H])[H]

$$$$
43:0:0
     RDKit          3D

 92101  0  0  1  0  0  0  0  0999 V2000
  -29.0980  -16.3310   19.3460 C   0  0  0  0  0  3  0  0  0  0  0  0
  -30.0700  -16.0080   20.2610 C   0  0  0  0  0  0  0  0  0  0  0  0
  -30.3320  -17.1790   21.0560 C   0  0  0  0  0  0  0  0  0  0  0  0
  -29.5360  -18.2010   20.5460 C   0  0  0  0  0  0  0  0  0  0  0  0
  -29.3790  -19.6060   20.8220 C   0  0  0  0  0  3  0  0  0  0  0  0
  -27.6700  -19.7450   19.1190 C   0  0  0  0  0  3  0  0  0  0  0  0
  -27.8160  -18.4050   18.8390 C   0  0  0  0  0  3  0  0  0  0  0  0
  -28.4690  -20.3790   20.1050 C   0  0  0  0  0  0  0  0  0  0  0  0
  -28.7360  -17.6600   19.5120 N   0  0  0  0  0  0  0  0  0  0  0  0
  -30.8510  -14.6950   20.1750 C   0  0  0  0  0  0  0  0  0  0  0  0
  -30.5500  -12.4790   19.1310 C   0  0  0  0  0  2  0  0  0  0  0  0
  -29.5820  -12.6310   17.9380 C   0  0  0  0  0  2  0  0  0  0  0  0
  -28.1210  -12.4730   18.4040 C   0  0  0  0  0  2  0  0  0  0  0  0
  -27.7900  -13.3310   19.6540 C   0  0  0  0  0  3  0  0  0  0  0  0
  -28.8840  -13.2190   20.7360 C   0  0  0  0  0  2  0  0  0  0  0  0
  -30.1800  -13.5070   20.1180 N   0  0  0  0  0  0  0  0  0  0  0  0
  -32.0380  -14.7800   19.8560 O   0  0  0  0  0  0  0  0  0  0  0  0
  -25.4320  -13.9250   20.4660 C   0  0  0  0  0  0  0  0  0  0  0  0
  -24.3780  -13.1460   20.8580 C   0  0  0  0  0  0  0  0  0  0  0  0
  -24.8420  -11.7960   20.7970 C   0  0  0  0  0  0  0  0  0  0  0  0
  -26.4660  -13.0470   20.1860 N   0  0  0  0  0  0  0  0  0  0  0  0
  -26.1220  -11.7620   20.4500 N   0  0  0  0  0  0  0  0  0  0  0  0
  -24.1290  -10.5310   20.9930 C   0  0  0  0  0  0  0  0  0  0  0  0
  -24.5630   -9.5790   21.9410 C   0  0  0  0  0  3  0  0  0  0  0  0
  -23.8500   -8.3740   22.1230 C   0  0  0  0  0  3  0  0  0  0  0  0
  -22.6890   -8.1140   21.3570 C   0  0  0  0  0  0  0  0  0  0  0  0
  -22.2750   -9.0550   20.3960 C   0  0  0  0  0  3  0  0  0  0  0  0
  -22.9900  -10.2510   20.2120 C   0  0  0  0  0  3  0  0  0  0  0  0
  -21.9480   -6.9610   21.4470 O   0  0  0  0  0  0  0  0  0  0  0  0
  -21.8310   -6.2720   22.6270 C   0  0  0  0  0  0  0  0  0  0  0  0
  -21.3170   -6.8760   23.7960 C   0  0  0  0  0  3  0  0  0  0  0  0
  -21.1490   -6.1100   24.9680 C   0  0  0  0  0  3  0  0  0  0  0  0
  -21.4870   -4.7440   24.9710 C   0  0  0  0  0  0  0  0  0  0  0  0
  -21.9950   -4.1400   23.8070 C   0  0  0  0  0  3  0  0  0  0  0  0
  -22.1650   -4.9030   22.6380 C   0  0  0  0  0  0  0  0  0  0  0  0
  -22.6340   -4.3120   21.5130 F   0  0  0  0  0  0  0  0  0  0  0  0
  -21.3200   -4.0060   26.0940 F   0  0  0  0  0  0  0  0  0  0  0  0
  -22.9880  -13.6150   21.1770 C   0  0  0  0  0  0  0  0  0  0  0  0
  -22.2890  -12.9100   22.0570 N   0  0  0  0  0  0  0  0  0  0  0  0
  -22.5310  -14.6430   20.6780 O   0  0  0  0  0  0  0  0  0  0  0  0
  -22.6710  -12.0810   22.4860 H   0  0  0  0  0  0  0  0  0  0  0  0
  -21.3570  -13.2090   22.3120 H   0  0  0  0  0  0  0  0  0  0  0  0
  -25.5920  -15.2990   20.3020 N   0  0  0  0  0  0  0  0  0  0  0  0
  -24.8400  -15.9580   20.4660 H   0  0  0  0  0  0  0  0  0  0  0  0
  -26.4540  -15.7420   20.0090 H   0  0  0  0  0  0  0  0  0  0  0  0
  -30.6340  -17.7110   23.4950 C   0  0  0  0  0  1  0  0  0  0  0  0
  -31.3140  -17.2870   22.1880 C   0  0  0  0  0  2  0  0  0  0  0  0
  -28.2470  -21.8870   20.3660 C   0  0  0  0  0  2  0  0  0  0  0  0
  -29.0780  -22.8430   19.4540 C   0  0  0  0  0  2  0  0  0  0  0  0
  -28.4790  -24.2450   19.0780 C   0  0  0  0  0  2  0  0  0  0  0  0
  -28.3200  -25.3110   20.2030 C   0  0  0  0  0  2  0  0  0  0  0  0
  -28.3530  -26.6900   19.7410 O   0  0  0  0  0  0  0  0  0  0  0  0
  -24.4440  -31.6720   23.0510 C   0  0  0  0  0  0  0  0  0  0  0  0
  -27.1740  -27.4110   19.7760 C   0  0  0  0  0  0  0  0  0  0  0  0
  -23.2620  -30.3170   21.3540 C   0  0  0  0  0  3  0  0  0  0  0  0
  -24.7480  -28.8770   19.8520 C   0  0  0  0  0  0  0  0  0  0  0  0
  -25.7800  -30.7440   21.1560 C   0  0  0  0  0  2  0  0  0  0  0  0
  -25.8970  -29.4020   20.4560 C   0  0  0  0  0  0  0  0  0  0  0  0
  -27.1150  -28.6800   20.4070 C   0  0  0  0  0  3  0  0  0  0  0  0
  -26.0070  -26.9080   19.1640 C   0  0  0  0  0  3  0  0  0  0  0  0
  -24.8000  -27.6320   19.2000 C   0  0  0  0  0  3  0  0  0  0  0  0
  -23.4820  -29.7040   19.9430 C   0  0  0  0  0  2  0  0  0  0  0  0
  -24.5140  -30.9260   21.9120 N   0  0  0  0  0  0  0  0  0  0  0  0
  -23.3580  -31.8910   23.6090 O   0  0  0  0  0  0  0  0  0  0  0  0
  -22.6440  -29.2370   22.2720 C   0  0  0  0  0  0  0  0  0  0  0  0
  -21.3200  -29.0400   22.1590 N   0  0  0  0  0  0  0  0  0  0  0  0
  -23.3530  -28.5810   23.0400 O   0  0  0  0  0  0  0  0  0  0  0  0
  -20.8080  -29.6260   21.5130 H   0  0  0  0  0  0  0  0  0  0  0  0
  -17.9760  -27.7630   22.6520 C   0  0  0  0  0  0  0  0  0  0  0  0
  -20.5330  -28.0490   22.8920 C   0  0  0  0  0  3  0  0  0  0  0  0
  -20.6490  -26.6540   22.2380 C   0  0  0  0  0  2  0  0  0  0  0  0
  -19.5330  -26.3670   21.2270 C   0  0  0  0  0  2  0  0  0  0  0  0
  -18.1610  -26.4550   21.9030 C   0  0  0  0  0  2  0  0  0  0  0  0
  -19.0900  -28.5180   23.1040 C   0  0  0  0  0  0  0  0  0  0  0  0
  -18.8630  -29.7450   23.7650 C   0  0  0  0  0  3  0  0  0  0  0  0
  -17.5550  -30.2160   23.9810 C   0  0  0  0  0  3  0  0  0  0  0  0
  -16.4540  -29.4570   23.5450 C   0  0  0  0  0  3  0  0  0  0  0  0
  -16.6660  -28.2320   22.8870 C   0  0  0  0  0  3  0  0  0  0  0  0
  -25.7160  -32.3080   23.6930 C   0  0  0  0  0  3  0  0  0  0  0  0
  -25.3770  -33.6870   24.0730 N   0  0  0  0  0  0  0  0  0  0  0  0
  -25.6820  -34.7720   23.3490 C   0  0  0  0  0  0  0  0  0  0  0  0
  -26.3520  -34.7200   22.3140 O   0  0  0  0  0  0  0  0  0  0  0  0
  -24.7850  -33.8000   24.8810 H   0  0  0  0  0  0  0  0  0  0  0  0
  -23.9080  -36.5320   23.0700 C   0  0  0  0  0  1  0  0  0  0  0  0
  -25.1660  -36.1320   23.8570 C   0  0  0  0  0  3  0  0  0  0  0  0
  -27.2850  -37.0460   24.6980 C   0  0  0  0  0  1  0  0  0  0  0  0
  -26.1710  -37.2150   23.7680 N   0  0  0  0  0  0  0  0  0  0  0  0
  -25.7420  -38.1190   23.9470 H   0  0  0  0  0  0  0  0  0  0  0  0
  -26.2540  -31.5030   24.9380 C   0  0  1  0  0  0  0  0  0  0  0  0
  -25.1720  -31.2150   26.0040 C   0  0  0  0  0  1  0  0  0  0  0  0
  -26.8540  -30.1480   24.4940 C   0  0  0  0  0  1  0  0  0  0  0  0
  -27.3960  -32.2910   25.6200 C   0  0  0  0  0  1  0  0  0  0  0  0
  1  9  1  0
  1  2  2  0
  2  3  1  0
  3 47  1  0
  4  5  1  0
  4  3  2  0
  6  8  1  0
  7  6  2  0
  7  9  1  0
  8 48  1  0
  8  5  2  0
  9  4  1  0
 10  2  1  0
 11 16  1  0
 12 13  1  0
 12 11  1  0
 14 13  1  0
 14 21  1  0
 14 15  1  0
 16 10  1  0
 16 15  1  0
 17 10  2  0
 18 19  2  0
 19 38  1  0
 20 19  1  0
 20 23  1  0
 21 22  1  0
 21 18  1  0
 22 20  2  0
 23 24  1  0
 24 25  2  0
 26 29  1  0
 26 25  1  0
 27 26  2  0
 28 27  1  0
 28 23  2  0
 29 30  1  0
 30 35  2  0
 30 31  1  0
 31 32  2  0
 32 33  1  0
 33 37  1  0
 34 33  2  0
 35 34  1  0
 36 35  1  0
 38 39  1  0
 39 42  1  0
 39 41  1  0
 40 38  2  0
 43 18  1  0
 43 44  1  0
 45 43  1  0
 47 46  1  0
 49 48  1  0
 50 49  1  0
 50 51  1  0
 52 54  1  0
 52 51  1  0
 53 64  2  0
 54 59  1  0
 55 63  1  0
 55 65  1  0
 56 62  1  0
 56 58  1  0
 57 63  1  0
 58 57  1  0
 59 58  2  0
 60 61  1  0
 60 54  2  0
 61 56  2  0
 62 55  1  0
 63 53  1  0
 65 67  2  0
 66 65  1  0
 68 66  1  0
 69 78  2  0
 69 74  1  0
 70 66  1  0
 70 74  1  0
 71 70  1  0
 72 73  1  0
 72 71  1  0
 73 69  1  0
 74 75  2  0
 75 76  1  0
 77 76  2  0
 78 77  1  0
 79 53  1  0
 79 80  1  0
 79 89  1  0
 80 83  1  0
 81 85  1  0
 81 80  1  0
 82 81  2  0
 85 84  1  0
 87 85  1  0
 87 88  1  0
 87 86  1  0
 89 92  1  1
 89 90  1  0
 91 89  1  0
M  ISO  4   2 100  10 100  51 101  52 101
M  END
>  <TORSDO>  (43) 
F 21

>  <SCORE>  (43) 
-12.696

>  <name>  (43) 
43

>  <ligand_id>  (43) 
43

>  <original_smiles>  (43) 
[H]c1c([H])c([H])c2c(c1[H])C([H])([H])C([H])([H])C([H])([H])C2([H])N([H])C(=O)C1([H])N(C(=O)C([H])(N([H])C(=O)C([H])(N([H])C([H])([H])[H])C([H])([H])[H])C(C([H])([H])[H])(C([H])([H])[H])C([H])([H])[H])C([H])([H])c2c([H])c(OC([H])([H])C([H])([H])C([H])([H])C([H])([H])c3c([H])c([H])n4c([H])c(C(=O)N5C([H])([H])C([H])([H])C([H])([H])C([H])(n6nc(-c7c([H])c([H])c(Oc8c([H])c([H])c(F)c([H])c8F)c([H])c7[H])c(C(=O)N([H])[H])c6N([H])[H])C5([H])[H])c(C([H])([H])C([H])([H])[H])c4c3[H])c([H])c([H])c2C1([H])[H]

>  <smiles>  (43) 
[H]c1c([H])c([H])c2c(c1[H])C([H])([H])C([H])([H])C([H])([H])C2([H])N([H])C(=O)C1([H])N(C(=O)C([H])(N([H])C(=O)C([H])(N([H])C([H])([H])[H])C([H])([H])[H])C(C([H])([H])[H])(C([H])([H])[H])C([H])([H])[H])C([H])([H])c2c([H])c(OC([H])([H])C([H])([H])C([H])([H])C([H])([H])c3c([H])c([H])n4c([H])c(C(=O)N5C([H])([H])C([H])([H])C([H])([H])C([H])(n6nc(-c7c([H])c([H])c(Oc8c([H])c([H])c(F)c([H])c8F)c([H])c7[H])c(C(=O)N([H])[H])c6N([H])[H])C5([H])[H])c(C([H])([H])C([H])([H])[H])c4c3[H])c([H])c([H])c2C1([H])[H]

$$$$
44:0:0
     RDKit          3D

 90 98  0  0  1  0  0  0  0  0999 V2000
  -29.5230  -20.1350   18.6020 C   0  0  0  0  0  3  0  0  0  0  0  0
  -29.5030  -20.0250   20.0020 C   0  0  0  0  0  0  0  0  0  0  0  0
  -29.1410  -21.4130   20.6110 C   0  0  0  0  0  0  0  0  0  0  0  0
  -28.8430  -22.7780   19.9100 C   0  0  0  0  0  0  0  0  0  0  0  0
  -28.9730  -22.6100   18.5010 C   0  0  0  0  0  0  0  0  0  0  0  0
  -29.2810  -21.3450   17.8940 C   0  0  0  0  0  0  0  0  0  0  0  0
  -29.0650  -21.4380   22.1250 C   0  0  0  0  0  1  0  0  0  0  0  0
  -28.7350  -23.8220   17.6030 C   0  0  0  0  0  1  0  0  0  0  0  0
  -29.3720  -21.2110   16.1700 Cl  0  0  0  0  0  0  0  0  0  0  0  0
  -30.0390  -18.4660   20.6520 C   0  0  0  0  0  2  0  0  0  0  0  0
  -30.6700  -15.5390   20.3050 C   0  0  0  0  0  0  0  0  0  0  0  0
  -30.7040  -13.0600   19.4740 C   0  0  0  0  0  2  0  0  0  0  0  0
  -29.8170  -12.7680   18.2360 C   0  0  0  0  0  2  0  0  0  0  0  0
  -28.3620  -12.4910   18.6510 C   0  0  0  0  0  2  0  0  0  0  0  0
  -27.8680  -13.4900   19.7270 C   0  0  0  0  0  3  0  0  0  0  0  0
  -28.8880  -13.7010   20.8650 C   0  0  0  0  0  2  0  0  0  0  0  0
  -30.1110  -14.2250   20.2330 N   0  0  0  0  0  0  0  0  0  0  0  0
  -31.9060  -15.5220   20.2100 O   0  0  0  0  0  0  0  0  0  0  0  0
  -29.8940  -16.8210   20.2860 N   0  0  0  0  0  0  0  0  0  0  0  0
  -28.9180  -16.5930   20.1730 H   0  0  0  0  0  0  0  0  0  0  0  0
  -25.4840  -14.0530   20.4260 C   0  0  0  0  0  0  0  0  0  0  0  0
  -24.4130  -13.2800   20.7750 C   0  0  0  0  0  0  0  0  0  0  0  0
  -24.8810  -11.9300   20.7660 C   0  0  0  0  0  0  0  0  0  0  0  0
  -26.5330  -13.1760   20.2140 N   0  0  0  0  0  0  0  0  0  0  0  0
  -26.1810  -11.8920   20.4890 N   0  0  0  0  0  0  0  0  0  0  0  0
  -24.1490  -10.6700   20.9470 C   0  0  0  0  0  0  0  0  0  0  0  0
  -24.5260   -9.7270   21.9280 C   0  0  0  0  0  3  0  0  0  0  0  0
  -23.7910   -8.5340   22.0960 C   0  0  0  0  0  3  0  0  0  0  0  0
  -22.6630   -8.2760   21.2830 C   0  0  0  0  0  0  0  0  0  0  0  0
  -22.3040   -9.2050   20.2900 C   0  0  0  0  0  3  0  0  0  0  0  0
  -23.0410  -10.3890   20.1200 C   0  0  0  0  0  3  0  0  0  0  0  0
  -21.9050   -7.1310   21.3570 O   0  0  0  0  0  0  0  0  0  0  0  0
  -21.7580   -6.4410   22.5330 C   0  0  0  0  0  0  0  0  0  0  0  0
  -21.1680   -7.0290   23.6730 C   0  0  0  0  0  3  0  0  0  0  0  0
  -20.9730   -6.2620   24.8400 C   0  0  0  0  0  3  0  0  0  0  0  0
  -21.3570   -4.9070   24.8650 C   0  0  0  0  0  0  0  0  0  0  0  0
  -21.9390   -4.3190   23.7290 C   0  0  0  0  0  3  0  0  0  0  0  0
  -22.1360   -5.0830   22.5650 C   0  0  0  0  0  0  0  0  0  0  0  0
  -22.6780   -4.5060   21.4660 F   0  0  0  0  0  0  0  0  0  0  0  0
  -21.1630   -4.1690   25.9820 F   0  0  0  0  0  0  0  0  0  0  0  0
  -23.0100  -13.7600   21.0000 C   0  0  0  0  0  0  0  0  0  0  0  0
  -22.2590  -13.0750   21.8530 N   0  0  0  0  0  0  0  0  0  0  0  0
  -22.5890  -14.7790   20.4550 O   0  0  0  0  0  0  0  0  0  0  0  0
  -22.6120  -12.2500   22.3150 H   0  0  0  0  0  0  0  0  0  0  0  0
  -21.3160  -13.3810   22.0500 H   0  0  0  0  0  0  0  0  0  0  0  0
  -25.6480  -15.4230   20.2380 N   0  0  0  0  0  0  0  0  0  0  0  0
  -24.8720  -16.0720   20.3130 H   0  0  0  0  0  0  0  0  0  0  0  0
  -26.4950  -15.8580   19.8960 H   0  0  0  0  0  0  0  0  0  0  0  0
  -28.1960  -24.3360   20.4840 C   0  0  0  0  0  2  0  0  0  0  0  0
  -28.3790  -25.9510   20.0830 O   0  0  0  0  0  0  0  0  0  0  0  0
  -24.6950  -31.8960   23.1460 C   0  0  0  0  0  0  0  0  0  0  0  0
  -27.3450  -27.0470   20.1070 C   0  0  0  0  0  0  0  0  0  0  0  0
  -23.5310  -30.4820   21.5030 C   0  0  0  0  0  3  0  0  0  0  0  0
  -25.0110  -28.9070   20.0750 C   0  0  0  0  0  0  0  0  0  0  0  0
  -26.0960  -30.7350   21.3570 C   0  0  0  0  0  2  0  0  0  0  0  0
  -26.1940  -29.3260   20.6940 C   0  0  0  0  0  0  0  0  0  0  0  0
  -27.3580  -28.4210   20.6780 C   0  0  0  0  0  3  0  0  0  0  0  0
  -26.1230  -26.7910   19.4450 C   0  0  0  0  0  3  0  0  0  0  0  0
  -25.0020  -27.6630   19.4280 C   0  0  0  0  0  3  0  0  0  0  0  0
  -23.7750  -29.8090   20.1240 C   0  0  0  0  0  2  0  0  0  0  0  0
  -24.7970  -31.0670   22.0560 N   0  0  0  0  0  0  0  0  0  0  0  0
  -23.5990  -32.1590   23.6680 O   0  0  0  0  0  0  0  0  0  0  0  0
  -22.8570  -29.4700   22.4660 C   0  0  0  0  0  0  0  0  0  0  0  0
  -21.5320  -29.2680   22.3360 N   0  0  0  0  0  0  0  0  0  0  0  0
  -23.5350  -28.8650   23.3010 O   0  0  0  0  0  0  0  0  0  0  0  0
  -21.0370  -29.8060   21.6380 H   0  0  0  0  0  0  0  0  0  0  0  0
  -18.1820  -27.9660   22.8400 C   0  0  0  0  0  0  0  0  0  0  0  0
  -20.7330  -28.3060   23.1040 C   0  0  0  0  0  3  0  0  0  0  0  0
  -20.8750  -26.8780   22.5260 C   0  0  0  0  0  2  0  0  0  0  0  0
  -19.7830  -26.5260   21.5100 C   0  0  0  0  0  2  0  0  0  0  0  0
  -18.3970  -26.6280   22.1540 C   0  0  0  0  0  2  0  0  0  0  0  0
  -19.2780  -28.7610   23.2710 C   0  0  0  0  0  0  0  0  0  0  0  0
  -19.0200  -30.0100   23.8760 C   0  0  0  0  0  3  0  0  0  0  0  0
  -17.6990  -30.4660   24.0520 C   0  0  0  0  0  3  0  0  0  0  0  0
  -16.6190  -29.6690   23.6350 C   0  0  0  0  0  3  0  0  0  0  0  0
  -16.8610  -28.4200   23.0340 C   0  0  0  0  0  3  0  0  0  0  0  0
  -25.9500  -32.5660   23.7810 C   0  0  0  0  0  3  0  0  0  0  0  0
  -25.6050  -33.9640   24.1010 N   0  0  0  0  0  0  0  0  0  0  0  0
  -25.9360  -35.0280   23.3570 C   0  0  0  0  0  0  0  0  0  0  0  0
  -26.6220  -34.9390   22.3370 O   0  0  0  0  0  0  0  0  0  0  0  0
  -24.9980  -34.1060   24.8950 H   0  0  0  0  0  0  0  0  0  0  0  0
  -24.2070  -36.8200   22.9740 C   0  0  0  0  0  1  0  0  0  0  0  0
  -25.4250  -36.4100   23.8160 C   0  0  0  0  0  3  0  0  0  0  0  0
  -27.5190  -37.3110   24.7310 C   0  0  0  0  0  1  0  0  0  0  0  0
  -26.4530  -37.4730   23.7460 N   0  0  0  0  0  0  0  0  0  0  0  0
  -26.0330  -38.3890   23.8810 H   0  0  0  0  0  0  0  0  0  0  0  0
  -26.4560  -31.8260   25.0810 C   0  0  1  0  0  0  0  0  0  0  0  0
  -25.3500  -31.5880   26.1360 C   0  0  0  0  0  1  0  0  0  0  0  0
  -27.0670  -30.4510   24.7310 C   0  0  0  0  0  1  0  0  0  0  0  0
  -27.5840  -32.6500   25.7470 C   0  0  0  0  0  1  0  0  0  0  0  0
  1  2  1  0
  2  3  2  0
  2 10  1  0
  3  7  1  0
  4 49  1  0
  4  3  1  0
  5  4  2  0
  6  5  1  0
  6  1  2  0
  8  5  1  0
  9  6  1  0
 12 17  1  0
 13 14  1  0
 13 12  1  0
 15 14  1  0
 15 24  1  0
 15 16  1  0
 17 11  1  0
 17 16  1  0
 18 11  2  0
 19 11  1  0
 19 10  1  0
 20 19  1  0
 21 22  2  0
 22 41  1  0
 23 22  1  0
 23 26  1  0
 24 21  1  0
 24 25  1  0
 25 23  2  0
 26 27  1  0
 27 28  2  0
 29 32  1  0
 29 28  1  0
 30 29  2  0
 31 30  1  0
 31 26  2  0
 32 33  1  0
 33 38  2  0
 33 34  1  0
 34 35  2  0
 35 36  1  0
 36 40  1  0
 37 36  2  0
 38 37  1  0
 39 38  1  0
 41 42  1  0
 42 45  1  0
 42 44  1  0
 43 41  2  0
 46 47  1  0
 46 21  1  0
 48 46  1  0
 50 52  1  0
 50 49  1  0
 51 62  2  0
 52 57  1  0
 53 61  1  0
 53 63  1  0
 54 60  1  0
 54 56  1  0
 55 61  1  0
 56 55  1  0
 57 56  2  0
 58 52  2  0
 59 58  1  0
 59 54  2  0
 60 53  1  0
 61 51  1  0
 63 65  2  0
 64 63  1  0
 66 64  1  0
 67 76  2  0
 67 72  1  0
 68 64  1  0
 68 72  1  0
 69 68  1  0
 70 71  1  0
 70 69  1  0
 71 67  1  0
 72 73  2  0
 73 74  1  0
 75 74  2  0
 76 75  1  0
 77 51  1  0
 77 78  1  0
 77 87  1  0
 78 81  1  0
 79 83  1  0
 79 78  1  0
 80 79  2  0
 83 82  1  0
 85 83  1  0
 85 86  1  0
 85 84  1  0
 87 90  1  1
 87 88  1  0
 89 87  1  0
M  ISO  4  11 100  19 100  49 101  50 101
M  END
>  <TORSDO>  (44) 
F 18

>  <SCORE>  (44) 
-16.452

>  <name>  (44) 
44

>  <ligand_id>  (44) 
44

>  <original_smiles>  (44) 
[H]c1c([H])c([H])c2c(c1[H])C([H])([H])C([H])([H])C([H])([H])C2([H])N([H])C(=O)C1([H])N(C(=O)C([H])(N([H])C(=O)C([H])(N([H])C([H])([H])[H])C([H])([H])[H])C(C([H])([H])[H])(C([H])([H])[H])C([H])([H])[H])C([H])([H])c2c([H])c(OC([H])([H])c3c(C([H])([H])[H])c(Cl)c([H])c(C([H])([H])N([H])C(=O)N4C([H])([H])C([H])([H])C([H])([H])C([H])(n5nc(-c6c([H])c([H])c(Oc7c([H])c([H])c(F)c([H])c7F)c([H])c6[H])c(C(=O)N([H])[H])c5N([H])[H])C4([H])[H])c3C([H])([H])[H])c([H])c([H])c2C1([H])[H]

>  <smiles>  (44) 
[H]c1c([H])c([H])c2c(c1[H])C([H])([H])C([H])([H])C([H])([H])C2([H])N([H])C(=O)C1([H])N(C(=O)C([H])(N([H])C(=O)C([H])(N([H])C([H])([H])[H])C([H])([H])[H])C(C([H])([H])[H])(C([H])([H])[H])C([H])([H])[H])C([H])([H])c2c([H])c(OC([H])([H])c3c(C([H])([H])[H])c(Cl)c([H])c(C([H])([H])N([H])C(=O)N4C([H])([H])C([H])([H])C([H])([H])C([H])(n5nc(-c6c([H])c([H])c(Oc7c([H])c([H])c(F)c([H])c7F)c([H])c6[H])c(C(=O)N([H])[H])c5N([H])[H])C4([H])[H])c3C([H])([H])[H])c([H])c([H])c2C1([H])[H]

$$$$
45:0:0
     RDKit          3D

 90 98  0  0  1  0  0  0  0  0999 V2000
  -28.3880  -19.5280   20.6150 C   0  0  0  0  0  3  0  0  0  0  0  0
  -27.9600  -20.9190   20.6750 C   0  0  0  0  0  3  0  0  0  0  0  0
  -30.5440  -20.2810   20.0130 C   0  0  0  0  0  3  0  0  0  0  0  0
  -29.7260  -19.1310   20.2850 C   0  0  0  0  0  0  0  0  0  0  0  0
  -28.7930  -22.0690   20.4120 C   0  0  0  0  0  0  0  0  0  0  0  0
  -30.1240  -21.6660   20.0670 C   0  0  0  0  0  0  0  0  0  0  0  0
  -31.3270  -22.8630   19.7450 Cl  0  0  0  0  0  0  0  0  0  0  0  0
  -28.5340  -23.9780   22.1610 C   0  0  0  0  0  1  0  0  0  0  0  0
  -28.2630  -23.6060   20.6940 C   0  0  0  0  0  3  0  0  0  0  0  0
  -28.5100  -24.9560   19.7650 C   0  0  0  0  0  2  0  0  0  0  0  0
  -28.4260  -26.4110   20.2580 O   0  0  0  0  0  0  0  0  0  0  0  0
  -24.6330  -31.9040   23.2280 C   0  0  0  0  0  0  0  0  0  0  0  0
  -27.3130  -27.3000   20.1780 C   0  0  0  0  0  0  0  0  0  0  0  0
  -23.4670  -30.5010   21.5620 C   0  0  0  0  0  3  0  0  0  0  0  0
  -24.9480  -28.9610   20.1440 C   0  0  0  0  0  0  0  0  0  0  0  0
  -26.0150  -30.8220   21.4250 C   0  0  0  0  0  2  0  0  0  0  0  0
  -26.1120  -29.4420   20.7570 C   0  0  0  0  0  0  0  0  0  0  0  0
  -27.2960  -28.6270   20.7500 C   0  0  0  0  0  3  0  0  0  0  0  0
  -26.1140  -26.8880   19.5580 C   0  0  0  0  0  3  0  0  0  0  0  0
  -24.9570  -27.6970   19.5370 C   0  0  0  0  0  3  0  0  0  0  0  0
  -23.7070  -29.8350   20.1820 C   0  0  0  0  0  2  0  0  0  0  0  0
  -24.7240  -31.0960   22.1270 N   0  0  0  0  0  0  0  0  0  0  0  0
  -23.5370  -32.1660   23.7480 O   0  0  0  0  0  0  0  0  0  0  0  0
  -22.7970  -29.4770   22.5100 C   0  0  0  0  0  0  0  0  0  0  0  0
  -21.4680  -29.3070   22.3860 N   0  0  0  0  0  0  0  0  0  0  0  0
  -23.4730  -28.8400   23.3230 O   0  0  0  0  0  0  0  0  0  0  0  0
  -20.9770  -29.8730   21.7090 H   0  0  0  0  0  0  0  0  0  0  0  0
  -18.0850  -28.1290   22.8980 C   0  0  0  0  0  0  0  0  0  0  0  0
  -20.6490  -28.3580   23.1450 C   0  0  0  0  0  3  0  0  0  0  0  0
  -20.7290  -26.9390   22.5350 C   0  0  0  0  0  2  0  0  0  0  0  0
  -19.6150  -26.6500   21.5250 C   0  0  0  0  0  2  0  0  0  0  0  0
  -18.2420  -26.7960   22.1870 C   0  0  0  0  0  2  0  0  0  0  0  0
  -19.2150  -28.8700   23.3340 C   0  0  0  0  0  0  0  0  0  0  0  0
  -19.0150  -30.1210   23.9590 C   0  0  0  0  0  3  0  0  0  0  0  0
  -17.7160  -30.6320   24.1480 C   0  0  0  0  0  3  0  0  0  0  0  0
  -16.6000  -29.8830   23.7350 C   0  0  0  0  0  3  0  0  0  0  0  0
  -16.7860  -28.6320   23.1170 C   0  0  0  0  0  3  0  0  0  0  0  0
  -25.8980  -32.5530   23.8710 C   0  0  0  0  0  3  0  0  0  0  0  0
  -26.3920  -31.8030   25.1700 C   0  0  1  0  0  0  0  0  0  0  0  0
  -25.2780  -31.5650   26.2170 C   0  0  0  0  0  1  0  0  0  0  0  0
  -26.9970  -30.4270   24.8080 C   0  0  0  0  0  1  0  0  0  0  0  0
  -27.5200  -32.6130   25.8490 C   0  0  0  0  0  1  0  0  0  0  0  0
  -25.5720  -33.9520   24.1850 N   0  0  0  0  0  0  0  0  0  0  0  0
  -25.8990  -35.0020   23.4220 C   0  0  0  0  0  0  0  0  0  0  0  0
  -26.5730  -34.8980   22.3940 O   0  0  0  0  0  0  0  0  0  0  0  0
  -24.9840  -34.1090   24.9900 H   0  0  0  0  0  0  0  0  0  0  0  0
  -24.1670  -36.7820   23.0350 C   0  0  0  0  0  1  0  0  0  0  0  0
  -25.3970  -36.3890   23.8680 C   0  0  0  0  0  3  0  0  0  0  0  0
  -27.5080  -37.2940   24.7380 C   0  0  0  0  0  1  0  0  0  0  0  0
  -26.4250  -37.4480   23.7690 N   0  0  0  0  0  0  0  0  0  0  0  0
  -26.0090  -38.3650   23.9050 H   0  0  0  0  0  0  0  0  0  0  0  0
  -30.4260  -17.6430   20.2400 C   0  0  0  0  0  2  0  0  0  0  0  0
  -30.6110  -14.9890   20.1770 C   0  0  0  0  0  0  0  0  0  0  0  0
  -30.4150  -12.6820   19.1840 C   0  0  0  0  0  2  0  0  0  0  0  0
  -29.4520  -12.7000   17.9770 C   0  0  0  0  0  2  0  0  0  0  0  0
  -27.9970  -12.4970   18.4430 C   0  0  0  0  0  2  0  0  0  0  0  0
  -27.6340  -13.4040   19.6510 C   0  0  0  0  0  3  0  0  0  0  0  0
  -28.7180  -13.3550   20.7460 C   0  0  0  0  0  2  0  0  0  0  0  0
  -29.9790  -13.7540   20.1150 N   0  0  0  0  0  0  0  0  0  0  0  0
  -31.8090  -15.0340   19.8790 O   0  0  0  0  0  0  0  0  0  0  0  0
  -29.8750  -16.1880   20.3490 N   0  0  0  0  0  0  0  0  0  0  0  0
  -28.8810  -16.0890   20.4850 H   0  0  0  0  0  0  0  0  0  0  0  0
  -25.2790  -13.9840   20.4710 C   0  0  0  0  0  0  0  0  0  0  0  0
  -24.2230  -13.2040   20.8620 C   0  0  0  0  0  0  0  0  0  0  0  0
  -24.6820  -11.8530   20.7960 C   0  0  0  0  0  0  0  0  0  0  0  0
  -26.3120  -13.1060   20.1860 N   0  0  0  0  0  0  0  0  0  0  0  0
  -25.9630  -11.8200   20.4470 N   0  0  0  0  0  0  0  0  0  0  0  0
  -23.9570  -10.5900   20.9830 C   0  0  0  0  0  0  0  0  0  0  0  0
  -24.3920   -9.6220   21.9140 C   0  0  0  0  0  3  0  0  0  0  0  0
  -23.6680   -8.4240   22.0920 C   0  0  0  0  0  3  0  0  0  0  0  0
  -22.4950   -8.1860   21.3390 C   0  0  0  0  0  0  0  0  0  0  0  0
  -22.0780   -9.1430   20.3960 C   0  0  0  0  0  3  0  0  0  0  0  0
  -22.8030  -10.3330   20.2170 C   0  0  0  0  0  3  0  0  0  0  0  0
  -21.7420   -7.0400   21.4260 O   0  0  0  0  0  0  0  0  0  0  0  0
  -21.6710   -6.3100   22.5840 C   0  0  0  0  0  0  0  0  0  0  0  0
  -21.1820   -6.8680   23.7860 C   0  0  0  0  0  3  0  0  0  0  0  0
  -21.0630   -6.0650   24.9370 C   0  0  0  0  0  3  0  0  0  0  0  0
  -21.4200   -4.7030   24.8860 C   0  0  0  0  0  0  0  0  0  0  0  0
  -21.8980   -4.1450   23.6870 C   0  0  0  0  0  3  0  0  0  0  0  0
  -22.0190   -4.9460   22.5400 C   0  0  0  0  0  0  0  0  0  0  0  0
  -22.4630   -4.3980   21.3810 F   0  0  0  0  0  0  0  0  0  0  0  0
  -21.2960   -3.9280   25.9870 F   0  0  0  0  0  0  0  0  0  0  0  0
  -22.8350  -13.6820   21.1770 C   0  0  0  0  0  0  0  0  0  0  0  0
  -22.1230  -12.9710   22.0460 N   0  0  0  0  0  0  0  0  0  0  0  0
  -22.3920  -14.7210   20.6880 O   0  0  0  0  0  0  0  0  0  0  0  0
  -22.4950  -12.1310   22.4640 H   0  0  0  0  0  0  0  0  0  0  0  0
  -21.1920  -13.2720   22.2940 H   0  0  0  0  0  0  0  0  0  0  0  0
  -25.4390  -15.3560   20.3050 N   0  0  0  0  0  0  0  0  0  0  0  0
  -24.6710  -16.0060   20.4270 H   0  0  0  0  0  0  0  0  0  0  0  0
  -26.2630  -15.7920   19.9080 H   0  0  0  0  0  0  0  0  0  0  0  0
  1  2  1  0
  3  6  2  0
  3  4  1  0
  4  1  2  0
  5  2  2  0
  5  9  1  0
  6  5  1  0
  7  6  1  0
  9  8  1  0
 10 11  1  0
 10  9  1  0
 12 23  2  0
 13 11  1  0
 13 18  1  0
 14 22  1  0
 14 24  1  0
 15 21  1  0
 15 17  1  0
 16 22  1  0
 17 16  1  0
 18 17  2  0
 19 13  2  0
 20 19  1  0
 20 15  2  0
 21 14  1  0
 22 12  1  0
 24 26  2  0
 25 24  1  0
 27 25  1  0
 28 37  2  0
 28 33  1  0
 29 25  1  0
 29 33  1  0
 30 29  1  0
 31 32  1  0
 31 30  1  0
 32 28  1  0
 33 34  2  0
 34 35  1  0
 36 35  2  0
 37 36  1  0
 38 12  1  0
 38 43  1  0
 38 39  1  0
 39 42  1  1
 39 40  1  0
 41 39  1  0
 43 46  1  0
 44 48  1  0
 44 43  1  0
 45 44  2  0
 48 47  1  0
 50 48  1  0
 50 51  1  0
 50 49  1  0
 52  4  1  0
 52 61  1  0
 53 61  1  0
 54 59  1  0
 55 56  1  0
 55 54  1  0
 57 56  1  0
 57 66  1  0
 57 58  1  0
 59 53  1  0
 59 58  1  0
 60 53  2  0
 61 62  1  0
 63 64  2  0
 64 83  1  0
 65 64  1  0
 65 68  1  0
 66 67  1  0
 66 63  1  0
 67 65  2  0
 68 69  1  0
 69 70  2  0
 71 74  1  0
 71 70  1  0
 72 71  2  0
 73 72  1  0
 73 68  2  0
 74 75  1  0
 75 76  1  0
 76 77  2  0
 78 77  1  0
 78 82  1  0
 79 78  2  0
 80 75  2  0
 80 79  1  0
 81 80  1  0
 83 84  1  0
 84 87  1  0
 84 86  1  0
 85 83  2  0
 88 89  1  0
 88 63  1  0
 90 88  1  0
M  ISO  4  10 101  11 101  53 100  61 100
M  END
>  <TORSDO>  (45) 
F 19

>  <SCORE>  (45) 
-14.088

>  <name>  (45) 
45

>  <ligand_id>  (45) 
45

>  <original_smiles>  (45) 
[H]c1c([H])c([H])c2c(c1[H])C([H])([H])C([H])([H])C([H])([H])C2([H])N([H])C(=O)C1([H])N(C(=O)C([H])(N([H])C(=O)C([H])(N([H])C([H])([H])[H])C([H])([H])[H])C(C([H])([H])[H])(C([H])([H])[H])C([H])([H])[H])C([H])([H])c2c([H])c(OC([H])([H])C([H])(c3c([H])c([H])c(C([H])([H])N([H])C(=O)N4C([H])([H])C([H])([H])C([H])([H])C([H])(n5nc(-c6c([H])c([H])c(Oc7c([H])c([H])c(F)c([H])c7F)c([H])c6[H])c(C(=O)N([H])[H])c5N([H])[H])C4([H])[H])c([H])c3Cl)C([H])([H])[H])c([H])c([H])c2C1([H])[H]

>  <smiles>  (45) 
[H]c1c([H])c([H])c2c(c1[H])C([H])([H])C([H])([H])C([H])([H])C2([H])N([H])C(=O)C1([H])N(C(=O)C([H])(N([H])C(=O)C([H])(N([H])C([H])([H])[H])C([H])([H])[H])C(C([H])([H])[H])(C([H])([H])[H])C([H])([H])[H])C([H])([H])c2c([H])c(OC([H])([H])C([H])(c3c([H])c([H])c(C([H])([H])N([H])C(=O)N4C([H])([H])C([H])([H])C([H])([H])C([H])(n5nc(-c6c([H])c([H])c(Oc7c([H])c([H])c(F)c([H])c7F)c([H])c6[H])c(C(=O)N([H])[H])c5N([H])[H])C4([H])[H])c([H])c3Cl)C([H])([H])[H])c([H])c([H])c2C1([H])[H]

$$$$
46:0:0
     RDKit          3D

 92100  0  0  1  0  0  0  0  0999 V2000
  -28.2020  -23.3420   21.2610 C   0  0  0  0  0  3  0  0  0  0  0  0
  -27.6670  -22.1020   20.8870 C   0  0  0  0  0  0  0  0  0  0  0  0
  -28.5550  -21.0400   20.5910 C   0  0  0  0  0  0  0  0  0  0  0  0
  -29.5930  -23.5150   21.3250 C   0  0  0  0  0  0  0  0  0  0  0  0
  -29.9510  -21.2420   20.7870 C   0  0  0  0  0  0  0  0  0  0  0  0
  -26.1580  -21.9560   20.7880 C   0  0  0  0  0  1  0  0  0  0  0  0
  -27.9960  -19.7360   20.0330 C   0  0  0  0  0  1  0  0  0  0  0  0
  -30.4450  -22.4720   21.1200 N   0  0  0  0  0  0  0  0  0  0  0  0
  -30.1450  -24.9260   21.6070 C   0  0  0  0  0  2  0  0  0  0  0  0
  -29.6980  -25.9870   20.5580 C   0  0  0  0  0  2  0  0  0  0  0  0
  -29.6970  -27.3750   20.9970 O   0  0  0  0  0  0  0  0  0  0  0  0
  -24.9810  -31.9430   23.8040 C   0  0  0  0  0  0  0  0  0  0  0  0
  -28.5000  -28.0570   20.8210 C   0  0  0  0  0  0  0  0  0  0  0  0
  -24.1870  -30.6050   21.8830 C   0  0  0  0  0  3  0  0  0  0  0  0
  -25.9910  -29.3630   20.5750 C   0  0  0  0  0  0  0  0  0  0  0  0
  -26.6660  -31.2050   22.1180 C   0  0  0  0  0  2  0  0  0  0  0  0
  -26.9910  -29.9200   21.3820 C   0  0  0  0  0  0  0  0  0  0  0  0
  -28.2490  -29.2770   21.5010 C   0  0  0  0  0  3  0  0  0  0  0  0
  -27.4810  -27.5400   19.9850 C   0  0  0  0  0  3  0  0  0  0  0  0
  -26.2340  -28.1750   19.8690 C   0  0  0  0  0  3  0  0  0  0  0  0
  -24.6690  -30.0950   20.5000 C   0  0  0  0  0  2  0  0  0  0  0  0
  -25.2860  -31.2620   22.6620 N   0  0  0  0  0  0  0  0  0  0  0  0
  -23.8080  -32.0590   24.1870 O   0  0  0  0  0  0  0  0  0  0  0  0
  -23.5130  -29.4370   22.6390 C   0  0  0  0  0  0  0  0  0  0  0  0
  -22.2350  -29.1720   22.3180 N   0  0  0  0  0  0  0  0  0  0  0  0
  -24.1410  -28.7770   23.4700 O   0  0  0  0  0  0  0  0  0  0  0  0
  -21.7880  -29.7640   21.6320 H   0  0  0  0  0  0  0  0  0  0  0  0
  -18.9040  -27.7710   22.3500 C   0  0  0  0  0  0  0  0  0  0  0  0
  -21.4140  -28.0960   22.8740 C   0  0  0  0  0  3  0  0  0  0  0  0
  -21.6410  -26.7720   22.1090 C   0  0  0  0  0  2  0  0  0  0  0  0
  -20.6410  -26.5550   20.9690 C   0  0  0  0  0  2  0  0  0  0  0  0
  -19.2060  -26.5450   21.5060 C   0  0  0  0  0  2  0  0  0  0  0  0
  -19.9420  -28.5100   22.9790 C   0  0  0  0  0  0  0  0  0  0  0  0
  -19.6080  -29.6620   23.7230 C   0  0  0  0  0  3  0  0  0  0  0  0
  -18.2700  -30.0780   23.8450 C   0  0  0  0  0  3  0  0  0  0  0  0
  -17.2450  -29.3350   23.2340 C   0  0  0  0  0  3  0  0  0  0  0  0
  -17.5610  -28.1830   22.4930 C   0  0  0  0  0  3  0  0  0  0  0  0
  -26.0850  -32.6260   24.6680 C   0  0  0  0  0  3  0  0  0  0  0  0
  -25.6680  -34.0150   24.9010 N   0  0  0  0  0  0  0  0  0  0  0  0
  -26.0980  -35.0670   24.1930 C   0  0  0  0  0  0  0  0  0  0  0  0
  -26.9540  -34.9750   23.3080 O   0  0  0  0  0  0  0  0  0  0  0  0
  -24.9280  -34.1580   25.5730 H   0  0  0  0  0  0  0  0  0  0  0  0
  -24.3960  -36.7760   23.4820 C   0  0  0  0  0  1  0  0  0  0  0  0
  -25.4810  -36.4410   24.5170 C   0  0  0  0  0  3  0  0  0  0  0  0
  -27.3930  -37.4280   25.7000 C   0  0  0  0  0  1  0  0  0  0  0  0
  -26.4750  -37.5350   24.5690 N   0  0  0  0  0  0  0  0  0  0  0  0
  -26.0130  -38.4390   24.6190 H   0  0  0  0  0  0  0  0  0  0  0  0
  -26.3510  -31.8850   26.0360 C   0  0  1  0  0  0  0  0  0  0  0  0
  -25.0640  -31.5760   26.8360 C   0  0  0  0  0  1  0  0  0  0  0  0
  -27.0930  -30.5490   25.7980 C   0  0  0  0  0  1  0  0  0  0  0  0
  -27.2710  -32.7500   26.9300 C   0  0  0  0  0  1  0  0  0  0  0  0
  -31.0190  -20.1400   20.5620 C   0  0  0  0  0  2  0  0  0  0  0  0
  -30.8480  -18.7470   21.2650 C   0  0  0  0  0  2  0  0  0  0  0  0
  -31.6920  -17.6000   20.6390 C   0  0  0  0  0  2  0  0  0  0  0  0
  -32.0090  -15.1230   20.7960 C   0  0  0  0  0  0  0  0  0  0  0  0
  -31.7080  -12.9130   19.7510 C   0  0  0  0  0  2  0  0  0  0  0  0
  -30.9200  -13.1050   18.4380 C   0  0  0  0  0  2  0  0  0  0  0  0
  -29.4020  -13.0710   18.7050 C   0  0  0  0  0  2  0  0  0  0  0  0
  -28.9790  -13.9880   19.8850 C   0  0  0  0  0  3  0  0  0  0  0  0
  -29.8950  -13.7790   21.1140 C   0  0  0  0  0  2  0  0  0  0  0  0
  -31.2890  -13.9730   20.6820 N   0  0  0  0  0  0  0  0  0  0  0  0
  -33.1930  -15.2020   20.4590 O   0  0  0  0  0  0  0  0  0  0  0  0
  -31.3010  -16.2390   21.0720 N   0  0  0  0  0  0  0  0  0  0  0  0
  -30.3380  -16.0990   21.3420 H   0  0  0  0  0  0  0  0  0  0  0  0
  -26.5590  -14.7570   20.3010 C   0  0  0  0  0  0  0  0  0  0  0  0
  -25.4130  -14.0630   20.5810 C   0  0  0  0  0  0  0  0  0  0  0  0
  -25.7930  -12.6870   20.6530 C   0  0  0  0  0  0  0  0  0  0  0  0
  -27.5690  -13.8090   20.2220 N   0  0  0  0  0  0  0  0  0  0  0  0
  -27.1040  -12.5620   20.4920 N   0  0  0  0  0  0  0  0  0  0  0  0
  -24.9750  -11.4770   20.8110 C   0  0  0  0  0  0  0  0  0  0  0  0
  -25.1820  -10.5810   21.8830 C   0  0  0  0  0  3  0  0  0  0  0  0
  -24.3720   -9.4350   22.0240 C   0  0  0  0  0  3  0  0  0  0  0  0
  -23.3400   -9.1750   21.0900 C   0  0  0  0  0  0  0  0  0  0  0  0
  -23.1530  -10.0570   20.0120 C   0  0  0  0  0  3  0  0  0  0  0  0
  -23.9630  -11.1960   19.8700 C   0  0  0  0  0  3  0  0  0  0  0  0
  -22.5210   -8.0720   21.1330 O   0  0  0  0  0  0  0  0  0  0  0  0
  -22.1100   -7.5260   22.3230 C   0  0  0  0  0  0  0  0  0  0  0  0
  -21.4260   -8.2860   23.2950 C   0  0  0  0  0  3  0  0  0  0  0  0
  -20.9610   -7.6690   24.4730 C   0  0  0  0  0  3  0  0  0  0  0  0
  -21.1710   -6.2910   24.6770 C   0  0  0  0  0  0  0  0  0  0  0  0
  -21.8470   -5.5310   23.7060 C   0  0  0  0  0  3  0  0  0  0  0  0
  -22.3130   -6.1470   22.5310 C   0  0  0  0  0  0  0  0  0  0  0  0
  -22.9450   -5.4050   21.5910 F   0  0  0  0  0  0  0  0  0  0  0  0
  -20.7170   -5.6960   25.8050 F   0  0  0  0  0  0  0  0  0  0  0  0
  -24.0260  -14.6280   20.6770 C   0  0  0  0  0  0  0  0  0  0  0  0
  -23.1840  -14.0480   21.5260 N   0  0  0  0  0  0  0  0  0  0  0  0
  -23.6940  -15.6230   20.0340 O   0  0  0  0  0  0  0  0  0  0  0  0
  -23.4610  -13.2440   22.0700 H   0  0  0  0  0  0  0  0  0  0  0  0
  -22.2480  -14.4130   21.6330 H   0  0  0  0  0  0  0  0  0  0  0  0
  -26.8250  -16.1070   20.0880 N   0  0  0  0  0  0  0  0  0  0  0  0
  -26.0890  -16.8050   20.0770 H   0  0  0  0  0  0  0  0  0  0  0  0
  -27.7270  -16.4770   19.8150 H   0  0  0  0  0  0  0  0  0  0  0  0
  1  4  1  0
  2  1  2  0
  3  5  2  0
  3  2  1  0
  4  9  1  0
  5  8  1  0
  6  2  1  0
  7  3  1  0
  8  4  2  0
 10 11  1  0
 10  9  1  0
 12 23  2  0
 13 11  1  0
 13 18  1  0
 14 24  1  0
 14 22  1  0
 15 17  1  0
 16 22  1  0
 17 18  2  0
 17 16  1  0
 19 13  2  0
 20 19  1  0
 20 15  2  0
 21 15  1  0
 21 14  1  0
 22 12  1  0
 24 26  2  0
 25 24  1  0
 27 25  1  0
 28 37  2  0
 28 33  1  0
 29 25  1  0
 29 33  1  0
 30 29  1  0
 31 32  1  0
 31 30  1  0
 32 28  1  0
 33 34  2  0
 34 35  1  0
 36 35  2  0
 37 36  1  0
 38 12  1  0
 38 39  1  0
 38 48  1  0
 39 42  1  0
 40 44  1  0
 40 39  1  0
 41 40  2  0
 44 43  1  0
 44 46  1  0
 46 47  1  0
 46 45  1  0
 48 49  1  1
 48 51  1  0
 50 48  1  0
 52  5  1  0
 52 53  1  0
 54 63  1  0
 54 53  1  0
 55 63  1  0
 56 61  1  0
 57 58  1  0
 57 56  1  0
 59 58  1  0
 59 68  1  0
 59 60  1  0
 61 55  1  0
 61 60  1  0
 62 55  2  0
 63 64  1  0
 65 66  2  0
 66 67  1  0
 66 85  1  0
 67 70  1  0
 68 65  1  0
 68 69  1  0
 69 67  2  0
 70 71  1  0
 71 72  2  0
 73 76  1  0
 73 72  1  0
 74 73  2  0
 75 74  1  0
 75 70  2  0
 76 77  1  0
 77 82  2  0
 77 78  1  0
 78 79  2  0
 79 80  1  0
 80 84  1  0
 81 80  2  0
 82 81  1  0
 83 82  1  0
 85 86  1  0
 86 89  1  0
 86 88  1  0
 87 85  2  0
 90 65  1  0
 91 90  1  0
 92 90  1  0
M  ISO  4  10 101  11 101  55 100  63 100
M  END
>  <TORSDO>  (46) 
F 21

>  <SCORE>  (46) 
-8.495

>  <name>  (46) 
46

>  <ligand_id>  (46) 
46

>  <original_smiles>  (46) 
[H]c1c([H])c([H])c2c(c1[H])C([H])([H])C([H])([H])C([H])([H])C2([H])N([H])C(=O)C1([H])N(C(=O)C([H])(N([H])C(=O)C([H])(N([H])C([H])([H])[H])C([H])([H])[H])C(C([H])([H])[H])(C([H])([H])[H])C([H])([H])[H])C([H])([H])c2c([H])c(OC([H])([H])C([H])([H])c3nc(C([H])([H])C([H])([H])C([H])([H])N([H])C(=O)N4C([H])([H])C([H])([H])C([H])([H])C([H])(n5nc(-c6c([H])c([H])c(Oc7c([H])c([H])c(F)c([H])c7F)c([H])c6[H])c(C(=O)N([H])[H])c5N([H])[H])C4([H])[H])c(C([H])([H])[H])c(C([H])([H])[H])c3[H])c([H])c([H])c2C1([H])[H]

>  <smiles>  (46) 
[H]c1c([H])c([H])c2c(c1[H])C([H])([H])C([H])([H])C([H])([H])C2([H])N([H])C(=O)C1([H])N(C(=O)C([H])(N([H])C(=O)C([H])(N([H])C([H])([H])[H])C([H])([H])[H])C(C([H])([H])[H])(C([H])([H])[H])C([H])([H])[H])C([H])([H])c2c([H])c(OC([H])([H])C([H])([H])c3nc(C([H])([H])C([H])([H])C([H])([H])N([H])C(=O)N4C([H])([H])C([H])([H])C([H])([H])C([H])(n5nc(-c6c([H])c([H])c(Oc7c([H])c([H])c(F)c([H])c7F)c([H])c6[H])c(C(=O)N([H])[H])c5N([H])[H])C4([H])[H])c(C([H])([H])[H])c(C([H])([H])[H])c3[H])c([H])c([H])c2C1([H])[H]

$$$$
47:0:0
     RDKit          3D

 98106  0  0  1  0  0  0  0  0999 V2000
  -29.5760  -20.9440   21.9250 C   0  0  0  0  0  3  0  0  0  0  0  0
  -29.2110  -22.4350   20.0320 C   0  0  0  0  0  3  0  0  0  0  0  0
  -29.4380  -21.1130   20.5340 C   0  0  0  0  0  0  0  0  0  0  0  0
  -29.4090  -22.0190   22.8170 C   0  0  0  0  0  0  0  0  0  0  0  0
  -29.0590  -23.5540   20.9140 C   0  0  0  0  0  0  0  0  0  0  0  0
  -29.0800  -23.3100   22.3220 C   0  0  0  0  0  0  0  0  0  0  0  0
  -27.2490  -24.8660   23.1140 C   0  0  0  0  0  1  0  0  0  0  0  0
  -28.7000  -24.4180   23.3200 C   0  0  0  0  0  2  0  0  0  0  0  0
  -28.8840  -25.0320   20.4480 C   0  0  0  0  0  2  0  0  0  0  0  0
  -29.3100  -25.5440   19.0510 C   0  0  0  0  0  2  0  0  0  0  0  0
  -29.1240  -26.9930   18.9640 O   0  0  0  0  0  0  0  0  0  0  0  0
  -24.7140  -31.2470   22.6950 C   0  0  0  0  0  0  0  0  0  0  0  0
  -27.8620  -27.5660   19.0640 C   0  0  0  0  0  0  0  0  0  0  0  0
  -23.6810  -29.9340   20.8740 C   0  0  0  0  0  3  0  0  0  0  0  0
  -25.3020  -28.7890   19.2680 C   0  0  0  0  0  0  0  0  0  0  0  0
  -26.1490  -30.6110   20.7540 C   0  0  0  0  0  2  0  0  0  0  0  0
  -26.3960  -29.3560   19.9300 C   0  0  0  0  0  0  0  0  0  0  0  0
  -27.6760  -28.7550   19.8240 C   0  0  0  0  0  3  0  0  0  0  0  0
  -26.7410  -27.0230   18.3970 C   0  0  0  0  0  3  0  0  0  0  0  0
  -25.4710  -27.6250   18.4980 C   0  0  0  0  0  3  0  0  0  0  0  0
  -23.9630  -29.4790   19.4180 C   0  0  0  0  0  2  0  0  0  0  0  0
  -24.8650  -30.6090   21.4990 N   0  0  0  0  0  0  0  0  0  0  0  0
  -23.6100  -31.3100   23.2550 O   0  0  0  0  0  0  0  0  0  0  0  0
  -23.1670  -28.7220   21.6830 C   0  0  0  0  0  0  0  0  0  0  0  0
  -21.8570  -28.4430   21.5810 N   0  0  0  0  0  0  0  0  0  0  0  0
  -23.9410  -28.0410   22.3610 O   0  0  0  0  0  0  0  0  0  0  0  0
  -21.2880  -29.0540   21.0140 H   0  0  0  0  0  0  0  0  0  0  0  0
  -18.6140  -26.9250   22.0630 C   0  0  0  0  0  0  0  0  0  0  0  0
  -21.1630  -27.3260   22.2210 C   0  0  0  0  0  3  0  0  0  0  0  0
  -21.3180  -26.0290   21.3940 C   0  0  0  0  0  2  0  0  0  0  0  0
  -20.1680  -25.8040   20.4070 C   0  0  0  0  0  2  0  0  0  0  0  0
  -18.8290  -25.7280   21.1500 C   0  0  0  0  0  2  0  0  0  0  0  0
  -19.7100  -27.6850   22.5520 C   0  0  0  0  0  0  0  0  0  0  0  0
  -19.4550  -28.8090   23.3660 C   0  0  0  0  0  3  0  0  0  0  0  0
  -18.1370  -29.1720   23.7000 C   0  0  0  0  0  3  0  0  0  0  0  0
  -17.0580  -28.4060   23.2280 C   0  0  0  0  0  3  0  0  0  0  0  0
  -17.2970  -27.2850   22.4140 C   0  0  0  0  0  3  0  0  0  0  0  0
  -25.9120  -31.9470   23.4060 C   0  0  0  0  0  3  0  0  0  0  0  0
  -26.5290  -31.0860   24.5750 C   0  0  1  0  0  0  0  0  0  0  0  0
  -25.4840  -30.5920   25.6020 C   0  0  0  0  0  1  0  0  0  0  0  0
  -27.2610  -29.8450   24.0130 C   0  0  0  0  0  1  0  0  0  0  0  0
  -27.5880  -31.9210   25.3350 C   0  0  0  0  0  1  0  0  0  0  0  0
  -25.4310  -33.2400   23.9100 N   0  0  0  0  0  0  0  0  0  0  0  0
  -25.6490  -34.4190   23.3120 C   0  0  0  0  0  0  0  0  0  0  0  0
  -26.3420  -34.5390   22.2980 O   0  0  0  0  0  0  0  0  0  0  0  0
  -24.8010  -33.2110   24.6990 H   0  0  0  0  0  0  0  0  0  0  0  0
  -23.7140  -36.0230   23.1650 C   0  0  0  0  0  1  0  0  0  0  0  0
  -24.9920  -35.6640   23.9390 C   0  0  0  0  0  3  0  0  0  0  0  0
  -26.9970  -36.6830   24.9310 C   0  0  0  0  0  1  0  0  0  0  0  0
  -25.8880  -36.8400   23.9930 N   0  0  0  0  0  0  0  0  0  0  0  0
  -25.3710  -37.6770   24.2490 H   0  0  0  0  0  0  0  0  0  0  0  0
  -29.6540  -21.7560   24.3040 C   0  0  0  0  0  2  0  0  0  0  0  0
  -31.1260  -22.0400   24.6800 C   0  0  0  0  0  2  0  0  0  0  0  0
  -31.3910  -22.1180   26.1990 C   0  0  0  0  0  2  0  0  0  0  0  0
  -33.1170  -22.3400   28.0680 C   0  0  0  0  0  1  0  0  0  0  0  0
  -33.1070  -24.0190   26.2060 C   0  0  0  0  0  1  0  0  0  0  0  0
  -32.8310  -22.5510   26.5720 C   0  0  0  0  0  3  0  0  0  0  0  0
  -29.6680  -19.8830   19.6190 C   0  0  0  0  0  2  0  0  0  0  0  0
  -29.3350  -18.4430   20.1820 C   0  0  0  0  0  3  0  0  0  0  0  0
  -30.4570  -17.3660   19.9660 C   0  0  0  0  0  3  0  0  0  0  0  0
  -30.8670  -14.8720   20.0300 C   0  0  0  0  0  0  0  0  0  0  0  0
  -30.6300  -12.6110   19.0750 C   0  0  0  0  0  2  0  0  0  0  0  0
  -29.6720  -12.7010   17.8670 C   0  0  0  0  0  2  0  0  0  0  0  0
  -28.2020  -12.5710   18.3160 C   0  0  0  0  0  2  0  0  0  0  0  0
  -27.8590  -13.4850   19.5220 C   0  0  0  0  0  3  0  0  0  0  0  0
  -28.9290  -13.3720   20.6330 C   0  0  0  0  0  2  0  0  0  0  0  0
  -30.2350  -13.6640   20.0250 N   0  0  0  0  0  0  0  0  0  0  0  0
  -32.0250  -15.0120   19.6280 O   0  0  0  0  0  0  0  0  0  0  0  0
  -30.0860  -15.9570   20.2720 N   0  0  0  0  0  0  0  0  0  0  0  0
  -29.1380  -15.7750   20.5650 H   0  0  0  0  0  0  0  0  0  0  0  0
  -25.4790  -14.1130   20.2650 C   0  0  0  0  0  0  0  0  0  0  0  0
  -24.4140  -13.3500   20.6640 C   0  0  0  0  0  0  0  0  0  0  0  0
  -24.8680  -11.9950   20.6430 C   0  0  0  0  0  0  0  0  0  0  0  0
  -26.5150  -13.2230   20.0300 N   0  0  0  0  0  0  0  0  0  0  0  0
  -26.1530  -11.9460   20.3170 N   0  0  0  0  0  0  0  0  0  0  0  0
  -24.1400  -10.7390   20.8600 C   0  0  0  0  0  0  0  0  0  0  0  0
  -24.5640   -9.7950   21.8190 C   0  0  0  0  0  3  0  0  0  0  0  0
  -23.8350   -8.6030   22.0220 C   0  0  0  0  0  3  0  0  0  0  0  0
  -22.6680   -8.3470   21.2640 C   0  0  0  0  0  0  0  0  0  0  0  0
  -22.2630   -9.2810   20.2930 C   0  0  0  0  0  3  0  0  0  0  0  0
  -22.9920  -10.4640   20.0900 C   0  0  0  0  0  3  0  0  0  0  0  0
  -21.9110   -7.2050   21.3750 O   0  0  0  0  0  0  0  0  0  0  0  0
  -21.8400   -6.5000   22.5490 C   0  0  0  0  0  0  0  0  0  0  0  0
  -21.3590   -7.0850   23.7400 C   0  0  0  0  0  3  0  0  0  0  0  0
  -21.2350   -6.3050   24.9080 C   0  0  0  0  0  3  0  0  0  0  0  0
  -21.5850   -4.9430   24.8870 C   0  0  0  0  0  0  0  0  0  0  0  0
  -22.0590   -4.3560   23.6990 C   0  0  0  0  0  3  0  0  0  0  0  0
  -22.1830   -5.1330   22.5340 C   0  0  0  0  0  0  0  0  0  0  0  0
  -22.6210   -4.5580   21.3870 F   0  0  0  0  0  0  0  0  0  0  0  0
  -21.4600   -4.1910   26.0050 F   0  0  0  0  0  0  0  0  0  0  0  0
  -23.0240  -13.8370   20.9510 C   0  0  0  0  0  0  0  0  0  0  0  0
  -22.3170  -13.1690   21.8560 N   0  0  0  0  0  0  0  0  0  0  0  0
  -22.5750  -14.8440   20.4080 O   0  0  0  0  0  0  0  0  0  0  0  0
  -22.6940  -12.3540   22.3170 H   0  0  0  0  0  0  0  0  0  0  0  0
  -21.3830  -13.4750   22.0910 H   0  0  0  0  0  0  0  0  0  0  0  0
  -25.6530  -15.4800   20.0650 N   0  0  0  0  0  0  0  0  0  0  0  0
  -24.8970  -16.1490   20.1670 H   0  0  0  0  0  0  0  0  0  0  0  0
  -26.4980  -15.8990   19.6970 H   0  0  0  0  0  0  0  0  0  0  0  0
  1  4  1  0
  2  3  1  0
  2  5  2  0
  3  1  2  0
  4 52  1  0
  5  6  1  0
  6  4  2  0
  6  8  1  0
  7  8  1  0
  9  5  1  0
 10  9  1  0
 11 10  1  0
 11 13  1  0
 12 23  2  0
 13 18  1  0
 14 22  1  0
 14 24  1  0
 15 21  1  0
 15 17  1  0
 16 22  1  0
 17 16  1  0
 18 17  2  0
 19 20  1  0
 19 13  2  0
 20 15  2  0
 21 14  1  0
 22 12  1  0
 24 26  2  0
 25 24  1  0
 27 25  1  0
 28 37  2  0
 28 33  1  0
 29 25  1  0
 29 33  1  0
 30 29  1  0
 31 32  1  0
 31 30  1  0
 32 28  1  0
 33 34  2  0
 34 35  1  0
 36 35  2  0
 37 36  1  0
 38 12  1  0
 38 43  1  0
 38 39  1  0
 39 42  1  1
 39 40  1  0
 41 39  1  0
 43 46  1  0
 44 43  1  0
 44 48  1  0
 45 44  2  0
 48 47  1  0
 48 50  1  0
 50 51  1  0
 50 49  1  0
 52 53  1  0
 53 54  1  0
 54 57  1  0
 56 57  1  0
 57 55  1  0
 58 59  1  0
 58  3  1  0
 60 59  2  0
 60 69  1  0
 61 69  1  0
 62 67  1  0
 63 64  1  0
 63 62  1  0
 65 64  1  0
 65 74  1  0
 65 66  1  0
 67 61  1  0
 67 66  1  0
 68 61  2  0
 69 70  1  0
 71 72  2  0
 72 91  1  0
 73 72  1  0
 73 76  1  0
 74 71  1  0
 74 75  1  0
 75 73  2  0
 76 77  1  0
 77 78  2  0
 79 82  1  0
 79 78  1  0
 80 79  2  0
 81 80  1  0
 81 76  2  0
 82 83  1  0
 83 84  1  0
 84 85  2  0
 86 85  1  0
 86 90  1  0
 87 86  2  0
 88 83  2  0
 88 87  1  0
 89 88  1  0
 91 92  1  0
 92 95  1  0
 92 94  1  0
 93 91  2  0
 96 97  1  0
 96 71  1  0
 98 96  1  0
M  ISO  4  10 101  11 101  61 100  69 100
M  END
>  <TORSDO>  (47) 
F 26

>  <SCORE>  (47) 
6.029

>  <name>  (47) 
47

>  <ligand_id>  (47) 
47

>  <original_smiles>  (47) 
[H]c1c([H])c([H])c2c(c1[H])C([H])([H])C([H])([H])C([H])([H])C2([H])N([H])C(=O)C1([H])N(C(=O)C([H])(N([H])C(=O)C([H])(N([H])C([H])([H])[H])C([H])([H])[H])C(C([H])([H])[H])(C([H])([H])[H])C([H])([H])[H])C([H])([H])c2c([H])c(OC([H])([H])C([H])([H])c3c([H])c(C([H])([H])C([H])([H])C([H])([H])N([H])C(=O)N4C([H])([H])C([H])([H])C([H])([H])C([H])(n5nc(-c6c([H])c([H])c(Oc7c([H])c([H])c(F)c([H])c7F)c([H])c6[H])c(C(=O)N([H])[H])c5N([H])[H])C4([H])[H])c([H])c(C([H])([H])C([H])([H])C([H])([H])C([H])(C([H])([H])[H])C([H])([H])[H])c3C([H])([H])C([H])([H])[H])c([H])c([H])c2C1([H])[H]

>  <smiles>  (47) 
[H]c1c([H])c([H])c2c(c1[H])C([H])([H])C([H])([H])C([H])([H])C2([H])N([H])C(=O)C1([H])N(C(=O)C([H])(N([H])C(=O)C([H])(N([H])C([H])([H])[H])C([H])([H])[H])C(C([H])([H])[H])(C([H])([H])[H])C([H])([H])[H])C([H])([H])c2c([H])c(OC([H])([H])C([H])([H])c3c([H])c(C([H])([H])C([H])([H])C([H])([H])N([H])C(=O)N4C([H])([H])C([H])([H])C([H])([H])C([H])(n5nc(-c6c([H])c([H])c(Oc7c([H])c([H])c(F)c([H])c7F)c([H])c6[H])c(C(=O)N([H])[H])c5N([H])[H])C4([H])[H])c([H])c(C([H])([H])C([H])([H])C([H])([H])C([H])(C([H])([H])[H])C([H])([H])[H])c3C([H])([H])C([H])([H])[H])c([H])c([H])c2C1([H])[H]

$$$$
48:0:0
     RDKit          3D

 89 97  0  0  1  0  0  0  0  0999 V2000
  -30.2750  -20.8720   19.4900 C   0  0  0  0  0  3  0  0  0  0  0  0
  -27.8150  -21.6470   20.3010 C   0  0  0  0  0  3  0  0  0  0  0  0
  -29.8640  -22.3000   19.4630 C   0  0  0  0  0  0  0  0  0  0  0  0
  -29.5120  -19.6930   19.9000 C   0  0  0  0  0  0  0  0  0  0  0  0
  -28.5770  -22.8260   19.8820 C   0  0  0  0  0  0  0  0  0  0  0  0
  -28.2260  -20.2180   20.3240 C   0  0  0  0  0  0  0  0  0  0  0  0
  -30.8670  -23.2970   18.9160 C   0  0  0  0  0  1  0  0  0  0  0  0
  -27.3190  -19.3250   20.7840 F   0  0  0  0  0  0  0  0  0  0  0  0
  -30.2180  -18.1050   19.9630 C   0  0  0  0  0  2  0  0  0  0  0  0
  -30.4820  -15.2530   19.8980 C   0  0  0  0  0  0  0  0  0  0  0  0
  -30.3490  -12.8450   18.9800 C   0  0  0  0  0  2  0  0  0  0  0  0
  -29.3480  -12.6960   17.8090 C   0  0  0  0  0  2  0  0  0  0  0  0
  -27.9270  -12.4380   18.3390 C   0  0  0  0  0  2  0  0  0  0  0  0
  -27.5650  -13.3790   19.5160 C   0  0  0  0  0  3  0  0  0  0  0  0
  -28.6860  -13.4850   20.5710 C   0  0  0  0  0  2  0  0  0  0  0  0
  -29.8830  -13.9700   19.8660 N   0  0  0  0  0  0  0  0  0  0  0  0
  -31.6800  -15.2480   19.5870 O   0  0  0  0  0  0  0  0  0  0  0  0
  -29.7660  -16.5260   20.0680 N   0  0  0  0  0  0  0  0  0  0  0  0
  -28.7850  -16.4020   20.2740 H   0  0  0  0  0  0  0  0  0  0  0  0
  -25.2530  -13.9300   20.4440 C   0  0  0  0  0  0  0  0  0  0  0  0
  -24.2140  -13.1490   20.8630 C   0  0  0  0  0  0  0  0  0  0  0  0
  -24.6690  -11.7970   20.7640 C   0  0  0  0  0  0  0  0  0  0  0  0
  -26.2720  -13.0570   20.1070 N   0  0  0  0  0  0  0  0  0  0  0  0
  -25.9370  -11.7660   20.3670 N   0  0  0  0  0  0  0  0  0  0  0  0
  -23.9480  -10.5330   20.9680 C   0  0  0  0  0  0  0  0  0  0  0  0
  -24.4140   -9.5530   21.8690 C   0  0  0  0  0  3  0  0  0  0  0  0
  -23.6900   -8.3560   22.0630 C   0  0  0  0  0  3  0  0  0  0  0  0
  -22.4850   -8.1320   21.3560 C   0  0  0  0  0  0  0  0  0  0  0  0
  -22.0390   -9.1020   20.4410 C   0  0  0  0  0  3  0  0  0  0  0  0
  -22.7620  -10.2890   20.2450 C   0  0  0  0  0  3  0  0  0  0  0  0
  -21.7310   -6.9890   21.4600 O   0  0  0  0  0  0  0  0  0  0  0  0
  -21.7040   -6.2470   22.6140 C   0  0  0  0  0  0  0  0  0  0  0  0
  -21.2830   -6.7970   23.8440 C   0  0  0  0  0  3  0  0  0  0  0  0
  -21.2050   -5.9800   24.9900 C   0  0  0  0  0  3  0  0  0  0  0  0
  -21.5380   -4.6150   24.9070 C   0  0  0  0  0  0  0  0  0  0  0  0
  -21.9530   -4.0650   23.6820 C   0  0  0  0  0  3  0  0  0  0  0  0
  -22.0320   -4.8790   22.5370 C   0  0  0  0  0  0  0  0  0  0  0  0
  -22.4110   -4.3380   21.3540 F   0  0  0  0  0  0  0  0  0  0  0  0
  -21.4570   -3.8280   26.0060 F   0  0  0  0  0  0  0  0  0  0  0  0
  -22.8400  -13.6240   21.2350 C   0  0  0  0  0  0  0  0  0  0  0  0
  -22.1670  -12.9120   22.1320 N   0  0  0  0  0  0  0  0  0  0  0  0
  -22.3760  -14.6630   20.7670 O   0  0  0  0  0  0  0  0  0  0  0  0
  -22.5580  -12.0720   22.5310 H   0  0  0  0  0  0  0  0  0  0  0  0
  -21.2480  -13.2120   22.4240 H   0  0  0  0  0  0  0  0  0  0  0  0
  -25.4090  -15.3050   20.2920 N   0  0  0  0  0  0  0  0  0  0  0  0
  -24.6530  -15.9550   20.4750 H   0  0  0  0  0  0  0  0  0  0  0  0
  -26.2250  -15.7510   19.8940 H   0  0  0  0  0  0  0  0  0  0  0  0
  -27.8760  -24.3960   19.6360 C   0  0  0  0  0  2  0  0  0  0  0  0
  -28.2280  -25.9390   20.0000 O   0  0  0  0  0  0  0  0  0  0  0  0
  -24.6020  -31.7440   23.1180 C   0  0  0  0  0  0  0  0  0  0  0  0
  -27.2240  -27.0310   19.9500 C   0  0  0  0  0  0  0  0  0  0  0  0
  -23.4310  -30.3950   21.4240 C   0  0  0  0  0  3  0  0  0  0  0  0
  -24.9050  -28.8660   19.9550 C   0  0  0  0  0  0  0  0  0  0  0  0
  -25.9950  -30.6460   21.3010 C   0  0  0  0  0  2  0  0  0  0  0  0
  -26.0840  -29.2650   20.5970 C   0  0  0  0  0  0  0  0  0  0  0  0
  -27.2400  -28.3680   20.5750 C   0  0  0  0  0  3  0  0  0  0  0  0
  -26.0160  -26.7820   19.2590 C   0  0  0  0  0  3  0  0  0  0  0  0
  -24.8930  -27.6440   19.2670 C   0  0  0  0  0  3  0  0  0  0  0  0
  -23.6750  -29.7670   20.0260 C   0  0  0  0  0  2  0  0  0  0  0  0
  -24.6970  -30.9520   22.0020 N   0  0  0  0  0  0  0  0  0  0  0  0
  -23.5070  -32.0050   23.6420 O   0  0  0  0  0  0  0  0  0  0  0  0
  -22.7440  -29.3570   22.3480 C   0  0  0  0  0  0  0  0  0  0  0  0
  -21.4120  -29.2020   22.2260 N   0  0  0  0  0  0  0  0  0  0  0  0
  -23.4140  -28.6920   23.1430 O   0  0  0  0  0  0  0  0  0  0  0  0
  -20.9250  -29.7890   21.5640 H   0  0  0  0  0  0  0  0  0  0  0  0
  -18.0220  -28.0190   22.7410 C   0  0  0  0  0  0  0  0  0  0  0  0
  -20.5900  -28.2350   22.9620 C   0  0  0  0  0  3  0  0  0  0  0  0
  -20.6580  -26.8360   22.3090 C   0  0  0  0  0  2  0  0  0  0  0  0
  -19.5300  -26.5840   21.3030 C   0  0  0  0  0  2  0  0  0  0  0  0
  -18.1640  -26.7090   21.9840 C   0  0  0  0  0  2  0  0  0  0  0  0
  -19.1600  -28.7430   23.1860 C   0  0  0  0  0  0  0  0  0  0  0  0
  -18.9690  -29.9700   23.8590 C   0  0  0  0  0  3  0  0  0  0  0  0
  -17.6740  -30.4730   24.0870 C   0  0  0  0  0  3  0  0  0  0  0  0
  -16.5520  -29.7470   23.6540 C   0  0  0  0  0  3  0  0  0  0  0  0
  -16.7260  -28.5210   22.9880 C   0  0  0  0  0  3  0  0  0  0  0  0
  -25.8640  -32.3750   23.7790 C   0  0  0  0  0  3  0  0  0  0  0  0
  -25.5410  -33.7680   24.1330 N   0  0  0  0  0  0  0  0  0  0  0  0
  -25.8630  -34.8400   23.3970 C   0  0  0  0  0  0  0  0  0  0  0  0
  -26.5270  -34.7620   22.3600 O   0  0  0  0  0  0  0  0  0  0  0  0
  -24.9490  -33.9020   24.9390 H   0  0  0  0  0  0  0  0  0  0  0  0
  -24.1110  -36.6280   23.1120 C   0  0  0  0  0  1  0  0  0  0  0  0
  -25.3730  -36.2190   23.8880 C   0  0  0  0  0  3  0  0  0  0  0  0
  -27.5130  -37.1190   24.6930 C   0  0  0  0  0  1  0  0  0  0  0  0
  -26.3940  -37.2840   23.7690 N   0  0  0  0  0  0  0  0  0  0  0  0
  -25.9810  -38.1990   23.9320 H   0  0  0  0  0  0  0  0  0  0  0  0
  -26.3510  -31.5880   25.0590 C   0  0  1  0  0  0  0  0  0  0  0  0
  -25.2330  -31.3390   26.1000 C   0  0  0  0  0  1  0  0  0  0  0  0
  -26.9420  -30.2130   24.6720 C   0  0  0  0  0  1  0  0  0  0  0  0
  -27.4860  -32.3740   25.7560 C   0  0  0  0  0  1  0  0  0  0  0  0
  1  4  1  0
  2  6  1  0
  3  1  2  0
  3  5  1  0
  4  9  1  0
  4  6  2  0
  5  2  2  0
  6  8  1  0
  7  3  1  0
  9 18  1  0
 10 18  1  0
 11 16  1  0
 12 13  1  0
 12 11  1  0
 14 13  1  0
 14 23  1  0
 14 15  1  0
 16 10  1  0
 16 15  1  0
 17 10  2  0
 18 19  1  0
 20 21  2  0
 21 40  1  0
 22 21  1  0
 22 25  1  0
 23 24  1  0
 23 20  1  0
 24 22  2  0
 25 26  1  0
 26 27  2  0
 28 31  1  0
 28 27  1  0
 29 28  2  0
 30 29  1  0
 30 25  2  0
 31 32  1  0
 32 33  1  0
 33 34  2  0
 35 34  1  0
 35 39  1  0
 36 35  2  0
 37 32  2  0
 37 36  1  0
 38 37  1  0
 40 41  1  0
 41 44  1  0
 41 43  1  0
 42 40  2  0
 45 20  1  0
 45 46  1  0
 47 45  1  0
 48  5  1  0
 48 49  1  0
 50 61  2  0
 51 49  1  0
 51 56  1  0
 52 60  1  0
 52 62  1  0
 53 59  1  0
 53 55  1  0
 54 60  1  0
 55 54  1  0
 56 55  2  0
 57 58  1  0
 57 51  2  0
 58 53  2  0
 59 52  1  0
 60 50  1  0
 62 64  2  0
 63 62  1  0
 65 63  1  0
 66 75  2  0
 66 71  1  0
 67 63  1  0
 67 71  1  0
 68 67  1  0
 69 70  1  0
 69 68  1  0
 70 66  1  0
 71 72  2  0
 72 73  1  0
 74 73  2  0
 75 74  1  0
 76 50  1  0
 76 77  1  0
 76 86  1  0
 77 80  1  0
 78 82  1  0
 78 77  1  0
 79 78  2  0
 82 81  1  0
 84 82  1  0
 84 85  1  0
 84 83  1  0
 86 89  1  1
 86 87  1  0
 88 86  1  0
M  ISO  4  10 100  18 100  48 101  49 101
M  END
>  <TORSDO>  (48) 
F 18

>  <SCORE>  (48) 
-15.503

>  <name>  (48) 
48

>  <ligand_id>  (48) 
48

>  <original_smiles>  (48) 
[H]c1c([H])c([H])c2c(c1[H])C([H])([H])C([H])([H])C([H])([H])C2([H])N([H])C(=O)C1([H])N(C(=O)C([H])(N([H])C(=O)C([H])(N([H])C([H])([H])[H])C([H])([H])[H])C(C([H])([H])[H])(C([H])([H])[H])C([H])([H])[H])C([H])([H])c2c([H])c(OC([H])([H])c3c([H])c(F)c(C([H])([H])N([H])C(=O)N4C([H])([H])C([H])([H])C([H])([H])C([H])(n5nc(-c6c([H])c([H])c(Oc7c([H])c([H])c(F)c([H])c7F)c([H])c6[H])c(C(=O)N([H])[H])c5N([H])[H])C4([H])[H])c([H])c3C([H])([H])[H])c([H])c([H])c2C1([H])[H]

>  <smiles>  (48) 
[H]c1c([H])c([H])c2c(c1[H])C([H])([H])C([H])([H])C([H])([H])C2([H])N([H])C(=O)C1([H])N(C(=O)C([H])(N([H])C(=O)C([H])(N([H])C([H])([H])[H])C([H])([H])[H])C(C([H])([H])[H])(C([H])([H])[H])C([H])([H])[H])C([H])([H])c2c([H])c(OC([H])([H])c3c([H])c(F)c(C([H])([H])N([H])C(=O)N4C([H])([H])C([H])([H])C([H])([H])C([H])(n5nc(-c6c([H])c([H])c(Oc7c([H])c([H])c(F)c([H])c7F)c([H])c6[H])c(C(=O)N([H])[H])c5N([H])[H])C4([H])[H])c([H])c3C([H])([H])[H])c([H])c([H])c2C1([H])[H]

$$$$
49:0:0
     RDKit          3D

 93101  0  0  1  0  0  0  0  0999 V2000
  -28.9530  -24.4650   23.5830 C   0  0  0  0  0  0  0  0  0  0  0  0
  -29.2840  -26.5040   22.3430 C   0  0  0  0  0  0  0  0  0  0  0  0
  -27.9180  -25.3070   23.6940 N   0  0  0  0  0  0  0  0  0  0  0  0
  -28.1070  -26.4760   22.9800 N   0  0  0  0  0  0  0  0  0  0  0  0
  -30.2680  -25.0630   22.5680 S   0  0  0  0  0  0  0  0  0  0  0  0
  -28.9380  -23.1440   24.2930 C   0  0  0  0  0  2  0  0  0  0  0  0
  -30.2140  -22.2850   24.2140 C   0  0  0  0  0  2  0  0  0  0  0  0
  -30.4380  -21.5960   22.8550 C   0  0  0  0  0  2  0  0  0  0  0  0
  -31.2230  -20.2850   22.9980 C   0  0  0  0  0  2  0  0  0  0  0  0
  -31.3190  -19.5030   21.6810 C   0  0  0  0  0  2  0  0  0  0  0  0
  -31.3650  -17.9830   21.9060 C   0  0  0  0  0  2  0  0  0  0  0  0
  -31.5410  -17.2060   20.5950 C   0  0  0  0  0  2  0  0  0  0  0  0
  -31.7750  -14.7760   20.1400 C   0  0  0  0  0  0  0  0  0  0  0  0
  -31.3340  -12.6090   19.0640 C   0  0  0  0  0  2  0  0  0  0  0  0
  -30.4220  -12.8330   17.8410 C   0  0  0  0  0  2  0  0  0  0  0  0
  -28.9380  -12.8150   18.2580 C   0  0  0  0  0  2  0  0  0  0  0  0
  -28.6470  -13.7340   19.4750 C   0  0  0  0  0  3  0  0  0  0  0  0
  -29.6680  -13.4750   20.6070 C   0  0  0  0  0  2  0  0  0  0  0  0
  -31.0240  -13.6500   20.0550 N   0  0  0  0  0  0  0  0  0  0  0  0
  -32.8710  -14.9110   19.5900 O   0  0  0  0  0  0  0  0  0  0  0  0
  -31.1750  -15.8030   20.7580 N   0  0  0  0  0  0  0  0  0  0  0  0
  -30.2860  -15.6030   21.1900 H   0  0  0  0  0  0  0  0  0  0  0  0
  -26.2870  -14.5420   20.1200 C   0  0  0  0  0  0  0  0  0  0  0  0
  -25.1620  -13.8630   20.5050 C   0  0  0  0  0  0  0  0  0  0  0  0
  -25.5260  -12.4820   20.5350 C   0  0  0  0  0  0  0  0  0  0  0  0
  -27.2700  -13.5810   19.9410 N   0  0  0  0  0  0  0  0  0  0  0  0
  -26.8140  -12.3390   20.2450 N   0  0  0  0  0  0  0  0  0  0  0  0
  -24.7110  -11.2820   20.7660 C   0  0  0  0  0  0  0  0  0  0  0  0
  -25.0640  -10.3280   21.7450 C   0  0  0  0  0  3  0  0  0  0  0  0
  -24.2540   -9.1920   21.9610 C   0  0  0  0  0  3  0  0  0  0  0  0
  -23.0780   -9.0040   21.1980 C   0  0  0  0  0  0  0  0  0  0  0  0
  -22.7430   -9.9460   20.2100 C   0  0  0  0  0  3  0  0  0  0  0  0
  -23.5520  -11.0730   19.9920 C   0  0  0  0  0  3  0  0  0  0  0  0
  -22.2450   -7.9180   21.3210 O   0  0  0  0  0  0  0  0  0  0  0  0
  -22.0720   -7.2750   22.5220 C   0  0  0  0  0  0  0  0  0  0  0  0
  -21.6410   -7.9600   23.6780 C   0  0  0  0  0  3  0  0  0  0  0  0
  -21.4100   -7.2490   24.8720 C   0  0  0  0  0  3  0  0  0  0  0  0
  -21.5980   -5.8550   24.9100 C   0  0  0  0  0  0  0  0  0  0  0  0
  -22.0230   -5.1700   23.7580 C   0  0  0  0  0  3  0  0  0  0  0  0
  -22.2560   -5.8790   22.5660 C   0  0  0  0  0  0  0  0  0  0  0  0
  -22.6440   -5.2110   21.4530 F   0  0  0  0  0  0  0  0  0  0  0  0
  -21.3690   -5.1700   26.0540 F   0  0  0  0  0  0  0  0  0  0  0  0
  -23.8000  -14.4480   20.7420 C   0  0  0  0  0  0  0  0  0  0  0  0
  -23.0280  -13.8600   21.6490 N   0  0  0  0  0  0  0  0  0  0  0  0
  -23.4300  -15.4640   20.1560 O   0  0  0  0  0  0  0  0  0  0  0  0
  -23.3400  -13.0390   22.1460 H   0  0  0  0  0  0  0  0  0  0  0  0
  -22.1120  -14.2380   21.8500 H   0  0  0  0  0  0  0  0  0  0  0  0
  -26.5510  -15.8890   19.8910 N   0  0  0  0  0  0  0  0  0  0  0  0
  -25.8330  -16.6010   19.9640 H   0  0  0  0  0  0  0  0  0  0  0  0
  -27.4380  -16.2530   19.5650 H   0  0  0  0  0  0  0  0  0  0  0  0
  -29.7010  -27.6620   21.4970 C   0  0  0  0  0  2  0  0  0  0  0  0
  -29.4990  -27.4610   19.9760 C   0  0  0  0  0  2  0  0  0  0  0  0
  -28.2320  -26.9360   19.5690 O   0  0  0  0  0  0  0  0  0  0  0  0
  -24.4740  -31.7590   23.2650 C   0  0  0  0  0  0  0  0  0  0  0  0
  -27.0810  -27.6730   19.7360 C   0  0  0  0  0  0  0  0  0  0  0  0
  -23.2060  -30.4180   21.6140 C   0  0  0  0  0  3  0  0  0  0  0  0
  -24.6150  -29.0330   20.0020 C   0  0  0  0  0  0  0  0  0  0  0  0
  -25.6900  -30.9080   21.2680 C   0  0  0  0  0  2  0  0  0  0  0  0
  -25.7840  -29.5880   20.5360 C   0  0  0  0  0  0  0  0  0  0  0  0
  -27.0170  -28.9250   20.3890 C   0  0  0  0  0  3  0  0  0  0  0  0
  -25.8920  -27.1220   19.2110 C   0  0  0  0  0  3  0  0  0  0  0  0
  -24.6600  -27.7970   19.3360 C   0  0  0  0  0  3  0  0  0  0  0  0
  -23.3440  -29.8300   20.1830 C   0  0  0  0  0  2  0  0  0  0  0  0
  -24.4790  -31.0390   22.1090 N   0  0  0  0  0  0  0  0  0  0  0  0
  -23.4240  -31.9540   23.8920 O   0  0  0  0  0  0  0  0  0  0  0  0
  -22.6570  -29.3160   22.5480 C   0  0  0  0  0  0  0  0  0  0  0  0
  -21.3530  -29.0200   22.4190 N   0  0  0  0  0  0  0  0  0  0  0  0
  -23.3980  -28.7290   23.3400 O   0  0  0  0  0  0  0  0  0  0  0  0
  -20.8120  -29.5490   21.7500 H   0  0  0  0  0  0  0  0  0  0  0  0
  -18.1370  -27.4230   22.7890 C   0  0  0  0  0  0  0  0  0  0  0  0
  -20.6290  -27.9920   23.1630 C   0  0  0  0  0  3  0  0  0  0  0  0
  -20.9300  -26.5830   22.6000 C   0  0  0  0  0  2  0  0  0  0  0  0
  -19.9190  -26.1260   21.5450 C   0  0  0  0  0  2  0  0  0  0  0  0
  -18.5040  -26.1040   22.1310 C   0  0  0  0  0  2  0  0  0  0  0  0
  -19.1340  -28.3170   23.2590 C   0  0  0  0  0  0  0  0  0  0  0  0
  -18.7400  -29.5470   23.8300 C   0  0  0  0  0  3  0  0  0  0  0  0
  -17.3770  -29.8870   23.9360 C   0  0  0  0  0  3  0  0  0  0  0  0
  -16.3930  -28.9910   23.4820 C   0  0  0  0  0  3  0  0  0  0  0  0
  -16.7720  -27.7620   22.9140 C   0  0  0  0  0  3  0  0  0  0  0  0
  -25.7810  -32.3910   23.8430 C   0  0  0  0  0  3  0  0  0  0  0  0
  -26.3370  -31.6250   25.1050 C   0  0  1  0  0  0  0  0  0  0  0  0
  -25.2700  -31.3660   26.1930 C   0  0  0  0  0  1  0  0  0  0  0  0
  -26.9280  -30.2570   24.6890 C   0  0  0  0  0  1  0  0  0  0  0  0
  -27.4890  -32.4320   25.7480 C   0  0  0  0  0  1  0  0  0  0  0  0
  -25.4870  -33.7930   24.1690 N   0  0  0  0  0  0  0  0  0  0  0  0
  -25.8600  -34.8400   23.4210 C   0  0  0  0  0  0  0  0  0  0  0  0
  -26.5590  -34.7280   22.4110 O   0  0  0  0  0  0  0  0  0  0  0  0
  -24.8720  -33.9600   24.9530 H   0  0  0  0  0  0  0  0  0  0  0  0
  -24.1790  -36.6600   23.0090 C   0  0  0  0  0  1  0  0  0  0  0  0
  -25.3810  -36.2340   23.8670 C   0  0  0  0  0  3  0  0  0  0  0  0
  -27.5020  -37.0700   24.7750 C   0  0  0  0  0  1  0  0  0  0  0  0
  -26.4360  -37.2680   23.7970 N   0  0  0  0  0  0  0  0  0  0  0  0
  -26.0410  -38.1940   23.9410 H   0  0  0  0  0  0  0  0  0  0  0  0
  1  3  2  0
  1  6  1  0
  2  5  1  0
  2  4  2  0
  4  3  1  0
  5  1  1  0
  7  6  1  0
  8  9  1  0
  8  7  1  0
 10 11  1  0
 10  9  1  0
 12 21  1  0
 12 11  1  0
 13 21  1  0
 14 19  1  0
 15 16  1  0
 15 14  1  0
 17 16  1  0
 17 26  1  0
 17 18  1  0
 19 13  1  0
 19 18  1  0
 20 13  2  0
 21 22  1  0
 23 24  2  0
 24 25  1  0
 24 43  1  0
 25 28  1  0
 26 23  1  0
 26 27  1  0
 27 25  2  0
 28 29  1  0
 29 30  2  0
 31 34  1  0
 31 30  1  0
 32 31  2  0
 33 32  1  0
 33 28  2  0
 34 35  1  0
 35 40  2  0
 35 36  1  0
 36 37  2  0
 37 38  1  0
 38 42  1  0
 39 38  2  0
 40 39  1  0
 41 40  1  0
 43 44  1  0
 44 47  1  0
 44 46  1  0
 45 43  2  0
 48 49  1  0
 48 23  1  0
 50 48  1  0
 51  2  1  0
 52 51  1  0
 53 55  1  0
 53 52  1  0
 54 65  2  0
 55 60  1  0
 56 64  1  0
 56 66  1  0
 57 63  1  0
 57 59  1  0
 58 64  1  0
 59 58  1  0
 60 59  2  0
 61 62  1  0
 61 55  2  0
 62 57  2  0
 63 56  1  0
 64 54  1  0
 66 68  2  0
 67 66  1  0
 69 67  1  0
 70 79  2  0
 70 75  1  0
 71 67  1  0
 71 75  1  0
 72 71  1  0
 73 74  1  0
 73 72  1  0
 74 70  1  0
 75 76  2  0
 76 77  1  0
 78 77  2  0
 79 78  1  0
 80 54  1  0
 80 85  1  0
 80 81  1  0
 81 84  1  1
 81 82  1  0
 83 81  1  0
 85 88  1  0
 86 90  1  0
 86 85  1  0
 87 86  2  0
 90 89  1  0
 92 90  1  0
 92 93  1  0
 92 91  1  0
M  ISO  4  13 100  21 100  52 101  53 101
M  END
>  <TORSDO>  (49) 
F 25

>  <SCORE>  (49) 
-8.973

>  <name>  (49) 
49

>  <ligand_id>  (49) 
49

>  <original_smiles>  (49) 
[H]c1c([H])c([H])c2c(c1[H])C([H])([H])C([H])([H])C([H])([H])C2([H])N([H])C(=O)C1([H])N(C(=O)C([H])(N([H])C(=O)C([H])(N([H])C([H])([H])[H])C([H])([H])[H])C(C([H])([H])[H])(C([H])([H])[H])C([H])([H])[H])C([H])([H])c2c([H])c(OC([H])([H])C([H])([H])c3nnc(C([H])([H])C([H])([H])C([H])([H])C([H])([H])C([H])([H])C([H])([H])C([H])([H])N([H])C(=O)N4C([H])([H])C([H])([H])C([H])([H])C([H])(n5nc(-c6c([H])c([H])c(Oc7c([H])c([H])c(F)c([H])c7F)c([H])c6[H])c(C(=O)N([H])[H])c5N([H])[H])C4([H])[H])s3)c([H])c([H])c2C1([H])[H]

>  <smiles>  (49) 
[H]c1c([H])c([H])c2c(c1[H])C([H])([H])C([H])([H])C([H])([H])C2([H])N([H])C(=O)C1([H])N(C(=O)C([H])(N([H])C(=O)C([H])(N([H])C([H])([H])[H])C([H])([H])[H])C(C([H])([H])[H])(C([H])([H])[H])C([H])([H])[H])C([H])([H])c2c([H])c(OC([H])([H])C([H])([H])c3nnc(C([H])([H])C([H])([H])C([H])([H])C([H])([H])C([H])([H])C([H])([H])C([H])([H])N([H])C(=O)N4C([H])([H])C([H])([H])C([H])([H])C([H])(n5nc(-c6c([H])c([H])c(Oc7c([H])c([H])c(F)c([H])c7F)c([H])c6[H])c(C(=O)N([H])[H])c5N([H])[H])C4([H])[H])s3)c([H])c([H])c2C1([H])[H]

$$$$
50:0:0
     RDKit          3D

 93101  0  0  1  0  0  0  0  0999 V2000
  -27.3900  -19.1580   20.4040 C   0  0  0  0  0  2  0  0  0  0  0  0
  -28.4690  -18.2620   19.7600 C   0  0  0  0  0  2  0  0  0  0  0  0
  -27.3570  -20.6350   19.9550 C   0  0  0  0  0  2  0  0  0  0  0  0
  -29.7870  -20.9160   19.6980 C   0  0  0  0  0  2  0  0  0  0  0  0
  -29.8020  -18.2990   20.5290 C   0  0  0  0  0  3  0  0  0  0  0  0
  -30.5330  -19.7260   20.4380 C   0  0  1  0  0  0  0  0  0  0  0  0
  -31.8760  -19.6030   19.6710 C   0  0  0  0  0  1  0  0  0  0  0  0
  -30.8780  -20.1880   21.8710 C   0  0  0  0  0  1  0  0  0  0  0  0
  -28.5430  -21.4600   20.3290 N   0  0  1  0  0  4  0  0  0  0  0  0
  -28.6580  -21.3870   21.3270 H   0  0  0  0  0  0  0  0  0  0  0  0
  -30.7150  -17.0360   20.2380 C   0  0  0  0  0  2  0  0  0  0  0  0
  -30.8530  -14.5410   20.0960 C   0  0  0  0  0  0  0  0  0  0  0  0
  -30.4540  -12.4030   18.9330 C   0  0  0  0  0  2  0  0  0  0  0  0
  -29.4680  -12.6620   17.7760 C   0  0  0  0  0  2  0  0  0  0  0  0
  -28.0130  -12.5310   18.2700 C   0  0  0  0  0  2  0  0  0  0  0  0
  -27.7480  -13.3280   19.5780 C   0  0  0  0  0  3  0  0  0  0  0  0
  -28.8550  -13.0870   20.6280 C   0  0  0  0  0  2  0  0  0  0  0  0
  -30.1460  -13.3800   19.9930 N   0  0  0  0  0  0  0  0  0  0  0  0
  -32.0050  -14.6390   19.6650 O   0  0  0  0  0  0  0  0  0  0  0  0
  -30.1730  -15.6620   20.4600 N   0  0  0  0  0  0  0  0  0  0  0  0
  -29.2200  -15.5580   20.7750 H   0  0  0  0  0  0  0  0  0  0  0  0
  -25.3990  -13.9370   20.4270 C   0  0  0  0  0  0  0  0  0  0  0  0
  -24.3390  -13.1680   20.8220 C   0  0  0  0  0  0  0  0  0  0  0  0
  -24.7770  -11.8120   20.7240 C   0  0  0  0  0  0  0  0  0  0  0  0
  -26.4180  -13.0510   20.1150 N   0  0  0  0  0  0  0  0  0  0  0  0
  -26.0510  -11.7650   20.3540 N   0  0  0  0  0  0  0  0  0  0  0  0
  -24.0400  -10.5550   20.9060 C   0  0  0  0  0  0  0  0  0  0  0  0
  -24.4670   -9.5710   21.8250 C   0  0  0  0  0  3  0  0  0  0  0  0
  -23.7310   -8.3790   21.9940 C   0  0  0  0  0  3  0  0  0  0  0  0
  -22.5510   -8.1610   21.2430 C   0  0  0  0  0  0  0  0  0  0  0  0
  -22.1410   -9.1330   20.3130 C   0  0  0  0  0  3  0  0  0  0  0  0
  -22.8790  -10.3170   20.1420 C   0  0  0  0  0  3  0  0  0  0  0  0
  -21.7850   -7.0230   21.3230 O   0  0  0  0  0  0  0  0  0  0  0  0
  -21.7020   -6.2900   22.4790 C   0  0  0  0  0  0  0  0  0  0  0  0
  -21.1940   -6.8400   23.6750 C   0  0  0  0  0  3  0  0  0  0  0  0
  -21.0620   -6.0300   24.8230 C   0  0  0  0  0  3  0  0  0  0  0  0
  -21.4310   -4.6720   24.7720 C   0  0  0  0  0  0  0  0  0  0  0  0
  -21.9310   -4.1220   23.5790 C   0  0  0  0  0  3  0  0  0  0  0  0
  -22.0640   -4.9280   22.4350 C   0  0  0  0  0  0  0  0  0  0  0  0
  -22.5280   -4.3880   21.2830 F   0  0  0  0  0  0  0  0  0  0  0  0
  -21.3000   -3.8920   25.8710 F   0  0  0  0  0  0  0  0  0  0  0  0
  -22.9620  -13.6550   21.1720 C   0  0  0  0  0  0  0  0  0  0  0  0
  -22.2590  -12.9420   22.0430 N   0  0  0  0  0  0  0  0  0  0  0  0
  -22.5200  -14.7070   20.7090 O   0  0  0  0  0  0  0  0  0  0  0  0
  -22.6290  -12.0900   22.4400 H   0  0  0  0  0  0  0  0  0  0  0  0
  -21.3390  -13.2520   22.3200 H   0  0  0  0  0  0  0  0  0  0  0  0
  -25.5770  -15.3090   20.2850 N   0  0  0  0  0  0  0  0  0  0  0  0
  -24.8220  -15.9680   20.4420 H   0  0  0  0  0  0  0  0  0  0  0  0
  -26.4030  -15.7400   19.8940 H   0  0  0  0  0  0  0  0  0  0  0  0
  -28.2520  -22.9200   20.0270 C   0  0  0  0  0  2  0  0  0  0  0  0
  -29.1550  -24.0230   20.6880 C   0  0  0  0  0  2  0  0  0  0  0  0
  -28.4320  -25.3560   21.1230 C   0  0  0  0  0  2  0  0  0  0  0  0
  -28.6070  -26.5650   20.3340 O   0  0  0  0  0  0  0  0  0  0  0  0
  -24.5460  -31.7440   23.1900 C   0  0  0  0  0  0  0  0  0  0  0  0
  -27.4690  -27.3510   20.2540 C   0  0  0  0  0  0  0  0  0  0  0  0
  -23.4710  -30.3060   21.4920 C   0  0  0  0  0  3  0  0  0  0  0  0
  -25.0440  -28.8160   20.1380 C   0  0  0  0  0  0  0  0  0  0  0  0
  -25.9960  -30.7360   21.4230 C   0  0  0  0  0  2  0  0  0  0  0  0
  -26.1590  -29.3670   20.7840 C   0  0  0  0  0  0  0  0  0  0  0  0
  -27.3800  -28.6440   20.8340 C   0  0  0  0  0  3  0  0  0  0  0  0
  -26.3400  -26.8300   19.5900 C   0  0  0  0  0  3  0  0  0  0  0  0
  -25.1320  -27.5490   19.5350 C   0  0  0  0  0  3  0  0  0  0  0  0
  -23.7730  -29.6370   20.1240 C   0  0  0  0  0  2  0  0  0  0  0  0
  -24.6860  -30.9460   22.0920 N   0  0  0  0  0  0  0  0  0  0  0  0
  -23.4300  -31.9800   23.6740 O   0  0  0  0  0  0  0  0  0  0  0  0
  -22.8050  -29.2630   22.4190 C   0  0  0  0  0  0  0  0  0  0  0  0
  -21.4840  -29.0680   22.2560 N   0  0  0  0  0  0  0  0  0  0  0  0
  -23.4730  -28.6320   23.2420 O   0  0  0  0  0  0  0  0  0  0  0  0
  -21.0070  -29.6310   21.5660 H   0  0  0  0  0  0  0  0  0  0  0  0
  -18.1010  -27.8690   22.6930 C   0  0  0  0  0  0  0  0  0  0  0  0
  -20.6590  -28.1090   22.9900 C   0  0  0  0  0  3  0  0  0  0  0  0
  -20.7590  -26.6970   22.3690 C   0  0  0  0  0  2  0  0  0  0  0  0
  -19.6630  -26.4120   21.3370 C   0  0  0  0  0  2  0  0  0  0  0  0
  -18.2770  -26.5420   21.9760 C   0  0  0  0  0  2  0  0  0  0  0  0
  -19.2200  -28.6130   23.1550 C   0  0  0  0  0  0  0  0  0  0  0  0
  -19.0020  -29.8580   23.7840 C   0  0  0  0  0  3  0  0  0  0  0  0
  -17.7000  -30.3600   23.9560 C   0  0  0  0  0  3  0  0  0  0  0  0
  -16.5940  -29.6120   23.5120 C   0  0  0  0  0  3  0  0  0  0  0  0
  -16.7960  -28.3690   22.8860 C   0  0  0  0  0  3  0  0  0  0  0  0
  -25.7770  -32.4180   23.8720 C   0  0  0  0  0  3  0  0  0  0  0  0
  -26.2400  -31.6790   25.1880 C   0  0  1  0  0  0  0  0  0  0  0  0
  -25.0930  -31.4230   26.1930 C   0  0  0  0  0  1  0  0  0  0  0  0
  -26.8850  -30.3140   24.8520 C   0  0  0  0  0  1  0  0  0  0  0  0
  -27.3270  -32.5160   25.9050 C   0  0  0  0  0  1  0  0  0  0  0  0
  -25.4160  -33.8130   24.1590 N   0  0  0  0  0  0  0  0  0  0  0  0
  -25.7540  -34.8590   23.3940 C   0  0  0  0  0  0  0  0  0  0  0  0
  -26.4720  -34.7530   22.3950 O   0  0  0  0  0  0  0  0  0  0  0  0
  -24.7800  -33.9670   24.9270 H   0  0  0  0  0  0  0  0  0  0  0  0
  -24.0010  -36.5990   22.9200 C   0  0  0  0  0  1  0  0  0  0  0  0
  -25.2100  -36.2410   23.8000 C   0  0  0  0  0  3  0  0  0  0  0  0
  -27.2660  -37.2070   24.7320 C   0  0  0  0  0  1  0  0  0  0  0  0
  -26.2200  -37.3190   23.7190 N   0  0  0  0  0  0  0  0  0  0  0  0
  -25.7810  -38.2310   23.8140 H   0  0  0  0  0  0  0  0  0  0  0  0
  2  1  1  0
  2  5  1  0
  3  9  1  0
  3  1  1  0
  4  9  1  0
  4  6  1  0
  5 11  1  0
  6  5  1  0
  6  8  1  1
  7  6  1  0
  9 10  1  1
 11 20  1  0
 12 20  1  0
 13 18  1  0
 14 15  1  0
 14 13  1  0
 16 15  1  0
 16 25  1  0
 16 17  1  0
 18 12  1  0
 18 17  1  0
 19 12  2  0
 20 21  1  0
 22 23  2  0
 23 42  1  0
 24 23  1  0
 24 27  1  0
 25 26  1  0
 25 22  1  0
 26 24  2  0
 27 28  1  0
 28 29  2  0
 30 33  1  0
 30 29  1  0
 31 30  2  0
 32 31  1  0
 32 27  2  0
 33 34  1  0
 34 35  1  0
 35 36  2  0
 37 36  1  0
 37 41  1  0
 38 37  2  0
 39 34  2  0
 39 38  1  0
 40 39  1  0
 42 43  1  0
 43 46  1  0
 43 45  1  0
 44 42  2  0
 47 22  1  0
 47 48  1  0
 49 47  1  0
 50  9  1  0
 50 51  1  0
 51 52  1  0
 53 52  1  0
 54 65  2  0
 55 53  1  0
 55 60  1  0
 56 64  1  0
 56 66  1  0
 57 59  1  0
 58 64  1  0
 59 60  2  0
 59 58  1  0
 61 55  2  0
 62 61  1  0
 62 57  2  0
 63 57  1  0
 63 56  1  0
 64 54  1  0
 66 68  2  0
 67 66  1  0
 69 67  1  0
 70 79  2  0
 70 75  1  0
 71 67  1  0
 71 75  1  0
 72 71  1  0
 73 74  1  0
 73 72  1  0
 74 70  1  0
 75 76  2  0
 76 77  1  0
 78 77  2  0
 79 78  1  0
 80 54  1  0
 80 85  1  0
 80 81  1  0
 81 84  1  1
 81 82  1  0
 83 81  1  0
 85 88  1  0
 86 90  1  0
 86 85  1  0
 87 86  2  0
 90 89  1  0
 92 90  1  0
 92 93  1  0
 92 91  1  0
M  ISO  4  12 100  20 100  52 101  53 101
M  END
>  <TORSDO>  (50) 
F 20

>  <SCORE>  (50) 
-13.275

>  <name>  (50) 
50

>  <ligand_id>  (50) 
50

>  <original_smiles>  (50) 
[H]c1c([H])c([H])c2c(c1[H])C([H])([H])C([H])([H])C([H])([H])C2([H])N([H])C(=O)C1([H])N(C(=O)C([H])(N([H])C(=O)C([H])(N([H])C([H])([H])[H])C([H])([H])[H])C(C([H])([H])[H])(C([H])([H])[H])C([H])([H])[H])C([H])([H])c2c([H])c(OC([H])([H])C([H])([H])C([H])([H])[N+]3([H])C([H])([H])C([H])([H])C([H])([H])C([H])(C([H])([H])N([H])C(=O)N4C([H])([H])C([H])([H])C([H])([H])C([H])(n5nc(-c6c([H])c([H])c(Oc7c([H])c([H])c(F)c([H])c7F)c([H])c6[H])c(C(=O)N([H])[H])c5N([H])[H])C4([H])[H])C(C([H])([H])[H])(C([H])([H])[H])C3([H])[H])c([H])c([H])c2C1([H])[H]

>  <smiles>  (50) 
[H]c1c([H])c([H])c2c(c1[H])C([H])([H])C([H])([H])C([H])([H])C2([H])N([H])C(=O)C1([H])N(C(=O)C([H])(N([H])C(=O)C([H])(N([H])C([H])([H])[H])C([H])([H])[H])C(C([H])([H])[H])(C([H])([H])[H])C([H])([H])[H])C([H])([H])c2c([H])c(OC([H])([H])C([H])([H])C([H])([H])[N+]3([H])C([H])([H])C([H])([H])C([H])([H])C([H])(C([H])([H])N([H])C(=O)N4C([H])([H])C([H])([H])C([H])([H])C([H])(n5nc(-c6c([H])c([H])c(Oc7c([H])c([H])c(F)c([H])c7F)c([H])c6[H])c(C(=O)N([H])[H])c5N([H])[H])C4([H])[H])C(C([H])([H])[H])(C([H])([H])[H])C3([H])[H])c([H])c([H])c2C1([H])[H]

$$$$
51:0:0
     RDKit          3D

 97106  0  0  1  0  0  0  0  0999 V2000
  -28.9980  -24.8980   21.5360 C   0  0  0  0  0  2  0  0  0  0  0  0
  -29.1700  -24.7990   19.0250 C   0  0  0  0  0  2  0  0  0  0  0  0
  -29.3080  -23.3680   21.4540 C   0  0  0  0  0  2  0  0  0  0  0  0
  -28.6560  -23.3290   18.9610 C   0  0  0  0  0  2  0  0  0  0  0  0
  -28.5660  -25.5590   20.2140 C   0  0  0  0  0  3  0  0  0  0  0  0
  -28.6370  -22.5220   20.3120 C   0  0  1  0  0  0  0  0  0  0  0  0
  -28.8140  -19.9390   20.7210 C   0  0  0  0  0  3  0  0  0  0  0  0
  -29.4790  -18.6930   20.7460 C   0  0  0  0  0  3  0  0  0  0  0  0
  -31.3390  -19.7060   19.6070 C   0  0  0  0  0  3  0  0  0  0  0  0
  -29.3890  -21.1300   20.1810 C   0  0  0  0  0  0  0  0  0  0  0  0
  -30.7730  -18.5670   20.2190 C   0  0  0  0  0  0  0  0  0  0  0  0
  -30.6820  -20.9640   19.5760 C   0  0  0  0  0  0  0  0  0  0  0  0
  -31.4460  -22.0750   18.8640 C   0  0  0  0  0  1  0  0  0  0  0  0
  -31.6140  -17.2940   20.4150 C   0  0  0  0  0  2  0  0  0  0  0  0
  -31.5350  -14.8530   19.9190 C   0  0  0  0  0  0  0  0  0  0  0  0
  -31.1790  -12.5570   19.0900 C   0  0  0  0  0  2  0  0  0  0  0  0
  -30.2350  -12.5760   17.8720 C   0  0  0  0  0  2  0  0  0  0  0  0
  -28.7700  -12.4900   18.3340 C   0  0  0  0  0  2  0  0  0  0  0  0
  -28.4350  -13.5120   19.4550 C   0  0  0  0  0  3  0  0  0  0  0  0
  -29.5010  -13.4920   20.5750 C   0  0  0  0  0  2  0  0  0  0  0  0
  -30.8180  -13.6940   19.9540 N   0  0  0  0  0  0  0  0  0  0  0  0
  -32.6560  -14.9080   19.4100 O   0  0  0  0  0  0  0  0  0  0  0  0
  -30.9350  -15.9800   20.3640 N   0  0  0  0  0  0  0  0  0  0  0  0
  -30.0080  -15.9080   20.7510 H   0  0  0  0  0  0  0  0  0  0  0  0
  -26.1020  -14.2300   20.2640 C   0  0  0  0  0  0  0  0  0  0  0  0
  -25.0070  -13.5110   20.6600 C   0  0  0  0  0  0  0  0  0  0  0  0
  -25.3920  -12.1370   20.5910 C   0  0  0  0  0  0  0  0  0  0  0  0
  -27.0890  -13.2990   19.9830 N   0  0  0  0  0  0  0  0  0  0  0  0
  -26.6670  -12.0330   20.2380 N   0  0  0  0  0  0  0  0  0  0  0  0
  -24.6030  -10.9130   20.7870 C   0  0  0  0  0  0  0  0  0  0  0  0
  -24.9670   -9.9460   21.7510 C   0  0  0  0  0  3  0  0  0  0  0  0
  -24.1810   -8.7870   21.9330 C   0  0  0  0  0  3  0  0  0  0  0  0
  -23.0200   -8.5860   21.1500 C   0  0  0  0  0  0  0  0  0  0  0  0
  -22.6760   -9.5400   20.1760 C   0  0  0  0  0  3  0  0  0  0  0  0
  -23.4610  -10.6900   19.9920 C   0  0  0  0  0  3  0  0  0  0  0  0
  -22.2110   -7.4780   21.2390 O   0  0  0  0  0  0  0  0  0  0  0  0
  -22.0240   -6.8190   22.4270 C   0  0  0  0  0  0  0  0  0  0  0  0
  -21.5280   -7.4770   23.5740 C   0  0  0  0  0  3  0  0  0  0  0  0
  -21.2840   -6.7460   24.7540 C   0  0  0  0  0  3  0  0  0  0  0  0
  -21.5270   -5.3590   24.7880 C   0  0  0  0  0  0  0  0  0  0  0  0
  -22.0180   -4.7020   23.6460 C   0  0  0  0  0  3  0  0  0  0  0  0
  -22.2630   -5.4300   22.4690 C   0  0  0  0  0  0  0  0  0  0  0  0
  -22.7140   -4.7880   21.3650 F   0  0  0  0  0  0  0  0  0  0  0  0
  -21.2850   -4.6560   25.9190 F   0  0  0  0  0  0  0  0  0  0  0  0
  -23.6500  -14.0600   20.9890 C   0  0  0  0  0  0  0  0  0  0  0  0
  -22.9230  -13.4020   21.8870 N   0  0  0  0  0  0  0  0  0  0  0  0
  -23.2420  -15.1060   20.4850 O   0  0  0  0  0  0  0  0  0  0  0  0
  -23.2650  -12.5550   22.3160 H   0  0  0  0  0  0  0  0  0  0  0  0
  -22.0140  -13.7540   22.1510 H   0  0  0  0  0  0  0  0  0  0  0  0
  -26.3390  -15.5920   20.1050 N   0  0  0  0  0  0  0  0  0  0  0  0
  -25.6180  -16.2900   20.2610 H   0  0  0  0  0  0  0  0  0  0  0  0
  -27.2020  -15.9900   19.7580 H   0  0  0  0  0  0  0  0  0  0  0  0
  -27.1180  -22.3170   20.7000 C   0  0  1  0  0  0  0  0  0  0  0  0
  -26.9620  -21.7800   21.9130 F   0  0  0  0  0  0  0  0  0  0  0  0
  -26.4420  -23.4630   20.7330 F   0  0  0  0  0  0  0  0  0  0  0  0
  -26.4970  -21.5410   19.8070 F   0  0  0  0  0  0  0  0  0  0  0  0
  -28.8210  -26.9920   20.1940 O   0  0  0  0  0  0  0  0  0  0  0  0
  -24.8810  -31.9430   23.4650 C   0  0  0  0  0  0  0  0  0  0  0  0
  -27.6900  -27.7920   20.1320 C   0  0  0  0  0  0  0  0  0  0  0  0
  -23.7600  -30.6790   21.6630 C   0  0  0  0  0  3  0  0  0  0  0  0
  -25.2920  -29.3000   20.1600 C   0  0  0  0  0  0  0  0  0  0  0  0
  -26.2890  -31.0820   21.5940 C   0  0  0  0  0  2  0  0  0  0  0  0
  -26.4220  -29.7740   20.8380 C   0  0  0  0  0  0  0  0  0  0  0  0
  -27.6290  -29.0300   20.8200 C   0  0  0  0  0  3  0  0  0  0  0  0
  -26.5510  -27.3660   19.4120 C   0  0  0  0  0  3  0  0  0  0  0  0
  -25.3530  -28.0970   19.4410 C   0  0  0  0  0  3  0  0  0  0  0  0
  -24.0330  -30.1350   20.2370 C   0  0  0  0  0  2  0  0  0  0  0  0
  -24.9940  -31.2420   22.3030 N   0  0  0  0  0  0  0  0  0  0  0  0
  -23.7760  -32.1550   23.9820 O   0  0  0  0  0  0  0  0  0  0  0  0
  -23.0890  -29.5660   22.5010 C   0  0  0  0  0  0  0  0  0  0  0  0
  -21.7680  -29.3990   22.3240 N   0  0  0  0  0  0  0  0  0  0  0  0
  -23.7540  -28.8660   23.2680 O   0  0  0  0  0  0  0  0  0  0  0  0
  -21.2940  -30.0170   21.6820 H   0  0  0  0  0  0  0  0  0  0  0  0
  -18.3770  -28.2040   22.6690 C   0  0  0  0  0  0  0  0  0  0  0  0
  -20.9360  -28.3920   22.9810 C   0  0  0  0  0  3  0  0  0  0  0  0
  -21.0230  -27.0330   22.2490 C   0  0  0  0  0  2  0  0  0  0  0  0
  -19.9240  -26.8420   21.2000 C   0  0  0  0  0  2  0  0  0  0  0  0
  -18.5400  -26.9360   21.8470 C   0  0  0  0  0  2  0  0  0  0  0  0
  -19.5020  -28.8960   23.1880 C   0  0  0  0  0  0  0  0  0  0  0  0
  -19.3000  -30.0880   23.9160 C   0  0  0  0  0  3  0  0  0  0  0  0
  -18.0010  -30.5890   24.1280 C   0  0  0  0  0  3  0  0  0  0  0  0
  -16.8900  -29.8930   23.6270 C   0  0  0  0  0  3  0  0  0  0  0  0
  -17.0770  -28.7010   22.9030 C   0  0  0  0  0  3  0  0  0  0  0  0
  -26.1330  -32.5330   24.1870 C   0  0  0  0  0  3  0  0  0  0  0  0
  -26.5660  -31.7020   25.4570 C   0  0  1  0  0  0  0  0  0  0  0  0
  -25.4080  -31.4230   26.4420 C   0  0  0  0  0  1  0  0  0  0  0  0
  -27.1680  -30.3400   25.0380 C   0  0  0  0  0  1  0  0  0  0  0  0
  -27.6750  -32.4590   26.2250 C   0  0  0  0  0  1  0  0  0  0  0  0
  -25.8180  -33.9200   24.5530 N   0  0  0  0  0  0  0  0  0  0  0  0
  -26.1900  -34.9960   23.8460 C   0  0  0  0  0  0  0  0  0  0  0  0
  -26.9060  -34.9230   22.8430 O   0  0  0  0  0  0  0  0  0  0  0  0
  -25.1900  -34.0520   25.3310 H   0  0  0  0  0  0  0  0  0  0  0  0
  -24.4840  -36.8060   23.4830 C   0  0  0  0  0  1  0  0  0  0  0  0
  -25.6910  -36.3700   24.3290 C   0  0  0  0  0  3  0  0  0  0  0  0
  -27.7940  -37.2160   25.2710 C   0  0  0  0  0  1  0  0  0  0  0  0
  -26.7300  -37.4210   24.2910 N   0  0  0  0  0  0  0  0  0  0  0  0
  -26.3220  -38.3370   24.4540 H   0  0  0  0  0  0  0  0  0  0  0  0
  2  5  1  0
  3  1  1  0
  4  2  1  0
  4  6  1  0
  5 57  1  0
  5  1  1  0
  6 53  1  0
  6  3  1  0
  7  8  1  0
  9 11  1  0
  6 10  1  6
 10  7  2  0
 11 14  1  0
 11  8  2  0
 12  9  2  0
 12 10  1  0
 13 12  1  0
 15 21  1  0
 15 23  1  0
 16 21  1  0
 17 18  1  0
 17 16  1  0
 19 18  1  0
 19 28  1  0
 19 20  1  0
 21 20  1  0
 22 15  2  0
 23 14  1  0
 23 24  1  0
 25 26  2  0
 26 45  1  0
 27 26  1  0
 27 30  1  0
 28 29  1  0
 28 25  1  0
 29 27  2  0
 30 31  1  0
 31 32  2  0
 33 36  1  0
 33 32  1  0
 34 33  2  0
 35 34  1  0
 35 30  2  0
 36 37  1  0
 37 42  2  0
 37 38  1  0
 38 39  2  0
 39 40  1  0
 40 44  1  0
 41 40  2  0
 42 41  1  0
 43 42  1  0
 45 46  1  0
 46 49  1  0
 46 48  1  0
 47 45  2  0
 50 51  1  0
 50 25  1  0
 52 50  1  0
 53 55  1  1
 53 54  1  0
 56 53  1  0
 58 69  2  0
 59 57  1  0
 59 64  1  0
 60 68  1  0
 60 70  1  0
 61 67  1  0
 61 63  1  0
 62 68  1  0
 63 62  1  0
 64 63  2  0
 65 66  1  0
 65 59  2  0
 66 61  2  0
 67 60  1  0
 68 58  1  0
 70 72  2  0
 71 70  1  0
 73 71  1  0
 74 83  2  0
 74 79  1  0
 75 71  1  0
 75 79  1  0
 76 75  1  0
 77 78  1  0
 77 76  1  0
 78 74  1  0
 79 80  2  0
 80 81  1  0
 82 81  2  0
 83 82  1  0
 84 58  1  0
 84 89  1  0
 84 85  1  0
 85 88  1  1
 85 86  1  0
 87 85  1  0
 89 92  1  0
 90 94  1  0
 90 89  1  0
 91 90  2  0
 94 93  1  0
 96 94  1  0
 96 97  1  0
 96 95  1  0
M  ISO  4   5 101  15 100  23 100  57 101
M  END
>  <TORSDO>  (51) 
F 19

>  <SCORE>  (51) 
-12.426

>  <name>  (51) 
51

>  <ligand_id>  (51) 
51

>  <original_smiles>  (51) 
[H]c1c([H])c([H])c2c(c1[H])C([H])([H])C([H])([H])C([H])([H])C2([H])N([H])C(=O)C1([H])N(C(=O)C([H])(N([H])C(=O)C([H])(N([H])C([H])([H])[H])C([H])([H])[H])C(C([H])([H])[H])(C([H])([H])[H])C([H])([H])[H])C([H])([H])c2c([H])c(OC3([H])C([H])([H])C([H])([H])C(c4c([H])c([H])c(C([H])([H])N([H])C(=O)N5C([H])([H])C([H])([H])C([H])([H])C([H])(n6nc(-c7c([H])c([H])c(Oc8c([H])c([H])c(F)c([H])c8F)c([H])c7[H])c(C(=O)N([H])[H])c6N([H])[H])C5([H])[H])c([H])c4C([H])([H])[H])(C(F)(F)F)C([H])([H])C3([H])[H])c([H])c([H])c2C1([H])[H]

>  <smiles>  (51) 
[H]c1c([H])c([H])c2c(c1[H])C([H])([H])C([H])([H])C([H])([H])C2([H])N([H])C(=O)C1([H])N(C(=O)C([H])(N([H])C(=O)C([H])(N([H])C([H])([H])[H])C([H])([H])[H])C(C([H])([H])[H])(C([H])([H])[H])C([H])([H])[H])C([H])([H])c2c([H])c(OC3([H])C([H])([H])C([H])([H])C(c4c([H])c([H])c(C([H])([H])N([H])C(=O)N5C([H])([H])C([H])([H])C([H])([H])C([H])(n6nc(-c7c([H])c([H])c(Oc8c([H])c([H])c(F)c([H])c8F)c([H])c7[H])c(C(=O)N([H])[H])c6N([H])[H])C5([H])[H])c([H])c4C([H])([H])[H])(C(F)(F)F)C([H])([H])C3([H])[H])c([H])c([H])c2C1([H])[H]

$$$$
52:0:0
     RDKit          3D

 90 98  0  0  1  0  0  0  0  0999 V2000
  -29.3340  -21.2440   21.2550 C   0  0  0  0  0  3  0  0  0  0  0  0
  -29.0640  -22.0450   20.0970 C   0  0  0  0  0  0  0  0  0  0  0  0
  -29.6170  -19.8230   21.2050 C   0  0  0  0  0  0  0  0  0  0  0  0
  -29.0300  -21.2220   18.9220 C   0  0  0  0  0  0  0  0  0  0  0  0
  -29.6240  -19.1010   19.9700 C   0  0  0  0  0  0  0  0  0  0  0  0
  -28.7850  -21.8600   17.5700 C   0  0  0  0  0  1  0  0  0  0  0  0
  -29.2900  -19.8560   18.8690 N   0  0  0  0  0  0  0  0  0  0  0  0
  -30.0690  -19.0160   22.6640 Cl  0  0  0  0  0  0  0  0  0  0  0  0
  -29.1370  -23.6910   20.1040 C   0  0  0  0  0  3  0  0  0  0  0  0
  -27.9340  -24.8210   19.9500 C   0  0  0  0  0  3  0  0  0  0  0  0
  -28.1780  -26.3410   20.0740 O   0  0  0  0  0  0  0  0  0  0  0  0
  -24.5860  -31.9050   23.2170 C   0  0  0  0  0  0  0  0  0  0  0  0
  -27.1000  -27.2850   20.0460 C   0  0  0  0  0  0  0  0  0  0  0  0
  -23.3450  -30.5330   21.5860 C   0  0  0  0  0  3  0  0  0  0  0  0
  -24.7600  -28.9910   20.0980 C   0  0  0  0  0  0  0  0  0  0  0  0
  -25.8900  -30.8220   21.3550 C   0  0  0  0  0  2  0  0  0  0  0  0
  -25.9510  -29.4430   20.6800 C   0  0  0  0  0  0  0  0  0  0  0  0
  -27.1230  -28.6070   20.6360 C   0  0  0  0  0  3  0  0  0  0  0  0
  -25.8830  -26.9230   19.4290 C   0  0  0  0  0  3  0  0  0  0  0  0
  -24.7360  -27.7430   19.4580 C   0  0  0  0  0  3  0  0  0  0  0  0
  -23.5300  -29.8790   20.1910 C   0  0  0  0  0  2  0  0  0  0  0  0
  -24.6280  -31.1060   22.1090 N   0  0  0  0  0  0  0  0  0  0  0  0
  -23.5140  -32.1760   23.7790 O   0  0  0  0  0  0  0  0  0  0  0  0
  -22.6980  -29.5060   22.5490 C   0  0  0  0  0  0  0  0  0  0  0  0
  -21.3830  -29.2720   22.3970 N   0  0  0  0  0  0  0  0  0  0  0  0
  -23.3810  -28.9230   23.3940 O   0  0  0  0  0  0  0  0  0  0  0  0
  -20.8860  -29.7950   21.6900 H   0  0  0  0  0  0  0  0  0  0  0  0
  -18.0630  -27.8810   22.8030 C   0  0  0  0  0  0  0  0  0  0  0  0
  -20.5890  -28.3100   23.1660 C   0  0  0  0  0  3  0  0  0  0  0  0
  -20.8010  -26.8690   22.6430 C   0  0  0  0  0  2  0  0  0  0  0  0
  -19.7640  -26.4480   21.5960 C   0  0  0  0  0  2  0  0  0  0  0  0
  -18.3510  -26.5260   22.1790 C   0  0  0  0  0  2  0  0  0  0  0  0
  -19.1140  -28.7240   23.2530 C   0  0  0  0  0  0  0  0  0  0  0  0
  -18.7920  -29.9860   23.7960 C   0  0  0  0  0  3  0  0  0  0  0  0
  -17.4530  -30.4090   23.8950 C   0  0  0  0  0  3  0  0  0  0  0  0
  -16.4170  -29.5640   23.4610 C   0  0  0  0  0  3  0  0  0  0  0  0
  -16.7220  -28.3010   22.9230 C   0  0  0  0  0  3  0  0  0  0  0  0
  -25.8800  -32.5330   23.8200 C   0  0  0  0  0  3  0  0  0  0  0  0
  -26.3960  -31.7720   25.1030 C   0  0  1  0  0  0  0  0  0  0  0  0
  -25.3050  -31.5450   26.1760 C   0  0  0  0  0  1  0  0  0  0  0  0
  -26.9770  -30.3900   24.7260 C   0  0  0  0  0  1  0  0  0  0  0  0
  -27.5500  -32.5710   25.7560 C   0  0  0  0  0  1  0  0  0  0  0  0
  -25.5890  -33.9380   24.1400 N   0  0  0  0  0  0  0  0  0  0  0  0
  -25.8800  -34.9780   23.3470 C   0  0  0  0  0  0  0  0  0  0  0  0
  -26.4900  -34.8540   22.2810 O   0  0  0  0  0  0  0  0  0  0  0  0
  -25.0400  -34.1080   24.9700 H   0  0  0  0  0  0  0  0  0  0  0  0
  -24.1210  -36.7580   23.0830 C   0  0  0  0  0  1  0  0  0  0  0  0
  -25.4230  -36.3770   23.8050 C   0  0  0  0  0  3  0  0  0  0  0  0
  -27.6030  -37.2990   24.4600 C   0  0  0  0  0  1  0  0  0  0  0  0
  -26.4390  -37.4300   23.5870 N   0  0  0  0  0  0  0  0  0  0  0  0
  -26.0380  -38.3530   23.7290 H   0  0  0  0  0  0  0  0  0  0  0  0
  -30.3500  -17.6510   19.7250 C   0  0  0  0  0  2  0  0  0  0  0  0
  -30.5870  -15.0080   19.7720 C   0  0  0  0  0  0  0  0  0  0  0  0
  -30.4100  -12.6400   18.9270 C   0  0  0  0  0  2  0  0  0  0  0  0
  -29.3970  -12.5600   17.7650 C   0  0  0  0  0  2  0  0  0  0  0  0
  -27.9710  -12.3450   18.3070 C   0  0  0  0  0  2  0  0  0  0  0  0
  -27.6330  -13.3040   19.4790 C   0  0  0  0  0  3  0  0  0  0  0  0
  -28.7640  -13.3720   20.5270 C   0  0  0  0  0  2  0  0  0  0  0  0
  -29.9870  -13.7580   19.8150 N   0  0  0  0  0  0  0  0  0  0  0  0
  -31.7600  -15.0710   19.3930 O   0  0  0  0  0  0  0  0  0  0  0  0
  -29.8430  -16.1930   19.9390 N   0  0  0  0  0  0  0  0  0  0  0  0
  -28.8740  -16.0930   20.1980 H   0  0  0  0  0  0  0  0  0  0  0  0
  -25.3480  -13.8700   20.4850 C   0  0  0  0  0  0  0  0  0  0  0  0
  -24.3060  -13.0890   20.9010 C   0  0  0  0  0  0  0  0  0  0  0  0
  -24.7340  -11.7370   20.7310 C   0  0  0  0  0  0  0  0  0  0  0  0
  -26.3420  -12.9950   20.0830 N   0  0  0  0  0  0  0  0  0  0  0  0
  -25.9870  -11.7010   20.2940 N   0  0  0  0  0  0  0  0  0  0  0  0
  -23.9980  -10.4760   20.9000 C   0  0  0  0  0  0  0  0  0  0  0  0
  -24.3600   -9.5360   21.8910 C   0  0  0  0  0  3  0  0  0  0  0  0
  -23.6240   -8.3420   22.0470 C   0  0  0  0  0  3  0  0  0  0  0  0
  -22.5120   -8.0790   21.2130 C   0  0  0  0  0  0  0  0  0  0  0  0
  -22.1690   -9.0070   20.2140 C   0  0  0  0  0  3  0  0  0  0  0  0
  -22.9070  -10.1930   20.0550 C   0  0  0  0  0  3  0  0  0  0  0  0
  -21.7550   -6.9340   21.2750 O   0  0  0  0  0  0  0  0  0  0  0  0
  -21.4290   -6.3510   22.4730 C   0  0  0  0  0  0  0  0  0  0  0  0
  -20.6750   -7.0330   23.4530 C   0  0  0  0  0  3  0  0  0  0  0  0
  -20.3030   -6.3720   24.6410 C   0  0  0  0  0  3  0  0  0  0  0  0
  -20.6740   -5.0300   24.8470 C   0  0  0  0  0  0  0  0  0  0  0  0
  -21.4190   -4.3470   23.8700 C   0  0  0  0  0  3  0  0  0  0  0  0
  -21.7920   -5.0050   22.6850 C   0  0  0  0  0  0  0  0  0  0  0  0
  -22.4930   -4.3370   21.7380 F   0  0  0  0  0  0  0  0  0  0  0  0
  -20.3100   -4.3930   25.9840 F   0  0  0  0  0  0  0  0  0  0  0  0
  -22.9540  -13.5700   21.3390 C   0  0  0  0  0  0  0  0  0  0  0  0
  -22.2980  -12.8300   22.2260 N   0  0  0  0  0  0  0  0  0  0  0  0
  -22.4900  -14.6340   20.9280 O   0  0  0  0  0  0  0  0  0  0  0  0
  -22.6880  -11.9690   22.5790 H   0  0  0  0  0  0  0  0  0  0  0  0
  -21.3930  -13.1320   22.5580 H   0  0  0  0  0  0  0  0  0  0  0  0
  -25.5240  -15.2480   20.3870 N   0  0  0  0  0  0  0  0  0  0  0  0
  -24.7810  -15.9010   20.6120 H   0  0  0  0  0  0  0  0  0  0  0  0
  -26.3310  -15.6970   19.9760 H   0  0  0  0  0  0  0  0  0  0  0  0
  2  9  1  0
  2  1  2  0
  3  1  1  0
  3  8  1  0
  4  2  1  0
  5  3  2  0
  6  4  1  0
  7  4  2  0
  7  5  1  0
 10 11  1  0
 10  9  2  0
 12 23  2  0
 13 11  1  0
 13 18  1  0
 14 22  1  0
 14 24  1  0
 15 21  1  0
 15 17  1  0
 16 22  1  0
 17 16  1  0
 18 17  2  0
 19 20  1  0
 19 13  2  0
 20 15  2  0
 21 14  1  0
 22 12  1  0
 24 26  2  0
 25 24  1  0
 27 25  1  0
 28 37  2  0
 28 33  1  0
 29 25  1  0
 29 33  1  0
 30 29  1  0
 31 32  1  0
 31 30  1  0
 32 28  1  0
 33 34  2  0
 34 35  1  0
 36 35  2  0
 37 36  1  0
 38 12  1  0
 38 43  1  0
 38 39  1  0
 39 42  1  1
 39 40  1  0
 41 39  1  0
 43 46  1  0
 44 48  1  0
 44 43  1  0
 45 44  2  0
 48 47  1  0
 50 51  1  0
 50 48  1  0
 50 49  1  0
 52 61  1  0
 52  5  1  0
 53 59  1  0
 53 61  1  0
 54 59  1  0
 55 56  1  0
 55 54  1  0
 57 56  1  0
 57 66  1  0
 57 58  1  0
 59 58  1  0
 60 53  2  0
 61 62  1  0
 63 64  2  0
 64 83  1  0
 65 68  1  0
 65 64  1  0
 66 67  1  0
 66 63  1  0
 67 65  2  0
 68 69  1  0
 69 70  2  0
 71 74  1  0
 71 70  1  0
 72 71  2  0
 73 72  1  0
 73 68  2  0
 74 75  1  0
 75 80  2  0
 75 76  1  0
 76 77  2  0
 77 78  1  0
 78 82  1  0
 79 78  2  0
 80 79  1  0
 81 80  1  0
 83 84  1  0
 84 87  1  0
 84 86  1  0
 85 83  2  0
 88 63  1  0
 88 89  1  0
 90 88  1  0
M  ISO  4  10 101  11 101  53 100  61 100
M  END
>  <TORSDO>  (52) 
F 19

>  <SCORE>  (52) 
-12.465

>  <name>  (52) 
52

>  <ligand_id>  (52) 
52

>  <original_smiles>  (52) 
[H]c1c([H])c([H])c2c(c1[H])C([H])([H])C([H])([H])C([H])([H])C2([H])N([H])C(=O)C1([H])N(C(=O)C([H])(N([H])C(=O)C([H])(N([H])C([H])([H])[H])C([H])([H])[H])C(C([H])([H])[H])(C([H])([H])[H])C([H])([H])[H])C([H])([H])c2c([H])c(OC([H])([H])C([H])([H])c3c(C([H])([H])[H])nc(C([H])([H])N([H])C(=O)N4C([H])([H])C([H])([H])C([H])([H])C([H])(n5nc(-c6c([H])c([H])c(Oc7c([H])c([H])c(F)c([H])c7F)c([H])c6[H])c(C(=O)N([H])[H])c5N([H])[H])C4([H])[H])c(Cl)c3[H])c([H])c([H])c2C1([H])[H]

>  <smiles>  (52) 
[H]c1c([H])c([H])c2c(c1[H])C([H])([H])C([H])([H])C([H])([H])C2([H])N([H])C(=O)C1([H])N(C(=O)C([H])(N([H])C(=O)C([H])(N([H])C([H])([H])[H])C([H])([H])[H])C(C([H])([H])[H])(C([H])([H])[H])C([H])([H])[H])C([H])([H])c2c([H])c(OC([H])([H])C([H])([H])c3c(C([H])([H])[H])nc(C([H])([H])N([H])C(=O)N4C([H])([H])C([H])([H])C([H])([H])C([H])(n5nc(-c6c([H])c([H])c(Oc7c([H])c([H])c(F)c([H])c7F)c([H])c6[H])c(C(=O)N([H])[H])c5N([H])[H])C4([H])[H])c(Cl)c3[H])c([H])c([H])c2C1([H])[H]

$$$$
53:0:0
     RDKit          3D

 95103  0  0  1  0  0  0  0  0999 V2000
  -28.1790  -23.3520   21.0220 C   0  0  0  0  0  3  0  0  0  0  0  0
  -26.2580  -24.7050   20.5160 C   0  0  0  0  0  3  0  0  0  0  0  0
  -27.5960  -24.6290   20.9530 C   0  0  0  0  0  0  0  0  0  0  0  0
  -27.4880  -22.2000   20.5910 C   0  0  0  0  0  0  0  0  0  0  0  0
  -25.6120  -23.6120   19.9100 C   0  0  0  0  0  0  0  0  0  0  0  0
  -26.2550  -22.3310   19.8740 C   0  0  0  0  0  0  0  0  0  0  0  0
  -28.1670  -20.8810   20.9390 C   0  0  0  0  0  1  0  0  0  0  0  0
  -24.2300  -23.8920   19.3140 C   0  0  0  0  0  1  0  0  0  0  0  0
  -25.5500  -21.1900   19.1060 C   0  0  0  0  0  2  0  0  0  0  0  0
  -26.3440  -19.9980   18.4920 C   0  0  0  0  0  3  0  0  0  0  0  0
  -27.6660  -20.3100   17.7320 C   0  0  0  0  0  3  0  0  0  0  0  0
  -28.6000  -19.0910   17.4650 C   0  0  0  0  0  2  0  0  0  0  0  0
  -29.9280  -19.0760   18.3000 C   0  0  0  0  0  2  0  0  0  0  0  0
  -29.8030  -18.3470   19.6900 C   0  0  0  0  0  2  0  0  0  0  0  0
  -30.8890  -17.4970   20.4570 C   0  0  0  0  0  2  0  0  0  0  0  0
  -31.3620  -15.0130   20.3640 C   0  0  0  0  0  0  0  0  0  0  0  0
  -31.0970  -12.8070   19.3350 C   0  0  0  0  0  2  0  0  0  0  0  0
  -30.1620  -12.9210   18.1070 C   0  0  0  0  0  2  0  0  0  0  0  0
  -28.6820  -12.8280   18.5120 C   0  0  0  0  0  2  0  0  0  0  0  0
  -28.3350  -13.7410   19.7070 C   0  0  0  0  0  3  0  0  0  0  0  0
  -29.3550  -13.6030   20.8550 C   0  0  0  0  0  2  0  0  0  0  0  0
  -30.6990  -13.8350   20.3030 N   0  0  0  0  0  0  0  0  0  0  0  0
  -32.5390  -15.1450   20.0170 O   0  0  0  0  0  0  0  0  0  0  0  0
  -30.5680  -16.0720   20.6180 N   0  0  0  0  0  0  0  0  0  0  0  0
  -29.6060  -15.8930   20.8610 H   0  0  0  0  0  0  0  0  0  0  0  0
  -25.9740  -14.4700   20.4150 C   0  0  0  0  0  0  0  0  0  0  0  0
  -24.8650  -13.7490   20.7500 C   0  0  0  0  0  0  0  0  0  0  0  0
  -25.2560  -12.3700   20.6870 C   0  0  0  0  0  0  0  0  0  0  0  0
  -26.9680  -13.5370   20.1680 N   0  0  0  0  0  0  0  0  0  0  0  0
  -26.5460  -12.2710   20.4020 N   0  0  0  0  0  0  0  0  0  0  0  0
  -24.4640  -11.1450   20.8360 C   0  0  0  0  0  0  0  0  0  0  0  0
  -24.8400  -10.1260   21.7380 C   0  0  0  0  0  3  0  0  0  0  0  0
  -24.0490   -8.9630   21.8700 C   0  0  0  0  0  3  0  0  0  0  0  0
  -22.8670   -8.8150   21.1070 C   0  0  0  0  0  0  0  0  0  0  0  0
  -22.5140   -9.8200   20.1890 C   0  0  0  0  0  3  0  0  0  0  0  0
  -23.3050  -10.9730   20.0550 C   0  0  0  0  0  3  0  0  0  0  0  0
  -22.0560   -7.7110   21.1510 O   0  0  0  0  0  0  0  0  0  0  0  0
  -21.9420   -6.9450   22.2860 C   0  0  0  0  0  0  0  0  0  0  0  0
  -21.5440   -7.4970   23.5230 C   0  0  0  0  0  3  0  0  0  0  0  0
  -21.3820   -6.6660   24.6460 C   0  0  0  0  0  3  0  0  0  0  0  0
  -21.6030   -5.2800   24.5350 C   0  0  0  0  0  0  0  0  0  0  0  0
  -21.9860   -4.7250   23.3000 C   0  0  0  0  0  3  0  0  0  0  0  0
  -22.1540   -5.5570   22.1780 C   0  0  0  0  0  0  0  0  0  0  0  0
  -22.5080   -5.0160   20.9890 F   0  0  0  0  0  0  0  0  0  0  0  0
  -21.4390   -4.4750   25.6090 F   0  0  0  0  0  0  0  0  0  0  0  0
  -23.4920  -14.2800   21.0250 C   0  0  0  0  0  0  0  0  0  0  0  0
  -22.7360  -13.5900   21.8690 N   0  0  0  0  0  0  0  0  0  0  0  0
  -23.1050  -15.3360   20.5250 O   0  0  0  0  0  0  0  0  0  0  0  0
  -23.0700  -12.7200   22.2670 H   0  0  0  0  0  0  0  0  0  0  0  0
  -21.8220  -13.9180   22.1390 H   0  0  0  0  0  0  0  0  0  0  0  0
  -26.2380  -15.8340   20.2780 N   0  0  0  0  0  0  0  0  0  0  0  0
  -25.5360  -16.5550   20.4010 H   0  0  0  0  0  0  0  0  0  0  0  0
  -27.1230  -16.1920   19.9500 H   0  0  0  0  0  0  0  0  0  0  0  0
  -28.3570  -25.8710   21.4460 C   0  0  0  0  0  2  0  0  0  0  0  0
  -28.4910  -26.9450   20.4950 O   0  0  0  0  0  0  0  0  0  0  0  0
  -24.5490  -32.0790   23.4200 C   0  0  0  0  0  0  0  0  0  0  0  0
  -27.3760  -27.7340   20.3790 C   0  0  0  0  0  0  0  0  0  0  0  0
  -23.4380  -30.6730   21.7220 C   0  0  0  0  0  3  0  0  0  0  0  0
  -24.9780  -29.2110   20.3060 C   0  0  0  0  0  0  0  0  0  0  0  0
  -25.9670  -31.0900   21.6290 C   0  0  0  0  0  2  0  0  0  0  0  0
  -26.1010  -29.7370   20.9600 C   0  0  0  0  0  0  0  0  0  0  0  0
  -27.3040  -29.0000   21.0080 C   0  0  0  0  0  3  0  0  0  0  0  0
  -26.2690  -27.2650   19.6410 C   0  0  0  0  0  3  0  0  0  0  0  0
  -25.0510  -27.9680   19.6560 C   0  0  0  0  0  3  0  0  0  0  0  0
  -23.7180  -30.0450   20.3330 C   0  0  0  0  0  2  0  0  0  0  0  0
  -24.6670  -31.2890   22.3200 N   0  0  0  0  0  0  0  0  0  0  0  0
  -23.4430  -32.3310   23.9150 O   0  0  0  0  0  0  0  0  0  0  0  0
  -22.7570  -29.6250   22.6300 C   0  0  0  0  0  0  0  0  0  0  0  0
  -21.4360  -29.4530   22.4530 N   0  0  0  0  0  0  0  0  0  0  0  0
  -23.4120  -28.9850   23.4570 O   0  0  0  0  0  0  0  0  0  0  0  0
  -20.9690  -30.0100   21.7530 H   0  0  0  0  0  0  0  0  0  0  0  0
  -18.0250  -28.3210   22.8380 C   0  0  0  0  0  0  0  0  0  0  0  0
  -20.5820  -28.5050   23.1620 C   0  0  0  0  0  3  0  0  0  0  0  0
  -20.6640  -27.0920   22.5360 C   0  0  0  0  0  2  0  0  0  0  0  0
  -19.5770  -26.8440   21.4920 C   0  0  0  0  0  2  0  0  0  0  0  0
  -18.1870  -26.9880   22.1200 C   0  0  0  0  0  2  0  0  0  0  0  0
  -19.1520  -29.0470   23.3080 C   0  0  0  0  0  0  0  0  0  0  0  0
  -18.9550  -30.2990   23.9290 C   0  0  0  0  0  3  0  0  0  0  0  0
  -17.6570  -30.8200   24.0960 C   0  0  0  0  0  3  0  0  0  0  0  0
  -16.5430  -30.0850   23.6540 C   0  0  0  0  0  3  0  0  0  0  0  0
  -16.7260  -28.8410   23.0240 C   0  0  0  0  0  3  0  0  0  0  0  0
  -25.7990  -32.7210   24.0980 C   0  0  0  0  0  3  0  0  0  0  0  0
  -25.5060  -34.1370   24.3460 N   0  0  0  0  0  0  0  0  0  0  0  0
  -25.8830  -35.1430   23.5450 C   0  0  0  0  0  0  0  0  0  0  0  0
  -26.5910  -34.9760   22.5490 O   0  0  0  0  0  0  0  0  0  0  0  0
  -24.9250  -34.3470   25.1430 H   0  0  0  0  0  0  0  0  0  0  0  0
  -24.1980  -36.9190   23.0110 C   0  0  0  0  0  1  0  0  0  0  0  0
  -25.3920  -36.5540   23.9100 C   0  0  0  0  0  3  0  0  0  0  0  0
  -27.5000  -37.4550   24.7930 C   0  0  0  0  0  1  0  0  0  0  0  0
  -26.4410  -37.5910   23.7940 N   0  0  0  0  0  0  0  0  0  0  0  0
  -26.0400  -38.5180   23.8980 H   0  0  0  0  0  0  0  0  0  0  0  0
  -26.2130  -31.9920   25.4310 C   0  0  1  0  0  0  0  0  0  0  0  0
  -25.0310  -31.7910   26.4120 C   0  0  0  0  0  1  0  0  0  0  0  0
  -26.8380  -30.6120   25.1270 C   0  0  0  0  0  1  0  0  0  0  0  0
  -27.3190  -32.8050   26.1490 C   0  0  0  0  0  1  0  0  0  0  0  0
  2  3  2  0
  3  1  1  0
  3 54  1  0
  4  7  1  0
  4  1  2  0
  5  2  1  0
  6  5  2  0
  6  4  1  0
  8  5  1  0
  9  6  1  0
 10  9  1  0
 11 10  2  0
 12 11  1  0
 12 13  1  0
 13 14  1  0
 14 15  1  0
 15 24  1  0
 16 24  1  0
 17 22  1  0
 18 19  1  0
 18 17  1  0
 20 19  1  0
 20 29  1  0
 20 21  1  0
 22 16  1  0
 22 21  1  0
 23 16  2  0
 24 25  1  0
 26 27  2  0
 27 46  1  0
 28 27  1  0
 28 31  1  0
 29 30  1  0
 29 26  1  0
 30 28  2  0
 31 32  1  0
 32 33  2  0
 34 37  1  0
 34 33  1  0
 35 34  2  0
 36 35  1  0
 36 31  2  0
 37 38  1  0
 38 39  1  0
 39 40  2  0
 41 40  1  0
 41 45  1  0
 42 41  2  0
 43 38  2  0
 43 42  1  0
 44 43  1  0
 46 47  1  0
 47 50  1  0
 47 49  1  0
 48 46  2  0
 51 52  1  0
 51 26  1  0
 53 51  1  0
 55 54  1  0
 56 67  2  0
 57 55  1  0
 57 62  1  0
 58 66  1  0
 58 68  1  0
 59 65  1  0
 59 61  1  0
 60 66  1  0
 61 62  2  0
 61 60  1  0
 63 64  1  0
 63 57  2  0
 64 59  2  0
 65 58  1  0
 66 56  1  0
 68 70  2  0
 69 68  1  0
 71 69  1  0
 72 81  2  0
 72 77  1  0
 73 69  1  0
 73 77  1  0
 74 73  1  0
 75 76  1  0
 75 74  1  0
 76 72  1  0
 77 78  2  0
 78 79  1  0
 80 79  2  0
 81 80  1  0
 82 56  1  0
 82 83  1  0
 82 92  1  0
 83 86  1  0
 84 88  1  0
 84 83  1  0
 85 84  2  0
 88 87  1  0
 90 91  1  0
 90 88  1  0
 90 89  1  0
 92 95  1  1
 92 93  1  0
 94 92  1  0
M  ISO  4  16 100  24 100  54 101  55 101
M  END
>  <TORSDO>  (53) 
F 24

>  <SCORE>  (53) 
-11.006

>  <name>  (53) 
53

>  <ligand_id>  (53) 
53

>  <original_smiles>  (53) 
[H]c1c([H])c([H])c2c(c1[H])C([H])([H])C([H])([H])C([H])([H])C2([H])N([H])C(=O)C1([H])N(C(=O)C([H])(N([H])C(=O)C([H])(N([H])C([H])([H])[H])C([H])([H])[H])C(C([H])([H])[H])(C([H])([H])[H])C([H])([H])[H])C([H])([H])c2c([H])c(OC([H])([H])c3c([H])c(C([H])([H])[H])c(C([H])([H])C([H])([H])C([H])([H])C([H])([H])C([H])([H])C([H])([H])C([H])([H])N([H])C(=O)N4C([H])([H])C([H])([H])C([H])([H])C([H])(n5nc(-c6c([H])c([H])c(Oc7c([H])c([H])c(F)c([H])c7F)c([H])c6[H])c(C(=O)N([H])[H])c5N([H])[H])C4([H])[H])c(C([H])([H])[H])c3[H])c([H])c([H])c2C1([H])[H]

>  <smiles>  (53) 
[H]c1c([H])c([H])c2c(c1[H])C([H])([H])C([H])([H])C([H])([H])C2([H])N([H])C(=O)C1([H])N(C(=O)C([H])(N([H])C(=O)C([H])(N([H])C([H])([H])[H])C([H])([H])[H])C(C([H])([H])[H])(C([H])([H])[H])C([H])([H])[H])C([H])([H])c2c([H])c(OC([H])([H])c3c([H])c(C([H])([H])[H])c(C([H])([H])C([H])([H])C([H])([H])C([H])([H])C([H])([H])C([H])([H])C([H])([H])N([H])C(=O)N4C([H])([H])C([H])([H])C([H])([H])C([H])(n5nc(-c6c([H])c([H])c(Oc7c([H])c([H])c(F)c([H])c7F)c([H])c6[H])c(C(=O)N([H])[H])c5N([H])[H])C4([H])[H])c(C([H])([H])[H])c3[H])c([H])c([H])c2C1([H])[H]

$$$$
54:0:0
     RDKit          3D

 91 99  0  0  1  0  0  0  0  0999 V2000
  -30.5260  -24.6460   20.4200 C   0  0  0  0  0  3  0  0  0  0  0  0
  -28.9040  -22.9730   21.1310 C   0  0  0  0  0  3  0  0  0  0  0  0
  -29.2000  -24.3050   20.7470 C   0  0  0  0  0  0  0  0  0  0  0  0
  -31.5440  -23.6710   20.5010 C   0  0  0  0  0  0  0  0  0  0  0  0
  -29.9110  -21.9800   21.2160 C   0  0  0  0  0  0  0  0  0  0  0  0
  -31.2420  -22.3510   20.9070 C   0  0  0  0  0  0  0  0  0  0  0  0
  -32.9780  -24.0450   20.1780 C   0  0  0  0  0  1  0  0  0  0  0  0
  -32.2480  -21.4510   21.0230 F   0  0  0  0  0  0  0  0  0  0  0  0
  -29.5570  -20.5720   21.7310 C   0  0  0  0  0  2  0  0  0  0  0  0
  -30.0290  -19.3720   20.8680 C   0  0  0  0  0  2  0  0  0  0  0  0
  -29.6200  -17.9740   21.4150 C   0  0  0  0  0  2  0  0  0  0  0  0
  -30.4090  -16.8330   20.7340 C   0  0  0  0  0  2  0  0  0  0  0  0
  -29.9900  -15.4950   21.0500 O   0  0  0  0  0  0  0  0  0  0  0  0
  -30.7400  -14.4720   20.5420 C   0  0  0  0  0  0  0  0  0  0  0  0
  -30.4130  -12.2740   19.4400 C   0  0  0  0  0  2  0  0  0  0  0  0
  -29.4980  -12.4920   18.2170 C   0  0  0  0  0  2  0  0  0  0  0  0
  -28.0170  -12.3670   18.6230 C   0  0  0  0  0  2  0  0  0  0  0  0
  -27.6600  -13.2170   19.8730 C   0  0  0  0  0  3  0  0  0  0  0  0
  -28.6930  -13.0250   21.0050 C   0  0  0  0  0  2  0  0  0  0  0  0
  -30.0310  -13.2640   20.4540 N   0  0  0  0  0  0  0  0  0  0  0  0
  -31.8620  -14.6560   20.0680 O   0  0  0  0  0  0  0  0  0  0  0  0
  -25.2570  -13.8190   20.5680 C   0  0  0  0  0  0  0  0  0  0  0  0
  -24.1830  -13.0450   20.9170 C   0  0  0  0  0  0  0  0  0  0  0  0
  -24.6400  -11.6920   20.8730 C   0  0  0  0  0  0  0  0  0  0  0  0
  -26.3010  -12.9380   20.3350 N   0  0  0  0  0  0  0  0  0  0  0  0
  -25.9330  -11.6530   20.5760 N   0  0  0  0  0  0  0  0  0  0  0  0
  -23.9070  -10.4300   21.0400 C   0  0  0  0  0  0  0  0  0  0  0  0
  -24.3620   -9.4210   21.9180 C   0  0  0  0  0  3  0  0  0  0  0  0
  -23.6300   -8.2250   22.0750 C   0  0  0  0  0  3  0  0  0  0  0  0
  -22.4280   -8.0280   21.3540 C   0  0  0  0  0  0  0  0  0  0  0  0
  -21.9910   -9.0260   20.4640 C   0  0  0  0  0  3  0  0  0  0  0  0
  -22.7240  -10.2140   20.3050 C   0  0  0  0  0  3  0  0  0  0  0  0
  -21.6640   -6.8880   21.4240 O   0  0  0  0  0  0  0  0  0  0  0  0
  -21.6860   -6.0740   22.5280 C   0  0  0  0  0  0  0  0  0  0  0  0
  -21.4020   -6.5640   23.8210 C   0  0  0  0  0  3  0  0  0  0  0  0
  -21.3660   -5.6790   24.9180 C   0  0  0  0  0  3  0  0  0  0  0  0
  -21.6040   -4.3050   24.7220 C   0  0  0  0  0  0  0  0  0  0  0  0
  -21.8820   -3.8150   23.4350 C   0  0  0  0  0  3  0  0  0  0  0  0
  -21.9200   -4.6960   22.3400 C   0  0  0  0  0  0  0  0  0  0  0  0
  -22.1660   -4.2150   21.0980 F   0  0  0  0  0  0  0  0  0  0  0  0
  -21.5620   -3.4540   25.7740 F   0  0  0  0  0  0  0  0  0  0  0  0
  -22.7850  -13.5240   21.1840 C   0  0  0  0  0  0  0  0  0  0  0  0
  -22.0500  -12.8220   22.0400 N   0  0  0  0  0  0  0  0  0  0  0  0
  -22.3530  -14.5550   20.6710 O   0  0  0  0  0  0  0  0  0  0  0  0
  -22.4130  -11.9890   22.4780 H   0  0  0  0  0  0  0  0  0  0  0  0
  -21.1110  -13.1230   22.2610 H   0  0  0  0  0  0  0  0  0  0  0  0
  -25.4300  -15.1900   20.4100 N   0  0  0  0  0  0  0  0  0  0  0  0
  -24.6710  -15.8520   20.5320 H   0  0  0  0  0  0  0  0  0  0  0  0
  -26.2970  -15.6270   20.1250 H   0  0  0  0  0  0  0  0  0  0  0  0
  -28.0730  -25.3370   20.7480 C   0  0  0  0  0  2  0  0  0  0  0  0
  -28.3480  -26.6230   20.1470 O   0  0  0  0  0  0  0  0  0  0  0  0
  -24.6160  -31.8680   23.2120 C   0  0  0  0  0  0  0  0  0  0  0  0
  -27.2250  -27.4270   20.0970 C   0  0  0  0  0  0  0  0  0  0  0  0
  -23.4040  -30.4950   21.5520 C   0  0  0  0  0  3  0  0  0  0  0  0
  -24.8510  -28.9690   20.1080 C   0  0  0  0  0  0  0  0  0  0  0  0
  -25.9360  -30.8330   21.3680 C   0  0  0  0  0  2  0  0  0  0  0  0
  -26.0130  -29.4700   20.7090 C   0  0  0  0  0  0  0  0  0  0  0  0
  -27.2070  -28.7080   20.7000 C   0  0  0  0  0  3  0  0  0  0  0  0
  -26.0510  -26.9610   19.4630 C   0  0  0  0  0  3  0  0  0  0  0  0
  -24.8660  -27.7140   19.4790 C   0  0  0  0  0  3  0  0  0  0  0  0
  -23.6130  -29.8350   20.1640 C   0  0  0  0  0  2  0  0  0  0  0  0
  -24.6700  -31.0790   22.1010 N   0  0  0  0  0  0  0  0  0  0  0  0
  -23.5340  -32.1430   23.7510 O   0  0  0  0  0  0  0  0  0  0  0  0
  -22.7420  -29.4660   22.4970 C   0  0  0  0  0  0  0  0  0  0  0  0
  -21.4140  -29.3040   22.3720 N   0  0  0  0  0  0  0  0  0  0  0  0
  -23.4190  -28.8200   23.3000 O   0  0  0  0  0  0  0  0  0  0  0  0
  -20.9290  -29.8780   21.6970 H   0  0  0  0  0  0  0  0  0  0  0  0
  -18.0280  -28.1380   22.8500 C   0  0  0  0  0  0  0  0  0  0  0  0
  -20.5870  -28.3670   23.1310 C   0  0  0  0  0  3  0  0  0  0  0  0
  -20.6760  -26.9400   22.5420 C   0  0  0  0  0  2  0  0  0  0  0  0
  -19.5750  -26.6390   21.5220 C   0  0  0  0  0  2  0  0  0  0  0  0
  -18.1920  -26.7930   22.1620 C   0  0  0  0  0  2  0  0  0  0  0  0
  -19.1530  -28.8840   23.2910 C   0  0  0  0  0  0  0  0  0  0  0  0
  -18.9460  -30.1450   23.8910 C   0  0  0  0  0  3  0  0  0  0  0  0
  -17.6460  -30.6580   24.0570 C   0  0  0  0  0  3  0  0  0  0  0  0
  -16.5350  -29.9090   23.6330 C   0  0  0  0  0  3  0  0  0  0  0  0
  -16.7270  -28.6510   23.0350 C   0  0  0  0  0  3  0  0  0  0  0  0
  -25.9040  -32.4830   23.8410 C   0  0  0  0  0  3  0  0  0  0  0  0
  -25.5900  -33.8630   24.2340 N   0  0  0  0  0  0  0  0  0  0  0  0
  -25.9040  -34.9480   23.5140 C   0  0  0  0  0  0  0  0  0  0  0  0
  -26.5590  -34.8920   22.4700 O   0  0  0  0  0  0  0  0  0  0  0  0
  -25.0090  -33.9810   25.0510 H   0  0  0  0  0  0  0  0  0  0  0  0
  -24.1490  -36.7310   23.2640 C   0  0  0  0  0  1  0  0  0  0  0  0
  -25.4110  -36.3110   24.0340 C   0  0  0  0  0  3  0  0  0  0  0  0
  -27.5580  -37.1810   24.8470 C   0  0  0  0  0  1  0  0  0  0  0  0
  -26.4290  -37.3800   23.9410 N   0  0  0  0  0  0  0  0  0  0  0  0
  -26.0180  -38.2880   24.1410 H   0  0  0  0  0  0  0  0  0  0  0  0
  -26.4470  -31.6600   25.0730 C   0  0  1  0  0  0  0  0  0  0  0  0
  -25.3740  -31.3710   26.1480 C   0  0  0  0  0  1  0  0  0  0  0  0
  -27.0300  -30.3050   24.6110 C   0  0  0  0  0  1  0  0  0  0  0  0
  -27.6050  -32.4310   25.7490 C   0  0  0  0  0  1  0  0  0  0  0  0
  1  4  2  0
  1  3  1  0
  2  5  1  0
  3 50  1  0
  3  2  2  0
  4  6  1  0
  5  9  1  0
  6  8  1  0
  6  5  2  0
  7  4  1  0
 10 11  1  0
 10  9  1  0
 12 13  1  0
 12 11  1  0
 14 13  1  0
 15 20  1  0
 16 17  1  0
 16 15  1  0
 18 17  1  0
 18 25  1  0
 18 19  1  0
 20 14  1  0
 20 19  1  0
 21 14  2  0
 22 23  2  0
 23 42  1  0
 24 23  1  0
 24 27  1  0
 25 22  1  0
 25 26  1  0
 26 24  2  0
 27 28  1  0
 28 29  2  0
 30 33  1  0
 30 29  1  0
 31 30  2  0
 32 31  1  0
 32 27  2  0
 33 34  1  0
 34 35  1  0
 35 36  2  0
 37 36  1  0
 37 41  1  0
 38 37  2  0
 39 34  2  0
 39 38  1  0
 40 39  1  0
 42 43  1  0
 43 46  1  0
 43 45  1  0
 44 42  2  0
 47 48  1  0
 47 22  1  0
 49 47  1  0
 51 50  1  0
 52 63  2  0
 53 51  1  0
 53 58  1  0
 54 62  1  0
 54 64  1  0
 55 61  1  0
 55 57  1  0
 56 62  1  0
 57 56  1  0
 58 57  2  0
 59 60  1  0
 59 53  2  0
 60 55  2  0
 61 54  1  0
 62 52  1  0
 64 66  2  0
 65 64  1  0
 67 65  1  0
 68 77  2  0
 68 73  1  0
 69 65  1  0
 69 73  1  0
 70 69  1  0
 71 72  1  0
 71 70  1  0
 72 68  1  0
 73 74  2  0
 74 75  1  0
 76 75  2  0
 77 76  1  0
 78 52  1  0
 78 79  1  0
 78 88  1  0
 79 82  1  0
 80 84  1  0
 80 79  1  0
 81 80  2  0
 84 83  1  0
 86 84  1  0
 86 87  1  0
 86 85  1  0
 88 91  1  1
 88 89  1  0
 90 88  1  0
M  ISO  4  13 100  14 100  50 101  51 101
M  END
>  <TORSDO>  (54) 
F 22

>  <SCORE>  (54) 
-12.525

>  <name>  (54) 
54

>  <ligand_id>  (54) 
54

>  <original_smiles>  (54) 
[H]c1c([H])c([H])c2c(c1[H])C([H])([H])C([H])([H])C([H])([H])C2([H])N([H])C(=O)C1([H])N(C(=O)C([H])(N([H])C(=O)C([H])(N([H])C([H])([H])[H])C([H])([H])[H])C(C([H])([H])[H])(C([H])([H])[H])C([H])([H])[H])C([H])([H])c2c([H])c(OC([H])([H])c3c([H])c(C([H])([H])[H])c(F)c(C([H])([H])C([H])([H])C([H])([H])C([H])([H])OC(=O)N4C([H])([H])C([H])([H])C([H])([H])C([H])(n5nc(-c6c([H])c([H])c(Oc7c([H])c([H])c(F)c([H])c7F)c([H])c6[H])c(C(=O)N([H])[H])c5N([H])[H])C4([H])[H])c3[H])c([H])c([H])c2C1([H])[H]

>  <smiles>  (54) 
[H]c1c([H])c([H])c2c(c1[H])C([H])([H])C([H])([H])C([H])([H])C2([H])N([H])C(=O)C1([H])N(C(=O)C([H])(N([H])C(=O)C([H])(N([H])C([H])([H])[H])C([H])([H])[H])C(C([H])([H])[H])(C([H])([H])[H])C([H])([H])[H])C([H])([H])c2c([H])c(OC([H])([H])c3c([H])c(C([H])([H])[H])c(F)c(C([H])([H])C([H])([H])C([H])([H])C([H])([H])OC(=O)N4C([H])([H])C([H])([H])C([H])([H])C([H])(n5nc(-c6c([H])c([H])c(Oc7c([H])c([H])c(F)c([H])c7F)c([H])c6[H])c(C(=O)N([H])[H])c5N([H])[H])C4([H])[H])c3[H])c([H])c([H])c2C1([H])[H]

$$$$
55:0:0
     RDKit          3D

 90 98  0  0  1  0  0  0  0  0999 V2000
  -29.1180  -21.3010   21.4970 C   0  0  0  0  0  3  0  0  0  0  0  0
  -28.6690  -22.4070   19.0170 C   0  0  0  0  0  3  0  0  0  0  0  0
  -28.8390  -22.7210   21.3570 C   0  0  0  0  0  0  0  0  0  0  0  0
  -28.9200  -20.9850   19.1540 C   0  0  0  0  0  0  0  0  0  0  0  0
  -29.1270  -20.3490   20.4200 C   0  0  0  0  0  0  0  0  0  0  0  0
  -28.5660  -23.3450   20.0970 C   0  0  0  0  0  0  0  0  0  0  0  0
  -28.7300  -23.5580   22.6180 C   0  0  0  0  0  1  0  0  0  0  0  0
  -28.8560  -20.1220   17.9060 C   0  0  0  0  0  1  0  0  0  0  0  0
  -29.0470  -18.7310   20.6720 C   0  0  0  0  0  3  0  0  0  0  0  0
  -30.1630  -17.5580   20.3500 C   0  0  0  0  0  3  0  0  0  0  0  0
  -30.5640  -14.8850   20.3070 C   0  0  0  0  0  0  0  0  0  0  0  0
  -30.3840  -12.5820   19.3040 C   0  0  0  0  0  2  0  0  0  0  0  0
  -29.4450  -12.6140   18.0760 C   0  0  0  0  0  2  0  0  0  0  0  0
  -27.9780  -12.4260   18.5080 C   0  0  0  0  0  2  0  0  0  0  0  0
  -27.5960  -13.3220   19.7170 C   0  0  0  0  0  3  0  0  0  0  0  0
  -28.6560  -13.2650   20.8390 C   0  0  0  0  0  2  0  0  0  0  0  0
  -29.9410  -13.6480   20.2420 N   0  0  0  0  0  0  0  0  0  0  0  0
  -31.7510  -14.9670   19.9770 O   0  0  0  0  0  0  0  0  0  0  0  0
  -29.8090  -16.0470   20.5270 N   0  0  0  0  0  0  0  0  0  0  0  0
  -28.8450  -15.8640   20.7660 H   0  0  0  0  0  0  0  0  0  0  0  0
  -25.2050  -13.9000   20.4360 C   0  0  0  0  0  0  0  0  0  0  0  0
  -24.1430  -13.1230   20.8090 C   0  0  0  0  0  0  0  0  0  0  0  0
  -24.6130  -11.7740   20.7890 C   0  0  0  0  0  0  0  0  0  0  0  0
  -26.2540  -13.0250   20.2080 N   0  0  0  0  0  0  0  0  0  0  0  0
  -25.9060  -11.7420   20.4840 N   0  0  0  0  0  0  0  0  0  0  0  0
  -23.8930  -10.5090   20.9840 C   0  0  0  0  0  0  0  0  0  0  0  0
  -24.3190   -9.5520   21.9320 C   0  0  0  0  0  3  0  0  0  0  0  0
  -23.5950   -8.3540   22.1140 C   0  0  0  0  0  3  0  0  0  0  0  0
  -22.4320   -8.1030   21.3480 C   0  0  0  0  0  0  0  0  0  0  0  0
  -22.0260   -9.0470   20.3900 C   0  0  0  0  0  3  0  0  0  0  0  0
  -22.7510  -10.2370   20.2050 C   0  0  0  0  0  3  0  0  0  0  0  0
  -21.6820   -6.9550   21.4400 O   0  0  0  0  0  0  0  0  0  0  0  0
  -21.6150   -6.2310   22.6030 C   0  0  0  0  0  0  0  0  0  0  0  0
  -21.1470   -6.7970   23.8090 C   0  0  0  0  0  3  0  0  0  0  0  0
  -21.0260   -5.9980   24.9630 C   0  0  0  0  0  3  0  0  0  0  0  0
  -21.3660   -4.6320   24.9130 C   0  0  0  0  0  0  0  0  0  0  0  0
  -21.8280   -4.0650   23.7120 C   0  0  0  0  0  3  0  0  0  0  0  0
  -21.9480   -4.8610   22.5600 C   0  0  0  0  0  0  0  0  0  0  0  0
  -22.3730   -4.3050   21.3990 F   0  0  0  0  0  0  0  0  0  0  0  0
  -21.2450   -3.8610   26.0190 F   0  0  0  0  0  0  0  0  0  0  0  0
  -22.7420  -13.5950   21.0710 C   0  0  0  0  0  0  0  0  0  0  0  0
  -22.0140  -12.9000   21.9370 N   0  0  0  0  0  0  0  0  0  0  0  0
  -22.3020  -14.6150   20.5420 O   0  0  0  0  0  0  0  0  0  0  0  0
  -22.3820  -12.0730   22.3830 H   0  0  0  0  0  0  0  0  0  0  0  0
  -21.0740  -13.1980   22.1570 H   0  0  0  0  0  0  0  0  0  0  0  0
  -25.3620  -15.2710   20.2470 N   0  0  0  0  0  0  0  0  0  0  0  0
  -24.5900  -15.9200   20.3490 H   0  0  0  0  0  0  0  0  0  0  0  0
  -26.1970  -15.7060   19.8770 H   0  0  0  0  0  0  0  0  0  0  0  0
  -27.8120  -24.7790   19.8640 C   0  0  0  0  0  2  0  0  0  0  0  0
  -28.2130  -26.2260   20.1920 O   0  0  0  0  0  0  0  0  0  0  0  0
  -24.6360  -31.8840   23.2300 C   0  0  0  0  0  0  0  0  0  0  0  0
  -27.1770  -27.2250   20.1240 C   0  0  0  0  0  0  0  0  0  0  0  0
  -23.4190  -30.5060   21.5910 C   0  0  0  0  0  3  0  0  0  0  0  0
  -24.8510  -28.9600   20.1350 C   0  0  0  0  0  0  0  0  0  0  0  0
  -25.9710  -30.7760   21.4080 C   0  0  0  0  0  2  0  0  0  0  0  0
  -26.0360  -29.3960   20.7410 C   0  0  0  0  0  0  0  0  0  0  0  0
  -27.2000  -28.5420   20.7260 C   0  0  0  0  0  3  0  0  0  0  0  0
  -25.9650  -26.9030   19.4650 C   0  0  0  0  0  3  0  0  0  0  0  0
  -24.8260  -27.7260   19.4830 C   0  0  0  0  0  3  0  0  0  0  0  0
  -23.6250  -29.8510   20.2030 C   0  0  0  0  0  2  0  0  0  0  0  0
  -24.6950  -31.0750   22.1300 N   0  0  0  0  0  0  0  0  0  0  0  0
  -23.5550  -32.1650   23.7710 O   0  0  0  0  0  0  0  0  0  0  0  0
  -22.7510  -29.4850   22.5470 C   0  0  0  0  0  0  0  0  0  0  0  0
  -21.4220  -29.3110   22.4270 N   0  0  0  0  0  0  0  0  0  0  0  0
  -23.4290  -28.8540   23.3620 O   0  0  0  0  0  0  0  0  0  0  0  0
  -20.9310  -29.8700   21.7440 H   0  0  0  0  0  0  0  0  0  0  0  0
  -18.0460  -28.1080   22.9420 C   0  0  0  0  0  0  0  0  0  0  0  0
  -20.6060  -28.3710   23.1990 C   0  0  0  0  0  3  0  0  0  0  0  0
  -20.7060  -26.9410   22.6200 C   0  0  0  0  0  2  0  0  0  0  0  0
  -19.6010  -26.6210   21.6100 C   0  0  0  0  0  2  0  0  0  0  0  0
  -18.2210  -26.7620   22.2590 C   0  0  0  0  0  2  0  0  0  0  0  0
  -19.1660  -28.8710   23.3690 C   0  0  0  0  0  0  0  0  0  0  0  0
  -18.9480  -30.1290   23.9700 C   0  0  0  0  0  3  0  0  0  0  0  0
  -17.6430  -30.6270   24.1470 C   0  0  0  0  0  3  0  0  0  0  0  0
  -16.5380  -29.8620   23.7350 C   0  0  0  0  0  3  0  0  0  0  0  0
  -16.7400  -28.6040   23.1390 C   0  0  0  0  0  3  0  0  0  0  0  0
  -25.9230  -32.5120   23.8470 C   0  0  0  0  0  3  0  0  0  0  0  0
  -26.4460  -31.7310   25.1160 C   0  0  1  0  0  0  0  0  0  0  0  0
  -25.3580  -31.4900   26.1880 C   0  0  0  0  0  1  0  0  0  0  0  0
  -27.0240  -30.3530   24.7170 C   0  0  0  0  0  1  0  0  0  0  0  0
  -27.6010  -32.5190   25.7760 C   0  0  0  0  0  1  0  0  0  0  0  0
  -25.6170  -33.9080   24.1930 N   0  0  0  0  0  0  0  0  0  0  0  0
  -25.9250  -34.9680   23.4350 C   0  0  0  0  0  0  0  0  0  0  0  0
  -26.5660  -34.8750   22.3850 O   0  0  0  0  0  0  0  0  0  0  0  0
  -25.0470  -34.0560   25.0120 H   0  0  0  0  0  0  0  0  0  0  0  0
  -24.1770  -36.7560   23.1500 C   0  0  0  0  0  1  0  0  0  0  0  0
  -25.4470  -36.3520   23.9160 C   0  0  0  0  0  3  0  0  0  0  0  0
  -27.6000  -37.2450   24.6860 C   0  0  0  0  0  1  0  0  0  0  0  0
  -26.4690  -37.4110   23.7760 N   0  0  0  0  0  0  0  0  0  0  0  0
  -26.0630  -38.3280   23.9390 H   0  0  0  0  0  0  0  0  0  0  0  0
  2  4  2  0
  2  6  1  0
  3  1  1  0
  3  7  1  0
  4  5  1  0
  5  9  1  0
  5  1  2  0
  6  3  2  0
  8  4  1  0
 10 19  1  0
 10  9  2  0
 11 19  1  0
 12 17  1  0
 13 14  1  0
 13 12  1  0
 15 14  1  0
 15 24  1  0
 15 16  1  0
 17 11  1  0
 17 16  1  0
 18 11  2  0
 19 20  1  0
 21 22  2  0
 22 41  1  0
 23 22  1  0
 23 26  1  0
 24 21  1  0
 24 25  1  0
 25 23  2  0
 26 27  1  0
 27 28  2  0
 29 32  1  0
 29 28  1  0
 30 29  2  0
 31 30  1  0
 31 26  2  0
 32 33  1  0
 33 34  1  0
 34 35  2  0
 36 35  1  0
 36 40  1  0
 37 36  2  0
 38 33  2  0
 38 37  1  0
 39 38  1  0
 41 42  1  0
 42 45  1  0
 42 44  1  0
 43 41  2  0
 46 47  1  0
 46 21  1  0
 48 46  1  0
 49  6  1  0
 49 50  1  0
 51 62  2  0
 52 50  1  0
 52 57  1  0
 53 61  1  0
 53 63  1  0
 54 60  1  0
 54 56  1  0
 55 61  1  0
 56 55  1  0
 57 56  2  0
 58 59  1  0
 58 52  2  0
 59 54  2  0
 60 53  1  0
 61 51  1  0
 63 65  2  0
 64 63  1  0
 66 64  1  0
 67 76  2  0
 67 72  1  0
 68 64  1  0
 68 72  1  0
 69 68  1  0
 70 71  1  0
 70 69  1  0
 71 67  1  0
 72 73  2  0
 73 74  1  0
 75 74  2  0
 76 75  1  0
 77 51  1  0
 77 82  1  0
 77 78  1  0
 78 81  1  1
 78 79  1  0
 80 78  1  0
 82 85  1  0
 83 87  1  0
 83 82  1  0
 84 83  2  0
 87 86  1  0
 89 87  1  0
 89 90  1  0
 89 88  1  0
M  ISO  4  11 100  19 100  49 101  50 101
M  END
>  <TORSDO>  (55) 
F 19

>  <SCORE>  (55) 
-14.038

>  <name>  (55) 
55

>  <ligand_id>  (55) 
55

>  <original_smiles>  (55) 
[H]c1c([H])c([H])c2c(c1[H])C([H])([H])C([H])([H])C([H])([H])C2([H])N([H])C(=O)C1([H])N(C(=O)C([H])(N([H])C(=O)C([H])(N([H])C([H])([H])[H])C([H])([H])[H])C(C([H])([H])[H])(C([H])([H])[H])C([H])([H])[H])C([H])([H])c2c([H])c(OC([H])([H])c3c([H])c(C([H])([H])[H])c(C([H])([H])C([H])([H])N([H])C(=O)N4C([H])([H])C([H])([H])C([H])([H])C([H])(n5nc(-c6c([H])c([H])c(Oc7c([H])c([H])c(F)c([H])c7F)c([H])c6[H])c(C(=O)N([H])[H])c5N([H])[H])C4([H])[H])c([H])c3C([H])([H])[H])c([H])c([H])c2C1([H])[H]

>  <smiles>  (55) 
[H]c1c([H])c([H])c2c(c1[H])C([H])([H])C([H])([H])C([H])([H])C2([H])N([H])C(=O)C1([H])N(C(=O)C([H])(N([H])C(=O)C([H])(N([H])C([H])([H])[H])C([H])([H])[H])C(C([H])([H])[H])(C([H])([H])[H])C([H])([H])[H])C([H])([H])c2c([H])c(OC([H])([H])c3c([H])c(C([H])([H])[H])c(C([H])([H])C([H])([H])N([H])C(=O)N4C([H])([H])C([H])([H])C([H])([H])C([H])(n5nc(-c6c([H])c([H])c(Oc7c([H])c([H])c(F)c([H])c7F)c([H])c6[H])c(C(=O)N([H])[H])c5N([H])[H])C4([H])[H])c([H])c3C([H])([H])[H])c([H])c([H])c2C1([H])[H]

$$$$
56:0:0
     RDKit          3D

 92100  0  0  1  0  0  0  0  0999 V2000
  -29.4290  -20.3080   21.2190 C   0  0  0  0  0  3  0  0  0  0  0  0
  -29.5800  -21.6240   21.6860 C   0  0  0  0  0  0  0  0  0  0  0  0
  -29.1960  -20.0210   19.8630 C   0  0  0  0  0  0  0  0  0  0  0  0
  -29.4970  -22.7300   20.7990 C   0  0  0  0  0  0  0  0  0  0  0  0
  -29.1520  -22.5460   19.4230 C   0  0  0  0  0  0  0  0  0  0  0  0
  -29.0130  -21.1620   18.9770 C   0  0  0  0  0  0  0  0  0  0  0  0
  -29.8720  -21.8010   23.1730 C   0  0  0  0  0  1  0  0  0  0  0  0
  -29.8470  -24.1050   21.3670 C   0  0  0  0  0  1  0  0  0  0  0  0
  -28.6160  -20.8560   17.3210 Cl  0  0  0  0  0  0  0  0  0  0  0  0
  -29.0640  -18.4820   19.4860 C   0  0  0  0  0  3  0  0  0  0  0  0
  -29.9090  -17.3740   20.3030 C   0  0  0  0  0  3  0  0  0  0  0  0
  -30.3940  -14.8030   20.0180 C   0  0  0  0  0  0  0  0  0  0  0  0
  -30.2650  -12.4510   19.2070 C   0  0  0  0  0  2  0  0  0  0  0  0
  -29.2800  -12.3590   18.0210 C   0  0  0  0  0  2  0  0  0  0  0  0
  -27.8360  -12.1670   18.5200 C   0  0  0  0  0  2  0  0  0  0  0  0
  -27.4520  -13.1460   19.6630 C   0  0  0  0  0  3  0  0  0  0  0  0
  -28.5520  -13.2160   20.7450 C   0  0  0  0  0  2  0  0  0  0  0  0
  -29.8120  -13.5600   20.0710 N   0  0  0  0  0  0  0  0  0  0  0  0
  -31.5670  -14.9370   19.6660 O   0  0  0  0  0  0  0  0  0  0  0  0
  -29.5740  -15.8970   20.1680 N   0  0  0  0  0  0  0  0  0  0  0  0
  -28.6080  -15.6680   20.3410 H   0  0  0  0  0  0  0  0  0  0  0  0
  -25.1000  -13.6950   20.5330 C   0  0  0  0  0  0  0  0  0  0  0  0
  -24.0600  -12.9050   20.9390 C   0  0  0  0  0  0  0  0  0  0  0  0
  -24.5310  -11.5580   20.8510 C   0  0  0  0  0  0  0  0  0  0  0  0
  -26.1380  -12.8320   20.2210 N   0  0  0  0  0  0  0  0  0  0  0  0
  -25.8060  -11.5390   20.4760 N   0  0  0  0  0  0  0  0  0  0  0  0
  -23.8250  -10.2830   21.0420 C   0  0  0  0  0  0  0  0  0  0  0  0
  -24.2910   -9.3100   21.9540 C   0  0  0  0  0  3  0  0  0  0  0  0
  -23.5820   -8.1020   22.1340 C   0  0  0  0  0  3  0  0  0  0  0  0
  -22.3940   -7.8610   21.4020 C   0  0  0  0  0  0  0  0  0  0  0  0
  -21.9480   -8.8240   20.4830 C   0  0  0  0  0  3  0  0  0  0  0  0
  -22.6570  -10.0220   20.2990 C   0  0  0  0  0  3  0  0  0  0  0  0
  -21.6510   -6.7060   21.4980 O   0  0  0  0  0  0  0  0  0  0  0  0
  -21.6270   -5.9590   22.6480 C   0  0  0  0  0  0  0  0  0  0  0  0
  -21.1670   -6.4910   23.8740 C   0  0  0  0  0  3  0  0  0  0  0  0
  -21.0940   -5.6670   25.0150 C   0  0  0  0  0  3  0  0  0  0  0  0
  -21.4680   -4.3120   24.9340 C   0  0  0  0  0  0  0  0  0  0  0  0
  -21.9190   -3.7810   23.7140 C   0  0  0  0  0  3  0  0  0  0  0  0
  -21.9950   -4.6010   22.5760 C   0  0  0  0  0  0  0  0  0  0  0  0
  -22.4120   -4.0760   21.3980 F   0  0  0  0  0  0  0  0  0  0  0  0
  -21.3880   -3.5220   26.0290 F   0  0  0  0  0  0  0  0  0  0  0  0
  -22.6720  -13.3620   21.2870 C   0  0  0  0  0  0  0  0  0  0  0  0
  -21.9870  -12.6480   22.1720 N   0  0  0  0  0  0  0  0  0  0  0  0
  -22.2030  -14.3960   20.8100 O   0  0  0  0  0  0  0  0  0  0  0  0
  -22.3760  -11.8160   22.5900 H   0  0  0  0  0  0  0  0  0  0  0  0
  -21.0570  -12.9400   22.4380 H   0  0  0  0  0  0  0  0  0  0  0  0
  -25.2360  -15.0730   20.3790 N   0  0  0  0  0  0  0  0  0  0  0  0
  -24.4590  -15.7050   20.5370 H   0  0  0  0  0  0  0  0  0  0  0  0
  -26.0390  -15.5340   19.9690 H   0  0  0  0  0  0  0  0  0  0  0  0
  -29.0820  -23.8220   18.4560 C   0  0  0  0  0  2  0  0  0  0  0  0
  -27.8690  -24.8900   18.5320 C   0  0  0  0  0  2  0  0  0  0  0  0
  -28.1240  -26.3720   18.5390 O   0  0  0  0  0  0  0  0  0  0  0  0
  -24.9120  -31.0530   23.0490 C   0  0  0  0  0  0  0  0  0  0  0  0
  -27.0490  -27.2590   18.7870 C   0  0  0  0  0  0  0  0  0  0  0  0
  -23.5170  -30.1340   21.2320 C   0  0  0  0  0  3  0  0  0  0  0  0
  -24.7740  -28.9260   19.3550 C   0  0  0  0  0  0  0  0  0  0  0  0
  -26.0480  -30.4010   20.9090 C   0  0  0  0  0  2  0  0  0  0  0  0
  -26.0090  -29.2130   19.9500 C   0  0  0  0  0  0  0  0  0  0  0  0
  -27.1470  -28.3980   19.6550 C   0  0  0  0  0  3  0  0  0  0  0  0
  -25.7860  -27.0340   18.1900 C   0  0  0  0  0  3  0  0  0  0  0  0
  -24.6680  -27.8500   18.4610 C   0  0  0  0  0  3  0  0  0  0  0  0
  -23.5910  -29.8090   19.7150 C   0  0  0  0  0  2  0  0  0  0  0  0
  -24.8500  -30.5330   21.7880 N   0  0  0  0  0  0  0  0  0  0  0  0
  -23.8900  -31.2270   23.7270 O   0  0  0  0  0  0  0  0  0  0  0  0
  -22.8770  -28.9370   21.9770 C   0  0  0  0  0  0  0  0  0  0  0  0
  -21.5450  -28.7950   21.8670 N   0  0  0  0  0  0  0  0  0  0  0  0
  -23.5780  -28.1490   22.6160 O   0  0  0  0  0  0  0  0  0  0  0  0
  -21.0360  -29.4940   21.3420 H   0  0  0  0  0  0  0  0  0  0  0  0
  -18.1900  -27.4680   22.1410 C   0  0  0  0  0  0  0  0  0  0  0  0
  -20.7450  -27.7140   22.4480 C   0  0  0  0  0  3  0  0  0  0  0  0
  -20.8660  -26.4180   21.6120 C   0  0  0  0  0  2  0  0  0  0  0  0
  -19.7610  -26.2730   20.5600 C   0  0  0  0  0  2  0  0  0  0  0  0
  -18.3820  -26.2730   21.2240 C   0  0  0  0  0  2  0  0  0  0  0  0
  -19.2980  -28.1530   22.7030 C   0  0  0  0  0  0  0  0  0  0  0  0
  -19.0620  -29.2780   23.5250 C   0  0  0  0  0  3  0  0  0  0  0  0
  -17.7510  -29.7120   23.7900 C   0  0  0  0  0  3  0  0  0  0  0  0
  -16.6560  -29.0210   23.2420 C   0  0  0  0  0  3  0  0  0  0  0  0
  -16.8770  -27.9030   22.4200 C   0  0  0  0  0  3  0  0  0  0  0  0
  -26.2680  -31.4770   23.6930 C   0  0  0  0  0  3  0  0  0  0  0  0
  -26.8110  -30.4340   24.7470 C   0  0  1  0  0  0  0  0  0  0  0  0
  -25.7780  -30.0450   25.8290 C   0  0  0  0  0  1  0  0  0  0  0  0
  -27.2700  -29.1360   24.0440 C   0  0  0  0  0  1  0  0  0  0  0  0
  -28.0520  -31.0140   25.4660 C   0  0  0  0  0  1  0  0  0  0  0  0
  -26.0690  -32.7910   24.3240 N   0  0  0  0  0  0  0  0  0  0  0  0
  -26.4150  -33.9630   23.7740 C   0  0  0  0  0  0  0  0  0  0  0  0
  -27.0050  -34.0460   22.6930 O   0  0  0  0  0  0  0  0  0  0  0  0
  -25.5440  -32.8030   25.1860 H   0  0  0  0  0  0  0  0  0  0  0  0
  -24.7860  -35.8760   23.9370 C   0  0  0  0  0  1  0  0  0  0  0  0
  -26.0500  -35.2480   24.5430 C   0  0  0  0  0  3  0  0  0  0  0  0
  -28.2860  -35.8420   25.3700 C   0  0  0  0  0  1  0  0  0  0  0  0
  -27.1380  -36.2500   24.5650 N   0  0  0  0  0  0  0  0  0  0  0  0
  -26.7990  -37.1390   24.9240 H   0  0  0  0  0  0  0  0  0  0  0  0
  1  2  1  0
  2  7  1  0
  3  1  2  0
  4  8  1  0
  4  2  2  0
  5  4  1  0
  6  5  2  0
  6  3  1  0
  9  6  1  0
 10  3  1  0
 10 11  2  0
 12 18  1  0
 12 20  1  0
 13 18  1  0
 14 15  1  0
 14 13  1  0
 16 15  1  0
 16 25  1  0
 16 17  1  0
 18 17  1  0
 19 12  2  0
 20 11  1  0
 20 21  1  0
 22 23  2  0
 23 42  1  0
 24 23  1  0
 24 27  1  0
 25 26  1  0
 25 22  1  0
 26 24  2  0
 27 28  1  0
 28 29  2  0
 30 33  1  0
 30 29  1  0
 31 30  2  0
 32 31  1  0
 32 27  2  0
 33 34  1  0
 34 35  1  0
 35 36  2  0
 37 36  1  0
 37 41  1  0
 38 37  2  0
 39 34  2  0
 39 38  1  0
 40 39  1  0
 42 43  1  0
 43 46  1  0
 43 45  1  0
 44 42  2  0
 47 22  1  0
 47 48  1  0
 49 47  1  0
 50 51  1  0
 50  5  1  0
 51 52  1  0
 52 54  1  0
 53 64  2  0
 54 59  1  0
 55 63  1  0
 55 65  1  0
 56 62  1  0
 56 58  1  0
 57 63  1  0
 58 57  1  0
 59 58  2  0
 60 61  1  0
 60 54  2  0
 61 56  2  0
 62 55  1  0
 63 53  1  0
 65 67  2  0
 66 65  1  0
 68 66  1  0
 69 78  2  0
 69 74  1  0
 70 66  1  0
 70 74  1  0
 71 70  1  0
 72 73  1  0
 72 71  1  0
 73 69  1  0
 74 75  2  0
 75 76  1  0
 77 76  2  0
 78 77  1  0
 79 53  1  0
 79 84  1  0
 79 80  1  0
 80 83  1  1
 80 81  1  0
 82 80  1  0
 84 87  1  0
 85 84  1  0
 85 89  1  0
 86 85  2  0
 89 88  1  0
 89 91  1  0
 91 92  1  0
 91 90  1  0
M  ISO  4  12 100  20 100  51 101  52 101
M  END
>  <TORSDO>  (56) 
F 20

>  <SCORE>  (56) 
-11.907

>  <name>  (56) 
56

>  <ligand_id>  (56) 
56

>  <original_smiles>  (56) 
[H]c1c([H])c([H])c2c(c1[H])C([H])([H])C([H])([H])C([H])([H])C2([H])N([H])C(=O)C1([H])N(C(=O)C([H])(N([H])C(=O)C([H])(N([H])C([H])([H])[H])C([H])([H])[H])C(C([H])([H])[H])(C([H])([H])[H])C([H])([H])[H])C([H])([H])c2c([H])c(OC([H])([H])C([H])([H])c3c(Cl)c(C([H])([H])C([H])([H])N([H])C(=O)N4C([H])([H])C([H])([H])C([H])([H])C([H])(n5nc(-c6c([H])c([H])c(Oc7c([H])c([H])c(F)c([H])c7F)c([H])c6[H])c(C(=O)N([H])[H])c5N([H])[H])C4([H])[H])c([H])c(C([H])([H])[H])c3C([H])([H])[H])c([H])c([H])c2C1([H])[H]

>  <smiles>  (56) 
[H]c1c([H])c([H])c2c(c1[H])C([H])([H])C([H])([H])C([H])([H])C2([H])N([H])C(=O)C1([H])N(C(=O)C([H])(N([H])C(=O)C([H])(N([H])C([H])([H])[H])C([H])([H])[H])C(C([H])([H])[H])(C([H])([H])[H])C([H])([H])[H])C([H])([H])c2c([H])c(OC([H])([H])C([H])([H])c3c(Cl)c(C([H])([H])C([H])([H])N([H])C(=O)N4C([H])([H])C([H])([H])C([H])([H])C([H])(n5nc(-c6c([H])c([H])c(Oc7c([H])c([H])c(F)c([H])c7F)c([H])c6[H])c(C(=O)N([H])[H])c5N([H])[H])C4([H])[H])c([H])c(C([H])([H])[H])c3C([H])([H])[H])c([H])c([H])c2C1([H])[H]

$$$$
57:0:0
     RDKit          3D

 93101  0  0  1  0  0  0  0  0999 V2000
  -29.8990  -25.5660   17.3440 C   0  0  0  0  0  3  0  0  0  0  0  0
  -28.7740  -26.1920   16.7670 C   0  0  0  0  0  3  0  0  0  0  0  0
  -31.3280  -27.2480   16.3260 C   0  0  0  0  0  3  0  0  0  0  0  0
  -31.1960  -26.0530   17.0850 C   0  0  0  0  0  0  0  0  0  0  0  0
  -28.9240  -27.2990   15.8980 C   0  0  0  0  0  0  0  0  0  0  0  0
  -30.2100  -27.8730   15.7010 C   0  0  0  0  0  0  0  0  0  0  0  0
  -26.6760  -28.5560   15.9720 C   0  0  0  0  0  1  0  0  0  0  0  0
  -27.6990  -27.7780   15.1230 C   0  0  0  0  0  2  0  0  0  0  0  0
  -32.4000  -25.1450   17.4090 C   0  0  0  0  0  2  0  0  0  0  0  0
  -32.3480  -24.2000   18.6470 C   0  0  0  0  0  2  0  0  0  0  0  0
  -32.3930  -22.6720   18.3220 C   0  0  0  0  0  2  0  0  0  0  0  0
  -33.6990  -22.1460   18.0560 O   0  0  0  0  0  0  0  0  0  0  0  0
  -33.6560  -19.0920   11.6480 C   0  0  0  0  0  0  0  0  0  0  0  0
  -34.2410  -22.1860   16.7870 C   0  0  0  0  0  0  0  0  0  0  0  0
  -35.5090  -20.6870   12.0530 C   0  0  0  0  0  3  0  0  0  0  0  0
  -35.2940  -22.1280   14.1570 C   0  0  0  0  0  0  0  0  0  0  0  0
  -33.2730  -20.9560   13.2610 C   0  0  0  0  0  2  0  0  0  0  0  0
  -34.0370  -21.5680   14.4190 C   0  0  0  0  0  0  0  0  0  0  0  0
  -33.5180  -21.5840   15.7310 C   0  0  0  0  0  3  0  0  0  0  0  0
  -35.5030  -22.7550   16.5080 C   0  0  0  0  0  3  0  0  0  0  0  0
  -36.0330  -22.7160   15.2010 C   0  0  0  0  0  3  0  0  0  0  0  0
  -35.7870  -22.0600   12.7290 C   0  0  0  0  0  2  0  0  0  0  0  0
  -34.1210  -20.1850   12.3210 N   0  0  0  0  0  0  0  0  0  0  0  0
  -34.3450  -18.5290   10.7880 O   0  0  0  0  0  0  0  0  0  0  0  0
  -36.6140  -19.6940   12.4810 C   0  0  0  0  0  0  0  0  0  0  0  0
  -37.1440  -18.9340   11.5100 N   0  0  0  0  0  0  0  0  0  0  0  0
  -36.9950  -19.6340   13.6540 O   0  0  0  0  0  0  0  0  0  0  0  0
  -36.7730  -19.0380   10.5770 H   0  0  0  0  0  0  0  0  0  0  0  0
  -38.2320  -15.6190   10.5820 C   0  0  0  0  0  0  0  0  0  0  0  0
  -38.2180  -17.9590   11.6790 C   0  0  0  0  0  3  0  0  0  0  0  0
  -39.4140  -18.2900   10.7560 C   0  0  0  0  0  2  0  0  0  0  0  0
  -39.3540  -17.5610    9.4100 C   0  0  0  0  0  2  0  0  0  0  0  0
  -39.3250  -16.0450    9.6170 C   0  0  0  0  0  2  0  0  0  0  0  0
  -37.7030  -16.5210   11.5420 C   0  0  0  0  0  0  0  0  0  0  0  0
  -36.6650  -16.0840   12.3930 C   0  0  0  0  0  3  0  0  0  0  0  0
  -36.1540  -14.7760   12.2910 C   0  0  0  0  0  3  0  0  0  0  0  0
  -36.6910  -13.8820   11.3500 C   0  0  0  0  0  3  0  0  0  0  0  0
  -37.7320  -14.3020   10.5050 C   0  0  0  0  0  3  0  0  0  0  0  0
  -32.2300  -18.5100   11.9100 C   0  0  0  0  0  3  0  0  0  0  0  0
  -31.6150  -18.2320   10.6050 N   0  0  0  0  0  0  0  0  0  0  0  0
  -30.8940  -19.1150    9.9050 C   0  0  0  0  0  0  0  0  0  0  0  0
  -30.6160  -20.2420   10.3280 O   0  0  0  0  0  0  0  0  0  0  0  0
  -31.8470  -17.3510   10.1720 H   0  0  0  0  0  0  0  0  0  0  0  0
  -31.2700  -19.3510    7.4320 C   0  0  0  0  0  1  0  0  0  0  0  0
  -30.4040  -18.6820    8.5110 C   0  0  0  0  0  3  0  0  0  0  0  0
  -28.0680  -18.1010    8.9880 C   0  0  0  0  0  1  0  0  0  0  0  0
  -28.9770  -18.9880    8.2680 N   0  0  0  0  0  0  0  0  0  0  0  0
  -28.7560  -18.9230    7.2780 H   0  0  0  0  0  0  0  0  0  0  0  0
  -32.2440  -17.2130   12.8070 C   0  0  1  0  0  0  0  0  0  0  0  0
  -32.4110  -15.9040   12.0030 C   0  0  0  0  0  1  0  0  0  0  0  0
  -33.3900  -17.2830   13.8420 C   0  0  0  0  0  1  0  0  0  0  0  0
  -30.9320  -17.1230   13.6210 C   0  0  0  0  0  1  0  0  0  0  0  0
  -30.4470  -29.0220   14.6880 C   0  0  0  0  0  2  0  0  0  0  0  0
  -30.1450  -30.4780   15.1460 C   0  0  0  0  0  2  0  0  0  0  0  0
  -31.0210  -31.6000   14.5230 C   0  0  0  0  0  2  0  0  0  0  0  0
  -33.4200  -31.2580   15.2820 C   0  0  0  0  0  0  0  0  0  0  0  0
  -35.8900  -31.2960   15.5820 C   0  0  0  0  0  2  0  0  0  0  0  0
  -36.4800  -32.5740   14.9540 C   0  0  0  0  0  2  0  0  0  0  0  0
  -36.7490  -32.3790   13.4520 C   0  0  0  0  0  2  0  0  0  0  0  0
  -35.5620  -31.7120   12.7030 C   0  0  0  0  0  3  0  0  0  0  0  0
  -35.0070  -30.4910   13.4700 C   0  0  0  0  0  2  0  0  0  0  0  0
  -34.6690  -30.9370   14.8350 N   0  0  0  0  0  0  0  0  0  0  0  0
  -33.2060  -31.6800   16.4240 O   0  0  0  0  0  0  0  0  0  0  0  0
  -32.4310  -31.1770   14.3730 N   0  0  0  0  0  0  0  0  0  0  0  0
  -32.7100  -30.8160   13.4740 H   0  0  0  0  0  0  0  0  0  0  0  0
  -35.1660  -31.5110   10.1690 C   0  0  0  0  0  0  0  0  0  0  0  0
  -35.9760  -31.1330    9.1400 C   0  0  0  0  0  0  0  0  0  0  0  0
  -37.2280  -30.7720    9.7320 C   0  0  0  0  0  0  0  0  0  0  0  0
  -35.9200  -31.3790   11.3250 N   0  0  0  0  0  0  0  0  0  0  0  0
  -37.1560  -30.8830   11.0560 N   0  0  0  0  0  0  0  0  0  0  0  0
  -38.5000  -30.3870    9.1170 C   0  0  0  0  0  0  0  0  0  0  0  0
  -38.8780  -29.0320    8.9960 C   0  0  0  0  0  3  0  0  0  0  0  0
  -40.1050  -28.6810    8.3930 C   0  0  0  0  0  3  0  0  0  0  0  0
  -40.9660  -29.6890    7.8960 C   0  0  0  0  0  0  0  0  0  0  0  0
  -40.5890  -31.0370    8.0310 C   0  0  0  0  0  3  0  0  0  0  0  0
  -39.3700  -31.3870    8.6360 C   0  0  0  0  0  3  0  0  0  0  0  0
  -42.1890  -29.4490    7.3200 O   0  0  0  0  0  0  0  0  0  0  0  0
  -42.3560  -28.4660    6.3770 C   0  0  0  0  0  0  0  0  0  0  0  0
  -41.8790  -28.6100    5.0560 C   0  0  0  0  0  3  0  0  0  0  0  0
  -42.1250  -27.5990    4.1050 C   0  0  0  0  0  3  0  0  0  0  0  0
  -42.8640  -26.4560    4.4630 C   0  0  0  0  0  0  0  0  0  0  0  0
  -43.3470  -26.3150    5.7770 C   0  0  0  0  0  3  0  0  0  0  0  0
  -43.0950  -27.3190    6.7310 C   0  0  0  0  0  0  0  0  0  0  0  0
  -43.5810  -27.1880    7.9870 F   0  0  0  0  0  0  0  0  0  0  0  0
  -43.1070  -25.4880    3.5490 F   0  0  0  0  0  0  0  0  0  0  0  0
  -35.6510  -31.1780    7.6730 C   0  0  0  0  0  0  0  0  0  0  0  0
  -35.3650  -30.0330    7.0670 N   0  0  0  0  0  0  0  0  0  0  0  0
  -35.5960  -32.2470    7.0650 O   0  0  0  0  0  0  0  0  0  0  0  0
  -35.3740  -29.1570    7.5670 H   0  0  0  0  0  0  0  0  0  0  0  0
  -35.1270  -30.0320    6.0840 H   0  0  0  0  0  0  0  0  0  0  0  0
  -33.8540  -31.9780   10.2280 N   0  0  0  0  0  0  0  0  0  0  0  0
  -33.2870  -32.0780    9.3980 H   0  0  0  0  0  0  0  0  0  0  0  0
  -33.3780  -32.2540   11.0760 H   0  0  0  0  0  0  0  0  0  0  0  0
  2  1  2  0
  3  4  2  0
  4  1  1  0
  4  9  1  0
  5  2  1  0
  6  5  2  0
  6  3  1  0
  8  5  1  0
  8  7  1  0
  9 10  1  0
 11 10  1  0
 12 11  1  0
 13 23  1  0
 14 12  1  0
 15 23  1  0
 15 25  1  0
 15 22  1  0
 16 18  2  0
 16 21  1  0
 17 18  1  0
 18 19  1  0
 19 14  2  0
 20 14  1  0
 21 20  2  0
 22 16  1  0
 23 17  1  0
 24 13  2  0
 25 27  2  0
 26 25  1  0
 28 26  1  0
 29 34  1  0
 30 26  1  0
 31 30  1  0
 32 33  1  0
 32 31  1  0
 33 29  1  0
 34 30  1  0
 34 35  2  0
 36 35  1  0
 37 36  2  0
 38 29  2  0
 38 37  1  0
 39 13  1  0
 39 49  1  0
 40 39  1  0
 41 42  2  0
 41 40  1  0
 43 40  1  0
 45 44  1  0
 45 41  1  0
 47 45  1  0
 47 46  1  0
 48 47  1  0
 49 52  1  1
 49 51  1  0
 50 49  1  0
 53 54  1  0
 53  6  1  0
 55 54  1  0
 56 63  2  0
 58 57  1  0
 59 58  1  0
 60 69  1  0
 60 59  1  0
 60 61  1  0
 61 62  1  0
 62 56  1  0
 62 57  1  0
 64 55  1  0
 64 56  1  0
 65 64  1  0
 66 91  1  0
 66 69  1  0
 67 68  1  0
 67 66  2  0
 68 70  2  0
 70 69  1  0
 71 68  1  0
 72 71  1  0
 73 72  2  0
 74 75  2  0
 74 73  1  0
 75 76  1  0
 76 71  2  0
 77 74  1  0
 78 83  1  0
 78 77  1  0
 79 78  2  0
 80 81  2  0
 80 79  1  0
 81 82  1  0
 82 83  2  0
 83 84  1  0
 85 81  1  0
 86 67  1  0
 87 89  1  0
 87 86  1  0
 88 86  2  0
 90 87  1  0
 91 93  1  0
 92 91  1  0
M  ISO  4  11 101  12 101  56 100  64 100
M  END
>  <TORSDO>  (57) 
F 23

>  <SCORE>  (57) 
-2.321

>  <name>  (57) 
57

>  <ligand_id>  (57) 
57

>  <original_smiles>  (57) 
[H]c1c([H])c([H])c2c(c1[H])C([H])([H])C([H])([H])C([H])([H])C2([H])N([H])C(=O)C1([H])N(C(=O)C([H])(N([H])C(=O)C([H])(N([H])C([H])([H])[H])C([H])([H])[H])C(C([H])([H])[H])(C([H])([H])[H])C([H])([H])[H])C([H])([H])c2c([H])c(OC([H])([H])C([H])([H])C([H])([H])c3c([H])c([H])c(C([H])([H])C([H])([H])[H])c(C([H])([H])C([H])([H])C([H])([H])N([H])C(=O)N4C([H])([H])C([H])([H])C([H])([H])C([H])(n5nc(-c6c([H])c([H])c(Oc7c([H])c([H])c(F)c([H])c7F)c([H])c6[H])c(C(=O)N([H])[H])c5N([H])[H])C4([H])[H])c3[H])c([H])c([H])c2C1([H])[H]

>  <smiles>  (57) 
[H]c1c([H])c([H])c2c(c1[H])C([H])([H])C([H])([H])C([H])([H])C2([H])N([H])C(=O)C1([H])N(C(=O)C([H])(N([H])C(=O)C([H])(N([H])C([H])([H])[H])C([H])([H])[H])C(C([H])([H])[H])(C([H])([H])[H])C([H])([H])[H])C([H])([H])c2c([H])c(OC([H])([H])C([H])([H])C([H])([H])c3c([H])c([H])c(C([H])([H])C([H])([H])[H])c(C([H])([H])C([H])([H])C([H])([H])N([H])C(=O)N4C([H])([H])C([H])([H])C([H])([H])C([H])(n5nc(-c6c([H])c([H])c(Oc7c([H])c([H])c(F)c([H])c7F)c([H])c6[H])c(C(=O)N([H])[H])c5N([H])[H])C4([H])[H])c3[H])c([H])c([H])c2C1([H])[H]

$$$$
58:0:0
     RDKit          3D

 90 98  0  0  1  0  0  0  0  0999 V2000
  -31.0880  -20.3700   20.2040 C   0  0  0  0  0  3  0  0  0  0  0  0
  -30.6120  -22.7460   19.9960 C   0  0  0  0  0  3  0  0  0  0  0  0
  -31.5400  -21.6840   19.9810 C   0  0  0  0  0  0  0  0  0  0  0  0
  -29.7190  -20.1060   20.4120 C   0  0  0  0  0  0  0  0  0  0  0  0
  -29.2440  -22.4960   20.2040 C   0  0  0  0  0  0  0  0  0  0  0  0
  -33.0030  -21.9520   19.6770 C   0  0  0  0  0  1  0  0  0  0  0  0
  -28.8200  -21.1800   20.4090 N   0  0  0  0  0  0  0  0  0  0  0  0
  -29.2340  -18.5900   20.5950 C   0  0  0  0  0  3  0  0  0  0  0  0
  -30.2940  -17.3530   20.5260 C   0  0  0  0  0  3  0  0  0  0  0  0
  -30.5900  -14.7460   20.3560 C   0  0  0  0  0  0  0  0  0  0  0  0
  -30.3550  -12.4850   19.3180 C   0  0  0  0  0  2  0  0  0  0  0  0
  -29.4070  -12.5920   18.1030 C   0  0  0  0  0  2  0  0  0  0  0  0
  -27.9420  -12.4190   18.5490 C   0  0  0  0  0  2  0  0  0  0  0  0
  -27.5860  -13.2870   19.7860 C   0  0  0  0  0  3  0  0  0  0  0  0
  -28.6570  -13.1800   20.8930 C   0  0  0  0  0  2  0  0  0  0  0  0
  -29.9480  -13.5300   20.2850 N   0  0  0  0  0  0  0  0  0  0  0  0
  -31.7690  -14.8420   20.0010 O   0  0  0  0  0  0  0  0  0  0  0  0
  -29.8470  -15.8870   20.6210 N   0  0  0  0  0  0  0  0  0  0  0  0
  -28.8800  -15.7290   20.8590 H   0  0  0  0  0  0  0  0  0  0  0  0
  -25.1980  -13.8670   20.5220 C   0  0  0  0  0  0  0  0  0  0  0  0
  -24.1380  -13.0870   20.8980 C   0  0  0  0  0  0  0  0  0  0  0  0
  -24.6070  -11.7380   20.8650 C   0  0  0  0  0  0  0  0  0  0  0  0
  -26.2460  -12.9920   20.2840 N   0  0  0  0  0  0  0  0  0  0  0  0
  -25.8950  -11.7040   20.5470 N   0  0  0  0  0  0  0  0  0  0  0  0
  -23.8880  -10.4710   21.0590 C   0  0  0  0  0  0  0  0  0  0  0  0
  -24.3310   -9.4980   21.9810 C   0  0  0  0  0  3  0  0  0  0  0  0
  -23.6060   -8.3000   22.1640 C   0  0  0  0  0  3  0  0  0  0  0  0
  -22.4220   -8.0680   21.4230 C   0  0  0  0  0  0  0  0  0  0  0  0
  -21.9970   -9.0300   20.4880 C   0  0  0  0  0  3  0  0  0  0  0  0
  -22.7240  -10.2180   20.3050 C   0  0  0  0  0  3  0  0  0  0  0  0
  -21.6720   -6.9200   21.5110 O   0  0  0  0  0  0  0  0  0  0  0  0
  -21.6430   -6.1650   22.6550 C   0  0  0  0  0  0  0  0  0  0  0  0
  -21.2370   -6.7060   23.8950 C   0  0  0  0  0  3  0  0  0  0  0  0
  -21.1590   -5.8820   25.0330 C   0  0  0  0  0  3  0  0  0  0  0  0
  -21.4750   -4.5130   24.9350 C   0  0  0  0  0  0  0  0  0  0  0  0
  -21.8720   -3.9700   23.7010 C   0  0  0  0  0  3  0  0  0  0  0  0
  -21.9540   -4.7940   22.5630 C   0  0  0  0  0  0  0  0  0  0  0  0
  -22.3170   -4.2600   21.3730 F   0  0  0  0  0  0  0  0  0  0  0  0
  -21.3930   -3.7170   26.0260 F   0  0  0  0  0  0  0  0  0  0  0  0
  -22.7410  -13.5580   21.1800 C   0  0  0  0  0  0  0  0  0  0  0  0
  -22.0250  -12.8550   22.0500 N   0  0  0  0  0  0  0  0  0  0  0  0
  -22.2960  -14.5860   20.6710 O   0  0  0  0  0  0  0  0  0  0  0  0
  -22.3980  -12.0240   22.4820 H   0  0  0  0  0  0  0  0  0  0  0  0
  -21.0920  -13.1560   22.2920 H   0  0  0  0  0  0  0  0  0  0  0  0
  -25.3520  -15.2380   20.3420 N   0  0  0  0  0  0  0  0  0  0  0  0
  -24.5840  -15.8900   20.4670 H   0  0  0  0  0  0  0  0  0  0  0  0
  -26.1920  -15.6870   19.9980 H   0  0  0  0  0  0  0  0  0  0  0  0
  -28.2340  -23.7120   19.9890 C   0  0  0  0  0  2  0  0  0  0  0  0
  -28.3440  -25.0980   20.8220 C   0  0  0  0  0  2  0  0  0  0  0  0
  -28.3750  -26.4650   20.2040 O   0  0  0  0  0  0  0  0  0  0  0  0
  -24.6100  -31.8850   23.2410 C   0  0  0  0  0  0  0  0  0  0  0  0
  -27.2450  -27.3010   20.2260 C   0  0  0  0  0  0  0  0  0  0  0  0
  -23.4180  -30.4760   21.6010 C   0  0  0  0  0  3  0  0  0  0  0  0
  -24.8760  -28.9130   20.1920 C   0  0  0  0  0  0  0  0  0  0  0  0
  -25.9570  -30.7970   21.4230 C   0  0  0  0  0  2  0  0  0  0  0  0
  -26.0440  -29.4120   20.7850 C   0  0  0  0  0  0  0  0  0  0  0  0
  -27.2340  -28.6220   20.7800 C   0  0  0  0  0  3  0  0  0  0  0  0
  -26.0580  -26.8530   19.6150 C   0  0  0  0  0  3  0  0  0  0  0  0
  -24.8870  -27.6400   19.5960 C   0  0  0  0  0  3  0  0  0  0  0  0
  -23.6370  -29.7880   20.2270 C   0  0  0  0  0  2  0  0  0  0  0  0
  -24.6810  -31.0720   22.1450 N   0  0  0  0  0  0  0  0  0  0  0  0
  -23.5240  -32.1620   23.7710 O   0  0  0  0  0  0  0  0  0  0  0  0
  -22.7520  -29.4640   22.5660 C   0  0  0  0  0  0  0  0  0  0  0  0
  -21.4250  -29.2850   22.4340 N   0  0  0  0  0  0  0  0  0  0  0  0
  -23.4280  -28.8420   23.3890 O   0  0  0  0  0  0  0  0  0  0  0  0
  -20.9410  -29.8400   21.7420 H   0  0  0  0  0  0  0  0  0  0  0  0
  -18.0480  -28.0930   22.9350 C   0  0  0  0  0  0  0  0  0  0  0  0
  -20.6060  -28.3470   23.2040 C   0  0  0  0  0  3  0  0  0  0  0  0
  -20.7050  -26.9170   22.6270 C   0  0  0  0  0  2  0  0  0  0  0  0
  -19.6020  -26.5980   21.6120 C   0  0  0  0  0  2  0  0  0  0  0  0
  -18.2200  -26.7450   22.2580 C   0  0  0  0  0  2  0  0  0  0  0  0
  -19.1680  -28.8530   23.3640 C   0  0  0  0  0  0  0  0  0  0  0  0
  -18.9520  -30.1170   23.9560 C   0  0  0  0  0  3  0  0  0  0  0  0
  -17.6480  -30.6190   24.1240 C   0  0  0  0  0  3  0  0  0  0  0  0
  -16.5420  -29.8570   23.7100 C   0  0  0  0  0  3  0  0  0  0  0  0
  -16.7440  -28.5950   23.1200 C   0  0  0  0  0  3  0  0  0  0  0  0
  -25.8890  -32.5210   23.8680 C   0  0  0  0  0  3  0  0  0  0  0  0
  -26.3960  -31.7570   25.1520 C   0  0  1  0  0  0  0  0  0  0  0  0
  -25.2960  -31.5270   26.2160 C   0  0  0  0  0  1  0  0  0  0  0  0
  -26.9820  -30.3770   24.7740 C   0  0  0  0  0  1  0  0  0  0  0  0
  -27.5400  -32.5570   25.8170 C   0  0  0  0  0  1  0  0  0  0  0  0
  -25.5740  -33.9210   24.1910 N   0  0  0  0  0  0  0  0  0  0  0  0
  -25.9110  -34.9730   23.4320 C   0  0  0  0  0  0  0  0  0  0  0  0
  -26.5860  -34.8660   22.4050 O   0  0  0  0  0  0  0  0  0  0  0  0
  -24.9690  -34.0760   24.9840 H   0  0  0  0  0  0  0  0  0  0  0  0
  -24.1830  -36.7650   23.0630 C   0  0  0  0  0  1  0  0  0  0  0  0
  -25.4200  -36.3640   23.8810 C   0  0  0  0  0  3  0  0  0  0  0  0
  -27.5520  -37.2500   24.7190 C   0  0  0  0  0  1  0  0  0  0  0  0
  -26.4540  -37.4150   23.7710 N   0  0  0  0  0  0  0  0  0  0  0  0
  -26.0470  -38.3360   23.9100 H   0  0  0  0  0  0  0  0  0  0  0  0
  1  4  1  0
  2  5  2  0
  3  2  1  0
  3  1  2  0
  4  8  1  0
  5  7  1  0
  6  3  1  0
  7  4  2  0
  9  8  2  0
  9 18  1  0
 10 18  1  0
 11 16  1  0
 12 13  1  0
 12 11  1  0
 14 13  1  0
 14 23  1  0
 14 15  1  0
 16 10  1  0
 16 15  1  0
 17 10  2  0
 18 19  1  0
 20 21  2  0
 21 40  1  0
 22 21  1  0
 22 25  1  0
 23 20  1  0
 23 24  1  0
 24 22  2  0
 25 26  1  0
 26 27  2  0
 28 31  1  0
 28 27  1  0
 29 28  2  0
 30 29  1  0
 30 25  2  0
 31 32  1  0
 32 33  1  0
 33 34  2  0
 35 34  1  0
 35 39  1  0
 36 35  2  0
 37 32  2  0
 37 36  1  0
 38 37  1  0
 40 41  1  0
 41 44  1  0
 41 43  1  0
 42 40  2  0
 45 46  1  0
 45 20  1  0
 47 45  1  0
 48  5  1  0
 48 49  1  0
 50 52  1  0
 50 49  1  0
 51 62  2  0
 52 57  1  0
 53 61  1  0
 53 63  1  0
 54 60  1  0
 54 56  1  0
 55 61  1  0
 56 55  1  0
 57 56  2  0
 58 52  2  0
 59 58  1  0
 59 54  2  0
 60 53  1  0
 61 51  1  0
 63 65  2  0
 64 63  1  0
 66 64  1  0
 67 76  2  0
 67 72  1  0
 68 64  1  0
 68 72  1  0
 69 68  1  0
 70 71  1  0
 70 69  1  0
 71 67  1  0
 72 73  2  0
 73 74  1  0
 75 74  2  0
 76 75  1  0
 77 51  1  0
 77 82  1  0
 77 78  1  0
 78 81  1  1
 78 79  1  0
 80 78  1  0
 82 85  1  0
 83 87  1  0
 83 82  1  0
 84 83  2  0
 87 86  1  0
 89 87  1  0
 89 90  1  0
 89 88  1  0
M  ISO  4  10 100  18 100  49 101  50 101
M  END
>  <TORSDO>  (58) 
F 20

>  <SCORE>  (58) 
-13.819

>  <name>  (58) 
58

>  <ligand_id>  (58) 
58

>  <original_smiles>  (58) 
[H]c1c([H])c([H])c2c(c1[H])C([H])([H])C([H])([H])C([H])([H])C2([H])N([H])C(=O)C1([H])N(C(=O)C([H])(N([H])C(=O)C([H])(N([H])C([H])([H])[H])C([H])([H])[H])C(C([H])([H])[H])(C([H])([H])[H])C([H])([H])[H])C([H])([H])c2c([H])c(OC([H])([H])C([H])([H])c3nc(C([H])([H])C([H])([H])N([H])C(=O)N4C([H])([H])C([H])([H])C([H])([H])C([H])(n5nc(-c6c([H])c([H])c(Oc7c([H])c([H])c(F)c([H])c7F)c([H])c6[H])c(C(=O)N([H])[H])c5N([H])[H])C4([H])[H])c([H])c(C([H])([H])[H])c3[H])c([H])c([H])c2C1([H])[H]

>  <smiles>  (58) 
[H]c1c([H])c([H])c2c(c1[H])C([H])([H])C([H])([H])C([H])([H])C2([H])N([H])C(=O)C1([H])N(C(=O)C([H])(N([H])C(=O)C([H])(N([H])C([H])([H])[H])C([H])([H])[H])C(C([H])([H])[H])(C([H])([H])[H])C([H])([H])[H])C([H])([H])c2c([H])c(OC([H])([H])C([H])([H])c3nc(C([H])([H])C([H])([H])N([H])C(=O)N4C([H])([H])C([H])([H])C([H])([H])C([H])(n5nc(-c6c([H])c([H])c(Oc7c([H])c([H])c(F)c([H])c7F)c([H])c6[H])c(C(=O)N([H])[H])c5N([H])[H])C4([H])[H])c([H])c(C([H])([H])[H])c3[H])c([H])c([H])c2C1([H])[H]

$$$$
59:0:0
     RDKit          3D

 99108  0  0  1  0  0  0  0  0999 V2000
  -31.0250  -23.8410   23.1370 C   0  0  0  0  0  2  0  0  0  0  0  0
  -31.0100  -23.1010   21.7850 C   0  0  0  0  0  2  0  0  0  0  0  0
  -28.5070  -23.3560   21.1120 C   0  0  0  0  0  2  0  0  0  0  0  0
  -30.4200  -25.2550   23.1140 C   0  0  0  0  0  2  0  0  0  0  0  0
  -28.2510  -24.5110   22.0990 C   0  0  0  0  0  2  0  0  0  0  0  0
  -29.6540  -22.4040   21.5260 C   0  0  0  0  0  3  0  0  0  0  0  0
  -29.3920  -25.4610   22.0580 N   0  0  1  0  0  4  0  0  0  0  0  0
  -29.8460  -25.2140   21.1920 H   0  0  0  0  0  0  0  0  0  0  0  0
  -29.8450  -19.9120   21.0930 C   0  0  0  0  0  3  0  0  0  0  0  0
  -30.0380  -18.8580   20.1830 C   0  0  0  0  0  0  0  0  0  0  0  0
  -29.7990  -21.2200   20.5790 C   0  0  0  0  0  0  0  0  0  0  0  0
  -30.1340  -19.1810   18.8090 C   0  0  0  0  0  0  0  0  0  0  0  0
  -29.9460  -21.4790   19.2560 N   0  0  0  0  0  0  0  0  0  0  0  0
  -30.0840  -20.4710   18.3850 N   0  0  0  0  0  0  0  0  0  0  0  0
  -30.3380  -17.9350   17.6230 Cl  0  0  0  0  0  0  0  0  0  0  0  0
  -30.2310  -17.4480   20.7020 C   0  0  0  0  0  2  0  0  0  0  0  0
  -31.7010  -17.0330   20.5060 C   0  0  0  0  0  2  0  0  0  0  0  0
  -32.0820  -15.6980   21.1500 C   0  0  0  0  0  2  0  0  0  0  0  0
  -31.2520  -13.8920   19.6250 C   0  0  0  0  0  0  0  0  0  0  0  0
  -30.7420  -11.6030   18.8690 C   0  0  0  0  0  2  0  0  0  0  0  0
  -29.7280  -11.5200   17.7200 C   0  0  0  0  0  2  0  0  0  0  0  0
  -28.2920  -11.5030   18.2710 C   0  0  0  0  0  2  0  0  0  0  0  0
  -28.0330  -12.6680   19.2570 C   0  0  0  0  0  3  0  0  0  0  0  0
  -29.1390  -12.7390   20.3320 C   0  0  0  0  0  2  0  0  0  0  0  0
  -30.4550  -12.8000   19.6680 N   0  0  0  0  0  0  0  0  0  0  0  0
  -32.1130  -14.0890   18.7600 O   0  0  0  0  0  0  0  0  0  0  0  0
  -31.1830  -14.6230   20.7440 N   0  0  0  0  0  0  0  0  0  0  0  0
  -30.5010  -14.3160   21.4230 H   0  0  0  0  0  0  0  0  0  0  0  0
  -25.8240  -13.5720   20.2250 C   0  0  0  0  0  0  0  0  0  0  0  0
  -24.6950  -12.9370   20.6750 C   0  0  0  0  0  0  0  0  0  0  0  0
  -24.9560  -11.5390   20.5550 C   0  0  0  0  0  0  0  0  0  0  0  0
  -26.7050  -12.5660   19.8610 N   0  0  0  0  0  0  0  0  0  0  0  0
  -26.1900  -11.3350   20.1140 N   0  0  0  0  0  0  0  0  0  0  0  0
  -24.0820  -10.3800   20.7780 C   0  0  0  0  0  0  0  0  0  0  0  0
  -24.3950   -9.3890   21.7330 C   0  0  0  0  0  3  0  0  0  0  0  0
  -23.5280   -8.2950   21.9430 C   0  0  0  0  0  3  0  0  0  0  0  0
  -22.3320   -8.1850   21.1950 C   0  0  0  0  0  0  0  0  0  0  0  0
  -22.0340   -9.1620   20.2290 C   0  0  0  0  0  3  0  0  0  0  0  0
  -22.9010  -10.2490   20.0190 C   0  0  0  0  0  3  0  0  0  0  0  0
  -21.4420   -7.1440   21.3110 O   0  0  0  0  0  0  0  0  0  0  0  0
  -21.2370   -6.5030   22.5060 C   0  0  0  0  0  0  0  0  0  0  0  0
  -20.7850   -7.1900   23.6540 C   0  0  0  0  0  3  0  0  0  0  0  0
  -20.5210   -6.4810   24.8420 C   0  0  0  0  0  3  0  0  0  0  0  0
  -20.6980   -5.0850   24.8840 C   0  0  0  0  0  0  0  0  0  0  0  0
  -21.1440   -4.3970   23.7400 C   0  0  0  0  0  3  0  0  0  0  0  0
  -21.4090   -5.1050   22.5540 C   0  0  0  0  0  0  0  0  0  0  0  0
  -21.8170   -4.4340   21.4500 F   0  0  0  0  0  0  0  0  0  0  0  0
  -20.4380   -4.4010   26.0220 F   0  0  0  0  0  0  0  0  0  0  0  0
  -23.4150  -13.5890   21.1060 C   0  0  0  0  0  0  0  0  0  0  0  0
  -22.7010  -12.9760   22.0450 N   0  0  0  0  0  0  0  0  0  0  0  0
  -23.0620  -14.6730   20.6460 O   0  0  0  0  0  0  0  0  0  0  0  0
  -23.0000  -12.0940   22.4350 H   0  0  0  0  0  0  0  0  0  0  0  0
  -21.8450  -13.3940   22.3790 H   0  0  0  0  0  0  0  0  0  0  0  0
  -26.1640  -14.9120   20.0750 N   0  0  0  0  0  0  0  0  0  0  0  0
  -25.5150  -15.6640   20.2770 H   0  0  0  0  0  0  0  0  0  0  0  0
  -27.0450  -15.2380   19.6940 H   0  0  0  0  0  0  0  0  0  0  0  0
  -29.0660  -26.8980   21.8550 C   0  0  0  0  0  2  0  0  0  0  0  0
  -29.4440  -27.3110   20.4060 C   0  0  0  0  0  2  0  0  0  0  0  0
  -28.4010  -27.0280   19.4570 O   0  0  0  0  0  0  0  0  0  0  0  0
  -24.5470  -31.7560   23.0690 C   0  0  0  0  0  0  0  0  0  0  0  0
  -27.2290  -27.7560   19.5390 C   0  0  0  0  0  0  0  0  0  0  0  0
  -23.3200  -30.5050   21.3110 C   0  0  0  0  0  3  0  0  0  0  0  0
  -24.7720  -29.1520   19.7020 C   0  0  0  0  0  0  0  0  0  0  0  0
  -25.8160  -30.9610   21.0840 C   0  0  0  0  0  2  0  0  0  0  0  0
  -25.9140  -29.6630   20.3240 C   0  0  0  0  0  0  0  0  0  0  0  0
  -27.1330  -28.9760   20.2440 C   0  0  0  0  0  3  0  0  0  0  0  0
  -26.0730  -27.2540   18.8980 C   0  0  0  0  0  3  0  0  0  0  0  0
  -24.8420  -27.9410   18.9820 C   0  0  0  0  0  3  0  0  0  0  0  0
  -23.5100  -29.9690   19.8610 C   0  0  0  0  0  2  0  0  0  0  0  0
  -24.5790  -31.0830   21.8840 N   0  0  0  0  0  0  0  0  0  0  0  0
  -23.4790  -31.9420   23.6690 O   0  0  0  0  0  0  0  0  0  0  0  0
  -22.7170  -29.3770   22.1770 C   0  0  0  0  0  0  0  0  0  0  0  0
  -21.3890  -29.2030   22.0850 N   0  0  0  0  0  0  0  0  0  0  0  0
  -23.4390  -28.6710   22.8840 O   0  0  0  0  0  0  0  0  0  0  0  0
  -20.8720  -29.8250   21.4790 H   0  0  0  0  0  0  0  0  0  0  0  0
  -18.0300  -27.9870   22.6250 C   0  0  0  0  0  0  0  0  0  0  0  0
  -20.6040  -28.1820   22.7760 C   0  0  0  0  0  3  0  0  0  0  0  0
  -20.6470  -26.8380   22.0160 C   0  0  0  0  0  2  0  0  0  0  0  0
  -19.4830  -26.6610   21.0330 C   0  0  0  0  0  2  0  0  0  0  0  0
  -18.1410  -26.7340   21.7710 C   0  0  0  0  0  2  0  0  0  0  0  0
  -19.1850  -28.6780   23.0810 C   0  0  0  0  0  0  0  0  0  0  0  0
  -19.0290  -29.8600   23.8370 C   0  0  0  0  0  3  0  0  0  0  0  0
  -17.7460  -30.3540   24.1420 C   0  0  0  0  0  3  0  0  0  0  0  0
  -16.6040  -29.6590   23.7050 C   0  0  0  0  0  3  0  0  0  0  0  0
  -16.7470  -28.4770   22.9520 C   0  0  0  0  0  3  0  0  0  0  0  0
  -25.8440  -32.3420   23.7170 C   0  0  0  0  0  3  0  0  0  0  0  0
  -25.5520  -33.7220   24.1270 N   0  0  0  0  0  0  0  0  0  0  0  0
  -25.9180  -34.8130   23.4390 C   0  0  0  0  0  0  0  0  0  0  0  0
  -26.6160  -34.7600   22.4220 O   0  0  0  0  0  0  0  0  0  0  0  0
  -24.9510  -33.8410   24.9310 H   0  0  0  0  0  0  0  0  0  0  0  0
  -24.2360  -36.6510   23.1250 C   0  0  0  0  0  1  0  0  0  0  0  0
  -25.4340  -36.1780   23.9610 C   0  0  0  0  0  3  0  0  0  0  0  0
  -27.5460  -36.9610   24.9330 C   0  0  0  0  0  1  0  0  0  0  0  0
  -26.4880  -37.2170   23.9590 N   0  0  0  0  0  0  0  0  0  0  0  0
  -26.0920  -38.1330   24.1560 H   0  0  0  0  0  0  0  0  0  0  0  0
  -26.3680  -31.4960   24.9400 C   0  0  1  0  0  0  0  0  0  0  0  0
  -25.2790  -31.1760   25.9910 C   0  0  0  0  0  1  0  0  0  0  0  0
  -26.9640  -30.1550   24.4480 C   0  0  0  0  0  1  0  0  0  0  0  0
  -27.5130  -32.2530   25.6540 C   0  0  0  0  0  1  0  0  0  0  0  0
  2  1  1  0
  3  6  1  0
  3  5  1  0
  4  1  1  0
  6 11  1  0
  6  2  1  0
  7  5  1  0
  7  4  1  0
  7  8  1  6
 10 16  1  0
 10  9  2  0
 11  9  1  0
 12 10  1  0
 13 11  2  0
 14 12  2  0
 14 13  1  0
 15 12  1  0
 17 16  1  0
 17 18  1  0
 19 25  1  0
 19 27  1  0
 20 25  1  0
 21 22  1  0
 21 20  1  0
 23 22  1  0
 23 32  1  0
 23 24  1  0
 25 24  1  0
 26 19  2  0
 27 18  1  0
 27 28  1  0
 29 30  2  0
 30 49  1  0
 31 30  1  0
 31 34  1  0
 32 33  1  0
 32 29  1  0
 33 31  2  0
 34 35  1  0
 35 36  2  0
 37 40  1  0
 37 36  1  0
 38 37  2  0
 39 38  1  0
 39 34  2  0
 40 41  1  0
 41 46  2  0
 41 42  1  0
 42 43  2  0
 43 44  1  0
 44 48  1  0
 45 44  2  0
 46 45  1  0
 47 46  1  0
 49 50  1  0
 50 53  1  0
 50 52  1  0
 51 49  2  0
 54 29  1  0
 54 55  1  0
 56 54  1  0
 57  7  1  0
 58 57  1  0
 59 61  1  0
 59 58  1  0
 60 71  2  0
 61 66  1  0
 62 70  1  0
 62 72  1  0
 63 69  1  0
 63 65  1  0
 64 70  1  0
 65 64  1  0
 66 65  2  0
 67 68  1  0
 67 61  2  0
 68 63  2  0
 69 62  1  0
 70 60  1  0
 72 74  2  0
 73 72  1  0
 75 73  1  0
 76 85  2  0
 76 81  1  0
 77 73  1  0
 77 81  1  0
 78 77  1  0
 79 80  1  0
 79 78  1  0
 80 76  1  0
 81 82  2  0
 82 83  1  0
 84 83  2  0
 85 84  1  0
 86 60  1  0
 86 87  1  0
 86 96  1  0
 87 90  1  0
 88 92  1  0
 88 87  1  0
 89 88  2  0
 92 91  1  0
 94 92  1  0
 94 95  1  0
 94 93  1  0
 96 99  1  1
 96 97  1  0
 98 96  1  0
M  ISO  4  19 100  27 100  58 101  59 101
M  END
>  <TORSDO>  (59) 
F 22

>  <SCORE>  (59) 
-9.151

>  <name>  (59) 
59

>  <ligand_id>  (59) 
59

>  <original_smiles>  (59) 
[H]c1c([H])c([H])c2c(c1[H])C([H])([H])C([H])([H])C([H])([H])C2([H])N([H])C(=O)C1([H])N(C(=O)C([H])(N([H])C(=O)C([H])(N([H])C([H])([H])[H])C([H])([H])[H])C(C([H])([H])[H])(C([H])([H])[H])C([H])([H])[H])C([H])([H])c2c([H])c(OC([H])([H])C([H])([H])[N+]3([H])C([H])([H])C([H])([H])C([H])([H])C([H])(c4nnc(Cl)c(C([H])([H])C([H])([H])C([H])([H])N([H])C(=O)N5C([H])([H])C([H])([H])C([H])([H])C([H])(n6nc(-c7c([H])c([H])c(Oc8c([H])c([H])c(F)c([H])c8F)c([H])c7[H])c(C(=O)N([H])[H])c6N([H])[H])C5([H])[H])c4[H])C([H])([H])C3([H])[H])c([H])c([H])c2C1([H])[H]

>  <smiles>  (59) 
[H]c1c([H])c([H])c2c(c1[H])C([H])([H])C([H])([H])C([H])([H])C2([H])N([H])C(=O)C1([H])N(C(=O)C([H])(N([H])C(=O)C([H])(N([H])C([H])([H])[H])C([H])([H])[H])C(C([H])([H])[H])(C([H])([H])[H])C([H])([H])[H])C([H])([H])c2c([H])c(OC([H])([H])C([H])([H])[N+]3([H])C([H])([H])C([H])([H])C([H])([H])C([H])(c4nnc(Cl)c(C([H])([H])C([H])([H])C([H])([H])N([H])C(=O)N5C([H])([H])C([H])([H])C([H])([H])C([H])(n6nc(-c7c([H])c([H])c(Oc8c([H])c([H])c(F)c([H])c8F)c([H])c7[H])c(C(=O)N([H])[H])c6N([H])[H])C5([H])[H])c4[H])C([H])([H])C3([H])[H])c([H])c([H])c2C1([H])[H]

$$$$
60:0:0
     RDKit          3D

 92100  0  0  1  0  0  0  0  0999 V2000
  -29.2600  -21.2270   22.5060 C   0  0  0  0  0  3  0  0  0  0  0  0
  -28.6700  -19.9230   22.5420 C   0  0  0  0  0  0  0  0  0  0  0  0
  -28.3600  -22.2490   22.3420 C   0  0  0  0  0  0  0  0  0  0  0  0
  -27.3020  -19.9760   22.3720 C   0  0  0  0  0  0  0  0  0  0  0  0
  -26.7470  -21.6220   22.1650 S   0  0  0  0  0  0  0  0  0  0  0  0
  -25.5090  -18.7830   23.6990 C   0  0  0  0  0  1  0  0  0  0  0  0
  -26.3030  -18.8600   22.3900 C   0  0  0  0  0  2  0  0  0  0  0  0
  -29.4780  -18.6790   22.8210 C   0  0  0  0  0  2  0  0  0  0  0  0
  -29.6450  -17.7140   21.6290 C   0  0  0  0  0  2  0  0  0  0  0  0
  -30.6400  -16.5680   21.9370 C   0  0  0  0  0  2  0  0  0  0  0  0
  -30.7280  -14.4030   20.6530 C   0  0  0  0  0  0  0  0  0  0  0  0
  -30.4240  -12.2960   19.4000 C   0  0  0  0  0  2  0  0  0  0  0  0
  -29.4880  -12.5170   18.1960 C   0  0  0  0  0  2  0  0  0  0  0  0
  -28.0100  -12.3760   18.6110 C   0  0  0  0  0  2  0  0  0  0  0  0
  -27.6640  -13.2000   19.8790 C   0  0  0  0  0  3  0  0  0  0  0  0
  -28.7020  -12.9380   20.9910 C   0  0  0  0  0  2  0  0  0  0  0  0
  -30.0410  -13.2480   20.4530 N   0  0  0  0  0  0  0  0  0  0  0  0
  -31.7950  -14.6660   20.0890 O   0  0  0  0  0  0  0  0  0  0  0  0
  -30.1420  -15.2630   21.4970 N   0  0  0  0  0  0  0  0  0  0  0  0
  -29.2760  -14.9450   21.9090 H   0  0  0  0  0  0  0  0  0  0  0  0
  -25.2600  -13.8160   20.5690 C   0  0  0  0  0  0  0  0  0  0  0  0
  -24.1840  -13.0440   20.9180 C   0  0  0  0  0  0  0  0  0  0  0  0
  -24.6380  -11.6910   20.8730 C   0  0  0  0  0  0  0  0  0  0  0  0
  -26.3030  -12.9310   20.3370 N   0  0  0  0  0  0  0  0  0  0  0  0
  -25.9300  -11.6470   20.5750 N   0  0  0  0  0  0  0  0  0  0  0  0
  -23.9040  -10.4290   21.0410 C   0  0  0  0  0  0  0  0  0  0  0  0
  -24.3600   -9.4210   21.9190 C   0  0  0  0  0  3  0  0  0  0  0  0
  -23.6280   -8.2240   22.0750 C   0  0  0  0  0  3  0  0  0  0  0  0
  -22.4260   -8.0270   21.3540 C   0  0  0  0  0  0  0  0  0  0  0  0
  -21.9900   -9.0240   20.4640 C   0  0  0  0  0  3  0  0  0  0  0  0
  -22.7220  -10.2130   20.3060 C   0  0  0  0  0  3  0  0  0  0  0  0
  -21.6630   -6.8870   21.4250 O   0  0  0  0  0  0  0  0  0  0  0  0
  -21.6850   -6.0730   22.5290 C   0  0  0  0  0  0  0  0  0  0  0  0
  -21.4010   -6.5630   23.8220 C   0  0  0  0  0  3  0  0  0  0  0  0
  -21.3660   -5.6790   24.9180 C   0  0  0  0  0  3  0  0  0  0  0  0
  -21.6050   -4.3050   24.7230 C   0  0  0  0  0  0  0  0  0  0  0  0
  -21.8820   -3.8140   23.4350 C   0  0  0  0  0  3  0  0  0  0  0  0
  -21.9190   -4.6960   22.3410 C   0  0  0  0  0  0  0  0  0  0  0  0
  -22.1660   -4.2140   21.0990 F   0  0  0  0  0  0  0  0  0  0  0  0
  -21.5630   -3.4540   25.7740 F   0  0  0  0  0  0  0  0  0  0  0  0
  -22.7860  -13.5250   21.1840 C   0  0  0  0  0  0  0  0  0  0  0  0
  -22.0490  -12.8250   22.0400 N   0  0  0  0  0  0  0  0  0  0  0  0
  -22.3550  -14.5550   20.6700 O   0  0  0  0  0  0  0  0  0  0  0  0
  -22.4070  -11.9900   22.4800 H   0  0  0  0  0  0  0  0  0  0  0  0
  -21.1110  -13.1290   22.2610 H   0  0  0  0  0  0  0  0  0  0  0  0
  -25.4350  -15.1870   20.4100 N   0  0  0  0  0  0  0  0  0  0  0  0
  -24.6740  -15.8470   20.5210 H   0  0  0  0  0  0  0  0  0  0  0  0
  -26.2930  -15.6190   20.0920 H   0  0  0  0  0  0  0  0  0  0  0  0
  -28.6350  -23.7240   22.3980 C   0  0  0  0  0  2  0  0  0  0  0  0
  -28.2530  -24.5240   21.1380 C   0  0  0  0  0  2  0  0  0  0  0  0
  -28.6880  -26.0010   21.2440 C   0  0  0  0  0  2  0  0  0  0  0  0
  -28.3900  -26.7210   20.0500 O   0  0  0  0  0  0  0  0  0  0  0  0
  -24.6100  -31.8700   23.2110 C   0  0  0  0  0  0  0  0  0  0  0  0
  -27.2350  -27.4580   20.1000 C   0  0  0  0  0  0  0  0  0  0  0  0
  -23.3980  -30.4920   21.5510 C   0  0  0  0  0  3  0  0  0  0  0  0
  -24.8470  -28.9550   20.1200 C   0  0  0  0  0  0  0  0  0  0  0  0
  -25.9230  -30.8400   21.3640 C   0  0  0  0  0  2  0  0  0  0  0  0
  -26.0020  -29.4720   20.7200 C   0  0  0  0  0  0  0  0  0  0  0  0
  -27.2010  -28.7280   20.7150 C   0  0  0  0  0  3  0  0  0  0  0  0
  -26.0720  -26.9480   19.4920 C   0  0  0  0  0  3  0  0  0  0  0  0
  -24.8750  -27.6890   19.5060 C   0  0  0  0  0  3  0  0  0  0  0  0
  -23.6070  -29.8200   20.1660 C   0  0  0  0  0  2  0  0  0  0  0  0
  -24.6610  -31.0820   22.1010 N   0  0  0  0  0  0  0  0  0  0  0  0
  -23.5300  -32.1440   23.7520 O   0  0  0  0  0  0  0  0  0  0  0  0
  -22.7400  -29.4660   22.5000 C   0  0  0  0  0  0  0  0  0  0  0  0
  -21.4130  -29.3020   22.3750 N   0  0  0  0  0  0  0  0  0  0  0  0
  -23.4190  -28.8210   23.3040 O   0  0  0  0  0  0  0  0  0  0  0  0
  -20.9280  -29.8790   21.7020 H   0  0  0  0  0  0  0  0  0  0  0  0
  -18.0280  -28.1360   22.8500 C   0  0  0  0  0  0  0  0  0  0  0  0
  -20.5860  -28.3650   23.1330 C   0  0  0  0  0  3  0  0  0  0  0  0
  -20.6770  -26.9390   22.5420 C   0  0  0  0  0  2  0  0  0  0  0  0
  -19.5750  -26.6380   21.5210 C   0  0  0  0  0  2  0  0  0  0  0  0
  -18.1920  -26.7910   22.1620 C   0  0  0  0  0  2  0  0  0  0  0  0
  -19.1520  -28.8820   23.2910 C   0  0  0  0  0  0  0  0  0  0  0  0
  -18.9450  -30.1430   23.8920 C   0  0  0  0  0  3  0  0  0  0  0  0
  -17.6450  -30.6570   24.0580 C   0  0  0  0  0  3  0  0  0  0  0  0
  -16.5340  -29.9070   23.6320 C   0  0  0  0  0  3  0  0  0  0  0  0
  -16.7270  -28.6480   23.0350 C   0  0  0  0  0  3  0  0  0  0  0  0
  -25.9010  -32.4830   23.8400 C   0  0  0  0  0  3  0  0  0  0  0  0
  -25.5880  -33.8630   24.2330 N   0  0  0  0  0  0  0  0  0  0  0  0
  -25.9030  -34.9490   23.5140 C   0  0  0  0  0  0  0  0  0  0  0  0
  -26.5580  -34.8930   22.4700 O   0  0  0  0  0  0  0  0  0  0  0  0
  -25.0060  -33.9810   25.0500 H   0  0  0  0  0  0  0  0  0  0  0  0
  -24.1490  -36.7320   23.2640 C   0  0  0  0  0  1  0  0  0  0  0  0
  -25.4110  -36.3130   24.0350 C   0  0  0  0  0  3  0  0  0  0  0  0
  -27.5590  -37.1820   24.8470 C   0  0  0  0  0  1  0  0  0  0  0  0
  -26.4300  -37.3800   23.9410 N   0  0  0  0  0  0  0  0  0  0  0  0
  -26.0200  -38.2890   24.1390 H   0  0  0  0  0  0  0  0  0  0  0  0
  -26.4460  -31.6600   25.0710 C   0  0  1  0  0  0  0  0  0  0  0  0
  -25.3730  -31.3710   26.1460 C   0  0  0  0  0  1  0  0  0  0  0  0
  -27.0270  -30.3050   24.6050 C   0  0  0  0  0  1  0  0  0  0  0  0
  -27.6040  -32.4320   25.7460 C   0  0  0  0  0  1  0  0  0  0  0  0
  1  2  1  0
  2  8  1  0
  3 49  1  0
  3  1  2  0
  4  7  1  0
  4  2  2  0
  5  3  1  0
  5  4  1  0
  7  6  1  0
  9 10  1  0
  9  8  1  0
 11 19  1  0
 12 17  1  0
 13 14  1  0
 13 12  1  0
 15 14  1  0
 15 24  1  0
 15 16  1  0
 17 11  1  0
 17 16  1  0
 18 11  2  0
 19 20  1  0
 19 10  1  0
 21 22  2  0
 22 41  1  0
 23 22  1  0
 23 26  1  0
 24 21  1  0
 24 25  1  0
 25 23  2  0
 26 27  1  0
 27 28  2  0
 29 32  1  0
 29 28  1  0
 30 29  2  0
 31 30  1  0
 31 26  2  0
 32 33  1  0
 33 34  1  0
 34 35  2  0
 36 35  1  0
 36 40  1  0
 37 36  2  0
 38 33  2  0
 38 37  1  0
 39 38  1  0
 41 42  1  0
 42 45  1  0
 42 44  1  0
 43 41  2  0
 46 47  1  0
 46 21  1  0
 48 46  1  0
 50 51  1  0
 50 49  1  0
 52 54  1  0
 52 51  1  0
 53 64  2  0
 54 59  1  0
 55 63  1  0
 55 65  1  0
 56 62  1  0
 56 58  1  0
 57 63  1  0
 58 57  1  0
 59 58  2  0
 60 61  1  0
 60 54  2  0
 61 56  2  0
 62 55  1  0
 63 53  1  0
 65 67  2  0
 66 65  1  0
 68 66  1  0
 69 78  2  0
 69 74  1  0
 70 66  1  0
 70 74  1  0
 71 70  1  0
 72 73  1  0
 72 71  1  0
 73 69  1  0
 74 75  2  0
 75 76  1  0
 77 76  2  0
 78 77  1  0
 79 53  1  0
 79 80  1  0
 79 89  1  0
 80 83  1  0
 81 85  1  0
 81 80  1  0
 82 81  2  0
 85 84  1  0
 87 85  1  0
 87 88  1  0
 87 86  1  0
 89 92  1  1
 89 90  1  0
 91 89  1  0
M  ISO  4  11 100  19 100  51 101  52 101
M  END
>  <TORSDO>  (60) 
F 23

>  <SCORE>  (60) 
18.499

>  <name>  (60) 
60

>  <ligand_id>  (60) 
60

>  <original_smiles>  (60) 
[H]c1c([H])c([H])c2c(c1[H])C([H])([H])C([H])([H])C([H])([H])C2([H])N([H])C(=O)C1([H])N(C(=O)C([H])(N([H])C(=O)C([H])(N([H])C([H])([H])[H])C([H])([H])[H])C(C([H])([H])[H])(C([H])([H])[H])C([H])([H])[H])C([H])([H])c2c([H])c(OC([H])([H])C([H])([H])C([H])([H])c3sc(C([H])([H])C([H])([H])[H])c(C([H])([H])C([H])([H])C([H])([H])N([H])C(=O)N4C([H])([H])C([H])([H])C([H])([H])C([H])(n5nc(-c6c([H])c([H])c(Oc7c([H])c([H])c(F)c([H])c7F)c([H])c6[H])c(C(=O)N([H])[H])c5N([H])[H])C4([H])[H])c3[H])c([H])c([H])c2C1([H])[H]

>  <smiles>  (60) 
[H]c1c([H])c([H])c2c(c1[H])C([H])([H])C([H])([H])C([H])([H])C2([H])N([H])C(=O)C1([H])N(C(=O)C([H])(N([H])C(=O)C([H])(N([H])C([H])([H])[H])C([H])([H])[H])C(C([H])([H])[H])(C([H])([H])[H])C([H])([H])[H])C([H])([H])c2c([H])c(OC([H])([H])C([H])([H])C([H])([H])c3sc(C([H])([H])C([H])([H])[H])c(C([H])([H])C([H])([H])C([H])([H])N([H])C(=O)N4C([H])([H])C([H])([H])C([H])([H])C([H])(n5nc(-c6c([H])c([H])c(Oc7c([H])c([H])c(F)c([H])c7F)c([H])c6[H])c(C(=O)N([H])[H])c5N([H])[H])C4([H])[H])c3[H])c([H])c([H])c2C1([H])[H]

$$$$
61:0:0
     RDKit          3D

 94102  0  0  1  0  0  0  0  0999 V2000
  -28.7450  -18.6420   20.2000 C   0  0  0  0  0  3  0  0  0  0  0  0
  -30.9900  -19.2690   20.8960 C   0  0  0  0  0  3  0  0  0  0  0  0
  -30.1070  -18.3180   20.3470 C   0  0  0  0  0  0  0  0  0  0  0  0
  -29.1660  -20.8940   21.0720 C   0  0  0  0  0  0  0  0  0  0  0  0
  -28.2720  -19.9210   20.5550 C   0  0  0  0  0  0  0  0  0  0  0  0
  -30.5280  -20.5480   21.2560 C   0  0  0  0  0  0  0  0  0  0  0  0
  -26.5990  -20.2740   20.2990 Cl  0  0  0  0  0  0  0  0  0  0  0  0
  -31.6710  -21.6950   21.8670 Cl  0  0  0  0  0  0  0  0  0  0  0  0
  -30.6420  -16.9920   19.8340 C   0  0  0  0  0  2  0  0  0  0  0  0
  -31.1190  -15.9800   22.1510 C   0  0  0  0  0  1  0  0  0  0  0  0
  -30.4570  -15.7730   20.7750 C   0  0  0  0  0  3  0  0  0  0  0  0
  -31.0450  -14.5230   20.0820 C   0  0  0  0  0  0  0  0  0  0  0  0
  -30.6270  -12.3920   18.9220 C   0  0  0  0  0  2  0  0  0  0  0  0
  -29.6250  -12.6390   17.7780 C   0  0  0  0  0  2  0  0  0  0  0  0
  -28.1760  -12.5210   18.2890 C   0  0  0  0  0  2  0  0  0  0  0  0
  -27.9260  -13.3470   19.5810 C   0  0  0  0  0  3  0  0  0  0  0  0
  -29.0400  -13.0900   20.6200 C   0  0  0  0  0  2  0  0  0  0  0  0
  -30.3330  -13.3700   19.9800 N   0  0  0  0  0  0  0  0  0  0  0  0
  -32.1370  -14.6600   19.5230 O   0  0  0  0  0  0  0  0  0  0  0  0
  -25.5900  -13.9760   20.4620 C   0  0  0  0  0  0  0  0  0  0  0  0
  -24.5290  -13.2110   20.8670 C   0  0  0  0  0  0  0  0  0  0  0  0
  -24.9540  -11.8510   20.7510 C   0  0  0  0  0  0  0  0  0  0  0  0
  -26.5980  -13.0830   20.1310 N   0  0  0  0  0  0  0  0  0  0  0  0
  -26.2210  -11.7980   20.3590 N   0  0  0  0  0  0  0  0  0  0  0  0
  -24.2100  -10.5990   20.9340 C   0  0  0  0  0  0  0  0  0  0  0  0
  -24.6460   -9.6090   21.8440 C   0  0  0  0  0  3  0  0  0  0  0  0
  -23.9040   -8.4210   22.0170 C   0  0  0  0  0  3  0  0  0  0  0  0
  -22.7130   -8.2140   21.2800 C   0  0  0  0  0  0  0  0  0  0  0  0
  -22.2980   -9.1900   20.3590 C   0  0  0  0  0  3  0  0  0  0  0  0
  -23.0400  -10.3700   20.1840 C   0  0  0  0  0  3  0  0  0  0  0  0
  -21.9430   -7.0780   21.3640 O   0  0  0  0  0  0  0  0  0  0  0  0
  -21.8600   -6.3490   22.5210 C   0  0  0  0  0  0  0  0  0  0  0  0
  -21.3900   -6.9140   23.7270 C   0  0  0  0  0  3  0  0  0  0  0  0
  -21.2540   -6.1100   24.8770 C   0  0  0  0  0  3  0  0  0  0  0  0
  -21.5790   -4.7420   24.8210 C   0  0  0  0  0  0  0  0  0  0  0  0
  -22.0430   -4.1760   23.6220 C   0  0  0  0  0  3  0  0  0  0  0  0
  -22.1800   -4.9770   22.4740 C   0  0  0  0  0  0  0  0  0  0  0  0
  -22.6070   -4.4210   21.3150 F   0  0  0  0  0  0  0  0  0  0  0  0
  -21.4410   -3.9670   25.9230 F   0  0  0  0  0  0  0  0  0  0  0  0
  -23.1630  -13.7060   21.2470 C   0  0  0  0  0  0  0  0  0  0  0  0
  -22.4770  -12.9910   22.1350 N   0  0  0  0  0  0  0  0  0  0  0  0
  -22.7140  -14.7590   20.7960 O   0  0  0  0  0  0  0  0  0  0  0  0
  -22.8530  -12.1380   22.5210 H   0  0  0  0  0  0  0  0  0  0  0  0
  -21.5640  -13.3040   22.4320 H   0  0  0  0  0  0  0  0  0  0  0  0
  -25.7760  -15.3480   20.3290 N   0  0  0  0  0  0  0  0  0  0  0  0
  -25.0340  -16.0160   20.5100 H   0  0  0  0  0  0  0  0  0  0  0  0
  -26.6180  -15.7780   19.9660 H   0  0  0  0  0  0  0  0  0  0  0  0
  -28.6860  -22.3070   21.4020 C   0  0  0  0  0  2  0  0  0  0  0  0
  -28.9380  -23.2320   20.2750 N   0  0  0  0  0  4  0  0  0  0  0  0
  -28.5000  -22.8610   19.4450 H   0  0  0  0  0  0  0  0  0  0  0  0
  -29.9340  -23.2450   20.1150 H   0  0  0  0  0  0  0  0  0  0  0  0
  -28.4670  -24.6210   20.5000 C   0  0  0  0  0  2  0  0  0  0  0  0
  -28.8160  -25.5510   19.3200 C   0  0  0  0  0  2  0  0  0  0  0  0
  -28.6670  -26.9200   19.6950 O   0  0  0  0  0  0  0  0  0  0  0  0
  -24.6660  -31.7150   23.0370 C   0  0  0  0  0  0  0  0  0  0  0  0
  -27.4270  -27.5200   19.7320 C   0  0  0  0  0  0  0  0  0  0  0  0
  -23.4860  -30.3600   21.3320 C   0  0  0  0  0  3  0  0  0  0  0  0
  -24.9740  -28.9290   19.8350 C   0  0  0  0  0  0  0  0  0  0  0  0
  -25.9950  -30.8070   21.1340 C   0  0  0  0  0  2  0  0  0  0  0  0
  -26.1150  -29.4680   20.4370 C   0  0  0  0  0  0  0  0  0  0  0  0
  -27.3390  -28.7710   20.3830 C   0  0  0  0  0  3  0  0  0  0  0  0
  -26.2600  -26.9810   19.1380 C   0  0  0  0  0  3  0  0  0  0  0  0
  -25.0390  -27.6830   19.1870 C   0  0  0  0  0  3  0  0  0  0  0  0
  -23.7050  -29.7450   19.9230 C   0  0  0  0  0  2  0  0  0  0  0  0
  -24.7330  -30.9730   21.8940 N   0  0  0  0  0  0  0  0  0  0  0  0
  -23.5810  -31.9300   23.5960 O   0  0  0  0  0  0  0  0  0  0  0  0
  -22.8700  -29.2780   22.2490 C   0  0  0  0  0  0  0  0  0  0  0  0
  -21.5440  -29.0940   22.1490 N   0  0  0  0  0  0  0  0  0  0  0  0
  -23.5820  -28.6070   23.0010 O   0  0  0  0  0  0  0  0  0  0  0  0
  -21.0320  -29.6870   21.5120 H   0  0  0  0  0  0  0  0  0  0  0  0
  -18.1850  -27.8810   22.6920 C   0  0  0  0  0  0  0  0  0  0  0  0
  -20.7530  -28.1050   22.8800 C   0  0  0  0  0  3  0  0  0  0  0  0
  -20.8230  -26.7210   22.1940 C   0  0  0  0  0  2  0  0  0  0  0  0
  -19.6790  -26.4800   21.2040 C   0  0  0  0  0  2  0  0  0  0  0  0
  -18.3250  -26.5840   21.9120 C   0  0  0  0  0  2  0  0  0  0  0  0
  -19.3260  -28.6040   23.1320 C   0  0  0  0  0  0  0  0  0  0  0  0
  -19.1420  -29.8250   23.8200 C   0  0  0  0  0  3  0  0  0  0  0  0
  -17.8470  -30.3190   24.0720 C   0  0  0  0  0  3  0  0  0  0  0  0
  -16.7230  -29.5910   23.6470 C   0  0  0  0  0  3  0  0  0  0  0  0
  -16.8910  -28.3740   22.9630 C   0  0  0  0  0  3  0  0  0  0  0  0
  -25.9370  -32.3470   23.6830 C   0  0  0  0  0  3  0  0  0  0  0  0
  -25.6020  -33.7300   24.0540 N   0  0  0  0  0  0  0  0  0  0  0  0
  -25.9300  -34.8100   23.3330 C   0  0  0  0  0  0  0  0  0  0  0  0
  -26.6140  -34.7500   22.3080 O   0  0  0  0  0  0  0  0  0  0  0  0
  -24.9950  -33.8500   24.8520 H   0  0  0  0  0  0  0  0  0  0  0  0
  -24.1840  -36.5890   23.0050 C   0  0  0  0  0  1  0  0  0  0  0  0
  -25.4150  -36.1740   23.8270 C   0  0  0  0  0  3  0  0  0  0  0  0
  -27.5180  -37.0600   24.7350 C   0  0  0  0  0  1  0  0  0  0  0  0
  -26.4360  -37.2440   23.7710 N   0  0  0  0  0  0  0  0  0  0  0  0
  -26.0120  -38.1530   23.9380 H   0  0  0  0  0  0  0  0  0  0  0  0
  -26.4650  -31.5470   24.9350 C   0  0  1  0  0  0  0  0  0  0  0  0
  -25.3760  -31.2680   25.9970 C   0  0  0  0  0  1  0  0  0  0  0  0
  -27.0610  -30.1890   24.4970 C   0  0  0  0  0  1  0  0  0  0  0  0
  -27.6060  -32.3350   25.6200 C   0  0  0  0  0  1  0  0  0  0  0  0
  1  3  2  0
  1  5  1  0
  2  6  2  0
  3  2  1  0
  4  6  1  0
  4 48  1  0
  5  4  2  0
  6  8  1  0
  7  5  1  0
  9  3  1  0
  9 11  1  0
 11 10  1  0
 12 11  1  0
 13 18  1  0
 14 15  1  0
 14 13  1  0
 16 15  1  0
 16 23  1  0
 16 17  1  0
 18 12  1  0
 18 17  1  0
 19 12  2  0
 20 21  2  0
 21 40  1  0
 22 21  1  0
 22 25  1  0
 23 24  1  0
 23 20  1  0
 24 22  2  0
 25 26  1  0
 26 27  2  0
 28 31  1  0
 28 27  1  0
 29 28  2  0
 30 29  1  0
 30 25  2  0
 31 32  1  0
 32 33  1  0
 33 34  2  0
 35 34  1  0
 35 39  1  0
 36 35  2  0
 37 32  2  0
 37 36  1  0
 38 37  1  0
 40 41  1  0
 41 44  1  0
 41 43  1  0
 42 40  2  0
 45 20  1  0
 45 46  1  0
 47 45  1  0
 49 52  1  0
 49 48  1  0
 50 49  1  0
 51 49  1  0
 53 54  1  0
 53 52  1  0
 54 56  1  0
 55 66  2  0
 56 61  1  0
 57 65  1  0
 57 67  1  0
 58 64  1  0
 58 60  1  0
 59 65  1  0
 60 59  1  0
 61 60  2  0
 62 63  1  0
 62 56  2  0
 63 58  2  0
 64 57  1  0
 65 55  1  0
 67 69  2  0
 68 67  1  0
 70 68  1  0
 71 80  2  0
 71 76  1  0
 72 68  1  0
 72 76  1  0
 73 72  1  0
 74 75  1  0
 74 73  1  0
 75 71  1  0
 76 77  2  0
 77 78  1  0
 79 78  2  0
 80 79  1  0
 81 55  1  0
 81 82  1  0
 81 91  1  0
 82 85  1  0
 83 87  1  0
 83 82  1  0
 84 83  2  0
 87 86  1  0
 89 87  1  0
 89 90  1  0
 89 88  1  0
 91 94  1  1
 91 92  1  0
 93 91  1  0
M  ISO  4  11 100  12 100  53 101  54 101
M  END
>  <TORSDO>  (61) 
F 22

>  <SCORE>  (61) 
-11.519

>  <name>  (61) 
61

>  <ligand_id>  (61) 
61

>  <original_smiles>  (61) 
[H]c1c([H])c([H])c2c(c1[H])C([H])([H])C([H])([H])C([H])([H])C2([H])N([H])C(=O)C1([H])N(C(=O)C([H])(N([H])C(=O)C([H])(N([H])C([H])([H])[H])C([H])([H])[H])C(C([H])([H])[H])(C([H])([H])[H])C([H])([H])[H])C([H])([H])c2c([H])c(OC([H])([H])C([H])([H])[N+]([H])([H])C([H])([H])c3c(Cl)c([H])c(C([H])([H])C([H])(C(=O)N4C([H])([H])C([H])([H])C([H])([H])C([H])(n5nc(-c6c([H])c([H])c(Oc7c([H])c([H])c(F)c([H])c7F)c([H])c6[H])c(C(=O)N([H])[H])c5N([H])[H])C4([H])[H])C([H])([H])[H])c([H])c3Cl)c([H])c([H])c2C1([H])[H]

>  <smiles>  (61) 
[H]c1c([H])c([H])c2c(c1[H])C([H])([H])C([H])([H])C([H])([H])C2([H])N([H])C(=O)C1([H])N(C(=O)C([H])(N([H])C(=O)C([H])(N([H])C([H])([H])[H])C([H])([H])[H])C(C([H])([H])[H])(C([H])([H])[H])C([H])([H])[H])C([H])([H])c2c([H])c(OC([H])([H])C([H])([H])[N+]([H])([H])C([H])([H])c3c(Cl)c([H])c(C([H])([H])C([H])(C(=O)N4C([H])([H])C([H])([H])C([H])([H])C([H])(n5nc(-c6c([H])c([H])c(Oc7c([H])c([H])c(F)c([H])c7F)c([H])c6[H])c(C(=O)N([H])[H])c5N([H])[H])C4([H])[H])C([H])([H])[H])c([H])c3Cl)c([H])c([H])c2C1([H])[H]

$$$$
62:0:0
     RDKit          3D

 99103  0  0  1  0  0  0  0  0999 V2000
  -24.5070  -26.8080   22.2530 C   0  0  0  0  0  2  0  0  0  0  0  0
  -25.0180  -25.8380   23.1080 C   0  0  0  0  0  3  0  0  0  0  0  0
  -25.5270  -27.5440   21.4790 C   0  0  0  0  0  2  0  0  0  0  0  0
  -25.9300  -26.3130   24.0090 C   0  0  0  0  0  3  0  0  0  0  0  0
  -26.4660  -28.0370   22.5370 C   0  0  0  0  0  0  0  0  0  0  0  0
  -25.3140  -24.4120   22.6020 C   0  0  0  0  0  2  0  0  0  0  0  0
  -26.6110  -25.3100   24.8790 C   0  0  0  0  0  2  0  0  0  0  0  0
  -27.4630  -24.3930   23.9840 C   0  0  0  0  0  2  0  0  0  0  0  0
  -26.9150  -24.2050   22.5330 C   0  0  0  0  0  3  0  0  0  0  0  0
  -26.5710  -27.4550   23.7770 N   0  0  0  0  0  0  0  0  0  0  0  0
  -26.3270  -26.7720   18.4040 C   0  0  0  0  0 15  0  0  0  0  0  0
  -27.1930  -24.5960   18.2290 C   0  0  0  0  0 15  0  0  0  0  0  0
  -27.4430  -22.3390   18.6090 C   0  0  0  0  0 15  0  0  0  0  0  0
  -28.6430  -20.3850   18.7260 C   0  0  0  0  0 15  0  0  0  0  0  0
  -29.7090  -16.8500   19.3720 C   0  0  0  0  0  0  0  0  0  0  0  0
  -30.2500  -14.0780   19.0010 C   0  0  0  0  0  2  0  0  0  0  0  0
  -29.4770  -13.1740   17.9820 C   0  0  0  0  0  2  0  0  0  0  0  0
  -28.1820  -12.6180   18.5920 C   0  0  0  0  0  2  0  0  0  0  0  0
  -27.5190  -13.6830   19.4880 C   0  0  0  0  0  3  0  0  0  0  0  0
  -28.4920  -14.4750   20.4060 C   0  0  0  0  0  2  0  0  0  0  0  0
  -29.4030  -15.3180   19.5200 N   0  0  0  0  0  0  0  0  0  0  0  0
  -30.9730  -16.7260   19.3520 O   0  0  0  0  0  0  0  0  0  0  0  0
  -28.8350  -18.3580   19.0990 N   0  0  0  0  0  2  0  0  0  0  0  0
  -27.8740  -18.0350   19.0760 H   0  0  0  0  0  0  0  0  0  0  0  0
  -25.2280  -14.0680   20.4720 C   0  0  0  0  0  0  0  0  0  0  0  0
  -24.2160  -13.2450   20.8680 C   0  0  0  0  0  0  0  0  0  0  0  0
  -24.7290  -11.9130   20.7740 C   0  0  0  0  0  0  0  0  0  0  0  0
  -26.2880  -13.2500   20.1430 N   0  0  0  0  0  0  0  0  0  0  0  0
  -26.0060  -11.9390   20.3800 N   0  0  0  0  0  0  0  0  0  0  0  0
  -24.0420  -10.6260   20.9690 C   0  0  0  0  0  0  0  0  0  0  0  0
  -24.4680   -9.6940   21.9430 C   0  0  0  0  0  3  0  0  0  0  0  0
  -23.7720   -8.4800   22.1260 C   0  0  0  0  0  3  0  0  0  0  0  0
  -22.6290   -8.1890   21.3440 C   0  0  0  0  0  0  0  0  0  0  0  0
  -22.2160   -9.1120   20.3680 C   0  0  0  0  0  3  0  0  0  0  0  0
  -22.9130  -10.3190   20.1810 C   0  0  0  0  0  3  0  0  0  0  0  0
  -21.9050   -7.0250   21.4400 O   0  0  0  0  0  0  0  0  0  0  0  0
  -21.7630   -6.3590   22.6320 C   0  0  0  0  0  0  0  0  0  0  0  0
  -21.1890   -6.9760   23.7640 C   0  0  0  0  0  3  0  0  0  0  0  0
  -20.9970   -6.2370   24.9480 C   0  0  0  0  0  3  0  0  0  0  0  0
  -21.3680   -4.8790   24.9990 C   0  0  0  0  0  0  0  0  0  0  0  0
  -21.9390   -4.2630   23.8720 C   0  0  0  0  0  3  0  0  0  0  0  0
  -22.1310   -5.0000   22.6900 C   0  0  0  0  0  0  0  0  0  0  0  0
  -22.6590   -4.3940   21.5990 F   0  0  0  0  0  0  0  0  0  0  0  0
  -21.1790   -4.1660   26.1330 F   0  0  0  0  0  0  0  0  0  0  0  0
  -22.8210  -13.6770   21.2090 C   0  0  0  0  0  0  0  0  0  0  0  0
  -22.1530  -12.9460   22.0910 N   0  0  0  0  0  0  0  0  0  0  0  0
  -22.3350  -14.7020   20.7320 O   0  0  0  0  0  0  0  0  0  0  0  0
  -22.5620  -12.1200   22.5020 H   0  0  0  0  0  0  0  0  0  0  0  0
  -21.2160  -13.2100   22.3600 H   0  0  0  0  0  0  0  0  0  0  0  0
  -25.3170  -15.4460   20.3150 N   0  0  0  0  0  0  0  0  0  0  0  0
  -24.5180  -16.0450   20.4880 H   0  0  0  0  0  0  0  0  0  0  0  0
  -26.1160  -15.9440   19.9460 H   0  0  0  0  0  0  0  0  0  0  0  0
  -27.4140  -29.2870   22.5590 C   0  0  0  0  0  2  0  0  0  0  0  0
  -28.8500  -29.7870   22.0870 C   0  0  0  0  0  2  0  0  0  0  0  0
  -30.0670  -29.3620   22.9420 C   0  0  0  0  0  2  0  0  0  0  0  0
  -31.6070  -30.9100   24.3220 C   0  0  0  0  0  1  0  0  0  0  0  0
  -31.3260  -30.2740   22.9400 C   0  0  0  0  0  2  0  0  0  0  0  0
  -28.0250  -24.6390   21.3830 C   0  0  0  0  0  2  0  0  0  0  0  0
  -28.3880  -25.9440   20.7460 O   0  0  0  0  0  0  0  0  0  0  0  0
  -24.5100  -31.8580   22.8000 C   0  0  0  0  0  0  0  0  0  0  0  0
  -27.3360  -26.6160   20.4250 C   0  0  0  0  0  0  0  0  0  0  0  0
  -23.2960  -30.3520   21.1720 C   0  0  0  0  0  3  0  0  0  0  0  0
  -24.6940  -28.5940   19.4190 C   0  0  0  0  0  0  0  0  0  0  0  0
  -25.7780  -30.7590   20.6220 C   0  0  0  0  0  2  0  0  0  0  0  0
  -26.0500  -29.2960   19.8040 C   0  0  0  0  0  0  0  0  0  0  0  0
  -27.3840  -28.3420   20.0700 C   0  0  0  0  0  3  0  0  0  0  0  0
  -25.7020  -25.8020   20.0460 C   0  0  0  0  0  3  0  0  0  0  0  0
  -24.4860  -26.9450   19.4300 C   0  0  0  0  0  3  0  0  0  0  0  0
  -23.4560  -29.5470   19.7610 C   0  0  0  0  0  2  0  0  0  0  0  0
  -24.5780  -31.0470   21.6170 N   0  0  0  0  0  0  0  0  0  0  0  0
  -23.4190  -32.1020   23.3480 O   0  0  0  0  0  0  0  0  0  0  0  0
  -22.5890  -29.5190   22.3150 C   0  0  0  0  0  0  0  0  0  0  0  0
  -21.2660  -29.2550   22.2470 N   0  0  0  0  0  0  0  0  0  0  0  0
  -23.2580  -29.1040   23.2620 O   0  0  0  0  0  0  0  0  0  0  0  0
  -20.7510  -29.6820   21.4980 H   0  0  0  0  0  0  0  0  0  0  0  0
  -17.9850  -27.8200   22.9050 C   0  0  0  0  0  0  0  0  0  0  0  0
  -20.5220  -28.2960   23.0920 C   0  0  0  0  0  3  0  0  0  0  0  0
  -20.6940  -26.8460   22.5790 C   0  0  0  0  0  2  0  0  0  0  0  0
  -19.6140  -26.4280   21.5740 C   0  0  0  0  0  2  0  0  0  0  0  0
  -18.2370  -26.4820   22.2320 C   0  0  0  0  0  2  0  0  0  0  0  0
  -19.0490  -28.6860   23.2850 C   0  0  0  0  0  0  0  0  0  0  0  0
  -18.7390  -29.9260   23.8830 C   0  0  0  0  0  3  0  0  0  0  0  0
  -17.4010  -30.3190   24.0850 C   0  0  0  0  0  3  0  0  0  0  0  0
  -16.3530  -29.4600   23.7030 C   0  0  0  0  0  3  0  0  0  0  0  0
  -16.6460  -28.2080   23.1310 C   0  0  0  0  0  3  0  0  0  0  0  0
  -25.7120  -32.6100   23.5420 C   0  0  0  0  0  3  0  0  0  0  0  0
  -26.1250  -32.1240   25.0330 C   0  0  1  0  0  0  0  0  0  0  0  0
  -24.9470  -31.8960   25.9980 C   0  0  0  0  0  1  0  0  0  0  0  0
  -26.8480  -30.8240   25.2540 C   0  0  0  0  0  1  0  0  0  0  0  0
  -27.1700  -33.1290   25.6040 C   0  0  0  0  0  1  0  0  0  0  0  0
  -25.2770  -34.0230   23.7690 N   0  0  0  0  0  0  0  0  0  0  0  0
  -25.7360  -35.1410   23.1740 C   0  0  0  0  0  0  0  0  0  0  0  0
  -26.5580  -35.0940   22.2600 O   0  0  0  0  0  0  0  0  0  0  0  0
  -24.5500  -34.1440   24.4620 H   0  0  0  0  0  0  0  0  0  0  0  0
  -24.0760  -37.0030   22.7320 C   0  0  0  0  0  1  0  0  0  0  0  0
  -25.2120  -36.5210   23.6570 C   0  0  0  0  0  3  0  0  0  0  0  0
  -27.2550  -37.3520   24.7660 C   0  0  0  0  0  1  0  0  0  0  0  0
  -26.2540  -37.5820   23.7260 N   0  0  0  0  0  0  0  0  0  0  0  0
  -25.8340  -38.4950   23.8880 H   0  0  0  0  0  0  0  0  0  0  0  0
  2  1  1  0
  2  4  1  0
  3  1  1  0
  3  5  1  0
  4  7  1  0
  5 53  1  0
  5 10  2  0
  6  2  1  0
  8  7  1  0
  9 58  1  0
  9  6  1  0
  9  8  1  0
 10  4  1  0
 15 21  1  0
 16 21  1  0
 17 18  1  0
 17 16  1  0
 19 18  1  0
 19 28  1  0
 19 20  1  0
 21 20  1  0
 22 15  2  0
 23 15  1  0
 24 23  1  0
 25 26  2  0
 26 45  1  0
 27 26  1  0
 27 30  1  0
 28 29  1  0
 28 25  1  0
 29 27  2  0
 30 31  1  0
 31 32  2  0
 33 36  1  0
 33 32  1  0
 34 33  2  0
 35 34  1  0
 35 30  2  0
 36 37  1  0
 37 42  2  0
 37 38  1  0
 38 39  2  0
 39 40  1  0
 40 44  1  0
 41 40  2  0
 42 41  1  0
 43 42  1  0
 45 46  1  0
 46 49  1  0
 46 48  1  0
 47 45  2  0
 50 25  1  0
 50 51  1  0
 52 50  1  0
 54 53  1  0
 54 55  1  0
 57 55  1  0
 57 56  1  0
 59 58  1  0
 60 71  2  0
 61 59  1  0
 62 70  1  0
 62 72  1  0
 63 68  2  0
 63 69  1  0
 63 65  1  0
 64 70  1  0
 65 66  2  0
 65 64  1  0
 66 61  1  0
 67 61  2  0
 68 67  1  0
 69 62  1  0
 70 60  1  0
 72 74  2  0
 73 72  1  0
 75 73  1  0
 76 85  2  0
 76 81  1  0
 77 73  1  0
 77 81  1  0
 78 77  1  0
 79 80  1  0
 79 78  1  0
 80 76  1  0
 81 82  2  0
 82 83  1  0
 84 83  2  0
 85 84  1  0
 86 60  1  0
 86 91  1  0
 86 87  1  0
 87 89  1  6
 87 90  1  0
 87 88  1  0
 91 94  1  0
 92 96  1  0
 92 91  1  0
 93 92  2  0
 96 95  1  0
 96 98  1  0
 98 99  1  0
 98 97  1  0
M  ISO  4  15 100  23 100  58 101  59 101
M  END
>  <TORSDO>  (62) 
F 25

>  <SCORE>  (62) 
-9.796

>  <name>  (62) 
62

>  <ligand_id>  (62) 
62

>  <original_smiles>  (62) 
[H]c1c([H])c([H])c2c(c1[H])C([H])([H])C([H])([H])C([H])([H])C2([H])N([H])C(=O)C1([H])N(C(=O)C([H])(N([H])C(=O)C([H])(N([H])C([H])([H])[H])C([H])([H])[H])C(C([H])([H])[H])(C([H])([H])[H])C([H])([H])[H])C([H])([H])c2c([H])c(OC([H])([H])C3([H])C([H])([H])c4c(nc(C([H])([H])C([H])([H])C([H])([H])C([H])([H])C([H])([H])[H])c(C([H])([H])C([H])([H])C([H])([H])C([H])([H])N([H])C(=O)N5C([H])([H])C([H])([H])C([H])([H])C([H])(n6nc(-c7c([H])c([H])c(Oc8c([H])c([H])c(F)c([H])c8F)c([H])c7[H])c(C(=O)N([H])[H])c6N([H])[H])C5([H])[H])c4[H])C([H])([H])C3([H])[H])c([H])c([H])c2C1([H])[H]

>  <smiles>  (62) 
[H]c1c([H])c([H])c2c(c1[H])C([H])([H])C([H])([H])C([H])([H])C2([H])N([H])C(=O)C1([H])N(C(=O)C([H])(N([H])C(=O)C([H])(N([H])C([H])([H])[H])C([H])([H])[H])C(C([H])([H])[H])(C([H])([H])[H])C([H])([H])[H])C([H])([H])c2c([H])c(OC([H])([H])C3([H])C([H])([H])c4c(nc(C([H])([H])C([H])([H])C([H])([H])C([H])([H])C([H])([H])[H])c(C([H])([H])C([H])([H])C([H])([H])C([H])([H])N([H])C(=O)N5C([H])([H])C([H])([H])C([H])([H])C([H])(n6nc(-c7c([H])c([H])c(Oc8c([H])c([H])c(F)c([H])c8F)c([H])c7[H])c(C(=O)N([H])[H])c6N([H])[H])C5([H])[H])c4[H])C([H])([H])C3([H])[H])c([H])c([H])c2C1([H])[H]

$$$$
63:0:0
     RDKit          3D

103111  0  0  1  0  0  0  0  0999 V2000
  -24.4520  -24.5690   15.8530 N   0  0  0  0  0  0  0  0  0  0  0  0
  -23.7230  -25.2790   15.9110 H   0  0  0  0  0  0  0  0  0  0  0  0
  -25.7970  -23.0130   17.2080 C   0  0  0  0  0  3  0  0  0  0  0  0
  -24.1940  -24.4420   18.2900 C   0  0  0  0  0  3  0  0  0  0  0  0
  -26.4270  -22.7910   18.4480 C   0  0  0  0  0  0  0  0  0  0  0  0
  -26.1250  -23.6390   19.5480 C   0  0  0  0  0  0  0  0  0  0  0  0
  -24.8160  -24.0170   17.0980 C   0  0  0  0  0  0  0  0  0  0  0  0
  -24.8270  -24.2110   19.5390 C   0  0  0  0  0  0  0  0  0  0  0  0
  -27.4040  -21.6340   18.5340 C   0  0  0  0  0  1  0  0  0  0  0  0
  -24.0510  -24.7770   20.9790 Cl  0  0  0  0  0  0  0  0  0  0  0  0
  -27.1930  -23.9040   20.6400 C   0  0  0  0  0  2  0  0  0  0  0  0
  -27.4940  -25.3510   21.1990 C   0  0  0  0  0  2  0  0  0  0  0  0
  -28.0150  -26.4350   20.3590 O   0  0  0  0  0  0  0  0  0  0  0  0
  -24.6130  -31.8920   23.4160 C   0  0  0  0  0  0  0  0  0  0  0  0
  -27.0650  -27.4250   20.2290 C   0  0  0  0  0  0  0  0  0  0  0  0
  -23.3730  -30.5990   21.7150 C   0  0  0  0  0  3  0  0  0  0  0  0
  -24.7800  -29.0780   20.2270 C   0  0  0  0  0  0  0  0  0  0  0  0
  -25.9140  -30.8310   21.5860 C   0  0  0  0  0  2  0  0  0  0  0  0
  -25.9370  -29.4790   20.9080 C   0  0  0  0  0  0  0  0  0  0  0  0
  -27.0790  -28.6390   20.9540 C   0  0  0  0  0  3  0  0  0  0  0  0
  -25.9660  -27.1380   19.4140 C   0  0  0  0  0  3  0  0  0  0  0  0
  -24.7970  -27.9120   19.4510 C   0  0  0  0  0  3  0  0  0  0  0  0
  -23.5670  -29.9810   20.3070 C   0  0  0  0  0  2  0  0  0  0  0  0
  -24.6500  -31.1180   22.2960 N   0  0  0  0  0  0  0  0  0  0  0  0
  -23.5390  -32.2000   23.9470 O   0  0  0  0  0  0  0  0  0  0  0  0
  -22.6760  -29.5630   22.6280 C   0  0  0  0  0  0  0  0  0  0  0  0
  -21.3510  -29.4320   22.4780 N   0  0  0  0  0  0  0  0  0  0  0  0
  -23.3190  -28.9040   23.4460 O   0  0  0  0  0  0  0  0  0  0  0  0
  -20.8840  -30.0080   21.7930 H   0  0  0  0  0  0  0  0  0  0  0  0
  -17.9270  -28.3570   22.9180 C   0  0  0  0  0  0  0  0  0  0  0  0
  -20.4930  -28.5080   23.2150 C   0  0  0  0  0  3  0  0  0  0  0  0
  -20.5520  -27.0950   22.5940 C   0  0  0  0  0  2  0  0  0  0  0  0
  -19.4370  -26.8360   21.5720 C   0  0  0  0  0  2  0  0  0  0  0  0
  -18.0560  -27.0190   22.2140 C   0  0  0  0  0  2  0  0  0  0  0  0
  -19.0720  -29.0660   23.3750 C   0  0  0  0  0  0  0  0  0  0  0  0
  -18.8850  -30.3240   23.9970 C   0  0  0  0  0  3  0  0  0  0  0  0
  -17.5960  -30.8670   24.1570 C   0  0  0  0  0  3  0  0  0  0  0  0
  -16.4710  -30.1560   23.7080 C   0  0  0  0  0  3  0  0  0  0  0  0
  -16.6390  -28.9010   23.0960 C   0  0  0  0  0  3  0  0  0  0  0  0
  -25.9150  -32.4500   24.0670 C   0  0  0  0  0  3  0  0  0  0  0  0
  -25.6580  -33.8530   24.4160 N   0  0  0  0  0  0  0  0  0  0  0  0
  -26.0220  -34.8970   23.6550 C   0  0  0  0  0  0  0  0  0  0  0  0
  -26.6700  -34.7710   22.6100 O   0  0  0  0  0  0  0  0  0  0  0  0
  -25.0670  -34.0180   25.2200 H   0  0  0  0  0  0  0  0  0  0  0  0
  -24.3440  -36.7420   23.3310 C   0  0  0  0  0  1  0  0  0  0  0  0
  -25.5860  -36.2960   24.1200 C   0  0  0  0  0  3  0  0  0  0  0  0
  -27.7620  -37.1020   24.9180 C   0  0  0  0  0  1  0  0  0  0  0  0
  -26.6540  -37.3100   23.9880 N   0  0  0  0  0  0  0  0  0  0  0  0
  -26.2820  -38.2430   24.1380 H   0  0  0  0  0  0  0  0  0  0  0  0
  -26.3660  -31.6350   25.3390 C   0  0  1  0  0  0  0  0  0  0  0  0
  -25.2440  -31.4190   26.3820 C   0  0  0  0  0  1  0  0  0  0  0  0
  -26.9110  -30.2460   24.9250 C   0  0  0  0  0  1  0  0  0  0  0  0
  -27.5400  -32.3650   26.0370 C   0  0  0  0  0  1  0  0  0  0  0  0
  -25.5460  -24.9520   14.9490 C   0  0  0  0  0  2  0  0  0  0  0  0
  -26.2720  -26.2590   15.3470 C   0  0  0  0  0  2  0  0  0  0  0  0
  -27.8160  -26.1430   15.5690 C   0  0  0  0  0  3  0  0  0  0  0  0
  -28.2640  -25.0190   16.5270 C   0  0  0  0  0  3  0  0  0  0  0  0
  -29.7830  -24.8500   16.7780 C   0  0  0  0  0  2  0  0  0  0  0  0
  -29.9750  -23.5460   17.6030 C   0  0  0  0  0  2  0  0  0  0  0  0
  -31.3640  -23.1470   18.1430 C   0  0  0  0  0  2  0  0  0  0  0  0
  -31.3390  -22.0910   19.3040 C   0  0  0  0  0  2  0  0  0  0  0  0
  -30.8780  -20.6430   18.9640 C   0  0  0  0  0  2  0  0  0  0  0  0
  -30.5990  -19.7460   20.2090 C   0  0  0  0  0  2  0  0  0  0  0  0
  -30.2460  -18.2560   19.9440 C   0  0  0  0  0  2  0  0  0  0  0  0
  -30.0990  -17.4250   21.2600 C   0  0  0  0  0  2  0  0  0  0  0  0
  -30.6200  -14.9980   20.7080 C   0  0  0  0  0  0  0  0  0  0  0  0
  -30.4580  -12.8470   19.5340 C   0  0  0  0  0  2  0  0  0  0  0  0
  -29.5490  -13.0310   18.2970 C   0  0  0  0  0  2  0  0  0  0  0  0
  -28.0650  -12.8380   18.6650 C   0  0  0  0  0  2  0  0  0  0  0  0
  -27.6580  -13.6280   19.9340 C   0  0  0  0  0  3  0  0  0  0  0  0
  -28.6790  -13.4270   21.0790 C   0  0  0  0  0  2  0  0  0  0  0  0
  -30.0080  -13.7930   20.5580 N   0  0  0  0  0  0  0  0  0  0  0  0
  -31.7910  -15.2120   20.3890 O   0  0  0  0  0  0  0  0  0  0  0  0
  -29.7900  -16.0010   21.0520 N   0  0  0  0  0  0  0  0  0  0  0  0
  -28.8250  -15.7360   21.1820 H   0  0  0  0  0  0  0  0  0  0  0  0
  -25.2170  -14.1610   20.5440 C   0  0  0  0  0  0  0  0  0  0  0  0
  -24.1620  -13.3590   20.8540 C   0  0  0  0  0  0  0  0  0  0  0  0
  -24.6570  -12.0180   20.8220 C   0  0  0  0  0  0  0  0  0  0  0  0
  -26.2970  -13.3120   20.3460 N   0  0  0  0  0  0  0  0  0  0  0  0
  -25.9600  -12.0150   20.5730 N   0  0  0  0  0  0  0  0  0  0  0  0
  -23.9580  -10.7410   20.9530 C   0  0  0  0  0  0  0  0  0  0  0  0
  -24.3930   -9.7630   21.8710 C   0  0  0  0  0  3  0  0  0  0  0  0
  -23.7040   -8.5390   21.9880 C   0  0  0  0  0  3  0  0  0  0  0  0
  -22.5620   -8.2870   21.1920 C   0  0  0  0  0  0  0  0  0  0  0  0
  -22.1480   -9.2580   20.2590 C   0  0  0  0  0  3  0  0  0  0  0  0
  -22.8380  -10.4750   20.1370 C   0  0  0  0  0  3  0  0  0  0  0  0
  -21.8370   -7.1210   21.2280 O   0  0  0  0  0  0  0  0  0  0  0  0
  -21.7780   -6.3400   22.3570 C   0  0  0  0  0  0  0  0  0  0  0  0
  -21.3170   -6.8480   23.5900 C   0  0  0  0  0  3  0  0  0  0  0  0
  -21.2060   -5.9950   24.7080 C   0  0  0  0  0  3  0  0  0  0  0  0
  -21.5480   -4.6350   24.5910 C   0  0  0  0  0  0  0  0  0  0  0  0
  -22.0020   -4.1240   23.3630 C   0  0  0  0  0  3  0  0  0  0  0  0
  -22.1130   -4.9750   22.2490 C   0  0  0  0  0  0  0  0  0  0  0  0
  -22.5340   -4.4710   21.0630 F   0  0  0  0  0  0  0  0  0  0  0  0
  -21.4350   -3.8150   25.6630 F   0  0  0  0  0  0  0  0  0  0  0  0
  -22.7380  -13.7900   21.0780 C   0  0  0  0  0  0  0  0  0  0  0  0
  -22.0020  -13.0650   21.9060 N   0  0  0  0  0  0  0  0  0  0  0  0
  -22.2920  -14.8140   20.5520 O   0  0  0  0  0  0  0  0  0  0  0  0
  -22.3770  -12.2390   22.3500 H   0  0  0  0  0  0  0  0  0  0  0  0
  -21.0450  -13.3260   22.0980 H   0  0  0  0  0  0  0  0  0  0  0  0
  -25.3540  -15.5420   20.3920 N   0  0  0  0  0  0  0  0  0  0  0  0
  -24.5560  -16.1610   20.4790 H   0  0  0  0  0  0  0  0  0  0  0  0
  -26.1950  -16.0140   20.0820 H   0  0  0  0  0  0  0  0  0  0  0  0
  1  2  1  0
  1  7  1  0
  3  5  1  0
  4  8  2  0
  5  9  1  0
  5  6  2  0
  6 11  1  0
  7  3  2  0
  7  4  1  0
  8  6  1  0
  8 10  1  0
 11 12  1  0
 13 12  1  0
 14 25  2  0
 15 13  1  0
 15 20  1  0
 16 24  1  0
 16 26  1  0
 17 23  1  0
 17 19  1  0
 18 24  1  0
 19 20  2  0
 19 18  1  0
 21 22  1  0
 21 15  2  0
 22 17  2  0
 23 16  1  0
 24 14  1  0
 26 28  2  0
 27 26  1  0
 29 27  1  0
 30 39  2  0
 30 35  1  0
 31 27  1  0
 31 35  1  0
 32 31  1  0
 33 34  1  0
 33 32  1  0
 34 30  1  0
 35 36  2  0
 36 37  1  0
 38 37  2  0
 39 38  1  0
 40 14  1  0
 40 41  1  0
 40 50  1  0
 41 44  1  0
 42 46  1  0
 42 41  1  0
 43 42  2  0
 46 45  1  0
 48 46  1  0
 48 49  1  0
 48 47  1  0
 50 53  1  1
 50 51  1  0
 52 50  1  0
 54 55  1  0
 54  1  1  0
 55 56  1  0
 56 57  2  0
 57 58  1  0
 58 59  1  0
 59 60  1  0
 60 61  1  0
 62 61  1  0
 62 63  1  0
 64 63  1  0
 64 65  1  0
 66 74  1  0
 67 72  1  0
 68 69  1  0
 68 67  1  0
 70 69  1  0
 70 79  1  0
 70 71  1  0
 72 66  1  0
 72 71  1  0
 73 66  2  0
 74 75  1  0
 74 65  1  0
 76 77  2  0
 77 96  1  0
 78 77  1  0
 78 81  1  0
 79 76  1  0
 79 80  1  0
 80 78  2  0
 81 82  1  0
 82 83  2  0
 84 87  1  0
 84 83  1  0
 85 84  2  0
 86 85  1  0
 86 81  2  0
 87 88  1  0
 88 89  1  0
 89 90  2  0
 91 90  1  0
 91 95  1  0
 92 91  2  0
 93 88  2  0
 93 92  1  0
 94 93  1  0
 96 97  1  0
 97100  1  0
 97 99  1  0
 98 96  2  0
101102  1  0
101 76  1  0
103101  1  0
M  ISO  4  12 101  13 101  66 100  74 100
M  END
>  <TORSDO>  (63) 
F 31

>  <SCORE>  (63) 
-10.464

>  <name>  (63) 
63

>  <ligand_id>  (63) 
63

>  <original_smiles>  (63) 
[H]c1c([H])c([H])c2c(c1[H])C([H])([H])C([H])([H])C([H])([H])C2([H])N([H])C(=O)C1([H])N(C(=O)C([H])(N([H])C(=O)C([H])(N([H])C([H])([H])[H])C([H])([H])[H])C(C([H])([H])[H])(C([H])([H])[H])C([H])([H])[H])C([H])([H])c2c([H])c(OC([H])([H])C([H])([H])c3c(Cl)c([H])c(N([H])C([H])([H])C([H])([H])C([H])([H])C([H])([H])C([H])([H])C([H])([H])C([H])([H])C([H])([H])C([H])([H])C([H])([H])C([H])([H])C([H])([H])N([H])C(=O)N4C([H])([H])C([H])([H])C([H])([H])C([H])(n5nc(-c6c([H])c([H])c(Oc7c([H])c([H])c(F)c([H])c7F)c([H])c6[H])c(C(=O)N([H])[H])c5N([H])[H])C4([H])[H])c([H])c3C([H])([H])[H])c([H])c([H])c2C1([H])[H]

>  <smiles>  (63) 
[H]c1c([H])c([H])c2c(c1[H])C([H])([H])C([H])([H])C([H])([H])C2([H])N([H])C(=O)C1([H])N(C(=O)C([H])(N([H])C(=O)C([H])(N([H])C([H])([H])[H])C([H])([H])[H])C(C([H])([H])[H])(C([H])([H])[H])C([H])([H])[H])C([H])([H])c2c([H])c(OC([H])([H])C([H])([H])c3c(Cl)c([H])c(N([H])C([H])([H])C([H])([H])C([H])([H])C([H])([H])C([H])([H])C([H])([H])C([H])([H])C([H])([H])C([H])([H])C([H])([H])C([H])([H])C([H])([H])N([H])C(=O)N4C([H])([H])C([H])([H])C([H])([H])C([H])(n5nc(-c6c([H])c([H])c(Oc7c([H])c([H])c(F)c([H])c7F)c([H])c6[H])c(C(=O)N([H])[H])c5N([H])[H])C4([H])[H])c([H])c3C([H])([H])[H])c([H])c([H])c2C1([H])[H]

$$$$
64:0:0
     RDKit          3D

 94103  0  0  1  0  0  0  0  0999 V2000
  -29.1270  -21.0660   19.7340 C   0  0  0  0  0  3  0  0  0  0  0  0
  -29.2770  -21.2470   22.1430 C   0  0  0  0  0  3  0  0  0  0  0  0
  -28.8620  -22.4610   19.6350 C   0  0  0  0  0  0  0  0  0  0  0  0
  -28.7820  -23.2590   20.8080 C   0  0  0  0  0  0  0  0  0  0  0  0
  -29.3280  -20.4380   20.9870 C   0  0  0  0  0  0  0  0  0  0  0  0
  -28.9970  -22.6340   22.0660 C   0  0  0  0  0  0  0  0  0  0  0  0
  -28.6940  -23.0860   18.2470 C   0  0  0  0  0  2  0  0  0  0  0  0
  -28.4560  -24.7690   20.7260 C   0  0  0  0  0  2  0  0  0  0  0  0
  -28.1770  -24.5460   18.2240 C   0  0  0  0  0  2  0  0  0  0  0  0
  -28.7630  -25.4240   19.3550 C   0  0  2  0  0  0  0  0  0  0  0  0
  -28.9100  -23.4300   23.3590 C   0  0  0  0  0  1  0  0  0  0  0  0
  -30.2970  -25.5080   19.1910 C   0  0  0  0  0  1  0  0  0  0  0  0
  -28.4670  -26.8430   19.2590 O   0  0  0  0  0  0  0  0  0  0  0  0
  -24.7520  -31.6430   22.9820 C   0  0  0  0  0  0  0  0  0  0  0  0
  -27.2330  -27.4630   19.4060 C   0  0  0  0  0  0  0  0  0  0  0  0
  -23.4560  -30.3600   21.3110 C   0  0  0  0  0  3  0  0  0  0  0  0
  -24.8250  -28.9460   19.6860 C   0  0  0  0  0  0  0  0  0  0  0  0
  -25.9590  -30.7590   20.9830 C   0  0  0  0  0  2  0  0  0  0  0  0
  -26.0130  -29.4380   20.2360 C   0  0  0  0  0  0  0  0  0  0  0  0
  -27.2120  -28.7080   20.0840 C   0  0  0  0  0  3  0  0  0  0  0  0
  -26.0190  -26.9790   18.8720 C   0  0  0  0  0  3  0  0  0  0  0  0
  -24.8230  -27.7190   19.0010 C   0  0  0  0  0  3  0  0  0  0  0  0
  -23.5840  -29.7940   19.8700 C   0  0  0  0  0  2  0  0  0  0  0  0
  -24.7440  -30.9340   21.8170 N   0  0  0  0  0  0  0  0  0  0  0  0
  -23.7060  -31.8570   23.6100 O   0  0  0  0  0  0  0  0  0  0  0  0
  -22.8750  -29.2590   22.2260 C   0  0  0  0  0  0  0  0  0  0  0  0
  -21.5510  -29.0460   22.1430 N   0  0  0  0  0  0  0  0  0  0  0  0
  -23.6100  -28.6020   22.9680 O   0  0  0  0  0  0  0  0  0  0  0  0
  -21.0160  -29.6340   21.5180 H   0  0  0  0  0  0  0  0  0  0  0  0
  -18.2450  -27.6860   22.6620 C   0  0  0  0  0  0  0  0  0  0  0  0
  -20.7970  -28.0340   22.8810 C   0  0  0  0  0  3  0  0  0  0  0  0
  -20.9400  -26.6420   22.2220 C   0  0  0  0  0  2  0  0  0  0  0  0
  -19.8240  -26.3310   21.2200 C   0  0  0  0  0  2  0  0  0  0  0  0
  -18.4570  -26.3850   21.9070 C   0  0  0  0  0  2  0  0  0  0  0  0
  -19.3440  -28.4680   23.1070 C   0  0  0  0  0  0  0  0  0  0  0  0
  -19.0930  -29.6860   23.7730 C   0  0  0  0  0  3  0  0  0  0  0  0
  -17.7750  -30.1240   24.0010 C   0  0  0  0  0  3  0  0  0  0  0  0
  -16.6910  -29.3380   23.5730 C   0  0  0  0  0  3  0  0  0  0  0  0
  -16.9270  -28.1210   22.9080 C   0  0  0  0  0  3  0  0  0  0  0  0
  -26.0720  -32.2380   23.5690 C   0  0  0  0  0  3  0  0  0  0  0  0
  -26.6940  -31.3600   24.7230 C   0  0  1  0  0  0  0  0  0  0  0  0
  -25.6900  -31.0040   25.8430 C   0  0  0  0  0  1  0  0  0  0  0  0
  -27.2580  -30.0390   24.1530 C   0  0  0  0  0  1  0  0  0  0  0  0
  -27.8810  -32.1090   25.3730 C   0  0  0  0  0  1  0  0  0  0  0  0
  -25.7730  -33.5910   24.0560 N   0  0  0  0  0  0  0  0  0  0  0  0
  -26.0100  -34.7170   23.3690 C   0  0  0  0  0  0  0  0  0  0  0  0
  -26.5800  -34.7270   22.2750 O   0  0  0  0  0  0  0  0  0  0  0  0
  -25.2650  -33.6560   24.9260 H   0  0  0  0  0  0  0  0  0  0  0  0
  -24.2080  -36.4690   23.3580 C   0  0  0  0  0  1  0  0  0  0  0  0
  -25.5370  -36.0410   23.9980 C   0  0  0  0  0  3  0  0  0  0  0  0
  -27.7220  -36.9250   24.6830 C   0  0  0  0  0  1  0  0  0  0  0  0
  -26.5230  -37.1360   23.8750 N   0  0  0  0  0  0  0  0  0  0  0  0
  -26.1100  -38.0240   24.1460 H   0  0  0  0  0  0  0  0  0  0  0  0
  -29.5230  -18.9090   21.1320 C   0  0  0  0  0  2  0  0  0  0  0  0
  -30.9250  -18.3470   20.7670 C   0  0  0  0  0  2  0  0  0  0  0  0
  -31.3280  -16.9770   21.4040 C   0  0  0  0  0  2  0  0  0  0  0  0
  -31.3250  -14.7400   20.2100 C   0  0  0  0  0  0  0  0  0  0  0  0
  -30.9660  -12.5530   19.1000 C   0  0  0  0  0  2  0  0  0  0  0  0
  -30.0010  -12.6990   17.9060 C   0  0  0  0  0  2  0  0  0  0  0  0
  -28.5320  -12.6130   18.3650 C   0  0  0  0  0  2  0  0  0  0  0  0
  -28.2330  -13.5160   19.5920 C   0  0  0  0  0  3  0  0  0  0  0  0
  -29.2970  -13.3150   20.6910 C   0  0  0  0  0  2  0  0  0  0  0  0
  -30.6160  -13.5830   20.0920 N   0  0  0  0  0  0  0  0  0  0  0  0
  -32.4410  -14.8890   19.7030 O   0  0  0  0  0  0  0  0  0  0  0  0
  -30.7050  -15.7500   20.8640 N   0  0  0  0  0  0  0  0  0  0  0  0
  -29.7690  -15.5450   21.1810 H   0  0  0  0  0  0  0  0  0  0  0  0
  -25.9000  -14.2340   20.4030 C   0  0  0  0  0  0  0  0  0  0  0  0
  -24.7980  -13.5110   20.7720 C   0  0  0  0  0  0  0  0  0  0  0  0
  -25.1730  -12.1370   20.6680 C   0  0  0  0  0  0  0  0  0  0  0  0
  -26.8820  -13.3030   20.1020 N   0  0  0  0  0  0  0  0  0  0  0  0
  -26.4500  -12.0340   20.3190 N   0  0  0  0  0  0  0  0  0  0  0  0
  -24.3780  -10.9120   20.8260 C   0  0  0  0  0  0  0  0  0  0  0  0
  -24.7580   -9.8950   21.7280 C   0  0  0  0  0  3  0  0  0  0  0  0
  -23.9650   -8.7360   21.8750 C   0  0  0  0  0  3  0  0  0  0  0  0
  -22.7780   -8.5870   21.1180 C   0  0  0  0  0  0  0  0  0  0  0  0
  -22.4160   -9.5930   20.2050 C   0  0  0  0  0  3  0  0  0  0  0  0
  -23.2090  -10.7440   20.0570 C   0  0  0  0  0  3  0  0  0  0  0  0
  -21.9600   -7.4850   21.1760 O   0  0  0  0  0  0  0  0  0  0  0  0
  -21.8330   -6.7430   22.3220 C   0  0  0  0  0  0  0  0  0  0  0  0
  -21.3910   -7.3150   23.5360 C   0  0  0  0  0  3  0  0  0  0  0  0
  -21.2080   -6.5020   24.6710 C   0  0  0  0  0  3  0  0  0  0  0  0
  -21.4550   -5.1180   24.5950 C   0  0  0  0  0  0  0  0  0  0  0  0
  -21.8900   -4.5450   23.3860 C   0  0  0  0  0  3  0  0  0  0  0  0
  -22.0740   -5.3560   22.2530 C   0  0  0  0  0  0  0  0  0  0  0  0
  -22.4730   -4.7960   21.0840 F   0  0  0  0  0  0  0  0  0  0  0  0
  -21.2710   -4.3350   25.6840 F   0  0  0  0  0  0  0  0  0  0  0  0
  -23.4410  -14.0580   21.1100 C   0  0  0  0  0  0  0  0  0  0  0  0
  -22.7020  -13.3730   21.9750 N   0  0  0  0  0  0  0  0  0  0  0  0
  -23.0480  -15.1270   20.6430 O   0  0  0  0  0  0  0  0  0  0  0  0
  -23.0350  -12.5070   22.3740 H   0  0  0  0  0  0  0  0  0  0  0  0
  -21.7910  -13.7180   22.2430 H   0  0  0  0  0  0  0  0  0  0  0  0
  -26.1440  -15.5980   20.2800 N   0  0  0  0  0  0  0  0  0  0  0  0
  -25.4220  -16.2940   20.4310 H   0  0  0  0  0  0  0  0  0  0  0  0
  -27.0120  -15.9970   19.9430 H   0  0  0  0  0  0  0  0  0  0  0  0
  1  5  1  0
  3  1  2  0
  3  4  1  0
  4  6  2  0
  5 54  1  0
  5  2  2  0
  6  2  1  0
  6 11  1  0
  7  3  1  0
  8  4  1  0
  9  7  1  0
  9 10  1  0
 10 12  1  6
 10  8  1  0
 13 10  1  0
 13 15  1  0
 14 25  2  0
 15 20  1  0
 16 24  1  0
 16 26  1  0
 17 23  1  0
 17 19  1  0
 18 24  1  0
 19 18  1  0
 20 19  2  0
 21 22  1  0
 21 15  2  0
 22 17  2  0
 23 16  1  0
 24 14  1  0
 26 28  2  0
 27 26  1  0
 29 27  1  0
 30 39  2  0
 30 35  1  0
 31 27  1  0
 31 35  1  0
 32 31  1  0
 33 34  1  0
 33 32  1  0
 34 30  1  0
 35 36  2  0
 36 37  1  0
 38 37  2  0
 39 38  1  0
 40 14  1  0
 40 45  1  0
 40 41  1  0
 41 44  1  1
 41 42  1  0
 43 41  1  0
 45 48  1  0
 46 50  1  0
 46 45  1  0
 47 46  2  0
 50 49  1  0
 52 50  1  0
 52 53  1  0
 52 51  1  0
 55 54  1  0
 55 56  1  0
 57 65  1  0
 58 63  1  0
 59 60  1  0
 59 58  1  0
 61 60  1  0
 61 70  1  0
 61 62  1  0
 63 57  1  0
 63 62  1  0
 64 57  2  0
 65 66  1  0
 65 56  1  0
 67 68  2  0
 68 87  1  0
 69 68  1  0
 69 72  1  0
 70 71  1  0
 70 67  1  0
 71 69  2  0
 72 73  1  0
 73 74  2  0
 75 78  1  0
 75 74  1  0
 76 75  2  0
 77 76  1  0
 77 72  2  0
 78 79  1  0
 79 80  1  0
 80 81  2  0
 82 81  1  0
 82 86  1  0
 83 82  2  0
 84 79  2  0
 84 83  1  0
 85 84  1  0
 87 88  1  0
 88 91  1  0
 88 90  1  0
 89 87  2  0
 92 67  1  0
 92 93  1  0
 94 92  1  0
M  ISO  4  10 101  13 101  57 100  65 100
M  END
>  <TORSDO>  (64) 
F 19

>  <SCORE>  (64) 
-12.168

>  <name>  (64) 
64

>  <ligand_id>  (64) 
64

>  <original_smiles>  (64) 
[H]c1c([H])c([H])c2c(c1[H])C([H])([H])C([H])([H])C([H])([H])C2([H])N([H])C(=O)C1([H])N(C(=O)C([H])(N([H])C(=O)C([H])(N([H])C([H])([H])[H])C([H])([H])[H])C(C([H])([H])[H])(C([H])([H])[H])C([H])([H])[H])C([H])([H])c2c([H])c(OC3(C([H])([H])[H])C([H])([H])c4c(C([H])([H])[H])c([H])c(C([H])([H])C([H])([H])C([H])([H])N([H])C(=O)N5C([H])([H])C([H])([H])C([H])([H])C([H])(n6nc(-c7c([H])c([H])c(Oc8c([H])c([H])c(F)c([H])c8F)c([H])c7[H])c(C(=O)N([H])[H])c6N([H])[H])C5([H])[H])c([H])c4C([H])([H])C3([H])[H])c([H])c([H])c2C1([H])[H]

>  <smiles>  (64) 
[H]c1c([H])c([H])c2c(c1[H])C([H])([H])C([H])([H])C([H])([H])C2([H])N([H])C(=O)C1([H])N(C(=O)C([H])(N([H])C(=O)C([H])(N([H])C([H])([H])[H])C([H])([H])[H])C(C([H])([H])[H])(C([H])([H])[H])C([H])([H])[H])C([H])([H])c2c([H])c(OC3(C([H])([H])[H])C([H])([H])c4c(C([H])([H])[H])c([H])c(C([H])([H])C([H])([H])C([H])([H])N([H])C(=O)N5C([H])([H])C([H])([H])C([H])([H])C([H])(n6nc(-c7c([H])c([H])c(Oc8c([H])c([H])c(F)c([H])c8F)c([H])c7[H])c(C(=O)N([H])[H])c6N([H])[H])C5([H])[H])c([H])c4C([H])([H])C3([H])[H])c([H])c([H])c2C1([H])[H]

$$$$
65:0:0
     RDKit          3D

 93101  0  0  1  0  0  0  0  0999 V2000
  -28.5240  -20.5250   20.9020 C   0  0  0  0  0  3  0  0  0  0  0  0
  -29.9530  -22.2010   19.1650 C   0  0  0  0  0  3  0  0  0  0  0  0
  -28.2460  -21.9090   20.8770 C   0  0  0  0  0  0  0  0  0  0  0  0
  -29.5000  -19.9620   20.0560 C   0  0  0  0  0  0  0  0  0  0  0  0
  -28.9660  -22.7680   20.0050 C   0  0  0  0  0  0  0  0  0  0  0  0
  -30.2150  -20.8130   19.1800 C   0  0  0  0  0  0  0  0  0  0  0  0
  -27.1550  -22.4420   21.7910 C   0  0  0  0  0  1  0  0  0  0  0  0
  -31.4100  -20.1820   18.1020 Cl  0  0  0  0  0  0  0  0  0  0  0  0
  -29.7180  -18.4490   20.0830 C   0  0  0  0  0  2  0  0  0  0  0  0
  -31.1230  -18.0130   20.5550 C   0  0  0  0  0  2  0  0  0  0  0  0
  -31.1540  -16.8540   21.5760 C   0  0  0  0  0  2  0  0  0  0  0  0
  -31.0530  -14.7400   20.2230 C   0  0  0  0  0  0  0  0  0  0  0  0
  -30.6780  -12.6070   19.0360 C   0  0  0  0  0  2  0  0  0  0  0  0
  -29.6850  -12.7870   17.8710 C   0  0  0  0  0  2  0  0  0  0  0  0
  -28.2310  -12.6530   18.3620 C   0  0  0  0  0  2  0  0  0  0  0  0
  -27.9440  -13.5180   19.6180 C   0  0  0  0  0  3  0  0  0  0  0  0
  -29.0350  -13.2970   20.6880 C   0  0  0  0  0  2  0  0  0  0  0  0
  -30.3440  -13.5900   20.0760 N   0  0  0  0  0  0  0  0  0  0  0  0
  -32.0870  -14.9850   19.5970 O   0  0  0  0  0  0  0  0  0  0  0  0
  -30.5410  -15.6100   21.1060 N   0  0  0  0  0  0  0  0  0  0  0  0
  -29.6880  -15.3210   21.5620 H   0  0  0  0  0  0  0  0  0  0  0  0
  -25.5970  -14.1580   20.4650 C   0  0  0  0  0  0  0  0  0  0  0  0
  -24.5280  -13.3980   20.8550 C   0  0  0  0  0  0  0  0  0  0  0  0
  -24.9500  -12.0370   20.7480 C   0  0  0  0  0  0  0  0  0  0  0  0
  -26.6070  -13.2610   20.1480 N   0  0  0  0  0  0  0  0  0  0  0  0
  -26.2210  -11.9780   20.3730 N   0  0  0  0  0  0  0  0  0  0  0  0
  -24.2010  -10.7860   20.9220 C   0  0  0  0  0  0  0  0  0  0  0  0
  -24.6060   -9.8080   21.8580 C   0  0  0  0  0  3  0  0  0  0  0  0
  -23.8590   -8.6220   22.0210 C   0  0  0  0  0  3  0  0  0  0  0  0
  -22.6940   -8.4040   21.2470 C   0  0  0  0  0  0  0  0  0  0  0  0
  -22.3090   -9.3700   20.3020 C   0  0  0  0  0  3  0  0  0  0  0  0
  -23.0560  -10.5490   20.1370 C   0  0  0  0  0  3  0  0  0  0  0  0
  -21.9220   -7.2710   21.3190 O   0  0  0  0  0  0  0  0  0  0  0  0
  -21.7890   -6.5620   22.4870 C   0  0  0  0  0  0  0  0  0  0  0  0
  -21.2630   -7.1490   23.6590 C   0  0  0  0  0  3  0  0  0  0  0  0
  -21.0800   -6.3660   24.8160 C   0  0  0  0  0  3  0  0  0  0  0  0
  -21.4120   -4.9980   24.8030 C   0  0  0  0  0  0  0  0  0  0  0  0
  -21.9300   -4.4110   23.6350 C   0  0  0  0  0  3  0  0  0  0  0  0
  -22.1150   -5.1910   22.4790 C   0  0  0  0  0  0  0  0  0  0  0  0
  -22.5950   -4.6160   21.3510 F   0  0  0  0  0  0  0  0  0  0  0  0
  -21.2290   -4.2450   25.9110 F   0  0  0  0  0  0  0  0  0  0  0  0
  -23.1580  -13.8960   21.2160 C   0  0  0  0  0  0  0  0  0  0  0  0
  -22.4570  -13.1840   22.0920 N   0  0  0  0  0  0  0  0  0  0  0  0
  -22.7210  -14.9530   20.7600 O   0  0  0  0  0  0  0  0  0  0  0  0
  -22.8230  -12.3290   22.4820 H   0  0  0  0  0  0  0  0  0  0  0  0
  -21.5400  -13.4990   22.3730 H   0  0  0  0  0  0  0  0  0  0  0  0
  -25.7910  -15.5300   20.3340 N   0  0  0  0  0  0  0  0  0  0  0  0
  -25.0510  -16.2010   20.5070 H   0  0  0  0  0  0  0  0  0  0  0  0
  -26.6400  -15.9560   19.9830 H   0  0  0  0  0  0  0  0  0  0  0  0
  -28.6360  -24.2670   19.9700 C   0  0  0  0  0  2  0  0  0  0  0  0
  -29.6700  -25.2360   19.3510 C   0  0  0  0  0  2  0  0  0  0  0  0
  -29.3360  -25.7700   17.9430 C   0  0  0  0  0  2  0  0  0  0  0  0
  -29.0180  -27.1690   17.9960 O   0  0  0  0  0  0  0  0  0  0  0  0
  -24.8140  -30.6110   22.5960 C   0  0  0  0  0  0  0  0  0  0  0  0
  -27.7300  -27.5700   18.2940 C   0  0  0  0  0  0  0  0  0  0  0  0
  -23.6500  -29.4010   20.7810 C   0  0  0  0  0  3  0  0  0  0  0  0
  -25.1340  -28.5290   18.9020 C   0  0  0  0  0  0  0  0  0  0  0  0
  -26.0290  -30.2790   20.4460 C   0  0  0  0  0  2  0  0  0  0  0  0
  -26.2560  -29.1280   19.4870 C   0  0  0  0  0  0  0  0  0  0  0  0
  -27.5520  -28.6570   19.1800 C   0  0  0  0  0  3  0  0  0  0  0  0
  -26.5830  -26.9770   17.7130 C   0  0  0  0  0  3  0  0  0  0  0  0
  -25.2920  -27.4510   18.0160 C   0  0  0  0  0  3  0  0  0  0  0  0
  -23.7810  -29.0970   19.2660 C   0  0  0  0  0  2  0  0  0  0  0  0
  -24.8540  -30.1020   21.3330 N   0  0  0  0  0  0  0  0  0  0  0  0
  -23.7850  -30.5410   23.2830 O   0  0  0  0  0  0  0  0  0  0  0  0
  -23.3170  -28.0840   21.5190 C   0  0  0  0  0  0  0  0  0  0  0  0
  -22.0560  -27.6370   21.4050 N   0  0  0  0  0  0  0  0  0  0  0  0
  -24.1860  -27.4760   22.1520 O   0  0  0  0  0  0  0  0  0  0  0  0
  -21.4040  -28.1980   20.8740 H   0  0  0  0  0  0  0  0  0  0  0  0
  -19.0810  -25.6070   21.6990 C   0  0  0  0  0  0  0  0  0  0  0  0
  -21.5240  -26.4020   21.9800 C   0  0  0  0  0  3  0  0  0  0  0  0
  -21.9150  -25.1760   21.1230 C   0  0  0  0  0  2  0  0  0  0  0  0
  -20.8540  -24.8050   20.0820 C   0  0  0  0  0  2  0  0  0  0  0  0
  -19.5180  -24.4930   20.7620 C   0  0  0  0  0  2  0  0  0  0  0  0
  -20.0210  -26.5130   22.2580 C   0  0  0  0  0  0  0  0  0  0  0  0
  -19.5580  -27.5510   23.0950 C   0  0  0  0  0  3  0  0  0  0  0  0
  -18.1870  -27.6910   23.3760 C   0  0  0  0  0  3  0  0  0  0  0  0
  -17.2620  -26.7820   22.8340 C   0  0  0  0  0  3  0  0  0  0  0  0
  -17.7100  -25.7410   22.0010 C   0  0  0  0  0  3  0  0  0  0  0  0
  -26.0480  -31.3260   23.2300 C   0  0  0  0  0  3  0  0  0  0  0  0
  -25.5670  -32.5670   23.8510 N   0  0  0  0  0  0  0  0  0  0  0  0
  -25.6840  -33.7840   23.3050 C   0  0  0  0  0  0  0  0  0  0  0  0
  -26.2790  -33.9880   22.2420 O   0  0  0  0  0  0  0  0  0  0  0  0
  -25.0200  -32.4690   24.6940 H   0  0  0  0  0  0  0  0  0  0  0  0
  -23.6940  -35.3180   23.4000 C   0  0  0  0  0  1  0  0  0  0  0  0
  -25.0370  -34.9640   24.0560 C   0  0  0  0  0  3  0  0  0  0  0  0
  -27.0750  -35.9960   24.9570 C   0  0  0  0  0  1  0  0  0  0  0  0
  -25.8970  -36.1670   24.1110 N   0  0  0  0  0  0  0  0  0  0  0  0
  -25.3740  -36.9680   24.4550 H   0  0  0  0  0  0  0  0  0  0  0  0
  -26.8120  -30.4330   24.2830 C   0  0  1  0  0  0  0  0  0  0  0  0
  -25.8900  -29.8240   25.3660 C   0  0  0  0  0  1  0  0  0  0  0  0
  -27.5480  -29.2680   23.5790 C   0  0  0  0  0  1  0  0  0  0  0  0
  -27.8960  -31.2750   24.9970 C   0  0  0  0  0  1  0  0  0  0  0  0
  2  6  2  0
  2  5  1  0
  3  1  1  0
  3  7  1  0
  4  9  1  0
  4  1  2  0
  5  3  2  0
  6  4  1  0
  8  6  1  0
  9 10  1  0
 10 11  1  0
 12 20  1  0
 13 18  1  0
 14 15  1  0
 14 13  1  0
 16 15  1  0
 16 25  1  0
 16 17  1  0
 18 12  1  0
 18 17  1  0
 19 12  2  0
 20 21  1  0
 20 11  1  0
 22 23  2  0
 23 42  1  0
 24 23  1  0
 24 27  1  0
 25 26  1  0
 25 22  1  0
 26 24  2  0
 27 28  1  0
 28 29  2  0
 30 33  1  0
 30 29  1  0
 31 30  2  0
 32 31  1  0
 32 27  2  0
 33 34  1  0
 34 35  1  0
 35 36  2  0
 37 36  1  0
 37 41  1  0
 38 37  2  0
 39 34  2  0
 39 38  1  0
 40 39  1  0
 42 43  1  0
 43 46  1  0
 43 45  1  0
 44 42  2  0
 47 22  1  0
 47 48  1  0
 49 47  1  0
 50  5  1  0
 51 50  1  0
 52 53  1  0
 52 51  1  0
 53 55  1  0
 54 65  2  0
 55 60  1  0
 56 64  1  0
 56 66  1  0
 57 63  1  0
 57 59  1  0
 58 64  1  0
 59 58  1  0
 60 59  2  0
 61 62  1  0
 61 55  2  0
 62 57  2  0
 63 56  1  0
 64 54  1  0
 66 68  2  0
 67 66  1  0
 69 67  1  0
 70 79  2  0
 70 75  1  0
 71 67  1  0
 71 75  1  0
 72 71  1  0
 73 74  1  0
 73 72  1  0
 74 70  1  0
 75 76  2  0
 76 77  1  0
 78 77  2  0
 79 78  1  0
 80 54  1  0
 80 81  1  0
 80 90  1  0
 81 84  1  0
 82 81  1  0
 82 86  1  0
 83 82  2  0
 86 85  1  0
 86 88  1  0
 88 89  1  0
 88 87  1  0
 90 93  1  1
 90 91  1  0
 92 90  1  0
M  ISO  4  12 100  20 100  52 101  53 101
M  END
>  <TORSDO>  (65) 
F 22

>  <SCORE>  (65) 
-8.900

>  <name>  (65) 
65

>  <ligand_id>  (65) 
65

>  <original_smiles>  (65) 
[H]c1c([H])c([H])c2c(c1[H])C([H])([H])C([H])([H])C([H])([H])C2([H])N([H])C(=O)C1([H])N(C(=O)C([H])(N([H])C(=O)C([H])(N([H])C([H])([H])[H])C([H])([H])[H])C(C([H])([H])[H])(C([H])([H])[H])C([H])([H])[H])C([H])([H])c2c([H])c(OC([H])([H])C([H])([H])C([H])([H])c3c([H])c(Cl)c(C([H])([H])C([H])([H])C([H])([H])N([H])C(=O)N4C([H])([H])C([H])([H])C([H])([H])C([H])(n5nc(-c6c([H])c([H])c(Oc7c([H])c([H])c(F)c([H])c7F)c([H])c6[H])c(C(=O)N([H])[H])c5N([H])[H])C4([H])[H])c([H])c3C([H])([H])[H])c([H])c([H])c2C1([H])[H]

>  <smiles>  (65) 
[H]c1c([H])c([H])c2c(c1[H])C([H])([H])C([H])([H])C([H])([H])C2([H])N([H])C(=O)C1([H])N(C(=O)C([H])(N([H])C(=O)C([H])(N([H])C([H])([H])[H])C([H])([H])[H])C(C([H])([H])[H])(C([H])([H])[H])C([H])([H])[H])C([H])([H])c2c([H])c(OC([H])([H])C([H])([H])C([H])([H])c3c([H])c(Cl)c(C([H])([H])C([H])([H])C([H])([H])N([H])C(=O)N4C([H])([H])C([H])([H])C([H])([H])C([H])(n5nc(-c6c([H])c([H])c(Oc7c([H])c([H])c(F)c([H])c7F)c([H])c6[H])c(C(=O)N([H])[H])c5N([H])[H])C4([H])[H])c([H])c3C([H])([H])[H])c([H])c([H])c2C1([H])[H]

$$$$
66:0:0
     RDKit          3D

 92101  0  0  1  0  0  0  0  0999 V2000
  -28.7120  -20.0130   20.9780 C   0  0  0  0  0  3  0  0  0  0  0  0
  -28.7210  -21.2830   20.3560 C   0  0  0  0  0  3  0  0  0  0  0  0
  -29.9870  -16.4730   20.6560 C   0  0  0  0  0  3  0  0  0  0  0  0
  -29.3220  -18.8470   20.4280 C   0  0  0  0  0  0  0  0  0  0  0  0
  -29.3250  -21.5120   19.1050 C   0  0  0  0  0  0  0  0  0  0  0  0
  -29.3390  -17.6260   21.1620 C   0  0  0  0  0  0  0  0  0  0  0  0
  -29.8900  -20.2530   18.5050 C   0  0  0  0  0  0  0  0  0  0  0  0
  -29.9410  -18.8880   19.1500 C   0  0  0  0  0  0  0  0  0  0  0  0
  -30.5600  -16.4090   19.3680 C   0  0  0  0  0  0  0  0  0  0  0  0
  -28.6760  -17.4990   22.5300 C   0  0  0  0  0  1  0  0  0  0  0  0
  -30.5190  -17.6590   18.6660 N   0  0  0  0  0  0  0  0  0  0  0  0
  -31.2930  -15.0170   18.9040 C   0  0  0  0  0  0  0  0  0  0  0  0
  -31.1590  -12.5790   18.1490 C   0  0  0  0  0  2  0  0  0  0  0  0
  -29.9790  -12.3880   17.1620 C   0  0  0  0  0  2  0  0  0  0  0  0
  -28.6480  -12.1460   17.9030 C   0  0  0  0  0  2  0  0  0  0  0  0
  -28.4670  -13.1130   19.0980 C   0  0  0  0  0  3  0  0  0  0  0  0
  -29.7390  -13.2090   19.9540 C   0  0  0  0  0  2  0  0  0  0  0  0
  -30.8220  -13.7030   19.0850 N   0  0  0  0  0  0  0  0  0  0  0  0
  -32.3400  -15.1080   18.2390 O   0  0  0  0  0  0  0  0  0  0  0  0
  -26.4670  -13.6780   20.5930 C   0  0  0  0  0  0  0  0  0  0  0  0
  -25.4650  -12.9100   21.1210 C   0  0  0  0  0  0  0  0  0  0  0  0
  -25.7400  -11.5680   20.7130 C   0  0  0  0  0  0  0  0  0  0  0  0
  -27.2910  -12.8030   19.9020 N   0  0  0  0  0  0  0  0  0  0  0  0
  -26.8810  -11.5160   20.0340 N   0  0  0  0  0  0  0  0  0  0  0  0
  -24.9530  -10.3390   20.8850 C   0  0  0  0  0  0  0  0  0  0  0  0
  -25.3870   -9.2960   21.7320 C   0  0  0  0  0  3  0  0  0  0  0  0
  -24.6010   -8.1330   21.8940 C   0  0  0  0  0  3  0  0  0  0  0  0
  -23.3700   -8.0040   21.2080 C   0  0  0  0  0  0  0  0  0  0  0  0
  -22.9560   -9.0380   20.3500 C   0  0  0  0  0  3  0  0  0  0  0  0
  -23.7370  -10.1930   20.1870 C   0  0  0  0  0  3  0  0  0  0  0  0
  -22.5590   -6.8980   21.2780 O   0  0  0  0  0  0  0  0  0  0  0  0
  -22.3110   -6.2620   22.4690 C   0  0  0  0  0  0  0  0  0  0  0  0
  -21.7370   -6.9380   23.5670 C   0  0  0  0  0  3  0  0  0  0  0  0
  -21.4350   -6.2310   24.7490 C   0  0  0  0  0  3  0  0  0  0  0  0
  -21.6990   -4.8500   24.8310 C   0  0  0  0  0  0  0  0  0  0  0  0
  -22.2660   -4.1760   23.7360 C   0  0  0  0  0  3  0  0  0  0  0  0
  -22.5690   -4.8790   22.5580 C   0  0  0  0  0  0  0  0  0  0  0  0
  -23.0940   -4.2190   21.4970 F   0  0  0  0  0  0  0  0  0  0  0  0
  -21.4040   -4.1710   25.9640 F   0  0  0  0  0  0  0  0  0  0  0  0
  -24.2660  -13.4070   21.8760 C   0  0  0  0  0  0  0  0  0  0  0  0
  -23.7590  -12.6100   22.8090 N   0  0  0  0  0  0  0  0  0  0  0  0
  -23.7980  -14.5280   21.6700 O   0  0  0  0  0  0  0  0  0  0  0  0
  -24.1520  -11.6970   22.9850 H   0  0  0  0  0  0  0  0  0  0  0  0
  -22.9690  -12.9100   23.3630 H   0  0  0  0  0  0  0  0  0  0  0  0
  -26.7470  -15.0420   20.6230 N   0  0  0  0  0  0  0  0  0  0  0  0
  -26.1570  -15.7160   21.0970 H   0  0  0  0  0  0  0  0  0  0  0  0
  -27.5650  -15.4610   20.1970 H   0  0  0  0  0  0  0  0  0  0  0  0
  -29.3090  -20.2650   16.0440 C   0  0  0  0  0  1  0  0  0  0  0  0
  -30.4340  -20.3640   17.0880 C   0  0  0  0  0  2  0  0  0  0  0  0
  -29.4580  -23.1090   18.6010 C   0  0  0  0  0  3  0  0  0  0  0  0
  -28.3870  -24.4240   18.8160 C   0  0  0  0  0  3  0  0  0  0  0  0
  -28.6520  -25.9860   18.7040 O   0  0  0  0  0  0  0  0  0  0  0  0
  -25.1840  -30.9480   23.0020 C   0  0  0  0  0  0  0  0  0  0  0  0
  -27.6200  -26.9870   18.9170 C   0  0  0  0  0  0  0  0  0  0  0  0
  -23.9290  -29.9540   21.1320 C   0  0  0  0  0  3  0  0  0  0  0  0
  -25.3200  -28.7320   19.3450 C   0  0  0  0  0  0  0  0  0  0  0  0
  -26.4800  -30.2360   20.9490 C   0  0  0  0  0  2  0  0  0  0  0  0
  -26.5230  -29.0210   20.0020 C   0  0  0  0  0  0  0  0  0  0  0  0
  -27.6760  -28.1690   19.7690 C   0  0  0  0  0  3  0  0  0  0  0  0
  -26.3910  -26.8260   18.2400 C   0  0  0  0  0  3  0  0  0  0  0  0
  -25.2700  -27.6570   18.4460 C   0  0  0  0  0  3  0  0  0  0  0  0
  -24.1090  -29.6070   19.6310 C   0  0  0  0  0  2  0  0  0  0  0  0
  -25.2200  -30.3900   21.7540 N   0  0  0  0  0  0  0  0  0  0  0  0
  -24.1140  -31.1100   23.6110 O   0  0  0  0  0  0  0  0  0  0  0  0
  -23.2630  -28.7590   21.8650 C   0  0  0  0  0  0  0  0  0  0  0  0
  -21.9390  -28.5940   21.6950 N   0  0  0  0  0  0  0  0  0  0  0  0
  -23.9440  -27.9920   22.5500 O   0  0  0  0  0  0  0  0  0  0  0  0
  -21.4490  -29.2670   21.1220 H   0  0  0  0  0  0  0  0  0  0  0  0
  -18.5900  -27.2170   21.8620 C   0  0  0  0  0  0  0  0  0  0  0  0
  -21.1340  -27.5010   22.2480 C   0  0  0  0  0  3  0  0  0  0  0  0
  -21.2970  -26.2100   21.4130 C   0  0  0  0  0  2  0  0  0  0  0  0
  -20.2280  -26.0510   20.3290 C   0  0  0  0  0  2  0  0  0  0  0  0
  -18.8280  -26.0280   20.9470 C   0  0  0  0  0  2  0  0  0  0  0  0
  -19.6720  -27.9170   22.4580 C   0  0  0  0  0  0  0  0  0  0  0  0
  -19.3960  -29.0350   23.2760 C   0  0  0  0  0  3  0  0  0  0  0  0
  -18.0700  -29.4540   23.5030 C   0  0  0  0  0  3  0  0  0  0  0  0
  -17.0030  -28.7470   22.9240 C   0  0  0  0  0  3  0  0  0  0  0  0
  -17.2620  -27.6290   22.1110 C   0  0  0  0  0  3  0  0  0  0  0  0
  -26.4800  -31.4280   23.7200 C   0  0  0  0  0  3  0  0  0  0  0  0
  -27.0220  -30.3870   24.7780 C   0  0  1  0  0  0  0  0  0  0  0  0
  -25.9460  -29.8860   25.7700 C   0  0  0  0  0  1  0  0  0  0  0  0
  -27.6200  -29.1470   24.0730 C   0  0  0  0  0  1  0  0  0  0  0  0
  -28.1740  -31.0240   25.5930 C   0  0  0  0  0  1  0  0  0  0  0  0
  -26.1870  -32.7150   24.3750 N   0  0  0  0  0  0  0  0  0  0  0  0
  -26.5130  -33.9160   23.8770 C   0  0  0  0  0  0  0  0  0  0  0  0
  -27.1620  -34.0540   22.8380 O   0  0  0  0  0  0  0  0  0  0  0  0
  -25.6060  -32.6820   25.2010 H   0  0  0  0  0  0  0  0  0  0  0  0
  -24.8090  -35.7660   23.9880 C   0  0  0  0  0  1  0  0  0  0  0  0
  -26.0500  -35.1620   24.6610 C   0  0  0  0  0  3  0  0  0  0  0  0
  -28.2000  -35.8010   25.6580 C   0  0  0  0  0  1  0  0  0  0  0  0
  -27.0960  -36.2000   24.7920 N   0  0  0  0  0  0  0  0  0  0  0  0
  -26.7000  -37.0640   25.1570 H   0  0  0  0  0  0  0  0  0  0  0  0
  2  1  2  0
  3  6  1  0
  4  1  1  0
  4  6  2  0
  5  2  1  0
  6 10  1  0
  7  5  2  0
  7  8  1  0
  8  4  1  0
  9  3  2  0
 11  8  2  0
 11  9  1  0
 12 18  1  0
 12  9  1  0
 13 18  1  0
 14 15  1  0
 14 13  1  0
 16 15  1  0
 16 23  1  0
 16 17  1  0
 18 17  1  0
 19 12  2  0
 20 45  1  0
 20 21  2  0
 21 40  1  0
 22 25  1  0
 22 21  1  0
 23 24  1  0
 23 20  1  0
 24 22  2  0
 25 26  1  0
 26 27  2  0
 28 31  1  0
 28 27  1  0
 29 28  2  0
 30 29  1  0
 30 25  2  0
 31 32  1  0
 32 37  2  0
 32 33  1  0
 33 34  2  0
 34 35  1  0
 35 39  1  0
 36 35  2  0
 37 36  1  0
 38 37  1  0
 40 41  1  0
 41 43  1  0
 41 44  1  0
 42 40  2  0
 45 46  1  0
 47 45  1  0
 48 49  1  0
 49  7  1  0
 50 51  2  0
 50  5  1  0
 52 51  1  0
 52 54  1  0
 53 64  2  0
 54 59  1  0
 55 63  1  0
 55 65  1  0
 56 62  1  0
 56 58  1  0
 57 63  1  0
 58 57  1  0
 59 58  2  0
 60 61  1  0
 60 54  2  0
 61 56  2  0
 62 55  1  0
 63 53  1  0
 65 67  2  0
 66 65  1  0
 68 66  1  0
 69 78  2  0
 69 74  1  0
 70 66  1  0
 70 74  1  0
 71 70  1  0
 72 73  1  0
 72 71  1  0
 73 69  1  0
 74 75  2  0
 75 76  1  0
 77 76  2  0
 78 77  1  0
 79 53  1  0
 79 84  1  0
 79 80  1  0
 80 83  1  1
 80 81  1  0
 82 80  1  0
 84 87  1  0
 85 84  1  0
 85 89  1  0
 86 85  2  0
 89 88  1  0
 89 91  1  0
 91 92  1  0
 91 90  1  0
M  ISO  4   9 100  12 100  51 101  52 101
M  END
>  <TORSDO>  (66) 
F 19

>  <SCORE>  (66) 
-4.474

>  <name>  (66) 
66

>  <ligand_id>  (66) 
66

>  <original_smiles>  (66) 
[H]c1c([H])c([H])c2c(c1[H])C([H])([H])C([H])([H])C([H])([H])C2([H])N([H])C(=O)C1([H])N(C(=O)C([H])(N([H])C(=O)C([H])(N([H])C([H])([H])[H])C([H])([H])[H])C(C([H])([H])[H])(C([H])([H])[H])C([H])([H])[H])C([H])([H])c2c([H])c(OC([H])([H])C([H])([H])c3c([H])c([H])c4c(C([H])([H])[H])c([H])c(C(=O)N5C([H])([H])C([H])([H])C([H])([H])C([H])(n6nc(-c7c([H])c([H])c(Oc8c([H])c([H])c(F)c([H])c8F)c([H])c7[H])c(C(=O)N([H])[H])c6N([H])[H])C5([H])[H])nc4c3C([H])([H])C([H])([H])[H])c([H])c([H])c2C1([H])[H]

>  <smiles>  (66) 
[H]c1c([H])c([H])c2c(c1[H])C([H])([H])C([H])([H])C([H])([H])C2([H])N([H])C(=O)C1([H])N(C(=O)C([H])(N([H])C(=O)C([H])(N([H])C([H])([H])[H])C([H])([H])[H])C(C([H])([H])[H])(C([H])([H])[H])C([H])([H])[H])C([H])([H])c2c([H])c(OC([H])([H])C([H])([H])c3c([H])c([H])c4c(C([H])([H])[H])c([H])c(C(=O)N5C([H])([H])C([H])([H])C([H])([H])C([H])(n6nc(-c7c([H])c([H])c(Oc8c([H])c([H])c(F)c([H])c8F)c([H])c7[H])c(C(=O)N([H])[H])c6N([H])[H])C5([H])[H])nc4c3C([H])([H])C([H])([H])[H])c([H])c([H])c2C1([H])[H]

$$$$
67:0:0
     RDKit          3D

 88 96  0  0  1  0  0  0  0  0999 V2000
  -28.5420  -18.1420   20.1730 C   0  0  0  0  0  3  0  0  0  0  0  0
  -30.2770  -19.0550   19.4490 C   0  0  0  0  0  3  0  0  0  0  0  0
  -29.8530  -17.6270   19.7730 C   0  0  0  0  0  0  0  0  0  0  0  0
  -28.3140  -19.5480   20.1170 C   0  0  0  0  0  0  0  0  0  0  0  0
  -27.1570  -20.3680   20.5950 C   0  0  0  0  0  2  0  0  0  0  0  0
  -27.5580  -21.6050   21.4560 C   0  0  0  0  0  2  0  0  0  0  0  0
  -28.9420  -22.2880   21.1850 C   0  0  0  0  0  3  0  0  0  0  0  0
  -29.3640  -22.1590   19.7010 C   0  0  0  0  0  2  0  0  0  0  0  0
  -30.0360  -21.8230   22.1680 C   0  0  0  0  0  1  0  0  0  0  0  0
  -29.3570  -20.3320   19.6060 N   0  0  0  0  0  0  0  0  0  0  0  0
  -30.5680  -15.9030   19.7610 C   0  0  0  0  0  0  0  0  0  0  0  0
  -30.6410  -13.2830   19.1190 C   0  0  0  0  0  2  0  0  0  0  0  0
  -29.7270  -12.7960   17.9540 C   0  0  0  0  0  2  0  0  0  0  0  0
  -28.3200  -12.4540   18.4650 C   0  0  0  0  0  2  0  0  0  0  0  0
  -27.8260  -13.5340   19.4530 C   0  0  0  0  0  3  0  0  0  0  0  0
  -28.8740  -13.9400   20.5160 C   0  0  0  0  0  2  0  0  0  0  0  0
  -30.0440  -14.5230   19.8130 N   0  0  0  0  0  0  0  0  0  0  0  0
  -31.7920  -15.7620   19.5580 O   0  0  0  0  0  0  0  0  0  0  0  0
  -25.5530  -14.1470   20.3910 C   0  0  0  0  0  0  0  0  0  0  0  0
  -24.4680  -13.4110   20.7730 C   0  0  0  0  0  0  0  0  0  0  0  0
  -24.8510  -12.0410   20.6290 C   0  0  0  0  0  0  0  0  0  0  0  0
  -26.5240  -13.2340   20.0290 N   0  0  0  0  0  0  0  0  0  0  0  0
  -26.1190  -11.9530   20.2380 N   0  0  0  0  0  0  0  0  0  0  0  0
  -24.0520  -10.8160   20.7750 C   0  0  0  0  0  0  0  0  0  0  0  0
  -24.4860   -9.7440   21.5830 C   0  0  0  0  0  3  0  0  0  0  0  0
  -23.6900   -8.5870   21.7300 C   0  0  0  0  0  3  0  0  0  0  0  0
  -22.4430   -8.4960   21.0670 C   0  0  0  0  0  0  0  0  0  0  0  0
  -22.0250   -9.5560   20.2440 C   0  0  0  0  0  3  0  0  0  0  0  0
  -22.8220  -10.7030   20.0950 C   0  0  0  0  0  3  0  0  0  0  0  0
  -21.6170   -7.3980   21.1250 O   0  0  0  0  0  0  0  0  0  0  0  0
  -21.6550   -6.5240   22.1830 C   0  0  0  0  0  0  0  0  0  0  0  0
  -21.4260   -6.9510   23.5090 C   0  0  0  0  0  3  0  0  0  0  0  0
  -21.4060   -6.0100   24.5580 C   0  0  0  0  0  3  0  0  0  0  0  0
  -21.6040   -4.6430   24.2810 C   0  0  0  0  0  0  0  0  0  0  0  0
  -21.8240   -4.2150   22.9600 C   0  0  0  0  0  3  0  0  0  0  0  0
  -21.8460   -5.1550   21.9130 C   0  0  0  0  0  0  0  0  0  0  0  0
  -22.0400   -4.7350   20.6390 F   0  0  0  0  0  0  0  0  0  0  0  0
  -21.5750   -3.7370   25.2870 F   0  0  0  0  0  0  0  0  0  0  0  0
  -23.1210  -13.9540   21.1460 C   0  0  0  0  0  0  0  0  0  0  0  0
  -22.4020  -13.2540   22.0170 N   0  0  0  0  0  0  0  0  0  0  0  0
  -22.7190  -15.0280   20.7010 O   0  0  0  0  0  0  0  0  0  0  0  0
  -22.7470  -12.3860   22.3970 H   0  0  0  0  0  0  0  0  0  0  0  0
  -21.4960  -13.5920   22.3070 H   0  0  0  0  0  0  0  0  0  0  0  0
  -25.7860  -15.5140   20.2760 N   0  0  0  0  0  0  0  0  0  0  0  0
  -25.0540  -16.1970   20.4280 H   0  0  0  0  0  0  0  0  0  0  0  0
  -26.6020  -15.9010   19.8220 H   0  0  0  0  0  0  0  0  0  0  0  0
  -28.5280  -23.8260   19.0430 C   0  0  0  0  0  1  0  0  0  0  0  0
  -28.5110  -25.5970   19.3210 O   0  0  0  0  0  0  0  0  0  0  0  0
  -24.7350  -31.4940   22.7730 C   0  0  0  0  0  0  0  0  0  0  0  0
  -27.4660  -26.7660   19.3510 C   0  0  0  0  0  0  0  0  0  0  0  0
  -23.5810  -30.1360   21.0810 C   0  0  0  0  0  3  0  0  0  0  0  0
  -25.0780  -28.6760   19.5120 C   0  0  0  0  0  0  0  0  0  0  0  0
  -26.1420  -30.4390   20.8930 C   0  0  0  0  0  2  0  0  0  0  0  0
  -26.2720  -29.0570   20.1350 C   0  0  0  0  0  0  0  0  0  0  0  0
  -27.4430  -28.1290   20.0250 C   0  0  0  0  0  3  0  0  0  0  0  0
  -26.2220  -26.6080   18.6870 C   0  0  0  0  0  3  0  0  0  0  0  0
  -25.0920  -27.4840   18.7660 C   0  0  0  0  0  3  0  0  0  0  0  0
  -23.8180  -29.5490   19.6590 C   0  0  0  0  0  2  0  0  0  0  0  0
  -24.8440  -30.7200   21.6380 N   0  0  0  0  0  0  0  0  0  0  0  0
  -23.6420  -31.6900   23.3330 O   0  0  0  0  0  0  0  0  0  0  0  0
  -22.9550  -29.0560   22.0050 C   0  0  0  0  0  0  0  0  0  0  0  0
  -21.6240  -28.8560   21.9400 N   0  0  0  0  0  0  0  0  0  0  0  0
  -23.6800  -28.3960   22.7520 O   0  0  0  0  0  0  0  0  0  0  0  0
  -21.0840  -29.4460   21.3230 H   0  0  0  0  0  0  0  0  0  0  0  0
  -18.3160  -27.4740   22.5490 C   0  0  0  0  0  0  0  0  0  0  0  0
  -20.8780  -27.8250   22.6740 C   0  0  0  0  0  3  0  0  0  0  0  0
  -20.9890  -26.4500   21.9720 C   0  0  0  0  0  2  0  0  0  0  0  0
  -19.8370  -26.1740   21.0010 C   0  0  0  0  0  2  0  0  0  0  0  0
  -18.4960  -26.2010   21.7400 C   0  0  0  0  0  2  0  0  0  0  0  0
  -19.4320  -28.2440   22.9750 C   0  0  0  0  0  0  0  0  0  0  0  0
  -19.2040  -29.4330   23.7010 C   0  0  0  0  0  3  0  0  0  0  0  0
  -17.8940  -29.8560   23.9990 C   0  0  0  0  0  3  0  0  0  0  0  0
  -16.7940  -29.0840   23.5840 C   0  0  0  0  0  3  0  0  0  0  0  0
  -17.0070  -27.8940   22.8670 C   0  0  0  0  0  3  0  0  0  0  0  0
  -25.9740  -32.1840   23.4200 C   0  0  0  0  0  3  0  0  0  0  0  0
  -25.5560  -33.5070   23.9300 N   0  0  0  0  0  0  0  0  0  0  0  0
  -25.7890  -34.6780   23.3200 C   0  0  0  0  0  0  0  0  0  0  0  0
  -26.4310  -34.7610   22.2710 O   0  0  0  0  0  0  0  0  0  0  0  0
  -24.9710  -33.5050   24.7520 H   0  0  0  0  0  0  0  0  0  0  0  0
  -23.9220  -36.3710   23.2650 C   0  0  0  0  0  1  0  0  0  0  0  0
  -25.2230  -35.9570   23.9730 C   0  0  0  0  0  3  0  0  0  0  0  0
  -27.3140  -36.9020   24.8510 C   0  0  0  0  0  1  0  0  0  0  0  0
  -26.1700  -37.0940   23.9640 N   0  0  0  0  0  0  0  0  0  0  0  0
  -25.7010  -37.9550   24.2320 H   0  0  0  0  0  0  0  0  0  0  0  0
  -26.6060  -31.3380   24.5960 C   0  0  1  0  0  0  0  0  0  0  0  0
  -25.5880  -30.9290   25.6880 C   0  0  0  0  0  1  0  0  0  0  0  0
  -27.2560  -30.0440   24.0590 C   0  0  0  0  0  1  0  0  0  0  0  0
  -27.7350  -32.1450   25.2760 C   0  0  0  0  0  1  0  0  0  0  0  0
  2 10  1  0
  2  3  2  0
  3  1  1  0
  4  1  2  0
  4  5  1  0
  5  6  1  0
  7  6  1  0
  7  9  1  0
  8  7  1  0
 10  8  1  0
 10  4  1  0
 11  3  1  0
 11 17  1  0
 12 17  1  0
 13 14  1  0
 13 12  1  0
 15 14  1  0
 15 22  1  0
 15 16  1  0
 17 16  1  0
 18 11  2  0
 19 20  2  0
 20 39  1  0
 21 20  1  0
 21 24  1  0
 22 23  1  0
 22 19  1  0
 23 21  2  0
 24 25  1  0
 25 26  2  0
 27 30  1  0
 27 26  1  0
 28 27  2  0
 29 28  1  0
 29 24  2  0
 30 31  1  0
 31 32  1  0
 32 33  2  0
 34 33  1  0
 34 38  1  0
 35 34  2  0
 36 31  2  0
 36 35  1  0
 37 36  1  0
 39 40  1  0
 40 43  1  0
 40 42  1  0
 41 39  2  0
 44 19  1  0
 44 45  1  0
 46 44  1  0
 47 48  1  0
 48 50  1  0
 49 60  2  0
 50 55  1  0
 51 59  1  0
 51 61  1  0
 52 58  1  0
 52 54  1  0
 53 59  1  0
 54 53  1  0
 55 54  2  0
 56 57  1  0
 56 50  2  0
 57 52  2  0
 58 51  1  0
 59 49  1  0
 61 63  2  0
 62 61  1  0
 64 62  1  0
 65 74  2  0
 65 70  1  0
 66 62  1  0
 66 70  1  0
 67 66  1  0
 68 69  1  0
 68 67  1  0
 69 65  1  0
 70 71  2  0
 71 72  1  0
 73 72  2  0
 74 73  1  0
 75 49  1  0
 75 76  1  0
 75 85  1  0
 76 79  1  0
 77 76  1  0
 77 81  1  0
 78 77  2  0
 81 80  1  0
 83 81  1  0
 83 84  1  0
 83 82  1  0
 85 88  1  1
 85 86  1  0
 87 85  1  0
M  ISO  4   3 100  11 100  47 101  48 101
M  END
>  <TORSDO>  (67) 
F 17

>  <SCORE>  (67) 
-13.545

>  <name>  (67) 
67

>  <ligand_id>  (67) 
67

>  <original_smiles>  (67) 
[H]c1c([H])c([H])c2c(c1[H])C([H])([H])C([H])([H])C([H])([H])C2([H])N([H])C(=O)C1([H])N(C(=O)C([H])(N([H])C(=O)C([H])(N([H])C([H])([H])[H])C([H])([H])[H])C(C([H])([H])[H])(C([H])([H])[H])C([H])([H])[H])C([H])([H])c2c([H])c(OC([H])([H])C3([H])n4c([H])c(C(=O)N5C([H])([H])C([H])([H])C([H])([H])C([H])(n6nc(-c7c([H])c([H])c(Oc8c([H])c([H])c(F)c([H])c8F)c([H])c7[H])c(C(=O)N([H])[H])c6N([H])[H])C5([H])[H])c([H])c4C([H])([H])C([H])([H])C3([H])C([H])([H])[H])c([H])c([H])c2C1([H])[H]

>  <smiles>  (67) 
[H]c1c([H])c([H])c2c(c1[H])C([H])([H])C([H])([H])C([H])([H])C2([H])N([H])C(=O)C1([H])N(C(=O)C([H])(N([H])C(=O)C([H])(N([H])C([H])([H])[H])C([H])([H])[H])C(C([H])([H])[H])(C([H])([H])[H])C([H])([H])[H])C([H])([H])c2c([H])c(OC([H])([H])C3([H])n4c([H])c(C(=O)N5C([H])([H])C([H])([H])C([H])([H])C([H])(n6nc(-c7c([H])c([H])c(Oc8c([H])c([H])c(F)c([H])c8F)c([H])c7[H])c(C(=O)N([H])[H])c6N([H])[H])C5([H])[H])c([H])c4C([H])([H])C([H])([H])C3([H])C([H])([H])[H])c([H])c([H])c2C1([H])[H]

$$$$
69:0:0
     RDKit          3D

 92100  0  0  1  0  0  0  0  0999 V2000
  -31.2180  -23.9040   21.7380 C   0  0  0  0  0  3  0  0  0  0  0  0
  -30.3490  -24.7670   21.0500 C   0  0  0  0  0  3  0  0  0  0  0  0
  -30.8960  -22.5430   21.9180 C   0  0  0  0  0  0  0  0  0  0  0  0
  -29.1520  -24.2760   20.4990 C   0  0  0  0  0  0  0  0  0  0  0  0
  -28.8520  -22.8820   20.6090 C   0  0  0  0  0  0  0  0  0  0  0  0
  -29.7000  -22.0120   21.3620 C   0  0  0  0  0  0  0  0  0  0  0  0
  -31.8590  -21.6870   22.7290 C   0  0  0  0  0  1  0  0  0  0  0  0
  -27.6010  -22.3190   19.9390 C   0  0  0  0  0  1  0  0  0  0  0  0
  -29.2900  -20.5480   21.6570 C   0  0  0  0  0  2  0  0  0  0  0  0
  -29.9640  -19.4590   20.7860 C   0  0  0  0  0  2  0  0  0  0  0  0
  -29.5250  -18.0080   21.1350 C   0  0  0  0  0  2  0  0  0  0  0  0
  -30.3940  -16.9380   20.4330 C   0  0  0  0  0  2  0  0  0  0  0  0
  -30.6040  -14.4970   20.0850 C   0  0  0  0  0  0  0  0  0  0  0  0
  -30.2310  -12.3570   18.9270 C   0  0  0  0  0  2  0  0  0  0  0  0
  -29.2330  -12.5840   17.7730 C   0  0  0  0  0  2  0  0  0  0  0  0
  -27.7830  -12.4370   18.2730 C   0  0  0  0  0  2  0  0  0  0  0  0
  -27.5090  -13.2480   19.5680 C   0  0  0  0  0  3  0  0  0  0  0  0
  -28.6200  -13.0240   20.6190 C   0  0  0  0  0  2  0  0  0  0  0  0
  -29.9140  -13.3290   19.9870 N   0  0  0  0  0  0  0  0  0  0  0  0
  -31.7040  -14.6660   19.5530 O   0  0  0  0  0  0  0  0  0  0  0  0
  -29.9520  -15.5440   20.6290 N   0  0  0  0  0  0  0  0  0  0  0  0
  -29.0440  -15.3740   21.0350 H   0  0  0  0  0  0  0  0  0  0  0  0
  -25.1390  -13.8260   20.3910 C   0  0  0  0  0  0  0  0  0  0  0  0
  -24.0970  -13.0410   20.8060 C   0  0  0  0  0  0  0  0  0  0  0  0
  -24.5700  -11.6940   20.7480 C   0  0  0  0  0  0  0  0  0  0  0  0
  -26.1820  -12.9570   20.1090 N   0  0  0  0  0  0  0  0  0  0  0  0
  -25.8460  -11.6690   20.3800 N   0  0  0  0  0  0  0  0  0  0  0  0
  -23.8670  -10.4240   20.9670 C   0  0  0  0  0  0  0  0  0  0  0  0
  -24.3380   -9.4680   21.8930 C   0  0  0  0  0  3  0  0  0  0  0  0
  -23.6340   -8.2620   22.0990 C   0  0  0  0  0  3  0  0  0  0  0  0
  -22.4440   -8.0030   21.3790 C   0  0  0  0  0  0  0  0  0  0  0  0
  -21.9920   -8.9470   20.4410 C   0  0  0  0  0  3  0  0  0  0  0  0
  -22.6960  -10.1440   20.2330 C   0  0  0  0  0  3  0  0  0  0  0  0
  -21.7080   -6.8490   21.4950 O   0  0  0  0  0  0  0  0  0  0  0  0
  -21.6860   -6.1230   22.6600 C   0  0  0  0  0  0  0  0  0  0  0  0
  -21.2710   -6.6930   23.8840 C   0  0  0  0  0  3  0  0  0  0  0  0
  -21.1970   -5.8940   25.0430 C   0  0  0  0  0  3  0  0  0  0  0  0
  -21.5250   -4.5260   24.9780 C   0  0  0  0  0  0  0  0  0  0  0  0
  -21.9310   -3.9570   23.7580 C   0  0  0  0  0  3  0  0  0  0  0  0
  -22.0090   -4.7520   22.6020 C   0  0  0  0  0  0  0  0  0  0  0  0
  -22.3790   -4.1940   21.4250 F   0  0  0  0  0  0  0  0  0  0  0  0
  -21.4450   -3.7560   26.0880 F   0  0  0  0  0  0  0  0  0  0  0  0
  -22.7100  -13.5030   21.1460 C   0  0  0  0  0  0  0  0  0  0  0  0
  -22.0330  -12.7970   22.0450 N   0  0  0  0  0  0  0  0  0  0  0  0
  -22.2360  -14.5230   20.6500 O   0  0  0  0  0  0  0  0  0  0  0  0
  -22.4290  -11.9710   22.4690 H   0  0  0  0  0  0  0  0  0  0  0  0
  -21.1030  -13.0860   22.3140 H   0  0  0  0  0  0  0  0  0  0  0  0
  -25.2810  -15.1980   20.2100 N   0  0  0  0  0  0  0  0  0  0  0  0
  -24.5140  -15.8450   20.3590 H   0  0  0  0  0  0  0  0  0  0  0  0
  -26.1100  -15.6480   19.8410 H   0  0  0  0  0  0  0  0  0  0  0  0
  -28.1770  -25.2490   19.8190 C   0  0  0  0  0  2  0  0  0  0  0  0
  -28.3680  -26.6630   20.0710 O   0  0  0  0  0  0  0  0  0  0  0  0
  -24.6220  -31.8510   23.2180 C   0  0  0  0  0  0  0  0  0  0  0  0
  -27.2230  -27.4470   20.0240 C   0  0  0  0  0  0  0  0  0  0  0  0
  -23.4030  -30.4930   21.5510 C   0  0  0  0  0  3  0  0  0  0  0  0
  -24.8430  -28.9930   20.0770 C   0  0  0  0  0  0  0  0  0  0  0  0
  -25.9330  -30.8390   21.3520 C   0  0  0  0  0  2  0  0  0  0  0  0
  -26.0090  -29.4850   20.6760 C   0  0  0  0  0  0  0  0  0  0  0  0
  -27.2020  -28.7200   20.6470 C   0  0  0  0  0  3  0  0  0  0  0  0
  -26.0380  -26.9970   19.3910 C   0  0  0  0  0  3  0  0  0  0  0  0
  -24.8540  -27.7500   19.4290 C   0  0  0  0  0  3  0  0  0  0  0  0
  -23.6030  -29.8540   20.1540 C   0  0  0  0  0  2  0  0  0  0  0  0
  -24.6720  -31.0750   22.0980 N   0  0  0  0  0  0  0  0  0  0  0  0
  -23.5440  -32.1140   23.7690 O   0  0  0  0  0  0  0  0  0  0  0  0
  -22.7530  -29.4490   22.4890 C   0  0  0  0  0  0  0  0  0  0  0  0
  -21.4270  -29.2760   22.3660 N   0  0  0  0  0  0  0  0  0  0  0  0
  -23.4390  -28.8000   23.2830 O   0  0  0  0  0  0  0  0  0  0  0  0
  -20.9350  -29.8520   21.6980 H   0  0  0  0  0  0  0  0  0  0  0  0
  -18.0490  -28.0880   22.8590 C   0  0  0  0  0  0  0  0  0  0  0  0
  -20.6110  -28.3240   23.1200 C   0  0  0  0  0  3  0  0  0  0  0  0
  -20.7010  -26.9070   22.5080 C   0  0  0  0  0  2  0  0  0  0  0  0
  -19.5910  -26.6160   21.4940 C   0  0  0  0  0  2  0  0  0  0  0  0
  -18.2140  -26.7540   22.1510 C   0  0  0  0  0  2  0  0  0  0  0  0
  -19.1750  -28.8320   23.3000 C   0  0  0  0  0  0  0  0  0  0  0  0
  -18.9690  -30.0830   23.9220 C   0  0  0  0  0  3  0  0  0  0  0  0
  -17.6680  -30.5890   24.1080 C   0  0  0  0  0  3  0  0  0  0  0  0
  -16.5570  -29.8400   23.6840 C   0  0  0  0  0  3  0  0  0  0  0  0
  -16.7480  -28.5920   23.0650 C   0  0  0  0  0  3  0  0  0  0  0  0
  -25.9130  -32.4640   23.8440 C   0  0  0  0  0  3  0  0  0  0  0  0
  -25.6130  -33.8570   24.2000 N   0  0  0  0  0  0  0  0  0  0  0  0
  -25.9390  -34.9200   23.4530 C   0  0  0  0  0  0  0  0  0  0  0  0
  -26.5970  -34.8320   22.4130 O   0  0  0  0  0  0  0  0  0  0  0  0
  -25.0300  -34.0010   25.0120 H   0  0  0  0  0  0  0  0  0  0  0  0
  -24.2060  -36.7170   23.1520 C   0  0  0  0  0  1  0  0  0  0  0  0
  -25.4590  -36.3020   23.9370 C   0  0  0  0  0  3  0  0  0  0  0  0
  -27.6070  -37.1740   24.7460 C   0  0  0  0  0  1  0  0  0  0  0  0
  -26.4910  -37.3570   23.8220 N   0  0  0  0  0  0  0  0  0  0  0  0
  -26.0870  -38.2740   23.9900 H   0  0  0  0  0  0  0  0  0  0  0  0
  -26.4330  -31.6660   25.1020 C   0  0  1  0  0  0  0  0  0  0  0  0
  -25.3440  -31.4120   26.1710 C   0  0  0  0  0  1  0  0  0  0  0  0
  -27.0070  -30.2940   24.6780 C   0  0  0  0  0  1  0  0  0  0  0  0
  -27.5900  -32.4420   25.7740 C   0  0  0  0  0  1  0  0  0  0  0  0
  1  3  1  0
  2  1  2  0
  3  7  1  0
  4  5  2  0
  4  2  1  0
  5  6  1  0
  6  9  1  0
  6  3  2  0
  8  5  1  0
 10 11  1  0
 10  9  1  0
 12 21  1  0
 12 11  1  0
 13 21  1  0
 14 19  1  0
 15 16  1  0
 15 14  1  0
 17 16  1  0
 17 26  1  0
 17 18  1  0
 19 13  1  0
 19 18  1  0
 20 13  2  0
 21 22  1  0
 23 24  2  0
 24 43  1  0
 25 24  1  0
 25 28  1  0
 26 27  1  0
 26 23  1  0
 27 25  2  0
 28 29  1  0
 29 30  2  0
 31 34  1  0
 31 30  1  0
 32 31  2  0
 33 32  1  0
 33 28  2  0
 34 35  1  0
 35 36  1  0
 36 37  2  0
 38 37  1  0
 38 42  1  0
 39 38  2  0
 40 35  2  0
 40 39  1  0
 41 40  1  0
 43 44  1  0
 44 47  1  0
 44 46  1  0
 45 43  2  0
 48 49  1  0
 48 23  1  0
 50 48  1  0
 51 52  1  0
 51  4  1  0
 53 64  2  0
 54 52  1  0
 54 59  1  0
 55 63  1  0
 55 65  1  0
 56 62  1  0
 56 58  1  0
 57 63  1  0
 58 57  1  0
 59 58  2  0
 60 61  1  0
 60 54  2  0
 61 56  2  0
 62 55  1  0
 63 53  1  0
 65 67  2  0
 66 65  1  0
 68 66  1  0
 69 78  2  0
 69 74  1  0
 70 66  1  0
 70 74  1  0
 71 70  1  0
 72 73  1  0
 72 71  1  0
 73 69  1  0
 74 75  2  0
 75 76  1  0
 77 76  2  0
 78 77  1  0
 79 53  1  0
 79 80  1  0
 79 89  1  0
 80 83  1  0
 81 85  1  0
 81 80  1  0
 82 81  2  0
 85 84  1  0
 87 85  1  0
 87 88  1  0
 87 86  1  0
 89 92  1  1
 89 90  1  0
 91 89  1  0
M  ISO  4  13 100  21 100  51 101  52 101
M  END
>  <TORSDO>  (68) 
F 21

>  <SCORE>  (68) 
-12.348

>  <name>  (68) 
69

>  <ligand_id>  (68) 
69

>  <original_smiles>  (68) 
[H]c1c([H])c([H])c2c(c1[H])C([H])([H])C([H])([H])C([H])([H])C2([H])N([H])C(=O)C1([H])N(C(=O)C([H])(N([H])C(=O)C([H])(N([H])C([H])([H])[H])C([H])([H])[H])C(C([H])([H])[H])(C([H])([H])[H])C([H])([H])[H])C([H])([H])c2c([H])c(OC([H])([H])c3c([H])c([H])c(C([H])([H])[H])c(C([H])([H])C([H])([H])C([H])([H])C([H])([H])N([H])C(=O)N4C([H])([H])C([H])([H])C([H])([H])C([H])(n5nc(-c6c([H])c([H])c(Oc7c([H])c([H])c(F)c([H])c7F)c([H])c6[H])c(C(=O)N([H])[H])c5N([H])[H])C4([H])[H])c3C([H])([H])[H])c([H])c([H])c2C1([H])[H]

>  <smiles>  (68) 
[H]c1c([H])c([H])c2c(c1[H])C([H])([H])C([H])([H])C([H])([H])C2([H])N([H])C(=O)C1([H])N(C(=O)C([H])(N([H])C(=O)C([H])(N([H])C([H])([H])[H])C([H])([H])[H])C(C([H])([H])[H])(C([H])([H])[H])C([H])([H])[H])C([H])([H])c2c([H])c(OC([H])([H])c3c([H])c([H])c(C([H])([H])[H])c(C([H])([H])C([H])([H])C([H])([H])C([H])([H])N([H])C(=O)N4C([H])([H])C([H])([H])C([H])([H])C([H])(n5nc(-c6c([H])c([H])c(Oc7c([H])c([H])c(F)c([H])c7F)c([H])c6[H])c(C(=O)N([H])[H])c5N([H])[H])C4([H])[H])c3C([H])([H])[H])c([H])c([H])c2C1([H])[H]

$$$$
70:0:0
     RDKit          3D

 90 98  0  0  1  0  0  0  0  0999 V2000
  -31.1020  -19.4940   20.1540 C   0  0  0  0  0  3  0  0  0  0  0  0
  -28.8550  -20.3870   20.2150 C   0  0  0  0  0  3  0  0  0  0  0  0
  -29.7350  -19.1730   20.1590 C   0  0  0  0  0  0  0  0  0  0  0  0
  -31.5820  -20.8250   20.1960 C   0  0  0  0  0  0  0  0  0  0  0  0
  -29.2930  -21.8210   20.3030 C   0  0  0  0  0  0  0  0  0  0  0  0
  -30.7130  -21.9530   20.3280 C   0  0  0  0  0  0  0  0  0  0  0  0
  -33.0910  -21.0070   20.0670 C   0  0  0  0  0  1  0  0  0  0  0  0
  -31.3520  -23.3210   20.5460 C   0  0  0  0  0  1  0  0  0  0  0  0
  -28.3470  -23.1960   20.5340 C   0  0  0  0  0  2  0  0  0  0  0  0
  -28.4070  -24.7280   19.7650 C   0  0  0  0  0  2  0  0  0  0  0  0
  -28.2930  -26.1950   20.3300 O   0  0  0  0  0  0  0  0  0  0  0  0
  -24.6110  -31.8900   23.2410 C   0  0  0  0  0  0  0  0  0  0  0  0
  -27.2140  -27.1540   20.2240 C   0  0  0  0  0  0  0  0  0  0  0  0
  -23.4160  -30.4800   21.6090 C   0  0  0  0  0  3  0  0  0  0  0  0
  -24.8730  -28.8960   20.1900 C   0  0  0  0  0  0  0  0  0  0  0  0
  -25.9700  -30.7470   21.4460 C   0  0  0  0  0  2  0  0  0  0  0  0
  -26.0480  -29.3510   20.7970 C   0  0  0  0  0  0  0  0  0  0  0  0
  -27.2140  -28.4940   20.8000 C   0  0  0  0  0  3  0  0  0  0  0  0
  -26.0110  -26.8030   19.5770 C   0  0  0  0  0  3  0  0  0  0  0  0
  -24.8670  -27.6370   19.5660 C   0  0  0  0  0  3  0  0  0  0  0  0
  -23.6370  -29.7870   20.2370 C   0  0  0  0  0  2  0  0  0  0  0  0
  -24.6850  -31.0600   22.1540 N   0  0  0  0  0  0  0  0  0  0  0  0
  -23.5230  -32.1760   23.7640 O   0  0  0  0  0  0  0  0  0  0  0  0
  -22.7360  -29.4780   22.5780 C   0  0  0  0  0  0  0  0  0  0  0  0
  -21.4100  -29.2950   22.4450 N   0  0  0  0  0  0  0  0  0  0  0  0
  -23.4080  -28.8660   23.4120 O   0  0  0  0  0  0  0  0  0  0  0  0
  -20.9180  -29.8450   21.7560 H   0  0  0  0  0  0  0  0  0  0  0  0
  -18.0410  -28.0610   22.9270 C   0  0  0  0  0  0  0  0  0  0  0  0
  -20.5930  -28.3580   23.2220 C   0  0  0  0  0  3  0  0  0  0  0  0
  -20.7190  -26.9180   22.6710 C   0  0  0  0  0  2  0  0  0  0  0  0
  -19.6360  -26.5690   21.6460 C   0  0  0  0  0  2  0  0  0  0  0  0
  -18.2450  -26.7050   22.2700 C   0  0  0  0  0  2  0  0  0  0  0  0
  -19.1450  -28.8450   23.3580 C   0  0  0  0  0  0  0  0  0  0  0  0
  -18.8980  -30.1130   23.9270 C   0  0  0  0  0  3  0  0  0  0  0  0
  -17.5840  -30.5990   24.0680 C   0  0  0  0  0  3  0  0  0  0  0  0
  -16.4970  -29.8100   23.6550 C   0  0  0  0  0  3  0  0  0  0  0  0
  -16.7260  -28.5440   23.0900 C   0  0  0  0  0  3  0  0  0  0  0  0
  -25.8850  -32.5330   23.8650 C   0  0  0  0  0  3  0  0  0  0  0  0
  -26.3950  -31.7770   25.1550 C   0  0  1  0  0  0  0  0  0  0  0  0
  -25.2950  -31.5560   26.2190 C   0  0  0  0  0  1  0  0  0  0  0  0
  -26.9780  -30.3930   24.7860 C   0  0  0  0  0  1  0  0  0  0  0  0
  -27.5410  -32.5770   25.8170 C   0  0  0  0  0  1  0  0  0  0  0  0
  -25.5710  -33.9350   24.1860 N   0  0  0  0  0  0  0  0  0  0  0  0
  -25.9040  -34.9880   23.4300 C   0  0  0  0  0  0  0  0  0  0  0  0
  -26.5740  -34.8850   22.3990 O   0  0  0  0  0  0  0  0  0  0  0  0
  -24.9740  -34.0900   24.9860 H   0  0  0  0  0  0  0  0  0  0  0  0
  -24.1730  -36.7830   23.0840 C   0  0  0  0  0  1  0  0  0  0  0  0
  -25.4180  -36.3780   23.8900 C   0  0  0  0  0  3  0  0  0  0  0  0
  -27.5550  -37.2710   24.7110 C   0  0  0  0  0  1  0  0  0  0  0  0
  -26.4480  -37.4340   23.7710 N   0  0  0  0  0  0  0  0  0  0  0  0
  -26.0410  -38.3540   23.9170 H   0  0  0  0  0  0  0  0  0  0  0  0
  -29.3600  -17.5850   19.8250 C   0  0  0  0  0  2  0  0  0  0  0  0
  -30.4570  -15.0270   20.2680 C   0  0  0  0  0  0  0  0  0  0  0  0
  -30.3700  -12.6590   19.3600 C   0  0  0  0  0  2  0  0  0  0  0  0
  -29.4370  -12.6310   18.1260 C   0  0  0  0  0  2  0  0  0  0  0  0
  -27.9620  -12.4460   18.5340 C   0  0  0  0  0  2  0  0  0  0  0  0
  -27.5670  -13.3290   19.7490 C   0  0  0  0  0  3  0  0  0  0  0  0
  -28.6280  -13.3120   20.8710 C   0  0  0  0  0  2  0  0  0  0  0  0
  -29.8990  -13.7460   20.2740 N   0  0  0  0  0  0  0  0  0  0  0  0
  -31.6230  -15.1210   19.8710 O   0  0  0  0  0  0  0  0  0  0  0  0
  -29.6690  -16.1900   20.5410 N   0  0  0  0  0  0  0  0  0  0  0  0
  -28.8700  -15.9130   21.0910 H   0  0  0  0  0  0  0  0  0  0  0  0
  -25.1820  -13.8920   20.4880 C   0  0  0  0  0  0  0  0  0  0  0  0
  -24.1220  -13.1120   20.8640 C   0  0  0  0  0  0  0  0  0  0  0  0
  -24.5920  -11.7620   20.8320 C   0  0  0  0  0  0  0  0  0  0  0  0
  -26.2290  -13.0180   20.2460 N   0  0  0  0  0  0  0  0  0  0  0  0
  -25.8840  -11.7320   20.5180 N   0  0  0  0  0  0  0  0  0  0  0  0
  -23.8690  -10.4970   21.0240 C   0  0  0  0  0  0  0  0  0  0  0  0
  -24.3050   -9.5310   21.9580 C   0  0  0  0  0  3  0  0  0  0  0  0
  -23.5800   -8.3340   22.1410 C   0  0  0  0  0  3  0  0  0  0  0  0
  -22.4050   -8.0920   21.3900 C   0  0  0  0  0  0  0  0  0  0  0  0
  -21.9860   -9.0500   20.4480 C   0  0  0  0  0  3  0  0  0  0  0  0
  -22.7120  -10.2380   20.2630 C   0  0  0  0  0  3  0  0  0  0  0  0
  -21.6490   -6.9490   21.4840 O   0  0  0  0  0  0  0  0  0  0  0  0
  -21.6090   -6.2040   22.6350 C   0  0  0  0  0  0  0  0  0  0  0  0
  -21.1910   -6.7570   23.8660 C   0  0  0  0  0  3  0  0  0  0  0  0
  -21.0950   -5.9380   25.0090 C   0  0  0  0  0  3  0  0  0  0  0  0
  -21.4090   -4.5690   24.9240 C   0  0  0  0  0  0  0  0  0  0  0  0
  -21.8180   -4.0150   23.6970 C   0  0  0  0  0  3  0  0  0  0  0  0
  -21.9150   -4.8300   22.5570 C   0  0  0  0  0  0  0  0  0  0  0  0
  -22.2880   -4.2860   21.3740 F   0  0  0  0  0  0  0  0  0  0  0  0
  -21.3110   -3.7810   26.0190 F   0  0  0  0  0  0  0  0  0  0  0  0
  -22.7230  -13.5850   21.1290 C   0  0  0  0  0  0  0  0  0  0  0  0
  -21.9920  -12.8910   21.9940 N   0  0  0  0  0  0  0  0  0  0  0  0
  -22.2840  -14.6090   20.6020 O   0  0  0  0  0  0  0  0  0  0  0  0
  -22.3580  -12.0660   22.4470 H   0  0  0  0  0  0  0  0  0  0  0  0
  -21.0520  -13.1910   22.2080 H   0  0  0  0  0  0  0  0  0  0  0  0
  -25.3430  -15.2620   20.3050 N   0  0  0  0  0  0  0  0  0  0  0  0
  -24.5770  -15.9160   20.4250 H   0  0  0  0  0  0  0  0  0  0  0  0
  -26.1750  -15.6920   19.9200 H   0  0  0  0  0  0  0  0  0  0  0  0
  1  3  2  0
  1  4  1  0
  2  5  2  0
  3  2  1  0
  4  6  2  0
  5  6  1  0
  5  9  1  0
  6  8  1  0
  7  4  1  0
 10 11  1  0
 10  9  1  0
 12 23  2  0
 13 11  1  0
 13 18  1  0
 14 22  1  0
 14 24  1  0
 15 21  1  0
 15 17  1  0
 16 22  1  0
 17 18  2  0
 17 16  1  0
 19 13  2  0
 20 19  1  0
 20 15  2  0
 21 14  1  0
 22 12  1  0
 24 26  2  0
 25 24  1  0
 27 25  1  0
 28 37  2  0
 28 33  1  0
 29 25  1  0
 29 33  1  0
 30 29  1  0
 31 32  1  0
 31 30  1  0
 32 28  1  0
 33 34  2  0
 34 35  1  0
 36 35  2  0
 37 36  1  0
 38 12  1  0
 38 43  1  0
 38 39  1  0
 39 42  1  1
 39 40  1  0
 41 39  1  0
 43 46  1  0
 44 48  1  0
 44 43  1  0
 45 44  2  0
 48 47  1  0
 50 48  1  0
 50 51  1  0
 50 49  1  0
 52  3  1  0
 52 61  1  0
 53 59  1  0
 53 61  1  0
 54 59  1  0
 55 56  1  0
 55 54  1  0
 57 56  1  0
 57 66  1  0
 57 58  1  0
 59 58  1  0
 60 53  2  0
 61 62  1  0
 63 64  2  0
 64 83  1  0
 65 64  1  0
 65 68  1  0
 66 63  1  0
 66 67  1  0
 67 65  2  0
 68 69  1  0
 69 70  2  0
 71 74  1  0
 71 70  1  0
 72 71  2  0
 73 72  1  0
 73 68  2  0
 74 75  1  0
 75 76  1  0
 76 77  2  0
 78 77  1  0
 78 82  1  0
 79 78  2  0
 80 75  2  0
 80 79  1  0
 81 80  1  0
 83 84  1  0
 84 87  1  0
 84 86  1  0
 85 83  2  0
 88 89  1  0
 88 63  1  0
 90 88  1  0
M  ISO  4  10 101  11 101  53 100  61 100
M  END
>  <TORSDO>  (69) 
F 19

>  <SCORE>  (69) 
-15.085

>  <name>  (69) 
70

>  <ligand_id>  (69) 
70

>  <original_smiles>  (69) 
[H]c1c([H])c([H])c2c(c1[H])C([H])([H])C([H])([H])C([H])([H])C2([H])N([H])C(=O)C1([H])N(C(=O)C([H])(N([H])C(=O)C([H])(N([H])C([H])([H])[H])C([H])([H])[H])C(C([H])([H])[H])(C([H])([H])[H])C([H])([H])[H])C([H])([H])c2c([H])c(OC([H])([H])C([H])([H])c3c([H])c(C([H])([H])N([H])C(=O)N4C([H])([H])C([H])([H])C([H])([H])C([H])(n5nc(-c6c([H])c([H])c(Oc7c([H])c([H])c(F)c([H])c7F)c([H])c6[H])c(C(=O)N([H])[H])c5N([H])[H])C4([H])[H])c([H])c(C([H])([H])[H])c3C([H])([H])[H])c([H])c([H])c2C1([H])[H]

>  <smiles>  (69) 
[H]c1c([H])c([H])c2c(c1[H])C([H])([H])C([H])([H])C([H])([H])C2([H])N([H])C(=O)C1([H])N(C(=O)C([H])(N([H])C(=O)C([H])(N([H])C([H])([H])[H])C([H])([H])[H])C(C([H])([H])[H])(C([H])([H])[H])C([H])([H])[H])C([H])([H])c2c([H])c(OC([H])([H])C([H])([H])c3c([H])c(C([H])([H])N([H])C(=O)N4C([H])([H])C([H])([H])C([H])([H])C([H])(n5nc(-c6c([H])c([H])c(Oc7c([H])c([H])c(F)c([H])c7F)c([H])c6[H])c(C(=O)N([H])[H])c5N([H])[H])C4([H])[H])c([H])c(C([H])([H])[H])c3C([H])([H])[H])c([H])c([H])c2C1([H])[H]

$$$$
71:0:0
     RDKit          3D

 95103  0  0  1  0  0  0  0  0999 V2000
  -27.5510  -21.4290   20.1570 C   0  0  0  0  0  3  0  0  0  0  0  0
  -28.6400  -23.5200   20.6870 C   0  0  0  0  0  3  0  0  0  0  0  0
  -27.5390  -22.8400   20.1360 C   0  0  0  0  0  0  0  0  0  0  0  0
  -28.6530  -20.7620   20.7210 C   0  0  0  0  0  0  0  0  0  0  0  0
  -29.7140  -21.5410   21.2380 C   0  0  0  0  0  0  0  0  0  0  0  0
  -29.7020  -22.8920   21.2260 N   0  0  0  0  0  0  0  0  0  0  0  0
  -28.6690  -19.0330   20.7440 Cl  0  0  0  0  0  0  0  0  0  0  0  0
  -26.3310  -23.6030   19.6140 C   0  0  0  0  0  2  0  0  0  0  0  0
  -26.5580  -24.4020   18.3040 C   0  0  0  0  0  2  0  0  0  0  0  0
  -27.7010  -25.4500   18.3290 C   0  0  0  0  0  2  0  0  0  0  0  0
  -27.4200  -26.6730   17.6330 O   0  0  0  0  0  0  0  0  0  0  0  0
  -25.7020  -30.3630   23.4840 C   0  0  0  0  0  0  0  0  0  0  0  0
  -26.5300  -27.5220   18.2490 C   0  0  0  0  0  0  0  0  0  0  0  0
  -23.9520  -30.2080   21.7480 C   0  0  0  0  0  3  0  0  0  0  0  0
  -24.7040  -29.2740   19.5050 C   0  0  0  0  0  0  0  0  0  0  0  0
  -26.4300  -30.0870   21.1150 C   0  0  0  0  0  2  0  0  0  0  0  0
  -26.0290  -29.2030   19.9550 C   0  0  0  0  0  0  0  0  0  0  0  0
  -26.9470  -28.3300   19.3290 C   0  0  0  0  0  3  0  0  0  0  0  0
  -25.2010  -27.6300   17.7930 C   0  0  0  0  0  3  0  0  0  0  0  0
  -24.2810  -28.4820   18.4280 C   0  0  0  0  0  3  0  0  0  0  0  0
  -23.7860  -30.2470   20.2080 C   0  0  0  0  0  2  0  0  0  0  0  0
  -25.3900  -30.2000   22.1680 N   0  0  0  0  0  0  0  0  0  0  0  0
  -24.8210  -30.5570   24.3340 O   0  0  0  0  0  0  0  0  0  0  0  0
  -23.1440  -29.0100   22.3000 C   0  0  0  0  0  0  0  0  0  0  0  0
  -21.8070  -29.1000   22.2120 N   0  0  0  0  0  0  0  0  0  0  0  0
  -23.7170  -28.0190   22.7640 O   0  0  0  0  0  0  0  0  0  0  0  0
  -21.4160  -29.9430   21.8120 H   0  0  0  0  0  0  0  0  0  0  0  0
  -18.3000  -28.2230   22.2100 C   0  0  0  0  0  0  0  0  0  0  0  0
  -20.8460  -28.0840   22.6370 C   0  0  0  0  0  3  0  0  0  0  0  0
  -20.8420  -26.8840   21.6620 C   0  0  0  0  0  2  0  0  0  0  0  0
  -19.7870  -27.0060   20.5600 C   0  0  0  0  0  2  0  0  0  0  0  0
  -18.3860  -27.1200   21.1680 C   0  0  0  0  0  2  0  0  0  0  0  0
  -19.4590  -28.6860   22.8900 C   0  0  0  0  0  0  0  0  0  0  0  0
  -19.3320  -29.7350   23.8260 C   0  0  0  0  0  3  0  0  0  0  0  0
  -18.0770  -30.3180   24.0870 C   0  0  0  0  0  3  0  0  0  0  0  0
  -16.9310  -29.8480   23.4230 C   0  0  0  0  0  3  0  0  0  0  0  0
  -17.0430  -28.8010   22.4900 C   0  0  0  0  0  3  0  0  0  0  0  0
  -27.1820  -30.3330   23.9830 C   0  0  0  0  0  3  0  0  0  0  0  0
  -27.6570  -28.9000   24.4390 C   0  0  1  0  0  0  0  0  0  0  0  0
  -26.7050  -28.2190   25.4500 C   0  0  0  0  0  1  0  0  0  0  0  0
  -27.8050  -27.9610   23.2190 C   0  0  0  0  0  1  0  0  0  0  0  0
  -29.0560  -28.9950   25.0940 C   0  0  0  0  0  1  0  0  0  0  0  0
  -27.2940  -31.2960   25.0860 N   0  0  0  0  0  0  0  0  0  0  0  0
  -27.9020  -32.4870   24.9970 C   0  0  0  0  0  0  0  0  0  0  0  0
  -28.5000  -32.8620   23.9850 O   0  0  0  0  0  0  0  0  0  0  0  0
  -26.7820  -31.0770   25.9260 H   0  0  0  0  0  0  0  0  0  0  0  0
  -26.8220  -34.5360   25.9800 C   0  0  0  0  0  1  0  0  0  0  0  0
  -27.8350  -33.4090   26.2300 C   0  0  0  0  0  3  0  0  0  0  0  0
  -30.0910  -33.0050   27.1130 C   0  0  0  0  0  1  0  0  0  0  0  0
  -29.1430  -33.9910   26.6000 N   0  0  0  0  0  0  0  0  0  0  0  0
  -29.0280  -34.7150   27.3030 H   0  0  0  0  0  0  0  0  0  0  0  0
  -30.9500  -20.9250   21.8830 C   0  0  0  0  0  2  0  0  0  0  0  0
  -32.2390  -21.0810   21.0460 C   0  0  0  0  0  2  0  0  0  0  0  0
  -33.0740  -19.7960   20.9200 C   0  0  0  0  0  2  0  0  0  0  0  0
  -32.6950  -18.8970   19.7250 C   0  0  0  0  0  2  0  0  0  0  0  0
  -32.8610  -17.3960   20.1210 C   0  0  0  0  0  2  0  0  0  0  0  0
  -33.6900  -16.2650   19.4340 C   0  0  0  0  0  2  0  0  0  0  0  0
  -33.6070  -13.7790   19.7530 C   0  0  0  0  0  0  0  0  0  0  0  0
  -33.0930  -11.3880   20.0730 C   0  0  0  0  0  2  0  0  0  0  0  0
  -32.1900  -10.8770   18.9330 C   0  0  0  0  0  2  0  0  0  0  0  0
  -30.7040  -11.1400   19.2480 C   0  0  0  0  0  2  0  0  0  0  0  0
  -30.4390  -12.6020   19.7010 C   0  0  0  0  0  3  0  0  0  0  0  0
  -31.4420  -13.0170   20.7980 C   0  0  0  0  0  2  0  0  0  0  0  0
  -32.8090  -12.8140   20.2730 N   0  0  0  0  0  0  0  0  0  0  0  0
  -34.6780  -13.5590   19.1770 O   0  0  0  0  0  0  0  0  0  0  0  0
  -33.1230  -15.0130   19.9040 N   0  0  0  0  0  0  0  0  0  0  0  0
  -32.2250  -15.0760   20.3590 H   0  0  0  0  0  0  0  0  0  0  0  0
  -28.3440  -13.9530   20.3400 C   0  0  0  0  0  0  0  0  0  0  0  0
  -27.0740  -13.5660   20.6710 C   0  0  0  0  0  0  0  0  0  0  0  0
  -27.0740  -12.1390   20.6330 C   0  0  0  0  0  0  0  0  0  0  0  0
  -29.0560  -12.7820   20.1320 N   0  0  0  0  0  0  0  0  0  0  0  0
  -28.2900  -11.6850   20.3580 N   0  0  0  0  0  0  0  0  0  0  0  0
  -25.9750  -11.1760   20.7860 C   0  0  0  0  0  0  0  0  0  0  0  0
  -26.0380  -10.1210   21.7240 C   0  0  0  0  0  3  0  0  0  0  0  0
  -24.9590   -9.2240   21.8650 C   0  0  0  0  0  3  0  0  0  0  0  0
  -23.8010   -9.3750   21.0680 C   0  0  0  0  0  0  0  0  0  0  0  0
  -23.7530  -10.4110   20.1180 C   0  0  0  0  0  3  0  0  0  0  0  0
  -24.8290  -11.3010   19.9750 C   0  0  0  0  0  3  0  0  0  0  0  0
  -22.7170   -8.5330   21.1170 O   0  0  0  0  0  0  0  0  0  0  0  0
  -22.3430   -7.9070   22.2790 C   0  0  0  0  0  0  0  0  0  0  0  0
  -22.0430   -8.6310   23.4530 C   0  0  0  0  0  3  0  0  0  0  0  0
  -21.5960   -7.9530   24.6040 C   0  0  0  0  0  3  0  0  0  0  0  0
  -21.4410   -6.5550   24.5820 C   0  0  0  0  0  0  0  0  0  0  0  0
  -21.7360   -5.8310   23.4130 C   0  0  0  0  0  3  0  0  0  0  0  0
  -22.1820   -6.5070   22.2640 C   0  0  0  0  0  0  0  0  0  0  0  0
  -22.4430   -5.8070   21.1330 F   0  0  0  0  0  0  0  0  0  0  0  0
  -21.0050   -5.9030   25.6850 F   0  0  0  0  0  0  0  0  0  0  0  0
  -25.8970  -14.4670   20.9190 C   0  0  0  0  0  0  0  0  0  0  0  0
  -24.9660  -14.0370   21.7630 N   0  0  0  0  0  0  0  0  0  0  0  0
  -25.8240  -15.5810   20.4010 O   0  0  0  0  0  0  0  0  0  0  0  0
  -25.0430  -13.1320   22.2020 H   0  0  0  0  0  0  0  0  0  0  0  0
  -24.1680  -14.6190   21.9720 H   0  0  0  0  0  0  0  0  0  0  0  0
  -28.9480  -15.1960   20.1840 N   0  0  0  0  0  0  0  0  0  0  0  0
  -28.4470  -16.0670   20.3090 H   0  0  0  0  0  0  0  0  0  0  0  0
  -29.9230  -15.3380   19.9510 H   0  0  0  0  0  0  0  0  0  0  0  0
  1  4  1  0
  2  6  2  0
  3  1  2  0
  3  2  1  0
  4  7  1  0
  4  5  2  0
  5 52  1  0
  6  5  1  0
  8  3  1  0
  9 10  1  0
  9  8  1  0
 11 13  1  0
 11 10  1  0
 12 23  2  0
 13 18  1  0
 14 22  1  0
 14 24  1  0
 15 17  1  0
 15 21  1  0
 16 22  1  0
 17 16  1  0
 18 17  2  0
 19 13  2  0
 19 20  1  0
 20 15  2  0
 21 14  1  0
 22 12  1  0
 24 26  2  0
 25 24  1  0
 27 25  1  0
 28 37  2  0
 28 33  1  0
 29 25  1  0
 29 33  1  0
 30 29  1  0
 31 32  1  0
 31 30  1  0
 32 28  1  0
 33 34  2  0
 34 35  1  0
 36 35  2  0
 37 36  1  0
 38 12  1  0
 38 39  1  0
 38 43  1  0
 39 42  1  1
 39 40  1  0
 41 39  1  0
 43 46  1  0
 44 43  1  0
 44 48  1  0
 45 44  2  0
 48 47  1  0
 48 50  1  0
 50 49  1  0
 50 51  1  0
 53 52  1  0
 54 53  1  0
 55 56  1  0
 55 54  1  0
 57 66  1  0
 57 56  1  0
 58 66  1  0
 58 64  1  0
 59 64  1  0
 60 61  1  0
 60 59  1  0
 62 61  1  0
 62 71  1  0
 62 63  1  0
 64 63  1  0
 65 58  2  0
 66 67  1  0
 68 69  2  0
 69 88  1  0
 70 69  1  0
 70 73  1  0
 71 68  1  0
 71 72  1  0
 72 70  2  0
 73 74  1  0
 74 75  2  0
 76 79  1  0
 76 75  1  0
 77 76  2  0
 78 77  1  0
 78 73  2  0
 79 80  1  0
 80 81  1  0
 81 82  2  0
 83 82  1  0
 83 87  1  0
 84 83  2  0
 85 80  2  0
 85 84  1  0
 86 85  1  0
 88 89  1  0
 89 92  1  0
 89 91  1  0
 90 88  2  0
 93 94  1  0
 93 68  1  0
 95 93  1  0
M  ISO  4  10 101  11 101  58 100  66 100
M  END
>  <TORSDO>  (70) 
F 25

>  <SCORE>  (70) 
-8.088

>  <name>  (70) 
71

>  <ligand_id>  (70) 
71

>  <original_smiles>  (70) 
[H]c1nc(C([H])([H])C([H])([H])C([H])([H])C([H])([H])C([H])([H])C([H])([H])N([H])C(=O)N2C([H])([H])C([H])([H])C([H])([H])C([H])(n3nc(-c4c([H])c([H])c(Oc5c([H])c([H])c(F)c([H])c5F)c([H])c4[H])c(C(=O)N([H])[H])c3N([H])[H])C2([H])[H])c(Cl)c([H])c1C([H])([H])C([H])([H])C([H])([H])Oc1c([H])c([H])c2c(c1[H])C([H])([H])N(C(=O)C([H])(N([H])C(=O)C([H])(N([H])C([H])([H])[H])C([H])([H])[H])C(C([H])([H])[H])(C([H])([H])[H])C([H])([H])[H])C([H])(C(=O)N([H])C1([H])c3c([H])c([H])c([H])c([H])c3C([H])([H])C([H])([H])C1([H])[H])C2([H])[H]

>  <smiles>  (70) 
[H]c1nc(C([H])([H])C([H])([H])C([H])([H])C([H])([H])C([H])([H])C([H])([H])N([H])C(=O)N2C([H])([H])C([H])([H])C([H])([H])C([H])(n3nc(-c4c([H])c([H])c(Oc5c([H])c([H])c(F)c([H])c5F)c([H])c4[H])c(C(=O)N([H])[H])c3N([H])[H])C2([H])[H])c(Cl)c([H])c1C([H])([H])C([H])([H])C([H])([H])Oc1c([H])c([H])c2c(c1[H])C([H])([H])N(C(=O)C([H])(N([H])C(=O)C([H])(N([H])C([H])([H])[H])C([H])([H])[H])C(C([H])([H])[H])(C([H])([H])[H])C([H])([H])[H])C([H])(C(=O)N([H])C1([H])c3c([H])c([H])c([H])c([H])c3C([H])([H])C([H])([H])C1([H])[H])C2([H])[H]

$$$$
72:0:0
     RDKit          3D

 95103  0  0  1  0  0  0  0  0999 V2000
  -27.5960  -22.0830   19.7160 C   0  0  0  0  0  3  0  0  0  0  0  0
  -29.2380  -24.0550   20.8590 C   0  0  0  0  0  3  0  0  0  0  0  0
  -28.3900  -21.7590   20.8390 C   0  0  0  0  0  0  0  0  0  0  0  0
  -28.4670  -24.3680   19.7220 C   0  0  0  0  0  0  0  0  0  0  0  0
  -27.6350  -23.3780   19.1570 C   0  0  0  0  0  0  0  0  0  0  0  0
  -29.2000  -22.7640   21.4220 C   0  0  0  0  0  0  0  0  0  0  0  0
  -26.8860  -23.6520   18.0620 F   0  0  0  0  0  0  0  0  0  0  0  0
  -30.1930  -22.4240   22.7940 Cl  0  0  0  0  0  0  0  0  0  0  0  0
  -28.3830  -20.3340   21.3830 C   0  0  0  0  0  2  0  0  0  0  0  0
  -29.5350  -19.5710   20.8570 N   0  0  0  0  0  4  0  0  0  0  0  0
  -30.3700  -20.0710   21.1150 H   0  0  0  0  0  0  0  0  0  0  0  0
  -29.4810  -19.5610   19.8510 H   0  0  0  0  0  0  0  0  0  0  0  0
  -29.6530  -18.1810   21.3520 C   0  0  0  0  0  2  0  0  0  0  0  0
  -31.0100  -17.5610   20.9510 C   0  0  0  0  0  2  0  0  0  0  0  0
  -31.3550  -16.2270   21.6480 C   0  0  0  0  0  2  0  0  0  0  0  0
  -30.9940  -14.2730   20.1340 C   0  0  0  0  0  0  0  0  0  0  0  0
  -30.5460  -12.1560   18.9440 C   0  0  0  0  0  2  0  0  0  0  0  0
  -29.5710  -12.3620   17.7700 C   0  0  0  0  0  2  0  0  0  0  0  0
  -28.1110  -12.2670   18.2510 C   0  0  0  0  0  2  0  0  0  0  0  0
  -27.8390  -13.1540   19.4940 C   0  0  0  0  0  3  0  0  0  0  0  0
  -28.9130  -12.9170   20.5790 C   0  0  0  0  0  2  0  0  0  0  0  0
  -30.2400  -13.1540   19.9780 N   0  0  0  0  0  0  0  0  0  0  0  0
  -31.9900  -14.5220   19.4500 O   0  0  0  0  0  0  0  0  0  0  0  0
  -30.6100  -15.0770   21.1360 N   0  0  0  0  0  0  0  0  0  0  0  0
  -29.8090  -14.7670   21.6680 H   0  0  0  0  0  0  0  0  0  0  0  0
  -25.4930  -13.8680   20.2830 C   0  0  0  0  0  0  0  0  0  0  0  0
  -24.4070  -13.1410   20.6930 C   0  0  0  0  0  0  0  0  0  0  0  0
  -24.8080  -11.7710   20.6460 C   0  0  0  0  0  0  0  0  0  0  0  0
  -26.4910  -12.9410   20.0180 N   0  0  0  0  0  0  0  0  0  0  0  0
  -26.0820  -11.6750   20.2890 N   0  0  0  0  0  0  0  0  0  0  0  0
  -24.0370  -10.5420   20.8660 C   0  0  0  0  0  0  0  0  0  0  0  0
  -24.4420   -9.5740   21.8120 C   0  0  0  0  0  3  0  0  0  0  0  0
  -23.6760   -8.4080   22.0180 C   0  0  0  0  0  3  0  0  0  0  0  0
  -22.4870   -8.2000   21.2780 C   0  0  0  0  0  0  0  0  0  0  0  0
  -22.0990   -9.1540   20.3210 C   0  0  0  0  0  3  0  0  0  0  0  0
  -22.8660  -10.3130   20.1130 C   0  0  0  0  0  3  0  0  0  0  0  0
  -21.6930   -7.0840   21.3920 O   0  0  0  0  0  0  0  0  0  0  0  0
  -21.6040   -6.3800   22.5660 C   0  0  0  0  0  0  0  0  0  0  0  0
  -21.1920   -6.9910   23.7700 C   0  0  0  0  0  3  0  0  0  0  0  0
  -21.0470   -6.2160   24.9390 C   0  0  0  0  0  3  0  0  0  0  0  0
  -21.3050   -4.8320   24.9030 C   0  0  0  0  0  0  0  0  0  0  0  0
  -21.7100   -4.2220   23.7020 C   0  0  0  0  0  3  0  0  0  0  0  0
  -21.8560   -4.9940   22.5360 C   0  0  0  0  0  0  0  0  0  0  0  0
  -22.2270   -4.3970   21.3780 F   0  0  0  0  0  0  0  0  0  0  0  0
  -21.1580   -4.0860   26.0220 F   0  0  0  0  0  0  0  0  0  0  0  0
  -23.0430  -13.6780   21.0160 C   0  0  0  0  0  0  0  0  0  0  0  0
  -22.3210  -13.0170   21.9140 N   0  0  0  0  0  0  0  0  0  0  0  0
  -22.6280  -14.7190   20.5080 O   0  0  0  0  0  0  0  0  0  0  0  0
  -22.6680  -12.1730   22.3470 H   0  0  0  0  0  0  0  0  0  0  0  0
  -21.4060  -13.3590   22.1720 H   0  0  0  0  0  0  0  0  0  0  0  0
  -25.7110  -15.2300   20.0990 N   0  0  0  0  0  0  0  0  0  0  0  0
  -24.9770  -15.9170   20.2320 H   0  0  0  0  0  0  0  0  0  0  0  0
  -26.5660  -15.6280   19.7330 H   0  0  0  0  0  0  0  0  0  0  0  0
  -28.6210  -25.7350   19.0730 C   0  0  0  0  0  2  0  0  0  0  0  0
  -28.4440  -26.8220   19.9830 O   0  0  0  0  0  0  0  0  0  0  0  0
  -24.6450  -31.8660   23.2360 C   0  0  0  0  0  0  0  0  0  0  0  0
  -27.2320  -27.4790   20.0310 C   0  0  0  0  0  0  0  0  0  0  0  0
  -23.4080  -30.4980   21.5860 C   0  0  0  0  0  3  0  0  0  0  0  0
  -24.8330  -28.9730   20.1210 C   0  0  0  0  0  0  0  0  0  0  0  0
  -25.9310  -30.8490   21.3590 C   0  0  0  0  0  2  0  0  0  0  0  0
  -25.9980  -29.4870   20.7010 C   0  0  0  0  0  0  0  0  0  0  0  0
  -27.1970  -28.7430   20.6590 C   0  0  0  0  0  3  0  0  0  0  0  0
  -26.0400  -26.9630   19.4710 C   0  0  0  0  0  3  0  0  0  0  0  0
  -24.8460  -27.7060   19.5100 C   0  0  0  0  0  3  0  0  0  0  0  0
  -23.5930  -29.8340   20.1950 C   0  0  0  0  0  2  0  0  0  0  0  0
  -24.6810  -31.0850   22.1180 N   0  0  0  0  0  0  0  0  0  0  0  0
  -23.5740  -32.1350   23.7950 O   0  0  0  0  0  0  0  0  0  0  0  0
  -22.7650  -29.4650   22.5400 C   0  0  0  0  0  0  0  0  0  0  0  0
  -21.4400  -29.2850   22.4190 N   0  0  0  0  0  0  0  0  0  0  0  0
  -23.4550  -28.8310   23.3410 O   0  0  0  0  0  0  0  0  0  0  0  0
  -20.9450  -29.8470   21.7410 H   0  0  0  0  0  0  0  0  0  0  0  0
  -18.0740  -28.0750   22.9110 C   0  0  0  0  0  0  0  0  0  0  0  0
  -20.6290  -28.3390   23.1840 C   0  0  0  0  0  3  0  0  0  0  0  0
  -20.7380  -26.9130   22.5940 C   0  0  0  0  0  2  0  0  0  0  0  0
  -19.6380  -26.5950   21.5790 C   0  0  0  0  0  2  0  0  0  0  0  0
  -18.2540  -26.7310   22.2230 C   0  0  0  0  0  2  0  0  0  0  0  0
  -19.1890  -28.8370   23.3470 C   0  0  0  0  0  0  0  0  0  0  0  0
  -18.9670  -30.0950   23.9470 C   0  0  0  0  0  3  0  0  0  0  0  0
  -17.6620  -30.5920   24.1140 C   0  0  0  0  0  3  0  0  0  0  0  0
  -16.5600  -29.8280   23.6950 C   0  0  0  0  0  3  0  0  0  0  0  0
  -16.7670  -28.5700   23.1000 C   0  0  0  0  0  3  0  0  0  0  0  0
  -25.9440  -32.4780   23.8470 C   0  0  0  0  0  3  0  0  0  0  0  0
  -25.6490  -33.8720   24.2040 N   0  0  0  0  0  0  0  0  0  0  0  0
  -25.9770  -34.9330   23.4540 C   0  0  0  0  0  0  0  0  0  0  0  0
  -26.6310  -34.8400   22.4130 O   0  0  0  0  0  0  0  0  0  0  0  0
  -25.0670  -34.0180   25.0150 H   0  0  0  0  0  0  0  0  0  0  0  0
  -24.2530  -36.7400   23.1510 C   0  0  0  0  0  1  0  0  0  0  0  0
  -25.5040  -36.3180   23.9390 C   0  0  0  0  0  3  0  0  0  0  0  0
  -27.6540  -37.1840   24.7510 C   0  0  0  0  0  1  0  0  0  0  0  0
  -26.5400  -37.3660   23.8230 N   0  0  0  0  0  0  0  0  0  0  0  0
  -26.1410  -38.2870   23.9820 H   0  0  0  0  0  0  0  0  0  0  0  0
  -26.4760  -31.6820   25.1020 C   0  0  1  0  0  0  0  0  0  0  0  0
  -25.3980  -31.4320   26.1810 C   0  0  0  0  0  1  0  0  0  0  0  0
  -27.0420  -30.3080   24.6740 C   0  0  0  0  0  1  0  0  0  0  0  0
  -27.6440  -32.4540   25.7590 C   0  0  0  0  0  1  0  0  0  0  0  0
  1  3  1  0
  2  6  1  0
  3  9  1  0
  3  6  2  0
  4  2  2  0
  5  1  2  0
  5  4  1  0
  6  8  1  0
  7  5  1  0
 10 11  1  0
 10 13  1  0
 10  9  1  0
 12 10  1  0
 14 13  1  0
 14 15  1  0
 16 24  1  0
 17 22  1  0
 18 19  1  0
 18 17  1  0
 20 19  1  0
 20 29  1  0
 20 21  1  0
 22 16  1  0
 22 21  1  0
 23 16  2  0
 24 15  1  0
 24 25  1  0
 26 27  2  0
 27 46  1  0
 28 27  1  0
 28 31  1  0
 29 26  1  0
 29 30  1  0
 30 28  2  0
 31 32  1  0
 32 33  2  0
 34 37  1  0
 34 33  1  0
 35 34  2  0
 36 35  1  0
 36 31  2  0
 37 38  1  0
 38 39  1  0
 39 40  2  0
 41 40  1  0
 41 45  1  0
 42 41  2  0
 43 38  2  0
 43 42  1  0
 44 43  1  0
 46 47  1  0
 47 50  1  0
 47 49  1  0
 48 46  2  0
 51 52  1  0
 51 26  1  0
 53 51  1  0
 54  4  1  0
 54 55  1  0
 55 57  1  0
 56 67  2  0
 57 62  1  0
 58 66  1  0
 58 68  1  0
 59 65  1  0
 59 61  1  0
 60 66  1  0
 61 60  1  0
 62 61  2  0
 63 64  1  0
 63 57  2  0
 64 59  2  0
 65 58  1  0
 66 56  1  0
 68 70  2  0
 69 68  1  0
 71 69  1  0
 72 81  2  0
 72 77  1  0
 73 69  1  0
 73 77  1  0
 74 73  1  0
 75 76  1  0
 75 74  1  0
 76 72  1  0
 77 78  2  0
 78 79  1  0
 80 79  2  0
 81 80  1  0
 82 56  1  0
 82 83  1  0
 82 92  1  0
 83 86  1  0
 84 88  1  0
 84 83  1  0
 85 84  2  0
 88 87  1  0
 90 88  1  0
 90 91  1  0
 90 89  1  0
 92 95  1  1
 92 93  1  0
 94 92  1  0
M  ISO  4  16 100  24 100  54 101  55 101
M  END
>  <TORSDO>  (71) 
F 22

>  <SCORE>  (71) 
-12.524

>  <name>  (71) 
72

>  <ligand_id>  (71) 
72

>  <original_smiles>  (71) 
[H]c1c([H])c([H])c2c(c1[H])C([H])([H])C([H])([H])C([H])([H])C2([H])N([H])C(=O)C1([H])N(C(=O)C([H])(N([H])C(=O)C([H])(N([H])C([H])([H])[H])C([H])([H])[H])C(C([H])([H])[H])(C([H])([H])[H])C([H])([H])[H])C([H])([H])c2c([H])c(OC([H])([H])c3c([H])c(Cl)c(C([H])([H])[N+]([H])([H])C([H])([H])C([H])([H])C([H])([H])N([H])C(=O)N4C([H])([H])C([H])([H])C([H])([H])C([H])(n5nc(-c6c([H])c([H])c(Oc7c([H])c([H])c(F)c([H])c7F)c([H])c6[H])c(C(=O)N([H])[H])c5N([H])[H])C4([H])[H])c([H])c3F)c([H])c([H])c2C1([H])[H]

>  <smiles>  (71) 
[H]c1c([H])c([H])c2c(c1[H])C([H])([H])C([H])([H])C([H])([H])C2([H])N([H])C(=O)C1([H])N(C(=O)C([H])(N([H])C(=O)C([H])(N([H])C([H])([H])[H])C([H])([H])[H])C(C([H])([H])[H])(C([H])([H])[H])C([H])([H])[H])C([H])([H])c2c([H])c(OC([H])([H])c3c([H])c(Cl)c(C([H])([H])[N+]([H])([H])C([H])([H])C([H])([H])C([H])([H])N([H])C(=O)N4C([H])([H])C([H])([H])C([H])([H])C([H])(n5nc(-c6c([H])c([H])c(Oc7c([H])c([H])c(F)c([H])c7F)c([H])c6[H])c(C(=O)N([H])[H])c5N([H])[H])C4([H])[H])c([H])c3F)c([H])c([H])c2C1([H])[H]

$$$$
73:0:0
     RDKit          3D

 94103  0  0  1  0  0  0  0  0999 V2000
  -29.9970  -21.1890   21.2260 C   0  0  0  0  0  3  0  0  0  0  0  0
  -29.9680  -22.4520   20.5940 C   0  0  0  0  0  0  0  0  0  0  0  0
  -29.7240  -20.0280   20.4670 C   0  0  0  0  0  0  0  0  0  0  0  0
  -29.6910  -22.5020   19.2200 C   0  0  0  0  0  0  0  0  0  0  0  0
  -29.4530  -20.1930   19.0890 C   0  0  0  0  0  0  0  0  0  0  0  0
  -30.1760  -23.7500   21.3690 C   0  0  0  0  0  2  0  0  0  0  0  0
  -29.5300  -23.8420   18.5260 C   0  0  0  0  0  2  0  0  0  0  0  0
  -28.8730  -24.5590   21.5600 C   0  0  0  0  0  2  0  0  0  0  0  0
  -28.2170  -24.5190   18.9440 C   0  0  0  0  0  2  0  0  0  0  0  0
  -28.1560  -25.2100   20.3370 C   0  0  0  0  0  3  0  0  0  0  0  0
  -29.4360  -21.4000   18.4860 N   0  0  0  0  0  0  0  0  0  0  0  0
  -29.0990  -18.8240   18.0970 Cl  0  0  0  0  0  0  0  0  0  0  0  0
  -28.3640  -26.6450   20.2490 O   0  0  0  0  0  0  0  0  0  0  0  0
  -24.5450  -31.8890   23.2270 C   0  0  0  0  0  0  0  0  0  0  0  0
  -27.2160  -27.4260   20.1810 C   0  0  0  0  0  0  0  0  0  0  0  0
  -23.3580  -30.4850   21.5770 C   0  0  0  0  0  3  0  0  0  0  0  0
  -24.8260  -28.9570   20.1630 C   0  0  0  0  0  0  0  0  0  0  0  0
  -25.8900  -30.8400   21.4070 C   0  0  0  0  0  2  0  0  0  0  0  0
  -25.9830  -29.4710   20.7640 C   0  0  0  0  0  0  0  0  0  0  0  0
  -27.1810  -28.7150   20.7680 C   0  0  0  0  0  3  0  0  0  0  0  0
  -26.0380  -26.9500   19.5520 C   0  0  0  0  0  3  0  0  0  0  0  0
  -24.8510  -27.6970   19.5510 C   0  0  0  0  0  3  0  0  0  0  0  0
  -23.5820  -29.8130   20.1970 C   0  0  0  0  0  2  0  0  0  0  0  0
  -24.6150  -31.0850   22.1280 N   0  0  0  0  0  0  0  0  0  0  0  0
  -23.4570  -32.1610   23.7540 O   0  0  0  0  0  0  0  0  0  0  0  0
  -22.6980  -29.4590   22.5280 C   0  0  0  0  0  0  0  0  0  0  0  0
  -21.3740  -29.2830   22.3930 N   0  0  0  0  0  0  0  0  0  0  0  0
  -23.3750  -28.8310   23.3460 O   0  0  0  0  0  0  0  0  0  0  0  0
  -20.8890  -29.8430   21.7070 H   0  0  0  0  0  0  0  0  0  0  0  0
  -17.9840  -28.1370   22.9070 C   0  0  0  0  0  0  0  0  0  0  0  0
  -20.5490  -28.3470   23.1570 C   0  0  0  0  0  3  0  0  0  0  0  0
  -20.6210  -26.9230   22.5570 C   0  0  0  0  0  2  0  0  0  0  0  0
  -19.5030  -26.6360   21.5500 C   0  0  0  0  0  2  0  0  0  0  0  0
  -18.1300  -26.7960   22.2100 C   0  0  0  0  0  2  0  0  0  0  0  0
  -19.1200  -28.8730   23.3380 C   0  0  0  0  0  0  0  0  0  0  0  0
  -18.9300  -30.1310   23.9490 C   0  0  0  0  0  3  0  0  0  0  0  0
  -17.6370  -30.6540   24.1340 C   0  0  0  0  0  3  0  0  0  0  0  0
  -16.5150  -29.9140   23.7210 C   0  0  0  0  0  3  0  0  0  0  0  0
  -16.6900  -28.6590   23.1130 C   0  0  0  0  0  3  0  0  0  0  0  0
  -25.8230  -32.5220   23.8580 C   0  0  0  0  0  3  0  0  0  0  0  0
  -26.3220  -31.7610   25.1470 C   0  0  1  0  0  0  0  0  0  0  0  0
  -25.2120  -31.5250   26.1980 C   0  0  0  0  0  1  0  0  0  0  0  0
  -26.9170  -30.3840   24.7720 C   0  0  0  0  0  1  0  0  0  0  0  0
  -27.4570  -32.5640   25.8230 C   0  0  0  0  0  1  0  0  0  0  0  0
  -25.5140  -33.9240   24.1690 N   0  0  0  0  0  0  0  0  0  0  0  0
  -25.8700  -34.9670   23.4080 C   0  0  0  0  0  0  0  0  0  0  0  0
  -26.5650  -34.8510   22.3960 O   0  0  0  0  0  0  0  0  0  0  0  0
  -24.9000  -34.0890   24.9530 H   0  0  0  0  0  0  0  0  0  0  0  0
  -24.1780  -36.7760   22.9730 C   0  0  0  0  0  1  0  0  0  0  0  0
  -25.3770  -36.3610   23.8410 C   0  0  0  0  0  3  0  0  0  0  0  0
  -27.4760  -37.2310   24.7720 C   0  0  0  0  0  1  0  0  0  0  0  0
  -26.4240  -37.4040   23.7720 N   0  0  0  0  0  0  0  0  0  0  0  0
  -26.0200  -38.3280   23.8940 H   0  0  0  0  0  0  0  0  0  0  0  0
  -29.6600  -18.6510   21.1400 C   0  0  0  0  0  2  0  0  0  0  0  0
  -30.9190  -17.7810   20.9300 C   0  0  0  0  0  2  0  0  0  0  0  0
  -30.9820  -16.5050   21.8090 C   0  0  0  0  0  2  0  0  0  0  0  0
  -30.7570  -14.4500   20.4010 C   0  0  0  0  0  0  0  0  0  0  0  0
  -30.3610  -12.3630   19.1380 C   0  0  0  0  0  2  0  0  0  0  0  0
  -29.3930  -12.6070   17.9650 C   0  0  0  0  0  2  0  0  0  0  0  0
  -27.9300  -12.4670   18.4280 C   0  0  0  0  0  2  0  0  0  0  0  0
  -27.6320  -13.2790   19.7150 C   0  0  0  0  0  3  0  0  0  0  0  0
  -28.7080  -13.0190   20.7940 C   0  0  0  0  0  2  0  0  0  0  0  0
  -30.0270  -13.3170   20.2080 N   0  0  0  0  0  0  0  0  0  0  0  0
  -31.8150  -14.6740   19.8070 O   0  0  0  0  0  0  0  0  0  0  0  0
  -30.2610  -15.3360   21.2810 N   0  0  0  0  0  0  0  0  0  0  0  0
  -29.3820  -15.0960   21.7150 H   0  0  0  0  0  0  0  0  0  0  0  0
  -25.2510  -13.8930   20.4760 C   0  0  0  0  0  0  0  0  0  0  0  0
  -24.1850  -13.1220   20.8570 C   0  0  0  0  0  0  0  0  0  0  0  0
  -24.6360  -11.7680   20.8020 C   0  0  0  0  0  0  0  0  0  0  0  0
  -26.2860  -13.0070   20.2160 N   0  0  0  0  0  0  0  0  0  0  0  0
  -25.9200  -11.7250   20.4680 N   0  0  0  0  0  0  0  0  0  0  0  0
  -23.9060  -10.5090   20.9920 C   0  0  0  0  0  0  0  0  0  0  0  0
  -24.3290   -9.5440   21.9330 C   0  0  0  0  0  3  0  0  0  0  0  0
  -23.6000   -8.3490   22.1110 C   0  0  0  0  0  3  0  0  0  0  0  0
  -22.4330   -8.1090   21.3460 C   0  0  0  0  0  0  0  0  0  0  0  0
  -22.0300   -9.0620   20.3940 C   0  0  0  0  0  3  0  0  0  0  0  0
  -22.7590  -10.2490   20.2150 C   0  0  0  0  0  3  0  0  0  0  0  0
  -21.6760   -6.9660   21.4330 O   0  0  0  0  0  0  0  0  0  0  0  0
  -21.5870   -6.2480   22.5980 C   0  0  0  0  0  0  0  0  0  0  0  0
  -21.0890   -6.8180   23.7890 C   0  0  0  0  0  3  0  0  0  0  0  0
  -20.9510   -6.0240   24.9450 C   0  0  0  0  0  3  0  0  0  0  0  0
  -21.2990   -4.6600   24.9100 C   0  0  0  0  0  0  0  0  0  0  0  0
  -21.7900   -4.0900   23.7230 C   0  0  0  0  0  3  0  0  0  0  0  0
  -21.9310   -4.8800   22.5700 C   0  0  0  0  0  0  0  0  0  0  0  0
  -22.3840   -4.3200   21.4230 F   0  0  0  0  0  0  0  0  0  0  0  0
  -21.1590   -3.8960   26.0190 F   0  0  0  0  0  0  0  0  0  0  0  0
  -22.7960  -13.6050   21.1630 C   0  0  0  0  0  0  0  0  0  0  0  0
  -22.0770  -12.8970   22.0270 N   0  0  0  0  0  0  0  0  0  0  0  0
  -22.3570  -14.6450   20.6710 O   0  0  0  0  0  0  0  0  0  0  0  0
  -22.4450  -12.0560   22.4460 H   0  0  0  0  0  0  0  0  0  0  0  0
  -21.1460  -13.2000   22.2740 H   0  0  0  0  0  0  0  0  0  0  0  0
  -25.4220  -15.2630   20.3090 N   0  0  0  0  0  0  0  0  0  0  0  0
  -24.6630  -15.9250   20.4380 H   0  0  0  0  0  0  0  0  0  0  0  0
  -26.2730  -15.6980   19.9750 H   0  0  0  0  0  0  0  0  0  0  0  0
  2  1  1  0
  2  6  1  0
  3 54  1  0
  3  1  2  0
  4  2  2  0
  5  3  1  0
  6  8  1  0
  7  9  1  0
  7  4  1  0
  9 10  1  0
 10 13  1  0
 10  8  1  0
 11  5  2  0
 11  4  1  0
 12  5  1  0
 14 25  2  0
 15 13  1  0
 15 20  1  0
 16 24  1  0
 16 26  1  0
 17 23  1  0
 17 19  1  0
 18 24  1  0
 19 20  2  0
 19 18  1  0
 21 15  2  0
 22 21  1  0
 22 17  2  0
 23 16  1  0
 24 14  1  0
 26 28  2  0
 27 26  1  0
 29 27  1  0
 30 39  2  0
 30 35  1  0
 31 27  1  0
 31 35  1  0
 32 31  1  0
 33 34  1  0
 33 32  1  0
 34 30  1  0
 35 36  2  0
 36 37  1  0
 38 37  2  0
 39 38  1  0
 40 14  1  0
 40 45  1  0
 40 41  1  0
 41 44  1  1
 41 42  1  0
 43 41  1  0
 45 48  1  0
 46 50  1  0
 46 45  1  0
 47 46  2  0
 50 49  1  0
 52 50  1  0
 52 53  1  0
 52 51  1  0
 55 54  1  0
 55 56  1  0
 57 65  1  0
 58 63  1  0
 59 60  1  0
 59 58  1  0
 61 60  1  0
 61 70  1  0
 61 62  1  0
 63 57  1  0
 63 62  1  0
 64 57  2  0
 65 66  1  0
 65 56  1  0
 67 68  2  0
 68 87  1  0
 69 68  1  0
 69 72  1  0
 70 71  1  0
 70 67  1  0
 71 69  2  0
 72 73  1  0
 73 74  2  0
 75 78  1  0
 75 74  1  0
 76 75  2  0
 77 76  1  0
 77 72  2  0
 78 79  1  0
 79 80  1  0
 80 81  2  0
 82 81  1  0
 82 86  1  0
 83 82  2  0
 84 79  2  0
 84 83  1  0
 85 84  1  0
 87 88  1  0
 88 91  1  0
 88 90  1  0
 89 87  2  0
 92 93  1  0
 92 67  1  0
 94 92  1  0
M  ISO  4  10 101  13 101  57 100  65 100
M  END
>  <TORSDO>  (72) 
F 19

>  <SCORE>  (72) 
-14.502

>  <name>  (72) 
73

>  <ligand_id>  (72) 
73

>  <original_smiles>  (72) 
[H]c1c([H])c([H])c2c(c1[H])C([H])([H])C([H])([H])C([H])([H])C2([H])N([H])C(=O)C1([H])N(C(=O)C([H])(N([H])C(=O)C([H])(N([H])C([H])([H])[H])C([H])([H])[H])C(C([H])([H])[H])(C([H])([H])[H])C([H])([H])[H])C([H])([H])c2c([H])c(OC3([H])C([H])([H])C([H])([H])c4nc(Cl)c(C([H])([H])C([H])([H])C([H])([H])N([H])C(=O)N5C([H])([H])C([H])([H])C([H])([H])C([H])(n6nc(-c7c([H])c([H])c(Oc8c([H])c([H])c(F)c([H])c8F)c([H])c7[H])c(C(=O)N([H])[H])c6N([H])[H])C5([H])[H])c([H])c4C([H])([H])C3([H])[H])c([H])c([H])c2C1([H])[H]

>  <smiles>  (72) 
[H]c1c([H])c([H])c2c(c1[H])C([H])([H])C([H])([H])C([H])([H])C2([H])N([H])C(=O)C1([H])N(C(=O)C([H])(N([H])C(=O)C([H])(N([H])C([H])([H])[H])C([H])([H])[H])C(C([H])([H])[H])(C([H])([H])[H])C([H])([H])[H])C([H])([H])c2c([H])c(OC3([H])C([H])([H])C([H])([H])c4nc(Cl)c(C([H])([H])C([H])([H])C([H])([H])N([H])C(=O)N5C([H])([H])C([H])([H])C([H])([H])C([H])(n6nc(-c7c([H])c([H])c(Oc8c([H])c([H])c(F)c([H])c8F)c([H])c7[H])c(C(=O)N([H])[H])c6N([H])[H])C5([H])[H])c([H])c4C([H])([H])C3([H])[H])c([H])c([H])c2C1([H])[H]

$$$$
74:0:0
     RDKit          3D

 92100  0  0  1  0  0  0  0  0999 V2000
  -28.2100  -23.3710   21.2790 C   0  0  0  0  0  3  0  0  0  0  0  0
  -30.4590  -22.4710   21.1090 C   0  0  0  0  0  3  0  0  0  0  0  0
  -29.6010  -23.5810   21.3070 C   0  0  0  0  0  0  0  0  0  0  0  0
  -27.6790  -22.1060   20.9710 C   0  0  0  0  0  0  0  0  0  0  0  0
  -29.9500  -21.1730   20.8190 C   0  0  0  0  0  0  0  0  0  0  0  0
  -28.5380  -21.0120   20.7120 C   0  0  0  0  0  0  0  0  0  0  0  0
  -26.1690  -21.9510   20.8880 C   0  0  0  0  0  1  0  0  0  0  0  0
  -27.8130  -19.5220   20.2170 Cl  0  0  0  0  0  0  0  0  0  0  0  0
  -30.1180  -25.0090   21.5270 C   0  0  0  0  0  2  0  0  0  0  0  0
  -29.5610  -26.0050   20.4760 C   0  0  0  0  0  2  0  0  0  0  0  0
  -29.5850  -27.3970   20.8610 O   0  0  0  0  0  0  0  0  0  0  0  0
  -24.9610  -31.9890   23.7480 C   0  0  0  0  0  0  0  0  0  0  0  0
  -28.3800  -28.0660   20.7150 C   0  0  0  0  0  0  0  0  0  0  0  0
  -24.1050  -30.6290   21.8700 C   0  0  0  0  0  3  0  0  0  0  0  0
  -25.8650  -29.3630   20.5270 C   0  0  0  0  0  0  0  0  0  0  0  0
  -26.5910  -31.2270   22.0210 C   0  0  0  0  0  2  0  0  0  0  0  0
  -26.8900  -29.9310   21.2940 C   0  0  0  0  0  0  0  0  0  0  0  0
  -28.1510  -29.2920   21.3850 C   0  0  0  0  0  3  0  0  0  0  0  0
  -27.3370  -27.5300   19.9210 C   0  0  0  0  0  3  0  0  0  0  0  0
  -26.0860  -28.1630   19.8350 C   0  0  0  0  0  3  0  0  0  0  0  0
  -24.5450  -30.0960   20.4810 C   0  0  0  0  0  2  0  0  0  0  0  0
  -25.2290  -31.2930   22.6070 N   0  0  0  0  0  0  0  0  0  0  0  0
  -23.8000  -32.1160   24.1650 O   0  0  0  0  0  0  0  0  0  0  0  0
  -23.4510  -29.4740   22.6610 C   0  0  0  0  0  0  0  0  0  0  0  0
  -22.1700  -29.1970   22.3650 N   0  0  0  0  0  0  0  0  0  0  0  0
  -24.0940  -28.8350   23.4970 O   0  0  0  0  0  0  0  0  0  0  0  0
  -21.7100  -29.7710   21.6730 H   0  0  0  0  0  0  0  0  0  0  0  0
  -18.8520  -27.7650   22.4540 C   0  0  0  0  0  0  0  0  0  0  0  0
  -21.3620  -28.1310   22.9560 C   0  0  0  0  0  3  0  0  0  0  0  0
  -21.5980  -26.7870   22.2300 C   0  0  0  0  0  2  0  0  0  0  0  0
  -20.5950  -26.5260   21.1010 C   0  0  0  0  0  2  0  0  0  0  0  0
  -19.1640  -26.5170   21.6450 C   0  0  0  0  0  2  0  0  0  0  0  0
  -19.8860  -28.5320   23.0550 C   0  0  0  0  0  0  0  0  0  0  0  0
  -19.5450  -29.7020   23.7670 C   0  0  0  0  0  3  0  0  0  0  0  0
  -18.2020  -30.1080   23.8840 C   0  0  0  0  0  3  0  0  0  0  0  0
  -17.1820  -29.3390   23.2990 C   0  0  0  0  0  3  0  0  0  0  0  0
  -17.5070  -28.1680   22.5910 C   0  0  0  0  0  3  0  0  0  0  0  0
  -26.0940  -32.6770   24.5710 C   0  0  0  0  0  3  0  0  0  0  0  0
  -25.6960  -34.0750   24.7860 N   0  0  0  0  0  0  0  0  0  0  0  0
  -26.1140  -35.1070   24.0410 C   0  0  0  0  0  0  0  0  0  0  0  0
  -26.9410  -34.9860   23.1330 O   0  0  0  0  0  0  0  0  0  0  0  0
  -24.9780  -34.2400   25.4760 H   0  0  0  0  0  0  0  0  0  0  0  0
  -24.4050  -36.8140   23.3420 C   0  0  0  0  0  1  0  0  0  0  0  0
  -25.5190  -36.4930   24.3510 C   0  0  0  0  0  3  0  0  0  0  0  0
  -27.4740  -37.4900   25.4520 C   0  0  0  0  0  1  0  0  0  0  0  0
  -26.5240  -37.5780   24.3450 N   0  0  0  0  0  0  0  0  0  0  0  0
  -26.0710  -38.4880   24.3890 H   0  0  0  0  0  0  0  0  0  0  0  0
  -26.3870  -31.9620   25.9470 C   0  0  1  0  0  0  0  0  0  0  0  0
  -25.1170  -31.6850   26.7860 C   0  0  0  0  0  1  0  0  0  0  0  0
  -27.1050  -30.6100   25.7180 C   0  0  0  0  0  1  0  0  0  0  0  0
  -27.3420  -32.8320   26.7970 C   0  0  0  0  0  1  0  0  0  0  0  0
  -30.9650  -20.0430   20.5320 C   0  0  0  0  0  2  0  0  0  0  0  0
  -30.7690  -18.6440   21.1920 C   0  0  0  0  0  2  0  0  0  0  0  0
  -31.6750  -17.5480   20.5730 C   0  0  0  0  0  2  0  0  0  0  0  0
  -32.0160  -15.0860   20.5890 C   0  0  0  0  0  0  0  0  0  0  0  0
  -31.6650  -12.9070   19.5020 C   0  0  0  0  0  2  0  0  0  0  0  0
  -30.8030  -13.1330   18.2420 C   0  0  0  0  0  2  0  0  0  0  0  0
  -29.3030  -13.0760   18.5950 C   0  0  0  0  0  2  0  0  0  0  0  0
  -28.9440  -13.9590   19.8190 C   0  0  0  0  0  3  0  0  0  0  0  0
  -29.9290  -13.7260   20.9900 C   0  0  0  0  0  2  0  0  0  0  0  0
  -31.2960  -13.9370   20.4850 N   0  0  0  0  0  0  0  0  0  0  0  0
  -33.1710  -15.1980   20.1690 O   0  0  0  0  0  0  0  0  0  0  0  0
  -31.3240  -16.1740   20.9750 N   0  0  0  0  0  0  0  0  0  0  0  0
  -30.3870  -16.0110   21.3120 H   0  0  0  0  0  0  0  0  0  0  0  0
  -26.5560  -14.6990   20.4300 C   0  0  0  0  0  0  0  0  0  0  0  0
  -25.4280  -13.9860   20.7370 C   0  0  0  0  0  0  0  0  0  0  0  0
  -25.8090  -12.6100   20.7050 C   0  0  0  0  0  0  0  0  0  0  0  0
  -27.5560  -13.7590   20.2320 N   0  0  0  0  0  0  0  0  0  0  0  0
  -27.1060  -12.4970   20.4540 N   0  0  0  0  0  0  0  0  0  0  0  0
  -25.0010  -11.3910   20.8430 C   0  0  0  0  0  0  0  0  0  0  0  0
  -25.2610  -10.4450   21.8590 C   0  0  0  0  0  3  0  0  0  0  0  0
  -24.4610   -9.2890   21.9830 C   0  0  0  0  0  3  0  0  0  0  0  0
  -23.3860   -9.0710   21.0900 C   0  0  0  0  0  0  0  0  0  0  0  0
  -23.1440  -10.0050   20.0670 C   0  0  0  0  0  3  0  0  0  0  0  0
  -23.9450  -11.1520   19.9420 C   0  0  0  0  0  3  0  0  0  0  0  0
  -22.5720   -7.9650   21.1170 O   0  0  0  0  0  0  0  0  0  0  0  0
  -22.2230   -7.3580   22.2970 C   0  0  0  0  0  0  0  0  0  0  0  0
  -21.5880   -8.0680   23.3410 C   0  0  0  0  0  3  0  0  0  0  0  0
  -21.1830   -7.3910   24.5080 C   0  0  0  0  0  3  0  0  0  0  0  0
  -21.4020   -6.0050   24.6310 C   0  0  0  0  0  0  0  0  0  0  0  0
  -22.0280   -5.2960   23.5910 C   0  0  0  0  0  3  0  0  0  0  0  0
  -22.4350   -5.9710   22.4270 C   0  0  0  0  0  0  0  0  0  0  0  0
  -23.0180   -5.2800   21.4190 F   0  0  0  0  0  0  0  0  0  0  0  0
  -21.0050   -5.3530   25.7480 F   0  0  0  0  0  0  0  0  0  0  0  0
  -24.0510  -14.5420   20.9560 C   0  0  0  0  0  0  0  0  0  0  0  0
  -23.2650  -13.9080   21.8170 N   0  0  0  0  0  0  0  0  0  0  0  0
  -23.6820  -15.5750   20.3970 O   0  0  0  0  0  0  0  0  0  0  0  0
  -23.5730  -13.0720   22.2890 H   0  0  0  0  0  0  0  0  0  0  0  0
  -22.3370  -14.2640   22.0050 H   0  0  0  0  0  0  0  0  0  0  0  0
  -26.8130  -16.0580   20.2860 N   0  0  0  0  0  0  0  0  0  0  0  0
  -26.0920  -16.7620   20.4010 H   0  0  0  0  0  0  0  0  0  0  0  0
  -27.7100  -16.4490   20.0280 H   0  0  0  0  0  0  0  0  0  0  0  0
  1  3  1  0
  2  3  2  0
  3  9  1  0
  4  1  2  0
  5  2  1  0
  6  5  2  0
  6  4  1  0
  7  4  1  0
  8  6  1  0
 10 11  1  0
 10  9  1  0
 12 23  2  0
 13 11  1  0
 13 18  1  0
 14 22  1  0
 14 24  1  0
 15 17  1  0
 16 22  1  0
 17 18  2  0
 17 16  1  0
 19 13  2  0
 20 19  1  0
 20 15  2  0
 21 15  1  0
 21 14  1  0
 22 12  1  0
 24 26  2  0
 25 24  1  0
 27 25  1  0
 28 37  2  0
 28 33  1  0
 29 25  1  0
 29 33  1  0
 30 29  1  0
 31 32  1  0
 31 30  1  0
 32 28  1  0
 33 34  2  0
 34 35  1  0
 36 35  2  0
 37 36  1  0
 38 12  1  0
 38 39  1  0
 38 48  1  0
 39 42  1  0
 40 44  1  0
 40 39  1  0
 41 40  2  0
 44 43  1  0
 46 44  1  0
 46 47  1  0
 46 45  1  0
 48 49  1  1
 48 51  1  0
 50 48  1  0
 52  5  1  0
 52 53  1  0
 54 63  1  0
 54 53  1  0
 55 63  1  0
 56 61  1  0
 57 58  1  0
 57 56  1  0
 59 58  1  0
 59 68  1  0
 59 60  1  0
 61 55  1  0
 61 60  1  0
 62 55  2  0
 63 64  1  0
 65 66  2  0
 66 85  1  0
 67 66  1  0
 67 70  1  0
 68 65  1  0
 68 69  1  0
 69 67  2  0
 70 71  1  0
 71 72  2  0
 73 76  1  0
 73 72  1  0
 74 73  2  0
 75 74  1  0
 75 70  2  0
 76 77  1  0
 77 82  2  0
 77 78  1  0
 78 79  2  0
 79 80  1  0
 80 84  1  0
 81 80  2  0
 82 81  1  0
 83 82  1  0
 85 86  1  0
 86 89  1  0
 86 88  1  0
 87 85  2  0
 90 91  1  0
 90 65  1  0
 92 90  1  0
M  ISO  4  10 101  11 101  55 100  63 100
M  END
>  <TORSDO>  (73) 
F 21

>  <SCORE>  (73) 
-9.218

>  <name>  (73) 
74

>  <ligand_id>  (73) 
74

>  <original_smiles>  (73) 
[H]c1c([H])c([H])c2c(c1[H])C([H])([H])C([H])([H])C([H])([H])C2([H])N([H])C(=O)C1([H])N(C(=O)C([H])(N([H])C(=O)C([H])(N([H])C([H])([H])[H])C([H])([H])[H])C(C([H])([H])[H])(C([H])([H])[H])C([H])([H])[H])C([H])([H])c2c([H])c(OC([H])([H])C([H])([H])c3c([H])c(C([H])([H])[H])c(Cl)c(C([H])([H])C([H])([H])C([H])([H])N([H])C(=O)N4C([H])([H])C([H])([H])C([H])([H])C([H])(n5nc(-c6c([H])c([H])c(Oc7c([H])c([H])c(F)c([H])c7F)c([H])c6[H])c(C(=O)N([H])[H])c5N([H])[H])C4([H])[H])c3[H])c([H])c([H])c2C1([H])[H]

>  <smiles>  (73) 
[H]c1c([H])c([H])c2c(c1[H])C([H])([H])C([H])([H])C([H])([H])C2([H])N([H])C(=O)C1([H])N(C(=O)C([H])(N([H])C(=O)C([H])(N([H])C([H])([H])[H])C([H])([H])[H])C(C([H])([H])[H])(C([H])([H])[H])C([H])([H])[H])C([H])([H])c2c([H])c(OC([H])([H])C([H])([H])c3c([H])c(C([H])([H])[H])c(Cl)c(C([H])([H])C([H])([H])C([H])([H])N([H])C(=O)N4C([H])([H])C([H])([H])C([H])([H])C([H])(n5nc(-c6c([H])c([H])c(Oc7c([H])c([H])c(F)c([H])c7F)c([H])c6[H])c(C(=O)N([H])[H])c5N([H])[H])C4([H])[H])c3[H])c([H])c([H])c2C1([H])[H]

$$$$
75:0:0
     RDKit          3D

 95104  0  0  1  0  0  0  0  0999 V2000
  -29.3240  -22.4610   18.5670 C   0  0  0  0  0  3  0  0  0  0  0  0
  -28.9190  -21.2370   20.5940 C   0  0  0  0  0  3  0  0  0  0  0  0
  -29.5760  -21.2500   17.8970 C   0  0  0  0  0  0  0  0  0  0  0  0
  -29.4420  -19.9700   18.5360 C   0  0  0  0  0  0  0  0  0  0  0  0
  -28.9160  -22.5120   19.9040 C   0  0  0  0  0  0  0  0  0  0  0  0
  -29.2010  -19.9510   19.9640 C   0  0  0  0  0  0  0  0  0  0  0  0
  -29.9710  -21.4160   16.4350 C   0  0  0  0  0  2  0  0  0  0  0  0
  -29.5430  -20.2600   15.5530 C   0  0  0  0  0  2  0  0  0  0  0  0
  -29.9960  -18.9630   16.1980 C   0  0  0  0  0  2  0  0  0  0  0  0
  -29.3820  -18.7060   17.6000 C   0  0  1  0  0  0  0  0  0  0  0  0
  -30.1400  -17.4510   18.0760 C   0  0  0  0  0  1  0  0  0  0  0  0
  -27.8970  -18.3250   17.3930 C   0  0  0  0  0  1  0  0  0  0  0  0
  -28.5010  -23.9280   20.5150 C   0  0  0  0  0  3  0  0  0  0  0  0
  -28.3300  -25.2140   19.5390 C   0  0  0  0  0  3  0  0  0  0  0  0
  -28.2960  -26.6300   20.0320 O   0  0  0  0  0  0  0  0  0  0  0  0
  -24.5660  -31.9120   23.2820 C   0  0  0  0  0  0  0  0  0  0  0  0
  -27.1570  -27.4680   20.0000 C   0  0  0  0  0  0  0  0  0  0  0  0
  -23.3510  -30.5860   21.5920 C   0  0  0  0  0  3  0  0  0  0  0  0
  -24.7900  -29.1000   20.0850 C   0  0  0  0  0  0  0  0  0  0  0  0
  -25.8910  -30.9080   21.4030 C   0  0  0  0  0  2  0  0  0  0  0  0
  -25.9650  -29.5570   20.6920 C   0  0  0  0  0  0  0  0  0  0  0  0
  -27.1460  -28.7540   20.6410 C   0  0  0  0  0  3  0  0  0  0  0  0
  -25.9500  -27.0700   19.3810 C   0  0  0  0  0  3  0  0  0  0  0  0
  -24.7870  -27.8640   19.4220 C   0  0  0  0  0  3  0  0  0  0  0  0
  -23.5550  -29.9730   20.1810 C   0  0  0  0  0  2  0  0  0  0  0  0
  -24.6230  -31.1510   22.1490 N   0  0  0  0  0  0  0  0  0  0  0  0
  -23.4870  -32.1650   23.8360 O   0  0  0  0  0  0  0  0  0  0  0  0
  -22.6980  -29.5270   22.5130 C   0  0  0  0  0  0  0  0  0  0  0  0
  -21.3700  -29.3500   22.3850 N   0  0  0  0  0  0  0  0  0  0  0  0
  -23.3820  -28.8700   23.3010 O   0  0  0  0  0  0  0  0  0  0  0  0
  -20.8770  -29.9330   21.7240 H   0  0  0  0  0  0  0  0  0  0  0  0
  -18.0010  -28.1170   22.8500 C   0  0  0  0  0  0  0  0  0  0  0  0
  -20.5590  -28.3780   23.1200 C   0  0  0  0  0  3  0  0  0  0  0  0
  -20.6660  -26.9720   22.4870 C   0  0  0  0  0  2  0  0  0  0  0  0
  -19.5610  -26.6850   21.4640 C   0  0  0  0  0  2  0  0  0  0  0  0
  -18.1820  -26.7970   22.1190 C   0  0  0  0  0  2  0  0  0  0  0  0
  -19.1170  -28.8670   23.3060 C   0  0  0  0  0  0  0  0  0  0  0  0
  -18.8950  -30.1030   23.9520 C   0  0  0  0  0  3  0  0  0  0  0  0
  -17.5880  -30.5900   24.1430 C   0  0  0  0  0  3  0  0  0  0  0  0
  -16.4860  -29.8370   23.7030 C   0  0  0  0  0  3  0  0  0  0  0  0
  -16.6940  -28.6030   23.0620 C   0  0  0  0  0  3  0  0  0  0  0  0
  -25.8520  -32.5210   23.9210 C   0  0  0  0  0  3  0  0  0  0  0  0
  -26.3840  -31.6920   25.1540 C   0  0  1  0  0  0  0  0  0  0  0  0
  -25.3020  -31.3970   26.2200 C   0  0  0  0  0  1  0  0  0  0  0  0
  -26.9690  -30.3370   24.6920 C   0  0  0  0  0  1  0  0  0  0  0  0
  -27.5380  -32.4570   25.8430 C   0  0  0  0  0  1  0  0  0  0  0  0
  -25.5390  -33.9000   24.3240 N   0  0  0  0  0  0  0  0  0  0  0  0
  -25.9090  -34.9940   23.6460 C   0  0  0  0  0  0  0  0  0  0  0  0
  -26.6180  -34.9480   22.6360 O   0  0  0  0  0  0  0  0  0  0  0  0
  -24.9150  -34.0090   25.1090 H   0  0  0  0  0  0  0  0  0  0  0  0
  -24.2340  -36.8410   23.3140 C   0  0  0  0  0  1  0  0  0  0  0  0
  -25.4160  -36.3570   24.1690 C   0  0  0  0  0  3  0  0  0  0  0  0
  -27.5060  -37.1420   25.1900 C   0  0  0  0  0  1  0  0  0  0  0  0
  -26.4690  -37.3950   24.1940 N   0  0  0  0  0  0  0  0  0  0  0  0
  -26.0690  -38.3110   24.3790 H   0  0  0  0  0  0  0  0  0  0  0  0
  -29.0280  -18.5900   20.7860 C   0  0  0  0  0  2  0  0  0  0  0  0
  -30.2430  -17.5800   21.1390 C   0  0  0  0  0  2  0  0  0  0  0  0
  -30.7460  -14.9980   21.0530 C   0  0  0  0  0  0  0  0  0  0  0  0
  -30.6740  -12.7350   20.0040 C   0  0  0  0  0  2  0  0  0  0  0  0
  -29.8330  -12.8170   18.7100 C   0  0  0  0  0  2  0  0  0  0  0  0
  -28.3370  -12.6150   19.0190 C   0  0  0  0  0  2  0  0  0  0  0  0
  -27.8530  -13.4770   20.2140 C   0  0  0  0  0  3  0  0  0  0  0  0
  -28.8200  -13.3830   21.4150 C   0  0  0  0  0  2  0  0  0  0  0  0
  -30.1550  -13.7610   20.9350 N   0  0  0  0  0  0  0  0  0  0  0  0
  -31.9420  -15.1450   20.7890 O   0  0  0  0  0  0  0  0  0  0  0  0
  -29.9260  -16.0910   21.2600 N   0  0  0  0  0  0  0  0  0  0  0  0
  -28.9640  -15.8630   21.4570 H   0  0  0  0  0  0  0  0  0  0  0  0
  -25.4040  -14.0170   20.7580 C   0  0  0  0  0  0  0  0  0  0  0  0
  -24.3280  -13.2190   21.0360 C   0  0  0  0  0  0  0  0  0  0  0  0
  -24.8180  -11.8780   21.0250 C   0  0  0  0  0  0  0  0  0  0  0  0
  -26.4800  -13.1600   20.5930 N   0  0  0  0  0  0  0  0  0  0  0  0
  -26.1280  -11.8670   20.8160 N   0  0  0  0  0  0  0  0  0  0  0  0
  -24.1020  -10.6000   21.1410 C   0  0  0  0  0  0  0  0  0  0  0  0
  -24.4740   -9.6290   22.0980 C   0  0  0  0  0  3  0  0  0  0  0  0
  -23.7590   -8.4180   22.2040 C   0  0  0  0  0  3  0  0  0  0  0  0
  -22.6570   -8.1660   21.3520 C   0  0  0  0  0  0  0  0  0  0  0  0
  -22.3050   -9.1250   20.3870 C   0  0  0  0  0  3  0  0  0  0  0  0
  -23.0210  -10.3300   20.2780 C   0  0  0  0  0  3  0  0  0  0  0  0
  -21.9190   -7.0070   21.3660 O   0  0  0  0  0  0  0  0  0  0  0  0
  -21.7750   -6.2600   22.5070 C   0  0  0  0  0  0  0  0  0  0  0  0
  -21.1910   -6.7930   23.6780 C   0  0  0  0  0  3  0  0  0  0  0  0
  -20.9980   -5.9700   24.8050 C   0  0  0  0  0  3  0  0  0  0  0  0
  -21.3770   -4.6150   24.7620 C   0  0  0  0  0  0  0  0  0  0  0  0
  -21.9520   -4.0810   23.5950 C   0  0  0  0  0  3  0  0  0  0  0  0
  -22.1470   -4.9020   22.4700 C   0  0  0  0  0  0  0  0  0  0  0  0
  -22.6820   -4.3770   21.3420 F   0  0  0  0  0  0  0  0  0  0  0  0
  -21.1840   -3.8220   25.8410 F   0  0  0  0  0  0  0  0  0  0  0  0
  -22.9050  -13.6670   21.2030 C   0  0  0  0  0  0  0  0  0  0  0  0
  -22.1260  -12.9500   22.0040 N   0  0  0  0  0  0  0  0  0  0  0  0
  -22.4890  -14.6890   20.6590 O   0  0  0  0  0  0  0  0  0  0  0  0
  -22.4740  -12.1230   22.4670 H   0  0  0  0  0  0  0  0  0  0  0  0
  -21.1680  -13.2310   22.1570 H   0  0  0  0  0  0  0  0  0  0  0  0
  -25.5540  -15.3930   20.6100 N   0  0  0  0  0  0  0  0  0  0  0  0
  -24.7620  -16.0250   20.6570 H   0  0  0  0  0  0  0  0  0  0  0  0
  -26.4050  -15.8500   20.3100 H   0  0  0  0  0  0  0  0  0  0  0  0
  1  5  1  0
  3  4  1  0
  3  1  2  0
  4  6  2  0
  5 13  1  0
  5  2  2  0
  6  2  1  0
  6 56  1  0
  7  3  1  0
  8  9  1  0
  8  7  1  0
  9 10  1  0
 10 11  1  1
 10  4  1  0
 12 10  1  0
 14 15  1  0
 14 13  2  0
 16 27  2  0
 17 15  1  0
 17 22  1  0
 18 26  1  0
 18 28  1  0
 19 25  1  0
 19 21  1  0
 20 26  1  0
 21 20  1  0
 22 21  2  0
 23 24  1  0
 23 17  2  0
 24 19  2  0
 25 18  1  0
 26 16  1  0
 28 30  2  0
 29 28  1  0
 31 29  1  0
 32 41  2  0
 32 37  1  0
 33 29  1  0
 33 37  1  0
 34 33  1  0
 35 36  1  0
 35 34  1  0
 36 32  1  0
 37 38  2  0
 38 39  1  0
 40 39  2  0
 41 40  1  0
 42 16  1  0
 42 47  1  0
 42 43  1  0
 43 46  1  1
 43 44  1  0
 45 43  1  0
 47 50  1  0
 48 52  1  0
 48 47  1  0
 49 48  2  0
 52 51  1  0
 52 54  1  0
 54 55  1  0
 54 53  1  0
 56 57  1  0
 57 66  1  0
 58 66  1  0
 59 64  1  0
 60 61  1  0
 60 59  1  0
 62 61  1  0
 62 71  1  0
 62 63  1  0
 64 58  1  0
 64 63  1  0
 65 58  2  0
 66 67  1  0
 68 69  2  0
 69 88  1  0
 70 69  1  0
 70 73  1  0
 71 68  1  0
 71 72  1  0
 72 70  2  0
 73 74  1  0
 74 75  2  0
 76 79  1  0
 76 75  1  0
 77 76  2  0
 78 77  1  0
 78 73  2  0
 79 80  1  0
 80 81  1  0
 81 82  2  0
 83 82  1  0
 83 87  1  0
 84 83  2  0
 85 80  2  0
 85 84  1  0
 86 85  1  0
 88 89  1  0
 89 92  1  0
 89 91  1  0
 90 88  2  0
 93 94  1  0
 93 68  1  0
 95 93  1  0
M  ISO  4  14 101  15 101  58 100  66 100
M  END
>  <TORSDO>  (74) 
F 20

>  <SCORE>  (74) 
-13.541

>  <name>  (74) 
75

>  <ligand_id>  (74) 
75

>  <original_smiles>  (74) 
[H]c1c([H])c([H])c2c(c1[H])C([H])([H])C([H])([H])C([H])([H])C2([H])N([H])C(=O)C1([H])N(C(=O)C([H])(N([H])C(=O)C([H])(N([H])C([H])([H])[H])C([H])([H])[H])C(C([H])([H])[H])(C([H])([H])[H])C([H])([H])[H])C([H])([H])c2c([H])c(OC([H])([H])C([H])([H])c3c([H])c(C([H])([H])C([H])([H])N([H])C(=O)N4C([H])([H])C([H])([H])C([H])([H])C([H])(n5nc(-c6c([H])c([H])c(Oc7c([H])c([H])c(F)c([H])c7F)c([H])c6[H])c(C(=O)N([H])[H])c5N([H])[H])C4([H])[H])c4c(c3[H])C([H])([H])C([H])([H])C([H])([H])C4(C([H])([H])[H])C([H])([H])[H])c([H])c([H])c2C1([H])[H]

>  <smiles>  (74) 
[H]c1c([H])c([H])c2c(c1[H])C([H])([H])C([H])([H])C([H])([H])C2([H])N([H])C(=O)C1([H])N(C(=O)C([H])(N([H])C(=O)C([H])(N([H])C([H])([H])[H])C([H])([H])[H])C(C([H])([H])[H])(C([H])([H])[H])C([H])([H])[H])C([H])([H])c2c([H])c(OC([H])([H])C([H])([H])c3c([H])c(C([H])([H])C([H])([H])N([H])C(=O)N4C([H])([H])C([H])([H])C([H])([H])C([H])(n5nc(-c6c([H])c([H])c(Oc7c([H])c([H])c(F)c([H])c7F)c([H])c6[H])c(C(=O)N([H])[H])c5N([H])[H])C4([H])[H])c4c(c3[H])C([H])([H])C([H])([H])C([H])([H])C4(C([H])([H])[H])C([H])([H])[H])c([H])c([H])c2C1([H])[H]

$$$$
76:0:0
     RDKit          3D

 91 99  0  0  1  0  0  0  0  0999 V2000
  -29.7260  -20.9590   18.4620 C   0  0  0  0  0  3  0  0  0  0  0  0
  -30.4670  -18.6160   18.5180 C   0  0  0  0  0  3  0  0  0  0  0  0
  -29.6350  -21.0200   19.8720 C   0  0  0  0  0  0  0  0  0  0  0  0
  -30.3930  -18.5810   19.9250 C   0  0  0  0  0  0  0  0  0  0  0  0
  -30.1400  -19.7850   17.7990 C   0  0  0  0  0  0  0  0  0  0  0  0
  -29.9720  -19.8030   20.5940 C   0  0  0  0  0  0  0  0  0  0  0  0
  -30.2590  -19.7790   16.0760 Cl  0  0  0  0  0  0  0  0  0  0  0  0
  -29.8650  -19.8110   22.3210 Cl  0  0  0  0  0  0  0  0  0  0  0  0
  -29.0490  -22.3440   20.5260 C   0  0  0  0  0  2  0  0  0  0  0  0
  -29.5100  -23.8280   20.0910 C   0  0  0  0  0  2  0  0  0  0  0  0
  -28.3850  -24.9770   20.1170 C   0  0  0  0  0  2  0  0  0  0  0  0
  -28.6490  -26.4520   20.1800 O   0  0  0  0  0  0  0  0  0  0  0  0
  -24.7140  -31.7460   23.2470 C   0  0  0  0  0  0  0  0  0  0  0  0
  -27.5260  -27.3120   20.1360 C   0  0  0  0  0  0  0  0  0  0  0  0
  -23.5950  -30.3450   21.5560 C   0  0  0  0  0  3  0  0  0  0  0  0
  -25.1220  -28.8810   20.1260 C   0  0  0  0  0  0  0  0  0  0  0  0
  -26.1300  -30.7390   21.4390 C   0  0  0  0  0  2  0  0  0  0  0  0
  -26.2690  -29.3800   20.7560 C   0  0  0  0  0  0  0  0  0  0  0  0
  -27.4770  -28.6050   20.7530 C   0  0  0  0  0  3  0  0  0  0  0  0
  -26.3470  -26.8900   19.4710 C   0  0  0  0  0  3  0  0  0  0  0  0
  -25.1630  -27.6440   19.4740 C   0  0  0  0  0  3  0  0  0  0  0  0
  -23.8610  -29.7200   20.1650 C   0  0  0  0  0  2  0  0  0  0  0  0
  -24.8310  -30.9590   22.1380 N   0  0  0  0  0  0  0  0  0  0  0  0
  -23.6090  -31.9790   23.7620 O   0  0  0  0  0  0  0  0  0  0  0  0
  -22.9460  -29.2810   22.4750 C   0  0  0  0  0  0  0  0  0  0  0  0
  -21.6360  -29.0420   22.2990 N   0  0  0  0  0  0  0  0  0  0  0  0
  -23.6230  -28.6760   23.3100 O   0  0  0  0  0  0  0  0  0  0  0  0
  -21.1440  -29.5880   21.6050 H   0  0  0  0  0  0  0  0  0  0  0  0
  -18.3000  -27.6790   22.6540 C   0  0  0  0  0  0  0  0  0  0  0  0
  -20.8320  -28.0600   23.0310 C   0  0  0  0  0  3  0  0  0  0  0  0
  -21.0250  -26.6400   22.4510 C   0  0  0  0  0  2  0  0  0  0  0  0
  -19.9820  -26.2740   21.3910 C   0  0  0  0  0  2  0  0  0  0  0  0
  -18.5680  -26.3440   21.9790 C   0  0  0  0  0  2  0  0  0  0  0  0
  -19.3640  -28.4910   23.1310 C   0  0  0  0  0  0  0  0  0  0  0  0
  -19.0610  -29.7360   23.7200 C   0  0  0  0  0  3  0  0  0  0  0  0
  -17.7260  -30.1720   23.8380 C   0  0  0  0  0  3  0  0  0  0  0  0
  -16.6770  -29.3550   23.3800 C   0  0  0  0  0  3  0  0  0  0  0  0
  -16.9670  -28.1130   22.7890 C   0  0  0  0  0  3  0  0  0  0  0  0
  -25.9610  -32.4100   23.9080 C   0  0  0  0  0  3  0  0  0  0  0  0
  -26.4520  -31.6510   25.2010 C   0  0  1  0  0  0  0  0  0  0  0  0
  -25.3290  -31.3860   26.2300 C   0  0  0  0  0  1  0  0  0  0  0  0
  -27.0830  -30.2880   24.8310 C   0  0  0  0  0  1  0  0  0  0  0  0
  -27.5630  -32.4710   25.8970 C   0  0  0  0  0  1  0  0  0  0  0  0
  -25.6130  -33.8030   24.2220 N   0  0  0  0  0  0  0  0  0  0  0  0
  -25.9230  -34.8560   23.4560 C   0  0  0  0  0  0  0  0  0  0  0  0
  -26.6030  -34.7600   22.4310 O   0  0  0  0  0  0  0  0  0  0  0  0
  -25.0060  -33.9490   25.0160 H   0  0  0  0  0  0  0  0  0  0  0  0
  -24.1440  -36.5930   23.0790 C   0  0  0  0  0  1  0  0  0  0  0  0
  -25.3950  -36.2360   23.8960 C   0  0  0  0  0  3  0  0  0  0  0  0
  -27.4980  -37.1920   24.7250 C   0  0  0  0  0  1  0  0  0  0  0  0
  -26.3980  -37.3170   23.7720 N   0  0  0  0  0  0  0  0  0  0  0  0
  -25.9670  -38.2290   23.9030 H   0  0  0  0  0  0  0  0  0  0  0  0
  -30.9270  -17.2790   20.6490 C   0  0  0  0  0  2  0  0  0  0  0  0
  -31.1670  -14.7500   19.9840 C   0  0  0  0  0  0  0  0  0  0  0  0
  -30.8450  -12.4850   18.9880 C   0  0  0  0  0  2  0  0  0  0  0  0
  -29.8660  -12.5740   17.7970 C   0  0  0  0  0  2  0  0  0  0  0  0
  -28.4070  -12.4510   18.2830 C   0  0  0  0  0  2  0  0  0  0  0  0
  -28.1040  -13.3850   19.4840 C   0  0  0  0  0  3  0  0  0  0  0  0
  -29.1910  -13.2710   20.5730 C   0  0  0  0  0  2  0  0  0  0  0  0
  -30.4830  -13.5590   19.9350 N   0  0  0  0  0  0  0  0  0  0  0  0
  -32.3430  -14.8200   19.6170 O   0  0  0  0  0  0  0  0  0  0  0  0
  -30.4530  -15.8850   20.2890 N   0  0  0  0  0  0  0  0  0  0  0  0
  -29.4750  -15.7140   20.4710 H   0  0  0  0  0  0  0  0  0  0  0  0
  -25.7760  -14.0870   20.3070 C   0  0  0  0  0  0  0  0  0  0  0  0
  -24.6870  -13.3600   20.7070 C   0  0  0  0  0  0  0  0  0  0  0  0
  -25.0830  -11.9880   20.6440 C   0  0  0  0  0  0  0  0  0  0  0  0
  -26.7660  -13.1600   20.0220 N   0  0  0  0  0  0  0  0  0  0  0  0
  -26.3560  -11.8930   20.2860 N   0  0  0  0  0  0  0  0  0  0  0  0
  -24.3050  -10.7610   20.8450 C   0  0  0  0  0  0  0  0  0  0  0  0
  -24.6920   -9.7840   21.7880 C   0  0  0  0  0  3  0  0  0  0  0  0
  -23.9140   -8.6210   21.9720 C   0  0  0  0  0  3  0  0  0  0  0  0
  -22.7350   -8.4260   21.2140 C   0  0  0  0  0  0  0  0  0  0  0  0
  -22.3680   -9.3910   20.2590 C   0  0  0  0  0  3  0  0  0  0  0  0
  -23.1460  -10.5450   20.0730 C   0  0  0  0  0  3  0  0  0  0  0  0
  -21.9290   -7.3160   21.3110 O   0  0  0  0  0  0  0  0  0  0  0  0
  -21.7980   -6.6230   22.4880 C   0  0  0  0  0  0  0  0  0  0  0  0
  -21.2960   -7.2300   23.6600 C   0  0  0  0  0  3  0  0  0  0  0  0
  -21.1120   -6.4630   24.8270 C   0  0  0  0  0  3  0  0  0  0  0  0
  -21.4190   -5.0890   24.8220 C   0  0  0  0  0  0  0  0  0  0  0  0
  -21.9130   -4.4810   23.6550 C   0  0  0  0  0  3  0  0  0  0  0  0
  -22.0990   -5.2460   22.4910 C   0  0  0  0  0  0  0  0  0  0  0  0
  -22.5550   -4.6510   21.3620 F   0  0  0  0  0  0  0  0  0  0  0  0
  -21.2350   -4.3500   25.9410 F   0  0  0  0  0  0  0  0  0  0  0  0
  -23.3250  -13.9000   21.0370 C   0  0  0  0  0  0  0  0  0  0  0  0
  -22.5960  -13.2240   21.9190 N   0  0  0  0  0  0  0  0  0  0  0  0
  -22.9200  -14.9530   20.5480 O   0  0  0  0  0  0  0  0  0  0  0  0
  -22.9340  -12.3650   22.3280 H   0  0  0  0  0  0  0  0  0  0  0  0
  -21.6850  -13.5660   22.1860 H   0  0  0  0  0  0  0  0  0  0  0  0
  -26.0010  -15.4500   20.1350 N   0  0  0  0  0  0  0  0  0  0  0  0
  -25.2740  -16.1390   20.2830 H   0  0  0  0  0  0  0  0  0  0  0  0
  -26.8430  -15.8470   19.7380 H   0  0  0  0  0  0  0  0  0  0  0  0
  1  3  1  0
  2  4  2  0
  3  9  1  0
  3  6  2  0
  4  6  1  0
  4 53  1  0
  5  1  2  0
  5  2  1  0
  6  8  1  0
  7  5  1  0
 10 11  1  0
 10  9  1  0
 11 12  1  0
 13 24  2  0
 14 12  1  0
 14 19  1  0
 15 23  1  0
 15 25  1  0
 16 22  1  0
 16 18  1  0
 17 23  1  0
 18 17  1  0
 19 18  2  0
 20 21  1  0
 20 14  2  0
 21 16  2  0
 22 15  1  0
 23 13  1  0
 25 27  2  0
 26 25  1  0
 28 26  1  0
 29 38  2  0
 29 34  1  0
 30 26  1  0
 30 34  1  0
 31 30  1  0
 32 33  1  0
 32 31  1  0
 33 29  1  0
 34 35  2  0
 35 36  1  0
 37 36  2  0
 38 37  1  0
 39 13  1  0
 39 44  1  0
 39 40  1  0
 40 43  1  1
 40 41  1  0
 42 40  1  0
 44 47  1  0
 45 49  1  0
 45 44  1  0
 46 45  2  0
 49 48  1  0
 51 49  1  0
 51 52  1  0
 51 50  1  0
 54 62  1  0
 55 60  1  0
 56 57  1  0
 56 55  1  0
 58 57  1  0
 58 67  1  0
 58 59  1  0
 60 54  1  0
 60 59  1  0
 61 54  2  0
 62 63  1  0
 62 53  1  0
 64 65  2  0
 65 84  1  0
 66 65  1  0
 66 69  1  0
 67 68  1  0
 67 64  1  0
 68 66  2  0
 69 70  1  0
 70 71  2  0
 72 75  1  0
 72 71  1  0
 73 72  2  0
 74 73  1  0
 74 69  2  0
 75 76  1  0
 76 81  2  0
 76 77  1  0
 77 78  2  0
 79 78  1  0
 79 83  1  0
 80 79  2  0
 81 80  1  0
 82 81  1  0
 84 85  1  0
 85 88  1  0
 85 87  1  0
 86 84  2  0
 89 90  1  0
 89 64  1  0
 91 89  1  0
M  ISO  4  11 101  12 101  54 100  62 100
M  END
>  <TORSDO>  (75) 
F 20

>  <SCORE>  (75) 
-12.764

>  <name>  (75) 
76

>  <ligand_id>  (75) 
76

>  <original_smiles>  (75) 
[H]c1c([H])c([H])c2c(c1[H])C([H])([H])C([H])([H])C([H])([H])C2([H])N([H])C(=O)C1([H])N(C(=O)C([H])(N([H])C(=O)C([H])(N([H])C([H])([H])[H])C([H])([H])[H])C(C([H])([H])[H])(C([H])([H])[H])C([H])([H])[H])C([H])([H])c2c([H])c(OC([H])([H])C([H])([H])C([H])([H])c3c([H])c(Cl)c([H])c(C([H])([H])N([H])C(=O)N4C([H])([H])C([H])([H])C([H])([H])C([H])(n5nc(-c6c([H])c([H])c(Oc7c([H])c([H])c(F)c([H])c7F)c([H])c6[H])c(C(=O)N([H])[H])c5N([H])[H])C4([H])[H])c3Cl)c([H])c([H])c2C1([H])[H]

>  <smiles>  (75) 
[H]c1c([H])c([H])c2c(c1[H])C([H])([H])C([H])([H])C([H])([H])C2([H])N([H])C(=O)C1([H])N(C(=O)C([H])(N([H])C(=O)C([H])(N([H])C([H])([H])[H])C([H])([H])[H])C(C([H])([H])[H])(C([H])([H])[H])C([H])([H])[H])C([H])([H])c2c([H])c(OC([H])([H])C([H])([H])C([H])([H])c3c([H])c(Cl)c([H])c(C([H])([H])N([H])C(=O)N4C([H])([H])C([H])([H])C([H])([H])C([H])(n5nc(-c6c([H])c([H])c(Oc7c([H])c([H])c(F)c([H])c7F)c([H])c6[H])c(C(=O)N([H])[H])c5N([H])[H])C4([H])[H])c3Cl)c([H])c([H])c2C1([H])[H]

$$$$
77:0:0
     RDKit          3D

 92100  0  0  1  0  0  0  0  0999 V2000
  -31.5890  -20.0970   21.5340 C   0  0  0  0  0  3  0  0  0  0  0  0
  -29.2810  -19.8170   20.0500 C   0  0  0  0  0  3  0  0  0  0  0  0
  -31.1360  -18.7950   21.2400 C   0  0  0  0  0  0  0  0  0  0  0  0
  -30.9360  -21.2680   21.0740 C   0  0  0  0  0  0  0  0  0  0  0  0
  -29.6940  -21.1700   20.3760 C   0  0  0  0  0  0  0  0  0  0  0  0
  -30.0020  -18.6120   20.4190 C   0  0  0  0  0  0  0  0  0  0  0  0
  -31.9580  -17.6210   21.7430 C   0  0  0  0  0  1  0  0  0  0  0  0
  -32.4880  -22.9480   20.0060 C   0  0  0  0  0  1  0  0  0  0  0  0
  -31.7120  -22.5630   21.2750 C   0  0  0  0  0  2  0  0  0  0  0  0
  -28.8150  -22.4160   19.8860 C   0  0  0  0  0  2  0  0  0  0  0  0
  -29.0220  -23.9530   20.3500 C   0  0  0  0  0  3  0  0  0  0  0  0
  -27.9360  -25.0580   19.9590 C   0  0  0  0  0  3  0  0  0  0  0  0
  -28.1670  -26.5010   20.2600 O   0  0  0  0  0  0  0  0  0  0  0  0
  -24.5090  -31.9750   23.2780 C   0  0  0  0  0  0  0  0  0  0  0  0
  -27.0630  -27.3790   20.2120 C   0  0  0  0  0  0  0  0  0  0  0  0
  -23.2860  -30.5890   21.6460 C   0  0  0  0  0  3  0  0  0  0  0  0
  -24.7140  -29.0220   20.2180 C   0  0  0  0  0  0  0  0  0  0  0  0
  -25.8270  -30.8850   21.4420 C   0  0  0  0  0  2  0  0  0  0  0  0
  -25.8930  -29.4980   20.8070 C   0  0  0  0  0  0  0  0  0  0  0  0
  -27.0720  -28.6890   20.7910 C   0  0  0  0  0  3  0  0  0  0  0  0
  -25.8570  -26.9660   19.5970 C   0  0  0  0  0  3  0  0  0  0  0  0
  -24.7000  -27.7620   19.6060 C   0  0  0  0  0  3  0  0  0  0  0  0
  -23.4890  -29.9100   20.2650 C   0  0  0  0  0  2  0  0  0  0  0  0
  -24.5620  -31.1650   22.1820 N   0  0  0  0  0  0  0  0  0  0  0  0
  -23.4310  -32.2640   23.8170 O   0  0  0  0  0  0  0  0  0  0  0  0
  -22.6140  -29.5800   22.6080 C   0  0  0  0  0  0  0  0  0  0  0  0
  -21.2880  -29.4080   22.4770 N   0  0  0  0  0  0  0  0  0  0  0  0
  -23.2850  -28.9560   23.4340 O   0  0  0  0  0  0  0  0  0  0  0  0
  -20.8030  -29.9660   21.7870 H   0  0  0  0  0  0  0  0  0  0  0  0
  -17.9040  -28.2250   22.9610 C   0  0  0  0  0  0  0  0  0  0  0  0
  -20.4600  -28.4790   23.2480 C   0  0  0  0  0  3  0  0  0  0  0  0
  -20.5610  -27.0410   22.6860 C   0  0  0  0  0  2  0  0  0  0  0  0
  -19.4660  -26.7140   21.6660 C   0  0  0  0  0  2  0  0  0  0  0  0
  -18.0800  -26.8700   22.2990 C   0  0  0  0  0  2  0  0  0  0  0  0
  -19.0220  -28.9870   23.3940 C   0  0  0  0  0  0  0  0  0  0  0  0
  -18.8030  -30.2540   23.9760 C   0  0  0  0  0  3  0  0  0  0  0  0
  -17.4980  -30.7620   24.1260 C   0  0  0  0  0  3  0  0  0  0  0  0
  -16.3950  -29.9990   23.7070 C   0  0  0  0  0  3  0  0  0  0  0  0
  -16.5980  -28.7330   23.1320 C   0  0  0  0  0  3  0  0  0  0  0  0
  -25.8000  -32.5940   23.8980 C   0  0  0  0  0  3  0  0  0  0  0  0
  -25.5110  -34.0010   24.2150 N   0  0  0  0  0  0  0  0  0  0  0  0
  -25.8580  -35.0410   23.4470 C   0  0  0  0  0  0  0  0  0  0  0  0
  -26.5240  -34.9160   22.4150 O   0  0  0  0  0  0  0  0  0  0  0  0
  -24.9160  -34.1710   25.0130 H   0  0  0  0  0  0  0  0  0  0  0  0
  -24.1580  -36.8590   23.0750 C   0  0  0  0  0  1  0  0  0  0  0  0
  -25.3920  -36.4410   23.8900 C   0  0  0  0  0  3  0  0  0  0  0  0
  -27.5410  -37.3040   24.7100 C   0  0  0  0  0  1  0  0  0  0  0  0
  -26.4400  -37.4780   23.7650 N   0  0  0  0  0  0  0  0  0  0  0  0
  -26.0480  -38.4050   23.9010 H   0  0  0  0  0  0  0  0  0  0  0  0
  -26.2990  -31.8250   25.1830 C   0  0  1  0  0  0  0  0  0  0  0  0
  -25.1980  -31.6160   26.2470 C   0  0  0  0  0  1  0  0  0  0  0  0
  -26.8570  -30.4350   24.7990 C   0  0  0  0  0  1  0  0  0  0  0  0
  -27.4580  -32.6070   25.8440 C   0  0  0  0  0  1  0  0  0  0  0  0
  -29.6860  -17.2030   19.7630 C   0  0  0  0  0  2  0  0  0  0  0  0
  -30.4810  -14.7540   20.1620 C   0  0  0  0  0  0  0  0  0  0  0  0
  -30.2410  -12.4960   19.1550 C   0  0  0  0  0  2  0  0  0  0  0  0
  -29.2910  -12.6450   17.9450 C   0  0  0  0  0  2  0  0  0  0  0  0
  -27.8260  -12.4770   18.3940 C   0  0  0  0  0  2  0  0  0  0  0  0
  -27.4830  -13.3200   19.6550 C   0  0  0  0  0  3  0  0  0  0  0  0
  -28.5670  -13.1960   20.7520 C   0  0  0  0  0  2  0  0  0  0  0  0
  -29.8630  -13.5290   20.1430 N   0  0  0  0  0  0  0  0  0  0  0  0
  -31.6200  -14.8820   19.7040 O   0  0  0  0  0  0  0  0  0  0  0  0
  -29.7130  -15.8550   20.4680 N   0  0  0  0  0  0  0  0  0  0  0  0
  -28.8350  -15.6150   20.9040 H   0  0  0  0  0  0  0  0  0  0  0  0
  -25.1040  -13.8760   20.4480 C   0  0  0  0  0  0  0  0  0  0  0  0
  -24.0600  -13.0880   20.8460 C   0  0  0  0  0  0  0  0  0  0  0  0
  -24.5370  -11.7420   20.7910 C   0  0  0  0  0  0  0  0  0  0  0  0
  -26.1520  -13.0120   20.1730 N   0  0  0  0  0  0  0  0  0  0  0  0
  -25.8180  -11.7220   20.4420 N   0  0  0  0  0  0  0  0  0  0  0  0
  -23.8300  -10.4710   20.9950 C   0  0  0  0  0  0  0  0  0  0  0  0
  -24.2920   -9.5070   21.9170 C   0  0  0  0  0  3  0  0  0  0  0  0
  -23.5820   -8.3010   22.1090 C   0  0  0  0  0  3  0  0  0  0  0  0
  -22.3960   -8.0510   21.3760 C   0  0  0  0  0  0  0  0  0  0  0  0
  -21.9540   -9.0040   20.4430 C   0  0  0  0  0  3  0  0  0  0  0  0
  -22.6650  -10.2000   20.2500 C   0  0  0  0  0  3  0  0  0  0  0  0
  -21.6580   -6.8970   21.4770 O   0  0  0  0  0  0  0  0  0  0  0  0
  -21.6370   -6.1530   22.6280 C   0  0  0  0  0  0  0  0  0  0  0  0
  -21.2140   -6.6970   23.8610 C   0  0  0  0  0  3  0  0  0  0  0  0
  -21.1430   -5.8770   25.0040 C   0  0  0  0  0  3  0  0  0  0  0  0
  -21.4850   -4.5150   24.9180 C   0  0  0  0  0  0  0  0  0  0  0  0
  -21.9020   -3.9700   23.6910 C   0  0  0  0  0  3  0  0  0  0  0  0
  -21.9760   -4.7860   22.5500 C   0  0  0  0  0  0  0  0  0  0  0  0
  -22.3580   -4.2510   21.3650 F   0  0  0  0  0  0  0  0  0  0  0  0
  -21.4100   -3.7250   26.0150 F   0  0  0  0  0  0  0  0  0  0  0  0
  -22.6660  -13.5470   21.1650 C   0  0  0  0  0  0  0  0  0  0  0  0
  -21.9680  -12.8330   22.0410 N   0  0  0  0  0  0  0  0  0  0  0  0
  -22.2050  -14.5760   20.6730 O   0  0  0  0  0  0  0  0  0  0  0  0
  -22.3550  -12.0020   22.4630 H   0  0  0  0  0  0  0  0  0  0  0  0
  -21.0380  -13.1270   22.3010 H   0  0  0  0  0  0  0  0  0  0  0  0
  -25.2430  -15.2500   20.2770 N   0  0  0  0  0  0  0  0  0  0  0  0
  -24.4670  -15.8860   20.4320 H   0  0  0  0  0  0  0  0  0  0  0  0
  -26.0510  -15.7040   19.8720 H   0  0  0  0  0  0  0  0  0  0  0  0
  2  5  2  0
  2  6  1  0
  3  1  1  0
  3  7  1  0
  4  9  1  0
  4  1  2  0
  5  4  1  0
  6  3  2  0
  8  9  1  0
 10 11  1  0
 10  5  1  0
 12 13  1  0
 12 11  2  0
 14 25  2  0
 15 13  1  0
 15 20  1  0
 16 24  1  0
 16 26  1  0
 17 23  1  0
 17 19  1  0
 18 24  1  0
 19 18  1  0
 20 19  2  0
 21 22  1  0
 21 15  2  0
 22 17  2  0
 23 16  1  0
 24 14  1  0
 26 28  2  0
 27 26  1  0
 29 27  1  0
 30 39  2  0
 30 35  1  0
 31 27  1  0
 31 35  1  0
 32 31  1  0
 33 34  1  0
 33 32  1  0
 34 30  1  0
 35 36  2  0
 36 37  1  0
 38 37  2  0
 39 38  1  0
 40 14  1  0
 40 41  1  0
 40 50  1  0
 41 44  1  0
 42 46  1  0
 42 41  1  0
 43 42  2  0
 46 45  1  0
 48 46  1  0
 48 49  1  0
 48 47  1  0
 50 53  1  1
 50 51  1  0
 52 50  1  0
 54  6  1  0
 54 63  1  0
 55 63  1  0
 56 61  1  0
 57 58  1  0
 57 56  1  0
 59 58  1  0
 59 68  1  0
 59 60  1  0
 61 55  1  0
 61 60  1  0
 62 55  2  0
 63 64  1  0
 65 66  2  0
 66 85  1  0
 67 66  1  0
 67 70  1  0
 68 69  1  0
 68 65  1  0
 69 67  2  0
 70 71  1  0
 71 72  2  0
 73 76  1  0
 73 72  1  0
 74 73  2  0
 75 74  1  0
 75 70  2  0
 76 77  1  0
 77 78  1  0
 78 79  2  0
 80 79  1  0
 80 84  1  0
 81 80  2  0
 82 77  2  0
 82 81  1  0
 83 82  1  0
 85 86  1  0
 86 89  1  0
 86 88  1  0
 87 85  2  0
 90 91  1  0
 90 65  1  0
 92 90  1  0
M  ISO  4  12 101  13 101  55 100  63 100
M  END
>  <TORSDO>  (76) 
F 21

>  <SCORE>  (76) 
-13.013

>  <name>  (76) 
77

>  <ligand_id>  (76) 
77

>  <original_smiles>  (76) 
[H]c1c([H])c([H])c2c(c1[H])C([H])([H])C([H])([H])C([H])([H])C2([H])N([H])C(=O)C1([H])N(C(=O)C([H])(N([H])C(=O)C([H])(N([H])C([H])([H])[H])C([H])([H])[H])C(C([H])([H])[H])(C([H])([H])[H])C([H])([H])[H])C([H])([H])c2c([H])c(OC([H])([H])C([H])([H])C([H])([H])c3c([H])c(C([H])([H])N([H])C(=O)N4C([H])([H])C([H])([H])C([H])([H])C([H])(n5nc(-c6c([H])c([H])c(Oc7c([H])c([H])c(F)c([H])c7F)c([H])c6[H])c(C(=O)N([H])[H])c5N([H])[H])C4([H])[H])c(C([H])([H])[H])c([H])c3C([H])([H])C([H])([H])[H])c([H])c([H])c2C1([H])[H]

>  <smiles>  (76) 
[H]c1c([H])c([H])c2c(c1[H])C([H])([H])C([H])([H])C([H])([H])C2([H])N([H])C(=O)C1([H])N(C(=O)C([H])(N([H])C(=O)C([H])(N([H])C([H])([H])[H])C([H])([H])[H])C(C([H])([H])[H])(C([H])([H])[H])C([H])([H])[H])C([H])([H])c2c([H])c(OC([H])([H])C([H])([H])C([H])([H])c3c([H])c(C([H])([H])N([H])C(=O)N4C([H])([H])C([H])([H])C([H])([H])C([H])(n5nc(-c6c([H])c([H])c(Oc7c([H])c([H])c(F)c([H])c7F)c([H])c6[H])c(C(=O)N([H])[H])c5N([H])[H])C4([H])[H])c(C([H])([H])[H])c([H])c3C([H])([H])C([H])([H])[H])c([H])c([H])c2C1([H])[H]

$$$$
78:0:0
     RDKit          3D

 96105  0  0  1  0  0  0  0  0999 V2000
  -29.2900  -20.4520   20.8450 C   0  0  0  0  0  3  0  0  0  0  0  0
  -29.4550  -19.0570   20.8520 C   0  0  0  0  0  3  0  0  0  0  0  0
  -30.7510  -19.2340   22.9040 C   0  0  0  0  0  3  0  0  0  0  0  0
  -29.8680  -21.2590   21.8520 C   0  0  0  0  0  0  0  0  0  0  0  0
  -30.1980  -18.4470   21.8770 C   0  0  0  0  0  0  0  0  0  0  0  0
  -30.5890  -20.6350   22.9090 C   0  0  0  0  0  0  0  0  0  0  0  0
  -28.2030  -23.1630   21.8180 C   0  0  0  0  0  2  0  0  0  0  0  0
  -30.3680  -23.3840   20.5200 C   0  0  0  0  0  2  0  0  0  0  0  0
  -28.0340  -24.6890   21.7870 C   0  0  0  0  0  2  0  0  0  0  0  0
  -30.1980  -24.9110   20.4900 C   0  0  0  0  0  2  0  0  0  0  0  0
  -29.6900  -22.7740   21.7660 C   0  0  0  0  0  3  0  0  0  0  0  0
  -28.7140  -25.3120   20.5470 C   0  0  0  0  0  3  0  0  0  0  0  0
  -28.6900  -26.7340   20.6220 O   0  0  0  0  0  0  0  0  0  0  0  0
  -24.5270  -31.8010   23.2900 C   0  0  0  0  0  0  0  0  0  0  0  0
  -27.4750  -27.3700   20.5190 C   0  0  0  0  0  0  0  0  0  0  0  0
  -23.4580  -30.3140   21.6250 C   0  0  0  0  0  3  0  0  0  0  0  0
  -25.0350  -28.7740   20.3460 C   0  0  0  0  0  0  0  0  0  0  0  0
  -25.9770  -30.7470   21.5640 C   0  0  0  0  0  2  0  0  0  0  0  0
  -26.1380  -29.3610   20.9780 C   0  0  0  0  0  0  0  0  0  0  0  0
  -27.3610  -28.6670   21.0580 C   0  0  0  0  0  3  0  0  0  0  0  0
  -26.3550  -26.7840   19.8870 C   0  0  0  0  0  3  0  0  0  0  0  0
  -25.1360  -27.4820   19.7990 C   0  0  0  0  0  3  0  0  0  0  0  0
  -23.7680  -29.5940   20.2850 C   0  0  0  0  0  2  0  0  0  0  0  0
  -24.6690  -30.9700   22.2200 N   0  0  0  0  0  0  0  0  0  0  0  0
  -23.4090  -32.0600   23.7550 O   0  0  0  0  0  0  0  0  0  0  0  0
  -22.7790  -29.3060   22.5780 C   0  0  0  0  0  0  0  0  0  0  0  0
  -21.4690  -29.0890   22.3790 N   0  0  0  0  0  0  0  0  0  0  0  0
  -23.4290  -28.7220   23.4490 O   0  0  0  0  0  0  0  0  0  0  0  0
  -21.0070  -29.6130   21.6500 H   0  0  0  0  0  0  0  0  0  0  0  0
  -18.0890  -27.8710   22.7470 C   0  0  0  0  0  0  0  0  0  0  0  0
  -20.6280  -28.1550   23.1290 C   0  0  0  0  0  3  0  0  0  0  0  0
  -20.7690  -26.7160   22.5810 C   0  0  0  0  0  2  0  0  0  0  0  0
  -19.7160  -26.3680   21.5240 C   0  0  0  0  0  2  0  0  0  0  0  0
  -18.3060  -26.5120   22.1040 C   0  0  0  0  0  2  0  0  0  0  0  0
  -19.1800  -28.6500   23.2140 C   0  0  0  0  0  0  0  0  0  0  0  0
  -18.9270  -29.9220   23.7710 C   0  0  0  0  0  3  0  0  0  0  0  0
  -17.6120  -30.4160   23.8690 C   0  0  0  0  0  3  0  0  0  0  0  0
  -16.5330  -29.6350   23.4210 C   0  0  0  0  0  3  0  0  0  0  0  0
  -16.7720  -28.3640   22.8640 C   0  0  0  0  0  3  0  0  0  0  0  0
  -25.7570  -32.4850   23.9650 C   0  0  0  0  0  3  0  0  0  0  0  0
  -25.4090  -33.8920   24.1970 N   0  0  0  0  0  0  0  0  0  0  0  0
  -25.7510  -34.9030   23.3860 C   0  0  0  0  0  0  0  0  0  0  0  0
  -26.4640  -34.7520   22.3900 O   0  0  0  0  0  0  0  0  0  0  0  0
  -24.7800  -34.0820   24.9630 H   0  0  0  0  0  0  0  0  0  0  0  0
  -23.9850  -36.6170   22.8690 C   0  0  0  0  0  1  0  0  0  0  0  0
  -25.2150  -36.3040   23.7360 C   0  0  0  0  0  3  0  0  0  0  0  0
  -27.3040  -37.3020   24.5570 C   0  0  0  0  0  1  0  0  0  0  0  0
  -26.2210  -37.3770   23.5790 N   0  0  0  0  0  0  0  0  0  0  0  0
  -25.7870  -38.2910   23.6580 H   0  0  0  0  0  0  0  0  0  0  0  0
  -26.1960  -31.7870   25.3110 C   0  0  1  0  0  0  0  0  0  0  0  0
  -25.0250  -31.5350   26.2890 C   0  0  0  0  0  1  0  0  0  0  0  0
  -26.8750  -30.4280   25.0240 C   0  0  0  0  0  1  0  0  0  0  0  0
  -27.2450  -32.6620   26.0370 C   0  0  0  0  0  1  0  0  0  0  0  0
  -32.7060  -21.6790   23.8470 C   0  0  0  0  0  1  0  0  0  0  0  0
  -31.2100  -21.4140   24.0600 C   0  0  0  0  0  2  0  0  0  0  0  0
  -30.4410  -16.9540   21.8490 C   0  0  0  0  0  2  0  0  0  0  0  0
  -31.6500  -16.6200   20.9620 C   0  0  0  0  0  2  0  0  0  0  0  0
  -32.0590  -15.1420   21.0140 C   0  0  0  0  0  2  0  0  0  0  0  0
  -30.8720  -13.7870   19.2920 C   0  0  0  0  0  0  0  0  0  0  0  0
  -30.1730  -11.7180   18.1610 C   0  0  0  0  0  2  0  0  0  0  0  0
  -29.0360  -11.8910   17.1440 C   0  0  0  0  0  2  0  0  0  0  0  0
  -27.6700  -11.8020   17.8420 C   0  0  0  0  0  2  0  0  0  0  0  0
  -27.5750  -12.7410   19.0710 C   0  0  0  0  0  3  0  0  0  0  0  0
  -28.7950  -12.5650   20.0010 C   0  0  0  0  0  2  0  0  0  0  0  0
  -30.0320  -12.7310   19.2140 N   0  0  0  0  0  0  0  0  0  0  0  0
  -31.6240  -14.1430   18.3790 O   0  0  0  0  0  0  0  0  0  0  0  0
  -31.0020  -14.2580   20.5370 N   0  0  0  0  0  0  0  0  0  0  0  0
  -30.3970  -13.8440   21.2320 H   0  0  0  0  0  0  0  0  0  0  0  0
  -25.4040  -13.4840   20.2450 C   0  0  0  0  0  0  0  0  0  0  0  0
  -24.3670  -12.7710   20.7850 C   0  0  0  0  0  0  0  0  0  0  0  0
  -24.7060  -11.3940   20.6190 C   0  0  0  0  0  0  0  0  0  0  0  0
  -26.3160  -12.5430   19.7910 N   0  0  0  0  0  0  0  0  0  0  0  0
  -25.9070  -11.2790   20.0680 N   0  0  0  0  0  0  0  0  0  0  0  0
  -23.9330  -10.1780   20.9030 C   0  0  0  0  0  0  0  0  0  0  0  0
  -24.3820   -9.2160   21.8340 C   0  0  0  0  0  3  0  0  0  0  0  0
  -23.6120   -8.0640   22.1010 C   0  0  0  0  0  3  0  0  0  0  0  0
  -22.3780   -7.8650   21.4380 C   0  0  0  0  0  0  0  0  0  0  0  0
  -21.9450   -8.8140   20.4960 C   0  0  0  0  0  3  0  0  0  0  0  0
  -22.7160   -9.9570   20.2260 C   0  0  0  0  0  3  0  0  0  0  0  0
  -21.5760   -6.7640   21.6160 O   0  0  0  0  0  0  0  0  0  0  0  0
  -21.4850   -6.1270   22.8280 C   0  0  0  0  0  0  0  0  0  0  0  0
  -21.0430   -6.7950   23.9900 C   0  0  0  0  0  3  0  0  0  0  0  0
  -20.8990   -6.0850   25.1980 C   0  0  0  0  0  3  0  0  0  0  0  0
  -21.1860   -4.7080   25.2450 C   0  0  0  0  0  0  0  0  0  0  0  0
  -21.6210   -4.0390   24.0870 C   0  0  0  0  0  3  0  0  0  0  0  0
  -21.7670   -4.7470   22.8810 C   0  0  0  0  0  0  0  0  0  0  0  0
  -22.1660   -4.0930   21.7640 F   0  0  0  0  0  0  0  0  0  0  0  0
  -21.0410   -4.0230   26.4050 F   0  0  0  0  0  0  0  0  0  0  0  0
  -23.0870  -13.3320   21.3380 C   0  0  0  0  0  0  0  0  0  0  0  0
  -22.4930  -12.6530   22.3140 N   0  0  0  0  0  0  0  0  0  0  0  0
  -22.6340  -14.4030   20.9400 O   0  0  0  0  0  0  0  0  0  0  0  0
  -22.8770  -11.7850   22.6550 H   0  0  0  0  0  0  0  0  0  0  0  0
  -21.6410  -13.0080   22.7260 H   0  0  0  0  0  0  0  0  0  0  0  0
  -25.6400  -14.8460   20.0860 N   0  0  0  0  0  0  0  0  0  0  0  0
  -24.9660  -15.5510   20.3660 H   0  0  0  0  0  0  0  0  0  0  0  0
  -26.4590  -15.2360   19.6350 H   0  0  0  0  0  0  0  0  0  0  0  0
  1  2  2  0
  1  4  1  0
  2  5  1  0
  3  6  1  0
  4  6  2  0
  5  3  2  0
  6 55  1  0
  8 11  1  0
  9  7  1  0
 10  8  1  0
 10 12  1  0
 11  7  1  0
 11  4  1  0
 12 13  1  0
 12  9  1  0
 14 25  2  0
 15 13  1  0
 15 20  1  0
 16 24  1  0
 16 26  1  0
 17 19  1  0
 18 24  1  0
 19 20  2  0
 19 18  1  0
 21 15  2  0
 22 21  1  0
 22 17  2  0
 23 17  1  0
 23 16  1  0
 24 14  1  0
 26 28  2  0
 27 26  1  0
 29 27  1  0
 30 39  2  0
 30 35  1  0
 31 27  1  0
 31 35  1  0
 32 31  1  0
 33 34  1  0
 33 32  1  0
 34 30  1  0
 35 36  2  0
 36 37  1  0
 38 37  2  0
 39 38  1  0
 40 14  1  0
 40 41  1  0
 40 50  1  0
 41 44  1  0
 42 46  1  0
 42 41  1  0
 43 42  2  0
 46 45  1  0
 48 49  1  0
 48 46  1  0
 48 47  1  0
 50 53  1  1
 50 51  1  0
 52 50  1  0
 54 55  1  0
 56  5  1  0
 57 58  1  0
 57 56  1  0
 59 67  1  0
 60 65  1  0
 61 62  1  0
 61 60  1  0
 63 62  1  0
 63 72  1  0
 63 64  1  0
 65 59  1  0
 65 64  1  0
 66 59  2  0
 67 58  1  0
 67 68  1  0
 69 70  2  0
 70 89  1  0
 71 70  1  0
 71 74  1  0
 72 73  1  0
 72 69  1  0
 73 71  2  0
 74 75  1  0
 75 76  2  0
 77 80  1  0
 77 76  1  0
 78 77  2  0
 79 78  1  0
 79 74  2  0
 80 81  1  0
 81 86  2  0
 81 82  1  0
 82 83  2  0
 83 84  1  0
 84 88  1  0
 85 84  2  0
 86 85  1  0
 87 86  1  0
 89 90  1  0
 90 92  1  0
 90 93  1  0
 91 89  2  0
 94 69  1  0
 94 95  1  0
 96 94  1  0
M  ISO  4  12 101  13 101  59 100  67 100
M  END
>  <TORSDO>  (77) 
F 21

>  <SCORE>  (77) 
-10.585

>  <name>  (77) 
78

>  <ligand_id>  (77) 
78

>  <original_smiles>  (77) 
[H]c1c([H])c([H])c2c(c1[H])C([H])([H])C([H])([H])C([H])([H])C2([H])N([H])C(=O)C1([H])N(C(=O)C([H])(N([H])C(=O)C([H])(N([H])C([H])([H])[H])C([H])([H])[H])C(C([H])([H])[H])(C([H])([H])[H])C([H])([H])[H])C([H])([H])c2c([H])c(OC3([H])C([H])([H])C([H])([H])C([H])(c4c([H])c([H])c(C([H])([H])C([H])([H])C([H])([H])N([H])C(=O)N5C([H])([H])C([H])([H])C([H])([H])C([H])(n6nc(-c7c([H])c([H])c(Oc8c([H])c([H])c(F)c([H])c8F)c([H])c7[H])c(C(=O)N([H])[H])c6N([H])[H])C5([H])[H])c([H])c4C([H])([H])C([H])([H])[H])C([H])([H])C3([H])[H])c([H])c([H])c2C1([H])[H]

>  <smiles>  (77) 
[H]c1c([H])c([H])c2c(c1[H])C([H])([H])C([H])([H])C([H])([H])C2([H])N([H])C(=O)C1([H])N(C(=O)C([H])(N([H])C(=O)C([H])(N([H])C([H])([H])[H])C([H])([H])[H])C(C([H])([H])[H])(C([H])([H])[H])C([H])([H])[H])C([H])([H])c2c([H])c(OC3([H])C([H])([H])C([H])([H])C([H])(c4c([H])c([H])c(C([H])([H])C([H])([H])C([H])([H])N([H])C(=O)N5C([H])([H])C([H])([H])C([H])([H])C([H])(n6nc(-c7c([H])c([H])c(Oc8c([H])c([H])c(F)c([H])c8F)c([H])c7[H])c(C(=O)N([H])[H])c6N([H])[H])C5([H])[H])c([H])c4C([H])([H])C([H])([H])[H])C([H])([H])C3([H])[H])c([H])c([H])c2C1([H])[H]

$$$$
79:0:0
     RDKit          3D

 95104  0  0  1  0  0  0  0  0999 V2000
  -27.6240  -22.0590   19.9860 C   0  0  0  0  0  3  0  0  0  0  0  0
  -28.1990  -17.6280   19.6890 C   0  0  0  0  0  3  0  0  0  0  0  0
  -27.5120  -20.6200   19.9120 C   0  0  0  0  0  0  0  0  0  0  0  0
  -28.9910  -18.5400   20.4240 C   0  0  0  0  0  0  0  0  0  0  0  0
  -26.0190  -18.7290   19.0690 C   0  0  0  0  0  0  0  0  0  0  0  0
  -28.7610  -20.0230   20.4000 C   0  0  0  0  0  0  0  0  0  0  0  0
  -26.9410  -17.6770   19.0890 C   0  0  0  0  0  0  0  0  0  0  0  0
  -26.2870  -20.0660   19.4260 C   0  0  0  0  0  0  0  0  0  0  0  0
  -28.9320  -22.3180   20.4700 C   0  0  0  0  0  0  0  0  0  0  0  0
  -24.6170  -18.3850   18.5610 C   0  0  0  0  0  1  0  0  0  0  0  0
  -29.5400  -21.1050   20.7520 N   0  0  0  0  0  0  0  0  0  0  0  0
  -26.5580  -16.5040   18.5320 F   0  0  0  0  0  0  0  0  0  0  0  0
  -24.9770  -21.1860   19.1690 Cl  0  0  0  0  0  0  0  0  0  0  0  0
  -30.1620  -17.7070   21.1440 C   0  0  0  0  0  2  0  0  0  0  0  0
  -30.8640  -15.0780   21.1160 C   0  0  0  0  0  0  0  0  0  0  0  0
  -30.8560  -12.7730   20.1280 C   0  0  0  0  0  2  0  0  0  0  0  0
  -30.0260  -12.7970   18.8240 C   0  0  0  0  0  2  0  0  0  0  0  0
  -28.5330  -12.5590   19.1280 C   0  0  0  0  0  2  0  0  0  0  0  0
  -28.0170  -13.4430   20.2930 C   0  0  0  0  0  3  0  0  0  0  0  0
  -28.9780  -13.4080   21.5030 C   0  0  0  0  0  2  0  0  0  0  0  0
  -30.3050  -13.8170   21.0240 N   0  0  0  0  0  0  0  0  0  0  0  0
  -32.0610  -15.2330   20.8580 O   0  0  0  0  0  0  0  0  0  0  0  0
  -30.0110  -16.1650   21.2970 N   0  0  0  0  0  0  0  0  0  0  0  0
  -29.0650  -15.8840   21.5030 H   0  0  0  0  0  0  0  0  0  0  0  0
  -25.5750  -13.9620   20.8870 C   0  0  0  0  0  0  0  0  0  0  0  0
  -24.5000  -13.1610   21.1470 C   0  0  0  0  0  0  0  0  0  0  0  0
  -24.9870  -11.8190   21.0840 C   0  0  0  0  0  0  0  0  0  0  0  0
  -26.6470  -13.1120   20.6720 N   0  0  0  0  0  0  0  0  0  0  0  0
  -26.2960  -11.8140   20.8570 N   0  0  0  0  0  0  0  0  0  0  0  0
  -24.2670  -10.5420   21.1630 C   0  0  0  0  0  0  0  0  0  0  0  0
  -24.6510   -9.5330   22.0730 C   0  0  0  0  0  3  0  0  0  0  0  0
  -23.9310   -8.3210   22.1440 C   0  0  0  0  0  3  0  0  0  0  0  0
  -22.8130   -8.1100   21.3020 C   0  0  0  0  0  0  0  0  0  0  0  0
  -22.4490   -9.1080   20.3810 C   0  0  0  0  0  3  0  0  0  0  0  0
  -23.1700  -10.3110   20.3070 C   0  0  0  0  0  3  0  0  0  0  0  0
  -22.0680   -6.9570   21.2880 O   0  0  0  0  0  0  0  0  0  0  0  0
  -21.9430   -6.1660   22.4010 C   0  0  0  0  0  0  0  0  0  0  0  0
  -21.4020   -6.6590   23.6070 C   0  0  0  0  0  3  0  0  0  0  0  0
  -21.2270   -5.7950   24.7060 C   0  0  0  0  0  3  0  0  0  0  0  0
  -21.5810   -4.4370   24.5970 C   0  0  0  0  0  0  0  0  0  0  0  0
  -22.1130   -3.9410   23.3940 C   0  0  0  0  0  3  0  0  0  0  0  0
  -22.2910   -4.8040   22.2980 C   0  0  0  0  0  0  0  0  0  0  0  0
  -22.7870   -4.3180   21.1350 F   0  0  0  0  0  0  0  0  0  0  0  0
  -21.4030   -3.6030   25.6490 F   0  0  0  0  0  0  0  0  0  0  0  0
  -23.0800  -13.6100   21.3350 C   0  0  0  0  0  0  0  0  0  0  0  0
  -22.3000  -12.8750   22.1200 N   0  0  0  0  0  0  0  0  0  0  0  0
  -22.6650  -14.6490   20.8200 O   0  0  0  0  0  0  0  0  0  0  0  0
  -22.6450  -12.0350   22.5640 H   0  0  0  0  0  0  0  0  0  0  0  0
  -21.3440  -13.1560   22.2820 H   0  0  0  0  0  0  0  0  0  0  0  0
  -25.7220  -15.3380   20.7860 N   0  0  0  0  0  0  0  0  0  0  0  0
  -24.8730  -15.8890   20.7260 H   0  0  0  0  0  0  0  0  0  0  0  0
  -26.4490  -15.7060   20.1870 H   0  0  0  0  0  0  0  0  0  0  0  0
  -29.3390  -23.8740   20.5550 C   0  0  0  0  0  3  0  0  0  0  0  0
  -28.3140  -25.0650   20.1010 C   0  0  0  0  0  3  0  0  0  0  0  0
  -28.6100  -26.5520   20.1700 O   0  0  0  0  0  0  0  0  0  0  0  0
  -24.8770  -31.8980   23.3990 C   0  0  0  0  0  0  0  0  0  0  0  0
  -27.5280  -27.4730   20.1280 C   0  0  0  0  0  0  0  0  0  0  0  0
  -23.7040  -30.5990   21.6630 C   0  0  0  0  0  3  0  0  0  0  0  0
  -25.1770  -29.1380   20.1640 C   0  0  0  0  0  0  0  0  0  0  0  0
  -26.2520  -30.9170   21.5390 C   0  0  0  0  0  2  0  0  0  0  0  0
  -26.3430  -29.5760   20.8070 C   0  0  0  0  0  0  0  0  0  0  0  0
  -27.5230  -28.7590   20.7750 C   0  0  0  0  0  3  0  0  0  0  0  0
  -26.3370  -27.1160   19.4530 C   0  0  0  0  0  3  0  0  0  0  0  0
  -25.1820  -27.9170   19.4770 C   0  0  0  0  0  3  0  0  0  0  0  0
  -23.9400  -30.0140   20.2460 C   0  0  0  0  0  2  0  0  0  0  0  0
  -24.9630  -31.1510   22.2580 N   0  0  0  0  0  0  0  0  0  0  0  0
  -23.7830  -32.1440   23.9300 O   0  0  0  0  0  0  0  0  0  0  0  0
  -23.0260  -29.5270   22.5510 C   0  0  0  0  0  0  0  0  0  0  0  0
  -21.6990  -29.3670   22.4070 N   0  0  0  0  0  0  0  0  0  0  0  0
  -23.6940  -28.8480   23.3350 O   0  0  0  0  0  0  0  0  0  0  0  0
  -21.2160  -29.9610   21.7490 H   0  0  0  0  0  0  0  0  0  0  0  0
  -18.3170  -28.1530   22.8090 C   0  0  0  0  0  0  0  0  0  0  0  0
  -20.8750  -28.3860   23.1160 C   0  0  0  0  0  3  0  0  0  0  0  0
  -20.9760  -26.9950   22.4480 C   0  0  0  0  0  2  0  0  0  0  0  0
  -19.8800  -26.7490   21.4070 C   0  0  0  0  0  2  0  0  0  0  0  0
  -18.4960  -26.8450   22.0570 C   0  0  0  0  0  2  0  0  0  0  0  0
  -19.4340  -28.8820   23.2950 C   0  0  0  0  0  0  0  0  0  0  0  0
  -19.2130  -30.1070   23.9650 C   0  0  0  0  0  3  0  0  0  0  0  0
  -17.9080  -30.5990   24.1510 C   0  0  0  0  0  3  0  0  0  0  0  0
  -16.8050  -29.8650   23.6790 C   0  0  0  0  0  3  0  0  0  0  0  0
  -17.0100  -28.6430   23.0160 C   0  0  0  0  0  3  0  0  0  0  0  0
  -26.1460  -32.4980   24.0780 C   0  0  0  0  0  3  0  0  0  0  0  0
  -26.6540  -31.6440   25.3020 C   0  0  1  0  0  0  0  0  0  0  0  0
  -25.5520  -31.3240   26.3410 C   0  0  0  0  0  1  0  0  0  0  0  0
  -27.2520  -30.3020   24.8210 C   0  0  0  0  0  1  0  0  0  0  0  0
  -27.7920  -32.4000   26.0300 C   0  0  0  0  0  1  0  0  0  0  0  0
  -25.8140  -33.8670   24.5070 N   0  0  0  0  0  0  0  0  0  0  0  0
  -26.1790  -34.9800   23.8570 C   0  0  0  0  0  0  0  0  0  0  0  0
  -26.8960  -34.9620   22.8530 O   0  0  0  0  0  0  0  0  0  0  0  0
  -25.1770  -33.9540   25.2860 H   0  0  0  0  0  0  0  0  0  0  0  0
  -24.4820  -36.8140   23.5620 C   0  0  0  0  0  1  0  0  0  0  0  0
  -25.6700  -36.3270   24.4070 C   0  0  0  0  0  3  0  0  0  0  0  0
  -27.7560  -37.1130   25.4350 C   0  0  0  0  0  1  0  0  0  0  0  0
  -26.7130  -37.3770   24.4490 N   0  0  0  0  0  0  0  0  0  0  0  0
  -26.3040  -38.2840   24.6560 H   0  0  0  0  0  0  0  0  0  0  0  0
  1  9  1  0
  2  4  1  0
  3  1  2  0
  3  6  1  0
  4 14  1  0
  5  7  1  0
  5  8  2  0
  6  4  2  0
  6 11  1  0
  7  2  2  0
  8  3  1  0
  9 53  1  0
  9 11  2  0
 10  5  1  0
 12  7  1  0
 13  8  1  0
 14 23  1  0
 15 23  1  0
 16 21  1  0
 17 18  1  0
 17 16  1  0
 19 18  1  0
 19 28  1  0
 19 20  1  0
 21 15  1  0
 21 20  1  0
 22 15  2  0
 23 24  1  0
 25 26  2  0
 26 45  1  0
 27 26  1  0
 27 30  1  0
 28 29  1  0
 28 25  1  0
 29 27  2  0
 30 31  1  0
 31 32  2  0
 33 32  1  0
 34 33  2  0
 35 34  1  0
 35 30  2  0
 36 33  1  0
 36 37  1  0
 37 38  1  0
 38 39  2  0
 40 39  1  0
 40 44  1  0
 41 40  2  0
 42 37  2  0
 42 41  1  0
 43 42  1  0
 45 46  1  0
 46 49  1  0
 46 48  1  0
 47 45  2  0
 50 25  1  0
 51 50  1  0
 52 50  1  0
 54 55  1  0
 54 53  2  0
 56 67  2  0
 57 55  1  0
 57 62  1  0
 58 66  1  0
 58 68  1  0
 59 65  1  0
 59 61  1  0
 60 66  1  0
 61 60  1  0
 62 61  2  0
 63 64  1  0
 63 57  2  0
 64 59  2  0
 65 58  1  0
 66 56  1  0
 68 70  2  0
 69 68  1  0
 71 69  1  0
 72 81  2  0
 72 77  1  0
 73 69  1  0
 73 77  1  0
 74 73  1  0
 75 76  1  0
 75 74  1  0
 76 72  1  0
 77 78  2  0
 78 79  1  0
 80 79  2  0
 81 80  1  0
 82 56  1  0
 82 87  1  0
 82 83  1  0
 83 86  1  1
 83 84  1  0
 85 83  1  0
 87 90  1  0
 88 92  1  0
 88 87  1  0
 89 88  2  0
 92 91  1  0
 92 94  1  0
 94 95  1  0
 94 93  1  0
M  ISO  4  15 100  23 100  54 101  55 101
M  END
>  <TORSDO>  (78) 
F 19

>  <SCORE>  (78) 
-9.771

>  <name>  (78) 
79

>  <ligand_id>  (78) 
79

>  <original_smiles>  (78) 
[H]c1c([H])c([H])c2c(c1[H])C([H])([H])C([H])([H])C([H])([H])C2([H])N([H])C(=O)C1([H])N(C(=O)C([H])(N([H])C(=O)C([H])(N([H])C([H])([H])[H])C([H])([H])[H])C(C([H])([H])[H])(C([H])([H])[H])C([H])([H])[H])C([H])([H])c2c([H])c(OC([H])([H])C([H])([H])c3nc4c(C([H])([H])N([H])C(=O)N5C([H])([H])C([H])([H])C([H])([H])C([H])(n6nc(-c7c([H])c([H])c(Oc8c([H])c([H])c(F)c([H])c8F)c([H])c7[H])c(C(=O)N([H])[H])c6N([H])[H])C5([H])[H])c([H])c(F)c(C([H])([H])[H])c(Cl)c-4c3[H])c([H])c([H])c2C1([H])[H]

>  <smiles>  (78) 
[H]c1c([H])c([H])c2c(c1[H])C([H])([H])C([H])([H])C([H])([H])C2([H])N([H])C(=O)C1([H])N(C(=O)C([H])(N([H])C(=O)C([H])(N([H])C([H])([H])[H])C([H])([H])[H])C(C([H])([H])[H])(C([H])([H])[H])C([H])([H])[H])C([H])([H])c2c([H])c(OC([H])([H])C([H])([H])c3nc4c(C([H])([H])N([H])C(=O)N5C([H])([H])C([H])([H])C([H])([H])C([H])(n6nc(-c7c([H])c([H])c(Oc8c([H])c([H])c(F)c([H])c8F)c([H])c7[H])c(C(=O)N([H])[H])c6N([H])[H])C5([H])[H])c([H])c(F)c(C([H])([H])[H])c(Cl)c-4c3[H])c([H])c([H])c2C1([H])[H]

$$$$
80:0:0
     RDKit          3D

102110  0  0  1  0  0  0  0  0999 V2000
  -31.5100  -29.0060   16.2960 C   0  0  0  0  0  2  0  0  0  0  0  0
  -32.5030  -29.4970   18.5820 C   0  0  0  0  0  3  0  0  0  0  0  0
  -30.4960  -28.1460   18.4700 C   0  0  0  0  0  3  0  0  0  0  0  0
  -31.4820  -28.9130   17.8110 C   0  0  0  0  0  0  0  0  0  0  0  0
  -32.4930  -29.3050   19.9730 C   0  0  0  0  0  0  0  0  0  0  0  0
  -30.5600  -28.0100   19.8740 C   0  0  0  0  0  0  0  0  0  0  0  0
  -31.5430  -28.5840   20.6030 N   0  0  0  0  0  0  0  0  0  0  0  0
  -34.6310  -28.7530   21.1960 C   0  0  0  0  0  1  0  0  0  0  0  0
  -33.6090  -29.8450   20.8460 C   0  0  0  0  0  2  0  0  0  0  0  0
  -29.6100  -27.1060   20.6620 C   0  0  0  0  0  2  0  0  0  0  0  0
  -28.4090  -26.7220   19.9840 O   0  0  0  0  0  0  0  0  0  0  0  0
  -24.6070  -31.8740   23.2150 C   0  0  0  0  0  0  0  0  0  0  0  0
  -27.2740  -27.4990   20.0770 C   0  0  0  0  0  0  0  0  0  0  0  0
  -23.3960  -30.4920   21.5540 C   0  0  0  0  0  3  0  0  0  0  0  0
  -24.8540  -28.9660   20.1220 C   0  0  0  0  0  0  0  0  0  0  0  0
  -25.9190  -30.8550   21.3650 C   0  0  0  0  0  2  0  0  0  0  0  0
  -26.0070  -29.4920   20.7180 C   0  0  0  0  0  0  0  0  0  0  0  0
  -27.2170  -28.7680   20.7010 C   0  0  0  0  0  3  0  0  0  0  0  0
  -26.0990  -26.9770   19.4940 C   0  0  0  0  0  3  0  0  0  0  0  0
  -24.8910  -27.7030   19.5110 C   0  0  0  0  0  3  0  0  0  0  0  0
  -23.6070  -29.8220   20.1700 C   0  0  0  0  0  2  0  0  0  0  0  0
  -24.6580  -31.0860   22.1040 N   0  0  0  0  0  0  0  0  0  0  0  0
  -23.5270  -32.1480   23.7550 O   0  0  0  0  0  0  0  0  0  0  0  0
  -22.7390  -29.4660   22.5030 C   0  0  0  0  0  0  0  0  0  0  0  0
  -21.4130  -29.3010   22.3770 N   0  0  0  0  0  0  0  0  0  0  0  0
  -23.4190  -28.8210   23.3070 O   0  0  0  0  0  0  0  0  0  0  0  0
  -20.9290  -29.8690   21.6950 H   0  0  0  0  0  0  0  0  0  0  0  0
  -18.0260  -28.1370   22.8520 C   0  0  0  0  0  0  0  0  0  0  0  0
  -20.5860  -28.3640   23.1350 C   0  0  0  0  0  3  0  0  0  0  0  0
  -20.6770  -26.9380   22.5440 C   0  0  0  0  0  2  0  0  0  0  0  0
  -19.5740  -26.6380   21.5250 C   0  0  0  0  0  2  0  0  0  0  0  0
  -18.1910  -26.7920   22.1650 C   0  0  0  0  0  2  0  0  0  0  0  0
  -19.1520  -28.8820   23.2940 C   0  0  0  0  0  0  0  0  0  0  0  0
  -18.9440  -30.1430   23.8930 C   0  0  0  0  0  3  0  0  0  0  0  0
  -17.6440  -30.6580   24.0550 C   0  0  0  0  0  3  0  0  0  0  0  0
  -16.5330  -29.9070   23.6330 C   0  0  0  0  0  3  0  0  0  0  0  0
  -16.7250  -28.6480   23.0370 C   0  0  0  0  0  3  0  0  0  0  0  0
  -25.8990  -32.4850   23.8450 C   0  0  0  0  0  3  0  0  0  0  0  0
  -25.5860  -33.8650   24.2390 N   0  0  0  0  0  0  0  0  0  0  0  0
  -25.9010  -34.9480   23.5170 C   0  0  0  0  0  0  0  0  0  0  0  0
  -26.5560  -34.8920   22.4730 O   0  0  0  0  0  0  0  0  0  0  0  0
  -25.0020  -33.9840   25.0530 H   0  0  0  0  0  0  0  0  0  0  0  0
  -24.1480  -36.7310   23.2650 C   0  0  0  0  0  1  0  0  0  0  0  0
  -25.4090  -36.3120   24.0360 C   0  0  0  0  0  3  0  0  0  0  0  0
  -27.5580  -37.1800   24.8470 C   0  0  0  0  0  1  0  0  0  0  0  0
  -26.4280  -37.3790   23.9420 N   0  0  0  0  0  0  0  0  0  0  0  0
  -26.0190  -38.2880   24.1420 H   0  0  0  0  0  0  0  0  0  0  0  0
  -26.4460  -31.6590   25.0730 C   0  0  1  0  0  0  0  0  0  0  0  0
  -25.3740  -31.3680   26.1480 C   0  0  0  0  0  1  0  0  0  0  0  0
  -27.0310  -30.3040   24.6060 C   0  0  0  0  0  1  0  0  0  0  0  0
  -27.6070  -32.4280   25.7470 C   0  0  0  0  0  1  0  0  0  0  0  0
  -32.1950  -27.8010   15.8110 N   0  0  0  0  0  4  0  0  0  0  0  0
  -31.8850  -27.0620   16.4210 H   0  0  0  0  0  0  0  0  0  0  0  0
  -33.1850  -27.9160   15.9540 H   0  0  0  0  0  0  0  0  0  0  0  0
  -31.9190  -27.3870   14.4190 C   0  0  0  0  0  2  0  0  0  0  0  0
  -32.3230  -25.9130   14.2100 C   0  0  0  0  0  2  0  0  0  0  0  0
  -31.4680  -24.9740   15.0830 C   0  0  0  0  0  2  0  0  0  0  0  0
  -31.9420  -23.5130   15.1400 C   0  0  0  0  0  2  0  0  0  0  0  0
  -31.0150  -22.7010   16.0590 C   0  0  0  0  0  2  0  0  0  0  0  0
  -31.5090  -21.2900   16.3980 C   0  0  0  0  0  2  0  0  0  0  0  0
  -30.4330  -20.5050   17.1650 C   0  0  0  0  0  2  0  0  0  0  0  0
  -30.9960  -19.2950   17.9170 C   0  0  0  0  0  2  0  0  0  0  0  0
  -29.9120  -18.5190   18.6750 C   0  0  0  0  0  2  0  0  0  0  0  0
  -30.5150  -17.3360   19.4430 C   0  0  0  0  0  2  0  0  0  0  0  0
  -29.5110  -16.6770   20.4060 C   0  0  0  0  0  2  0  0  0  0  0  0
  -30.1070  -15.6010   21.3490 C   0  0  0  0  0  2  0  0  0  0  0  0
  -30.7240  -14.4080   20.5970 C   0  0  0  0  0  0  0  0  0  0  0  0
  -30.4110  -12.2920   19.3860 C   0  0  0  0  0  2  0  0  0  0  0  0
  -29.4750  -12.5580   18.1880 C   0  0  0  0  0  2  0  0  0  0  0  0
  -28.0020  -12.3990   18.6030 C   0  0  0  0  0  2  0  0  0  0  0  0
  -27.6620  -13.2100   19.8790 C   0  0  0  0  0  3  0  0  0  0  0  0
  -28.7090  -12.9310   20.9810 C   0  0  0  0  0  2  0  0  0  0  0  0
  -30.0410  -13.2440   20.4410 N   0  0  0  0  0  0  0  0  0  0  0  0
  -31.8280  -14.5920   20.0770 O   0  0  0  0  0  0  0  0  0  0  0  0
  -25.2610  -13.8170   20.5740 C   0  0  0  0  0  0  0  0  0  0  0  0
  -24.1850  -13.0410   20.9200 C   0  0  0  0  0  0  0  0  0  0  0  0
  -24.6450  -11.6880   20.8840 C   0  0  0  0  0  0  0  0  0  0  0  0
  -26.3050  -12.9340   20.3410 N   0  0  0  0  0  0  0  0  0  0  0  0
  -25.9370  -11.6490   20.5800 N   0  0  0  0  0  0  0  0  0  0  0  0
  -23.9130  -10.4260   21.0530 C   0  0  0  0  0  0  0  0  0  0  0  0
  -24.3640   -9.4120   21.9300 C   0  0  0  0  0  3  0  0  0  0  0  0
  -23.6280   -8.2170   22.0780 C   0  0  0  0  0  3  0  0  0  0  0  0
  -22.4250   -8.0310   21.3560 C   0  0  0  0  0  0  0  0  0  0  0  0
  -21.9950   -9.0310   20.4670 C   0  0  0  0  0  3  0  0  0  0  0  0
  -22.7340  -10.2150   20.3120 C   0  0  0  0  0  3  0  0  0  0  0  0
  -21.6560   -6.8950   21.4280 O   0  0  0  0  0  0  0  0  0  0  0  0
  -21.6800   -6.0790   22.5290 C   0  0  0  0  0  0  0  0  0  0  0  0
  -21.4010   -6.5680   23.8250 C   0  0  0  0  0  3  0  0  0  0  0  0
  -21.3650   -5.6810   24.9200 C   0  0  0  0  0  3  0  0  0  0  0  0
  -21.6030   -4.3070   24.7200 C   0  0  0  0  0  0  0  0  0  0  0  0
  -21.8810   -3.8180   23.4310 C   0  0  0  0  0  3  0  0  0  0  0  0
  -21.9150   -4.7030   22.3380 C   0  0  0  0  0  0  0  0  0  0  0  0
  -22.1560   -4.2240   21.0940 F   0  0  0  0  0  0  0  0  0  0  0  0
  -21.5620   -3.4510   25.7670 F   0  0  0  0  0  0  0  0  0  0  0  0
  -22.7870  -13.5220   21.1820 C   0  0  0  0  0  0  0  0  0  0  0  0
  -22.0490  -12.8210   22.0390 N   0  0  0  0  0  0  0  0  0  0  0  0
  -22.3540  -14.5480   20.6630 O   0  0  0  0  0  0  0  0  0  0  0  0
  -22.3980  -11.9810   22.4730 H   0  0  0  0  0  0  0  0  0  0  0  0
  -21.1140  -13.1340   22.2560 H   0  0  0  0  0  0  0  0  0  0  0  0
  -25.4330  -15.1900   20.4270 N   0  0  0  0  0  0  0  0  0  0  0  0
  -24.6940  -15.8580   20.6240 H   0  0  0  0  0  0  0  0  0  0  0  0
  -26.3140  -15.6350   20.2060 H   0  0  0  0  0  0  0  0  0  0  0  0
  1  4  1  0
  2  5  1  0
  3  6  2  0
  4  3  1  0
  4  2  2  0
  5  7  2  0
  5  9  1  0
  6  7  1  0
  6 10  1  0
  9  8  1  0
 11 13  1  0
 11 10  1  0
 12 23  2  0
 13 18  1  0
 14 22  1  0
 14 24  1  0
 15 21  1  0
 15 17  1  0
 16 22  1  0
 17 16  1  0
 18 17  2  0
 19 20  1  0
 19 13  2  0
 20 15  2  0
 21 14  1  0
 22 12  1  0
 24 26  2  0
 25 24  1  0
 27 25  1  0
 28 37  2  0
 28 33  1  0
 29 25  1  0
 29 33  1  0
 30 29  1  0
 31 32  1  0
 31 30  1  0
 32 28  1  0
 33 34  2  0
 34 35  1  0
 36 35  2  0
 37 36  1  0
 38 12  1  0
 38 39  1  0
 38 48  1  0
 39 42  1  0
 40 44  1  0
 40 39  1  0
 41 40  2  0
 44 43  1  0
 46 44  1  0
 46 47  1  0
 46 45  1  0
 48 51  1  1
 48 49  1  0
 50 48  1  0
 52 54  1  0
 52  1  1  0
 52 53  1  0
 55 52  1  0
 56 55  1  0
 56 57  1  0
 57 58  1  0
 58 59  1  0
 59 60  1  0
 60 61  1  0
 61 62  1  0
 62 63  1  0
 63 64  1  0
 64 65  1  0
 65 66  1  0
 67 66  1  0
 68 73  1  0
 69 70  1  0
 69 68  1  0
 71 70  1  0
 71 78  1  0
 71 72  1  0
 73 67  1  0
 73 72  1  0
 74 67  2  0
 75 76  2  0
 76 95  1  0
 77 76  1  0
 77 80  1  0
 78 75  1  0
 78 79  1  0
 79 77  2  0
 80 81  1  0
 81 82  2  0
 83 86  1  0
 83 82  1  0
 84 83  2  0
 85 84  1  0
 85 80  2  0
 86 87  1  0
 87 88  1  0
 88 89  2  0
 90 89  1  0
 90 94  1  0
 91 90  2  0
 92 87  2  0
 92 91  1  0
 93 92  1  0
 95 96  1  0
 96 99  1  0
 96 98  1  0
 97 95  2  0
100 75  1  0
100101  1  0
102100  1  0
M  ISO  4  10 101  11 101  66 100  67 100
M  END
>  <TORSDO>  (79) 
F 32

>  <SCORE>  (79) 
-10.010

>  <name>  (79) 
80

>  <ligand_id>  (79) 
80

>  <original_smiles>  (79) 
[H]c1c([H])c([H])c2c(c1[H])C([H])([H])C([H])([H])C([H])([H])C2([H])N([H])C(=O)C1([H])N(C(=O)C([H])(N([H])C(=O)C([H])(N([H])C([H])([H])[H])C([H])([H])[H])C(C([H])([H])[H])(C([H])([H])[H])C([H])([H])[H])C([H])([H])c2c([H])c(OC([H])([H])c3nc(C([H])([H])C([H])([H])[H])c([H])c(C([H])([H])[N+]([H])([H])C([H])([H])C([H])([H])C([H])([H])C([H])([H])C([H])([H])C([H])([H])C([H])([H])C([H])([H])C([H])([H])C([H])([H])C([H])([H])C([H])([H])C(=O)N4C([H])([H])C([H])([H])C([H])([H])C([H])(n5nc(-c6c([H])c([H])c(Oc7c([H])c([H])c(F)c([H])c7F)c([H])c6[H])c(C(=O)N([H])[H])c5N([H])[H])C4([H])[H])c3[H])c([H])c([H])c2C1([H])[H]

>  <smiles>  (79) 
[H]c1c([H])c([H])c2c(c1[H])C([H])([H])C([H])([H])C([H])([H])C2([H])N([H])C(=O)C1([H])N(C(=O)C([H])(N([H])C(=O)C([H])(N([H])C([H])([H])[H])C([H])([H])[H])C(C([H])([H])[H])(C([H])([H])[H])C([H])([H])[H])C([H])([H])c2c([H])c(OC([H])([H])c3nc(C([H])([H])C([H])([H])[H])c([H])c(C([H])([H])[N+]([H])([H])C([H])([H])C([H])([H])C([H])([H])C([H])([H])C([H])([H])C([H])([H])C([H])([H])C([H])([H])C([H])([H])C([H])([H])C([H])([H])C([H])([H])C(=O)N4C([H])([H])C([H])([H])C([H])([H])C([H])(n5nc(-c6c([H])c([H])c(Oc7c([H])c([H])c(F)c([H])c7F)c([H])c6[H])c(C(=O)N([H])[H])c5N([H])[H])C4([H])[H])c3[H])c([H])c([H])c2C1([H])[H]

$$$$
81:0:0
     RDKit          3D

 91 99  0  0  1  0  0  0  0  0999 V2000
  -29.3690  -20.4300   21.1250 C   0  0  0  0  0  3  0  0  0  0  0  0
  -28.8590  -21.3100   18.9260 C   0  0  0  0  0  3  0  0  0  0  0  0
  -29.1820  -20.1660   19.7590 C   0  0  0  0  0  0  0  0  0  0  0  0
  -29.2470  -21.7280   21.6540 C   0  0  0  0  0  0  0  0  0  0  0  0
  -28.7150  -22.6710   19.4250 C   0  0  0  0  0  0  0  0  0  0  0  0
  -28.9200  -22.8360   20.8330 C   0  0  0  0  0  0  0  0  0  0  0  0
  -29.4580  -21.9140   23.1520 C   0  0  0  0  0  1  0  0  0  0  0  0
  -28.7780  -24.3600   21.6450 Cl  0  0  0  0  0  0  0  0  0  0  0  0
  -29.1900  -18.6420   19.3180 C   0  0  0  0  0  3  0  0  0  0  0  0
  -30.1190  -17.5680   20.0830 C   0  0  0  0  0  3  0  0  0  0  0  0
  -30.6150  -14.9960   19.6900 C   0  0  0  0  0  0  0  0  0  0  0  0
  -30.4410  -12.6460   18.8720 C   0  0  0  0  0  2  0  0  0  0  0  0
  -29.4140  -12.5780   17.7200 C   0  0  0  0  0  2  0  0  0  0  0  0
  -27.9870  -12.3920   18.2700 C   0  0  0  0  0  2  0  0  0  0  0  0
  -27.6590  -13.3740   19.4260 C   0  0  0  0  0  3  0  0  0  0  0  0
  -28.7950  -13.4140   20.4730 C   0  0  0  0  0  2  0  0  0  0  0  0
  -30.0360  -13.7530   19.7620 N   0  0  0  0  0  0  0  0  0  0  0  0
  -31.7550  -15.1420   19.2400 O   0  0  0  0  0  0  0  0  0  0  0  0
  -29.8140  -16.0810   19.9690 N   0  0  0  0  0  0  0  0  0  0  0  0
  -28.8900  -15.8220   20.2810 H   0  0  0  0  0  0  0  0  0  0  0  0
  -25.3730  -13.9690   20.4320 C   0  0  0  0  0  0  0  0  0  0  0  0
  -24.3320  -13.1990   20.8640 C   0  0  0  0  0  0  0  0  0  0  0  0
  -24.7480  -11.8410   20.6990 C   0  0  0  0  0  0  0  0  0  0  0  0
  -26.3640  -13.0850   20.0330 N   0  0  0  0  0  0  0  0  0  0  0  0
  -25.9990  -11.7940   20.2540 N   0  0  0  0  0  0  0  0  0  0  0  0
  -24.0100  -10.5860   20.8860 C   0  0  0  0  0  0  0  0  0  0  0  0
  -24.4540   -9.5950   21.7880 C   0  0  0  0  0  3  0  0  0  0  0  0
  -23.7140   -8.4050   21.9630 C   0  0  0  0  0  3  0  0  0  0  0  0
  -22.5160   -8.1980   21.2380 C   0  0  0  0  0  0  0  0  0  0  0  0
  -22.0910   -9.1800   20.3260 C   0  0  0  0  0  3  0  0  0  0  0  0
  -22.8300  -10.3610   20.1480 C   0  0  0  0  0  3  0  0  0  0  0  0
  -21.7460   -7.0640   21.3270 O   0  0  0  0  0  0  0  0  0  0  0  0
  -21.6590   -6.3440   22.4910 C   0  0  0  0  0  0  0  0  0  0  0  0
  -21.1530   -6.9100   23.6820 C   0  0  0  0  0  3  0  0  0  0  0  0
  -21.0150   -6.1130   24.8370 C   0  0  0  0  0  3  0  0  0  0  0  0
  -21.3730   -4.7520   24.8010 C   0  0  0  0  0  0  0  0  0  0  0  0
  -21.8740   -4.1860   23.6150 C   0  0  0  0  0  3  0  0  0  0  0  0
  -22.0140   -4.9810   22.4630 C   0  0  0  0  0  0  0  0  0  0  0  0
  -22.4750   -4.4260   21.3170 F   0  0  0  0  0  0  0  0  0  0  0  0
  -21.2330   -3.9830   25.9060 F   0  0  0  0  0  0  0  0  0  0  0  0
  -22.9870  -13.6870   21.3120 C   0  0  0  0  0  0  0  0  0  0  0  0
  -22.3330  -12.9550   22.2050 N   0  0  0  0  0  0  0  0  0  0  0  0
  -22.5260  -14.7530   20.9000 O   0  0  0  0  0  0  0  0  0  0  0  0
  -22.7200  -12.0930   22.5630 H   0  0  0  0  0  0  0  0  0  0  0  0
  -21.4300  -13.2590   22.5400 H   0  0  0  0  0  0  0  0  0  0  0  0
  -25.5550  -15.3460   20.3230 N   0  0  0  0  0  0  0  0  0  0  0  0
  -24.8170  -16.0020   20.5510 H   0  0  0  0  0  0  0  0  0  0  0  0
  -26.3700  -15.7920   19.9220 H   0  0  0  0  0  0  0  0  0  0  0  0
  -28.3660  -23.8860   18.4340 C   0  0  0  0  0  3  0  0  0  0  0  0
  -27.7900  -25.3090   18.9300 C   0  0  0  0  0  3  0  0  0  0  0  0
  -27.5660  -26.4670   18.0180 O   0  0  0  0  0  0  0  0  0  0  0  0
  -24.6050  -31.2180   22.6080 C   0  0  0  0  0  0  0  0  0  0  0  0
  -26.5100  -27.3320   18.3500 C   0  0  0  0  0  0  0  0  0  0  0  0
  -23.0980  -30.1640   20.9610 C   0  0  0  0  0  3  0  0  0  0  0  0
  -24.2360  -28.9200   19.0380 C   0  0  0  0  0  0  0  0  0  0  0  0
  -25.5760  -30.5150   20.4070 C   0  0  0  0  0  2  0  0  0  0  0  0
  -25.5040  -29.2830   19.5120 C   0  0  0  0  0  0  0  0  0  0  0  0
  -26.6460  -28.5030   19.1600 C   0  0  0  0  0  3  0  0  0  0  0  0
  -25.2240  -27.0360   17.8530 C   0  0  0  0  0  3  0  0  0  0  0  0
  -24.0960  -27.8050   18.1990 C   0  0  0  0  0  3  0  0  0  0  0  0
  -23.0550  -29.7720   19.4620 C   0  0  0  0  0  2  0  0  0  0  0  0
  -24.4560  -30.6380   21.3810 N   0  0  0  0  0  0  0  0  0  0  0  0
  -23.6360  -31.3900   23.3620 O   0  0  0  0  0  0  0  0  0  0  0  0
  -22.5690  -28.9820   21.8080 C   0  0  0  0  0  0  0  0  0  0  0  0
  -21.2380  -28.7970   21.8230 N   0  0  0  0  0  0  0  0  0  0  0  0
  -23.3480  -28.2430   22.4120 O   0  0  0  0  0  0  0  0  0  0  0  0
  -20.6610  -29.4540   21.3170 H   0  0  0  0  0  0  0  0  0  0  0  0
  -17.9590  -27.4360   22.5160 C   0  0  0  0  0  0  0  0  0  0  0  0
  -20.5290  -27.7220   22.5200 C   0  0  0  0  0  3  0  0  0  0  0  0
  -20.5730  -26.4090   21.7050 C   0  0  0  0  0  2  0  0  0  0  0  0
  -19.3580  -26.2250   20.7890 C   0  0  0  0  0  2  0  0  0  0  0  0
  -18.0630  -26.2210   21.6090 C   0  0  0  0  0  2  0  0  0  0  0  0
  -19.1150  -28.1500   22.9300 C   0  0  0  0  0  0  0  0  0  0  0  0
  -18.9590  -29.2900   23.7470 C   0  0  0  0  0  3  0  0  0  0  0  0
  -17.6810  -29.7200   24.1470 C   0  0  0  0  0  3  0  0  0  0  0  0
  -16.5400  -29.0020   23.7470 C   0  0  0  0  0  3  0  0  0  0  0  0
  -16.6810  -27.8610   22.9380 C   0  0  0  0  0  3  0  0  0  0  0  0
  -25.9940  -31.7170   23.1120 C   0  0  0  0  0  3  0  0  0  0  0  0
  -26.7450  -30.6570   24.0070 C   0  0  1  0  0  0  0  0  0  0  0  0
  -25.8870  -30.1020   25.1690 C   0  0  0  0  0  1  0  0  0  0  0  0
  -27.2140  -29.4560   23.1510 C   0  0  0  0  0  1  0  0  0  0  0  0
  -28.0180  -31.2920   24.6150 C   0  0  0  0  0  1  0  0  0  0  0  0
  -25.7750  -32.9640   23.8600 N   0  0  0  0  0  0  0  0  0  0  0  0
  -26.0040  -34.1920   23.3770 C   0  0  0  0  0  0  0  0  0  0  0  0
  -26.4950  -34.3920   22.2620 O   0  0  0  0  0  0  0  0  0  0  0  0
  -25.3200  -32.8800   24.7570 H   0  0  0  0  0  0  0  0  0  0  0  0
  -24.2940  -35.9880   23.8040 C   0  0  0  0  0  1  0  0  0  0  0  0
  -25.6310  -35.3910   24.2720 C   0  0  0  0  0  3  0  0  0  0  0  0
  -27.8850  -36.0450   24.9910 C   0  0  0  0  0  1  0  0  0  0  0  0
  -26.6650  -36.4490   24.2990 N   0  0  0  0  0  0  0  0  0  0  0  0
  -26.3100  -37.2890   24.7470 H   0  0  0  0  0  0  0  0  0  0  0  0
  1  4  1  0
  2  5  2  0
  2  3  1  0
  3  1  2  0
  4  7  1  0
  5  6  1  0
  6  8  1  0
  6  4  2  0
  9  3  1  0
  9 10  2  0
 11 17  1  0
 11 19  1  0
 12 17  1  0
 13 14  1  0
 13 12  1  0
 15 14  1  0
 15 24  1  0
 15 16  1  0
 17 16  1  0
 18 11  2  0
 19 10  1  0
 19 20  1  0
 21 22  2  0
 22 41  1  0
 23 22  1  0
 23 26  1  0
 24 25  1  0
 24 21  1  0
 25 23  2  0
 26 27  1  0
 27 28  2  0
 29 32  1  0
 29 28  1  0
 30 29  2  0
 31 30  1  0
 31 26  2  0
 32 33  1  0
 33 34  1  0
 34 35  2  0
 36 35  1  0
 36 40  1  0
 37 36  2  0
 38 33  2  0
 38 37  1  0
 39 38  1  0
 41 42  1  0
 42 45  1  0
 42 44  1  0
 43 41  2  0
 46 21  1  0
 46 47  1  0
 48 46  1  0
 49 50  2  0
 49  5  1  0
 51 53  1  0
 51 50  1  0
 52 63  2  0
 53 58  1  0
 54 62  1  0
 54 64  1  0
 55 61  1  0
 55 57  1  0
 56 62  1  0
 57 56  1  0
 58 57  2  0
 59 60  1  0
 59 53  2  0
 60 55  2  0
 61 54  1  0
 62 52  1  0
 64 65  1  0
 64 66  2  0
 67 65  1  0
 68 73  2  0
 68 77  1  0
 69 65  1  0
 69 73  1  0
 70 69  1  0
 71 72  1  0
 71 70  1  0
 72 68  1  0
 73 74  1  0
 74 75  2  0
 76 75  1  0
 77 76  2  0
 78 52  1  0
 78 83  1  0
 78 79  1  0
 79 82  1  1
 79 80  1  0
 81 79  1  0
 83 86  1  0
 84 83  1  0
 84 88  1  0
 85 84  2  0
 88 87  1  0
 88 90  1  0
 90 91  1  0
 90 89  1  0
M  ISO  4  11 100  19 100  50 101  51 101
M  END
>  <TORSDO>  (80) 
F 20

>  <SCORE>  (80) 
-11.224

>  <name>  (80) 
81

>  <ligand_id>  (80) 
81

>  <original_smiles>  (80) 
[H]c1c([H])c([H])c2c(c1[H])C([H])([H])C([H])([H])C([H])([H])C2([H])N([H])C(=O)C1([H])N(C(=O)C([H])(N([H])C(=O)C([H])(N([H])C([H])([H])[H])C([H])([H])[H])C(C([H])([H])[H])(C([H])([H])[H])C([H])([H])[H])C([H])([H])c2c([H])c(OC([H])([H])C([H])([H])c3c([H])c(C([H])([H])C([H])([H])N([H])C(=O)N4C([H])([H])C([H])([H])C([H])([H])C([H])(n5nc(-c6c([H])c([H])c(Oc7c([H])c([H])c(F)c([H])c7F)c([H])c6[H])c(C(=O)N([H])[H])c5N([H])[H])C4([H])[H])c([H])c(C([H])([H])[H])c3Cl)c([H])c([H])c2C1([H])[H]

>  <smiles>  (80) 
[H]c1c([H])c([H])c2c(c1[H])C([H])([H])C([H])([H])C([H])([H])C2([H])N([H])C(=O)C1([H])N(C(=O)C([H])(N([H])C(=O)C([H])(N([H])C([H])([H])[H])C([H])([H])[H])C(C([H])([H])[H])(C([H])([H])[H])C([H])([H])[H])C([H])([H])c2c([H])c(OC([H])([H])C([H])([H])c3c([H])c(C([H])([H])C([H])([H])N([H])C(=O)N4C([H])([H])C([H])([H])C([H])([H])C([H])(n5nc(-c6c([H])c([H])c(Oc7c([H])c([H])c(F)c([H])c7F)c([H])c6[H])c(C(=O)N([H])[H])c5N([H])[H])C4([H])[H])c([H])c(C([H])([H])[H])c3Cl)c([H])c([H])c2C1([H])[H]

$$$$
82:0:0
     RDKit          3D

 95104  0  0  1  0  0  0  0  0999 V2000
  -29.5570  -21.6740   23.4210 C   0  0  0  0  0  3  0  0  0  0  0  0
  -29.6660  -20.3320   23.0200 C   0  0  0  0  0  3  0  0  0  0  0  0
  -29.7240  -21.0460   20.6960 C   0  0  0  0  0  3  0  0  0  0  0  0
  -29.5470  -22.7080   22.4660 C   0  0  0  0  0  0  0  0  0  0  0  0
  -29.5820  -22.4050   21.0770 C   0  0  0  0  0  0  0  0  0  0  0  0
  -29.7980  -20.0110   21.6540 C   0  0  0  0  0  0  0  0  0  0  0  0
  -29.5220  -24.1340   22.9690 C   0  0  0  0  0  2  0  0  0  0  0  0
  -30.0260  -25.1120   21.9150 C   0  0  0  0  0  2  0  0  0  0  0  0
  -29.2450  -24.9290   20.6040 C   0  0  0  0  0  3  0  0  0  0  0  0
  -29.4910  -23.5060   19.9880 C   0  0  2  0  0  0  0  0  0  0  0  0
  -28.3120  -23.1880   19.0400 C   0  0  0  0  0  1  0  0  0  0  0  0
  -30.8030  -23.4880   19.1610 C   0  0  0  0  0  1  0  0  0  0  0  0
  -30.0540  -18.5690   21.2260 C   0  0  0  0  0  2  0  0  0  0  0  0
  -31.3030  -17.9580   21.9080 C   0  0  0  0  0  2  0  0  0  0  0  0
  -32.0600  -16.8990   21.0850 C   0  0  0  0  0  2  0  0  0  0  0  0
  -31.8170  -14.6230   20.1800 C   0  0  0  0  0  0  0  0  0  0  0  0
  -31.3360  -12.4310   19.1650 C   0  0  0  0  0  2  0  0  0  0  0  0
  -30.3880  -12.5880   17.9620 C   0  0  0  0  0  2  0  0  0  0  0  0
  -28.9170  -12.5770   18.4180 C   0  0  0  0  0  2  0  0  0  0  0  0
  -28.6520  -13.5450   19.6020 C   0  0  0  0  0  3  0  0  0  0  0  0
  -29.7030  -13.3510   20.7160 C   0  0  0  0  0  2  0  0  0  0  0  0
  -31.0410  -13.5100   20.1200 N   0  0  0  0  0  0  0  0  0  0  0  0
  -32.8830  -14.7340   19.5670 O   0  0  0  0  0  0  0  0  0  0  0  0
  -31.3420  -15.6370   20.9220 N   0  0  0  0  0  0  0  0  0  0  0  0
  -30.4560  -15.5130   21.3880 H   0  0  0  0  0  0  0  0  0  0  0  0
  -26.3680  -14.3840   20.4430 C   0  0  0  0  0  0  0  0  0  0  0  0
  -25.2280  -13.7190   20.8040 C   0  0  0  0  0  0  0  0  0  0  0  0
  -25.5200  -12.3270   20.6650 C   0  0  0  0  0  0  0  0  0  0  0  0
  -27.2910  -13.4040   20.1130 N   0  0  0  0  0  0  0  0  0  0  0  0
  -26.7850  -12.1570   20.3010 N   0  0  0  0  0  0  0  0  0  0  0  0
  -24.6540  -11.1490   20.8010 C   0  0  0  0  0  0  0  0  0  0  0  0
  -24.9870  -10.0840   21.6680 C   0  0  0  0  0  3  0  0  0  0  0  0
  -24.1290   -8.9710   21.7950 C   0  0  0  0  0  3  0  0  0  0  0  0
  -22.9240   -8.9150   21.0570 C   0  0  0  0  0  0  0  0  0  0  0  0
  -22.6080   -9.9660   20.1800 C   0  0  0  0  0  3  0  0  0  0  0  0
  -23.4650  -11.0720   20.0490 C   0  0  0  0  0  3  0  0  0  0  0  0
  -22.0440   -7.8620   21.0970 O   0  0  0  0  0  0  0  0  0  0  0  0
  -21.8800   -7.1020   22.2280 C   0  0  0  0  0  0  0  0  0  0  0  0
  -21.4940   -7.6740   23.4600 C   0  0  0  0  0  3  0  0  0  0  0  0
  -21.2710   -6.8480   24.5800 C   0  0  0  0  0  3  0  0  0  0  0  0
  -21.4220   -5.4530   24.4680 C   0  0  0  0  0  0  0  0  0  0  0  0
  -21.8000   -4.8820   23.2400 C   0  0  0  0  0  3  0  0  0  0  0  0
  -22.0250   -5.7040   22.1220 C   0  0  0  0  0  0  0  0  0  0  0  0
  -22.3690   -5.1460   20.9360 F   0  0  0  0  0  0  0  0  0  0  0  0
  -21.2000   -4.6580   25.5420 F   0  0  0  0  0  0  0  0  0  0  0  0
  -23.9080  -14.3370   21.1650 C   0  0  0  0  0  0  0  0  0  0  0  0
  -23.1400  -13.6830   22.0310 N   0  0  0  0  0  0  0  0  0  0  0  0
  -23.5700  -15.4320   20.7160 O   0  0  0  0  0  0  0  0  0  0  0  0
  -23.4280  -12.7940   22.4150 H   0  0  0  0  0  0  0  0  0  0  0  0
  -22.2530  -14.0770   22.3130 H   0  0  0  0  0  0  0  0  0  0  0  0
  -26.6910  -15.7350   20.3550 N   0  0  0  0  0  0  0  0  0  0  0  0
  -26.0110  -16.4630   20.5450 H   0  0  0  0  0  0  0  0  0  0  0  0
  -27.5800  -16.0960   20.0360 H   0  0  0  0  0  0  0  0  0  0  0  0
  -29.5230  -26.1200   19.6540 C   0  0  0  0  0  2  0  0  0  0  0  0
  -29.1690  -27.3560   20.2700 O   0  0  0  0  0  0  0  0  0  0  0  0
  -24.5580  -31.8250   23.2730 C   0  0  0  0  0  0  0  0  0  0  0  0
  -27.8800  -27.8410   20.2250 C   0  0  0  0  0  0  0  0  0  0  0  0
  -23.6190  -30.3660   21.5100 C   0  0  0  0  0  3  0  0  0  0  0  0
  -25.3200  -29.0460   20.1460 C   0  0  0  0  0  0  0  0  0  0  0  0
  -26.0970  -31.0060   21.4970 C   0  0  0  0  0  2  0  0  0  0  0  0
  -26.3710  -29.6810   20.8140 C   0  0  0  0  0  0  0  0  0  0  0  0
  -27.6480  -29.0860   20.8460 C   0  0  0  0  0  3  0  0  0  0  0  0
  -26.7960  -27.1900   19.5830 C   0  0  0  0  0  3  0  0  0  0  0  0
  -25.5240  -27.7940   19.5350 C   0  0  0  0  0  3  0  0  0  0  0  0
  -23.9870  -29.7590   20.1290 C   0  0  0  0  0  2  0  0  0  0  0  0
  -24.7700  -31.0790   22.1520 N   0  0  0  0  0  0  0  0  0  0  0  0
  -23.4200  -31.9590   23.7470 O   0  0  0  0  0  0  0  0  0  0  0  0
  -23.0250  -29.2420   22.3900 C   0  0  0  0  0  0  0  0  0  0  0  0
  -21.7300  -28.9510   22.1880 N   0  0  0  0  0  0  0  0  0  0  0  0
  -23.7280  -28.6380   23.2030 O   0  0  0  0  0  0  0  0  0  0  0  0
  -21.2240  -29.5020   21.5100 H   0  0  0  0  0  0  0  0  0  0  0  0
  -18.4460  -27.4730   22.4870 C   0  0  0  0  0  0  0  0  0  0  0  0
  -20.9660  -27.9050   22.8670 C   0  0  0  0  0  3  0  0  0  0  0  0
  -21.1980  -26.5260   22.2060 C   0  0  0  0  0  2  0  0  0  0  0  0
  -20.1580  -26.1860   21.1350 C   0  0  0  0  0  2  0  0  0  0  0  0
  -18.7500  -26.1860   21.7370 C   0  0  0  0  0  2  0  0  0  0  0  0
  -19.4890  -28.2910   23.0010 C   0  0  0  0  0  0  0  0  0  0  0  0
  -19.1540  -29.4980   23.6510 C   0  0  0  0  0  3  0  0  0  0  0  0
  -17.8100  -29.8880   23.8000 C   0  0  0  0  0  3  0  0  0  0  0  0
  -16.7820  -29.0660   23.3070 C   0  0  0  0  0  3  0  0  0  0  0  0
  -17.1010  -27.8610   22.6530 C   0  0  0  0  0  3  0  0  0  0  0  0
  -25.7230  -32.5650   24.0000 C   0  0  0  0  0  3  0  0  0  0  0  0
  -26.1520  -31.8750   25.3550 C   0  0  1  0  0  0  0  0  0  0  0  0
  -24.9680  -31.5570   26.3000 C   0  0  0  0  0  1  0  0  0  0  0  0
  -26.8970  -30.5500   25.0750 C   0  0  0  0  0  1  0  0  0  0  0  0
  -27.1430  -32.7860   26.1160 C   0  0  0  0  0  1  0  0  0  0  0  0
  -25.2890  -33.9480   24.2410 N   0  0  0  0  0  0  0  0  0  0  0  0
  -25.6260  -34.9930   23.4740 C   0  0  0  0  0  0  0  0  0  0  0  0
  -26.4030  -34.9010   22.5190 O   0  0  0  0  0  0  0  0  0  0  0  0
  -24.6100  -34.0860   24.9750 H   0  0  0  0  0  0  0  0  0  0  0  0
  -23.8140  -36.6330   22.8890 C   0  0  0  0  0  1  0  0  0  0  0  0
  -25.0020  -36.3590   23.8230 C   0  0  0  0  0  3  0  0  0  0  0  0
  -26.9910  -37.4230   24.7900 C   0  0  0  0  0  1  0  0  0  0  0  0
  -25.9640  -37.4800   23.7540 N   0  0  0  0  0  0  0  0  0  0  0  0
  -25.4840  -38.3710   23.8370 H   0  0  0  0  0  0  0  0  0  0  0  0
  2  1  1  0
  3  5  2  0
  3  6  1  0
  4  7  1  0
  4  1  2  0
  5  4  1  0
  6  2  2  0
  8  7  1  0
  9 54  1  0
  9  8  1  0
 10  9  1  0
 10  5  1  0
 10 11  1  6
 12 10  1  0
 13  6  1  0
 13 14  1  0
 15 14  1  0
 16 24  1  0
 17 22  1  0
 18 19  1  0
 18 17  1  0
 20 19  1  0
 20 29  1  0
 20 21  1  0
 22 16  1  0
 22 21  1  0
 23 16  2  0
 24 15  1  0
 24 25  1  0
 26 27  2  0
 27 46  1  0
 28 31  1  0
 28 27  1  0
 29 30  1  0
 29 26  1  0
 30 28  2  0
 31 32  1  0
 32 33  2  0
 34 37  1  0
 34 33  1  0
 35 34  2  0
 36 35  1  0
 36 31  2  0
 37 38  1  0
 38 39  1  0
 39 40  2  0
 41 40  1  0
 41 45  1  0
 42 41  2  0
 43 38  2  0
 43 42  1  0
 44 43  1  0
 46 47  1  0
 47 50  1  0
 47 49  1  0
 48 46  2  0
 51 26  1  0
 51 52  1  0
 53 51  1  0
 54 55  1  0
 56 67  2  0
 57 55  1  0
 57 62  1  0
 58 66  1  0
 58 68  1  0
 59 61  1  0
 60 66  1  0
 61 62  2  0
 61 60  1  0
 63 57  2  0
 64 63  1  0
 64 59  2  0
 65 59  1  0
 65 58  1  0
 66 56  1  0
 68 70  2  0
 69 68  1  0
 71 69  1  0
 72 81  2  0
 72 77  1  0
 73 69  1  0
 73 77  1  0
 74 73  1  0
 75 76  1  0
 75 74  1  0
 76 72  1  0
 77 78  2  0
 78 79  1  0
 80 79  2  0
 81 80  1  0
 82 56  1  0
 82 87  1  0
 82 83  1  0
 83 86  1  1
 83 84  1  0
 85 83  1  0
 87 90  1  0
 88 92  1  0
 88 87  1  0
 89 88  2  0
 92 91  1  0
 94 92  1  0
 94 95  1  0
 94 93  1  0
M  ISO  4  16 100  24 100  54 101  55 101
M  END
>  <TORSDO>  (81) 
F 20

>  <SCORE>  (81) 
-10.374

>  <name>  (81) 
82

>  <ligand_id>  (81) 
82

>  <original_smiles>  (81) 
[H]c1c([H])c([H])c2c(c1[H])C([H])([H])C([H])([H])C([H])([H])C2([H])N([H])C(=O)C1([H])N(C(=O)C([H])(N([H])C(=O)C([H])(N([H])C([H])([H])[H])C([H])([H])[H])C(C([H])([H])[H])(C([H])([H])[H])C([H])([H])[H])C([H])([H])c2c([H])c(OC([H])([H])C3([H])C([H])([H])C([H])([H])c4c([H])c([H])c(C([H])([H])C([H])([H])C([H])([H])N([H])C(=O)N5C([H])([H])C([H])([H])C([H])([H])C([H])(n6nc(-c7c([H])c([H])c(Oc8c([H])c([H])c(F)c([H])c8F)c([H])c7[H])c(C(=O)N([H])[H])c6N([H])[H])C5([H])[H])c([H])c4C3(C([H])([H])[H])C([H])([H])[H])c([H])c([H])c2C1([H])[H]

>  <smiles>  (81) 
[H]c1c([H])c([H])c2c(c1[H])C([H])([H])C([H])([H])C([H])([H])C2([H])N([H])C(=O)C1([H])N(C(=O)C([H])(N([H])C(=O)C([H])(N([H])C([H])([H])[H])C([H])([H])[H])C(C([H])([H])[H])(C([H])([H])[H])C([H])([H])[H])C([H])([H])c2c([H])c(OC([H])([H])C3([H])C([H])([H])C([H])([H])c4c([H])c([H])c(C([H])([H])C([H])([H])C([H])([H])N([H])C(=O)N5C([H])([H])C([H])([H])C([H])([H])C([H])(n6nc(-c7c([H])c([H])c(Oc8c([H])c([H])c(F)c([H])c8F)c([H])c7[H])c(C(=O)N([H])[H])c6N([H])[H])C5([H])[H])c([H])c4C3(C([H])([H])[H])C([H])([H])[H])c([H])c([H])c2C1([H])[H]

$$$$
83:0:0
     RDKit          3D

 97105  0  0  1  0  0  0  0  0999 V2000
  -30.2470  -24.7650   16.1830 C   0  0  0  0  0  3  0  0  0  0  0  0
  -29.7970  -23.4440   16.0440 C   0  0  0  0  0  0  0  0  0  0  0  0
  -30.6150  -25.2770   17.4380 C   0  0  0  0  0  0  0  0  0  0  0  0
  -30.1330  -23.0980   18.4490 C   0  0  0  0  0  0  0  0  0  0  0  0
  -29.7030  -22.6060   17.1820 C   0  0  0  0  0  0  0  0  0  0  0  0
  -30.5740  -24.4440   18.5840 C   0  0  0  0  0  0  0  0  0  0  0  0
  -29.4040  -22.9970   14.6470 C   0  0  0  0  0  1  0  0  0  0  0  0
  -31.0590  -26.7260   17.4980 C   0  0  0  0  0  1  0  0  0  0  0  0
  -30.1320  -22.1970   19.6830 C   0  0  0  0  0  1  0  0  0  0  0  0
  -29.1710  -21.1830   17.0440 C   0  0  0  0  0  2  0  0  0  0  0  0
  -30.3230  -20.1880   16.8300 C   0  0  0  0  0  2  0  0  0  0  0  0
  -29.9540  -18.7470   17.2030 C   0  0  0  0  0  2  0  0  0  0  0  0
  -30.4110  -18.3850   18.6190 C   0  0  0  0  0  2  0  0  0  0  0  0
  -29.9910  -16.9840   19.0450 C   0  0  0  0  0  2  0  0  0  0  0  0
  -30.4950  -16.7200   20.4730 C   0  0  0  0  0  2  0  0  0  0  0  0
  -31.0660  -14.3320   20.3740 C   0  0  0  0  0  0  0  0  0  0  0  0
  -30.7260  -12.2490   19.1380 C   0  0  0  0  0  2  0  0  0  0  0  0
  -29.7860  -12.5540   17.9540 C   0  0  0  0  0  2  0  0  0  0  0  0
  -28.3020  -12.5000   18.3740 C   0  0  0  0  0  2  0  0  0  0  0  0
  -28.0150  -13.2640   19.6910 C   0  0  0  0  0  3  0  0  0  0  0  0
  -29.0540  -12.8900   20.7710 C   0  0  0  0  0  2  0  0  0  0  0  0
  -30.3930  -13.1710   20.2280 N   0  0  0  0  0  0  0  0  0  0  0  0
  -32.1950  -14.5420   19.9230 O   0  0  0  0  0  0  0  0  0  0  0  0
  -30.2950  -15.3280   20.8290 N   0  0  0  0  0  0  0  0  0  0  0  0
  -29.3760  -15.0600   21.1510 H   0  0  0  0  0  0  0  0  0  0  0  0
  -25.6280  -13.9570   20.3520 C   0  0  0  0  0  0  0  0  0  0  0  0
  -24.5350  -13.2160   20.7180 C   0  0  0  0  0  0  0  0  0  0  0  0
  -24.9540  -11.8510   20.6990 C   0  0  0  0  0  0  0  0  0  0  0  0
  -26.6490  -13.0400   20.1470 N   0  0  0  0  0  0  0  0  0  0  0  0
  -26.2460  -11.7700   20.4060 N   0  0  0  0  0  0  0  0  0  0  0  0
  -24.1920  -10.6110   20.8890 C   0  0  0  0  0  0  0  0  0  0  0  0
  -24.5770   -9.6630   21.8610 C   0  0  0  0  0  3  0  0  0  0  0  0
  -23.8260   -8.4840   22.0410 C   0  0  0  0  0  3  0  0  0  0  0  0
  -22.6750   -8.2480   21.2550 C   0  0  0  0  0  0  0  0  0  0  0  0
  -22.3090   -9.1830   20.2700 C   0  0  0  0  0  3  0  0  0  0  0  0
  -23.0620  -10.3560   20.0870 C   0  0  0  0  0  3  0  0  0  0  0  0
  -21.8970   -7.1220   21.3430 O   0  0  0  0  0  0  0  0  0  0  0  0
  -21.7600   -6.4280   22.5190 C   0  0  0  0  0  0  0  0  0  0  0  0
  -21.2290   -7.0280   23.6840 C   0  0  0  0  0  3  0  0  0  0  0  0
  -21.0450   -6.2580   24.8500 C   0  0  0  0  0  3  0  0  0  0  0  0
  -21.3780   -4.8900   24.8530 C   0  0  0  0  0  0  0  0  0  0  0  0
  -21.9010   -4.2920   23.6930 C   0  0  0  0  0  3  0  0  0  0  0  0
  -22.0860   -5.0590   22.5300 C   0  0  0  0  0  0  0  0  0  0  0  0
  -22.5690   -4.4710   21.4090 F   0  0  0  0  0  0  0  0  0  0  0  0
  -21.1920   -4.1460   25.9700 F   0  0  0  0  0  0  0  0  0  0  0  0
  -23.1510  -13.7270   20.9770 C   0  0  0  0  0  0  0  0  0  0  0  0
  -22.4020  -13.0540   21.8420 N   0  0  0  0  0  0  0  0  0  0  0  0
  -22.7420  -14.7610   20.4470 O   0  0  0  0  0  0  0  0  0  0  0  0
  -22.7490  -12.2190   22.2920 H   0  0  0  0  0  0  0  0  0  0  0  0
  -21.4670  -13.3710   22.0550 H   0  0  0  0  0  0  0  0  0  0  0  0
  -25.8410  -15.3210   20.1640 N   0  0  0  0  0  0  0  0  0  0  0  0
  -25.1000  -16.0080   20.2550 H   0  0  0  0  0  0  0  0  0  0  0  0
  -26.7160  -15.7210   19.8530 H   0  0  0  0  0  0  0  0  0  0  0  0
  -30.9790  -24.9980   19.9620 C   0  0  0  0  0  2  0  0  0  0  0  0
  -29.8150  -25.1960   20.9680 C   0  0  0  0  0  2  0  0  0  0  0  0
  -28.4190  -25.5060   20.3880 C   0  0  0  0  0  2  0  0  0  0  0  0
  -28.4090  -26.8710   20.0400 O   0  0  0  0  0  0  0  0  0  0  0  0
  -24.5570  -31.8380   23.2900 C   0  0  0  0  0  0  0  0  0  0  0  0
  -27.1960  -27.4970   20.1120 C   0  0  0  0  0  0  0  0  0  0  0  0
  -23.3390  -30.4780   21.6140 C   0  0  0  0  0  3  0  0  0  0  0  0
  -24.7830  -28.9460   20.1780 C   0  0  0  0  0  0  0  0  0  0  0  0
  -25.8610  -30.8310   21.4290 C   0  0  0  0  0  2  0  0  0  0  0  0
  -25.9400  -29.4750   20.7680 C   0  0  0  0  0  0  0  0  0  0  0  0
  -27.1450  -28.7550   20.7340 C   0  0  0  0  0  3  0  0  0  0  0  0
  -26.0240  -26.9490   19.5420 C   0  0  0  0  0  3  0  0  0  0  0  0
  -24.8140  -27.6710   19.5770 C   0  0  0  0  0  3  0  0  0  0  0  0
  -23.5480  -29.8110   20.2260 C   0  0  0  0  0  2  0  0  0  0  0  0
  -24.6010  -31.0610   22.1710 N   0  0  0  0  0  0  0  0  0  0  0  0
  -23.4760  -32.1110   23.8340 O   0  0  0  0  0  0  0  0  0  0  0  0
  -22.6790  -29.4480   22.5560 C   0  0  0  0  0  0  0  0  0  0  0  0
  -21.3530  -29.2820   22.4270 N   0  0  0  0  0  0  0  0  0  0  0  0
  -23.3570  -28.7980   23.3580 O   0  0  0  0  0  0  0  0  0  0  0  0
  -20.8690  -29.8630   21.7570 H   0  0  0  0  0  0  0  0  0  0  0  0
  -17.9620  -28.1420   22.9160 C   0  0  0  0  0  0  0  0  0  0  0  0
  -20.5260  -28.3360   23.1750 C   0  0  0  0  0  3  0  0  0  0  0  0
  -20.5950  -26.9220   22.5560 C   0  0  0  0  0  2  0  0  0  0  0  0
  -19.4790  -26.6530   21.5410 C   0  0  0  0  0  2  0  0  0  0  0  0
  -18.1040  -26.8090   22.2010 C   0  0  0  0  0  2  0  0  0  0  0  0
  -19.1000  -28.8670   23.3600 C   0  0  0  0  0  0  0  0  0  0  0  0
  -18.9170  -30.1170   23.9870 C   0  0  0  0  0  3  0  0  0  0  0  0
  -17.6260  -30.6460   24.1750 C   0  0  0  0  0  3  0  0  0  0  0  0
  -16.5030  -29.9180   23.7490 C   0  0  0  0  0  3  0  0  0  0  0  0
  -16.6700  -28.6690   23.1260 C   0  0  0  0  0  3  0  0  0  0  0  0
  -25.8500  -32.4420   23.9210 C   0  0  0  0  0  3  0  0  0  0  0  0
  -26.3070  -31.6980   25.2360 C   0  0  1  0  0  0  0  0  0  0  0  0
  -25.1790  -31.5340   26.2800 C   0  0  0  0  0  1  0  0  0  0  0  0
  -26.8550  -30.2900   24.9010 C   0  0  0  0  0  1  0  0  0  0  0  0
  -27.4650  -32.4750   25.9020 C   0  0  0  0  0  1  0  0  0  0  0  0
  -25.5890  -33.8630   24.1930 N   0  0  0  0  0  0  0  0  0  0  0  0
  -26.0010  -34.8700   23.4120 C   0  0  0  0  0  0  0  0  0  0  0  0
  -26.7130  -34.7040   22.4190 O   0  0  0  0  0  0  0  0  0  0  0  0
  -24.9690  -34.0700   24.9590 H   0  0  0  0  0  0  0  0  0  0  0  0
  -24.3930  -36.7290   22.8910 C   0  0  0  0  0  1  0  0  0  0  0  0
  -25.5530  -36.2930   23.8000 C   0  0  0  0  0  3  0  0  0  0  0  0
  -27.6590  -37.1040   24.7620 C   0  0  0  0  0  1  0  0  0  0  0  0
  -26.6410  -37.2910   23.7330 N   0  0  0  0  0  0  0  0  0  0  0  0
  -26.2700  -38.2340   23.8200 H   0  0  0  0  0  0  0  0  0  0  0  0
  1  3  1  0
  2  1  2  0
  2  5  1  0
  3  8  1  0
  3  6  2  0
  4  6  1  0
  4  9  1  0
  5  4  2  0
  6 54  1  0
  7  2  1  0
 10  5  1  0
 11 10  1  0
 11 12  1  0
 12 13  1  0
 13 14  1  0
 14 15  1  0
 15 24  1  0
 16 24  1  0
 17 22  1  0
 18 19  1  0
 18 17  1  0
 20 19  1  0
 20 29  1  0
 20 21  1  0
 22 16  1  0
 22 21  1  0
 23 16  2  0
 24 25  1  0
 26 27  2  0
 27 46  1  0
 28 27  1  0
 28 31  1  0
 29 26  1  0
 29 30  1  0
 30 28  2  0
 31 32  1  0
 32 33  2  0
 34 37  1  0
 34 33  1  0
 35 34  2  0
 36 35  1  0
 36 31  2  0
 37 38  1  0
 38 43  2  0
 38 39  1  0
 39 40  2  0
 40 41  1  0
 41 45  1  0
 42 41  2  0
 43 42  1  0
 44 43  1  0
 46 47  1  0
 47 50  1  0
 47 49  1  0
 48 46  2  0
 51 52  1  0
 51 26  1  0
 53 51  1  0
 54 55  1  0
 56 55  1  0
 57 59  1  0
 57 56  1  0
 58 69  2  0
 59 64  1  0
 60 68  1  0
 60 70  1  0
 61 67  1  0
 61 63  1  0
 62 68  1  0
 63 62  1  0
 64 63  2  0
 65 66  1  0
 65 59  2  0
 66 61  2  0
 67 60  1  0
 68 58  1  0
 70 72  2  0
 71 70  1  0
 73 71  1  0
 74 83  2  0
 74 79  1  0
 75 71  1  0
 75 79  1  0
 76 75  1  0
 77 78  1  0
 77 76  1  0
 78 74  1  0
 79 80  2  0
 80 81  1  0
 82 81  2  0
 83 82  1  0
 84 58  1  0
 84 89  1  0
 84 85  1  0
 85 88  1  1
 85 86  1  0
 87 85  1  0
 89 92  1  0
 90 94  1  0
 90 89  1  0
 91 90  2  0
 94 93  1  0
 96 94  1  0
 96 97  1  0
 96 95  1  0
M  ISO  4  16 100  24 100  56 101  57 101
M  END
>  <TORSDO>  (82) 
F 25

>  <SCORE>  (82) 
-11.491

>  <name>  (82) 
83

>  <ligand_id>  (82) 
83

>  <original_smiles>  (82) 
[H]c1c([H])c([H])c2c(c1[H])C([H])([H])C([H])([H])C([H])([H])C2([H])N([H])C(=O)C1([H])N(C(=O)C([H])(N([H])C(=O)C([H])(N([H])C([H])([H])[H])C([H])([H])[H])C(C([H])([H])[H])(C([H])([H])[H])C([H])([H])[H])C([H])([H])c2c([H])c(OC([H])([H])C([H])([H])C([H])([H])c3c(C([H])([H])[H])c([H])c(C([H])([H])[H])c(C([H])([H])C([H])([H])C([H])([H])C([H])([H])C([H])([H])C([H])([H])N([H])C(=O)N4C([H])([H])C([H])([H])C([H])([H])C([H])(n5nc(-c6c([H])c([H])c(Oc7c([H])c([H])c(F)c([H])c7F)c([H])c6[H])c(C(=O)N([H])[H])c5N([H])[H])C4([H])[H])c3C([H])([H])[H])c([H])c([H])c2C1([H])[H]

>  <smiles>  (82) 
[H]c1c([H])c([H])c2c(c1[H])C([H])([H])C([H])([H])C([H])([H])C2([H])N([H])C(=O)C1([H])N(C(=O)C([H])(N([H])C(=O)C([H])(N([H])C([H])([H])[H])C([H])([H])[H])C(C([H])([H])[H])(C([H])([H])[H])C([H])([H])[H])C([H])([H])c2c([H])c(OC([H])([H])C([H])([H])C([H])([H])c3c(C([H])([H])[H])c([H])c(C([H])([H])[H])c(C([H])([H])C([H])([H])C([H])([H])C([H])([H])C([H])([H])C([H])([H])N([H])C(=O)N4C([H])([H])C([H])([H])C([H])([H])C([H])(n5nc(-c6c([H])c([H])c(Oc7c([H])c([H])c(F)c([H])c7F)c([H])c6[H])c(C(=O)N([H])[H])c5N([H])[H])C4([H])[H])c3C([H])([H])[H])c([H])c([H])c2C1([H])[H]

$$$$
85:0:0
     RDKit          3D

 94102  0  0  1  0  0  0  0  0999 V2000
  -29.5320  -19.5980   19.7760 C   0  0  0  0  0  3  0  0  0  0  0  0
  -31.2210  -18.9270   21.8510 C   0  0  0  0  0  3  0  0  0  0  0  0
  -29.4700  -18.2600   20.3030 C   0  0  0  0  0  0  0  0  0  0  0  0
  -30.4390  -20.5840   20.2870 C   0  0  0  0  0  0  0  0  0  0  0  0
  -31.0380  -20.2860   21.5270 C   0  0  0  0  0  0  0  0  0  0  0  0
  -30.5610  -17.8840   21.1500 C   0  0  0  0  0  0  0  0  0  0  0  0
  -28.2490  -17.3100   20.0730 C   0  0  0  0  0  1  0  0  0  0  0  0
  -30.6960  -21.9740   19.6410 C   0  0  0  0  0  2  0  0  0  0  0  0
  -29.4770  -22.9050   19.7870 C   0  0  0  0  0  2  0  0  0  0  0  0
  -29.6490  -24.4030   19.4510 C   0  0  0  0  0  2  0  0  0  0  0  0
  -28.3070  -25.1830   19.4140 C   0  0  0  0  0  2  0  0  0  0  0  0
  -28.4410  -26.5840   19.7450 O   0  0  0  0  0  0  0  0  0  0  0  0
  -24.5720  -31.6450   23.1030 C   0  0  0  0  0  0  0  0  0  0  0  0
  -27.2540  -27.3220   19.8060 C   0  0  0  0  0  0  0  0  0  0  0  0
  -23.3920  -30.2850   21.4050 C   0  0  0  0  0  3  0  0  0  0  0  0
  -24.8600  -28.8670   19.8860 C   0  0  0  0  0  0  0  0  0  0  0  0
  -25.9210  -30.6660   21.2380 C   0  0  0  0  0  2  0  0  0  0  0  0
  -26.0180  -29.3390   20.5160 C   0  0  0  0  0  0  0  0  0  0  0  0
  -27.2130  -28.5820   20.4700 C   0  0  0  0  0  3  0  0  0  0  0  0
  -26.0430  -26.8490   19.2460 C   0  0  0  0  0  3  0  0  0  0  0  0
  -24.8600  -27.6140   19.2540 C   0  0  0  0  0  3  0  0  0  0  0  0
  -23.6170  -29.7370   19.9770 C   0  0  0  0  0  2  0  0  0  0  0  0
  -24.6440  -30.8790   21.9720 N   0  0  0  0  0  0  0  0  0  0  0  0
  -23.4800  -31.9080   23.6310 O   0  0  0  0  0  0  0  0  0  0  0  0
  -22.7390  -29.1990   22.2970 C   0  0  0  0  0  0  0  0  0  0  0  0
  -21.4150  -29.0040   22.1430 N   0  0  0  0  0  0  0  0  0  0  0  0
  -23.4150  -28.5680   23.1190 O   0  0  0  0  0  0  0  0  0  0  0  0
  -20.9390  -29.5490   21.4400 H   0  0  0  0  0  0  0  0  0  0  0  0
  -18.0260  -27.8960   22.7490 C   0  0  0  0  0  0  0  0  0  0  0  0
  -20.5950  -28.0750   22.9360 C   0  0  0  0  0  3  0  0  0  0  0  0
  -20.6370  -26.6330   22.3740 C   0  0  0  0  0  2  0  0  0  0  0  0
  -19.4940  -26.3030   21.3960 C   0  0  0  0  0  2  0  0  0  0  0  0
  -18.1390  -26.5330   22.0870 C   0  0  0  0  0  2  0  0  0  0  0  0
  -19.1810  -28.6080   23.1430 C   0  0  0  0  0  0  0  0  0  0  0  0
  -19.0200  -29.8560   23.7850 C   0  0  0  0  0  3  0  0  0  0  0  0
  -17.7470  -30.3850   24.0460 C   0  0  0  0  0  3  0  0  0  0  0  0
  -16.6010  -29.6680   23.6640 C   0  0  0  0  0  3  0  0  0  0  0  0
  -16.7480  -28.4300   23.0090 C   0  0  0  0  0  3  0  0  0  0  0  0
  -25.8420  -32.2770   23.7570 C   0  0  0  0  0  3  0  0  0  0  0  0
  -25.5130  -33.6640   24.1290 N   0  0  0  0  0  0  0  0  0  0  0  0
  -25.7910  -34.7350   23.3800 C   0  0  0  0  0  0  0  0  0  0  0  0
  -26.4390  -34.6710   22.3300 O   0  0  0  0  0  0  0  0  0  0  0  0
  -24.9600  -33.7920   24.9640 H   0  0  0  0  0  0  0  0  0  0  0  0
  -24.0200  -36.4950   23.1090 C   0  0  0  0  0  1  0  0  0  0  0  0
  -25.2860  -36.1010   23.8880 C   0  0  0  0  0  3  0  0  0  0  0  0
  -27.4140  -37.0150   24.6910 C   0  0  0  0  0  1  0  0  0  0  0  0
  -26.2930  -37.1760   23.7730 N   0  0  0  0  0  0  0  0  0  0  0  0
  -25.8690  -38.0810   23.9390 H   0  0  0  0  0  0  0  0  0  0  0  0
  -26.3720  -31.4680   24.9960 C   0  0  1  0  0  0  0  0  0  0  0  0
  -25.2880  -31.1760   26.0540 C   0  0  0  0  0  1  0  0  0  0  0  0
  -26.9690  -30.1120   24.5520 C   0  0  0  0  0  1  0  0  0  0  0  0
  -27.5080  -32.2530   25.6830 C   0  0  0  0  0  1  0  0  0  0  0  0
  -31.4890  -21.4190   22.4620 C   0  0  0  0  0  2  0  0  0  0  0  0
  -29.1330  -22.3990   23.3110 C   0  0  0  0  0  1  0  0  0  0  0  0
  -30.5370  -21.8550   23.6050 C   0  0  0  0  0  2  0  0  0  0  0  0
  -31.0830  -16.4560   21.4400 C   0  0  0  0  0  2  0  0  0  0  0  0
  -31.2200  -14.3170   20.1460 C   0  0  0  0  0  0  0  0  0  0  0  0
  -30.6980  -12.2330   18.9050 C   0  0  0  0  0  2  0  0  0  0  0  0
  -29.6890  -12.5200   17.7710 C   0  0  0  0  0  2  0  0  0  0  0  0
  -28.2370  -12.4960   18.2890 C   0  0  0  0  0  2  0  0  0  0  0  0
  -28.0230  -13.3310   19.5600 C   0  0  0  0  0  3  0  0  0  0  0  0
  -29.1240  -13.0050   20.5900 C   0  0  0  0  0  2  0  0  0  0  0  0
  -30.4490  -13.2160   19.9650 N   0  0  0  0  0  0  0  0  0  0  0  0
  -32.3770  -14.4320   19.7300 O   0  0  0  0  0  0  0  0  0  0  0  0
  -30.5600  -15.2830   20.7660 N   0  0  0  0  0  0  0  0  0  0  0  0
  -29.6420  -14.9720   21.0590 H   0  0  0  0  0  0  0  0  0  0  0  0
  -25.6580  -14.0420   20.3250 C   0  0  0  0  0  0  0  0  0  0  0  0
  -24.5760  -13.3390   20.7340 C   0  0  0  0  0  0  0  0  0  0  0  0
  -24.9680  -11.9620   20.7080 C   0  0  0  0  0  0  0  0  0  0  0  0
  -26.6770  -13.1280   20.0990 N   0  0  0  0  0  0  0  0  0  0  0  0
  -26.2570  -11.8690   20.3940 N   0  0  0  0  0  0  0  0  0  0  0  0
  -24.1860  -10.7460   20.9140 C   0  0  0  0  0  0  0  0  0  0  0  0
  -24.5830   -9.7680   21.8540 C   0  0  0  0  0  3  0  0  0  0  0  0
  -23.8150   -8.5970   22.0410 C   0  0  0  0  0  3  0  0  0  0  0  0
  -22.6310   -8.4000   21.2930 C   0  0  0  0  0  0  0  0  0  0  0  0
  -22.2570   -9.3630   20.3410 C   0  0  0  0  0  3  0  0  0  0  0  0
  -23.0230  -10.5230   20.1500 C   0  0  0  0  0  3  0  0  0  0  0  0
  -21.8400   -7.2790   21.3930 O   0  0  0  0  0  0  0  0  0  0  0  0
  -21.7540   -6.5630   22.5570 C   0  0  0  0  0  0  0  0  0  0  0  0
  -21.3230   -7.1670   23.7610 C   0  0  0  0  0  3  0  0  0  0  0  0
  -21.1590   -6.3920   24.9250 C   0  0  0  0  0  3  0  0  0  0  0  0
  -21.4220   -5.0080   24.8930 C   0  0  0  0  0  0  0  0  0  0  0  0
  -21.8540   -4.3990   23.7020 C   0  0  0  0  0  3  0  0  0  0  0  0
  -22.0100   -5.1720   22.5360 C   0  0  0  0  0  0  0  0  0  0  0  0
  -22.3950   -4.5790   21.3790 F   0  0  0  0  0  0  0  0  0  0  0  0
  -21.2610   -4.2630   26.0080 F   0  0  0  0  0  0  0  0  0  0  0  0
  -23.2050  -13.8800   21.0480 C   0  0  0  0  0  0  0  0  0  0  0  0
  -22.4850  -13.2280   21.9380 N   0  0  0  0  0  0  0  0  0  0  0  0
  -22.7890  -14.9290   20.5330 O   0  0  0  0  0  0  0  0  0  0  0  0
  -22.8400  -12.3950   22.3890 H   0  0  0  0  0  0  0  0  0  0  0  0
  -21.5500  -13.5230   22.1820 H   0  0  0  0  0  0  0  0  0  0  0  0
  -25.8540  -15.4090   20.1060 N   0  0  0  0  0  0  0  0  0  0  0  0
  -25.1170  -16.0760   20.3010 H   0  0  0  0  0  0  0  0  0  0  0  0
  -26.6880  -15.8280   19.7180 H   0  0  0  0  0  0  0  0  0  0  0  0
  1  4  2  0
  1  3  1  0
  3  6  2  0
  4  5  1  0
  5  2  2  0
  5 53  1  0
  6 56  1  0
  6  2  1  0
  7  3  1  0
  8  9  1  0
  8  4  1  0
 10  9  1  0
 11 10  1  0
 11 12  1  0
 12 14  1  0
 13 24  2  0
 14 19  1  0
 15 23  1  0
 15 25  1  0
 16 22  1  0
 16 18  1  0
 17 23  1  0
 18 17  1  0
 19 18  2  0
 20 21  1  0
 20 14  2  0
 21 16  2  0
 22 15  1  0
 23 13  1  0
 25 27  2  0
 26 25  1  0
 28 26  1  0
 29 38  2  0
 29 34  1  0
 30 26  1  0
 30 34  1  0
 31 30  1  0
 32 33  1  0
 32 31  1  0
 33 29  1  0
 34 35  2  0
 35 36  1  0
 37 36  2  0
 38 37  1  0
 39 13  1  0
 39 40  1  0
 39 49  1  0
 40 43  1  0
 41 45  1  0
 41 40  1  0
 42 41  2  0
 45 44  1  0
 47 45  1  0
 47 48  1  0
 47 46  1  0
 49 52  1  1
 49 50  1  0
 51 49  1  0
 53 55  1  0
 54 55  1  0
 57 65  1  0
 58 63  1  0
 59 60  1  0
 59 58  1  0
 61 60  1  0
 61 70  1  0
 61 62  1  0
 63 57  1  0
 63 62  1  0
 64 57  2  0
 65 66  1  0
 65 56  1  0
 67 68  2  0
 68 87  1  0
 69 68  1  0
 69 72  1  0
 70 67  1  0
 70 71  1  0
 71 69  2  0
 72 73  1  0
 73 74  2  0
 75 78  1  0
 75 74  1  0
 76 75  2  0
 77 76  1  0
 77 72  2  0
 78 79  1  0
 79 80  1  0
 80 81  2  0
 82 81  1  0
 82 86  1  0
 83 82  2  0
 84 79  2  0
 84 83  1  0
 85 84  1  0
 87 88  1  0
 88 91  1  0
 88 90  1  0
 89 87  2  0
 92 93  1  0
 92 67  1  0
 94 92  1  0
M  ISO  4  11 101  12 101  57 100  65 100
M  END
>  <TORSDO>  (83) 
F 23

>  <SCORE>  (83) 
-12.798

>  <name>  (83) 
85

>  <ligand_id>  (83) 
85

>  <original_smiles>  (83) 
[H]c1c([H])c([H])c2c(c1[H])C([H])([H])C([H])([H])C([H])([H])C2([H])N([H])C(=O)C1([H])N(C(=O)C([H])(N([H])C(=O)C([H])(N([H])C([H])([H])[H])C([H])([H])[H])C(C([H])([H])[H])(C([H])([H])[H])C([H])([H])[H])C([H])([H])c2c([H])c(OC([H])([H])C([H])([H])C([H])([H])C([H])([H])c3c([H])c(C([H])([H])[H])c(C([H])([H])N([H])C(=O)N4C([H])([H])C([H])([H])C([H])([H])C([H])(n5nc(-c6c([H])c([H])c(Oc7c([H])c([H])c(F)c([H])c7F)c([H])c6[H])c(C(=O)N([H])[H])c5N([H])[H])C4([H])[H])c([H])c3C([H])([H])C([H])([H])C([H])([H])[H])c([H])c([H])c2C1([H])[H]

>  <smiles>  (83) 
[H]c1c([H])c([H])c2c(c1[H])C([H])([H])C([H])([H])C([H])([H])C2([H])N([H])C(=O)C1([H])N(C(=O)C([H])(N([H])C(=O)C([H])(N([H])C([H])([H])[H])C([H])([H])[H])C(C([H])([H])[H])(C([H])([H])[H])C([H])([H])[H])C([H])([H])c2c([H])c(OC([H])([H])C([H])([H])C([H])([H])C([H])([H])c3c([H])c(C([H])([H])[H])c(C([H])([H])N([H])C(=O)N4C([H])([H])C([H])([H])C([H])([H])C([H])(n5nc(-c6c([H])c([H])c(Oc7c([H])c([H])c(F)c([H])c7F)c([H])c6[H])c(C(=O)N([H])[H])c5N([H])[H])C4([H])[H])c([H])c3C([H])([H])C([H])([H])C([H])([H])[H])c([H])c([H])c2C1([H])[H]

$$$$
86:0:0
     RDKit          3D

100108  0  0  1  0  0  0  0  0999 V2000
  -30.6550  -24.8570   20.7400 C   0  0  0  0  0  3  0  0  0  0  0  0
  -31.6720  -23.9880   20.3010 C   0  0  0  0  0  0  0  0  0  0  0  0
  -29.4640  -25.0070   20.0060 C   0  0  0  0  0  0  0  0  0  0  0  0
  -29.2760  -24.2660   18.8130 C   0  0  0  0  0  0  0  0  0  0  0  0
  -30.2780  -23.3530   18.3810 C   0  0  0  0  0  0  0  0  0  0  0  0
  -31.4990  -23.2430   19.1050 C   0  0  0  0  0  0  0  0  0  0  0  0
  -32.9410  -23.8860   21.1340 C   0  0  0  0  0  1  0  0  0  0  0  0
  -27.9920  -24.4760   18.0090 C   0  0  0  0  0  1  0  0  0  0  0  0
  -30.0260  -22.5090   17.1330 C   0  0  0  0  0  1  0  0  0  0  0  0
  -28.3870  -25.9510   20.5300 C   0  0  0  0  0  2  0  0  0  0  0  0
  -28.3490  -27.1720   19.8000 O   0  0  0  0  0  0  0  0  0  0  0  0
  -24.7130  -31.9910   23.5410 C   0  0  0  0  0  0  0  0  0  0  0  0
  -27.1790  -27.8640   19.9620 C   0  0  0  0  0  0  0  0  0  0  0  0
  -23.4030  -30.7010   21.8820 C   0  0  0  0  0  3  0  0  0  0  0  0
  -24.7700  -29.2940   20.2530 C   0  0  0  0  0  0  0  0  0  0  0  0
  -25.9010  -31.1210   21.5340 C   0  0  0  0  0  2  0  0  0  0  0  0
  -25.9560  -29.8020   20.7960 C   0  0  0  0  0  0  0  0  0  0  0  0
  -27.1680  -29.0940   20.6490 C   0  0  0  0  0  3  0  0  0  0  0  0
  -25.9820  -27.3550   19.4210 C   0  0  0  0  0  3  0  0  0  0  0  0
  -24.7740  -28.0660   19.5640 C   0  0  0  0  0  3  0  0  0  0  0  0
  -23.5210  -30.1240   20.4450 C   0  0  0  0  0  2  0  0  0  0  0  0
  -24.6950  -31.2810   22.3780 N   0  0  0  0  0  0  0  0  0  0  0  0
  -23.6710  -32.2070   24.1750 O   0  0  0  0  0  0  0  0  0  0  0  0
  -22.8300  -29.6030   22.8060 C   0  0  0  0  0  0  0  0  0  0  0  0
  -21.5370  -29.2880   22.6280 N   0  0  0  0  0  0  0  0  0  0  0  0
  -23.5470  -29.0390   23.6380 O   0  0  0  0  0  0  0  0  0  0  0  0
  -21.0170  -29.8040   21.9310 H   0  0  0  0  0  0  0  0  0  0  0  0
  -18.3700  -27.5590   22.7930 C   0  0  0  0  0  0  0  0  0  0  0  0
  -20.7950  -28.2570   23.3530 C   0  0  0  0  0  3  0  0  0  0  0  0
  -21.2030  -26.8410   22.8860 C   0  0  0  0  0  2  0  0  0  0  0  0
  -20.3090  -26.2930   21.7690 C   0  0  0  0  0  2  0  0  0  0  0  0
  -18.8500  -26.2320   22.2310 C   0  0  0  0  0  2  0  0  0  0  0  0
  -19.2850  -28.5170   23.3040 C   0  0  0  0  0  0  0  0  0  0  0  0
  -18.7900  -29.7510   23.7800 C   0  0  0  0  0  3  0  0  0  0  0  0
  -17.4110  -30.0330   23.7530 C   0  0  0  0  0  3  0  0  0  0  0  0
  -16.5070  -29.0740   23.2610 C   0  0  0  0  0  3  0  0  0  0  0  0
  -16.9880  -27.8400   22.7870 C   0  0  0  0  0  3  0  0  0  0  0  0
  -26.0370  -32.5890   24.1150 C   0  0  0  0  0  3  0  0  0  0  0  0
  -26.5560  -31.8300   25.3970 C   0  0  1  0  0  0  0  0  0  0  0  0
  -25.4770  -31.6450   26.4890 C   0  0  0  0  0  1  0  0  0  0  0  0
  -27.0950  -30.4310   25.0190 C   0  0  0  0  0  1  0  0  0  0  0  0
  -27.7390  -32.6070   26.0220 C   0  0  0  0  0  1  0  0  0  0  0  0
  -25.7920  -34.0050   24.4100 N   0  0  0  0  0  0  0  0  0  0  0  0
  -26.1460  -35.0210   23.6110 C   0  0  0  0  0  0  0  0  0  0  0  0
  -26.7900  -34.8600   22.5700 O   0  0  0  0  0  0  0  0  0  0  0  0
  -25.2250  -34.2070   25.2210 H   0  0  0  0  0  0  0  0  0  0  0  0
  -24.4890  -36.8700   23.2290 C   0  0  0  0  0  1  0  0  0  0  0  0
  -25.7240  -36.4400   24.0370 C   0  0  0  0  0  3  0  0  0  0  0  0
  -27.9030  -37.2560   24.8170 C   0  0  0  0  0  1  0  0  0  0  0  0
  -26.7970  -37.4460   23.8830 N   0  0  0  0  0  0  0  0  0  0  0  0
  -26.4300  -38.3840   24.0110 H   0  0  0  0  0  0  0  0  0  0  0  0
  -32.6410  -22.3700   18.5870 C   0  0  0  0  0  2  0  0  0  0  0  0
  -32.6030  -20.9210   19.1030 C   0  0  0  0  0  2  0  0  0  0  0  0
  -33.8560  -20.1560   18.6560 C   0  0  0  0  0  2  0  0  0  0  0  0
  -33.9160  -18.7120   19.1700 C   0  0  0  0  0  2  0  0  0  0  0  0
  -35.2200  -18.0340   18.7210 C   0  0  0  0  0  2  0  0  0  0  0  0
  -35.3670  -16.5780   19.1960 C   0  0  0  0  0  2  0  0  0  0  0  0
  -36.3400  -15.7930   18.2860 C   0  0  0  0  0  2  0  0  0  0  0  0
  -36.2470  -14.2570   18.3810 C   0  0  0  0  0  2  0  0  0  0  0  0
  -34.8370  -13.6500   18.1760 C   0  0  0  0  0  3  0  0  0  0  0  0
  -33.9360  -14.3750   17.1410 C   0  0  0  0  0  3  0  0  0  0  0  0
  -32.4840  -13.8580   16.9970 C   0  0  0  0  0  2  0  0  0  0  0  0
  -31.4780  -14.0580   19.2710 C   0  0  0  0  0  0  0  0  0  0  0  0
  -30.8300  -11.7850   18.8330 C   0  0  0  0  0  2  0  0  0  0  0  0
  -29.8100  -11.8530   17.6820 C   0  0  0  0  0  2  0  0  0  0  0  0
  -28.3960  -11.9260   18.2670 C   0  0  0  0  0  2  0  0  0  0  0  0
  -28.2220  -12.9790   19.4020 C   0  0  0  0  0  3  0  0  0  0  0  0
  -29.4280  -13.0120   20.3950 C   0  0  0  0  0  2  0  0  0  0  0  0
  -30.6760  -13.0100   19.6000 N   0  0  0  0  0  0  0  0  0  0  0  0
  -32.1710  -14.7120   20.0050 O   0  0  0  0  0  0  0  0  0  0  0  0
  -31.5190  -14.3940   17.9750 N   0  0  0  0  0  0  0  0  0  0  0  0
  -31.5000  -15.4010   17.8940 H   0  0  0  0  0  0  0  0  0  0  0  0
  -25.9710  -13.7380   20.4200 C   0  0  0  0  0  0  0  0  0  0  0  0
  -24.8730  -13.0380   20.8460 C   0  0  0  0  0  0  0  0  0  0  0  0
  -25.2010  -11.6560   20.6900 C   0  0  0  0  0  0  0  0  0  0  0  0
  -26.9140  -12.7910   20.0480 N   0  0  0  0  0  0  0  0  0  0  0  0
  -26.4540  -11.5290   20.2690 N   0  0  0  0  0  0  0  0  0  0  0  0
  -24.3780  -10.4510   20.8690 C   0  0  0  0  0  0  0  0  0  0  0  0
  -24.6760   -9.4960   21.8650 C   0  0  0  0  0  3  0  0  0  0  0  0
  -23.8580   -8.3580   22.0390 C   0  0  0  0  0  3  0  0  0  0  0  0
  -22.7270   -8.1650   21.2120 C   0  0  0  0  0  0  0  0  0  0  0  0
  -22.4470   -9.1060   20.2060 C   0  0  0  0  0  3  0  0  0  0  0  0
  -23.2650  -10.2350   20.0310 C   0  0  0  0  0  3  0  0  0  0  0  0
  -21.8940   -7.0750   21.2900 O   0  0  0  0  0  0  0  0  0  0  0  0
  -21.5700   -6.5000   22.4930 C   0  0  0  0  0  0  0  0  0  0  0  0
  -20.9220   -7.2270   23.5150 C   0  0  0  0  0  3  0  0  0  0  0  0
  -20.5440   -6.5790   24.7080 C   0  0  0  0  0  3  0  0  0  0  0  0
  -20.8050   -5.2060   24.8780 C   0  0  0  0  0  0  0  0  0  0  0  0
  -21.4450   -4.4790   23.8580 C   0  0  0  0  0  3  0  0  0  0  0  0
  -21.8250   -5.1240   22.6680 C   0  0  0  0  0  0  0  0  0  0  0  0
  -22.4200   -4.4150   21.6800 F   0  0  0  0  0  0  0  0  0  0  0  0
  -20.4360   -4.5810   26.0200 F   0  0  0  0  0  0  0  0  0  0  0  0
  -23.5550  -13.6140   21.2790 C   0  0  0  0  0  0  0  0  0  0  0  0
  -22.8720  -12.9440   22.2020 N   0  0  0  0  0  0  0  0  0  0  0  0
  -23.1490  -14.6890   20.8420 O   0  0  0  0  0  0  0  0  0  0  0  0
  -23.2130  -12.0700   22.5740 H   0  0  0  0  0  0  0  0  0  0  0  0
  -21.9960  -13.3120   22.5430 H   0  0  0  0  0  0  0  0  0  0  0  0
  -26.2370  -15.0980   20.2960 N   0  0  0  0  0  0  0  0  0  0  0  0
  -25.5520  -15.8100   20.5200 H   0  0  0  0  0  0  0  0  0  0  0  0
  -27.1040  -15.4790   19.9400 H   0  0  0  0  0  0  0  0  0  0  0  0
  2  1  1  0
  2  7  1  0
  3 10  1  0
  3  1  2  0
  4  3  1  0
  5  4  2  0
  5  6  1  0
  6  2  2  0
  8  4  1  0
  9  5  1  0
 11 13  1  0
 11 10  1  0
 12 23  2  0
 13 18  1  0
 14 22  1  0
 14 24  1  0
 15 21  1  0
 15 17  1  0
 16 22  1  0
 17 16  1  0
 18 17  2  0
 19 20  1  0
 19 13  2  0
 20 15  2  0
 21 14  1  0
 22 12  1  0
 24 26  2  0
 25 24  1  0
 27 25  1  0
 28 33  1  0
 29 25  1  0
 30 29  1  0
 31 32  1  0
 31 30  1  0
 32 28  1  0
 33 29  1  0
 33 34  2  0
 35 34  1  0
 36 35  2  0
 37 28  2  0
 37 36  1  0
 38 12  1  0
 38 43  1  0
 38 39  1  0
 39 42  1  1
 39 40  1  0
 41 39  1  0
 43 46  1  0
 44 48  1  0
 44 43  1  0
 45 44  2  0
 48 47  1  0
 50 51  1  0
 50 48  1  0
 50 49  1  0
 52 53  1  0
 52  6  1  0
 54 53  1  0
 54 55  1  0
 56 55  1  0
 56 57  1  0
 58 59  1  0
 58 57  1  0
 60 59  1  0
 61 60  2  0
 62 61  1  0
 62 71  1  0
 63 69  1  0
 63 70  2  0
 64 69  1  0
 65 66  1  0
 65 64  1  0
 67 66  1  0
 67 76  1  0
 67 68  1  0
 69 68  1  0
 71 63  1  0
 72 71  1  0
 73 74  2  0
 74 93  1  0
 75 74  1  0
 75 78  1  0
 76 77  1  0
 76 73  1  0
 77 75  2  0
 78 79  1  0
 79 80  2  0
 81 84  1  0
 81 80  1  0
 82 81  2  0
 83 82  1  0
 83 78  2  0
 84 85  1  0
 85 90  2  0
 85 86  1  0
 86 87  2  0
 87 88  1  0
 88 92  1  0
 89 88  2  0
 90 89  1  0
 91 90  1  0
 93 94  1  0
 94 97  1  0
 94 96  1  0
 95 93  2  0
 98 73  1  0
 98 99  1  0
100 98  1  0
M  ISO  4  10 101  11 101  63 100  71 100
M  END
>  <TORSDO>  (84) 
F 28

>  <SCORE>  (84) 
-8.849

>  <name>  (84) 
86

>  <ligand_id>  (84) 
86

>  <original_smiles>  (84) 
[H]c1c([H])c([H])c2c(c1[H])C([H])([H])C([H])([H])C([H])([H])C2([H])N([H])C(=O)C1([H])N(C(=O)C([H])(N([H])C(=O)C([H])(N([H])C([H])([H])[H])C([H])([H])[H])C(C([H])([H])[H])(C([H])([H])[H])C([H])([H])[H])C([H])([H])c2c([H])c(OC([H])([H])c3c([H])c(C([H])([H])[H])c(C([H])([H])C([H])([H])C([H])([H])C([H])([H])C([H])([H])C([H])([H])C([H])([H])C([H])([H])C([H])([H])C([H])([H])C([H])([H])N([H])C(=O)N4C([H])([H])C([H])([H])C([H])([H])C([H])(n5nc(-c6c([H])c([H])c(Oc7c([H])c([H])c(F)c([H])c7F)c([H])c6[H])c(C(=O)N([H])[H])c5N([H])[H])C4([H])[H])c(C([H])([H])[H])c3C([H])([H])[H])c([H])c([H])c2C1([H])[H]

>  <smiles>  (84) 
[H]c1c([H])c([H])c2c(c1[H])C([H])([H])C([H])([H])C([H])([H])C2([H])N([H])C(=O)C1([H])N(C(=O)C([H])(N([H])C(=O)C([H])(N([H])C([H])([H])[H])C([H])([H])[H])C(C([H])([H])[H])(C([H])([H])[H])C([H])([H])[H])C([H])([H])c2c([H])c(OC([H])([H])c3c([H])c(C([H])([H])[H])c(C([H])([H])C([H])([H])C([H])([H])C([H])([H])C([H])([H])C([H])([H])C([H])([H])C([H])([H])C([H])([H])C([H])([H])C([H])([H])N([H])C(=O)N4C([H])([H])C([H])([H])C([H])([H])C([H])(n5nc(-c6c([H])c([H])c(Oc7c([H])c([H])c(F)c([H])c7F)c([H])c6[H])c(C(=O)N([H])[H])c5N([H])[H])C4([H])[H])c(C([H])([H])[H])c3C([H])([H])[H])c([H])c([H])c2C1([H])[H]

$$$$
87:0:0
     RDKit          3D

 99108  0  0  1  0  0  0  0  0999 V2000
  -30.5810  -27.4700   20.3570 C   0  0  0  0  0  0  0  0  0  0  0  0
  -31.7280  -26.8240   20.8870 C   0  0  0  0  0  0  0  0  0  0  0  0
  -29.8290  -26.8080   19.3440 C   0  0  0  0  0  0  0  0  0  0  0  0
  -32.0930  -25.5670   20.3580 C   0  0  0  0  0  0  0  0  0  0  0  0
  -30.1970  -25.4730   19.0150 C   0  0  0  0  0  0  0  0  0  0  0  0
  -30.1330  -28.7970   20.9750 C   0  0  0  0  0  2  0  0  0  0  0  0
  -32.5080  -27.4500   22.0440 C   0  0  0  0  0  2  0  0  0  0  0  0
  -29.5910  -28.6010   22.4010 C   0  0  0  0  0  2  0  0  0  0  0  0
  -31.7030  -27.4360   23.3550 C   0  0  0  0  0  2  0  0  0  0  0  0
  -30.6840  -28.5820   23.4810 C   0  0  0  0  0  2  0  0  0  0  0  0
  -33.3100  -24.7910   20.8270 C   0  0  0  0  0  1  0  0  0  0  0  0
  -31.3500  -24.9270   19.4450 N   0  0  0  0  0  0  0  0  0  0  0  0
  -28.6370  -27.4950   18.6690 C   0  0  0  0  0  2  0  0  0  0  0  0
  -27.4460  -27.0590   19.2800 O   0  0  0  0  0  0  0  0  0  0  0  0
  -24.0670  -31.9870   23.1890 C   0  0  0  0  0  0  0  0  0  0  0  0
  -26.3770  -27.9050   19.4270 C   0  0  0  0  0  0  0  0  0  0  0  0
  -22.6970  -30.7230   21.5650 C   0  0  0  0  0  3  0  0  0  0  0  0
  -23.9960  -29.3580   19.8440 C   0  0  0  0  0  0  0  0  0  0  0  0
  -25.1830  -31.1470   21.1240 C   0  0  0  0  0  2  0  0  0  0  0  0
  -25.2100  -29.8490   20.3440 C   0  0  0  0  0  0  0  0  0  0  0  0
  -26.4130  -29.1320   20.1320 C   0  0  0  0  0  3  0  0  0  0  0  0
  -25.1480  -27.4220   18.9440 C   0  0  0  0  0  3  0  0  0  0  0  0
  -23.9580  -28.1440   19.1400 C   0  0  0  0  0  3  0  0  0  0  0  0
  -22.7560  -30.1820   20.1120 C   0  0  0  0  0  2  0  0  0  0  0  0
  -24.0080  -31.2940   22.0160 N   0  0  0  0  0  0  0  0  0  0  0  0
  -23.0520  -32.1900   23.8660 O   0  0  0  0  0  0  0  0  0  0  0  0
  -22.1640  -29.6050   22.4890 C   0  0  0  0  0  0  0  0  0  0  0  0
  -20.8500  -29.3370   22.4080 N   0  0  0  0  0  0  0  0  0  0  0  0
  -22.9250  -28.9870   23.2380 O   0  0  0  0  0  0  0  0  0  0  0  0
  -20.2920  -29.8940   21.7750 H   0  0  0  0  0  0  0  0  0  0  0  0
  -17.6040  -27.8350   22.9230 C   0  0  0  0  0  0  0  0  0  0  0  0
  -20.1350  -28.3040   23.1570 C   0  0  0  0  0  3  0  0  0  0  0  0
  -20.3490  -26.9090   22.5240 C   0  0  0  0  0  2  0  0  0  0  0  0
  -19.2570  -26.5300   21.5190 C   0  0  0  0  0  2  0  0  0  0  0  0
  -17.8810  -26.5320   22.1940 C   0  0  0  0  0  2  0  0  0  0  0  0
  -18.6630  -28.6740   23.3620 C   0  0  0  0  0  0  0  0  0  0  0  0
  -18.3500  -29.8920   24.0050 C   0  0  0  0  0  3  0  0  0  0  0  0
  -17.0100  -30.2720   24.2140 C   0  0  0  0  0  3  0  0  0  0  0  0
  -15.9670  -29.4290   23.7910 C   0  0  0  0  0  3  0  0  0  0  0  0
  -16.2650  -28.2130   23.1510 C   0  0  0  0  0  3  0  0  0  0  0  0
  -25.4110  -32.5810   23.7180 C   0  0  0  0  0  3  0  0  0  0  0  0
  -25.1560  -33.9760   24.0980 N   0  0  0  0  0  0  0  0  0  0  0  0
  -25.4950  -35.0390   23.3570 C   0  0  0  0  0  0  0  0  0  0  0  0
  -26.1270  -34.9460   22.3010 O   0  0  0  0  0  0  0  0  0  0  0  0
  -24.5920  -34.1240   24.9230 H   0  0  0  0  0  0  0  0  0  0  0  0
  -23.8230  -36.9000   23.0960 C   0  0  0  0  0  1  0  0  0  0  0  0
  -25.0650  -36.4280   23.8690 C   0  0  0  0  0  3  0  0  0  0  0  0
  -27.2390  -37.2150   24.6920 C   0  0  0  0  0  1  0  0  0  0  0  0
  -26.1310  -37.4480   23.7690 N   0  0  0  0  0  0  0  0  0  0  0  0
  -25.7590  -38.3770   23.9480 H   0  0  0  0  0  0  0  0  0  0  0  0
  -26.0130  -31.7700   24.9310 C   0  0  1  0  0  0  0  0  0  0  0  0
  -24.9990  -31.5180   26.0730 C   0  0  0  0  0  1  0  0  0  0  0  0
  -26.5470  -30.3960   24.4610 C   0  0  0  0  0  1  0  0  0  0  0  0
  -27.2200  -32.5340   25.5240 C   0  0  0  0  0  1  0  0  0  0  0  0
  -29.3320  -24.4930   18.2040 C   0  0  0  0  0  2  0  0  0  0  0  0
  -28.5980  -23.3940   19.0420 C   0  0  0  0  0  2  0  0  0  0  0  0
  -29.4740  -22.2300   19.5790 C   0  0  0  0  0  2  0  0  0  0  0  0
  -28.7230  -20.9200   19.9340 C   0  0  0  0  0  2  0  0  0  0  0  0
  -29.6800  -19.8610   20.5350 C   0  0  0  0  0  2  0  0  0  0  0  0
  -29.1330  -18.4140   20.6190 C   0  0  0  0  0  2  0  0  0  0  0  0
  -30.1260  -17.4590   21.3290 C   0  0  0  0  0  2  0  0  0  0  0  0
  -30.5390  -15.1060   20.5690 C   0  0  0  0  0  0  0  0  0  0  0  0
  -30.3690  -12.9930   19.3140 C   0  0  0  0  0  2  0  0  0  0  0  0
  -29.4180  -13.2050   18.1200 C   0  0  0  0  0  2  0  0  0  0  0  0
  -27.9540  -12.9640   18.5390 C   0  0  0  0  0  2  0  0  0  0  0  0
  -27.5720  -13.7190   19.8410 C   0  0  0  0  0  3  0  0  0  0  0  0
  -28.6360  -13.4970   20.9380 C   0  0  0  0  0  2  0  0  0  0  0  0
  -29.9410  -13.9010   20.3900 N   0  0  0  0  0  0  0  0  0  0  0  0
  -31.6480  -15.3840   20.0980 O   0  0  0  0  0  0  0  0  0  0  0  0
  -29.7830  -16.0380   21.1720 N   0  0  0  0  0  0  0  0  0  0  0  0
  -28.8870  -15.7330   21.5230 H   0  0  0  0  0  0  0  0  0  0  0  0
  -25.1360  -14.1560   20.5440 C   0  0  0  0  0  0  0  0  0  0  0  0
  -24.1200  -13.3080   20.8930 C   0  0  0  0  0  0  0  0  0  0  0  0
  -24.6690  -11.9910   20.8380 C   0  0  0  0  0  0  0  0  0  0  0  0
  -26.2370  -13.3480   20.3050 N   0  0  0  0  0  0  0  0  0  0  0  0
  -25.9600  -12.0400   20.5360 N   0  0  0  0  0  0  0  0  0  0  0  0
  -24.0270  -10.6790   20.9950 C   0  0  0  0  0  0  0  0  0  0  0  0
  -24.4710   -9.7520   21.9640 C   0  0  0  0  0  3  0  0  0  0  0  0
  -23.8270   -8.5050   22.1130 C   0  0  0  0  0  3  0  0  0  0  0  0
  -22.7230   -8.1750   21.2900 C   0  0  0  0  0  0  0  0  0  0  0  0
  -22.3000   -9.0910   20.3120 C   0  0  0  0  0  3  0  0  0  0  0  0
  -22.9450  -10.3300   20.1620 C   0  0  0  0  0  3  0  0  0  0  0  0
  -22.0510   -6.9770   21.3440 O   0  0  0  0  0  0  0  0  0  0  0  0
  -21.9230   -6.2760   22.5160 C   0  0  0  0  0  0  0  0  0  0  0  0
  -21.2690   -6.8240   23.6420 C   0  0  0  0  0  3  0  0  0  0  0  0
  -21.0970   -6.0430   24.8040 C   0  0  0  0  0  3  0  0  0  0  0  0
  -21.5680   -4.7170   24.8380 C   0  0  0  0  0  0  0  0  0  0  0  0
  -22.2150   -4.1700   23.7160 C   0  0  0  0  0  3  0  0  0  0  0  0
  -22.3890   -4.9480   22.5580 C   0  0  0  0  0  0  0  0  0  0  0  0
  -22.9920   -4.4080   21.4700 F   0  0  0  0  0  0  0  0  0  0  0  0
  -21.3960   -3.9660   25.9500 F   0  0  0  0  0  0  0  0  0  0  0  0
  -22.6920  -13.6830   21.1670 C   0  0  0  0  0  0  0  0  0  0  0  0
  -22.0100  -12.9230   22.0170 N   0  0  0  0  0  0  0  0  0  0  0  0
  -22.1880  -14.6830   20.6600 O   0  0  0  0  0  0  0  0  0  0  0  0
  -22.4340  -12.1150   22.4460 H   0  0  0  0  0  0  0  0  0  0  0  0
  -21.0510  -13.1520   22.2390 H   0  0  0  0  0  0  0  0  0  0  0  0
  -25.2140  -15.5370   20.3920 N   0  0  0  0  0  0  0  0  0  0  0  0
  -24.4040  -16.1410   20.4840 H   0  0  0  0  0  0  0  0  0  0  0  0
  -26.0370  -16.0320   20.0670 H   0  0  0  0  0  0  0  0  0  0  0  0
  1  2  1  0
  1  6  1  0
  2  7  1  0
  3  1  2  0
  4 11  1  0
  4  2  2  0
  5  3  1  0
  5 12  2  0
  6  8  1  0
  7  9  1  0
  8 10  1  0
  9 10  1  0
 12  4  1  0
 13 14  1  0
 13  3  1  0
 14 16  1  0
 15 26  2  0
 16 21  1  0
 17 25  1  0
 17 27  1  0
 18 24  1  0
 18 20  1  0
 19 25  1  0
 20 19  1  0
 21 20  2  0
 22 23  1  0
 22 16  2  0
 23 18  2  0
 24 17  1  0
 25 15  1  0
 27 29  2  0
 28 27  1  0
 30 28  1  0
 31 40  2  0
 31 36  1  0
 32 28  1  0
 32 36  1  0
 33 32  1  0
 34 35  1  0
 34 33  1  0
 35 31  1  0
 36 37  2  0
 37 38  1  0
 39 38  2  0
 40 39  1  0
 41 15  1  0
 41 42  1  0
 41 51  1  0
 42 45  1  0
 43 47  1  0
 43 42  1  0
 44 43  2  0
 47 46  1  0
 49 47  1  0
 49 50  1  0
 49 48  1  0
 51 54  1  1
 51 52  1  0
 53 51  1  0
 55  5  1  0
 55 56  1  0
 56 57  1  0
 57 58  1  0
 58 59  1  0
 59 60  1  0
 60 61  1  0
 62 70  1  0
 63 68  1  0
 64 65  1  0
 64 63  1  0
 66 65  1  0
 66 75  1  0
 66 67  1  0
 68 62  1  0
 68 67  1  0
 69 62  2  0
 70 61  1  0
 70 71  1  0
 72 73  2  0
 73 92  1  0
 74 73  1  0
 74 77  1  0
 75 76  1  0
 75 72  1  0
 76 74  2  0
 77 78  1  0
 78 79  2  0
 80 83  1  0
 80 79  1  0
 81 80  2  0
 82 81  1  0
 82 77  2  0
 83 84  1  0
 84 89  2  0
 84 85  1  0
 85 86  2  0
 86 87  1  0
 87 91  1  0
 88 87  2  0
 89 88  1  0
 90 89  1  0
 92 93  1  0
 93 96  1  0
 93 95  1  0
 94 92  2  0
 97 98  1  0
 97 72  1  0
 99 97  1  0
M  ISO  4  13 101  14 101  62 100  70 100
M  END
>  <TORSDO>  (85) 
F 24

>  <SCORE>  (85) 
-10.342

>  <name>  (85) 
87

>  <ligand_id>  (85) 
87

>  <original_smiles>  (85) 
[H]c1c([H])c([H])c2c(c1[H])C([H])([H])C([H])([H])C([H])([H])C2([H])N([H])C(=O)C1([H])N(C(=O)C([H])(N([H])C(=O)C([H])(N([H])C([H])([H])[H])C([H])([H])[H])C(C([H])([H])[H])(C([H])([H])[H])C([H])([H])[H])C([H])([H])c2c([H])c(OC([H])([H])c3c(C([H])([H])C([H])([H])C([H])([H])C([H])([H])C([H])([H])C([H])([H])C([H])([H])N([H])C(=O)N4C([H])([H])C([H])([H])C([H])([H])C([H])(n5nc(-c6c([H])c([H])c(Oc7c([H])c([H])c(F)c([H])c7F)c([H])c6[H])c(C(=O)N([H])[H])c5N([H])[H])C4([H])[H])nc(C([H])([H])[H])c4c3C([H])([H])C([H])([H])C([H])([H])C([H])([H])C4([H])[H])c([H])c([H])c2C1([H])[H]

>  <smiles>  (85) 
[H]c1c([H])c([H])c2c(c1[H])C([H])([H])C([H])([H])C([H])([H])C2([H])N([H])C(=O)C1([H])N(C(=O)C([H])(N([H])C(=O)C([H])(N([H])C([H])([H])[H])C([H])([H])[H])C(C([H])([H])[H])(C([H])([H])[H])C([H])([H])[H])C([H])([H])c2c([H])c(OC([H])([H])c3c(C([H])([H])C([H])([H])C([H])([H])C([H])([H])C([H])([H])C([H])([H])C([H])([H])N([H])C(=O)N4C([H])([H])C([H])([H])C([H])([H])C([H])(n5nc(-c6c([H])c([H])c(Oc7c([H])c([H])c(F)c([H])c7F)c([H])c6[H])c(C(=O)N([H])[H])c5N([H])[H])C4([H])[H])nc(C([H])([H])[H])c4c3C([H])([H])C([H])([H])C([H])([H])C([H])([H])C4([H])[H])c([H])c([H])c2C1([H])[H]

$$$$
88:0:0
     RDKit          3D

 95103  0  0  1  0  0  0  0  0999 V2000
  -28.6840  -21.2020   21.6010 C   0  0  0  0  0  3  0  0  0  0  0  0
  -28.0870  -21.4450   20.3520 C   0  0  0  0  0  0  0  0  0  0  0  0
  -28.0520  -22.7880   19.8740 C   0  0  0  0  0  0  0  0  0  0  0  0
  -28.6990  -23.7900   20.6540 C   0  0  0  0  0  0  0  0  0  0  0  0
  -29.2690  -22.2570   22.3050 C   0  0  0  0  0  0  0  0  0  0  0  0
  -27.3140  -23.1280   18.5770 C   0  0  0  0  0  1  0  0  0  0  0  0
  -29.2910  -23.5160   21.8340 N   0  0  0  0  0  0  0  0  0  0  0  0
  -30.0130  -21.9440   23.8280 Cl  0  0  0  0  0  0  0  0  0  0  0  0
  -27.4890  -20.2730   19.5670 C   0  0  0  0  0  2  0  0  0  0  0  0
  -28.2450  -18.9200   19.6320 C   0  0  0  0  0  2  0  0  0  0  0  0
  -29.7380  -18.9300   19.2190 C   0  0  0  0  0  2  0  0  0  0  0  0
  -30.2010  -17.6900   18.4270 C   0  0  0  0  0  2  0  0  0  0  0  0
  -29.9400  -16.3210   19.0960 C   0  0  0  0  0  2  0  0  0  0  0  0
  -31.6560  -14.6070   19.4130 C   0  0  0  0  0  0  0  0  0  0  0  0
  -31.2340  -12.2490   18.8280 C   0  0  0  0  0  2  0  0  0  0  0  0
  -30.1650  -12.1710   17.7220 C   0  0  0  0  0  2  0  0  0  0  0  0
  -28.7540  -12.1170   18.3440 C   0  0  0  0  0  2  0  0  0  0  0  0
  -28.5360  -13.2200   19.4110 C   0  0  0  0  0  3  0  0  0  0  0  0
  -29.7230  -13.2990   20.4010 C   0  0  0  0  0  2  0  0  0  0  0  0
  -30.9610  -13.4540   19.6200 N   0  0  0  0  0  0  0  0  0  0  0  0
  -32.7320  -14.6470   18.8220 O   0  0  0  0  0  0  0  0  0  0  0  0
  -31.0900  -15.7600   19.8090 N   0  0  0  0  0  0  0  0  0  0  0  0
  -31.7860  -16.4690   19.9870 H   0  0  0  0  0  0  0  0  0  0  0  0
  -26.4680  -14.0350   20.6990 C   0  0  0  0  0  0  0  0  0  0  0  0
  -25.3470  -13.3820   21.1300 C   0  0  0  0  0  0  0  0  0  0  0  0
  -25.5230  -12.0140   20.7580 C   0  0  0  0  0  0  0  0  0  0  0  0
  -27.2630  -13.0700   20.1050 N   0  0  0  0  0  0  0  0  0  0  0  0
  -26.7090  -11.8350   20.1950 N   0  0  0  0  0  0  0  0  0  0  0  0
  -24.6040  -10.8740   20.8490 C   0  0  0  0  0  0  0  0  0  0  0  0
  -24.9600   -9.6970   21.5410 C   0  0  0  0  0  3  0  0  0  0  0  0
  -24.0530   -8.6200   21.6330 C   0  0  0  0  0  3  0  0  0  0  0  0
  -22.7740   -8.7170   21.0370 C   0  0  0  0  0  0  0  0  0  0  0  0
  -22.4340   -9.8840   20.3300 C   0  0  0  0  0  3  0  0  0  0  0  0
  -23.3390  -10.9520   20.2320 C   0  0  0  0  0  3  0  0  0  0  0  0
  -21.8360   -7.7140   21.0550 O   0  0  0  0  0  0  0  0  0  0  0  0
  -21.6740   -6.8990   22.1470 C   0  0  0  0  0  0  0  0  0  0  0  0
  -21.3250   -7.4150   23.4150 C   0  0  0  0  0  3  0  0  0  0  0  0
  -21.1020   -6.5360   24.4940 C   0  0  0  0  0  3  0  0  0  0  0  0
  -21.2160   -5.1450   24.3060 C   0  0  0  0  0  0  0  0  0  0  0  0
  -21.5580   -4.6310   23.0430 C   0  0  0  0  0  3  0  0  0  0  0  0
  -21.7830   -5.5060   21.9670 C   0  0  0  0  0  0  0  0  0  0  0  0
  -22.0910   -5.0040   20.7460 F   0  0  0  0  0  0  0  0  0  0  0  0
  -20.9940   -4.3030   25.3400 F   0  0  0  0  0  0  0  0  0  0  0  0
  -24.1330  -14.0050   21.7580 C   0  0  0  0  0  0  0  0  0  0  0  0
  -23.4510  -13.2700   22.6310 N   0  0  0  0  0  0  0  0  0  0  0  0
  -23.8110  -15.1680   21.5160 O   0  0  0  0  0  0  0  0  0  0  0  0
  -23.7170  -12.3210   22.8520 H   0  0  0  0  0  0  0  0  0  0  0  0
  -22.6420  -13.6610   23.0910 H   0  0  0  0  0  0  0  0  0  0  0  0
  -26.8640  -15.3680   20.7330 N   0  0  0  0  0  0  0  0  0  0  0  0
  -26.2570  -16.1030   21.0800 H   0  0  0  0  0  0  0  0  0  0  0  0
  -27.7070  -15.7210   20.2980 H   0  0  0  0  0  0  0  0  0  0  0  0
  -28.8280  -25.2600   20.2520 C   0  0  0  0  0  2  0  0  0  0  0  0
  -30.1120  -25.5550   19.4450 C   0  0  0  0  0  2  0  0  0  0  0  0
  -29.9360  -25.7160   17.9160 C   0  0  0  0  0  2  0  0  0  0  0  0
  -29.5070  -27.0330   17.5510 O   0  0  0  0  0  0  0  0  0  0  0  0
  -25.1220  -29.6340   22.4770 C   0  0  0  0  0  0  0  0  0  0  0  0
  -28.2100  -27.3590   17.8620 C   0  0  0  0  0  0  0  0  0  0  0  0
  -24.0340  -28.5770   20.5230 C   0  0  0  0  0  3  0  0  0  0  0  0
  -25.5640  -28.0510   18.5520 C   0  0  0  0  0  0  0  0  0  0  0  0
  -26.3380  -29.6640   20.3010 C   0  0  0  0  0  2  0  0  0  0  0  0
  -26.6400  -28.6560   19.2150 C   0  0  0  0  0  0  0  0  0  0  0  0
  -27.9650  -28.3240   18.8630 C   0  0  0  0  0  3  0  0  0  0  0  0
  -27.1170  -26.7600   17.1980 C   0  0  0  0  0  3  0  0  0  0  0  0
  -25.7970  -27.1030   17.5410 C   0  0  0  0  0  3  0  0  0  0  0  0
  -24.1780  -28.4720   18.9810 C   0  0  0  0  0  2  0  0  0  0  0  0
  -25.1890  -29.2900   21.1590 N   0  0  0  0  0  0  0  0  0  0  0  0
  -24.1060  -29.4040   23.1490 O   0  0  0  0  0  0  0  0  0  0  0  0
  -23.7980  -27.1610   21.0940 C   0  0  0  0  0  0  0  0  0  0  0  0
  -22.6050  -26.6030   20.8350 N   0  0  0  0  0  0  0  0  0  0  0  0
  -24.6840  -26.5790   21.7260 O   0  0  0  0  0  0  0  0  0  0  0  0
  -21.9310  -27.1470   20.3160 H   0  0  0  0  0  0  0  0  0  0  0  0
  -19.9280  -24.1970   20.5510 C   0  0  0  0  0  0  0  0  0  0  0  0
  -22.1780  -25.2650   21.2390 C   0  0  0  0  0  3  0  0  0  0  0  0
  -22.8470  -24.1800   20.3630 C   0  0  0  0  0  2  0  0  0  0  0  0
  -21.9970  -23.7690   19.1560 C   0  0  0  0  0  2  0  0  0  0  0  0
  -20.6370  -23.2340   19.6110 C   0  0  0  0  0  2  0  0  0  0  0  0
  -20.6500  -25.1590   21.3030 C   0  0  0  0  0  0  0  0  0  0  0  0
  -19.9410  -26.0540   22.1330 C   0  0  0  0  0  3  0  0  0  0  0  0
  -18.5380  -25.9920   22.2250 C   0  0  0  0  0  3  0  0  0  0  0  0
  -17.8290  -25.0240   21.4920 C   0  0  0  0  0  3  0  0  0  0  0  0
  -18.5240  -24.1270   20.6600 C   0  0  0  0  0  3  0  0  0  0  0  0
  -26.3050  -30.3510   23.1990 C   0  0  0  0  0  3  0  0  0  0  0  0
  -25.7820  -31.5980   23.7740 N   0  0  0  0  0  0  0  0  0  0  0  0
  -25.9830  -32.8160   23.2550 C   0  0  0  0  0  0  0  0  0  0  0  0
  -26.6960  -33.0160   22.2680 O   0  0  0  0  0  0  0  0  0  0  0  0
  -25.1450  -31.5040   24.5500 H   0  0  0  0  0  0  0  0  0  0  0  0
  -24.0360  -34.4040   23.1300 C   0  0  0  0  0  1  0  0  0  0  0  0
  -25.2790  -34.0040   23.9400 C   0  0  0  0  0  3  0  0  0  0  0  0
  -27.2200  -34.9620   25.0960 C   0  0  0  0  0  1  0  0  0  0  0  0
  -26.1540  -35.1810   24.1220 N   0  0  0  0  0  0  0  0  0  0  0  0
  -25.6140  -35.9890   24.4230 H   0  0  0  0  0  0  0  0  0  0  0  0
  -26.9850  -29.4630   24.3130 C   0  0  1  0  0  0  0  0  0  0  0  0
  -25.9870  -28.8730   25.3340 C   0  0  0  0  0  1  0  0  0  0  0  0
  -27.7580  -28.2870   23.6710 C   0  0  0  0  0  1  0  0  0  0  0  0
  -28.0230  -30.3050   25.0920 C   0  0  0  0  0  1  0  0  0  0  0  0
  1  5  1  0
  2  1  2  0
  3  2  1  0
  3  4  2  0
  4  7  1  0
  5  8  1  0
  6  3  1  0
  7  5  2  0
  9 10  1  0
  9  2  1  0
 11 10  1  0
 12 13  1  0
 12 11  1  0
 13 22  1  0
 14 20  1  0
 14 22  1  0
 15 20  1  0
 16 17  1  0
 16 15  1  0
 18 17  1  0
 18 27  1  0
 18 19  1  0
 20 19  1  0
 21 14  2  0
 22 23  1  0
 24 49  1  0
 24 25  2  0
 25 44  1  0
 26 29  1  0
 26 25  1  0
 27 28  1  0
 27 24  1  0
 28 26  2  0
 29 30  1  0
 30 31  2  0
 32 35  1  0
 32 31  1  0
 33 32  2  0
 34 33  1  0
 34 29  2  0
 35 36  1  0
 36 37  1  0
 37 38  2  0
 39 38  1  0
 39 43  1  0
 40 39  2  0
 41 36  2  0
 41 40  1  0
 42 41  1  0
 44 45  1  0
 45 47  1  0
 45 48  1  0
 46 44  2  0
 49 50  1  0
 51 49  1  0
 52  4  1  0
 53 52  1  0
 54 53  1  0
 55 57  1  0
 55 54  1  0
 56 67  2  0
 57 62  1  0
 58 68  1  0
 58 66  1  0
 59 65  1  0
 59 61  1  0
 60 66  1  0
 61 60  1  0
 62 61  2  0
 63 64  1  0
 63 57  2  0
 64 59  2  0
 65 58  1  0
 66 56  1  0
 68 70  2  0
 69 68  1  0
 71 69  1  0
 72 81  2  0
 72 77  1  0
 73 69  1  0
 73 77  1  0
 74 73  1  0
 75 76  1  0
 75 74  1  0
 76 72  1  0
 77 78  2  0
 78 79  1  0
 80 79  2  0
 81 80  1  0
 82 56  1  0
 82 83  1  0
 82 92  1  0
 83 86  1  0
 84 83  1  0
 84 88  1  0
 85 84  2  0
 88 87  1  0
 88 90  1  0
 90 91  1  0
 90 89  1  0
 92 95  1  1
 92 93  1  0
 94 92  1  0
M  ISO  4  14 100  22 100  54 101  55 101
M  END
>  <TORSDO>  (86) 
F 24

>  <SCORE>  (86) 
-6.873

>  <name>  (86) 
88

>  <ligand_id>  (86) 
88

>  <original_smiles>  (86) 
[H]c1c([H])c([H])c2c(c1[H])C([H])([H])C([H])([H])C([H])([H])C2([H])N([H])C(=O)C1([H])N(C(=O)C([H])(N([H])C(=O)C([H])(N([H])C([H])([H])[H])C([H])([H])[H])C(C([H])([H])[H])(C([H])([H])[H])C([H])([H])[H])C([H])([H])c2c([H])c(OC([H])([H])C([H])([H])C([H])([H])c3nc(Cl)c([H])c(C([H])([H])C([H])([H])C([H])([H])C([H])([H])C([H])([H])N([H])C(=O)N4C([H])([H])C([H])([H])C([H])([H])C([H])(n5nc(-c6c([H])c([H])c(Oc7c([H])c([H])c(F)c([H])c7F)c([H])c6[H])c(C(=O)N([H])[H])c5N([H])[H])C4([H])[H])c3C([H])([H])[H])c([H])c([H])c2C1([H])[H]

>  <smiles>  (86) 
[H]c1c([H])c([H])c2c(c1[H])C([H])([H])C([H])([H])C([H])([H])C2([H])N([H])C(=O)C1([H])N(C(=O)C([H])(N([H])C(=O)C([H])(N([H])C([H])([H])[H])C([H])([H])[H])C(C([H])([H])[H])(C([H])([H])[H])C([H])([H])[H])C([H])([H])c2c([H])c(OC([H])([H])C([H])([H])C([H])([H])c3nc(Cl)c([H])c(C([H])([H])C([H])([H])C([H])([H])C([H])([H])C([H])([H])N([H])C(=O)N4C([H])([H])C([H])([H])C([H])([H])C([H])(n5nc(-c6c([H])c([H])c(Oc7c([H])c([H])c(F)c([H])c7F)c([H])c6[H])c(C(=O)N([H])[H])c5N([H])[H])C4([H])[H])c3C([H])([H])[H])c([H])c([H])c2C1([H])[H]

$$$$
89:0:0
     RDKit          3D

 91 99  0  0  1  0  0  0  0  0999 V2000
  -29.0420  -20.3220   20.7770 C   0  0  0  0  0  3  0  0  0  0  0  0
  -30.4680  -19.4950   18.5310 C   0  0  0  0  0  3  0  0  0  0  0  0
  -29.6080  -19.0130   20.7370 C   0  0  0  0  0  0  0  0  0  0  0  0
  -29.1740  -21.2440   19.7060 C   0  0  0  0  0  0  0  0  0  0  0  0
  -30.3450  -18.5730   19.6050 C   0  0  0  0  0  0  0  0  0  0  0  0
  -29.8980  -20.7980   18.5710 C   0  0  0  0  0  0  0  0  0  0  0  0
  -29.4310  -18.1000   21.9380 C   0  0  0  0  0  1  0  0  0  0  0  0
  -30.0860  -21.8280   17.1970 Cl  0  0  0  0  0  0  0  0  0  0  0  0
  -28.3730  -22.5850   19.7200 C   0  0  0  0  0  2  0  0  0  0  0  0
  -29.0450  -23.9940   19.9810 C   0  0  0  0  0  2  0  0  0  0  0  0
  -28.0140  -25.1600   19.7150 C   0  0  0  0  0  2  0  0  0  0  0  0
  -28.2540  -26.5730   20.0630 O   0  0  0  0  0  0  0  0  0  0  0  0
  -24.5050  -31.8060   23.3120 C   0  0  0  0  0  0  0  0  0  0  0  0
  -27.1220  -27.4040   20.0550 C   0  0  0  0  0  0  0  0  0  0  0  0
  -23.2860  -30.4290   21.6680 C   0  0  0  0  0  3  0  0  0  0  0  0
  -24.7250  -28.9590   20.1620 C   0  0  0  0  0  0  0  0  0  0  0  0
  -25.8130  -30.8050   21.4300 C   0  0  0  0  0  2  0  0  0  0  0  0
  -25.9010  -29.4510   20.7420 C   0  0  0  0  0  0  0  0  0  0  0  0
  -27.1010  -28.6840   20.6860 C   0  0  0  0  0  3  0  0  0  0  0  0
  -25.9180  -26.9750   19.4400 C   0  0  0  0  0  3  0  0  0  0  0  0
  -24.7330  -27.7220   19.5050 C   0  0  0  0  0  3  0  0  0  0  0  0
  -23.4740  -29.8030   20.2650 C   0  0  0  0  0  2  0  0  0  0  0  0
  -24.5540  -31.0290   22.1930 N   0  0  0  0  0  0  0  0  0  0  0  0
  -23.4310  -32.0500   23.8800 O   0  0  0  0  0  0  0  0  0  0  0  0
  -22.6710  -29.3700   22.6140 C   0  0  0  0  0  0  0  0  0  0  0  0
  -21.3680  -29.0880   22.4390 N   0  0  0  0  0  0  0  0  0  0  0  0
  -23.3640  -28.8050   23.4640 O   0  0  0  0  0  0  0  0  0  0  0  0
  -20.8660  -29.6010   21.7290 H   0  0  0  0  0  0  0  0  0  0  0  0
  -18.0860  -27.6070   22.7890 C   0  0  0  0  0  0  0  0  0  0  0  0
  -20.5920  -28.1000   23.1910 C   0  0  0  0  0  3  0  0  0  0  0  0
  -20.8520  -26.6700   22.6670 C   0  0  0  0  0  2  0  0  0  0  0  0
  -19.8430  -26.2250   21.6040 C   0  0  0  0  0  2  0  0  0  0  0  0
  -18.4190  -26.2610   22.1660 C   0  0  0  0  0  2  0  0  0  0  0  0
  -19.1080  -28.4770   23.2550 C   0  0  0  0  0  0  0  0  0  0  0  0
  -18.7460  -29.7300   23.7940 C   0  0  0  0  0  3  0  0  0  0  0  0
  -17.3950  -30.1180   23.8740 C   0  0  0  0  0  3  0  0  0  0  0  0
  -16.3870  -29.2470   23.4250 C   0  0  0  0  0  3  0  0  0  0  0  0
  -16.7330  -27.9940   22.8870 C   0  0  0  0  0  3  0  0  0  0  0  0
  -25.7920  -32.4460   23.9170 C   0  0  0  0  0  3  0  0  0  0  0  0
  -26.3080  -31.7010   25.2080 C   0  0  1  0  0  0  0  0  0  0  0  0
  -25.2080  -31.4640   26.2700 C   0  0  0  0  0  1  0  0  0  0  0  0
  -26.9140  -30.3260   24.8430 C   0  0  0  0  0  1  0  0  0  0  0  0
  -27.4400  -32.5220   25.8680 C   0  0  0  0  0  1  0  0  0  0  0  0
  -25.4880  -33.8520   24.2150 N   0  0  0  0  0  0  0  0  0  0  0  0
  -25.7850  -34.8830   23.4130 C   0  0  0  0  0  0  0  0  0  0  0  0
  -26.4170  -34.7520   22.3600 O   0  0  0  0  0  0  0  0  0  0  0  0
  -24.9230  -34.0280   25.0330 H   0  0  0  0  0  0  0  0  0  0  0  0
  -24.0250  -36.6500   23.0850 C   0  0  0  0  0  1  0  0  0  0  0  0
  -25.3070  -36.2820   23.8470 C   0  0  0  0  0  3  0  0  0  0  0  0
  -27.4650  -37.2200   24.5530 C   0  0  0  0  0  1  0  0  0  0  0  0
  -26.3230  -37.3390   23.6490 N   0  0  0  0  0  0  0  0  0  0  0  0
  -25.9140  -38.2600   23.7740 H   0  0  0  0  0  0  0  0  0  0  0  0
  -31.1660  -17.2440   19.5810 C   0  0  0  0  0  2  0  0  0  0  0  0
  -31.1850  -14.7290   19.4270 C   0  0  0  0  0  0  0  0  0  0  0  0
  -30.8700  -12.3660   18.7590 C   0  0  0  0  0  2  0  0  0  0  0  0
  -29.8520  -12.2850   17.6040 C   0  0  0  0  0  2  0  0  0  0  0  0
  -28.4190  -12.1850   18.1570 C   0  0  0  0  0  2  0  0  0  0  0  0
  -28.1240  -13.2420   19.2560 C   0  0  0  0  0  3  0  0  0  0  0  0
  -29.2600  -13.3210   20.3000 C   0  0  0  0  0  2  0  0  0  0  0  0
  -30.5170  -13.5450   19.5720 N   0  0  0  0  0  0  0  0  0  0  0  0
  -32.3240  -14.7570   18.9560 O   0  0  0  0  0  0  0  0  0  0  0  0
  -30.5180  -15.8970   19.6530 N   0  0  0  0  0  0  0  0  0  0  0  0
  -29.5610  -15.8450   19.9660 H   0  0  0  0  0  0  0  0  0  0  0  0
  -25.8520  -13.9400   20.2280 C   0  0  0  0  0  0  0  0  0  0  0  0
  -24.7930  -13.2130   20.7000 C   0  0  0  0  0  0  0  0  0  0  0  0
  -25.1850  -11.8410   20.6130 C   0  0  0  0  0  0  0  0  0  0  0  0
  -26.8230  -13.0170   19.8810 N   0  0  0  0  0  0  0  0  0  0  0  0
  -26.4340  -11.7480   20.1720 N   0  0  0  0  0  0  0  0  0  0  0  0
  -24.4220  -10.6130   20.8680 C   0  0  0  0  0  0  0  0  0  0  0  0
  -24.7750   -9.7260   21.9080 C   0  0  0  0  0  3  0  0  0  0  0  0
  -24.0140   -8.5610   22.1460 C   0  0  0  0  0  3  0  0  0  0  0  0
  -22.8860   -8.2740   21.3420 C   0  0  0  0  0  0  0  0  0  0  0  0
  -22.5530   -9.1480   20.2910 C   0  0  0  0  0  3  0  0  0  0  0  0
  -23.3130  -10.3040   20.0530 C   0  0  0  0  0  3  0  0  0  0  0  0
  -22.1030   -7.1530   21.4830 O   0  0  0  0  0  0  0  0  0  0  0  0
  -21.7710   -6.6590   22.7190 C   0  0  0  0  0  0  0  0  0  0  0  0
  -21.0490   -7.4250   23.6590 C   0  0  0  0  0  3  0  0  0  0  0  0
  -20.6680   -6.8530   24.8890 C   0  0  0  0  0  3  0  0  0  0  0  0
  -20.9990   -5.5160   25.1770 C   0  0  0  0  0  0  0  0  0  0  0  0
  -21.7130   -4.7490   24.2400 C   0  0  0  0  0  3  0  0  0  0  0  0
  -22.0950   -5.3190   23.0130 C   0  0  0  0  0  0  0  0  0  0  0  0
  -22.7650   -4.5690   22.1030 F   0  0  0  0  0  0  0  0  0  0  0  0
  -20.6270   -4.9640   26.3570 F   0  0  0  0  0  0  0  0  0  0  0  0
  -23.4560  -13.7520   21.1180 C   0  0  0  0  0  0  0  0  0  0  0  0
  -22.7930  -13.0860   22.0570 N   0  0  0  0  0  0  0  0  0  0  0  0
  -23.0120  -14.7980   20.6460 O   0  0  0  0  0  0  0  0  0  0  0  0
  -23.1670  -12.2390   22.4590 H   0  0  0  0  0  0  0  0  0  0  0  0
  -21.8990  -13.4280   22.3800 H   0  0  0  0  0  0  0  0  0  0  0  0
  -26.0610  -15.3050   20.0410 N   0  0  0  0  0  0  0  0  0  0  0  0
  -25.3380  -15.9900   20.2290 H   0  0  0  0  0  0  0  0  0  0  0  0
  -26.8830  -15.7050   19.6080 H   0  0  0  0  0  0  0  0  0  0  0  0
  2  6  2  0
  2  5  1  0
  3  1  1  0
  3  7  1  0
  4  9  1  0
  4  1  2  0
  5  3  2  0
  6  4  1  0
  8  6  1  0
  9 10  1  0
 11 10  1  0
 11 12  1  0
 13 24  2  0
 14 12  1  0
 14 19  1  0
 15 23  1  0
 15 25  1  0
 16 22  1  0
 16 18  1  0
 17 23  1  0
 18 17  1  0
 19 18  2  0
 20 21  1  0
 20 14  2  0
 21 16  2  0
 22 15  1  0
 23 13  1  0
 25 27  2  0
 26 25  1  0
 28 26  1  0
 29 38  2  0
 29 34  1  0
 30 26  1  0
 30 34  1  0
 31 30  1  0
 32 33  1  0
 32 31  1  0
 33 29  1  0
 34 35  2  0
 35 36  1  0
 37 36  2  0
 38 37  1  0
 39 13  1  0
 39 44  1  0
 39 40  1  0
 40 43  1  1
 40 41  1  0
 42 40  1  0
 44 47  1  0
 45 49  1  0
 45 44  1  0
 46 45  2  0
 49 48  1  0
 51 52  1  0
 51 49  1  0
 51 50  1  0
 53  5  1  0
 53 62  1  0
 54 60  1  0
 54 62  1  0
 55 60  1  0
 56 57  1  0
 56 55  1  0
 58 57  1  0
 58 67  1  0
 58 59  1  0
 60 59  1  0
 61 54  2  0
 62 63  1  0
 64 65  2  0
 65 84  1  0
 66 65  1  0
 66 69  1  0
 67 68  1  0
 67 64  1  0
 68 66  2  0
 69 70  1  0
 70 71  2  0
 72 75  1  0
 72 71  1  0
 73 72  2  0
 74 73  1  0
 74 69  2  0
 75 76  1  0
 76 81  2  0
 76 77  1  0
 77 78  2  0
 78 79  1  0
 79 83  1  0
 80 79  2  0
 81 80  1  0
 82 81  1  0
 84 85  1  0
 85 88  1  0
 85 87  1  0
 86 84  2  0
 89 64  1  0
 89 90  1  0
 91 89  1  0
M  ISO  4  11 101  12 101  54 100  62 100
M  END
>  <TORSDO>  (87) 
F 20

>  <SCORE>  (87) 
-11.468

>  <name>  (87) 
89

>  <ligand_id>  (87) 
89

>  <original_smiles>  (87) 
[H]c1c([H])c([H])c2c(c1[H])C([H])([H])C([H])([H])C([H])([H])C2([H])N([H])C(=O)C1([H])N(C(=O)C([H])(N([H])C(=O)C([H])(N([H])C([H])([H])[H])C([H])([H])[H])C(C([H])([H])[H])(C([H])([H])[H])C([H])([H])[H])C([H])([H])c2c([H])c(OC([H])([H])C([H])([H])C([H])([H])c3c([H])c(C([H])([H])[H])c(C([H])([H])N([H])C(=O)N4C([H])([H])C([H])([H])C([H])([H])C([H])(n5nc(-c6c([H])c([H])c(Oc7c([H])c([H])c(F)c([H])c7F)c([H])c6[H])c(C(=O)N([H])[H])c5N([H])[H])C4([H])[H])c([H])c3Cl)c([H])c([H])c2C1([H])[H]

>  <smiles>  (87) 
[H]c1c([H])c([H])c2c(c1[H])C([H])([H])C([H])([H])C([H])([H])C2([H])N([H])C(=O)C1([H])N(C(=O)C([H])(N([H])C(=O)C([H])(N([H])C([H])([H])[H])C([H])([H])[H])C(C([H])([H])[H])(C([H])([H])[H])C([H])([H])[H])C([H])([H])c2c([H])c(OC([H])([H])C([H])([H])C([H])([H])c3c([H])c(C([H])([H])[H])c(C([H])([H])N([H])C(=O)N4C([H])([H])C([H])([H])C([H])([H])C([H])(n5nc(-c6c([H])c([H])c(Oc7c([H])c([H])c(F)c([H])c7F)c([H])c6[H])c(C(=O)N([H])[H])c5N([H])[H])C4([H])[H])c([H])c3Cl)c([H])c([H])c2C1([H])[H]

$$$$
90:0:0
     RDKit          3D

 96104  0  0  1  0  0  0  0  0999 V2000
  -29.1690  -24.4360   23.1860 C   0  0  0  0  0  3  0  0  0  0  0  0
  -30.0520  -23.8830   22.3040 C   0  0  0  0  0  0  0  0  0  0  0  0
  -30.5360  -24.9490   21.4790 C   0  0  0  0  0  0  0  0  0  0  0  0
  -29.8400  -26.0840   21.8220 C   0  0  0  0  0  0  0  0  0  0  0  0
  -31.5940  -24.8410   20.4060 C   0  0  0  0  0  1  0  0  0  0  0  0
  -28.1210  -26.6690   23.6040 C   0  0  0  0  0  1  0  0  0  0  0  0
  -29.0180  -25.7720   22.8950 N   0  0  0  0  0  0  0  0  0  0  0  0
  -30.3830  -22.4100   22.2330 C   0  0  0  0  0  2  0  0  0  0  0  0
  -29.4950  -21.7970   21.2300 N   0  0  0  0  0  4  0  0  0  0  0  0
  -29.8390  -21.9900   20.3040 H   0  0  0  0  0  0  0  0  0  0  0  0
  -28.6200  -22.2880   21.3190 H   0  0  0  0  0  0  0  0  0  0  0  0
  -29.1880  -20.3590   21.4030 C   0  0  0  0  0  2  0  0  0  0  0  0
  -30.2290  -19.4190   20.7680 C   0  0  0  0  0  2  0  0  0  0  0  0
  -29.8210  -17.9430   20.9610 C   0  0  0  0  0  2  0  0  0  0  0  0
  -30.7960  -16.9470   20.3190 C   0  0  0  0  0  2  0  0  0  0  0  0
  -30.9240  -14.5350   19.8040 C   0  0  0  0  0  0  0  0  0  0  0  0
  -30.5570  -12.3130   18.8100 C   0  0  0  0  0  2  0  0  0  0  0  0
  -29.5120  -12.4090   17.6830 C   0  0  0  0  0  2  0  0  0  0  0  0
  -28.0870  -12.2620   18.2500 C   0  0  0  0  0  2  0  0  0  0  0  0
  -27.8340  -13.1770   19.4810 C   0  0  0  0  0  3  0  0  0  0  0  0
  -28.9880  -13.0670   20.5030 C   0  0  0  0  0  2  0  0  0  0  0  0
  -30.2520  -13.3540   19.8040 N   0  0  0  0  0  0  0  0  0  0  0  0
  -31.9670  -14.7150   19.1710 O   0  0  0  0  0  0  0  0  0  0  0  0
  -30.3280  -15.5620   20.4330 N   0  0  0  0  0  0  0  0  0  0  0  0
  -29.4570  -15.3860   20.9130 H   0  0  0  0  0  0  0  0  0  0  0  0
  -25.5440  -13.7680   20.4950 C   0  0  0  0  0  0  0  0  0  0  0  0
  -24.5110  -12.9870   20.9440 C   0  0  0  0  0  0  0  0  0  0  0  0
  -24.9420  -11.6340   20.7890 C   0  0  0  0  0  0  0  0  0  0  0  0
  -26.5420  -12.8900   20.1000 N   0  0  0  0  0  0  0  0  0  0  0  0
  -26.1870  -11.5990   20.3310 N   0  0  0  0  0  0  0  0  0  0  0  0
  -24.2210  -10.3710   20.9900 C   0  0  0  0  0  0  0  0  0  0  0  0
  -24.6600   -9.4150   21.9310 C   0  0  0  0  0  3  0  0  0  0  0  0
  -23.9390   -8.2160   22.1210 C   0  0  0  0  0  3  0  0  0  0  0  0
  -22.7660   -7.9650   21.3730 C   0  0  0  0  0  0  0  0  0  0  0  0
  -22.3450   -8.9120   20.4220 C   0  0  0  0  0  3  0  0  0  0  0  0
  -23.0660  -10.1010   20.2290 C   0  0  0  0  0  3  0  0  0  0  0  0
  -22.0160   -6.8180   21.4740 O   0  0  0  0  0  0  0  0  0  0  0  0
  -21.8610   -6.1620   22.6680 C   0  0  0  0  0  0  0  0  0  0  0  0
  -21.2810   -6.7880   23.7940 C   0  0  0  0  0  3  0  0  0  0  0  0
  -21.0760   -6.0560   24.9790 C   0  0  0  0  0  3  0  0  0  0  0  0
  -21.4410   -4.6970   25.0390 C   0  0  0  0  0  0  0  0  0  0  0  0
  -22.0120   -4.0700   23.9180 C   0  0  0  0  0  3  0  0  0  0  0  0
  -22.2180   -4.8000   22.7350 C   0  0  0  0  0  0  0  0  0  0  0  0
  -22.7490   -4.1870   21.6510 F   0  0  0  0  0  0  0  0  0  0  0  0
  -21.2360   -3.9900   26.1750 F   0  0  0  0  0  0  0  0  0  0  0  0
  -23.1630  -13.4640   21.3980 C   0  0  0  0  0  0  0  0  0  0  0  0
  -22.5190  -12.7260   22.2970 N   0  0  0  0  0  0  0  0  0  0  0  0
  -22.6900  -14.5250   20.9890 O   0  0  0  0  0  0  0  0  0  0  0  0
  -22.9120  -11.8690   22.6570 H   0  0  0  0  0  0  0  0  0  0  0  0
  -21.6130  -13.0250   22.6290 H   0  0  0  0  0  0  0  0  0  0  0  0
  -25.7090  -15.1410   20.3730 N   0  0  0  0  0  0  0  0  0  0  0  0
  -24.9720  -15.7960   20.6130 H   0  0  0  0  0  0  0  0  0  0  0  0
  -26.5220  -15.5930   19.9690 H   0  0  0  0  0  0  0  0  0  0  0  0
  -29.8590  -27.4590   21.2090 C   0  0  0  0  0  2  0  0  0  0  0  0
  -29.3540  -27.4900   19.7480 C   0  0  0  0  0  2  0  0  0  0  0  0
  -28.0650  -26.8900   19.5570 O   0  0  0  0  0  0  0  0  0  0  0  0
  -24.5420  -31.8610   23.2750 C   0  0  0  0  0  0  0  0  0  0  0  0
  -26.9310  -27.6510   19.7480 C   0  0  0  0  0  0  0  0  0  0  0  0
  -23.1990  -30.5940   21.6200 C   0  0  0  0  0  3  0  0  0  0  0  0
  -24.5330  -29.1240   20.0200 C   0  0  0  0  0  0  0  0  0  0  0  0
  -25.7010  -30.9500   21.2710 C   0  0  0  0  0  2  0  0  0  0  0  0
  -25.7260  -29.6180   20.5550 C   0  0  0  0  0  0  0  0  0  0  0  0
  -26.9230  -28.8930   20.4200 C   0  0  0  0  0  3  0  0  0  0  0  0
  -25.7170  -27.1520   19.2250 C   0  0  0  0  0  3  0  0  0  0  0  0
  -24.5180  -27.8810   19.3570 C   0  0  0  0  0  3  0  0  0  0  0  0
  -23.3050  -29.9850   20.1940 C   0  0  0  0  0  2  0  0  0  0  0  0
  -24.5040  -31.1430   22.1180 N   0  0  0  0  0  0  0  0  0  0  0  0
  -23.5050  -32.1160   23.9030 O   0  0  0  0  0  0  0  0  0  0  0  0
  -22.5850  -29.5320   22.5570 C   0  0  0  0  0  0  0  0  0  0  0  0
  -21.2670  -29.3110   22.4200 N   0  0  0  0  0  0  0  0  0  0  0  0
  -23.2890  -28.9090   23.3540 O   0  0  0  0  0  0  0  0  0  0  0  0
  -20.7620  -29.8690   21.7460 H   0  0  0  0  0  0  0  0  0  0  0  0
  -17.9560  -27.9130   22.7800 C   0  0  0  0  0  0  0  0  0  0  0  0
  -20.4800  -28.3240   23.1580 C   0  0  0  0  0  3  0  0  0  0  0  0
  -20.6930  -26.9040   22.5870 C   0  0  0  0  0  2  0  0  0  0  0  0
  -19.6560  -26.5150   21.5290 C   0  0  0  0  0  2  0  0  0  0  0  0
  -18.2410  -26.5770   22.1150 C   0  0  0  0  0  2  0  0  0  0  0  0
  -19.0090  -28.7410   23.2550 C   0  0  0  0  0  0  0  0  0  0  0  0
  -18.6920  -29.9880   23.8340 C   0  0  0  0  0  3  0  0  0  0  0  0
  -17.3540  -30.4110   23.9440 C   0  0  0  0  0  3  0  0  0  0  0  0
  -16.3150  -29.5820   23.4870 C   0  0  0  0  0  3  0  0  0  0  0  0
  -16.6170  -28.3340   22.9140 C   0  0  0  0  0  3  0  0  0  0  0  0
  -25.8820  -32.4170   23.8560 C   0  0  0  0  0  3  0  0  0  0  0  0
  -25.6630  -33.8260   24.2100 N   0  0  0  0  0  0  0  0  0  0  0  0
  -26.0730  -34.8660   23.4710 C   0  0  0  0  0  0  0  0  0  0  0  0
  -26.7460  -34.7370   22.4450 O   0  0  0  0  0  0  0  0  0  0  0  0
  -25.0670  -34.0060   25.0050 H   0  0  0  0  0  0  0  0  0  0  0  0
  -24.4810  -36.7800   23.1160 C   0  0  0  0  0  1  0  0  0  0  0  0
  -25.6710  -36.2760   23.9460 C   0  0  0  0  0  3  0  0  0  0  0  0
  -27.8410  -36.9930   24.8440 C   0  0  0  0  0  1  0  0  0  0  0  0
  -26.7770  -37.2570   23.8800 N   0  0  0  0  0  0  0  0  0  0  0  0
  -26.4320  -38.2000   24.0370 H   0  0  0  0  0  0  0  0  0  0  0  0
  -26.4090  -31.6000   25.0980 C   0  0  1  0  0  0  0  0  0  0  0  0
  -25.3410  -31.3770   26.1940 C   0  0  0  0  0  1  0  0  0  0  0  0
  -26.9290  -30.2130   24.6530 C   0  0  0  0  0  1  0  0  0  0  0  0
  -27.6070  -32.3380   25.7430 C   0  0  0  0  0  1  0  0  0  0  0  0
  2  1  2  0
  3  4  2  0
  3  2  1  0
  4  7  1  0
  5  3  1  0
  7  1  1  0
  7  6  1  0
  8  2  1  0
  9 11  1  0
  9 12  1  0
  9  8  1  0
 10  9  1  0
 13 14  1  0
 13 12  1  0
 15 24  1  0
 15 14  1  0
 16 24  1  0
 17 22  1  0
 18 19  1  0
 18 17  1  0
 20 19  1  0
 20 29  1  0
 20 21  1  0
 22 16  1  0
 22 21  1  0
 23 16  2  0
 24 25  1  0
 26 27  2  0
 27 46  1  0
 28 27  1  0
 28 31  1  0
 29 30  1  0
 29 26  1  0
 30 28  2  0
 31 32  1  0
 32 33  2  0
 34 37  1  0
 34 33  1  0
 35 34  2  0
 36 35  1  0
 36 31  2  0
 37 38  1  0
 38 43  2  0
 38 39  1  0
 39 40  2  0
 40 41  1  0
 41 45  1  0
 42 41  2  0
 43 42  1  0
 44 43  1  0
 46 47  1  0
 47 50  1  0
 47 49  1  0
 48 46  2  0
 51 26  1  0
 51 52  1  0
 53 51  1  0
 54  4  1  0
 55 54  1  0
 56 55  1  0
 56 58  1  0
 57 68  2  0
 58 63  1  0
 59 67  1  0
 59 69  1  0
 60 66  1  0
 60 62  1  0
 61 67  1  0
 62 61  1  0
 63 62  2  0
 64 65  1  0
 64 58  2  0
 65 60  2  0
 66 59  1  0
 67 57  1  0
 69 71  2  0
 70 69  1  0
 72 70  1  0
 73 82  2  0
 73 78  1  0
 74 70  1  0
 74 78  1  0
 75 74  1  0
 76 77  1  0
 76 75  1  0
 77 73  1  0
 78 79  2  0
 79 80  1  0
 81 80  2  0
 82 81  1  0
 83 57  1  0
 83 84  1  0
 83 93  1  0
 84 87  1  0
 85 89  1  0
 85 84  1  0
 86 85  2  0
 89 88  1  0
 91 89  1  0
 91 92  1  0
 91 90  1  0
 93 96  1  1
 93 94  1  0
 95 93  1  0
M  ISO  4  16 100  24 100  55 101  56 101
M  END
>  <TORSDO>  (88) 
F 24

>  <SCORE>  (88) 
-11.791

>  <name>  (88) 
90

>  <ligand_id>  (88) 
90

>  <original_smiles>  (88) 
[H]c1c([H])c([H])c2c(c1[H])C([H])([H])C([H])([H])C([H])([H])C2([H])N([H])C(=O)C1([H])N(C(=O)C([H])(N([H])C(=O)C([H])(N([H])C([H])([H])[H])C([H])([H])[H])C(C([H])([H])[H])(C([H])([H])[H])C([H])([H])[H])C([H])([H])c2c([H])c(OC([H])([H])C([H])([H])c3c(C([H])([H])[H])c(C([H])([H])[N+]([H])([H])C([H])([H])C([H])([H])C([H])([H])C([H])([H])N([H])C(=O)N4C([H])([H])C([H])([H])C([H])([H])C([H])(n5nc(-c6c([H])c([H])c(Oc7c([H])c([H])c(F)c([H])c7F)c([H])c6[H])c(C(=O)N([H])[H])c5N([H])[H])C4([H])[H])c([H])n3C([H])([H])[H])c([H])c([H])c2C1([H])[H]

>  <smiles>  (88) 
[H]c1c([H])c([H])c2c(c1[H])C([H])([H])C([H])([H])C([H])([H])C2([H])N([H])C(=O)C1([H])N(C(=O)C([H])(N([H])C(=O)C([H])(N([H])C([H])([H])[H])C([H])([H])[H])C(C([H])([H])[H])(C([H])([H])[H])C([H])([H])[H])C([H])([H])c2c([H])c(OC([H])([H])C([H])([H])c3c(C([H])([H])[H])c(C([H])([H])[N+]([H])([H])C([H])([H])C([H])([H])C([H])([H])C([H])([H])N([H])C(=O)N4C([H])([H])C([H])([H])C([H])([H])C([H])(n5nc(-c6c([H])c([H])c(Oc7c([H])c([H])c(F)c([H])c7F)c([H])c6[H])c(C(=O)N([H])[H])c5N([H])[H])C4([H])[H])c([H])n3C([H])([H])[H])c([H])c([H])c2C1([H])[H]

$$$$
91:0:0
     RDKit          3D

 91 99  0  0  1  0  0  0  0  0999 V2000
  -29.9290  -21.2010   21.4690 C   0  0  0  0  0  0  0  0  0  0  0  0
  -30.1080  -19.7580   21.3710 C   0  0  0  0  0  0  0  0  0  0  0  0
  -29.1520  -21.9670   20.5170 C   0  0  0  0  0  0  0  0  0  0  0  0
  -29.5850  -19.0040   20.2810 C   0  0  0  0  0  0  0  0  0  0  0  0
  -28.5880  -21.1010   19.5190 C   0  0  0  0  0  0  0  0  0  0  0  0
  -30.6450  -21.9490   22.5930 C   0  0  0  0  0  1  0  0  0  0  0  0
  -30.9360  -19.0060   22.4070 C   0  0  0  0  0  1  0  0  0  0  0  0
  -27.6880  -21.6640   18.4390 C   0  0  0  0  0  1  0  0  0  0  0  0
  -28.8150  -19.7320   19.4070 N   0  0  0  0  0  0  0  0  0  0  0  0
  -29.1360  -23.6260   20.5550 C   0  0  0  0  0  3  0  0  0  0  0  0
  -28.0040  -24.7500   20.1090 C   0  0  0  0  0  3  0  0  0  0  0  0
  -28.2380  -26.2670   20.2890 O   0  0  0  0  0  0  0  0  0  0  0  0
  -24.6130  -31.9210   23.2340 C   0  0  0  0  0  0  0  0  0  0  0  0
  -27.1700  -27.2180   20.2190 C   0  0  0  0  0  0  0  0  0  0  0  0
  -23.4030  -30.5190   21.6060 C   0  0  0  0  0  3  0  0  0  0  0  0
  -24.8420  -28.9390   20.1850 C   0  0  0  0  0  0  0  0  0  0  0  0
  -25.9540  -30.7900   21.4290 C   0  0  0  0  0  2  0  0  0  0  0  0
  -26.0220  -29.3960   20.7860 C   0  0  0  0  0  0  0  0  0  0  0  0
  -27.1880  -28.5500   20.7870 C   0  0  0  0  0  3  0  0  0  0  0  0
  -25.9660  -26.8510   19.5800 C   0  0  0  0  0  3  0  0  0  0  0  0
  -24.8250  -27.6790   19.5670 C   0  0  0  0  0  3  0  0  0  0  0  0
  -23.6170  -29.8350   20.2310 C   0  0  0  0  0  2  0  0  0  0  0  0
  -24.6760  -31.0980   22.1450 N   0  0  0  0  0  0  0  0  0  0  0  0
  -23.5300  -32.2100   23.7650 O   0  0  0  0  0  0  0  0  0  0  0  0
  -22.7280  -29.5160   22.5750 C   0  0  0  0  0  0  0  0  0  0  0  0
  -21.4000  -29.3480   22.4520 N   0  0  0  0  0  0  0  0  0  0  0  0
  -23.4010  -28.8940   23.4010 O   0  0  0  0  0  0  0  0  0  0  0  0
  -20.9140  -29.9010   21.7600 H   0  0  0  0  0  0  0  0  0  0  0  0
  -18.0150  -28.1680   22.9730 C   0  0  0  0  0  0  0  0  0  0  0  0
  -20.5760  -28.4210   23.2330 C   0  0  0  0  0  3  0  0  0  0  0  0
  -20.6720  -26.9860   22.6670 C   0  0  0  0  0  2  0  0  0  0  0  0
  -19.5650  -26.6590   21.6580 C   0  0  0  0  0  2  0  0  0  0  0  0
  -18.1850  -26.8140   22.3030 C   0  0  0  0  0  2  0  0  0  0  0  0
  -19.1380  -28.9280   23.3950 C   0  0  0  0  0  0  0  0  0  0  0  0
  -18.9250  -30.1950   23.9820 C   0  0  0  0  0  3  0  0  0  0  0  0
  -17.6240  -30.7030   24.1490 C   0  0  0  0  0  3  0  0  0  0  0  0
  -16.5140  -29.9400   23.7430 C   0  0  0  0  0  3  0  0  0  0  0  0
  -16.7110  -28.6750   23.1610 C   0  0  0  0  0  3  0  0  0  0  0  0
  -25.8960  -32.5560   23.8530 C   0  0  0  0  0  3  0  0  0  0  0  0
  -26.4120  -31.7880   25.1310 C   0  0  1  0  0  0  0  0  0  0  0  0
  -25.3170  -31.5580   26.2010 C   0  0  0  0  0  1  0  0  0  0  0  0
  -26.9930  -30.4080   24.7490 C   0  0  0  0  0  1  0  0  0  0  0  0
  -27.5630  -32.5850   25.7910 C   0  0  0  0  0  1  0  0  0  0  0  0
  -25.5850  -33.9550   24.1840 N   0  0  0  0  0  0  0  0  0  0  0  0
  -25.9130  -35.0110   23.4280 C   0  0  0  0  0  0  0  0  0  0  0  0
  -26.5750  -34.9100   22.3910 O   0  0  0  0  0  0  0  0  0  0  0  0
  -24.9960  -34.1060   24.9900 H   0  0  0  0  0  0  0  0  0  0  0  0
  -24.1840  -36.8080   23.0980 C   0  0  0  0  0  1  0  0  0  0  0  0
  -25.4330  -36.3990   23.8940 C   0  0  0  0  0  3  0  0  0  0  0  0
  -27.5750  -37.2830   24.7060 C   0  0  0  0  0  1  0  0  0  0  0  0
  -26.4660  -37.4520   23.7730 N   0  0  0  0  0  0  0  0  0  0  0  0
  -26.0620  -38.3720   23.9220 H   0  0  0  0  0  0  0  0  0  0  0  0
  -30.1280  -17.5230   19.8320 C   0  0  0  0  0  2  0  0  0  0  0  0
  -30.5640  -14.9270   20.2280 C   0  0  0  0  0  0  0  0  0  0  0  0
  -30.3920  -12.6190   19.2490 C   0  0  0  0  0  2  0  0  0  0  0  0
  -29.4430  -12.6430   18.0300 C   0  0  0  0  0  2  0  0  0  0  0  0
  -27.9810  -12.4510   18.4720 C   0  0  0  0  0  2  0  0  0  0  0  0
  -27.6050  -13.3390   19.6890 C   0  0  0  0  0  3  0  0  0  0  0  0
  -28.6760  -13.2960   20.8000 C   0  0  0  0  0  2  0  0  0  0  0  0
  -29.9500  -13.6850   20.1890 N   0  0  0  0  0  0  0  0  0  0  0  0
  -31.7510  -14.9940   19.8950 O   0  0  0  0  0  0  0  0  0  0  0  0
  -29.8080  -16.1050   20.3920 N   0  0  0  0  0  0  0  0  0  0  0  0
  -28.8510  -15.9710   20.6790 H   0  0  0  0  0  0  0  0  0  0  0  0
  -25.2270  -13.9080   20.4440 C   0  0  0  0  0  0  0  0  0  0  0  0
  -24.1710  -13.1280   20.8240 C   0  0  0  0  0  0  0  0  0  0  0  0
  -24.6420  -11.7790   20.7900 C   0  0  0  0  0  0  0  0  0  0  0  0
  -26.2720  -13.0350   20.1960 N   0  0  0  0  0  0  0  0  0  0  0  0
  -25.9310  -11.7510   20.4720 N   0  0  0  0  0  0  0  0  0  0  0  0
  -23.9240  -10.5120   20.9860 C   0  0  0  0  0  0  0  0  0  0  0  0
  -24.3580   -9.5540   21.9290 C   0  0  0  0  0  3  0  0  0  0  0  0
  -23.6380   -8.3530   22.1130 C   0  0  0  0  0  3  0  0  0  0  0  0
  -22.4690   -8.1020   21.3550 C   0  0  0  0  0  0  0  0  0  0  0  0
  -22.0550   -9.0500   20.4010 C   0  0  0  0  0  3  0  0  0  0  0  0
  -22.7760  -10.2410   20.2150 C   0  0  0  0  0  3  0  0  0  0  0  0
  -21.7200   -6.9540   21.4480 O   0  0  0  0  0  0  0  0  0  0  0  0
  -21.6610   -6.2270   22.6090 C   0  0  0  0  0  0  0  0  0  0  0  0
  -21.2060   -6.7930   23.8210 C   0  0  0  0  0  3  0  0  0  0  0  0
  -21.0940   -5.9920   24.9740 C   0  0  0  0  0  3  0  0  0  0  0  0
  -21.4250   -4.6250   24.9190 C   0  0  0  0  0  0  0  0  0  0  0  0
  -21.8730   -4.0580   23.7120 C   0  0  0  0  0  3  0  0  0  0  0  0
  -21.9870   -4.8570   22.5600 C   0  0  0  0  0  0  0  0  0  0  0  0
  -22.3980   -4.3000   21.3960 F   0  0  0  0  0  0  0  0  0  0  0  0
  -21.3110   -3.8520   26.0240 F   0  0  0  0  0  0  0  0  0  0  0  0
  -22.7730  -13.5960   21.1040 C   0  0  0  0  0  0  0  0  0  0  0  0
  -22.0540  -12.8970   21.9750 N   0  0  0  0  0  0  0  0  0  0  0  0
  -22.3250  -14.6190   20.5850 O   0  0  0  0  0  0  0  0  0  0  0  0
  -22.4290  -12.0690   22.4140 H   0  0  0  0  0  0  0  0  0  0  0  0
  -21.1160  -13.1930   22.2070 H   0  0  0  0  0  0  0  0  0  0  0  0
  -25.3810  -15.2800   20.2610 N   0  0  0  0  0  0  0  0  0  0  0  0
  -24.6090  -15.9300   20.3730 H   0  0  0  0  0  0  0  0  0  0  0  0
  -26.2110  -15.7180   19.8850 H   0  0  0  0  0  0  0  0  0  0  0  0
  1  6  1  0
  2  1  1  0
  2  7  1  0
  3 10  1  0
  3  1  2  0
  4  2  2  0
  5  3  1  0
  8  5  1  0
  9  5  2  0
  9  4  1  0
 11 12  1  0
 11 10  2  0
 13 24  2  0
 14 12  1  0
 14 19  1  0
 15 23  1  0
 15 25  1  0
 16 22  1  0
 16 18  1  0
 17 23  1  0
 18 19  2  0
 18 17  1  0
 20 14  2  0
 21 20  1  0
 21 16  2  0
 22 15  1  0
 23 13  1  0
 25 27  2  0
 26 25  1  0
 28 26  1  0
 29 38  2  0
 29 34  1  0
 30 26  1  0
 30 34  1  0
 31 30  1  0
 32 33  1  0
 32 31  1  0
 33 29  1  0
 34 35  2  0
 35 36  1  0
 37 36  2  0
 38 37  1  0
 39 13  1  0
 39 44  1  0
 39 40  1  0
 40 43  1  1
 40 41  1  0
 42 40  1  0
 44 47  1  0
 45 49  1  0
 45 44  1  0
 46 45  2  0
 49 48  1  0
 51 49  1  0
 51 52  1  0
 51 50  1  0
 53  4  1  0
 53 62  1  0
 54 62  1  0
 55 60  1  0
 56 57  1  0
 56 55  1  0
 58 57  1  0
 58 67  1  0
 58 59  1  0
 60 54  1  0
 60 59  1  0
 61 54  2  0
 62 63  1  0
 64 65  2  0
 65 84  1  0
 66 65  1  0
 66 69  1  0
 67 64  1  0
 67 68  1  0
 68 66  2  0
 69 70  1  0
 70 71  2  0
 72 75  1  0
 72 71  1  0
 73 72  2  0
 74 73  1  0
 74 69  2  0
 75 76  1  0
 76 77  1  0
 77 78  2  0
 79 78  1  0
 79 83  1  0
 80 79  2  0
 81 76  2  0
 81 80  1  0
 82 81  1  0
 84 85  1  0
 85 88  1  0
 85 87  1  0
 86 84  2  0
 89 90  1  0
 89 64  1  0
 91 89  1  0
M  ISO  4  11 101  12 101  54 100  62 100
M  END
>  <TORSDO>  (89) 
F 19

>  <SCORE>  (89) 
-14.343

>  <name>  (89) 
91

>  <ligand_id>  (89) 
91

>  <original_smiles>  (89) 
[H]c1c([H])c([H])c2c(c1[H])C([H])([H])C([H])([H])C([H])([H])C2([H])N([H])C(=O)C1([H])N(C(=O)C([H])(N([H])C(=O)C([H])(N([H])C([H])([H])[H])C([H])([H])[H])C(C([H])([H])[H])(C([H])([H])[H])C([H])([H])[H])C([H])([H])c2c([H])c(OC([H])([H])C([H])([H])c3c(C([H])([H])[H])nc(C([H])([H])N([H])C(=O)N4C([H])([H])C([H])([H])C([H])([H])C([H])(n5nc(-c6c([H])c([H])c(Oc7c([H])c([H])c(F)c([H])c7F)c([H])c6[H])c(C(=O)N([H])[H])c5N([H])[H])C4([H])[H])c(C([H])([H])[H])c3C([H])([H])[H])c([H])c([H])c2C1([H])[H]

>  <smiles>  (89) 
[H]c1c([H])c([H])c2c(c1[H])C([H])([H])C([H])([H])C([H])([H])C2([H])N([H])C(=O)C1([H])N(C(=O)C([H])(N([H])C(=O)C([H])(N([H])C([H])([H])[H])C([H])([H])[H])C(C([H])([H])[H])(C([H])([H])[H])C([H])([H])[H])C([H])([H])c2c([H])c(OC([H])([H])C([H])([H])c3c(C([H])([H])[H])nc(C([H])([H])N([H])C(=O)N4C([H])([H])C([H])([H])C([H])([H])C([H])(n5nc(-c6c([H])c([H])c(Oc7c([H])c([H])c(F)c([H])c7F)c([H])c6[H])c(C(=O)N([H])[H])c5N([H])[H])C4([H])[H])c(C([H])([H])[H])c3C([H])([H])[H])c([H])c([H])c2C1([H])[H]

$$$$
92:0:0
     RDKit          3D

 89 97  0  0  1  0  0  0  0  0999 V2000
  -28.8320  -20.4240   20.0810 C   0  0  0  0  0  3  0  0  0  0  0  0
  -30.8540  -20.8830   21.7880 C   0  0  0  0  0  3  0  0  0  0  0  0
  -29.6510  -19.2200   20.4420 C   0  0  0  0  0  0  0  0  0  0  0  0
  -30.6800  -19.5470   21.3520 C   0  0  0  0  0  0  0  0  0  0  0  0
  -29.0630  -21.8170   20.5770 C   0  0  0  0  0  0  0  0  0  0  0  0
  -30.1020  -21.9580   21.4270 N   0  0  0  0  0  0  0  0  0  0  0  0
  -31.7880  -18.3440   21.9130 Cl  0  0  0  0  0  0  0  0  0  0  0  0
  -29.6250  -17.6860   19.7830 C   0  0  0  0  0  2  0  0  0  0  0  0
  -30.4810  -15.0560   20.1680 C   0  0  0  0  0  0  0  0  0  0  0  0
  -30.3740  -12.6940   19.2350 C   0  0  0  0  0  2  0  0  0  0  0  0
  -29.4170  -12.6590   18.0190 C   0  0  0  0  0  2  0  0  0  0  0  0
  -27.9660  -12.4310   18.4770 C   0  0  0  0  0  2  0  0  0  0  0  0
  -27.5810  -13.3340   19.6790 C   0  0  0  0  0  3  0  0  0  0  0  0
  -28.6590  -13.3390   20.7850 C   0  0  0  0  0  2  0  0  0  0  0  0
  -29.9150  -13.7750   20.1620 N   0  0  0  0  0  0  0  0  0  0  0  0
  -31.6450  -15.1420   19.7650 O   0  0  0  0  0  0  0  0  0  0  0  0
  -29.6940  -16.2240   20.4230 N   0  0  0  0  0  0  0  0  0  0  0  0
  -28.8290  -15.9890   20.8850 H   0  0  0  0  0  0  0  0  0  0  0  0
  -25.2100  -13.8830   20.4670 C   0  0  0  0  0  0  0  0  0  0  0  0
  -24.1610  -13.0960   20.8560 C   0  0  0  0  0  0  0  0  0  0  0  0
  -24.6390  -11.7500   20.8100 C   0  0  0  0  0  0  0  0  0  0  0  0
  -26.2570  -13.0170   20.2000 N   0  0  0  0  0  0  0  0  0  0  0  0
  -25.9230  -11.7280   20.4730 N   0  0  0  0  0  0  0  0  0  0  0  0
  -23.9270  -10.4800   21.0100 C   0  0  0  0  0  0  0  0  0  0  0  0
  -24.3810   -9.5170   21.9360 C   0  0  0  0  0  3  0  0  0  0  0  0
  -23.6670   -8.3140   22.1250 C   0  0  0  0  0  3  0  0  0  0  0  0
  -22.4860   -8.0650   21.3860 C   0  0  0  0  0  0  0  0  0  0  0  0
  -22.0510   -9.0180   20.4490 C   0  0  0  0  0  3  0  0  0  0  0  0
  -22.7660  -10.2120   20.2570 C   0  0  0  0  0  3  0  0  0  0  0  0
  -21.7420   -6.9140   21.4850 O   0  0  0  0  0  0  0  0  0  0  0  0
  -21.7130   -6.1730   22.6400 C   0  0  0  0  0  0  0  0  0  0  0  0
  -21.2830   -6.7220   23.8670 C   0  0  0  0  0  3  0  0  0  0  0  0
  -21.2010   -5.9070   25.0130 C   0  0  0  0  0  3  0  0  0  0  0  0
  -21.5380   -4.5430   24.9340 C   0  0  0  0  0  0  0  0  0  0  0  0
  -21.9620   -3.9930   23.7110 C   0  0  0  0  0  3  0  0  0  0  0  0
  -22.0450   -4.8040   22.5660 C   0  0  0  0  0  0  0  0  0  0  0  0
  -22.4320   -4.2650   21.3860 F   0  0  0  0  0  0  0  0  0  0  0  0
  -21.4540   -3.7570   26.0330 F   0  0  0  0  0  0  0  0  0  0  0  0
  -22.7660  -13.5600   21.1560 C   0  0  0  0  0  0  0  0  0  0  0  0
  -22.0610  -12.8520   22.0320 N   0  0  0  0  0  0  0  0  0  0  0  0
  -22.3110  -14.5850   20.6500 O   0  0  0  0  0  0  0  0  0  0  0  0
  -22.4420  -12.0240   22.4630 H   0  0  0  0  0  0  0  0  0  0  0  0
  -21.1250  -13.1450   22.2750 H   0  0  0  0  0  0  0  0  0  0  0  0
  -25.3560  -15.2560   20.2900 N   0  0  0  0  0  0  0  0  0  0  0  0
  -24.5800  -15.8980   20.4140 H   0  0  0  0  0  0  0  0  0  0  0  0
  -26.1800  -15.7030   19.9110 H   0  0  0  0  0  0  0  0  0  0  0  0
  -28.1180  -23.1980   20.5230 C   0  0  0  0  0  2  0  0  0  0  0  0
  -28.4270  -24.7380   19.8570 C   0  0  0  0  0  2  0  0  0  0  0  0
  -28.2590  -26.2100   20.3950 O   0  0  0  0  0  0  0  0  0  0  0  0
  -24.6080  -31.9190   23.2540 C   0  0  0  0  0  0  0  0  0  0  0  0
  -27.1830  -27.1670   20.2530 C   0  0  0  0  0  0  0  0  0  0  0  0
  -23.4090  -30.5190   21.6140 C   0  0  0  0  0  3  0  0  0  0  0  0
  -24.8560  -28.9240   20.1960 C   0  0  0  0  0  0  0  0  0  0  0  0
  -25.9610  -30.7700   21.4580 C   0  0  0  0  0  2  0  0  0  0  0  0
  -26.0310  -29.3730   20.8110 C   0  0  0  0  0  0  0  0  0  0  0  0
  -27.1880  -28.5060   20.8240 C   0  0  0  0  0  3  0  0  0  0  0  0
  -25.9870  -26.8200   19.5930 C   0  0  0  0  0  3  0  0  0  0  0  0
  -24.8500  -27.6640   19.5710 C   0  0  0  0  0  3  0  0  0  0  0  0
  -23.6310  -29.8290   20.2390 C   0  0  0  0  0  2  0  0  0  0  0  0
  -24.6790  -31.0930   22.1630 N   0  0  0  0  0  0  0  0  0  0  0  0
  -23.5210  -32.2100   23.7770 O   0  0  0  0  0  0  0  0  0  0  0  0
  -22.7200  -29.5230   22.5810 C   0  0  0  0  0  0  0  0  0  0  0  0
  -21.3920  -29.3590   22.4520 N   0  0  0  0  0  0  0  0  0  0  0  0
  -23.3860  -28.8990   23.4120 O   0  0  0  0  0  0  0  0  0  0  0  0
  -20.9110  -29.9130   21.7570 H   0  0  0  0  0  0  0  0  0  0  0  0
  -18.0040  -28.1770   22.9510 C   0  0  0  0  0  0  0  0  0  0  0  0
  -20.5640  -28.4290   23.2240 C   0  0  0  0  0  3  0  0  0  0  0  0
  -20.6600  -26.9940   22.6550 C   0  0  0  0  0  2  0  0  0  0  0  0
  -19.5600  -26.6730   21.6380 C   0  0  0  0  0  2  0  0  0  0  0  0
  -18.1770  -26.8260   22.2770 C   0  0  0  0  0  2  0  0  0  0  0  0
  -19.1250  -28.9370   23.3810 C   0  0  0  0  0  0  0  0  0  0  0  0
  -18.9080  -30.2000   23.9710 C   0  0  0  0  0  3  0  0  0  0  0  0
  -17.6050  -30.7040   24.1350 C   0  0  0  0  0  3  0  0  0  0  0  0
  -16.4990  -29.9430   23.7200 C   0  0  0  0  0  3  0  0  0  0  0  0
  -16.6990  -28.6800   23.1340 C   0  0  0  0  0  3  0  0  0  0  0  0
  -25.8860  -32.5520   23.8840 C   0  0  0  0  0  3  0  0  0  0  0  0
  -26.3780  -31.7980   25.1810 C   0  0  1  0  0  0  0  0  0  0  0  0
  -25.2690  -31.5890   26.2390 C   0  0  0  0  0  1  0  0  0  0  0  0
  -26.9520  -30.4080   24.8230 C   0  0  0  0  0  1  0  0  0  0  0  0
  -27.5280  -32.5920   25.8440 C   0  0  0  0  0  1  0  0  0  0  0  0
  -25.5820  -33.9590   24.1970 N   0  0  0  0  0  0  0  0  0  0  0  0
  -25.9330  -35.0050   23.4380 C   0  0  0  0  0  0  0  0  0  0  0  0
  -26.6110  -34.8880   22.4130 O   0  0  0  0  0  0  0  0  0  0  0  0
  -24.9810  -34.1240   24.9910 H   0  0  0  0  0  0  0  0  0  0  0  0
  -24.2300  -36.8200   23.0570 C   0  0  0  0  0  1  0  0  0  0  0  0
  -25.4580  -36.4030   23.8820 C   0  0  0  0  0  3  0  0  0  0  0  0
  -27.5920  -37.2730   24.7330 C   0  0  0  0  0  1  0  0  0  0  0  0
  -26.5030  -37.4440   23.7740 N   0  0  0  0  0  0  0  0  0  0  0  0
  -26.1070  -38.3700   23.9070 H   0  0  0  0  0  0  0  0  0  0  0  0
  1  3  2  0
  1  5  1  0
  3  4  1  0
  4  2  2  0
  4  7  1  0
  5  6  2  0
  6  2  1  0
  8 17  1  0
  8  3  1  0
  9 17  1  0
 10 15  1  0
 11 12  1  0
 11 10  1  0
 13 12  1  0
 13 22  1  0
 13 14  1  0
 15  9  1  0
 15 14  1  0
 16  9  2  0
 17 18  1  0
 19 20  2  0
 20 39  1  0
 21 20  1  0
 21 24  1  0
 22 19  1  0
 22 23  1  0
 23 21  2  0
 24 25  1  0
 25 26  2  0
 27 30  1  0
 27 26  1  0
 28 27  2  0
 29 28  1  0
 29 24  2  0
 30 31  1  0
 31 32  1  0
 32 33  2  0
 34 33  1  0
 34 38  1  0
 35 34  2  0
 36 31  2  0
 36 35  1  0
 37 36  1  0
 39 40  1  0
 40 43  1  0
 40 42  1  0
 41 39  2  0
 44 45  1  0
 44 19  1  0
 46 44  1  0
 47  5  1  0
 48 49  1  0
 48 47  1  0
 50 61  2  0
 51 49  1  0
 51 56  1  0
 52 60  1  0
 52 62  1  0
 53 59  1  0
 53 55  1  0
 54 60  1  0
 55 56  2  0
 55 54  1  0
 57 51  2  0
 58 57  1  0
 58 53  2  0
 59 52  1  0
 60 50  1  0
 62 64  2  0
 63 62  1  0
 65 63  1  0
 66 75  2  0
 66 71  1  0
 67 63  1  0
 67 71  1  0
 68 67  1  0
 69 70  1  0
 69 68  1  0
 70 66  1  0
 71 72  2  0
 72 73  1  0
 74 73  2  0
 75 74  1  0
 76 50  1  0
 76 81  1  0
 76 77  1  0
 77 80  1  1
 77 78  1  0
 79 77  1  0
 81 84  1  0
 82 86  1  0
 82 81  1  0
 83 82  2  0
 86 85  1  0
 88 86  1  0
 88 89  1  0
 88 87  1  0
M  ISO  4   9 100  17 100  48 101  49 101
M  END
>  <TORSDO>  (90) 
F 19

>  <SCORE>  (90) 
-15.067

>  <name>  (90) 
92

>  <ligand_id>  (90) 
92

>  <original_smiles>  (90) 
[H]c1nc(C([H])([H])C([H])([H])Oc2c([H])c([H])c3c(c2[H])C([H])([H])N(C(=O)C([H])(N([H])C(=O)C([H])(N([H])C([H])([H])[H])C([H])([H])[H])C(C([H])([H])[H])(C([H])([H])[H])C([H])([H])[H])C([H])(C(=O)N([H])C2([H])c4c([H])c([H])c([H])c([H])c4C([H])([H])C([H])([H])C2([H])[H])C3([H])[H])c([H])c(C([H])([H])N([H])C(=O)N2C([H])([H])C([H])([H])C([H])([H])C([H])(n3nc(-c4c([H])c([H])c(Oc5c([H])c([H])c(F)c([H])c5F)c([H])c4[H])c(C(=O)N([H])[H])c3N([H])[H])C2([H])[H])c1Cl

>  <smiles>  (90) 
[H]c1nc(C([H])([H])C([H])([H])Oc2c([H])c([H])c3c(c2[H])C([H])([H])N(C(=O)C([H])(N([H])C(=O)C([H])(N([H])C([H])([H])[H])C([H])([H])[H])C(C([H])([H])[H])(C([H])([H])[H])C([H])([H])[H])C([H])(C(=O)N([H])C2([H])c4c([H])c([H])c([H])c([H])c4C([H])([H])C([H])([H])C2([H])[H])C3([H])[H])c([H])c(C([H])([H])N([H])C(=O)N2C([H])([H])C([H])([H])C([H])([H])C([H])(n3nc(-c4c([H])c([H])c(Oc5c([H])c([H])c(F)c([H])c5F)c([H])c4[H])c(C(=O)N([H])[H])c3N([H])[H])C2([H])[H])c1Cl

$$$$
93:0:0
     RDKit          3D

 91 99  0  0  1  0  0  0  0  0999 V2000
  -30.5210  -20.9210   20.3950 C   0  0  0  0  0  3  0  0  0  0  0  0
  -31.0510  -19.6150   20.5720 C   0  0  0  0  0  0  0  0  0  0  0  0
  -30.1990  -18.4660   20.5220 C   0  0  0  0  0  0  0  0  0  0  0  0
  -29.1420  -21.1010   20.1910 C   0  0  0  0  0  0  0  0  0  0  0  0
  -28.8190  -18.7590   20.3490 C   0  0  0  0  0  0  0  0  0  0  0  0
  -32.5500  -19.4910   20.8100 C   0  0  0  0  0  1  0  0  0  0  0  0
  -28.3240  -20.0190   20.1830 N   0  0  0  0  0  0  0  0  0  0  0  0
  -27.6520  -17.4890   20.3630 Cl  0  0  0  0  0  0  0  0  0  0  0  0
  -30.8090  -17.0250   20.7530 C   0  0  0  0  0  2  0  0  0  0  0  0
  -30.6860  -14.5810   20.0740 C   0  0  0  0  0  0  0  0  0  0  0  0
  -30.2850  -12.3810   19.0000 C   0  0  0  0  0  2  0  0  0  0  0  0
  -29.2910  -12.5340   17.8320 C   0  0  0  0  0  2  0  0  0  0  0  0
  -27.8460  -12.3880   18.3410 C   0  0  0  0  0  2  0  0  0  0  0  0
  -27.5600  -13.2610   19.5930 C   0  0  0  0  0  3  0  0  0  0  0  0
  -28.6780  -13.1320   20.6540 C   0  0  0  0  0  2  0  0  0  0  0  0
  -29.9590  -13.4240   19.9950 N   0  0  0  0  0  0  0  0  0  0  0  0
  -31.8260  -14.6370   19.6080 O   0  0  0  0  0  0  0  0  0  0  0  0
  -30.0870  -15.7220   20.5340 N   0  0  0  0  0  0  0  0  0  0  0  0
  -29.1310  -15.6510   20.8490 H   0  0  0  0  0  0  0  0  0  0  0  0
  -25.2170  -13.8660   20.4490 C   0  0  0  0  0  0  0  0  0  0  0  0
  -24.1620  -13.0980   20.8600 C   0  0  0  0  0  0  0  0  0  0  0  0
  -24.6080  -11.7420   20.7840 C   0  0  0  0  0  0  0  0  0  0  0  0
  -26.2400  -12.9820   20.1500 N   0  0  0  0  0  0  0  0  0  0  0  0
  -25.8820  -11.6980   20.4120 N   0  0  0  0  0  0  0  0  0  0  0  0
  -23.8770  -10.4850   20.9900 C   0  0  0  0  0  0  0  0  0  0  0  0
  -24.3370   -9.5030   21.8960 C   0  0  0  0  0  3  0  0  0  0  0  0
  -23.6060   -8.3120   22.0910 C   0  0  0  0  0  3  0  0  0  0  0  0
  -22.4010   -8.0950   21.3820 C   0  0  0  0  0  0  0  0  0  0  0  0
  -21.9590   -9.0650   20.4650 C   0  0  0  0  0  3  0  0  0  0  0  0
  -22.6890  -10.2480   20.2690 C   0  0  0  0  0  3  0  0  0  0  0  0
  -21.6390   -6.9560   21.4870 O   0  0  0  0  0  0  0  0  0  0  0  0
  -21.6170   -6.2080   22.6370 C   0  0  0  0  0  0  0  0  0  0  0  0
  -21.2300   -6.7600   23.8780 C   0  0  0  0  0  3  0  0  0  0  0  0
  -21.1570   -5.9390   25.0210 C   0  0  0  0  0  3  0  0  0  0  0  0
  -21.4570   -4.5680   24.9250 C   0  0  0  0  0  0  0  0  0  0  0  0
  -21.8360   -4.0150   23.6890 C   0  0  0  0  0  3  0  0  0  0  0  0
  -21.9130   -4.8330   22.5480 C   0  0  0  0  0  0  0  0  0  0  0  0
  -22.2570   -4.2900   21.3550 F   0  0  0  0  0  0  0  0  0  0  0  0
  -21.3790   -3.7780   26.0220 F   0  0  0  0  0  0  0  0  0  0  0  0
  -22.7870  -13.5860   21.2150 C   0  0  0  0  0  0  0  0  0  0  0  0
  -22.1020  -12.8890   22.1140 N   0  0  0  0  0  0  0  0  0  0  0  0
  -22.3310  -14.6200   20.7290 O   0  0  0  0  0  0  0  0  0  0  0  0
  -22.4860  -12.0520   22.5290 H   0  0  0  0  0  0  0  0  0  0  0  0
  -21.1820  -13.1990   22.3930 H   0  0  0  0  0  0  0  0  0  0  0  0
  -25.3810  -15.2370   20.2830 N   0  0  0  0  0  0  0  0  0  0  0  0
  -24.6340  -15.8970   20.4710 H   0  0  0  0  0  0  0  0  0  0  0  0
  -26.2350  -15.6910   19.9860 H   0  0  0  0  0  0  0  0  0  0  0  0
  -28.4780  -22.4650   19.8240 C   0  0  0  0  0  2  0  0  0  0  0  0
  -29.0080  -23.8630   20.3450 C   0  0  0  0  0  2  0  0  0  0  0  0
  -28.0800  -25.0490   19.8570 C   0  0  0  0  0  2  0  0  0  0  0  0
  -28.3420  -26.4730   20.1430 O   0  0  0  0  0  0  0  0  0  0  0  0
  -24.5660  -31.7850   23.1890 C   0  0  0  0  0  0  0  0  0  0  0  0
  -27.2320  -27.3290   20.0620 C   0  0  0  0  0  0  0  0  0  0  0  0
  -23.3860  -30.4200   21.5050 C   0  0  0  0  0  3  0  0  0  0  0  0
  -24.8590  -28.9230   20.0550 C   0  0  0  0  0  0  0  0  0  0  0  0
  -25.9250  -30.7630   21.3550 C   0  0  0  0  0  2  0  0  0  0  0  0
  -26.0200  -29.4040   20.6760 C   0  0  0  0  0  0  0  0  0  0  0  0
  -27.2100  -28.6190   20.6720 C   0  0  0  0  0  3  0  0  0  0  0  0
  -26.0500  -26.9130   19.3990 C   0  0  0  0  0  3  0  0  0  0  0  0
  -24.8770  -27.6830   19.4070 C   0  0  0  0  0  3  0  0  0  0  0  0
  -23.6170  -29.7870   20.1100 C   0  0  0  0  0  2  0  0  0  0  0  0
  -24.6440  -31.0040   22.0730 N   0  0  0  0  0  0  0  0  0  0  0  0
  -23.4760  -32.0440   23.7190 O   0  0  0  0  0  0  0  0  0  0  0  0
  -22.7230  -29.3740   22.4310 C   0  0  0  0  0  0  0  0  0  0  0  0
  -21.4010  -29.1850   22.2790 N   0  0  0  0  0  0  0  0  0  0  0  0
  -23.3950  -28.7360   23.2450 O   0  0  0  0  0  0  0  0  0  0  0  0
  -20.9180  -29.7530   21.5960 H   0  0  0  0  0  0  0  0  0  0  0  0
  -18.0270  -27.9540   22.7000 C   0  0  0  0  0  0  0  0  0  0  0  0
  -20.5780  -28.2270   23.0180 C   0  0  0  0  0  3  0  0  0  0  0  0
  -20.7020  -26.8080   22.4170 C   0  0  0  0  0  2  0  0  0  0  0  0
  -19.6190  -26.4950   21.3790 C   0  0  0  0  0  2  0  0  0  0  0  0
  -18.2250  -26.6190   22.0020 C   0  0  0  0  0  2  0  0  0  0  0  0
  -19.1320  -28.7160   23.1620 C   0  0  0  0  0  0  0  0  0  0  0  0
  -18.8950  -29.9660   23.7740 C   0  0  0  0  0  3  0  0  0  0  0  0
  -17.5840  -30.4550   23.9280 C   0  0  0  0  0  3  0  0  0  0  0  0
  -16.4920  -29.6900   23.4820 C   0  0  0  0  0  3  0  0  0  0  0  0
  -16.7140  -28.4410   22.8730 C   0  0  0  0  0  3  0  0  0  0  0  0
  -25.8390  -32.4090   23.8370 C   0  0  0  0  0  3  0  0  0  0  0  0
  -26.3290  -31.6270   25.1170 C   0  0  1  0  0  0  0  0  0  0  0  0
  -25.2140  -31.3860   26.1620 C   0  0  0  0  0  1  0  0  0  0  0  0
  -26.9150  -30.2500   24.7270 C   0  0  0  0  0  1  0  0  0  0  0  0
  -27.4700  -32.4120   25.8070 C   0  0  0  0  0  1  0  0  0  0  0  0
  -25.5300  -33.8060   24.1700 N   0  0  0  0  0  0  0  0  0  0  0  0
  -25.8670  -34.8610   23.4170 C   0  0  0  0  0  0  0  0  0  0  0  0
  -26.5440  -34.7600   22.3900 O   0  0  0  0  0  0  0  0  0  0  0  0
  -24.9270  -33.9580   24.9660 H   0  0  0  0  0  0  0  0  0  0  0  0
  -24.1340  -36.6490   23.0630 C   0  0  0  0  0  1  0  0  0  0  0  0
  -25.3760  -36.2480   23.8750 C   0  0  0  0  0  3  0  0  0  0  0  0
  -27.5100  -37.1380   24.7050 C   0  0  0  0  0  1  0  0  0  0  0  0
  -26.4070  -37.3050   23.7600 N   0  0  0  0  0  0  0  0  0  0  0  0
  -26.0000  -38.2230   23.9110 H   0  0  0  0  0  0  0  0  0  0  0  0
  1  2  1  0
  2  6  1  0
  3  2  2  0
  3  9  1  0
  4  1  2  0
  5  8  1  0
  5  3  1  0
  7  4  1  0
  7  5  2  0
 10 18  1  0
 11 16  1  0
 12 13  1  0
 12 11  1  0
 14 13  1  0
 14 23  1  0
 14 15  1  0
 16 10  1  0
 16 15  1  0
 17 10  2  0
 18  9  1  0
 18 19  1  0
 20 21  2  0
 21 40  1  0
 22 21  1  0
 22 25  1  0
 23 24  1  0
 23 20  1  0
 24 22  2  0
 25 26  1  0
 26 27  2  0
 28 31  1  0
 28 27  1  0
 29 28  2  0
 30 29  1  0
 30 25  2  0
 31 32  1  0
 32 33  1  0
 33 34  2  0
 35 34  1  0
 35 39  1  0
 36 35  2  0
 37 32  2  0
 37 36  1  0
 38 37  1  0
 40 41  1  0
 41 44  1  0
 41 43  1  0
 42 40  2  0
 45 20  1  0
 45 46  1  0
 47 45  1  0
 48  4  1  0
 48 49  1  0
 50 51  1  0
 50 49  1  0
 52 63  2  0
 53 51  1  0
 53 58  1  0
 54 62  1  0
 54 64  1  0
 55 61  1  0
 55 57  1  0
 56 62  1  0
 57 56  1  0
 58 57  2  0
 59 60  1  0
 59 53  2  0
 60 55  2  0
 61 54  1  0
 62 52  1  0
 64 66  2  0
 65 64  1  0
 67 65  1  0
 68 77  2  0
 68 73  1  0
 69 65  1  0
 69 73  1  0
 70 69  1  0
 71 72  1  0
 71 70  1  0
 72 68  1  0
 73 74  2  0
 74 75  1  0
 76 75  2  0
 77 76  1  0
 78 52  1  0
 78 83  1  0
 78 79  1  0
 79 82  1  1
 79 80  1  0
 81 79  1  0
 83 86  1  0
 84 88  1  0
 84 83  1  0
 85 84  2  0
 88 87  1  0
 90 88  1  0
 90 91  1  0
 90 89  1  0
M  ISO  4  10 100  18 100  50 101  51 101
M  END
>  <TORSDO>  (91) 
F 20

>  <SCORE>  (91) 
-13.993

>  <name>  (91) 
93

>  <ligand_id>  (91) 
93

>  <original_smiles>  (91) 
[H]c1c([H])c([H])c2c(c1[H])C([H])([H])C([H])([H])C([H])([H])C2([H])N([H])C(=O)C1([H])N(C(=O)C([H])(N([H])C(=O)C([H])(N([H])C([H])([H])[H])C([H])([H])[H])C(C([H])([H])[H])(C([H])([H])[H])C([H])([H])[H])C([H])([H])c2c([H])c(OC([H])([H])C([H])([H])C([H])([H])c3nc(Cl)c(C([H])([H])N([H])C(=O)N4C([H])([H])C([H])([H])C([H])([H])C([H])(n5nc(-c6c([H])c([H])c(Oc7c([H])c([H])c(F)c([H])c7F)c([H])c6[H])c(C(=O)N([H])[H])c5N([H])[H])C4([H])[H])c(C([H])([H])[H])c3[H])c([H])c([H])c2C1([H])[H]

>  <smiles>  (91) 
[H]c1c([H])c([H])c2c(c1[H])C([H])([H])C([H])([H])C([H])([H])C2([H])N([H])C(=O)C1([H])N(C(=O)C([H])(N([H])C(=O)C([H])(N([H])C([H])([H])[H])C([H])([H])[H])C(C([H])([H])[H])(C([H])([H])[H])C([H])([H])[H])C([H])([H])c2c([H])c(OC([H])([H])C([H])([H])C([H])([H])c3nc(Cl)c(C([H])([H])N([H])C(=O)N4C([H])([H])C([H])([H])C([H])([H])C([H])(n5nc(-c6c([H])c([H])c(Oc7c([H])c([H])c(F)c([H])c7F)c([H])c6[H])c(C(=O)N([H])[H])c5N([H])[H])C4([H])[H])c(C([H])([H])[H])c3[H])c([H])c([H])c2C1([H])[H]

$$$$
94:0:0
     RDKit          3D

 94103  0  0  1  0  0  0  0  0999 V2000
  -30.0180  -19.8080   19.7690 C   0  0  0  0  0  3  0  0  0  0  0  0
  -29.8260  -21.0620   20.4060 C   0  0  0  0  0  0  0  0  0  0  0  0
  -31.0450  -18.9230   20.2120 C   0  0  0  0  0  0  0  0  0  0  0  0
  -30.6310  -21.3530   21.5120 C   0  0  0  0  0  0  0  0  0  0  0  0
  -31.8530  -19.3770   21.2900 C   0  0  0  0  0  0  0  0  0  0  0  0
  -28.8100  -22.1300   19.9400 C   0  0  0  0  0  2  0  0  0  0  0  0
  -30.4470  -22.6920   22.1990 C   0  0  0  0  0  2  0  0  0  0  0  0
  -30.3990  -23.8140   21.1490 C   0  0  0  0  0  2  0  0  0  0  0  0
  -29.3270  -23.6170   20.0310 C   0  0  0  0  0  3  0  0  0  0  0  0
  -31.6320  -20.5500   21.9280 N   0  0  0  0  0  0  0  0  0  0  0  0
  -34.3040  -18.8720   20.7890 C   0  0  0  0  0  1  0  0  0  0  0  0
  -33.1130  -18.6480   21.7390 C   0  0  0  0  0  2  0  0  0  0  0  0
  -31.3330  -17.6220   19.4080 C   0  0  0  0  0  2  0  0  0  0  0  0
  -31.6410  -15.1690   19.8520 C   0  0  0  0  0  0  0  0  0  0  0  0
  -31.4040  -12.7550   19.3790 C   0  0  0  0  0  2  0  0  0  0  0  0
  -30.5090  -12.5690   18.1370 C   0  0  0  0  0  2  0  0  0  0  0  0
  -29.0200  -12.5390   18.5350 C   0  0  0  0  0  2  0  0  0  0  0  0
  -28.6290  -13.7060   19.4800 C   0  0  0  0  0  3  0  0  0  0  0  0
  -29.6400  -13.8480   20.6410 C   0  0  0  0  0  2  0  0  0  0  0  0
  -30.9800  -13.9950   20.0530 N   0  0  0  0  0  0  0  0  0  0  0  0
  -32.8020  -15.2020   19.4320 O   0  0  0  0  0  0  0  0  0  0  0  0
  -30.9020  -16.3030   19.9410 N   0  0  0  0  0  0  0  0  0  0  0  0
  -29.9430  -16.1990   20.2340 H   0  0  0  0  0  0  0  0  0  0  0  0
  -26.3280  -14.5530   20.2570 C   0  0  0  0  0  0  0  0  0  0  0  0
  -25.1830  -13.8930   20.6110 C   0  0  0  0  0  0  0  0  0  0  0  0
  -25.4830  -12.5000   20.5150 C   0  0  0  0  0  0  0  0  0  0  0  0
  -27.2600  -13.5660   19.9700 N   0  0  0  0  0  0  0  0  0  0  0  0
  -26.7570  -12.3250   20.1860 N   0  0  0  0  0  0  0  0  0  0  0  0
  -24.6170  -11.3240   20.6620 C   0  0  0  0  0  0  0  0  0  0  0  0
  -24.9610  -10.2550   21.5190 C   0  0  0  0  0  3  0  0  0  0  0  0
  -24.1040   -9.1430   21.6580 C   0  0  0  0  0  3  0  0  0  0  0  0
  -22.8850   -9.0930   20.9420 C   0  0  0  0  0  0  0  0  0  0  0  0
  -22.5570  -10.1480   20.0720 C   0  0  0  0  0  3  0  0  0  0  0  0
  -23.4140  -11.2520   19.9300 C   0  0  0  0  0  3  0  0  0  0  0  0
  -22.0010   -8.0430   20.9940 O   0  0  0  0  0  0  0  0  0  0  0  0
  -21.9250   -7.2200   22.0890 C   0  0  0  0  0  0  0  0  0  0  0  0
  -21.6230   -7.7160   23.3750 C   0  0  0  0  0  3  0  0  0  0  0  0
  -21.4890   -6.8250   24.4600 C   0  0  0  0  0  3  0  0  0  0  0  0
  -21.6470   -5.4410   24.2580 C   0  0  0  0  0  0  0  0  0  0  0  0
  -21.9420   -4.9450   22.9770 C   0  0  0  0  0  3  0  0  0  0  0  0
  -22.0790   -5.8320   21.8950 C   0  0  0  0  0  0  0  0  0  0  0  0
  -22.3430   -5.3470   20.6570 F   0  0  0  0  0  0  0  0  0  0  0  0
  -21.5100   -4.5850   25.2970 F   0  0  0  0  0  0  0  0  0  0  0  0
  -23.8540  -14.5180   20.9250 C   0  0  0  0  0  0  0  0  0  0  0  0
  -23.0680  -13.8850   21.7880 N   0  0  0  0  0  0  0  0  0  0  0  0
  -23.5260  -15.5990   20.4400 O   0  0  0  0  0  0  0  0  0  0  0  0
  -23.3440  -13.0060   22.2010 H   0  0  0  0  0  0  0  0  0  0  0  0
  -22.1750  -14.2840   22.0390 H   0  0  0  0  0  0  0  0  0  0  0  0
  -26.6510  -15.9020   20.1340 N   0  0  0  0  0  0  0  0  0  0  0  0
  -25.9680  -16.6360   20.2860 H   0  0  0  0  0  0  0  0  0  0  0  0
  -27.5390  -16.2520   19.7960 H   0  0  0  0  0  0  0  0  0  0  0  0
  -28.2190  -24.7360   20.0820 C   0  0  0  0  0  2  0  0  0  0  0  0
  -27.9490  -25.5330   18.7670 C   0  0  0  0  0  2  0  0  0  0  0  0
  -28.0110  -26.9780   18.8900 O   0  0  0  0  0  0  0  0  0  0  0  0
  -24.8140  -31.6230   23.2410 C   0  0  0  0  0  0  0  0  0  0  0  0
  -26.8680  -27.7250   19.1270 C   0  0  0  0  0  0  0  0  0  0  0  0
  -23.3600  -30.5550   21.5480 C   0  0  0  0  0  3  0  0  0  0  0  0
  -24.5620  -29.2740   19.6990 C   0  0  0  0  0  0  0  0  0  0  0  0
  -25.8560  -30.8990   21.0910 C   0  0  0  0  0  2  0  0  0  0  0  0
  -25.8040  -29.6600   20.2160 C   0  0  0  0  0  0  0  0  0  0  0  0
  -26.9580  -28.8940   19.9240 C   0  0  0  0  0  3  0  0  0  0  0  0
  -25.6070  -27.3670   18.6020 C   0  0  0  0  0  3  0  0  0  0  0  0
  -24.4580  -28.1330   18.8870 C   0  0  0  0  0  3  0  0  0  0  0  0
  -23.3680  -30.1330   20.0550 C   0  0  0  0  0  2  0  0  0  0  0  0
  -24.7030  -31.0310   22.0170 N   0  0  0  0  0  0  0  0  0  0  0  0
  -23.8170  -31.8100   23.9530 O   0  0  0  0  0  0  0  0  0  0  0  0
  -22.7930  -29.3900   22.3920 C   0  0  0  0  0  0  0  0  0  0  0  0
  -21.4740  -29.1600   22.2870 N   0  0  0  0  0  0  0  0  0  0  0  0
  -23.5360  -28.7000   23.0970 O   0  0  0  0  0  0  0  0  0  0  0  0
  -20.9330  -29.7750   21.6980 H   0  0  0  0  0  0  0  0  0  0  0  0
  -18.2230  -27.6080   22.5610 C   0  0  0  0  0  0  0  0  0  0  0  0
  -20.7310  -28.0910   22.9560 C   0  0  0  0  0  3  0  0  0  0  0  0
  -20.9970  -26.7250   22.2820 C   0  0  0  0  0  2  0  0  0  0  0  0
  -19.9670  -26.3740   21.2040 C   0  0  0  0  0  2  0  0  0  0  0  0
  -18.5560  -26.3360   21.7980 C   0  0  0  0  0  2  0  0  0  0  0  0
  -19.2450  -28.4390   23.0890 C   0  0  0  0  0  0  0  0  0  0  0  0
  -18.8820  -29.6270   23.7580 C   0  0  0  0  0  3  0  0  0  0  0  0
  -17.5300  -29.9870   23.9070 C   0  0  0  0  0  3  0  0  0  0  0  0
  -16.5220  -29.1520   23.3960 C   0  0  0  0  0  3  0  0  0  0  0  0
  -16.8680  -27.9640   22.7290 C   0  0  0  0  0  3  0  0  0  0  0  0
  -26.1880  -32.1130   23.7930 C   0  0  0  0  0  3  0  0  0  0  0  0
  -26.8160  -31.1310   24.8580 C   0  0  1  0  0  0  0  0  0  0  0  0
  -25.8520  -30.7560   26.0060 C   0  0  0  0  0  1  0  0  0  0  0  0
  -27.2770  -29.8200   24.1820 C   0  0  0  0  0  1  0  0  0  0  0  0
  -28.0770  -31.7740   25.4820 C   0  0  0  0  0  1  0  0  0  0  0  0
  -25.9800  -33.4460   24.3780 N   0  0  0  0  0  0  0  0  0  0  0  0
  -26.3350  -34.5980   23.7920 C   0  0  0  0  0  0  0  0  0  0  0  0
  -26.9420  -34.6420   22.7190 O   0  0  0  0  0  0  0  0  0  0  0  0
  -25.4360  -33.4870   25.2280 H   0  0  0  0  0  0  0  0  0  0  0  0
  -24.7040  -36.5110   23.8530 C   0  0  0  0  0  1  0  0  0  0  0  0
  -25.9550  -35.9080   24.5090 C   0  0  0  0  0  3  0  0  0  0  0  0
  -28.1760  -36.5170   25.3580 C   0  0  0  0  0  1  0  0  0  0  0  0
  -27.0440  -36.9080   24.5230 N   0  0  0  0  0  0  0  0  0  0  0  0
  -26.7040  -37.8080   24.8500 H   0  0  0  0  0  0  0  0  0  0  0  0
  1  3  2  0
  1  2  1  0
  2  4  2  0
  3  5  1  0
  4 10  1  0
  4  7  1  0
  5 12  1  0
  5 10  2  0
  6  9  1  0
  6  2  1  0
  8  7  1  0
  9 52  1  0
  9  8  1  0
 11 12  1  0
 13 22  1  0
 13  3  1  0
 14 22  1  0
 14 20  1  0
 15 20  1  0
 16 17  1  0
 16 15  1  0
 18 17  1  0
 18 27  1  0
 18 19  1  0
 20 19  1  0
 21 14  2  0
 22 23  1  0
 24 25  2  0
 25 44  1  0
 26 25  1  0
 26 29  1  0
 27 28  1  0
 27 24  1  0
 28 26  2  0
 29 30  1  0
 30 31  2  0
 32 35  1  0
 32 31  1  0
 33 32  2  0
 34 33  1  0
 34 29  2  0
 35 36  1  0
 36 37  1  0
 37 38  2  0
 39 38  1  0
 39 43  1  0
 40 39  2  0
 41 36  2  0
 41 40  1  0
 42 41  1  0
 44 45  1  0
 45 48  1  0
 45 47  1  0
 46 44  2  0
 49 24  1  0
 49 50  1  0
 51 49  1  0
 53 54  1  0
 53 52  1  0
 54 56  1  0
 55 66  2  0
 56 61  1  0
 57 65  1  0
 57 67  1  0
 58 64  1  0
 58 60  1  0
 59 65  1  0
 60 59  1  0
 61 60  2  0
 62 63  1  0
 62 56  2  0
 63 58  2  0
 64 57  1  0
 65 55  1  0
 67 69  2  0
 68 67  1  0
 70 68  1  0
 71 80  2  0
 71 76  1  0
 72 68  1  0
 72 76  1  0
 73 72  1  0
 74 75  1  0
 74 73  1  0
 75 71  1  0
 76 77  2  0
 77 78  1  0
 79 78  2  0
 80 79  1  0
 81 55  1  0
 81 86  1  0
 81 82  1  0
 82 85  1  1
 82 83  1  0
 84 82  1  0
 86 89  1  0
 87 86  1  0
 87 91  1  0
 88 87  2  0
 91 90  1  0
 91 93  1  0
 93 94  1  0
 93 92  1  0
M  ISO  4  14 100  22 100  53 101  54 101
M  END
>  <TORSDO>  (92) 
F 20

>  <SCORE>  (92) 
-10.771

>  <name>  (92) 
94

>  <ligand_id>  (92) 
94

>  <original_smiles>  (92) 
[H]c1c([H])c([H])c2c(c1[H])C([H])([H])C([H])([H])C([H])([H])C2([H])N([H])C(=O)C1([H])N(C(=O)C([H])(N([H])C(=O)C([H])(N([H])C([H])([H])[H])C([H])([H])[H])C(C([H])([H])[H])(C([H])([H])[H])C([H])([H])[H])C([H])([H])c2c([H])c(OC([H])([H])C([H])([H])C3([H])C([H])([H])c4c(nc(C([H])([H])C([H])([H])[H])c(C([H])([H])N([H])C(=O)N5C([H])([H])C([H])([H])C([H])([H])C([H])(n6nc(-c7c([H])c([H])c(Oc8c([H])c([H])c(F)c([H])c8F)c([H])c7[H])c(C(=O)N([H])[H])c6N([H])[H])C5([H])[H])c4[H])C([H])([H])C3([H])[H])c([H])c([H])c2C1([H])[H]

>  <smiles>  (92) 
[H]c1c([H])c([H])c2c(c1[H])C([H])([H])C([H])([H])C([H])([H])C2([H])N([H])C(=O)C1([H])N(C(=O)C([H])(N([H])C(=O)C([H])(N([H])C([H])([H])[H])C([H])([H])[H])C(C([H])([H])[H])(C([H])([H])[H])C([H])([H])[H])C([H])([H])c2c([H])c(OC([H])([H])C([H])([H])C3([H])C([H])([H])c4c(nc(C([H])([H])C([H])([H])[H])c(C([H])([H])N([H])C(=O)N5C([H])([H])C([H])([H])C([H])([H])C([H])(n6nc(-c7c([H])c([H])c(Oc8c([H])c([H])c(F)c([H])c8F)c([H])c7[H])c(C(=O)N([H])[H])c6N([H])[H])C5([H])[H])c4[H])C([H])([H])C3([H])[H])c([H])c([H])c2C1([H])[H]

$$$$
95:0:0
     RDKit          3D

 95104  0  0  1  0  0  0  0  0999 V2000
  -29.8010  -23.4890   20.7980 C   0  0  0  0  0  3  0  0  0  0  0  0
  -31.1190  -23.0160   20.6640 C   0  0  0  0  0  0  0  0  0  0  0  0
  -28.6640  -22.8060   20.2990 C   0  0  0  0  0  0  0  0  0  0  0  0
  -31.3110  -21.8390   19.9260 C   0  0  0  0  0  0  0  0  0  0  0  0
  -29.0010  -21.2770   19.9720 C   0  0  0  0  0  0  0  0  0  0  0  0
  -32.2720  -23.8590   21.2070 C   0  0  0  0  0  2  0  0  0  0  0  0
  -32.6620  -21.3850   19.3710 C   0  0  0  0  0  2  0  0  0  0  0  0
  -32.4120  -25.2280   20.5040 C   0  0  0  0  0  2  0  0  0  0  0  0
  -33.1060  -22.1670   18.1030 C   0  0  0  0  0  2  0  0  0  0  0  0
  -32.3170  -25.1990   18.9570 C   0  0  0  0  0  2  0  0  0  0  0  0
  -34.1060  -23.3250   18.3660 C   0  0  0  0  0  2  0  0  0  0  0  0
  -33.5730  -24.7630   18.1630 C   0  0  0  0  0  2  0  0  0  0  0  0
  -30.2860  -21.0200   19.6260 N   0  0  0  0  0  0  0  0  0  0  0  0
  -27.4150  -24.0370   20.2990 C   0  0  0  0  0  2  0  0  0  0  0  0
  -27.6210  -25.6730   20.0380 O   0  0  0  0  0  0  0  0  0  0  0  0
  -24.2710  -31.7480   22.9960 C   0  0  0  0  0  0  0  0  0  0  0  0
  -26.6110  -26.7750   19.9680 C   0  0  0  0  0  0  0  0  0  0  0  0
  -22.9660  -30.2760   21.5140 C   0  0  0  0  0  3  0  0  0  0  0  0
  -24.3010  -28.6460   20.0200 C   0  0  0  0  0  0  0  0  0  0  0  0
  -25.5090  -30.5100   21.1480 C   0  0  0  0  0  2  0  0  0  0  0  0
  -25.5340  -29.0820   20.5320 C   0  0  0  0  0  0  0  0  0  0  0  0
  -26.6800  -28.1720   20.4560 C   0  0  0  0  0  3  0  0  0  0  0  0
  -25.3430  -26.4920   19.4090 C   0  0  0  0  0  3  0  0  0  0  0  0
  -24.2400  -27.3770   19.4250 C   0  0  0  0  0  3  0  0  0  0  0  0
  -23.0780  -29.5480   20.1440 C   0  0  0  0  0  2  0  0  0  0  0  0
  -24.2730  -30.8840   21.9300 N   0  0  0  0  0  0  0  0  0  0  0  0
  -23.2270  -32.0400   23.6040 O   0  0  0  0  0  0  0  0  0  0  0  0
  -22.3760  -29.3110   22.5780 C   0  0  0  0  0  0  0  0  0  0  0  0
  -21.0710  -28.9910   22.4720 N   0  0  0  0  0  0  0  0  0  0  0  0
  -23.0940  -28.8480   23.4650 O   0  0  0  0  0  0  0  0  0  0  0  0
  -20.5360  -29.4170   21.7290 H   0  0  0  0  0  0  0  0  0  0  0  0
  -17.8850  -27.3210   22.9760 C   0  0  0  0  0  0  0  0  0  0  0  0
  -20.3430  -28.0530   23.3340 C   0  0  0  0  0  3  0  0  0  0  0  0
  -20.7110  -26.5890   22.9980 C   0  0  0  0  0  2  0  0  0  0  0  0
  -19.7600  -25.9430   21.9850 C   0  0  0  0  0  2  0  0  0  0  0  0
  -18.3260  -25.9380   22.5190 C   0  0  0  0  0  2  0  0  0  0  0  0
  -18.8280  -28.3170   23.3360 C   0  0  0  0  0  0  0  0  0  0  0  0
  -18.3580  -29.5950   23.7170 C   0  0  0  0  0  3  0  0  0  0  0  0
  -16.9770  -29.8770   23.7490 C   0  0  0  0  0  3  0  0  0  0  0  0
  -16.0490  -28.8850   23.3910 C   0  0  0  0  0  3  0  0  0  0  0  0
  -16.5010  -27.6090   23.0070 C   0  0  0  0  0  3  0  0  0  0  0  0
  -25.5860  -32.4250   23.4900 C   0  0  0  0  0  3  0  0  0  0  0  0
  -26.2720  -31.6490   24.6830 C   0  0  1  0  0  0  0  0  0  0  0  0
  -25.3170  -31.3110   25.8550 C   0  0  0  0  0  1  0  0  0  0  0  0
  -26.8840  -30.3170   24.1940 C   0  0  0  0  0  1  0  0  0  0  0  0
  -27.4410  -32.4920   25.2430 C   0  0  0  0  0  1  0  0  0  0  0  0
  -25.2550  -33.7980   23.9070 N   0  0  0  0  0  0  0  0  0  0  0  0
  -25.6760  -34.9160   23.2920 C   0  0  0  0  0  0  0  0  0  0  0  0
  -26.4430  -34.8950   22.3290 O   0  0  0  0  0  0  0  0  0  0  0  0
  -24.5630  -33.8880   24.6320 H   0  0  0  0  0  0  0  0  0  0  0  0
  -24.0270  -36.7890   22.9370 C   0  0  0  0  0  1  0  0  0  0  0  0
  -25.1630  -36.2690   23.8340 C   0  0  0  0  0  3  0  0  0  0  0  0
  -27.2020  -37.0070   24.9820 C   0  0  0  0  0  1  0  0  0  0  0  0
  -26.2160  -37.3050   23.9440 N   0  0  0  0  0  0  0  0  0  0  0  0
  -25.8080  -38.2150   24.1370 H   0  0  0  0  0  0  0  0  0  0  0  0
  -28.4470  -19.6230   20.1330 C   0  0  0  0  0  3  0  0  0  0  0  0
  -29.4540  -18.1010   19.9040 C   0  0  0  0  0  3  0  0  0  0  0  0
  -29.9090  -15.1810   19.7530 C   0  0  0  0  0  0  0  0  0  0  0  0
  -29.8080  -12.7270   18.8770 C   0  0  0  0  0  2  0  0  0  0  0  0
  -28.7640  -12.5220   17.7510 C   0  0  0  0  0  2  0  0  0  0  0  0
  -27.3670  -12.2580   18.3460 C   0  0  0  0  0  2  0  0  0  0  0  0
  -27.0510  -13.2040   19.5400 C   0  0  0  0  0  3  0  0  0  0  0  0
  -28.2300  -13.3430   20.5340 C   0  0  0  0  0  2  0  0  0  0  0  0
  -29.3570  -13.8700   19.7580 N   0  0  0  0  0  0  0  0  0  0  0  0
  -31.0920  -15.2040   19.3850 O   0  0  0  0  0  0  0  0  0  0  0  0
  -29.1520  -16.4440   19.9520 N   0  0  0  0  0  0  0  0  0  0  0  0
  -28.2020  -16.2390   20.2190 H   0  0  0  0  0  0  0  0  0  0  0  0
  -24.7780  -13.7360   20.5620 C   0  0  0  0  0  0  0  0  0  0  0  0
  -23.7690  -12.9480   21.0390 C   0  0  0  0  0  0  0  0  0  0  0  0
  -24.2380  -11.6010   20.9490 C   0  0  0  0  0  0  0  0  0  0  0  0
  -25.7950  -12.8700   20.2000 N   0  0  0  0  0  0  0  0  0  0  0  0
  -25.4870  -11.5770   20.4890 N   0  0  0  0  0  0  0  0  0  0  0  0
  -23.5430  -10.3320   21.1990 C   0  0  0  0  0  0  0  0  0  0  0  0
  -24.0620   -9.3770   22.0940 C   0  0  0  0  0  3  0  0  0  0  0  0
  -23.3690   -8.1760   22.3410 C   0  0  0  0  0  3  0  0  0  0  0  0
  -22.1390   -7.9240   21.6970 C   0  0  0  0  0  0  0  0  0  0  0  0
  -21.6390   -8.8640   20.7800 C   0  0  0  0  0  3  0  0  0  0  0  0
  -22.3340  -10.0570   20.5300 C   0  0  0  0  0  3  0  0  0  0  0  0
  -21.4060   -6.7760   21.8630 O   0  0  0  0  0  0  0  0  0  0  0  0
  -21.4910   -6.0110   22.9990 C   0  0  0  0  0  0  0  0  0  0  0  0
  -21.1370   -6.5170   24.2700 C   0  0  0  0  0  3  0  0  0  0  0  0
  -21.1890   -5.6780   25.4030 C   0  0  0  0  0  3  0  0  0  0  0  0
  -21.5730   -4.3300   25.2650 C   0  0  0  0  0  0  0  0  0  0  0  0
  -21.9100   -3.8220   23.9980 C   0  0  0  0  0  3  0  0  0  0  0  0
  -21.8650   -4.6580   22.8680 C   0  0  0  0  0  0  0  0  0  0  0  0
  -22.1740   -4.1540   21.6490 F   0  0  0  0  0  0  0  0  0  0  0  0
  -21.6060   -3.5180   26.3460 F   0  0  0  0  0  0  0  0  0  0  0  0
  -22.4060  -13.4180   21.4640 C   0  0  0  0  0  0  0  0  0  0  0  0
  -21.7960  -12.7310   22.4230 N   0  0  0  0  0  0  0  0  0  0  0  0
  -21.9000  -14.4280   20.9790 O   0  0  0  0  0  0  0  0  0  0  0  0
  -22.2130  -11.9100   22.8340 H   0  0  0  0  0  0  0  0  0  0  0  0
  -20.8850  -13.0260   22.7470 H   0  0  0  0  0  0  0  0  0  0  0  0
  -24.9030  -15.1110   20.3730 N   0  0  0  0  0  0  0  0  0  0  0  0
  -24.1300  -15.7430   20.5590 H   0  0  0  0  0  0  0  0  0  0  0  0
  -25.6670  -15.5580   19.8890 H   0  0  0  0  0  0  0  0  0  0  0  0
  2  1  1  0
  2  6  1  0
  3  1  2  0
  4  2  2  0
  5 56  1  0
  5  3  1  0
  7  4  1  0
  8  6  1  0
  9 11  1  0
  9  7  1  0
 10  8  1  0
 12 11  1  0
 12 10  1  0
 13  4  1  0
 13  5  2  0
 14  3  1  0
 15 14  1  0
 16 27  2  0
 17 15  1  0
 17 22  1  0
 18 26  1  0
 18 28  1  0
 19 25  1  0
 19 21  1  0
 20 26  1  0
 21 20  1  0
 22 21  2  0
 23 24  1  0
 23 17  2  0
 24 19  2  0
 25 18  1  0
 26 16  1  0
 28 30  2  0
 29 28  1  0
 31 29  1  0
 32 41  2  0
 32 37  1  0
 33 29  1  0
 33 37  1  0
 34 33  1  0
 35 36  1  0
 35 34  1  0
 36 32  1  0
 37 38  2  0
 38 39  1  0
 40 39  2  0
 41 40  1  0
 42 16  1  0
 42 47  1  0
 42 43  1  0
 43 46  1  1
 43 44  1  0
 45 43  1  0
 47 50  1  0
 48 52  1  0
 48 47  1  0
 49 48  2  0
 52 51  1  0
 52 54  1  0
 54 55  1  0
 54 53  1  0
 57 66  1  0
 57 56  2  0
 58 64  1  0
 58 66  1  0
 59 64  1  0
 60 61  1  0
 60 59  1  0
 62 61  1  0
 62 71  1  0
 62 63  1  0
 64 63  1  0
 65 58  2  0
 66 67  1  0
 68 69  2  0
 69 88  1  0
 70 69  1  0
 70 73  1  0
 71 72  1  0
 71 68  1  0
 72 70  2  0
 73 74  1  0
 74 75  2  0
 76 79  1  0
 76 75  1  0
 77 76  2  0
 78 77  1  0
 78 73  2  0
 79 80  1  0
 80 81  1  0
 81 82  2  0
 83 82  1  0
 83 87  1  0
 84 83  2  0
 85 80  2  0
 85 84  1  0
 86 85  1  0
 88 89  1  0
 89 92  1  0
 89 91  1  0
 90 88  2  0
 93 94  1  0
 93 68  1  0
 95 93  1  0
M  ISO  4  14 101  15 101  58 100  66 100
M  END
>  <TORSDO>  (93) 
F 19

>  <SCORE>  (93) 
-13.507

>  <name>  (93) 
95

>  <ligand_id>  (93) 
95

>  <original_smiles>  (93) 
[H]c1c([H])c([H])c2c(c1[H])C([H])([H])C([H])([H])C([H])([H])C2([H])N([H])C(=O)C1([H])N(C(=O)C([H])(N([H])C(=O)C([H])(N([H])C([H])([H])[H])C([H])([H])[H])C(C([H])([H])[H])(C([H])([H])[H])C([H])([H])[H])C([H])([H])c2c([H])c(OC([H])([H])c3c(C([H])([H])C([H])([H])N([H])C(=O)N4C([H])([H])C([H])([H])C([H])([H])C([H])(n5nc(-c6c([H])c([H])c(Oc7c([H])c([H])c(F)c([H])c7F)c([H])c6[H])c(C(=O)N([H])[H])c5N([H])[H])C4([H])[H])nc4c(c3[H])C([H])([H])C([H])([H])C([H])([H])C([H])([H])C([H])([H])C([H])([H])C4([H])[H])c([H])c([H])c2C1([H])[H]

>  <smiles>  (93) 
[H]c1c([H])c([H])c2c(c1[H])C([H])([H])C([H])([H])C([H])([H])C2([H])N([H])C(=O)C1([H])N(C(=O)C([H])(N([H])C(=O)C([H])(N([H])C([H])([H])[H])C([H])([H])[H])C(C([H])([H])[H])(C([H])([H])[H])C([H])([H])[H])C([H])([H])c2c([H])c(OC([H])([H])c3c(C([H])([H])C([H])([H])N([H])C(=O)N4C([H])([H])C([H])([H])C([H])([H])C([H])(n5nc(-c6c([H])c([H])c(Oc7c([H])c([H])c(F)c([H])c7F)c([H])c6[H])c(C(=O)N([H])[H])c5N([H])[H])C4([H])[H])nc4c(c3[H])C([H])([H])C([H])([H])C([H])([H])C([H])([H])C([H])([H])C([H])([H])C4([H])[H])c([H])c([H])c2C1([H])[H]

$$$$
96:0:0
     RDKit          3D

 91 99  0  0  1  0  0  0  0  0999 V2000
  -28.4870  -20.1100   20.1920 C   0  0  0  0  0  3  0  0  0  0  0  0
  -31.2020  -19.5850   19.9430 C   0  0  0  0  0  3  0  0  0  0  0  0
  -28.9700  -18.7790   20.3710 C   0  0  0  0  0  0  0  0  0  0  0  0
  -30.7190  -20.9130   19.7600 C   0  0  0  0  0  0  0  0  0  0  0  0
  -29.3370  -21.2090   19.8900 C   0  0  0  0  0  0  0  0  0  0  0  0
  -30.3540  -18.4860   20.2450 C   0  0  0  0  0  0  0  0  0  0  0  0
  -27.9780  -17.6820   20.7150 C   0  0  0  0  0  1  0  0  0  0  0  0
  -31.7130  -22.0060   19.4110 C   0  0  0  0  0  1  0  0  0  0  0  0
  -28.7150  -22.6050   19.5460 C   0  0  0  0  0  2  0  0  0  0  0  0
  -29.0160  -23.9270   20.3690 C   0  0  0  0  0  2  0  0  0  0  0  0
  -28.1620  -25.1480   19.8400 C   0  0  0  0  0  2  0  0  0  0  0  0
  -28.2960  -26.5210   20.3620 O   0  0  0  0  0  0  0  0  0  0  0  0
  -24.4700  -31.9170   23.2260 C   0  0  0  0  0  0  0  0  0  0  0  0
  -27.1710  -27.3570   20.2610 C   0  0  0  0  0  0  0  0  0  0  0  0
  -23.3000  -30.4720   21.6030 C   0  0  0  0  0  3  0  0  0  0  0  0
  -24.7840  -28.9300   20.2110 C   0  0  0  0  0  0  0  0  0  0  0  0
  -25.8380  -30.8220   21.4420 C   0  0  0  0  0  2  0  0  0  0  0  0
  -25.9380  -29.4370   20.8190 C   0  0  0  0  0  0  0  0  0  0  0  0
  -27.1310  -28.6580   20.8470 C   0  0  0  0  0  3  0  0  0  0  0  0
  -25.9970  -26.9190   19.5970 C   0  0  0  0  0  3  0  0  0  0  0  0
  -24.8140  -27.6750   19.5900 C   0  0  0  0  0  3  0  0  0  0  0  0
  -23.5330  -29.7820   20.2350 C   0  0  0  0  0  2  0  0  0  0  0  0
  -24.5530  -31.0880   22.1460 N   0  0  0  0  0  0  0  0  0  0  0  0
  -23.3790  -32.1920   23.7440 O   0  0  0  0  0  0  0  0  0  0  0  0
  -22.6470  -29.4590   22.5730 C   0  0  0  0  0  0  0  0  0  0  0  0
  -21.3370  -29.2150   22.4010 N   0  0  0  0  0  0  0  0  0  0  0  0
  -23.3180  -28.8960   23.4410 O   0  0  0  0  0  0  0  0  0  0  0  0
  -20.8550  -29.7250   21.6750 H   0  0  0  0  0  0  0  0  0  0  0  0
  -17.9970  -27.8840   22.8060 C   0  0  0  0  0  0  0  0  0  0  0  0
  -20.5270  -28.2740   23.1780 C   0  0  0  0  0  3  0  0  0  0  0  0
  -20.7180  -26.8250   22.6740 C   0  0  0  0  0  2  0  0  0  0  0  0
  -19.6800  -26.4090   21.6270 C   0  0  0  0  0  2  0  0  0  0  0  0
  -18.2640  -26.5160   22.2010 C   0  0  0  0  0  2  0  0  0  0  0  0
  -19.0600  -28.7150   23.2500 C   0  0  0  0  0  0  0  0  0  0  0  0
  -18.7580  -29.9920   23.7720 C   0  0  0  0  0  3  0  0  0  0  0  0
  -17.4250  -30.4390   23.8580 C   0  0  0  0  0  3  0  0  0  0  0  0
  -16.3770  -29.6060   23.4320 C   0  0  0  0  0  3  0  0  0  0  0  0
  -16.6630  -28.3310   22.9120 C   0  0  0  0  0  3  0  0  0  0  0  0
  -25.7400  -32.5780   23.8450 C   0  0  0  0  0  3  0  0  0  0  0  0
  -26.2360  -31.8600   25.1610 C   0  0  1  0  0  0  0  0  0  0  0  0
  -25.1160  -31.6290   26.2010 C   0  0  0  0  0  1  0  0  0  0  0  0
  -26.8640  -30.4850   24.8320 C   0  0  0  0  0  1  0  0  0  0  0  0
  -27.3460  -32.7040   25.8290 C   0  0  0  0  0  1  0  0  0  0  0  0
  -25.4220  -33.9870   24.1120 N   0  0  0  0  0  0  0  0  0  0  0  0
  -25.7290  -35.0050   23.2970 C   0  0  0  0  0  0  0  0  0  0  0  0
  -26.3800  -34.8590   22.2590 O   0  0  0  0  0  0  0  0  0  0  0  0
  -24.8430  -34.1750   24.9170 H   0  0  0  0  0  0  0  0  0  0  0  0
  -23.9620  -36.7500   22.8990 C   0  0  0  0  0  1  0  0  0  0  0  0
  -25.2320  -36.4080   23.6950 C   0  0  0  0  0  3  0  0  0  0  0  0
  -27.3660  -37.3770   24.4240 C   0  0  0  0  0  1  0  0  0  0  0  0
  -26.2430  -37.4680   23.4950 N   0  0  0  0  0  0  0  0  0  0  0  0
  -25.8250  -38.3900   23.5920 H   0  0  0  0  0  0  0  0  0  0  0  0
  -31.0070  -17.1010   20.5800 C   0  0  0  0  0  2  0  0  0  0  0  0
  -30.9540  -14.6550   19.9060 C   0  0  0  0  0  0  0  0  0  0  0  0
  -30.5540  -12.4250   18.9020 C   0  0  0  0  0  2  0  0  0  0  0  0
  -29.5700  -12.5600   17.7210 C   0  0  0  0  0  2  0  0  0  0  0  0
  -28.1150  -12.4670   18.2180 C   0  0  0  0  0  2  0  0  0  0  0  0
  -27.8380  -13.3740   19.4480 C   0  0  0  0  0  3  0  0  0  0  0  0
  -28.9420  -13.2370   20.5200 C   0  0  0  0  0  2  0  0  0  0  0  0
  -30.2330  -13.4930   19.8670 N   0  0  0  0  0  0  0  0  0  0  0  0
  -32.1000  -14.7090   19.4570 O   0  0  0  0  0  0  0  0  0  0  0  0
  -30.3270  -15.7920   20.3230 N   0  0  0  0  0  0  0  0  0  0  0  0
  -29.3680  -15.7020   20.6170 H   0  0  0  0  0  0  0  0  0  0  0  0
  -25.5220  -14.0600   20.3220 C   0  0  0  0  0  0  0  0  0  0  0  0
  -24.4400  -13.3260   20.7270 C   0  0  0  0  0  0  0  0  0  0  0  0
  -24.8290  -11.9570   20.6230 C   0  0  0  0  0  0  0  0  0  0  0  0
  -26.5070  -13.1390   20.0000 N   0  0  0  0  0  0  0  0  0  0  0  0
  -26.0980  -11.8670   20.2410 N   0  0  0  0  0  0  0  0  0  0  0  0
  -24.0500  -10.7260   20.8070 C   0  0  0  0  0  0  0  0  0  0  0  0
  -24.4220   -9.7520   21.7590 C   0  0  0  0  0  3  0  0  0  0  0  0
  -23.6440   -8.5860   21.9320 C   0  0  0  0  0  3  0  0  0  0  0  0
  -22.4800   -8.3880   21.1510 C   0  0  0  0  0  0  0  0  0  0  0  0
  -22.1270   -9.3500   20.1890 C   0  0  0  0  0  3  0  0  0  0  0  0
  -22.9050  -10.5070   20.0150 C   0  0  0  0  0  3  0  0  0  0  0  0
  -21.6780   -7.2750   21.2320 O   0  0  0  0  0  0  0  0  0  0  0  0
  -21.4910   -6.6060   22.4160 C   0  0  0  0  0  0  0  0  0  0  0  0
  -20.9210   -7.2340   23.5450 C   0  0  0  0  0  3  0  0  0  0  0  0
  -20.6840   -6.4910   24.7190 C   0  0  0  0  0  3  0  0  0  0  0  0
  -21.0070   -5.1220   24.7630 C   0  0  0  0  0  0  0  0  0  0  0  0
  -21.5690   -4.4940   23.6380 C   0  0  0  0  0  3  0  0  0  0  0  0
  -21.8070   -5.2340   22.4670 C   0  0  0  0  0  0  0  0  0  0  0  0
  -22.3300   -4.6190   21.3790 F   0  0  0  0  0  0  0  0  0  0  0  0
  -20.7710   -4.4060   25.8870 F   0  0  0  0  0  0  0  0  0  0  0  0
  -23.0870  -13.8640   21.0940 C   0  0  0  0  0  0  0  0  0  0  0  0
  -22.3740  -13.1780   21.9810 N   0  0  0  0  0  0  0  0  0  0  0  0
  -22.6720  -14.9230   20.6290 O   0  0  0  0  0  0  0  0  0  0  0  0
  -22.7240  -12.3190   22.3790 H   0  0  0  0  0  0  0  0  0  0  0  0
  -21.4680  -13.5180   22.2680 H   0  0  0  0  0  0  0  0  0  0  0  0
  -25.7420  -15.4250   20.1740 N   0  0  0  0  0  0  0  0  0  0  0  0
  -25.0030  -16.1030   20.3270 H   0  0  0  0  0  0  0  0  0  0  0  0
  -26.5610  -15.8230   19.7370 H   0  0  0  0  0  0  0  0  0  0  0  0
  1  3  1  0
  2  6  1  0
  3  7  1  0
  4  5  1  0
  4  2  2  0
  5  1  2  0
  6  3  2  0
  6 53  1  0
  8  4  1  0
  9  5  1  0
  9 10  1  0
 11 12  1  0
 11 10  1  0
 13 24  2  0
 14 12  1  0
 14 19  1  0
 15 23  1  0
 15 25  1  0
 16 22  1  0
 16 18  1  0
 17 23  1  0
 18 19  2  0
 18 17  1  0
 20 14  2  0
 21 20  1  0
 21 16  2  0
 22 15  1  0
 23 13  1  0
 25 27  2  0
 26 25  1  0
 28 26  1  0
 29 38  2  0
 29 34  1  0
 30 26  1  0
 30 34  1  0
 31 30  1  0
 32 33  1  0
 32 31  1  0
 33 29  1  0
 34 35  2  0
 35 36  1  0
 37 36  2  0
 38 37  1  0
 39 13  1  0
 39 44  1  0
 39 40  1  0
 40 43  1  1
 40 41  1  0
 42 40  1  0
 44 47  1  0
 45 49  1  0
 45 44  1  0
 46 45  2  0
 49 48  1  0
 51 52  1  0
 51 49  1  0
 51 50  1  0
 54 62  1  0
 55 60  1  0
 56 57  1  0
 56 55  1  0
 58 57  1  0
 58 67  1  0
 58 59  1  0
 60 54  1  0
 60 59  1  0
 61 54  2  0
 62 53  1  0
 62 63  1  0
 64 65  2  0
 65 84  1  0
 66 65  1  0
 66 69  1  0
 67 68  1  0
 67 64  1  0
 68 66  2  0
 69 70  1  0
 70 71  2  0
 72 75  1  0
 72 71  1  0
 73 72  2  0
 74 73  1  0
 74 69  2  0
 75 76  1  0
 76 81  2  0
 76 77  1  0
 77 78  2  0
 78 79  1  0
 79 83  1  0
 80 79  2  0
 81 80  1  0
 82 81  1  0
 84 85  1  0
 85 88  1  0
 85 87  1  0
 86 84  2  0
 89 64  1  0
 89 90  1  0
 91 89  1  0
M  ISO  4  11 101  12 101  54 100  62 100
M  END
>  <TORSDO>  (94) 
F 20

>  <SCORE>  (94) 
-13.084

>  <name>  (94) 
96

>  <ligand_id>  (94) 
96

>  <original_smiles>  (94) 
[H]c1c([H])c([H])c2c(c1[H])C([H])([H])C([H])([H])C([H])([H])C2([H])N([H])C(=O)C1([H])N(C(=O)C([H])(N([H])C(=O)C([H])(N([H])C([H])([H])[H])C([H])([H])[H])C(C([H])([H])[H])(C([H])([H])[H])C([H])([H])[H])C([H])([H])c2c([H])c(OC([H])([H])C([H])([H])C([H])([H])c3c([H])c(C([H])([H])[H])c(C([H])([H])N([H])C(=O)N4C([H])([H])C([H])([H])C([H])([H])C([H])(n5nc(-c6c([H])c([H])c(Oc7c([H])c([H])c(F)c([H])c7F)c([H])c6[H])c(C(=O)N([H])[H])c5N([H])[H])C4([H])[H])c([H])c3C([H])([H])[H])c([H])c([H])c2C1([H])[H]

>  <smiles>  (94) 
[H]c1c([H])c([H])c2c(c1[H])C([H])([H])C([H])([H])C([H])([H])C2([H])N([H])C(=O)C1([H])N(C(=O)C([H])(N([H])C(=O)C([H])(N([H])C([H])([H])[H])C([H])([H])[H])C(C([H])([H])[H])(C([H])([H])[H])C([H])([H])[H])C([H])([H])c2c([H])c(OC([H])([H])C([H])([H])C([H])([H])c3c([H])c(C([H])([H])[H])c(C([H])([H])N([H])C(=O)N4C([H])([H])C([H])([H])C([H])([H])C([H])(n5nc(-c6c([H])c([H])c(Oc7c([H])c([H])c(F)c([H])c7F)c([H])c6[H])c(C(=O)N([H])[H])c5N([H])[H])C4([H])[H])c([H])c3C([H])([H])[H])c([H])c([H])c2C1([H])[H]

$$$$
