0:0:0
     RDKit          3D

 94102  0  0  1  0  0  0  0  0999 V2000
  -30.9510  -23.0080   20.3430 C   0  0  0  0  0  3  0  0  0  0  0  0
  -31.4440  -21.6990   20.4410 C   0  0  0  0  0  3  0  0  0  0  0  0
  -30.5340  -23.0130   22.7440 C   0  0  0  0  0  3  0  0  0  0  0  0
  -30.4870  -23.6610   21.4960 C   0  0  0  0  0  0  0  0  0  0  0  0
  -31.4550  -21.0190   21.6790 C   0  0  0  0  0  0  0  0  0  0  0  0
  -31.0120  -21.6910   22.8500 C   0  0  0  0  0  0  0  0  0  0  0  0
  -29.9420  -25.0620   21.3890 C   0  0  0  0  0  2  0  0  0  0  0  0
  -28.5970  -25.1210   20.6600 C   0  0  0  0  0  2  0  0  0  0  0  0
  -28.5160  -26.4680   20.2550 O   0  0  0  0  0  0  0  0  0  0  0  0
  -24.5050  -31.6100   23.0190 C   0  0  0  0  0  0  0  0  0  0  0  0
  -27.2910  -27.0740   20.2630 C   0  0  0  0  0  0  0  0  0  0  0  0
  -23.3610  -30.1100   21.4150 C   0  0  0  0  0  3  0  0  0  0  0  0
  -24.8680  -28.5000   20.1370 C   0  0  0  0  0  0  0  0  0  0  0  0
  -25.8820  -30.4880   21.2740 C   0  0  0  0  0  2  0  0  0  0  0  0
  -25.9970  -29.0860   20.7240 C   0  0  0  0  0  0  0  0  0  0  0  0
  -27.2110  -28.3800   20.7800 C   0  0  0  0  0  3  0  0  0  0  0  0
  -26.1450  -26.4720   19.6970 C   0  0  0  0  0  3  0  0  0  0  0  0
  -24.9320  -27.1890   19.6300 C   0  0  0  0  0  3  0  0  0  0  0  0
  -23.6170  -29.3450   20.0900 C   0  0  0  0  0  2  0  0  0  0  0  0
  -24.6000  -30.7520   21.9630 N   0  0  0  0  0  0  0  0  0  0  0  0
  -23.4050  -31.9050   23.5040 O   0  0  0  0  0  0  0  0  0  0  0  0
  -22.6830  -29.1420   22.4090 C   0  0  0  0  0  0  0  0  0  0  0  0
  -21.3610  -28.9600   22.2550 N   0  0  0  0  0  0  0  0  0  0  0  0
  -23.3430  -28.5500   23.2660 O   0  0  0  0  0  0  0  0  0  0  0  0
  -20.8890  -29.4890   21.5350 H   0  0  0  0  0  0  0  0  0  0  0  0
  -17.9650  -27.8370   22.7370 C   0  0  0  0  0  0  0  0  0  0  0  0
  -20.5200  -28.0640   23.0470 C   0  0  0  0  0  3  0  0  0  0  0  0
  -20.6110  -26.6100   22.5270 C   0  0  0  0  0  2  0  0  0  0  0  0
  -19.5230  -26.2650   21.5060 C   0  0  0  0  0  2  0  0  0  0  0  0
  -18.1320  -26.4580   22.1190 C   0  0  0  0  0  2  0  0  0  0  0  0
  -19.0870  -28.5960   23.1580 C   0  0  0  0  0  0  0  0  0  0  0  0
  -18.8820  -29.8870   23.6900 C   0  0  0  0  0  3  0  0  0  0  0  0
  -17.5830  -30.4190   23.8090 C   0  0  0  0  0  3  0  0  0  0  0  0
  -16.4750  -29.6540   23.4070 C   0  0  0  0  0  3  0  0  0  0  0  0
  -16.6650  -28.3660   22.8760 C   0  0  0  0  0  3  0  0  0  0  0  0
  -25.7680  -32.2810   23.6450 C   0  0  0  0  0  3  0  0  0  0  0  0
  -25.4010  -33.6540   24.0170 N   0  0  0  0  0  0  0  0  0  0  0  0
  -25.6840  -34.7400   23.2890 C   0  0  0  0  0  0  0  0  0  0  0  0
  -26.3550  -34.6970   22.2540 O   0  0  0  0  0  0  0  0  0  0  0  0
  -24.8100  -33.7580   24.8290 H   0  0  0  0  0  0  0  0  0  0  0  0
  -23.8780  -36.4610   22.9840 C   0  0  0  0  0  1  0  0  0  0  0  0
  -25.1360  -36.0900   23.7860 C   0  0  0  0  0  3  0  0  0  0  0  0
  -27.2310  -37.0420   24.6460 C   0  0  0  0  0  1  0  0  0  0  0  0
  -26.1210  -37.1900   23.7080 N   0  0  0  0  0  0  0  0  0  0  0  0
  -25.6740  -38.0870   23.8840 H   0  0  0  0  0  0  0  0  0  0  0  0
  -26.3320  -31.4990   24.8920 C   0  0  1  0  0  0  0  0  0  0  0  0
  -25.2540  -31.1480   25.9450 C   0  0  0  0  0  1  0  0  0  0  0  0
  -27.0110  -30.1830   24.4420 C   0  0  0  0  0  1  0  0  0  0  0  0
  -27.4220  -32.3430   25.5950 C   0  0  0  0  0  1  0  0  0  0  0  0
  -31.9760  -19.5890   21.6850 C   0  0  0  0  0  2  0  0  0  0  0  0
  -31.1530  -18.6450   20.7960 C   0  0  0  0  0  2  0  0  0  0  0  0
  -31.7410  -17.2330   20.7990 C   0  0  0  0  0  2  0  0  0  0  0  0
  -30.7660  -16.1930   20.2260 C   0  0  0  0  0  2  0  0  0  0  0  0
  -31.4870  -13.9660   19.4640 C   0  0  0  0  0  0  0  0  0  0  0  0
  -30.8500  -11.8580   18.3420 C   0  0  0  0  0  2  0  0  0  0  0  0
  -29.7750  -12.0740   17.2590 C   0  0  0  0  0  2  0  0  0  0  0  0
  -28.3610  -12.0650   17.8710 C   0  0  0  0  0  2  0  0  0  0  0  0
  -28.2450  -13.0010   19.1020 C   0  0  0  0  0  3  0  0  0  0  0  0
  -29.3910  -12.7140   20.0930 C   0  0  0  0  0  2  0  0  0  0  0  0
  -30.6790  -12.8750   19.3870 N   0  0  0  0  0  0  0  0  0  0  0  0
  -32.3840  -14.2070   18.6440 O   0  0  0  0  0  0  0  0  0  0  0  0
  -31.5480  -14.4920   21.8620 C   0  0  0  0  0  1  0  0  0  0  0  0
  -31.1950  -14.8160   20.4760 N   0  0  0  0  0  0  0  0  0  0  0  0
  -26.0610  -13.8710   20.1600 C   0  0  0  0  0  0  0  0  0  0  0  0
  -24.9620  -13.2180   20.6520 C   0  0  0  0  0  0  0  0  0  0  0  0
  -25.2350  -11.8230   20.5040 C   0  0  0  0  0  0  0  0  0  0  0  0
  -26.9410  -12.8790   19.7510 N   0  0  0  0  0  0  0  0  0  0  0  0
  -26.4510  -11.6400   20.0100 N   0  0  0  0  0  0  0  0  0  0  0  0
  -24.3860  -10.6510   20.7530 C   0  0  0  0  0  0  0  0  0  0  0  0
  -24.7780   -9.6330   21.6480 C   0  0  0  0  0  3  0  0  0  0  0  0
  -23.9380   -8.5220   21.8820 C   0  0  0  0  0  3  0  0  0  0  0  0
  -22.6910   -8.4260   21.2220 C   0  0  0  0  0  0  0  0  0  0  0  0
  -22.3160   -9.4320   20.3140 C   0  0  0  0  0  3  0  0  0  0  0  0
  -23.1560  -10.5330   20.0790 C   0  0  0  0  0  3  0  0  0  0  0  0
  -21.8200   -7.3720   21.3690 O   0  0  0  0  0  0  0  0  0  0  0  0
  -21.7350   -6.6660   22.5420 C   0  0  0  0  0  0  0  0  0  0  0  0
  -21.3950   -7.2890   23.7630 C   0  0  0  0  0  3  0  0  0  0  0  0
  -21.2510   -6.5150   24.9320 C   0  0  0  0  0  3  0  0  0  0  0  0
  -21.4360   -5.1200   24.8800 C   0  0  0  0  0  0  0  0  0  0  0  0
  -21.7690   -4.4980   23.6650 C   0  0  0  0  0  3  0  0  0  0  0  0
  -21.9160   -5.2690   22.4990 C   0  0  0  0  0  0  0  0  0  0  0  0
  -22.2150   -4.6630   21.3250 F   0  0  0  0  0  0  0  0  0  0  0  0
  -21.2900   -4.3750   26.0000 F   0  0  0  0  0  0  0  0  0  0  0  0
  -23.6920  -13.8470   21.1450 C   0  0  0  0  0  0  0  0  0  0  0  0
  -23.0290  -13.2130   22.1080 N   0  0  0  0  0  0  0  0  0  0  0  0
  -23.3030  -14.9300   20.7100 O   0  0  0  0  0  0  0  0  0  0  0  0
  -23.3610  -12.3350   22.4780 H   0  0  0  0  0  0  0  0  0  0  0  0
  -22.1770  -13.6100   22.4780 H   0  0  0  0  0  0  0  0  0  0  0  0
  -26.3810  -15.2170   20.0100 N   0  0  0  0  0  0  0  0  0  0  0  0
  -25.7350  -15.9600   20.2520 H   0  0  0  0  0  0  0  0  0  0  0  0
  -27.2350  -15.5580   19.5880 H   0  0  0  0  0  0  0  0  0  0  0  0
  -31.0210  -21.0450   24.2280 C   0  0  0  0  0  2  0  0  0  0  0  0
  -30.0770  -19.1440   25.6480 C   0  0  0  0  0  1  0  0  0  0  0  0
  -29.9390  -19.9640   24.3610 C   0  0  0  0  0  2  0  0  0  0  0  0
  1  2  2  0
  1  4  1  0
  2  5  1  0
  3  6  1  0
  4  3  2  0
  5 50  1  0
  5  6  2  0
  6 92  1  0
  7  4  1  0
  8  7  1  0
  9 11  1  0
  9  8  1  0
 10 21  2  0
 11 16  1  0
 12 20  1  0
 12 22  1  0
 13 15  1  0
 14 20  1  0
 15 16  2  0
 15 14  1  0
 17 11  2  0
 18 17  1  0
 18 13  2  0
 19 13  1  0
 19 12  1  0
 20 10  1  0
 22 24  2  0
 23 22  1  0
 25 23  1  0
 26 35  2  0
 26 31  1  0
 27 23  1  0
 27 31  1  0
 28 27  1  0
 29 30  1  0
 29 28  1  0
 30 26  1  0
 31 32  2  0
 32 33  1  0
 34 33  2  0
 35 34  1  0
 36 10  1  0
 36 37  1  0
 36 46  1  0
 37 40  1  0
 38 42  1  0
 38 37  1  0
 39 38  2  0
 42 41  1  0
 44 42  1  0
 44 45  1  0
 44 43  1  0
 46 49  1  1
 46 47  1  0
 48 46  1  0
 51 52  1  0
 51 50  1  0
 53 63  1  0
 53 52  1  0
 54 63  1  0
 55 60  1  0
 56 57  1  0
 56 55  1  0
 58 57  1  0
 58 67  1  0
 58 59  1  0
 60 54  1  0
 60 59  1  0
 61 54  2  0
 63 62  1  0
 64 65  2  0
 65 84  1  0
 66 65  1  0
 66 69  1  0
 67 68  1  0
 67 64  1  0
 68 66  2  0
 69 70  1  0
 70 71  2  0
 72 75  1  0
 72 71  1  0
 73 72  2  0
 74 73  1  0
 74 69  2  0
 75 76  1  0
 76 77  1  0
 77 78  2  0
 79 78  1  0
 79 83  1  0
 80 79  2  0
 81 76  2  0
 81 80  1  0
 82 81  1  0
 84 85  1  0
 85 88  1  0
 85 87  1  0
 86 84  2  0
 89 64  1  0
 89 90  1  0
 91 89  1  0
 92 94  1  0
 94 93  1  0
M  ISO  4   8 101   9 101  54 100  63 100
M  END
>  <TORSDO>  (1) 
F 24

>  <SCORE>  (1) 
-8.747

>  <name>  (1) 
0

>  <ligand_id>  (1) 
0

>  <original_smiles>  (1) 
[H]c1c([H])c([H])c2c(c1[H])C([H])([H])C([H])([H])C([H])([H])C2([H])N([H])C(=O)C1([H])N(C(=O)C([H])(N([H])C(=O)C([H])(N([H])C([H])([H])[H])C([H])([H])[H])C(C([H])([H])[H])(C([H])([H])[H])C([H])([H])[H])C([H])([H])c2c([H])c(OC([H])([H])C([H])([H])c3c([H])c([H])c(C([H])([H])C([H])([H])C([H])([H])C([H])([H])N(C(=O)N4C([H])([H])C([H])([H])C([H])([H])C([H])(n5nc(-c6c([H])c([H])c(Oc7c([H])c([H])c(F)c([H])c7F)c([H])c6[H])c(C(=O)N([H])[H])c5N([H])[H])C4([H])[H])C([H])([H])[H])c(C([H])([H])C([H])([H])C([H])([H])[H])c3[H])c([H])c([H])c2C1([H])[H]

>  <smiles>  (1) 
[H]c1c([H])c([H])c2c(c1[H])C([H])([H])C([H])([H])C([H])([H])C2([H])N([H])C(=O)C1([H])N(C(=O)C([H])(N([H])C(=O)C([H])(N([H])C([H])([H])[H])C([H])([H])[H])C(C([H])([H])[H])(C([H])([H])[H])C([H])([H])[H])C([H])([H])c2c([H])c(OC([H])([H])C([H])([H])c3c([H])c([H])c(C([H])([H])C([H])([H])C([H])([H])C([H])([H])N(C(=O)N4C([H])([H])C([H])([H])C([H])([H])C([H])(n5nc(-c6c([H])c([H])c(Oc7c([H])c([H])c(F)c([H])c7F)c([H])c6[H])c(C(=O)N([H])[H])c5N([H])[H])C4([H])[H])C([H])([H])[H])c(C([H])([H])C([H])([H])C([H])([H])[H])c3[H])c([H])c([H])c2C1([H])[H]

$$$$
1:0:0
     RDKit          3D

 91 97  0  0  1  0  0  0  0  0999 V2000
  -28.4170  -25.1510   17.8570 C   0  0  0  0  0  3  0  0  0  0  0  0
  -27.7990  -27.5840   17.5500 C   0  0  0  0  0  3  0  0  0  0  0  0
  -26.1490  -25.8450   17.4090 C   0  0  0  0  0  3  0  0  0  0  0  0
  -28.7460  -26.5320   17.7660 C   0  0  0  0  0  0  0  0  0  0  0  0
  -27.1290  -24.6380   17.6550 C   0  0  0  0  0  0  0  0  0  0  0  0
  -26.3950  -27.4000   17.4460 C   0  0  0  0  0  0  0  0  0  0  0  0
  -30.2160  -26.8690   17.9480 C   0  0  0  0  0  1  0  0  0  0  0  0
  -27.1250  -22.8730   17.4430 C   0  0  0  0  0  2  0  0  0  0  0  0
  -27.4630  -21.2300   18.2400 C   0  0  0  0  0  2  0  0  0  0  0  0
  -28.7520  -20.0450   18.7650 C   0  0  0  0  0  2  0  0  0  0  0  0
  -29.0780  -18.2280   18.7040 C   0  0  0  0  0  2  0  0  0  0  0  0
  -29.3030  -16.7950   19.8290 C   0  0  0  0  0  2  0  0  0  0  0  0
  -30.2520  -15.2770   19.9140 C   0  0  0  0  0  0  0  0  0  0  0  0
  -30.3840  -12.7630   19.3630 C   0  0  0  0  0  2  0  0  0  0  0  0
  -29.4640  -12.5020   18.1490 C   0  0  0  0  0  2  0  0  0  0  0  0
  -28.0090  -12.2840   18.6120 C   0  0  0  0  0  2  0  0  0  0  0  0
  -27.5640  -13.2820   19.7100 C   0  0  0  0  0  3  0  0  0  0  0  0
  -28.6210  -13.4710   20.8060 C   0  0  0  0  0  2  0  0  0  0  0  0
  -29.8220  -13.9390   20.1040 N   0  0  0  0  0  0  0  0  0  0  0  0
  -31.4910  -15.3020   19.7640 O   0  0  0  0  0  0  0  0  0  0  0  0
  -25.2220  -13.8810   20.5040 C   0  0  0  0  0  0  0  0  0  0  0  0
  -24.1510  -13.1200   20.8790 C   0  0  0  0  0  0  0  0  0  0  0  0
  -24.5970  -11.7610   20.8500 C   0  0  0  0  0  0  0  0  0  0  0  0
  -26.2450  -12.9860   20.2490 N   0  0  0  0  0  0  0  0  0  0  0  0
  -25.8860  -11.7040   20.5330 N   0  0  0  0  0  0  0  0  0  0  0  0
  -23.8530  -10.5110   21.0390 C   0  0  0  0  0  0  0  0  0  0  0  0
  -24.2740   -9.5310   21.9630 C   0  0  0  0  0  3  0  0  0  0  0  0
  -23.5250   -8.3490   22.1420 C   0  0  0  0  0  3  0  0  0  0  0  0
  -22.3400   -8.1380   21.3970 C   0  0  0  0  0  0  0  0  0  0  0  0
  -21.9360   -9.1090   20.4630 C   0  0  0  0  0  3  0  0  0  0  0  0
  -22.6870  -10.2810   20.2810 C   0  0  0  0  0  3  0  0  0  0  0  0
  -21.5660   -7.0080   21.4840 O   0  0  0  0  0  0  0  0  0  0  0  0
  -21.5180   -6.2540   22.6340 C   0  0  0  0  0  0  0  0  0  0  0  0
  -21.1510   -6.8120   23.8760 C   0  0  0  0  0  3  0  0  0  0  0  0
  -21.0450   -5.9890   25.0160 C   0  0  0  0  0  3  0  0  0  0  0  0
  -21.3050   -4.6090   24.9140 C   0  0  0  0  0  0  0  0  0  0  0  0
  -21.6680   -4.0500   23.6770 C   0  0  0  0  0  3  0  0  0  0  0  0
  -21.7730   -4.8700   22.5390 C   0  0  0  0  0  0  0  0  0  0  0  0
  -22.1030   -4.3210   21.3460 F   0  0  0  0  0  0  0  0  0  0  0  0
  -21.1970   -3.8200   26.0080 F   0  0  0  0  0  0  0  0  0  0  0  0
  -22.7620  -13.6210   21.1410 C   0  0  0  0  0  0  0  0  0  0  0  0
  -22.0210  -12.9420   22.0080 N   0  0  0  0  0  0  0  0  0  0  0  0
  -22.3430  -14.6460   20.6090 O   0  0  0  0  0  0  0  0  0  0  0  0
  -22.3790  -12.1100   22.4550 H   0  0  0  0  0  0  0  0  0  0  0  0
  -21.0900  -13.2580   22.2360 H   0  0  0  0  0  0  0  0  0  0  0  0
  -25.4050  -15.2490   20.3290 N   0  0  0  0  0  0  0  0  0  0  0  0
  -24.6480  -15.9090   20.4510 H   0  0  0  0  0  0  0  0  0  0  0  0
  -26.2530  -15.6770   19.9810 H   0  0  0  0  0  0  0  0  0  0  0  0
  -25.3680  -28.9530   17.6430 C   0  0  0  0  0  1  0  0  0  0  0  0
  -24.6490  -29.8290   19.3110 C   0  0  0  0  0 15  0  0  0  0  0  0
  -25.0420  -28.4470   21.4510 O   0  0  0  0  0  1  0  0  0  0  0  0
  -24.4040  -31.4720   22.8200 C   0  0  0  0  0  0  0  0  0  0  0  0
  -26.1540  -27.4210   21.4550 C   0  0  1  0  0  0  0  0  0  0  0  0
  -23.0950  -29.7150   21.3670 C   0  0  0  0  0  3  0  0  0  0  0  0
  -24.6630  -27.4020   19.6650 C   0  0  0  0  0  3  0  0  0  0  0  0
  -26.0960  -30.2420   20.8620 C   0  0  0  0  0  1  0  0  0  0  0  0
  -26.2640  -28.4450   19.8820 C   0  0  0  0  0  3  0  0  0  0  0  0
  -27.1780  -27.8550   20.6700 C   0  0  0  0  0  2  0  0  0  0  0  0
  -25.7610  -26.1350   20.9380 C   0  0  0  0  0  2  0  0  0  0  0  0
  -24.7000  -26.1560   20.0730 C   0  0  0  0  0  2  0  0  0  0  0  0
  -23.0860  -28.1270   20.3730 C   0  0  0  0  0  2  0  0  0  0  0  0
  -24.5290  -30.6440   21.6710 N   0  0  0  0  0  0  0  0  0  0  0  0
  -23.3070  -31.7670   23.3480 O   0  0  0  0  0  0  0  0  0  0  0  0
  -22.2920  -29.2040   22.5830 C   0  0  0  0  0  0  0  0  0  0  0  0
  -20.9540  -29.1250   22.4500 N   0  0  0  0  0  0  0  0  0  0  0  0
  -22.8870  -28.6850   23.5290 O   0  0  0  0  0  0  0  0  0  0  0  0
  -20.5230  -29.5620   21.6450 H   0  0  0  0  0  0  0  0  0  0  0  0
  -17.5130  -28.0980   23.0010 C   0  0  0  0  0  0  0  0  0  0  0  0
  -20.0790  -28.2660   23.2570 C   0  0  0  0  0  3  0  0  0  0  0  0
  -20.1090  -26.8100   22.7330 C   0  0  0  0  0  2  0  0  0  0  0  0
  -19.0060  -26.5080   21.7140 C   0  0  0  0  0  2  0  0  0  0  0  0
  -17.6320  -26.7260   22.3500 C   0  0  0  0  0  2  0  0  0  0  0  0
  -18.6660  -28.8260   23.4020 C   0  0  0  0  0  0  0  0  0  0  0  0
  -18.5090  -30.1010   23.9820 C   0  0  0  0  0  3  0  0  0  0  0  0
  -17.2320  -30.6630   24.1460 C   0  0  0  0  0  3  0  0  0  0  0  0
  -16.0900  -29.9410   23.7510 C   0  0  0  0  0  3  0  0  0  0  0  0
  -16.2340  -28.6530   23.1990 C   0  0  0  0  0  3  0  0  0  0  0  0
  -25.6260  -32.1230   23.5790 C   0  0  0  0  0  3  0  0  0  0  0  0
  -25.2990  -33.5190   23.9760 N   0  0  0  0  0  0  0  0  0  0  0  0
  -25.6800  -34.6070   23.2910 C   0  0  0  0  0  0  0  0  0  0  0  0
  -26.3640  -34.5200   22.2730 O   0  0  0  0  0  0  0  0  0  0  0  0
  -24.7180  -33.6500   24.7910 H   0  0  0  0  0  0  0  0  0  0  0  0
  -23.9930  -36.4530   23.0220 C   0  0  0  0  0  1  0  0  0  0  0  0
  -25.2420  -36.0040   23.7980 C   0  0  0  0  0  3  0  0  0  0  0  0
  -27.4200  -36.8200   24.5980 C   0  0  0  0  0  1  0  0  0  0  0  0
  -26.3010  -37.0420   23.6880 N   0  0  0  0  0  0  0  0  0  0  0  0
  -25.9270  -37.9690   23.8800 H   0  0  0  0  0  0  0  0  0  0  0  0
  -26.0810  -31.3450   24.8870 C   0  0  1  0  0  0  0  0  0  0  0  0
  -24.9760  -31.1550   25.9510 C   0  0  0  0  0  1  0  0  0  0  0  0
  -26.5910  -29.9420   24.5010 C   0  0  0  0  0  1  0  0  0  0  0  0
  -27.2740  -32.0720   25.5620 C   0  0  0  0  0  1  0  0  0  0  0  0
  2  4  2  0
  3  6  2  0
  3  5  1  0
  4  1  1  0
  4  7  1  0
  5  1  2  0
  6  2  1  0
  6 49  1  0
  8  5  1  0
  8  9  1  0
  9 10  1  0
 11 10  1  0
 11 12  1  0
 12 13  1  0
 13 19  1  0
 14 19  1  0
 15 16  1  0
 15 14  1  0
 17 16  1  0
 17 24  1  0
 17 18  1  0
 19 18  1  0
 20 13  2  0
 21 22  2  0
 22 41  1  0
 23 22  1  0
 23 26  1  0
 24 21  1  0
 24 25  1  0
 25 23  2  0
 26 27  1  0
 27 28  2  0
 29 32  1  0
 29 28  1  0
 30 29  2  0
 31 30  1  0
 31 26  2  0
 32 33  1  0
 33 34  1  0
 34 35  2  0
 36 35  1  0
 36 40  1  0
 37 36  2  0
 38 33  2  0
 38 37  1  0
 39 38  1  0
 41 42  1  0
 42 45  1  0
 42 44  1  0
 43 41  2  0
 46 47  1  0
 46 21  1  0
 48 46  1  0
 52 63  2  0
 53 51  1  1
 54 61  1  0
 54 62  1  0
 54 64  1  0
 55 57  1  0
 55 60  1  0
 55 61  1  0
 56 62  1  0
 57 58  1  0
 57 53  1  0
 58 53  1  0
 59 53  1  0
 60 59  1  0
 62 52  1  0
 64 66  2  0
 65 64  1  0
 67 65  1  0
 68 77  2  0
 68 73  1  0
 69 65  1  0
 69 73  1  0
 70 69  1  0
 71 72  1  0
 71 70  1  0
 72 68  1  0
 73 74  2  0
 74 75  1  0
 76 75  2  0
 77 76  1  0
 78 52  1  0
 78 79  1  0
 78 88  1  0
 79 82  1  0
 80 84  1  0
 80 79  1  0
 81 80  2  0
 84 83  1  0
 86 84  1  0
 86 87  1  0
 86 85  1  0
 88 91  1  1
 88 89  1  0
 90 88  1  0
M  ISO  4  12 100  13 100  50 101  51 101
M  END
>  <TORSDO>  (2) 
F 23

>  <SCORE>  (2) 
-16.580

>  <name>  (2) 
1

>  <ligand_id>  (2) 
1

>  <original_smiles>  (2) 
[H]c1c([H])c([H])c2c(c1[H])C([H])([H])C([H])([H])C([H])([H])C2([H])N([H])C(=O)C1([H])N(C(=O)C([H])(N([H])C(=O)C([H])(N([H])C([H])([H])[H])C([H])([H])[H])C(C([H])([H])[H])(C([H])([H])[H])C([H])([H])[H])C([H])([H])c2c([H])c(OC([H])([H])C([H])([H])c3c([H])c(C([H])([H])[H])c([H])c(C([H])([H])C([H])([H])C([H])([H])C([H])([H])C([H])([H])C(=O)N4C([H])([H])C([H])([H])C([H])([H])C([H])(n5nc(-c6c([H])c([H])c(Oc7c([H])c([H])c(F)c([H])c7F)c([H])c6[H])c(C(=O)N([H])[H])c5N([H])[H])C4([H])[H])c3[H])c([H])c([H])c2C1([H])[H]

>  <smiles>  (2) 
[H]c1c([H])c([H])c2c(c1[H])C([H])([H])C([H])([H])C([H])([H])C2([H])N([H])C(=O)C1([H])N(C(=O)C([H])(N([H])C(=O)C([H])(N([H])C([H])([H])[H])C([H])([H])[H])C(C([H])([H])[H])(C([H])([H])[H])C([H])([H])[H])C([H])([H])c2c([H])c(OC([H])([H])C([H])([H])c3c([H])c(C([H])([H])[H])c([H])c(C([H])([H])C([H])([H])C([H])([H])C([H])([H])C([H])([H])C(=O)N4C([H])([H])C([H])([H])C([H])([H])C([H])(n5nc(-c6c([H])c([H])c(Oc7c([H])c([H])c(F)c([H])c7F)c([H])c6[H])c(C(=O)N([H])[H])c5N([H])[H])C4([H])[H])c3[H])c([H])c([H])c2C1([H])[H]

$$$$
2:0:0
     RDKit          3D

 90 98  0  0  1  0  0  0  0  0999 V2000
  -30.2270  -23.6760   20.2140 C   0  0  0  0  0  3  0  0  0  0  0  0
  -30.6040  -22.3130   20.4200 C   0  0  0  0  0  0  0  0  0  0  0  0
  -28.8670  -23.7720   20.3410 C   0  0  0  0  0  0  0  0  0  0  0  0
  -29.5280  -21.5020   20.6830 C   0  0  0  0  0  0  0  0  0  0  0  0
  -27.0610  -22.0920   20.9860 C   0  0  0  0  0  1  0  0  0  0  0  0
  -28.4450  -22.4360   20.6710 N   0  0  0  0  0  0  0  0  0  0  0  0
  -32.2370  -21.7620   20.4020 Cl  0  0  0  0  0  0  0  0  0  0  0  0
  -29.5280  -19.9860   21.1430 C   0  0  0  0  0  2  0  0  0  0  0  0
  -29.5440  -18.6790   20.1840 C   0  0  0  0  0  2  0  0  0  0  0  0
  -30.2310  -17.3410   20.7980 C   0  0  0  0  0  2  0  0  0  0  0  0
  -30.5880  -14.8070   20.1490 C   0  0  0  0  0  0  0  0  0  0  0  0
  -30.3660  -12.5520   19.0930 C   0  0  0  0  0  2  0  0  0  0  0  0
  -29.3880  -12.6180   17.9000 C   0  0  0  0  0  2  0  0  0  0  0  0
  -27.9330  -12.4480   18.3780 C   0  0  0  0  0  2  0  0  0  0  0  0
  -27.5950  -13.3360   19.6060 C   0  0  0  0  0  3  0  0  0  0  0  0
  -28.6830  -13.2330   20.6950 C   0  0  0  0  0  2  0  0  0  0  0  0
  -29.9590  -13.5900   20.0640 N   0  0  0  0  0  0  0  0  0  0  0  0
  -31.7720  -14.9170   19.8190 O   0  0  0  0  0  0  0  0  0  0  0  0
  -29.8120  -15.9200   20.4270 N   0  0  0  0  0  0  0  0  0  0  0  0
  -28.8320  -15.7140   20.5530 H   0  0  0  0  0  0  0  0  0  0  0  0
  -25.2330  -13.9360   20.4040 C   0  0  0  0  0  0  0  0  0  0  0  0
  -24.1780  -13.1650   20.8100 C   0  0  0  0  0  0  0  0  0  0  0  0
  -24.6370  -11.8120   20.7660 C   0  0  0  0  0  0  0  0  0  0  0  0
  -26.2650  -13.0530   20.1370 N   0  0  0  0  0  0  0  0  0  0  0  0
  -25.9180  -11.7710   20.4200 N   0  0  0  0  0  0  0  0  0  0  0  0
  -23.9150  -10.5490   20.9740 C   0  0  0  0  0  0  0  0  0  0  0  0
  -24.3690   -9.5800   21.8950 C   0  0  0  0  0  3  0  0  0  0  0  0
  -23.6450   -8.3850   22.0910 C   0  0  0  0  0  3  0  0  0  0  0  0
  -22.4540   -8.1490   21.3640 C   0  0  0  0  0  0  0  0  0  0  0  0
  -22.0190   -9.1070   20.4300 C   0  0  0  0  0  3  0  0  0  0  0  0
  -22.7440  -10.2940   20.2340 C   0  0  0  0  0  3  0  0  0  0  0  0
  -21.7000   -7.0050   21.4680 O   0  0  0  0  0  0  0  0  0  0  0  0
  -21.6770   -6.2620   22.6210 C   0  0  0  0  0  0  0  0  0  0  0  0
  -21.2740   -6.8160   23.8570 C   0  0  0  0  0  3  0  0  0  0  0  0
  -21.1990   -5.9990   25.0020 C   0  0  0  0  0  3  0  0  0  0  0  0
  -21.5180   -4.6310   24.9140 C   0  0  0  0  0  0  0  0  0  0  0  0
  -21.9140   -4.0770   23.6840 C   0  0  0  0  0  3  0  0  0  0  0  0
  -21.9910   -4.8910   22.5410 C   0  0  0  0  0  0  0  0  0  0  0  0
  -22.3520   -4.3480   21.3520 F   0  0  0  0  0  0  0  0  0  0  0  0
  -21.4390   -3.8420   26.0130 F   0  0  0  0  0  0  0  0  0  0  0  0
  -22.7880  -13.6450   21.1200 C   0  0  0  0  0  0  0  0  0  0  0  0
  -22.0820  -12.9460   22.0020 N   0  0  0  0  0  0  0  0  0  0  0  0
  -22.3380  -14.6720   20.6160 O   0  0  0  0  0  0  0  0  0  0  0  0
  -22.4610  -12.1140   22.4310 H   0  0  0  0  0  0  0  0  0  0  0  0
  -21.1490  -13.2440   22.2490 H   0  0  0  0  0  0  0  0  0  0  0  0
  -25.3950  -15.3060   20.2120 N   0  0  0  0  0  0  0  0  0  0  0  0
  -24.6250  -15.9570   20.3140 H   0  0  0  0  0  0  0  0  0  0  0  0
  -26.2060  -15.7180   19.7700 H   0  0  0  0  0  0  0  0  0  0  0  0
  -27.8660  -24.9530   20.0740 C   0  0  0  0  0  2  0  0  0  0  0  0
  -28.2770  -26.3900   20.2460 O   0  0  0  0  0  0  0  0  0  0  0  0
  -24.6120  -31.8980   23.2390 C   0  0  0  0  0  0  0  0  0  0  0  0
  -27.2150  -27.3330   20.1560 C   0  0  0  0  0  0  0  0  0  0  0  0
  -23.4190  -30.5200   21.5850 C   0  0  0  0  0  3  0  0  0  0  0  0
  -24.8700  -28.9960   20.1500 C   0  0  0  0  0  0  0  0  0  0  0  0
  -25.9660  -30.8360   21.4080 C   0  0  0  0  0  2  0  0  0  0  0  0
  -26.0490  -29.4630   20.7450 C   0  0  0  0  0  0  0  0  0  0  0  0
  -27.2330  -28.6510   20.7260 C   0  0  0  0  0  3  0  0  0  0  0  0
  -26.0030  -26.9500   19.5220 C   0  0  0  0  0  3  0  0  0  0  0  0
  -24.8530  -27.7470   19.5280 C   0  0  0  0  0  3  0  0  0  0  0  0
  -23.6420  -29.8740   20.1960 C   0  0  0  0  0  2  0  0  0  0  0  0
  -24.6850  -31.1000   22.1340 N   0  0  0  0  0  0  0  0  0  0  0  0
  -23.5280  -32.1660   23.7730 O   0  0  0  0  0  0  0  0  0  0  0  0
  -22.7500  -29.4880   22.5270 C   0  0  0  0  0  0  0  0  0  0  0  0
  -21.4240  -29.3130   22.3950 N   0  0  0  0  0  0  0  0  0  0  0  0
  -23.4240  -28.8500   23.3400 O   0  0  0  0  0  0  0  0  0  0  0  0
  -20.9420  -29.8750   21.7080 H   0  0  0  0  0  0  0  0  0  0  0  0
  -18.0380  -28.1250   22.8670 C   0  0  0  0  0  0  0  0  0  0  0  0
  -20.5960  -28.3720   23.1510 C   0  0  0  0  0  3  0  0  0  0  0  0
  -20.6980  -26.9480   22.5590 C   0  0  0  0  0  2  0  0  0  0  0  0
  -19.5990  -26.6410   21.5370 C   0  0  0  0  0  2  0  0  0  0  0  0
  -18.2140  -26.7830   22.1770 C   0  0  0  0  0  2  0  0  0  0  0  0
  -19.1570  -28.8790   23.3070 C   0  0  0  0  0  0  0  0  0  0  0  0
  -18.9380  -30.1390   23.9070 C   0  0  0  0  0  3  0  0  0  0  0  0
  -17.6330  -30.6390   24.0770 C   0  0  0  0  0  3  0  0  0  0  0  0
  -16.5290  -29.8820   23.6500 C   0  0  0  0  0  3  0  0  0  0  0  0
  -16.7310  -28.6280   23.0480 C   0  0  0  0  0  3  0  0  0  0  0  0
  -25.8910  -32.5270   23.8710 C   0  0  0  0  0  3  0  0  0  0  0  0
  -26.3900  -31.7510   25.1500 C   0  0  1  0  0  0  0  0  0  0  0  0
  -25.2870  -31.5230   26.2110 C   0  0  0  0  0  1  0  0  0  0  0  0
  -26.9640  -30.3710   24.7590 C   0  0  0  0  0  1  0  0  0  0  0  0
  -27.5380  -32.5370   25.8230 C   0  0  0  0  0  1  0  0  0  0  0  0
  -25.5880  -33.9280   24.1980 N   0  0  0  0  0  0  0  0  0  0  0  0
  -25.9170  -34.9780   23.4380 C   0  0  0  0  0  0  0  0  0  0  0  0
  -26.5800  -34.8690   22.4020 O   0  0  0  0  0  0  0  0  0  0  0  0
  -25.0020  -34.0840   25.0060 H   0  0  0  0  0  0  0  0  0  0  0  0
  -24.1820  -36.7640   23.0870 C   0  0  0  0  0  1  0  0  0  0  0  0
  -25.4310  -36.3670   23.8940 C   0  0  0  0  0  3  0  0  0  0  0  0
  -27.5730  -37.2530   24.7040 C   0  0  0  0  0  1  0  0  0  0  0  0
  -26.4590  -37.4240   23.7740 N   0  0  0  0  0  0  0  0  0  0  0  0
  -26.0520  -38.3420   23.9310 H   0  0  0  0  0  0  0  0  0  0  0  0
  1  3  2  0
  1  2  1  0
  2  4  2  0
  3  6  1  0
  4  8  1  0
  6  4  1  0
  6  5  1  0
  7  2  1  0
  9 10  1  0
  9  8  1  0
 11 19  1  0
 12 17  1  0
 13 14  1  0
 13 12  1  0
 15 14  1  0
 15 24  1  0
 15 16  1  0
 17 11  1  0
 17 16  1  0
 18 11  2  0
 19 20  1  0
 19 10  1  0
 21 22  2  0
 22 41  1  0
 23 22  1  0
 23 26  1  0
 24 21  1  0
 24 25  1  0
 25 23  2  0
 26 27  1  0
 27 28  2  0
 29 32  1  0
 29 28  1  0
 30 29  2  0
 31 30  1  0
 31 26  2  0
 32 33  1  0
 33 34  1  0
 34 35  2  0
 36 35  1  0
 36 40  1  0
 37 36  2  0
 38 33  2  0
 38 37  1  0
 39 38  1  0
 41 42  1  0
 42 45  1  0
 42 44  1  0
 43 41  2  0
 46 47  1  0
 46 21  1  0
 48 46  1  0
 49 50  1  0
 49  3  1  0
 51 62  2  0
 52 50  1  0
 52 57  1  0
 53 61  1  0
 53 63  1  0
 54 60  1  0
 54 56  1  0
 55 61  1  0
 56 55  1  0
 57 56  2  0
 58 59  1  0
 58 52  2  0
 59 54  2  0
 60 53  1  0
 61 51  1  0
 63 65  2  0
 64 63  1  0
 66 64  1  0
 67 76  2  0
 67 72  1  0
 68 64  1  0
 68 72  1  0
 69 68  1  0
 70 71  1  0
 70 69  1  0
 71 67  1  0
 72 73  2  0
 73 74  1  0
 75 74  2  0
 76 75  1  0
 77 51  1  0
 77 82  1  0
 77 78  1  0
 78 81  1  1
 78 79  1  0
 80 78  1  0
 82 85  1  0
 83 87  1  0
 83 82  1  0
 84 83  2  0
 87 86  1  0
 89 87  1  0
 89 90  1  0
 89 88  1  0
M  ISO  4  11 100  19 100  49 101  50 101
M  END
>  <TORSDO>  (3) 
F 20

>  <SCORE>  (3) 
-13.499

>  <name>  (3) 
2

>  <ligand_id>  (3) 
2

>  <original_smiles>  (3) 
[H]c1c([H])c([H])c2c(c1[H])C([H])([H])C([H])([H])C([H])([H])C2([H])N([H])C(=O)C1([H])N(C(=O)C([H])(N([H])C(=O)C([H])(N([H])C([H])([H])[H])C([H])([H])[H])C(C([H])([H])[H])(C([H])([H])[H])C([H])([H])[H])C([H])([H])c2c([H])c(OC([H])([H])c3c([H])c(Cl)c(C([H])([H])C([H])([H])C([H])([H])N([H])C(=O)N4C([H])([H])C([H])([H])C([H])([H])C([H])(n5nc(-c6c([H])c([H])c(Oc7c([H])c([H])c(F)c([H])c7F)c([H])c6[H])c(C(=O)N([H])[H])c5N([H])[H])C4([H])[H])n3C([H])([H])[H])c([H])c([H])c2C1([H])[H]

>  <smiles>  (3) 
[H]c1c([H])c([H])c2c(c1[H])C([H])([H])C([H])([H])C([H])([H])C2([H])N([H])C(=O)C1([H])N(C(=O)C([H])(N([H])C(=O)C([H])(N([H])C([H])([H])[H])C([H])([H])[H])C(C([H])([H])[H])(C([H])([H])[H])C([H])([H])[H])C([H])([H])c2c([H])c(OC([H])([H])c3c([H])c(Cl)c(C([H])([H])C([H])([H])C([H])([H])N([H])C(=O)N4C([H])([H])C([H])([H])C([H])([H])C([H])(n5nc(-c6c([H])c([H])c(Oc7c([H])c([H])c(F)c([H])c7F)c([H])c6[H])c(C(=O)N([H])[H])c5N([H])[H])C4([H])[H])n3C([H])([H])[H])c([H])c([H])c2C1([H])[H]

$$$$
3:0:0
     RDKit          3D

 93101  0  0  1  0  0  0  0  0999 V2000
  -30.7320  -22.5870   20.3150 C   0  0  0  0  0  3  0  0  0  0  0  0
  -29.2370  -20.7830   20.9260 C   0  0  0  0  0  3  0  0  0  0  0  0
  -29.4640  -22.1780   20.7460 C   0  0  0  0  0  0  0  0  0  0  0  0
  -31.7700  -21.6590   20.1290 C   0  0  0  0  0  0  0  0  0  0  0  0
  -30.2590  -19.7970   20.7410 C   0  0  0  0  0  0  0  0  0  0  0  0
  -31.5650  -20.2640   20.3630 C   0  0  0  0  0  0  0  0  0  0  0  0
  -33.1200  -22.2320   19.7160 C   0  0  0  0  0  1  0  0  0  0  0  0
  -33.3510  -18.8720   21.5850 C   0  0  0  0  0  1  0  0  0  0  0  0
  -32.7750  -19.3300   20.2320 C   0  0  0  0  0  2  0  0  0  0  0  0
  -28.4430  -23.2650   21.1500 C   0  0  0  0  0  2  0  0  0  0  0  0
  -27.7550  -24.1200   20.0350 C   0  0  0  0  0  2  0  0  0  0  0  0
  -28.4330  -25.4310   19.4950 C   0  0  0  0  0  2  0  0  0  0  0  0
  -28.2950  -26.6750   20.2310 O   0  0  0  0  0  0  0  0  0  0  0  0
  -24.5190  -31.9360   23.2470 C   0  0  0  0  0  0  0  0  0  0  0  0
  -27.1340  -27.4380   20.1650 C   0  0  0  0  0  0  0  0  0  0  0  0
  -23.3100  -30.5430   21.6000 C   0  0  0  0  0  3  0  0  0  0  0  0
  -24.7570  -28.9990   20.1700 C   0  0  0  0  0  0  0  0  0  0  0  0
  -25.8440  -30.8700   21.4200 C   0  0  0  0  0  2  0  0  0  0  0  0
  -25.9170  -29.4980   20.7710 C   0  0  0  0  0  0  0  0  0  0  0  0
  -27.1040  -28.7220   20.7720 C   0  0  0  0  0  3  0  0  0  0  0  0
  -25.9560  -26.9760   19.5370 C   0  0  0  0  0  3  0  0  0  0  0  0
  -24.7740  -27.7380   19.5520 C   0  0  0  0  0  3  0  0  0  0  0  0
  -23.5190  -29.8690   20.2190 C   0  0  0  0  0  2  0  0  0  0  0  0
  -24.5760  -31.1350   22.1440 N   0  0  0  0  0  0  0  0  0  0  0  0
  -23.4390  -32.2160   23.7840 O   0  0  0  0  0  0  0  0  0  0  0  0
  -22.6520  -29.5240   22.5600 C   0  0  0  0  0  0  0  0  0  0  0  0
  -21.3280  -29.3390   22.4240 N   0  0  0  0  0  0  0  0  0  0  0  0
  -23.3300  -28.9040   23.3820 O   0  0  0  0  0  0  0  0  0  0  0  0
  -20.8420  -29.8970   21.7350 H   0  0  0  0  0  0  0  0  0  0  0  0
  -17.9490  -28.1500   22.9110 C   0  0  0  0  0  0  0  0  0  0  0  0
  -20.5080  -28.4020   23.1900 C   0  0  0  0  0  3  0  0  0  0  0  0
  -20.6080  -26.9710   22.6120 C   0  0  0  0  0  2  0  0  0  0  0  0
  -19.5080  -26.6530   21.5950 C   0  0  0  0  0  2  0  0  0  0  0  0
  -18.1240  -26.8000   22.2340 C   0  0  0  0  0  2  0  0  0  0  0  0
  -19.0690  -28.9070   23.3460 C   0  0  0  0  0  0  0  0  0  0  0  0
  -18.8540  -30.1700   23.9390 C   0  0  0  0  0  3  0  0  0  0  0  0
  -17.5500  -30.6740   24.1080 C   0  0  0  0  0  3  0  0  0  0  0  0
  -16.4440  -29.9130   23.6900 C   0  0  0  0  0  3  0  0  0  0  0  0
  -16.6440  -28.6550   23.0960 C   0  0  0  0  0  3  0  0  0  0  0  0
  -25.8070  -32.5620   23.8690 C   0  0  0  0  0  3  0  0  0  0  0  0
  -25.5110  -33.9670   24.1800 N   0  0  0  0  0  0  0  0  0  0  0  0
  -25.8680  -35.0080   23.4180 C   0  0  0  0  0  0  0  0  0  0  0  0
  -26.5550  -34.8880   22.4000 O   0  0  0  0  0  0  0  0  0  0  0  0
  -24.9050  -34.1370   24.9700 H   0  0  0  0  0  0  0  0  0  0  0  0
  -24.1790  -36.8250   23.0100 C   0  0  0  0  0  1  0  0  0  0  0  0
  -25.3890  -36.4050   23.8570 C   0  0  0  0  0  3  0  0  0  0  0  0
  -27.5080  -37.2630   24.7520 C   0  0  0  0  0  1  0  0  0  0  0  0
  -26.4400  -37.4430   23.7720 N   0  0  0  0  0  0  0  0  0  0  0  0
  -26.0440  -38.3690   23.9000 H   0  0  0  0  0  0  0  0  0  0  0  0
  -26.3100  -31.8030   25.1590 C   0  0  1  0  0  0  0  0  0  0  0  0
  -25.2050  -31.5860   26.2200 C   0  0  0  0  0  1  0  0  0  0  0  0
  -26.8910  -30.4190   24.7890 C   0  0  0  0  0  1  0  0  0  0  0  0
  -27.4560  -32.6020   25.8220 C   0  0  0  0  0  1  0  0  0  0  0  0
  -29.8880  -18.3060   21.0840 C   0  0  0  0  0  3  0  0  0  0  0  0
  -30.4600  -17.1170   20.2270 C   0  0  0  0  0  3  0  0  0  0  0  0
  -30.6980  -14.6220   20.1940 C   0  0  0  0  0  0  0  0  0  0  0  0
  -30.3470  -12.4500   19.0810 C   0  0  0  0  0  2  0  0  0  0  0  0
  -29.3730  -12.6660   17.9040 C   0  0  0  0  0  2  0  0  0  0  0  0
  -27.9120  -12.5330   18.3790 C   0  0  0  0  0  2  0  0  0  0  0  0
  -27.6190  -13.3510   19.6670 C   0  0  0  0  0  3  0  0  0  0  0  0
  -28.7160  -13.1510   20.7380 C   0  0  0  0  0  2  0  0  0  0  0  0
  -30.0110  -13.4470   20.1140 N   0  0  0  0  0  0  0  0  0  0  0  0
  -31.8460  -14.7290   19.7570 O   0  0  0  0  0  0  0  0  0  0  0  0
  -29.9960  -15.7330   20.5400 N   0  0  0  0  0  0  0  0  0  0  0  0
  -29.0440  -15.6050   20.8540 H   0  0  0  0  0  0  0  0  0  0  0  0
  -25.2540  -13.9380   20.4830 C   0  0  0  0  0  0  0  0  0  0  0  0
  -24.1990  -13.1560   20.8730 C   0  0  0  0  0  0  0  0  0  0  0  0
  -24.6580  -11.8050   20.7960 C   0  0  0  0  0  0  0  0  0  0  0  0
  -26.2880  -13.0610   20.1940 N   0  0  0  0  0  0  0  0  0  0  0  0
  -25.9370  -11.7720   20.4430 N   0  0  0  0  0  0  0  0  0  0  0  0
  -23.9360  -10.5400   20.9840 C   0  0  0  0  0  0  0  0  0  0  0  0
  -24.3650   -9.5770   21.9230 C   0  0  0  0  0  3  0  0  0  0  0  0
  -23.6420   -8.3770   22.0990 C   0  0  0  0  0  3  0  0  0  0  0  0
  -22.4760   -8.1310   21.3360 C   0  0  0  0  0  0  0  0  0  0  0  0
  -22.0670   -9.0830   20.3850 C   0  0  0  0  0  3  0  0  0  0  0  0
  -22.7910  -10.2740   20.2070 C   0  0  0  0  0  3  0  0  0  0  0  0
  -21.7270   -6.9830   21.4200 O   0  0  0  0  0  0  0  0  0  0  0  0
  -21.6360   -6.2670   22.5870 C   0  0  0  0  0  0  0  0  0  0  0  0
  -21.1320   -6.8400   23.7750 C   0  0  0  0  0  3  0  0  0  0  0  0
  -20.9890   -6.0500   24.9320 C   0  0  0  0  0  3  0  0  0  0  0  0
  -21.3400   -4.6870   24.9040 C   0  0  0  0  0  0  0  0  0  0  0  0
  -21.8370   -4.1130   23.7200 C   0  0  0  0  0  3  0  0  0  0  0  0
  -21.9810   -4.9010   22.5640 C   0  0  0  0  0  0  0  0  0  0  0  0
  -22.4390   -4.3370   21.4210 F   0  0  0  0  0  0  0  0  0  0  0  0
  -21.1950   -3.9250   26.0130 F   0  0  0  0  0  0  0  0  0  0  0  0
  -22.8130  -13.6290   21.2030 C   0  0  0  0  0  0  0  0  0  0  0  0
  -22.1130  -12.9090   22.0730 N   0  0  0  0  0  0  0  0  0  0  0  0
  -22.3610  -14.6680   20.7250 O   0  0  0  0  0  0  0  0  0  0  0  0
  -22.4940  -12.0660   22.4770 H   0  0  0  0  0  0  0  0  0  0  0  0
  -21.1820  -13.2030   22.3350 H   0  0  0  0  0  0  0  0  0  0  0  0
  -25.4120  -15.3100   20.3270 N   0  0  0  0  0  0  0  0  0  0  0  0
  -24.6440  -15.9570   20.4720 H   0  0  0  0  0  0  0  0  0  0  0  0
  -26.2370  -15.7570   19.9470 H   0  0  0  0  0  0  0  0  0  0  0  0
  1  3  1  0
  3  2  2  0
  3 10  1  0
  4  1  2  0
  4  6  1  0
  5  2  1  0
  5 54  1  0
  6  5  2  0
  7  4  1  0
  9  6  1  0
  9  8  1  0
 11 10  1  0
 12 11  1  0
 12 13  1  0
 14 25  2  0
 15 13  1  0
 15 20  1  0
 16 24  1  0
 16 26  1  0
 17 23  1  0
 17 19  1  0
 18 24  1  0
 19 20  2  0
 19 18  1  0
 21 22  1  0
 21 15  2  0
 22 17  2  0
 23 16  1  0
 24 14  1  0
 26 28  2  0
 27 26  1  0
 29 27  1  0
 30 39  2  0
 30 35  1  0
 31 27  1  0
 31 35  1  0
 32 31  1  0
 33 34  1  0
 33 32  1  0
 34 30  1  0
 35 36  2  0
 36 37  1  0
 38 37  2  0
 39 38  1  0
 40 14  1  0
 40 41  1  0
 40 50  1  0
 41 44  1  0
 42 46  1  0
 42 41  1  0
 43 42  2  0
 46 45  1  0
 48 46  1  0
 48 49  1  0
 48 47  1  0
 50 53  1  1
 50 51  1  0
 52 50  1  0
 55 64  1  0
 55 54  2  0
 56 64  1  0
 57 62  1  0
 58 59  1  0
 58 57  1  0
 60 59  1  0
 60 69  1  0
 60 61  1  0
 62 56  1  0
 62 61  1  0
 63 56  2  0
 64 65  1  0
 66 67  2  0
 67 86  1  0
 68 67  1  0
 68 71  1  0
 69 70  1  0
 69 66  1  0
 70 68  2  0
 71 72  1  0
 72 73  2  0
 74 77  1  0
 74 73  1  0
 75 74  2  0
 76 75  1  0
 76 71  2  0
 77 78  1  0
 78 79  1  0
 79 80  2  0
 81 80  1  0
 81 85  1  0
 82 81  2  0
 83 78  2  0
 83 82  1  0
 84 83  1  0
 86 87  1  0
 87 90  1  0
 87 89  1  0
 88 86  2  0
 91 92  1  0
 91 66  1  0
 93 91  1  0
M  ISO  4  12 101  13 101  56 100  64 100
M  END
>  <TORSDO>  (4) 
F 22

>  <SCORE>  (4) 
-12.969

>  <name>  (4) 
3

>  <ligand_id>  (4) 
3

>  <original_smiles>  (4) 
[H]c1c([H])c([H])c2c(c1[H])C([H])([H])C([H])([H])C([H])([H])C2([H])N([H])C(=O)C1([H])N(C(=O)C([H])(N([H])C(=O)C([H])(N([H])C([H])([H])[H])C([H])([H])[H])C(C([H])([H])[H])(C([H])([H])[H])C([H])([H])[H])C([H])([H])c2c([H])c(OC([H])([H])C([H])([H])C([H])([H])c3c([H])c(C([H])([H])[H])c(C([H])([H])C([H])([H])[H])c(C([H])([H])C([H])([H])N([H])C(=O)N4C([H])([H])C([H])([H])C([H])([H])C([H])(n5nc(-c6c([H])c([H])c(Oc7c([H])c([H])c(F)c([H])c7F)c([H])c6[H])c(C(=O)N([H])[H])c5N([H])[H])C4([H])[H])c3[H])c([H])c([H])c2C1([H])[H]

>  <smiles>  (4) 
[H]c1c([H])c([H])c2c(c1[H])C([H])([H])C([H])([H])C([H])([H])C2([H])N([H])C(=O)C1([H])N(C(=O)C([H])(N([H])C(=O)C([H])(N([H])C([H])([H])[H])C([H])([H])[H])C(C([H])([H])[H])(C([H])([H])[H])C([H])([H])[H])C([H])([H])c2c([H])c(OC([H])([H])C([H])([H])C([H])([H])c3c([H])c(C([H])([H])[H])c(C([H])([H])C([H])([H])[H])c(C([H])([H])C([H])([H])N([H])C(=O)N4C([H])([H])C([H])([H])C([H])([H])C([H])(n5nc(-c6c([H])c([H])c(Oc7c([H])c([H])c(F)c([H])c7F)c([H])c6[H])c(C(=O)N([H])[H])c5N([H])[H])C4([H])[H])c3[H])c([H])c([H])c2C1([H])[H]

$$$$
4:0:0
     RDKit          3D

 92100  0  0  1  0  0  0  0  0999 V2000
  -27.6780  -21.9950   18.7820 C   0  0  0  0  0  3  0  0  0  0  0  0
  -27.3100  -24.3000   18.0820 C   0  0  0  0  0  3  0  0  0  0  0  0
  -29.0940  -23.7740   19.6570 C   0  0  0  0  0  3  0  0  0  0  0  0
  -26.9530  -22.9400   18.0260 C   0  0  0  0  0  0  0  0  0  0  0  0
  -28.7670  -22.4020   19.5890 C   0  0  0  0  0  0  0  0  0  0  0  0
  -28.3660  -24.7260   18.9120 C   0  0  0  0  0  0  0  0  0  0  0  0
  -25.7940  -22.5050   17.1520 C   0  0  0  0  0  1  0  0  0  0  0  0
  -29.6020  -21.4070   20.3920 C   0  0  0  0  0  2  0  0  0  0  0  0
  -29.4460  -19.9260   19.9900 C   0  0  0  0  0  2  0  0  0  0  0  0
  -30.3720  -18.9950   20.7890 C   0  0  0  0  0  2  0  0  0  0  0  0
  -30.1350  -17.5130   20.4600 C   0  0  0  0  0  2  0  0  0  0  0  0
  -31.0160  -16.5610   21.2890 C   0  0  0  0  0  2  0  0  0  0  0  0
  -31.0270  -14.3390   20.1610 C   0  0  0  0  0  0  0  0  0  0  0  0
  -30.5590  -12.2660   18.9150 C   0  0  0  0  0  2  0  0  0  0  0  0
  -29.5560  -12.5350   17.7770 C   0  0  0  0  0  2  0  0  0  0  0  0
  -28.1060  -12.4310   18.2860 C   0  0  0  0  0  2  0  0  0  0  0  0
  -27.8680  -13.2470   19.5830 C   0  0  0  0  0  3  0  0  0  0  0  0
  -28.9690  -12.9520   20.6250 C   0  0  0  0  0  2  0  0  0  0  0  0
  -30.2840  -13.2130   20.0050 N   0  0  0  0  0  0  0  0  0  0  0  0
  -32.0210  -14.6020   19.4790 O   0  0  0  0  0  0  0  0  0  0  0  0
  -30.5830  -15.1800   21.1000 N   0  0  0  0  0  0  0  0  0  0  0  0
  -29.8000  -14.8620   21.6530 H   0  0  0  0  0  0  0  0  0  0  0  0
  -25.5290  -13.9120   20.4400 C   0  0  0  0  0  0  0  0  0  0  0  0
  -24.4570  -13.1630   20.8460 C   0  0  0  0  0  0  0  0  0  0  0  0
  -24.8690  -11.7990   20.7460 C   0  0  0  0  0  0  0  0  0  0  0  0
  -26.5300  -13.0060   20.1250 N   0  0  0  0  0  0  0  0  0  0  0  0
  -26.1370  -11.7280   20.3620 N   0  0  0  0  0  0  0  0  0  0  0  0
  -24.1120  -10.5550   20.9390 C   0  0  0  0  0  0  0  0  0  0  0  0
  -24.5400   -9.5660   21.8520 C   0  0  0  0  0  3  0  0  0  0  0  0
  -23.7870   -8.3860   22.0340 C   0  0  0  0  0  3  0  0  0  0  0  0
  -22.5920   -8.1870   21.3040 C   0  0  0  0  0  0  0  0  0  0  0  0
  -22.1820   -9.1640   20.3790 C   0  0  0  0  0  3  0  0  0  0  0  0
  -22.9350  -10.3370   20.1960 C   0  0  0  0  0  3  0  0  0  0  0  0
  -21.8080   -7.0610   21.3960 O   0  0  0  0  0  0  0  0  0  0  0  0
  -21.7400   -6.3250   22.5510 C   0  0  0  0  0  0  0  0  0  0  0  0
  -21.2880   -6.8860   23.7660 C   0  0  0  0  0  3  0  0  0  0  0  0
  -21.1670   -6.0770   24.9130 C   0  0  0  0  0  3  0  0  0  0  0  0
  -21.4870   -4.7070   24.8470 C   0  0  0  0  0  0  0  0  0  0  0  0
  -21.9320   -4.1460   23.6370 C   0  0  0  0  0  3  0  0  0  0  0  0
  -22.0550   -4.9530   22.4920 C   0  0  0  0  0  0  0  0  0  0  0  0
  -22.4630   -4.4020   21.3230 F   0  0  0  0  0  0  0  0  0  0  0  0
  -21.3630   -3.9280   25.9460 F   0  0  0  0  0  0  0  0  0  0  0  0
  -23.0940  -13.6750   21.2180 C   0  0  0  0  0  0  0  0  0  0  0  0
  -22.3920  -12.9700   22.0980 N   0  0  0  0  0  0  0  0  0  0  0  0
  -22.6630  -14.7340   20.7620 O   0  0  0  0  0  0  0  0  0  0  0  0
  -22.7540  -12.1110   22.4860 H   0  0  0  0  0  0  0  0  0  0  0  0
  -21.4800  -13.2920   22.3860 H   0  0  0  0  0  0  0  0  0  0  0  0
  -25.7310  -15.2820   20.2960 N   0  0  0  0  0  0  0  0  0  0  0  0
  -24.9970  -15.9610   20.4680 H   0  0  0  0  0  0  0  0  0  0  0  0
  -26.5860  -15.7020   19.9530 H   0  0  0  0  0  0  0  0  0  0  0  0
  -28.7500  -26.1950   18.9660 C   0  0  0  0  0  2  0  0  0  0  0  0
  -28.3810  -26.8500   20.1810 O   0  0  0  0  0  0  0  0  0  0  0  0
  -24.5350  -31.9690   23.2550 C   0  0  0  0  0  0  0  0  0  0  0  0
  -27.1820  -27.5240   20.1950 C   0  0  0  0  0  0  0  0  0  0  0  0
  -23.3220  -30.5540   21.6270 C   0  0  0  0  0  3  0  0  0  0  0  0
  -24.7720  -29.0010   20.2170 C   0  0  0  0  0  0  0  0  0  0  0  0
  -25.8440  -30.9140   21.4190 C   0  0  0  0  0  2  0  0  0  0  0  0
  -25.9270  -29.5350   20.8010 C   0  0  0  0  0  0  0  0  0  0  0  0
  -27.1290  -28.7970   20.8020 C   0  0  0  0  0  3  0  0  0  0  0  0
  -26.0030  -26.9890   19.6290 C   0  0  0  0  0  3  0  0  0  0  0  0
  -24.8010  -27.7200   19.6390 C   0  0  0  0  0  3  0  0  0  0  0  0
  -23.5250  -29.8560   20.2560 C   0  0  0  0  0  2  0  0  0  0  0  0
  -24.5840  -31.1600   22.1590 N   0  0  0  0  0  0  0  0  0  0  0  0
  -23.4570  -32.2490   23.7960 O   0  0  0  0  0  0  0  0  0  0  0  0
  -22.6740  -29.5430   22.5990 C   0  0  0  0  0  0  0  0  0  0  0  0
  -21.3600  -29.3150   22.4350 N   0  0  0  0  0  0  0  0  0  0  0  0
  -23.3490  -28.9620   23.4530 O   0  0  0  0  0  0  0  0  0  0  0  0
  -20.8760  -29.8350   21.7170 H   0  0  0  0  0  0  0  0  0  0  0  0
  -18.0210  -28.0000   22.8270 C   0  0  0  0  0  0  0  0  0  0  0  0
  -20.5490  -28.3760   23.2070 C   0  0  0  0  0  3  0  0  0  0  0  0
  -20.7370  -26.9270   22.7000 C   0  0  0  0  0  2  0  0  0  0  0  0
  -19.7000  -26.5160   21.6490 C   0  0  0  0  0  2  0  0  0  0  0  0
  -18.2830  -26.6310   22.2200 C   0  0  0  0  0  2  0  0  0  0  0  0
  -19.0860  -28.8250   23.2750 C   0  0  0  0  0  0  0  0  0  0  0  0
  -18.7870  -30.1030   23.7960 C   0  0  0  0  0  3  0  0  0  0  0  0
  -17.4580  -30.5570   23.8750 C   0  0  0  0  0  3  0  0  0  0  0  0
  -16.4070  -29.7290   23.4440 C   0  0  0  0  0  3  0  0  0  0  0  0
  -16.6890  -28.4520   22.9260 C   0  0  0  0  0  3  0  0  0  0  0  0
  -25.8270  -32.6010   23.8650 C   0  0  0  0  0  3  0  0  0  0  0  0
  -25.5200  -33.9990   24.1920 N   0  0  0  0  0  0  0  0  0  0  0  0
  -25.8500  -35.0490   23.4280 C   0  0  0  0  0  0  0  0  0  0  0  0
  -26.5160  -34.9430   22.3940 O   0  0  0  0  0  0  0  0  0  0  0  0
  -24.9270  -34.1570   24.9940 H   0  0  0  0  0  0  0  0  0  0  0  0
  -24.1260  -36.8430   23.0620 C   0  0  0  0  0  1  0  0  0  0  0  0
  -25.3610  -36.4360   23.8810 C   0  0  0  0  0  3  0  0  0  0  0  0
  -27.4840  -37.3230   24.7370 C   0  0  0  0  0  1  0  0  0  0  0  0
  -26.3950  -37.4880   23.7780 N   0  0  0  0  0  0  0  0  0  0  0  0
  -25.9870  -38.4080   23.9180 H   0  0  0  0  0  0  0  0  0  0  0  0
  -26.3560  -31.8310   25.1380 C   0  0  1  0  0  0  0  0  0  0  0  0
  -25.2690  -31.5820   26.2100 C   0  0  0  0  0  1  0  0  0  0  0  0
  -26.9440  -30.4590   24.7360 C   0  0  0  0  0  1  0  0  0  0  0  0
  -27.5050  -32.6320   25.7950 C   0  0  0  0  0  1  0  0  0  0  0  0
  1  5  1  0
  2  6  2  0
  4  2  1  0
  4  1  2  0
  5  3  2  0
  5  8  1  0
  6 51  1  0
  6  3  1  0
  7  4  1  0
  9  8  1  0
  9 10  1  0
 11 10  1  0
 11 12  1  0
 13 21  1  0
 14 19  1  0
 15 16  1  0
 15 14  1  0
 17 16  1  0
 17 26  1  0
 17 18  1  0
 19 13  1  0
 19 18  1  0
 20 13  2  0
 21 12  1  0
 21 22  1  0
 23 24  2  0
 24 43  1  0
 25 24  1  0
 25 28  1  0
 26 27  1  0
 26 23  1  0
 27 25  2  0
 28 29  1  0
 29 30  2  0
 31 34  1  0
 31 30  1  0
 32 31  2  0
 33 32  1  0
 33 28  2  0
 34 35  1  0
 35 36  1  0
 36 37  2  0
 38 37  1  0
 38 42  1  0
 39 38  2  0
 40 35  2  0
 40 39  1  0
 41 40  1  0
 43 44  1  0
 44 47  1  0
 44 46  1  0
 45 43  2  0
 48 23  1  0
 48 49  1  0
 50 48  1  0
 51 52  1  0
 52 54  1  0
 53 64  2  0
 54 59  1  0
 55 63  1  0
 55 65  1  0
 56 62  1  0
 56 58  1  0
 57 63  1  0
 58 59  2  0
 58 57  1  0
 60 61  1  0
 60 54  2  0
 61 56  2  0
 62 55  1  0
 63 53  1  0
 65 67  2  0
 66 65  1  0
 68 66  1  0
 69 78  2  0
 69 74  1  0
 70 66  1  0
 70 74  1  0
 71 70  1  0
 72 73  1  0
 72 71  1  0
 73 69  1  0
 74 75  2  0
 75 76  1  0
 77 76  2  0
 78 77  1  0
 79 53  1  0
 79 80  1  0
 79 89  1  0
 80 83  1  0
 81 85  1  0
 81 80  1  0
 82 81  2  0
 85 84  1  0
 87 85  1  0
 87 88  1  0
 87 86  1  0
 89 92  1  1
 89 90  1  0
 91 89  1  0
M  ISO  4  13 100  21 100  51 101  52 101
M  END
>  <TORSDO>  (5) 
F 22

>  <SCORE>  (5) 
-12.654

>  <name>  (5) 
4

>  <ligand_id>  (5) 
4

>  <original_smiles>  (5) 
[H]c1c([H])c([H])c2c(c1[H])C([H])([H])C([H])([H])C([H])([H])C2([H])N([H])C(=O)C1([H])N(C(=O)C([H])(N([H])C(=O)C([H])(N([H])C([H])([H])[H])C([H])([H])[H])C(C([H])([H])[H])(C([H])([H])[H])C([H])([H])[H])C([H])([H])c2c([H])c(OC([H])([H])c3c([H])c(C([H])([H])[H])c([H])c(C([H])([H])C([H])([H])C([H])([H])C([H])([H])C([H])([H])N([H])C(=O)N4C([H])([H])C([H])([H])C([H])([H])C([H])(n5nc(-c6c([H])c([H])c(Oc7c([H])c([H])c(F)c([H])c7F)c([H])c6[H])c(C(=O)N([H])[H])c5N([H])[H])C4([H])[H])c3[H])c([H])c([H])c2C1([H])[H]

>  <smiles>  (5) 
[H]c1c([H])c([H])c2c(c1[H])C([H])([H])C([H])([H])C([H])([H])C2([H])N([H])C(=O)C1([H])N(C(=O)C([H])(N([H])C(=O)C([H])(N([H])C([H])([H])[H])C([H])([H])[H])C(C([H])([H])[H])(C([H])([H])[H])C([H])([H])[H])C([H])([H])c2c([H])c(OC([H])([H])c3c([H])c(C([H])([H])[H])c([H])c(C([H])([H])C([H])([H])C([H])([H])C([H])([H])C([H])([H])N([H])C(=O)N4C([H])([H])C([H])([H])C([H])([H])C([H])(n5nc(-c6c([H])c([H])c(Oc7c([H])c([H])c(F)c([H])c7F)c([H])c6[H])c(C(=O)N([H])[H])c5N([H])[H])C4([H])[H])c3[H])c([H])c([H])c2C1([H])[H]

$$$$
5:0:0
     RDKit          3D

 93101  0  0  1  0  0  0  0  0999 V2000
  -28.7820  -21.2050   21.9610 C   0  0  0  0  0  3  0  0  0  0  0  0
  -30.5640  -23.3510   22.2090 C   0  0  0  0  0  3  0  0  0  0  0  0
  -28.3240  -22.5200   21.7280 C   0  0  0  0  0  0  0  0  0  0  0  0
  -30.1210  -20.9520   22.3290 C   0  0  0  0  0  0  0  0  0  0  0  0
  -29.2190  -23.6100   21.8620 C   0  0  0  0  0  0  0  0  0  0  0  0
  -31.0190  -22.0370   22.4460 C   0  0  0  0  0  0  0  0  0  0  0  0
  -26.8690  -22.7330   21.3460 C   0  0  0  0  0  1  0  0  0  0  0  0
  -32.6740  -21.7900   22.8780 Cl  0  0  0  0  0  0  0  0  0  0  0  0
  -30.5470  -19.5150   22.6160 C   0  0  0  0  0  2  0  0  0  0  0  0
  -31.2920  -18.8460   21.4410 C   0  0  0  0  0  2  0  0  0  0  0  0
  -31.3360  -17.3030   21.5270 C   0  0  0  0  0  2  0  0  0  0  0  0
  -30.0260  -16.6640   21.0190 C   0  0  0  0  0  2  0  0  0  0  0  0
  -30.5390  -14.3500   20.1980 C   0  0  0  0  0  0  0  0  0  0  0  0
  -30.1560  -12.2740   18.9220 C   0  0  0  0  0  2  0  0  0  0  0  0
  -29.1350  -12.5490   17.7990 C   0  0  0  0  0  2  0  0  0  0  0  0
  -27.6890  -12.4000   18.3130 C   0  0  0  0  0  2  0  0  0  0  0  0
  -27.4440  -13.1650   19.6420 C   0  0  0  0  0  3  0  0  0  0  0  0
  -28.5630  -12.8530   20.6620 C   0  0  0  0  0  2  0  0  0  0  0  0
  -29.8610  -13.1820   20.0400 N   0  0  0  0  0  0  0  0  0  0  0  0
  -31.5400  -14.6510   19.5410 O   0  0  0  0  0  0  0  0  0  0  0  0
  -29.9740  -15.2010   21.0660 N   0  0  0  0  0  0  0  0  0  0  0  0
  -29.2070  -14.8090   21.5910 H   0  0  0  0  0  0  0  0  0  0  0  0
  -25.0830  -13.7470   20.4940 C   0  0  0  0  0  0  0  0  0  0  0  0
  -24.0420  -12.9620   20.9140 C   0  0  0  0  0  0  0  0  0  0  0  0
  -24.5070  -11.6150   20.8290 C   0  0  0  0  0  0  0  0  0  0  0  0
  -26.1180  -12.8780   20.1880 N   0  0  0  0  0  0  0  0  0  0  0  0
  -25.7760  -11.5880   20.4420 N   0  0  0  0  0  0  0  0  0  0  0  0
  -23.8010  -10.3440   21.0400 C   0  0  0  0  0  0  0  0  0  0  0  0
  -24.2830   -9.3730   21.9460 C   0  0  0  0  0  3  0  0  0  0  0  0
  -23.5760   -8.1670   22.1470 C   0  0  0  0  0  3  0  0  0  0  0  0
  -22.3740   -7.9230   21.4420 C   0  0  0  0  0  0  0  0  0  0  0  0
  -21.9090   -8.8840   20.5260 C   0  0  0  0  0  3  0  0  0  0  0  0
  -22.6160  -10.0810   20.3240 C   0  0  0  0  0  3  0  0  0  0  0  0
  -21.6350   -6.7700   21.5530 O   0  0  0  0  0  0  0  0  0  0  0  0
  -21.6390   -6.0200   22.7020 C   0  0  0  0  0  0  0  0  0  0  0  0
  -21.2450   -6.5620   23.9450 C   0  0  0  0  0  3  0  0  0  0  0  0
  -21.1960   -5.7390   25.0890 C   0  0  0  0  0  3  0  0  0  0  0  0
  -21.5300   -4.3750   24.9890 C   0  0  0  0  0  0  0  0  0  0  0  0
  -21.9160   -3.8320   23.7510 C   0  0  0  0  0  3  0  0  0  0  0  0
  -21.9670   -4.6530   22.6100 C   0  0  0  0  0  0  0  0  0  0  0  0
  -22.3190   -4.1200   21.4150 F   0  0  0  0  0  0  0  0  0  0  0  0
  -21.4740   -3.5820   26.0840 F   0  0  0  0  0  0  0  0  0  0  0  0
  -22.6620  -13.4270   21.2820 C   0  0  0  0  0  0  0  0  0  0  0  0
  -21.9920  -12.7090   22.1770 N   0  0  0  0  0  0  0  0  0  0  0  0
  -22.1870  -14.4590   20.8110 O   0  0  0  0  0  0  0  0  0  0  0  0
  -22.3890  -11.8740   22.5800 H   0  0  0  0  0  0  0  0  0  0  0  0
  -21.0690  -13.0010   22.4640 H   0  0  0  0  0  0  0  0  0  0  0  0
  -25.2330  -15.1220   20.3320 N   0  0  0  0  0  0  0  0  0  0  0  0
  -24.4750  -15.7770   20.4980 H   0  0  0  0  0  0  0  0  0  0  0  0
  -26.0670  -15.5660   19.9700 H   0  0  0  0  0  0  0  0  0  0  0  0
  -28.7680  -25.0580   21.6670 C   0  0  0  0  0  2  0  0  0  0  0  0
  -28.8050  -25.5270   20.2020 C   0  0  0  0  0  2  0  0  0  0  0  0
  -28.6870  -26.9490   20.1430 O   0  0  0  0  0  0  0  0  0  0  0  0
  -24.6340  -31.9000   23.2120 C   0  0  0  0  0  0  0  0  0  0  0  0
  -27.4500  -27.5510   20.1660 C   0  0  0  0  0  0  0  0  0  0  0  0
  -23.4900  -30.4840   21.5340 C   0  0  0  0  0  3  0  0  0  0  0  0
  -25.0040  -28.9760   20.1430 C   0  0  0  0  0  0  0  0  0  0  0  0
  -26.0060  -30.9030   21.3860 C   0  0  0  0  0  2  0  0  0  0  0  0
  -26.1350  -29.5360   20.7490 C   0  0  0  0  0  0  0  0  0  0  0  0
  -27.3560  -28.8320   20.7530 C   0  0  0  0  0  3  0  0  0  0  0  0
  -26.2970  -26.9880   19.5700 C   0  0  0  0  0  3  0  0  0  0  0  0
  -25.0790  -27.6990   19.5560 C   0  0  0  0  0  3  0  0  0  0  0  0
  -23.7400  -29.8060   20.1610 C   0  0  0  0  0  2  0  0  0  0  0  0
  -24.7260  -31.1120   22.1030 N   0  0  0  0  0  0  0  0  0  0  0  0
  -23.5370  -32.1450   23.7330 O   0  0  0  0  0  0  0  0  0  0  0  0
  -22.8400  -29.4470   22.4780 C   0  0  0  0  0  0  0  0  0  0  0  0
  -21.5220  -29.2410   22.3230 N   0  0  0  0  0  0  0  0  0  0  0  0
  -23.5190  -28.8280   23.3020 O   0  0  0  0  0  0  0  0  0  0  0  0
  -21.0330  -29.7920   21.6310 H   0  0  0  0  0  0  0  0  0  0  0  0
  -18.1640  -27.9820   22.7440 C   0  0  0  0  0  0  0  0  0  0  0  0
  -20.7100  -28.2820   23.0730 C   0  0  0  0  0  3  0  0  0  0  0  0
  -20.8520  -26.8570   22.4890 C   0  0  0  0  0  2  0  0  0  0  0  0
  -19.7790  -26.5210   21.4490 C   0  0  0  0  0  2  0  0  0  0  0  0
  -18.3800  -26.6390   22.0630 C   0  0  0  0  0  2  0  0  0  0  0  0
  -19.2590  -28.7600   23.2020 C   0  0  0  0  0  0  0  0  0  0  0  0
  -19.0050  -30.0170   23.7930 C   0  0  0  0  0  3  0  0  0  0  0  0
  -17.6880  -30.4940   23.9330 C   0  0  0  0  0  3  0  0  0  0  0  0
  -16.6080  -29.7110   23.4900 C   0  0  0  0  0  3  0  0  0  0  0  0
  -16.8460  -28.4570   22.9010 C   0  0  0  0  0  3  0  0  0  0  0  0
  -25.8970  -32.5520   23.8620 C   0  0  0  0  0  3  0  0  0  0  0  0
  -25.5560  -33.9440   24.1880 N   0  0  0  0  0  0  0  0  0  0  0  0
  -25.8770  -35.0010   23.4320 C   0  0  0  0  0  0  0  0  0  0  0  0
  -26.5610  -34.9110   22.4080 O   0  0  0  0  0  0  0  0  0  0  0  0
  -24.9490  -34.0850   24.9820 H   0  0  0  0  0  0  0  0  0  0  0  0
  -24.1100  -36.7510   23.0590 C   0  0  0  0  0  1  0  0  0  0  0  0
  -25.3540  -36.3790   23.8810 C   0  0  0  0  0  3  0  0  0  0  0  0
  -27.4620  -37.3150   24.7230 C   0  0  0  0  0  1  0  0  0  0  0  0
  -26.3630  -37.4550   23.7720 N   0  0  0  0  0  0  0  0  0  0  0  0
  -25.9340  -38.3660   23.9130 H   0  0  0  0  0  0  0  0  0  0  0  0
  -26.4020  -31.7870   25.1450 C   0  0  1  0  0  0  0  0  0  0  0  0
  -25.2920  -31.5250   26.1900 C   0  0  0  0  0  1  0  0  0  0  0  0
  -27.0190  -30.4220   24.7580 C   0  0  0  0  0  1  0  0  0  0  0  0
  -27.5230  -32.6000   25.8340 C   0  0  0  0  0  1  0  0  0  0  0  0
  1  4  1  0
  2  6  1  0
  3  5  1  0
  3  1  2  0
  4  6  2  0
  4  9  1  0
  5  2  2  0
  6  8  1  0
  7  3  1  0
 10 11  1  0
 10  9  1  0
 12 21  1  0
 12 11  1  0
 13 21  1  0
 14 19  1  0
 15 16  1  0
 15 14  1  0
 17 16  1  0
 17 26  1  0
 17 18  1  0
 19 13  1  0
 19 18  1  0
 20 13  2  0
 21 22  1  0
 23 24  2  0
 24 43  1  0
 25 24  1  0
 25 28  1  0
 26 27  1  0
 26 23  1  0
 27 25  2  0
 28 29  1  0
 29 30  2  0
 31 34  1  0
 31 30  1  0
 32 31  2  0
 33 32  1  0
 33 28  2  0
 34 35  1  0
 35 36  1  0
 36 37  2  0
 38 37  1  0
 38 42  1  0
 39 38  2  0
 40 35  2  0
 40 39  1  0
 41 40  1  0
 43 44  1  0
 44 47  1  0
 44 46  1  0
 45 43  2  0
 48 23  1  0
 48 49  1  0
 50 48  1  0
 51  5  1  0
 52 51  1  0
 53 55  1  0
 53 52  1  0
 54 65  2  0
 55 60  1  0
 56 64  1  0
 56 66  1  0
 57 63  1  0
 57 59  1  0
 58 64  1  0
 59 60  2  0
 59 58  1  0
 61 55  2  0
 62 61  1  0
 62 57  2  0
 63 56  1  0
 64 54  1  0
 66 68  2  0
 67 66  1  0
 69 67  1  0
 70 79  2  0
 70 75  1  0
 71 67  1  0
 71 75  1  0
 72 71  1  0
 73 74  1  0
 73 72  1  0
 74 70  1  0
 75 76  2  0
 76 77  1  0
 78 77  2  0
 79 78  1  0
 80 54  1  0
 80 81  1  0
 80 90  1  0
 81 84  1  0
 82 86  1  0
 82 81  1  0
 83 82  2  0
 86 85  1  0
 88 86  1  0
 88 89  1  0
 88 87  1  0
 90 93  1  1
 90 91  1  0
 92 90  1  0
M  ISO  4  13 100  21 100  52 101  53 101
M  END
>  <TORSDO>  (6) 
F 22

>  <SCORE>  (6) 
-11.926

>  <name>  (6) 
5

>  <ligand_id>  (6) 
5

>  <original_smiles>  (6) 
[H]c1c([H])c([H])c2c(c1[H])C([H])([H])C([H])([H])C([H])([H])C2([H])N([H])C(=O)C1([H])N(C(=O)C([H])(N([H])C(=O)C([H])(N([H])C([H])([H])[H])C([H])([H])[H])C(C([H])([H])[H])(C([H])([H])[H])C([H])([H])[H])C([H])([H])c2c([H])c(OC([H])([H])C([H])([H])c3c([H])c(Cl)c(C([H])([H])C([H])([H])C([H])([H])C([H])([H])N([H])C(=O)N4C([H])([H])C([H])([H])C([H])([H])C([H])(n5nc(-c6c([H])c([H])c(Oc7c([H])c([H])c(F)c([H])c7F)c([H])c6[H])c(C(=O)N([H])[H])c5N([H])[H])C4([H])[H])c([H])c3C([H])([H])[H])c([H])c([H])c2C1([H])[H]

>  <smiles>  (6) 
[H]c1c([H])c([H])c2c(c1[H])C([H])([H])C([H])([H])C([H])([H])C2([H])N([H])C(=O)C1([H])N(C(=O)C([H])(N([H])C(=O)C([H])(N([H])C([H])([H])[H])C([H])([H])[H])C(C([H])([H])[H])(C([H])([H])[H])C([H])([H])[H])C([H])([H])c2c([H])c(OC([H])([H])C([H])([H])c3c([H])c(Cl)c(C([H])([H])C([H])([H])C([H])([H])C([H])([H])N([H])C(=O)N4C([H])([H])C([H])([H])C([H])([H])C([H])(n5nc(-c6c([H])c([H])c(Oc7c([H])c([H])c(F)c([H])c7F)c([H])c6[H])c(C(=O)N([H])[H])c5N([H])[H])C4([H])[H])c([H])c3C([H])([H])[H])c([H])c([H])c2C1([H])[H]

$$$$
6:0:0
     RDKit          3D

 93101  0  0  1  0  0  0  0  0999 V2000
  -28.9310  -21.7940   22.5550 C   0  0  0  0  0  3  0  0  0  0  0  0
  -28.9850  -24.1700   22.0680 C   0  0  0  0  0  3  0  0  0  0  0  0
  -28.8430  -21.5010   21.1790 C   0  0  0  0  0  0  0  0  0  0  0  0
  -28.9300  -23.9050   20.6790 C   0  0  0  0  0  0  0  0  0  0  0  0
  -28.8650  -22.5560   20.2250 C   0  0  0  0  0  0  0  0  0  0  0  0
  -29.0020  -23.1220   23.0010 C   0  0  0  0  0  0  0  0  0  0  0  0
  -28.8100  -22.2660   18.7250 C   0  0  0  0  0  1  0  0  0  0  0  0
  -29.0800  -23.4690   24.6880 Cl  0  0  0  0  0  0  0  0  0  0  0  0
  -28.7200  -20.0370   20.7880 C   0  0  0  0  0  2  0  0  0  0  0  0
  -30.0800  -19.4140   20.4490 C   0  0  0  0  0  2  0  0  0  0  0  0
  -29.9990  -17.8900   20.3370 C   0  0  0  0  0  2  0  0  0  0  0  0
  -31.3730  -17.2050   20.3930 C   0  0  0  0  0  2  0  0  0  0  0  0
  -31.7710  -14.7840   19.9380 C   0  0  0  0  0  0  0  0  0  0  0  0
  -31.4310  -12.4850   19.1200 C   0  0  0  0  0  2  0  0  0  0  0  0
  -30.4560  -12.4970   17.9250 C   0  0  0  0  0  2  0  0  0  0  0  0
  -28.9900  -12.4640   18.4020 C   0  0  0  0  0  2  0  0  0  0  0  0
  -28.6970  -13.5140   19.5060 C   0  0  0  0  0  3  0  0  0  0  0  0
  -29.7640  -13.4250   20.6190 C   0  0  0  0  0  2  0  0  0  0  0  0
  -31.0920  -13.6110   19.9980 N   0  0  0  0  0  0  0  0  0  0  0  0
  -32.8060  -14.9530   19.2840 O   0  0  0  0  0  0  0  0  0  0  0  0
  -31.1690  -15.7810   20.5890 N   0  0  0  0  0  0  0  0  0  0  0  0
  -30.3700  -15.5120   21.1430 H   0  0  0  0  0  0  0  0  0  0  0  0
  -26.4230  -14.3340   20.3990 C   0  0  0  0  0  0  0  0  0  0  0  0
  -25.2950  -13.6580   20.7810 C   0  0  0  0  0  0  0  0  0  0  0  0
  -25.5950  -12.2710   20.6240 C   0  0  0  0  0  0  0  0  0  0  0  0
  -27.3470  -13.3620   20.0430 N   0  0  0  0  0  0  0  0  0  0  0  0
  -26.8520  -12.1120   20.2330 N   0  0  0  0  0  0  0  0  0  0  0  0
  -24.7440  -11.0840   20.7720 C   0  0  0  0  0  0  0  0  0  0  0  0
  -25.0770  -10.0420   21.6650 C   0  0  0  0  0  3  0  0  0  0  0  0
  -24.2340   -8.9180   21.8020 C   0  0  0  0  0  3  0  0  0  0  0  0
  -23.0440   -8.8270   21.0430 C   0  0  0  0  0  0  0  0  0  0  0  0
  -22.7260   -9.8570   20.1380 C   0  0  0  0  0  3  0  0  0  0  0  0
  -23.5700  -10.9720   20.0010 C   0  0  0  0  0  3  0  0  0  0  0  0
  -22.1770   -7.7630   21.0910 O   0  0  0  0  0  0  0  0  0  0  0  0
  -21.9810   -7.0460   22.2430 C   0  0  0  0  0  0  0  0  0  0  0  0
  -21.5150   -7.6530   23.4290 C   0  0  0  0  0  3  0  0  0  0  0  0
  -21.2600   -6.8670   24.5700 C   0  0  0  0  0  3  0  0  0  0  0  0
  -21.4620   -5.4750   24.5260 C   0  0  0  0  0  0  0  0  0  0  0  0
  -21.9230   -4.8670   23.3450 C   0  0  0  0  0  3  0  0  0  0  0  0
  -22.1780   -5.6500   22.2050 C   0  0  0  0  0  0  0  0  0  0  0  0
  -22.6010   -5.0570   21.0630 F   0  0  0  0  0  0  0  0  0  0  0  0
  -21.2100   -4.7180   25.6190 F   0  0  0  0  0  0  0  0  0  0  0  0
  -23.9780  -14.2600   21.1780 C   0  0  0  0  0  0  0  0  0  0  0  0
  -23.2360  -13.5900   22.0530 N   0  0  0  0  0  0  0  0  0  0  0  0
  -23.6210  -15.3570   20.7490 O   0  0  0  0  0  0  0  0  0  0  0  0
  -23.5390  -12.7010   22.4210 H   0  0  0  0  0  0  0  0  0  0  0  0
  -22.3530  -13.9740   22.3580 H   0  0  0  0  0  0  0  0  0  0  0  0
  -26.7370  -15.6860   20.3080 N   0  0  0  0  0  0  0  0  0  0  0  0
  -26.0630  -16.4150   20.5110 H   0  0  0  0  0  0  0  0  0  0  0  0
  -27.6180  -16.0450   19.9630 H   0  0  0  0  0  0  0  0  0  0  0  0
  -28.8520  -25.0780   19.6990 C   0  0  0  0  0  2  0  0  0  0  0  0
  -29.5020  -26.4020   20.1640 C   0  0  0  0  0  2  0  0  0  0  0  0
  -29.2440  -27.4700   19.2500 O   0  0  0  0  0  0  0  0  0  0  0  0
  -24.7100  -31.3510   23.1080 C   0  0  0  0  0  0  0  0  0  0  0  0
  -27.9790  -27.9850   19.3670 C   0  0  0  0  0  0  0  0  0  0  0  0
  -23.7130  -30.0200   21.2780 C   0  0  0  0  0  3  0  0  0  0  0  0
  -25.3640  -29.0020   19.6240 C   0  0  0  0  0  0  0  0  0  0  0  0
  -26.1280  -30.8500   21.1250 C   0  0  0  0  0  2  0  0  0  0  0  0
  -26.4280  -29.6290   20.2860 C   0  0  0  0  0  0  0  0  0  0  0  0
  -27.7400  -29.1220   20.1640 C   0  0  0  0  0  3  0  0  0  0  0  0
  -26.9060  -27.3800   18.6810 C   0  0  0  0  0  3  0  0  0  0  0  0
  -25.5970  -27.8730   18.8190 C   0  0  0  0  0  3  0  0  0  0  0  0
  -23.9910  -29.6060   19.8080 C   0  0  0  0  0  2  0  0  0  0  0  0
  -24.8680  -30.7490   21.8970 N   0  0  0  0  0  0  0  0  0  0  0  0
  -23.6160  -31.3440   23.6880 O   0  0  0  0  0  0  0  0  0  0  0  0
  -23.2820  -28.7660   22.0710 C   0  0  0  0  0  0  0  0  0  0  0  0
  -22.0320  -28.3240   21.8550 N   0  0  0  0  0  0  0  0  0  0  0  0
  -24.0660  -28.2030   22.8380 O   0  0  0  0  0  0  0  0  0  0  0  0
  -21.4490  -28.8420   21.2130 H   0  0  0  0  0  0  0  0  0  0  0  0
  -19.0180  -26.3360   21.9630 C   0  0  0  0  0  0  0  0  0  0  0  0
  -21.4210  -27.1450   22.4660 C   0  0  0  0  0  3  0  0  0  0  0  0
  -21.8950  -25.8490   21.7680 C   0  0  0  0  0  2  0  0  0  0  0  0
  -20.9610  -25.3950   20.6400 C   0  0  0  0  0  2  0  0  0  0  0  0
  -19.5480  -25.1490   21.1770 C   0  0  0  0  0  2  0  0  0  0  0  0
  -19.8960  -27.2820   22.5540 C   0  0  0  0  0  0  0  0  0  0  0  0
  -19.3500  -28.3880   23.2420 C   0  0  0  0  0  3  0  0  0  0  0  0
  -17.9560  -28.5540   23.3480 C   0  0  0  0  0  3  0  0  0  0  0  0
  -17.0910  -27.6050   22.7750 C   0  0  0  0  0  3  0  0  0  0  0  0
  -17.6230  -26.4970   22.0910 C   0  0  0  0  0  3  0  0  0  0  0  0
  -25.8870  -32.0960   23.8120 C   0  0  0  0  0  3  0  0  0  0  0  0
  -25.4020  -33.4280   24.1950 N   0  0  0  0  0  0  0  0  0  0  0  0
  -25.6500  -34.5520   23.5110 C   0  0  0  0  0  0  0  0  0  0  0  0
  -26.3810  -34.5840   22.5160 O   0  0  0  0  0  0  0  0  0  0  0  0
  -24.7560  -33.4720   24.9700 H   0  0  0  0  0  0  0  0  0  0  0  0
  -23.7470  -36.1500   23.1410 C   0  0  0  0  0  1  0  0  0  0  0  0
  -24.9790  -35.8470   24.0070 C   0  0  0  0  0  3  0  0  0  0  0  0
  -26.9500  -36.9180   25.0070 C   0  0  0  0  0  1  0  0  0  0  0  0
  -25.8870  -37.0150   24.0080 N   0  0  0  0  0  0  0  0  0  0  0  0
  -25.3710  -37.8750   24.1780 H   0  0  0  0  0  0  0  0  0  0  0  0
  -26.4540  -31.3240   25.0660 C   0  0  1  0  0  0  0  0  0  0  0  0
  -25.3650  -30.8940   26.0760 C   0  0  0  0  0  1  0  0  0  0  0  0
  -27.2160  -30.0540   24.6220 C   0  0  0  0  0  1  0  0  0  0  0  0
  -27.4790  -32.2130   25.8100 C   0  0  0  0  0  1  0  0  0  0  0  0
  1  6  1  0
  2  6  2  0
  3  1  2  0
  4  2  1  0
  5  4  2  0
  5  3  1  0
  6  8  1  0
  7  5  1  0
  9  3  1  0
 10  9  1  0
 11 12  1  0
 11 10  1  0
 12 21  1  0
 13 19  1  0
 13 21  1  0
 14 19  1  0
 15 16  1  0
 15 14  1  0
 17 16  1  0
 17 26  1  0
 17 18  1  0
 19 18  1  0
 20 13  2  0
 21 22  1  0
 23 24  2  0
 24 43  1  0
 25 28  1  0
 25 24  1  0
 26 27  1  0
 26 23  1  0
 27 25  2  0
 28 29  1  0
 29 30  2  0
 31 34  1  0
 31 30  1  0
 32 31  2  0
 33 32  1  0
 33 28  2  0
 34 35  1  0
 35 36  1  0
 36 37  2  0
 38 37  1  0
 38 42  1  0
 39 38  2  0
 40 35  2  0
 40 39  1  0
 41 40  1  0
 43 44  1  0
 44 47  1  0
 44 46  1  0
 45 43  2  0
 48 23  1  0
 48 49  1  0
 50 48  1  0
 51 52  1  0
 51  4  1  0
 53 55  1  0
 53 52  1  0
 54 65  2  0
 55 60  1  0
 56 64  1  0
 56 66  1  0
 57 63  1  0
 57 59  1  0
 58 64  1  0
 59 58  1  0
 60 59  2  0
 61 62  1  0
 61 55  2  0
 62 57  2  0
 63 56  1  0
 64 54  1  0
 66 68  2  0
 67 66  1  0
 69 67  1  0
 70 79  2  0
 70 75  1  0
 71 67  1  0
 71 75  1  0
 72 71  1  0
 73 74  1  0
 73 72  1  0
 74 70  1  0
 75 76  2  0
 76 77  1  0
 78 77  2  0
 79 78  1  0
 80 54  1  0
 80 81  1  0
 80 90  1  0
 81 84  1  0
 82 86  1  0
 82 81  1  0
 83 82  2  0
 86 85  1  0
 86 88  1  0
 88 89  1  0
 88 87  1  0
 90 93  1  1
 90 91  1  0
 92 90  1  0
M  ISO  4  13 100  21 100  52 101  53 101
M  END
>  <TORSDO>  (7) 
F 22

>  <SCORE>  (7) 
-8.056

>  <name>  (7) 
6

>  <ligand_id>  (7) 
6

>  <original_smiles>  (7) 
[H]c1c([H])c([H])c2c(c1[H])C([H])([H])C([H])([H])C([H])([H])C2([H])N([H])C(=O)C1([H])N(C(=O)C([H])(N([H])C(=O)C([H])(N([H])C([H])([H])[H])C([H])([H])[H])C(C([H])([H])[H])(C([H])([H])[H])C([H])([H])[H])C([H])([H])c2c([H])c(OC([H])([H])C([H])([H])c3c([H])c(Cl)c([H])c(C([H])([H])C([H])([H])C([H])([H])C([H])([H])N([H])C(=O)N4C([H])([H])C([H])([H])C([H])([H])C([H])(n5nc(-c6c([H])c([H])c(Oc7c([H])c([H])c(F)c([H])c7F)c([H])c6[H])c(C(=O)N([H])[H])c5N([H])[H])C4([H])[H])c3C([H])([H])[H])c([H])c([H])c2C1([H])[H]

>  <smiles>  (7) 
[H]c1c([H])c([H])c2c(c1[H])C([H])([H])C([H])([H])C([H])([H])C2([H])N([H])C(=O)C1([H])N(C(=O)C([H])(N([H])C(=O)C([H])(N([H])C([H])([H])[H])C([H])([H])[H])C(C([H])([H])[H])(C([H])([H])[H])C([H])([H])[H])C([H])([H])c2c([H])c(OC([H])([H])C([H])([H])c3c([H])c(Cl)c([H])c(C([H])([H])C([H])([H])C([H])([H])C([H])([H])N([H])C(=O)N4C([H])([H])C([H])([H])C([H])([H])C([H])(n5nc(-c6c([H])c([H])c(Oc7c([H])c([H])c(F)c([H])c7F)c([H])c6[H])c(C(=O)N([H])[H])c5N([H])[H])C4([H])[H])c3C([H])([H])[H])c([H])c([H])c2C1([H])[H]

$$$$
7:0:0
     RDKit          3D

 87 95  0  0  1  0  0  0  0  0999 V2000
  -28.8510  -22.2970   20.1500 C   0  0  0  0  0  3  0  0  0  0  0  0
  -29.1440  -23.8560   20.4470 C   0  0  0  0  0  3  0  0  0  0  0  0
  -28.0670  -24.9630   20.0110 C   0  0  0  0  0  3  0  0  0  0  0  0
  -28.2990  -26.4230   20.2260 O   0  0  0  0  0  0  0  0  0  0  0  0
  -24.6180  -31.8850   23.2340 C   0  0  0  0  0  0  0  0  0  0  0  0
  -27.1940  -27.2990   20.1650 C   0  0  0  0  0  0  0  0  0  0  0  0
  -23.4010  -30.4900   21.6020 C   0  0  0  0  0  3  0  0  0  0  0  0
  -24.8370  -28.9380   20.1660 C   0  0  0  0  0  0  0  0  0  0  0  0
  -25.9410  -30.7960   21.4060 C   0  0  0  0  0  2  0  0  0  0  0  0
  -26.0130  -29.4160   20.7590 C   0  0  0  0  0  0  0  0  0  0  0  0
  -27.1930  -28.6090   20.7490 C   0  0  0  0  0  3  0  0  0  0  0  0
  -25.9940  -26.8870   19.5390 C   0  0  0  0  0  3  0  0  0  0  0  0
  -24.8320  -27.6800   19.5460 C   0  0  0  0  0  3  0  0  0  0  0  0
  -23.6050  -29.8160   20.2210 C   0  0  0  0  0  2  0  0  0  0  0  0
  -24.6730  -31.0750   22.1370 N   0  0  0  0  0  0  0  0  0  0  0  0
  -23.5380  -32.1670   23.7750 O   0  0  0  0  0  0  0  0  0  0  0  0
  -22.7390  -29.4760   22.5670 C   0  0  0  0  0  0  0  0  0  0  0  0
  -21.4110  -29.3050   22.4470 N   0  0  0  0  0  0  0  0  0  0  0  0
  -23.4190  -28.8470   23.3820 O   0  0  0  0  0  0  0  0  0  0  0  0
  -20.9220  -29.8650   21.7630 H   0  0  0  0  0  0  0  0  0  0  0  0
  -18.0320  -28.1200   22.9620 C   0  0  0  0  0  0  0  0  0  0  0  0
  -20.5920  -28.3710   23.2230 C   0  0  0  0  0  3  0  0  0  0  0  0
  -20.6870  -26.9390   22.6500 C   0  0  0  0  0  2  0  0  0  0  0  0
  -19.5810  -26.6170   21.6400 C   0  0  0  0  0  2  0  0  0  0  0  0
  -18.2020  -26.7680   22.2890 C   0  0  0  0  0  2  0  0  0  0  0  0
  -19.1540  -28.8790   23.3860 C   0  0  0  0  0  0  0  0  0  0  0  0
  -18.9410  -30.1430   23.9770 C   0  0  0  0  0  3  0  0  0  0  0  0
  -17.6390  -30.6490   24.1480 C   0  0  0  0  0  3  0  0  0  0  0  0
  -16.5310  -29.8870   23.7400 C   0  0  0  0  0  3  0  0  0  0  0  0
  -16.7290  -28.6240   23.1530 C   0  0  0  0  0  3  0  0  0  0  0  0
  -25.9050  -32.5140   23.8500 C   0  0  0  0  0  3  0  0  0  0  0  0
  -25.6000  -33.9110   24.1890 N   0  0  0  0  0  0  0  0  0  0  0  0
  -25.9210  -34.9670   23.4300 C   0  0  0  0  0  0  0  0  0  0  0  0
  -26.5750  -34.8680   22.3890 O   0  0  0  0  0  0  0  0  0  0  0  0
  -25.0180  -34.0620   25.0010 H   0  0  0  0  0  0  0  0  0  0  0  0
  -24.1820  -36.7580   23.1160 C   0  0  0  0  0  1  0  0  0  0  0  0
  -25.4410  -36.3540   23.9010 C   0  0  0  0  0  3  0  0  0  0  0  0
  -27.5920  -37.2390   24.6860 C   0  0  0  0  0  1  0  0  0  0  0  0
  -26.4690  -37.4100   23.7680 N   0  0  0  0  0  0  0  0  0  0  0  0
  -26.0650  -38.3280   23.9280 H   0  0  0  0  0  0  0  0  0  0  0  0
  -26.4300  -31.7350   25.1200 C   0  0  1  0  0  0  0  0  0  0  0  0
  -25.3440  -31.4970   26.1950 C   0  0  0  0  0  1  0  0  0  0  0  0
  -27.0040  -30.3570   24.7180 C   0  0  0  0  0  1  0  0  0  0  0  0
  -27.5880  -32.5220   25.7750 C   0  0  0  0  0  1  0  0  0  0  0  0
  -29.9010  -21.2040   20.6810 C   0  0  0  0  0  3  0  0  0  0  0  0
  -30.1160  -18.6230   21.2110 C   0  0  0  0  0  3  0  0  0  0  0  0
  -29.3170  -19.1040   19.2770 C   0  0  0  0  0  3  0  0  0  0  0  0
  -29.8740  -17.4040   20.5610 C   0  0  0  0  0  0  0  0  0  0  0  0
  -29.3490  -17.7580   19.3100 N   0  0  0  0  0  0  0  0  0  0  0  0
  -29.7380  -19.7220   20.3940 N   0  0  0  0  0  0  0  0  0  0  0  0
  -29.8780  -15.9320   21.1330 C   0  0  0  0  0  2  0  0  0  0  0  0
  -30.6040  -14.6930   20.4290 C   0  0  0  0  0  0  0  0  0  0  0  0
  -30.4000  -12.4630   19.3010 C   0  0  0  0  0  2  0  0  0  0  0  0
  -29.4530  -12.6070   18.0880 C   0  0  0  0  0  2  0  0  0  0  0  0
  -27.9780  -12.4490   18.5130 C   0  0  0  0  0  2  0  0  0  0  0  0
  -27.6290  -13.2910   19.7690 C   0  0  0  0  0  3  0  0  0  0  0  0
  -28.6870  -13.0900   20.8760 C   0  0  0  0  0  2  0  0  0  0  0  0
  -29.9920  -13.4640   20.3100 N   0  0  0  0  0  0  0  0  0  0  0  0
  -31.7390  -14.8500   19.9610 O   0  0  0  0  0  0  0  0  0  0  0  0
  -25.2330  -13.9080   20.4630 C   0  0  0  0  0  0  0  0  0  0  0  0
  -24.1590  -13.1450   20.8310 C   0  0  0  0  0  0  0  0  0  0  0  0
  -24.6150  -11.7890   20.8160 C   0  0  0  0  0  0  0  0  0  0  0  0
  -26.2750  -13.0200   20.2440 N   0  0  0  0  0  0  0  0  0  0  0  0
  -25.9070  -11.7410   20.5150 N   0  0  0  0  0  0  0  0  0  0  0  0
  -23.8800  -10.5330   21.0140 C   0  0  0  0  0  0  0  0  0  0  0  0
  -24.3120   -9.5640   21.9460 C   0  0  0  0  0  3  0  0  0  0  0  0
  -23.5780   -8.3720   22.1310 C   0  0  0  0  0  3  0  0  0  0  0  0
  -22.3980   -8.1410   21.3850 C   0  0  0  0  0  0  0  0  0  0  0  0
  -21.9860   -9.0990   20.4420 C   0  0  0  0  0  3  0  0  0  0  0  0
  -22.7190  -10.2820   20.2540 C   0  0  0  0  0  3  0  0  0  0  0  0
  -21.6370   -7.0020   21.4790 O   0  0  0  0  0  0  0  0  0  0  0  0
  -21.6000   -6.2550   22.6290 C   0  0  0  0  0  0  0  0  0  0  0  0
  -21.2080   -6.8100   23.8670 C   0  0  0  0  0  3  0  0  0  0  0  0
  -21.1170   -5.9900   25.0100 C   0  0  0  0  0  3  0  0  0  0  0  0
  -21.4070   -4.6170   24.9160 C   0  0  0  0  0  0  0  0  0  0  0  0
  -21.7910   -4.0600   23.6830 C   0  0  0  0  0  3  0  0  0  0  0  0
  -21.8840   -4.8770   22.5420 C   0  0  0  0  0  0  0  0  0  0  0  0
  -22.2350   -4.3320   21.3530 F   0  0  0  0  0  0  0  0  0  0  0  0
  -21.3110   -3.8270   26.0110 F   0  0  0  0  0  0  0  0  0  0  0  0
  -22.7630  -13.6310   21.0920 C   0  0  0  0  0  0  0  0  0  0  0  0
  -22.0290  -12.9490   21.9620 N   0  0  0  0  0  0  0  0  0  0  0  0
  -22.3320  -14.6520   20.5570 O   0  0  0  0  0  0  0  0  0  0  0  0
  -22.3900  -12.1230   22.4180 H   0  0  0  0  0  0  0  0  0  0  0  0
  -21.0910  -13.2570   22.1790 H   0  0  0  0  0  0  0  0  0  0  0  0
  -25.4070  -15.2760   20.2760 N   0  0  0  0  0  0  0  0  0  0  0  0
  -24.6440  -15.9370   20.3770 H   0  0  0  0  0  0  0  0  0  0  0  0
  -26.2640  -15.7090   19.9520 H   0  0  0  0  0  0  0  0  0  0  0  0
  1  2  1  0
  1 45  2  0
  3  4  1  0
  3  2  2  0
  5 16  2  0
  6  4  1  0
  6 11  1  0
  7 15  1  0
  7 17  1  0
  8 14  1  0
  8 10  1  0
  9 15  1  0
 10  9  1  0
 11 10  2  0
 12 13  1  0
 12  6  2  0
 13  8  2  0
 14  7  1  0
 15  5  1  0
 17 19  2  0
 18 17  1  0
 20 18  1  0
 21 30  2  0
 21 26  1  0
 22 18  1  0
 22 26  1  0
 23 22  1  0
 24 25  1  0
 24 23  1  0
 25 21  1  0
 26 27  2  0
 27 28  1  0
 29 28  2  0
 30 29  1  0
 31  5  1  0
 31 32  1  0
 31 41  1  0
 32 35  1  0
 33 37  1  0
 33 32  1  0
 34 33  2  0
 37 36  1  0
 39 37  1  0
 39 40  1  0
 39 38  1  0
 41 44  1  1
 41 42  1  0
 43 41  1  0
 47 49  2  0
 47 50  1  0
 48 51  1  0
 48 46  2  0
 49 48  1  0
 50 45  1  0
 50 46  1  0
 52 51  1  0
 53 58  1  0
 54 55  1  0
 54 53  1  0
 56 55  1  0
 56 63  1  0
 56 57  1  0
 58 52  1  0
 58 57  1  0
 59 52  2  0
 60 61  2  0
 61 80  1  0
 62 61  1  0
 62 65  1  0
 63 60  1  0
 63 64  1  0
 64 62  2  0
 65 66  1  0
 66 67  2  0
 68 71  1  0
 68 67  1  0
 69 68  2  0
 70 69  1  0
 70 65  2  0
 71 72  1  0
 72 73  1  0
 73 74  2  0
 75 74  1  0
 75 79  1  0
 76 75  2  0
 77 72  2  0
 77 76  1  0
 78 77  1  0
 80 81  1  0
 81 84  1  0
 81 83  1  0
 82 80  2  0
 85 86  1  0
 85 60  1  0
 87 85  1  0
M  ISO  4   3 101   4 101  51 100  52 100
M  END
>  <TORSDO>  (8) 
F 21

>  <SCORE>  (8) 
-13.357

>  <name>  (8) 
7

>  <ligand_id>  (8) 
7

>  <original_smiles>  (8) 
[H]c1c([H])c([H])c2c(c1[H])C([H])([H])C([H])([H])C([H])([H])C2([H])N([H])C(=O)C1([H])N(C(=O)C([H])(N([H])C(=O)C([H])(N([H])C([H])([H])[H])C([H])([H])[H])C(C([H])([H])[H])(C([H])([H])[H])C([H])([H])[H])C([H])([H])c2c([H])c(OC([H])([H])C([H])([H])C([H])([H])C([H])([H])n3c([H])nc(C([H])([H])C(=O)N4C([H])([H])C([H])([H])C([H])([H])C([H])(n5nc(-c6c([H])c([H])c(Oc7c([H])c([H])c(F)c([H])c7F)c([H])c6[H])c(C(=O)N([H])[H])c5N([H])[H])C4([H])[H])c3[H])c([H])c([H])c2C1([H])[H]

>  <smiles>  (8) 
[H]c1c([H])c([H])c2c(c1[H])C([H])([H])C([H])([H])C([H])([H])C2([H])N([H])C(=O)C1([H])N(C(=O)C([H])(N([H])C(=O)C([H])(N([H])C([H])([H])[H])C([H])([H])[H])C(C([H])([H])[H])(C([H])([H])[H])C([H])([H])[H])C([H])([H])c2c([H])c(OC([H])([H])C([H])([H])C([H])([H])C([H])([H])n3c([H])nc(C([H])([H])C(=O)N4C([H])([H])C([H])([H])C([H])([H])C([H])(n5nc(-c6c([H])c([H])c(Oc7c([H])c([H])c(F)c([H])c7F)c([H])c6[H])c(C(=O)N([H])[H])c5N([H])[H])C4([H])[H])c3[H])c([H])c([H])c2C1([H])[H]

$$$$
8:0:0
     RDKit          3D

 94102  0  0  1  0  0  0  0  0999 V2000
  -29.3910  -18.9190   19.7660 C   0  0  0  0  0  3  0  0  0  0  0  0
  -30.5920  -19.5790   21.7140 C   0  0  0  0  0  3  0  0  0  0  0  0
  -30.1320  -18.5130   20.8980 C   0  0  0  0  0  0  0  0  0  0  0  0
  -29.2270  -20.3080   19.4660 C   0  0  0  0  0  0  0  0  0  0  0  0
  -29.7530  -21.3090   20.3450 C   0  0  0  0  0  0  0  0  0  0  0  0
  -30.4050  -20.9080   21.4630 N   0  0  0  0  0  0  0  0  0  0  0  0
  -28.5890  -20.6850   18.1330 C   0  0  0  0  0  2  0  0  0  0  0  0
  -27.4360  -22.7350   17.2380 C   0  0  0  0  0  1  0  0  0  0  0  0
  -27.3350  -21.5800   18.2520 C   0  0  0  0  0  3  0  0  0  0  0  0
  -24.7450  -21.5520   18.2430 C   0  0  0  0  0  1  0  0  0  0  0  0
  -26.0460  -20.7520   18.0730 C   0  0  0  0  0  2  0  0  0  0  0  0
  -30.5620  -17.0380   21.2630 C   0  0  0  0  0  2  0  0  0  0  0  0
  -30.6590  -14.7050   20.2040 C   0  0  0  0  0  0  0  0  0  0  0  0
  -30.3180  -12.5980   18.9320 C   0  0  0  0  0  2  0  0  0  0  0  0
  -29.3170  -12.8560   17.7880 C   0  0  0  0  0  2  0  0  0  0  0  0
  -27.8710  -12.6560   18.2840 C   0  0  0  0  0  2  0  0  0  0  0  0
  -27.5900  -13.4070   19.6170 C   0  0  0  0  0  3  0  0  0  0  0  0
  -28.7070  -13.1610   20.6530 C   0  0  0  0  0  2  0  0  0  0  0  0
  -29.9800  -13.5310   20.0220 N   0  0  0  0  0  0  0  0  0  0  0  0
  -31.8220  -14.8300   19.8090 O   0  0  0  0  0  0  0  0  0  0  0  0
  -29.9630  -15.7850   20.6830 N   0  0  0  0  0  0  0  0  0  0  0  0
  -28.9850  -15.6230   20.8690 H   0  0  0  0  0  0  0  0  0  0  0  0
  -25.2150  -13.9280   20.4520 C   0  0  0  0  0  0  0  0  0  0  0  0
  -24.1880  -13.1210   20.8540 C   0  0  0  0  0  0  0  0  0  0  0  0
  -24.6880  -11.7830   20.7890 C   0  0  0  0  0  0  0  0  0  0  0  0
  -26.2730  -13.0810   20.1590 N   0  0  0  0  0  0  0  0  0  0  0  0
  -25.9650  -11.7870   20.4280 N   0  0  0  0  0  0  0  0  0  0  0  0
  -24.0060  -10.4970   20.9900 C   0  0  0  0  0  0  0  0  0  0  0  0
  -24.4300   -9.5850   21.9810 C   0  0  0  0  0  3  0  0  0  0  0  0
  -23.7450   -8.3640   22.1690 C   0  0  0  0  0  3  0  0  0  0  0  0
  -22.6260   -8.0460   21.3640 C   0  0  0  0  0  0  0  0  0  0  0  0
  -22.2200   -8.9490   20.3650 C   0  0  0  0  0  3  0  0  0  0  0  0
  -22.9050  -10.1630   20.1760 C   0  0  0  0  0  3  0  0  0  0  0  0
  -21.9110   -6.8770   21.4600 O   0  0  0  0  0  0  0  0  0  0  0  0
  -21.7620   -6.2190   22.6550 C   0  0  0  0  0  0  0  0  0  0  0  0
  -21.0980   -6.8090   23.7520 C   0  0  0  0  0  3  0  0  0  0  0  0
  -20.9050   -6.0710   24.9370 C   0  0  0  0  0  3  0  0  0  0  0  0
  -21.3650   -4.7440   25.0240 C   0  0  0  0  0  0  0  0  0  0  0  0
  -22.0210   -4.1530   23.9290 C   0  0  0  0  0  3  0  0  0  0  0  0
  -22.2150   -4.8860   22.7470 C   0  0  0  0  0  0  0  0  0  0  0  0
  -22.8280   -4.3050   21.6880 F   0  0  0  0  0  0  0  0  0  0  0  0
  -21.1730   -4.0320   26.1590 F   0  0  0  0  0  0  0  0  0  0  0  0
  -22.7890  -13.5530   21.1820 C   0  0  0  0  0  0  0  0  0  0  0  0
  -22.1030  -12.8100   22.0440 N   0  0  0  0  0  0  0  0  0  0  0  0
  -22.3120  -14.5820   20.7060 O   0  0  0  0  0  0  0  0  0  0  0  0
  -22.5030  -11.9780   22.4500 H   0  0  0  0  0  0  0  0  0  0  0  0
  -21.1640  -13.0830   22.3040 H   0  0  0  0  0  0  0  0  0  0  0  0
  -25.3370  -15.3050   20.2860 N   0  0  0  0  0  0  0  0  0  0  0  0
  -24.5560  -15.9360   20.4320 H   0  0  0  0  0  0  0  0  0  0  0  0
  -26.1560  -15.7720   19.9220 H   0  0  0  0  0  0  0  0  0  0  0  0
  -29.8640  -22.8370   19.9660 C   0  0  0  0  0  2  0  0  0  0  0  0
  -28.9100  -23.9650   20.5600 C   0  0  0  0  0  2  0  0  0  0  0  0
  -28.9620  -25.3600   19.7830 C   0  0  0  0  0  2  0  0  0  0  0  0
  -28.7140  -26.6410   20.4740 O   0  0  0  0  0  0  0  0  0  0  0  0
  -24.5900  -31.9020   23.1310 C   0  0  0  0  0  0  0  0  0  0  0  0
  -27.5370  -27.3880   20.3310 C   0  0  0  0  0  0  0  0  0  0  0  0
  -23.5290  -30.4240   21.4610 C   0  0  0  0  0  3  0  0  0  0  0  0
  -25.1110  -28.8950   20.1590 C   0  0  0  0  0  0  0  0  0  0  0  0
  -26.0590  -30.8320   21.4130 C   0  0  0  0  0  2  0  0  0  0  0  0
  -26.2220  -29.4430   20.8080 C   0  0  0  0  0  0  0  0  0  0  0  0
  -27.4310  -28.6950   20.8980 C   0  0  0  0  0  3  0  0  0  0  0  0
  -26.3990  -26.8810   19.6650 C   0  0  0  0  0  3  0  0  0  0  0  0
  -25.2000  -27.6170   19.5850 C   0  0  0  0  0  3  0  0  0  0  0  0
  -23.8470  -29.7300   20.1110 C   0  0  0  0  0  2  0  0  0  0  0  0
  -24.7400  -31.0710   22.0590 N   0  0  0  0  0  0  0  0  0  0  0  0
  -23.4700  -32.1530   23.5990 O   0  0  0  0  0  0  0  0  0  0  0  0
  -22.8550  -29.4030   22.4080 C   0  0  0  0  0  0  0  0  0  0  0  0
  -21.5350  -29.2070   22.2480 N   0  0  0  0  0  0  0  0  0  0  0  0
  -23.5190  -28.7910   23.2490 O   0  0  0  0  0  0  0  0  0  0  0  0
  -21.0550  -29.7540   21.5470 H   0  0  0  0  0  0  0  0  0  0  0  0
  -18.1430  -28.0630   22.7550 C   0  0  0  0  0  0  0  0  0  0  0  0
  -20.7080  -28.2650   23.0050 C   0  0  0  0  0  3  0  0  0  0  0  0
  -20.7760  -26.8460   22.3960 C   0  0  0  0  0  2  0  0  0  0  0  0
  -19.6600  -26.5690   21.3850 C   0  0  0  0  0  2  0  0  0  0  0  0
  -18.2870  -26.7280   22.0440 C   0  0  0  0  0  2  0  0  0  0  0  0
  -19.2810  -28.7900   23.1930 C   0  0  0  0  0  0  0  0  0  0  0  0
  -19.0920  -30.0440   23.8170 C   0  0  0  0  0  3  0  0  0  0  0  0
  -17.7990  -30.5680   24.0050 C   0  0  0  0  0  3  0  0  0  0  0  0
  -16.6760  -29.8360   23.5820 C   0  0  0  0  0  3  0  0  0  0  0  0
  -16.8490  -28.5850   22.9640 C   0  0  0  0  0  3  0  0  0  0  0  0
  -25.8150  -32.5950   23.8030 C   0  0  0  0  0  3  0  0  0  0  0  0
  -25.4170  -33.9700   24.1380 N   0  0  0  0  0  0  0  0  0  0  0  0
  -25.7040  -35.0470   23.3960 C   0  0  0  0  0  0  0  0  0  0  0  0
  -26.4060  -34.9950   22.3820 O   0  0  0  0  0  0  0  0  0  0  0  0
  -24.7930  -34.0790   24.9240 H   0  0  0  0  0  0  0  0  0  0  0  0
  -23.8950  -36.7500   22.9970 C   0  0  0  0  0  1  0  0  0  0  0  0
  -25.1230  -36.3990   23.8530 C   0  0  0  0  0  3  0  0  0  0  0  0
  -27.1610  -37.4000   24.7890 C   0  0  0  0  0  1  0  0  0  0  0  0
  -26.0970  -37.5100   23.7930 N   0  0  0  0  0  0  0  0  0  0  0  0
  -25.6320  -38.4050   23.9280 H   0  0  0  0  0  0  0  0  0  0  0  0
  -26.3290  -31.8370   25.0880 C   0  0  1  0  0  0  0  0  0  0  0  0
  -25.2120  -31.4920   26.0980 C   0  0  0  0  0  1  0  0  0  0  0  0
  -27.0360  -30.5170   24.7000 C   0  0  0  0  0  1  0  0  0  0  0  0
  -27.3820  -32.7020   25.8200 C   0  0  0  0  0  1  0  0  0  0  0  0
  1  3  1  0
  3 12  1  0
  3  2  2  0
  4  1  2  0
  4  5  1  0
  5  6  2  0
  6  2  1  0
  7  9  1  0
  7  4  1  0
  9  8  1  0
 11 10  1  0
 11  9  1  0
 13 21  1  0
 14 19  1  0
 15 16  1  0
 15 14  1  0
 17 16  1  0
 17 26  1  0
 17 18  1  0
 19 13  1  0
 19 18  1  0
 20 13  2  0
 21 22  1  0
 21 12  1  0
 23 24  2  0
 24 43  1  0
 25 24  1  0
 25 28  1  0
 26 27  1  0
 26 23  1  0
 27 25  2  0
 28 29  1  0
 29 30  2  0
 31 34  1  0
 31 30  1  0
 32 31  2  0
 33 32  1  0
 33 28  2  0
 34 35  1  0
 35 40  2  0
 35 36  1  0
 36 37  2  0
 37 38  1  0
 38 42  1  0
 39 38  2  0
 40 39  1  0
 41 40  1  0
 43 44  1  0
 44 47  1  0
 44 46  1  0
 45 43  2  0
 48 49  1  0
 48 23  1  0
 50 48  1  0
 51  5  1  0
 51 52  1  0
 53 54  1  0
 53 52  1  0
 55 66  2  0
 56 54  1  0
 56 61  1  0
 57 65  1  0
 57 67  1  0
 58 60  1  0
 59 65  1  0
 60 61  2  0
 60 59  1  0
 62 56  2  0
 63 62  1  0
 63 58  2  0
 64 58  1  0
 64 57  1  0
 65 55  1  0
 67 69  2  0
 68 67  1  0
 70 68  1  0
 71 80  2  0
 71 76  1  0
 72 68  1  0
 72 76  1  0
 73 72  1  0
 74 75  1  0
 74 73  1  0
 75 71  1  0
 76 77  2  0
 77 78  1  0
 79 78  2  0
 80 79  1  0
 81 55  1  0
 81 82  1  0
 81 91  1  0
 82 85  1  0
 83 87  1  0
 83 82  1  0
 84 83  2  0
 87 86  1  0
 89 87  1  0
 89 90  1  0
 89 88  1  0
 91 94  1  1
 91 92  1  0
 93 91  1  0
M  ISO  4  13 100  21 100  53 101  54 101
M  END
>  <TORSDO>  (9) 
F 23

>  <SCORE>  (9) 
-12.509

>  <name>  (9) 
8

>  <ligand_id>  (9) 
8

>  <original_smiles>  (9) 
[H]c1nc(C([H])([H])C([H])([H])C([H])([H])Oc2c([H])c([H])c3c(c2[H])C([H])([H])N(C(=O)C([H])(N([H])C(=O)C([H])(N([H])C([H])([H])[H])C([H])([H])[H])C(C([H])([H])[H])(C([H])([H])[H])C([H])([H])[H])C([H])(C(=O)N([H])C2([H])c4c([H])c([H])c([H])c([H])c4C([H])([H])C([H])([H])C2([H])[H])C3([H])[H])c(C([H])([H])C([H])(C([H])([H])[H])C([H])([H])C([H])([H])[H])c([H])c1C([H])([H])N([H])C(=O)N1C([H])([H])C([H])([H])C([H])([H])C([H])(n2nc(-c3c([H])c([H])c(Oc4c([H])c([H])c(F)c([H])c4F)c([H])c3[H])c(C(=O)N([H])[H])c2N([H])[H])C1([H])[H]

>  <smiles>  (9) 
[H]c1nc(C([H])([H])C([H])([H])C([H])([H])Oc2c([H])c([H])c3c(c2[H])C([H])([H])N(C(=O)C([H])(N([H])C(=O)C([H])(N([H])C([H])([H])[H])C([H])([H])[H])C(C([H])([H])[H])(C([H])([H])[H])C([H])([H])[H])C([H])(C(=O)N([H])C2([H])c4c([H])c([H])c([H])c([H])c4C([H])([H])C([H])([H])C2([H])[H])C3([H])[H])c(C([H])([H])C([H])(C([H])([H])[H])C([H])([H])C([H])([H])[H])c([H])c1C([H])([H])N([H])C(=O)N1C([H])([H])C([H])([H])C([H])([H])C([H])(n2nc(-c3c([H])c([H])c(Oc4c([H])c([H])c(F)c([H])c4F)c([H])c3[H])c(C(=O)N([H])[H])c2N([H])[H])C1([H])[H]

$$$$
9:0:0
     RDKit          3D

 92100  0  0  1  0  0  0  0  0999 V2000
  -28.7730  -22.8870   17.2240 C   0  0  0  0  0  3  0  0  0  0  0  0
  -28.4950  -24.2470   17.4630 C   0  0  0  0  0  0  0  0  0  0  0  0
  -29.0750  -24.8700   18.6000 C   0  0  0  0  0  0  0  0  0  0  0  0
  -29.6210  -22.1880   18.0970 C   0  0  0  0  0  0  0  0  0  0  0  0
  -29.8770  -24.0640   19.4490 C   0  0  0  0  0  0  0  0  0  0  0  0
  -27.6290  -24.9990   16.4670 C   0  0  0  0  0  1  0  0  0  0  0  0
  -30.5470  -24.6190   20.6930 C   0  0  0  0  0  1  0  0  0  0  0  0
  -30.1400  -22.7600   19.2030 N   0  0  0  0  0  0  0  0  0  0  0  0
  -28.9490  -26.3840   18.8280 C   0  0  0  0  0  2  0  0  0  0  0  0
  -28.4720  -26.7590   20.1210 O   0  0  0  0  0  0  0  0  0  0  0  0
  -24.6160  -31.8740   23.2330 C   0  0  0  0  0  0  0  0  0  0  0  0
  -27.2890  -27.4600   20.1440 C   0  0  0  0  0  0  0  0  0  0  0  0
  -23.4160  -30.4630   21.5920 C   0  0  0  0  0  3  0  0  0  0  0  0
  -24.8780  -28.9270   20.1740 C   0  0  0  0  0  0  0  0  0  0  0  0
  -25.9390  -30.8340   21.3970 C   0  0  0  0  0  2  0  0  0  0  0  0
  -26.0320  -29.4610   20.7640 C   0  0  0  0  0  0  0  0  0  0  0  0
  -27.2370  -28.7290   20.7590 C   0  0  0  0  0  3  0  0  0  0  0  0
  -26.1170  -26.9210   19.5710 C   0  0  0  0  0  3  0  0  0  0  0  0
  -24.9130  -27.6510   19.5820 C   0  0  0  0  0  3  0  0  0  0  0  0
  -23.6310  -29.7790   20.2140 C   0  0  0  0  0  2  0  0  0  0  0  0
  -24.6750  -31.0720   22.1320 N   0  0  0  0  0  0  0  0  0  0  0  0
  -23.5330  -32.1430   23.7710 O   0  0  0  0  0  0  0  0  0  0  0  0
  -22.7690  -29.4410   22.5530 C   0  0  0  0  0  0  0  0  0  0  0  0
  -21.4450  -29.2540   22.4250 N   0  0  0  0  0  0  0  0  0  0  0  0
  -23.4560  -28.8200   23.3700 O   0  0  0  0  0  0  0  0  0  0  0  0
  -20.9530  -29.8080   21.7380 H   0  0  0  0  0  0  0  0  0  0  0  0
  -18.0750  -28.0560   22.9240 C   0  0  0  0  0  0  0  0  0  0  0  0
  -20.6310  -28.3140   23.1960 C   0  0  0  0  0  3  0  0  0  0  0  0
  -20.7340  -26.8840   22.6190 C   0  0  0  0  0  2  0  0  0  0  0  0
  -19.6320  -26.5610   21.6050 C   0  0  0  0  0  2  0  0  0  0  0  0
  -18.2510  -26.7070   22.2480 C   0  0  0  0  0  2  0  0  0  0  0  0
  -19.1920  -28.8180   23.3540 C   0  0  0  0  0  0  0  0  0  0  0  0
  -18.9740  -30.0830   23.9440 C   0  0  0  0  0  3  0  0  0  0  0  0
  -17.6700  -30.5840   24.1090 C   0  0  0  0  0  3  0  0  0  0  0  0
  -16.5660  -29.8180   23.6970 C   0  0  0  0  0  3  0  0  0  0  0  0
  -16.7690  -28.5560   23.1100 C   0  0  0  0  0  3  0  0  0  0  0  0
  -25.9000  -32.5090   23.8520 C   0  0  0  0  0  3  0  0  0  0  0  0
  -25.5910  -33.9080   24.1730 N   0  0  0  0  0  0  0  0  0  0  0  0
  -25.9240  -34.9560   23.4070 C   0  0  0  0  0  0  0  0  0  0  0  0
  -26.5950  -34.8450   22.3760 O   0  0  0  0  0  0  0  0  0  0  0  0
  -24.9960  -34.0680   24.9730 H   0  0  0  0  0  0  0  0  0  0  0  0
  -24.1940  -36.7420   23.0330 C   0  0  0  0  0  1  0  0  0  0  0  0
  -25.4320  -36.3450   23.8520 C   0  0  0  0  0  3  0  0  0  0  0  0
  -27.5630  -37.2380   24.6840 C   0  0  0  0  0  1  0  0  0  0  0  0
  -26.4640  -37.3990   23.7360 N   0  0  0  0  0  0  0  0  0  0  0  0
  -26.0560  -38.3190   23.8760 H   0  0  0  0  0  0  0  0  0  0  0  0
  -26.4210  -31.7430   25.1300 C   0  0  1  0  0  0  0  0  0  0  0  0
  -25.3300  -31.5080   26.2000 C   0  0  0  0  0  1  0  0  0  0  0  0
  -27.0070  -30.3660   24.7420 C   0  0  0  0  0  1  0  0  0  0  0  0
  -27.5720  -32.5440   25.7880 C   0  0  0  0  0  1  0  0  0  0  0  0
  -30.0810  -20.7740   17.7610 C   0  0  0  0  0  2  0  0  0  0  0  0
  -29.3800  -19.6390   18.5360 C   0  0  0  0  0  2  0  0  0  0  0  0
  -30.2360  -19.0010   19.6520 C   0  0  0  0  0  2  0  0  0  0  0  0
  -29.7330  -17.6010   20.0520 C   0  0  0  0  0  2  0  0  0  0  0  0
  -30.5510  -16.9610   21.1910 C   0  0  0  0  0  2  0  0  0  0  0  0
  -30.1200  -15.5080   21.5140 C   0  0  0  0  0  2  0  0  0  0  0  0
  -30.7060  -14.4220   20.5810 C   0  0  0  0  0  0  0  0  0  0  0  0
  -30.3930  -12.3240   19.3100 C   0  0  0  0  0  2  0  0  0  0  0  0
  -29.4560  -12.5700   18.1120 C   0  0  0  0  0  2  0  0  0  0  0  0
  -27.9760  -12.4460   18.5300 C   0  0  0  0  0  2  0  0  0  0  0  0
  -27.6480  -13.2500   19.8180 C   0  0  0  0  0  3  0  0  0  0  0  0
  -28.6890  -12.9540   20.9190 C   0  0  0  0  0  2  0  0  0  0  0  0
  -30.0200  -13.2660   20.3740 N   0  0  0  0  0  0  0  0  0  0  0  0
  -31.7810  -14.6520   20.0180 O   0  0  0  0  0  0  0  0  0  0  0  0
  -25.2380  -13.8800   20.4750 C   0  0  0  0  0  0  0  0  0  0  0  0
  -24.1600  -13.1160   20.8380 C   0  0  0  0  0  0  0  0  0  0  0  0
  -24.6150  -11.7620   20.8280 C   0  0  0  0  0  0  0  0  0  0  0  0
  -26.2840  -12.9910   20.2730 N   0  0  0  0  0  0  0  0  0  0  0  0
  -25.9100  -11.7130   20.5400 N   0  0  0  0  0  0  0  0  0  0  0  0
  -23.8820  -10.5050   21.0230 C   0  0  0  0  0  0  0  0  0  0  0  0
  -24.3050   -9.5420   21.9650 C   0  0  0  0  0  3  0  0  0  0  0  0
  -23.5740   -8.3480   22.1460 C   0  0  0  0  0  3  0  0  0  0  0  0
  -22.4040   -8.1110   21.3870 C   0  0  0  0  0  0  0  0  0  0  0  0
  -22.0000   -9.0620   20.4340 C   0  0  0  0  0  3  0  0  0  0  0  0
  -22.7320  -10.2470   20.2500 C   0  0  0  0  0  3  0  0  0  0  0  0
  -21.6440   -6.9700   21.4770 O   0  0  0  0  0  0  0  0  0  0  0  0
  -21.5940   -6.2280   22.6300 C   0  0  0  0  0  0  0  0  0  0  0  0
  -21.1770   -6.7860   23.8580 C   0  0  0  0  0  3  0  0  0  0  0  0
  -21.0730   -5.9710   25.0030 C   0  0  0  0  0  3  0  0  0  0  0  0
  -21.3770   -4.6000   24.9220 C   0  0  0  0  0  0  0  0  0  0  0  0
  -21.7870   -4.0400   23.6990 C   0  0  0  0  0  3  0  0  0  0  0  0
  -21.8930   -4.8520   22.5550 C   0  0  0  0  0  0  0  0  0  0  0  0
  -22.2680   -4.3040   21.3740 F   0  0  0  0  0  0  0  0  0  0  0  0
  -21.2700   -3.8150   26.0190 F   0  0  0  0  0  0  0  0  0  0  0  0
  -22.7610  -13.6030   21.0860 C   0  0  0  0  0  0  0  0  0  0  0  0
  -22.0180  -12.9190   21.9510 N   0  0  0  0  0  0  0  0  0  0  0  0
  -22.3320  -14.6240   20.5510 O   0  0  0  0  0  0  0  0  0  0  0  0
  -22.3760  -12.0940   22.4070 H   0  0  0  0  0  0  0  0  0  0  0  0
  -21.0790  -13.2260   22.1590 H   0  0  0  0  0  0  0  0  0  0  0  0
  -25.4130  -15.2470   20.2820 N   0  0  0  0  0  0  0  0  0  0  0  0
  -24.6520  -15.9100   20.3760 H   0  0  0  0  0  0  0  0  0  0  0  0
  -26.2790  -15.6760   19.9800 H   0  0  0  0  0  0  0  0  0  0  0  0
  1  2  2  0
  1  4  1  0
  2  3  1  0
  3  9  1  0
  3  5  2  0
  4  8  2  0
  5  7  1  0
  6  2  1  0
  8  5  1  0
  9 10  1  0
 10 12  1  0
 11 22  2  0
 12 17  1  0
 13 21  1  0
 13 23  1  0
 14 20  1  0
 14 16  1  0
 15 21  1  0
 16 15  1  0
 17 16  2  0
 18 19  1  0
 18 12  2  0
 19 14  2  0
 20 13  1  0
 21 11  1  0
 23 25  2  0
 24 23  1  0
 26 24  1  0
 27 36  2  0
 27 32  1  0
 28 24  1  0
 28 32  1  0
 29 28  1  0
 30 31  1  0
 30 29  1  0
 31 27  1  0
 32 33  2  0
 33 34  1  0
 35 34  2  0
 36 35  1  0
 37 11  1  0
 37 38  1  0
 37 47  1  0
 38 41  1  0
 39 43  1  0
 39 38  1  0
 40 39  2  0
 43 42  1  0
 45 43  1  0
 45 46  1  0
 45 44  1  0
 47 50  1  1
 47 48  1  0
 49 47  1  0
 51  4  1  0
 51 52  1  0
 52 53  1  0
 53 54  1  0
 54 55  1  0
 55 56  1  0
 57 56  1  0
 58 63  1  0
 59 60  1  0
 59 58  1  0
 61 60  1  0
 61 68  1  0
 61 62  1  0
 63 57  1  0
 63 62  1  0
 64 57  2  0
 65 66  2  0
 66 85  1  0
 67 66  1  0
 67 70  1  0
 68 65  1  0
 68 69  1  0
 69 67  2  0
 70 71  1  0
 71 72  2  0
 73 76  1  0
 73 72  1  0
 74 73  2  0
 75 74  1  0
 75 70  2  0
 76 77  1  0
 77 78  1  0
 78 79  2  0
 80 79  1  0
 80 84  1  0
 81 80  2  0
 82 77  2  0
 82 81  1  0
 83 82  1  0
 85 86  1  0
 86 89  1  0
 86 88  1  0
 87 85  2  0
 90 91  1  0
 90 65  1  0
 92 90  1  0
M  ISO  4   9 101  10 101  56 100  57 100
M  END
>  <TORSDO>  (10) 
F 23

>  <SCORE>  (10) 
-12.587

>  <name>  (10) 
9

>  <ligand_id>  (10) 
9

>  <original_smiles>  (10) 
[H]c1c([H])c([H])c2c(c1[H])C([H])([H])C([H])([H])C([H])([H])C2([H])N([H])C(=O)C1([H])N(C(=O)C([H])(N([H])C(=O)C([H])(N([H])C([H])([H])[H])C([H])([H])[H])C(C([H])([H])[H])(C([H])([H])[H])C([H])([H])[H])C([H])([H])c2c([H])c(OC([H])([H])c3c(C([H])([H])[H])nc(C([H])([H])C([H])([H])C([H])([H])C([H])([H])C([H])([H])C([H])([H])C(=O)N4C([H])([H])C([H])([H])C([H])([H])C([H])(n5nc(-c6c([H])c([H])c(Oc7c([H])c([H])c(F)c([H])c7F)c([H])c6[H])c(C(=O)N([H])[H])c5N([H])[H])C4([H])[H])c([H])c3C([H])([H])[H])c([H])c([H])c2C1([H])[H]

>  <smiles>  (10) 
[H]c1c([H])c([H])c2c(c1[H])C([H])([H])C([H])([H])C([H])([H])C2([H])N([H])C(=O)C1([H])N(C(=O)C([H])(N([H])C(=O)C([H])(N([H])C([H])([H])[H])C([H])([H])[H])C(C([H])([H])[H])(C([H])([H])[H])C([H])([H])[H])C([H])([H])c2c([H])c(OC([H])([H])c3c(C([H])([H])[H])nc(C([H])([H])C([H])([H])C([H])([H])C([H])([H])C([H])([H])C([H])([H])C(=O)N4C([H])([H])C([H])([H])C([H])([H])C([H])(n5nc(-c6c([H])c([H])c(Oc7c([H])c([H])c(F)c([H])c7F)c([H])c6[H])c(C(=O)N([H])[H])c5N([H])[H])C4([H])[H])c([H])c3C([H])([H])[H])c([H])c([H])c2C1([H])[H]

$$$$
10:0:0
     RDKit          3D

 97105  0  0  1  0  0  0  0  0999 V2000
  -30.3400  -22.1150   23.9570 C   0  0  0  0  0  0  0  0  0  0  0  0
  -30.6680  -20.8670   23.3670 C   0  0  0  0  0  0  0  0  0  0  0  0
  -29.4420  -22.8410   21.9520 C   0  0  0  0  0  0  0  0  0  0  0  0
  -29.8200  -21.6080   21.3430 C   0  0  0  0  0  0  0  0  0  0  0  0
  -30.6540  -22.4230   25.4090 C   0  0  0  0  0  1  0  0  0  0  0  0
  -29.7190  -23.0930   23.2550 N   0  0  0  0  0  0  0  0  0  0  0  0
  -30.4270  -20.6340   22.0560 N   0  0  0  0  0  0  0  0  0  0  0  0
  -31.2740  -19.7290   24.1880 C   0  0  0  0  0  2  0  0  0  0  0  0
  -30.9970  -18.2990   23.6690 C   0  0  0  0  0  2  0  0  0  0  0  0
  -31.7190  -17.9670   22.3430 C   0  0  0  0  0  2  0  0  0  0  0  0
  -31.4550  -16.5410   21.8130 C   0  0  0  0  0  2  0  0  0  0  0  0
  -30.3300  -16.4910   20.7570 C   0  0  0  0  0  2  0  0  0  0  0  0
  -30.2510  -14.2830   19.5380 C   0  0  0  0  0  0  0  0  0  0  0  0
  -29.8890  -12.0630   18.4950 C   0  0  0  0  0  2  0  0  0  0  0  0
  -28.7780  -12.1000   17.4270 C   0  0  0  0  0  2  0  0  0  0  0  0
  -27.3970  -11.8970   18.0750 C   0  0  0  0  0  2  0  0  0  0  0  0
  -27.1740  -12.8300   19.2920 C   0  0  0  0  0  3  0  0  0  0  0  0
  -28.3730  -12.7590   20.2610 C   0  0  0  0  0  2  0  0  0  0  0  0
  -29.5990  -13.0900   19.5090 N   0  0  0  0  0  0  0  0  0  0  0  0
  -31.1580  -14.5750   18.7500 O   0  0  0  0  0  0  0  0  0  0  0  0
  -29.8510  -15.1290   20.5000 N   0  0  0  0  0  0  0  0  0  0  0  0
  -29.0820  -14.8040   21.0690 H   0  0  0  0  0  0  0  0  0  0  0  0
  -24.9130  -13.3770   20.3940 C   0  0  0  0  0  0  0  0  0  0  0  0
  -23.9260  -12.5770   20.9060 C   0  0  0  0  0  0  0  0  0  0  0  0
  -24.3890  -11.2350   20.7530 C   0  0  0  0  0  0  0  0  0  0  0  0
  -25.9160  -12.5220   19.9700 N   0  0  0  0  0  0  0  0  0  0  0  0
  -25.6130  -11.2250   20.2390 N   0  0  0  0  0  0  0  0  0  0  0  0
  -23.7190   -9.9560   21.0180 C   0  0  0  0  0  0  0  0  0  0  0  0
  -24.2310   -9.0350   21.9590 C   0  0  0  0  0  3  0  0  0  0  0  0
  -23.5590   -7.8180   22.2070 C   0  0  0  0  0  3  0  0  0  0  0  0
  -22.3610   -7.5150   21.5150 C   0  0  0  0  0  0  0  0  0  0  0  0
  -21.8710   -8.4250   20.5630 C   0  0  0  0  0  3  0  0  0  0  0  0
  -22.5420   -9.6330   20.3130 C   0  0  0  0  0  3  0  0  0  0  0  0
  -21.6560   -6.3450   21.6710 O   0  0  0  0  0  0  0  0  0  0  0  0
  -21.6240   -5.6800   22.8710 C   0  0  0  0  0  0  0  0  0  0  0  0
  -21.0870   -6.2690   24.0360 C   0  0  0  0  0  3  0  0  0  0  0  0
  -21.0090   -5.5250   25.2290 C   0  0  0  0  0  3  0  0  0  0  0  0
  -21.4560   -4.1900   25.2590 C   0  0  0  0  0  0  0  0  0  0  0  0
  -21.9870   -3.6000   24.0980 C   0  0  0  0  0  3  0  0  0  0  0  0
  -22.0680   -4.3420   22.9070 C   0  0  0  0  0  0  0  0  0  0  0  0
  -22.5590   -3.7620   21.7850 F   0  0  0  0  0  0  0  0  0  0  0  0
  -21.3770   -3.4730   26.4030 F   0  0  0  0  0  0  0  0  0  0  0  0
  -22.5870  -13.0230   21.4200 C   0  0  0  0  0  0  0  0  0  0  0  0
  -22.0250  -12.2910   22.3750 N   0  0  0  0  0  0  0  0  0  0  0  0
  -22.0550  -14.0550   21.0110 O   0  0  0  0  0  0  0  0  0  0  0  0
  -22.4690  -11.4540   22.7220 H   0  0  0  0  0  0  0  0  0  0  0  0
  -21.1360  -12.5700   22.7670 H   0  0  0  0  0  0  0  0  0  0  0  0
  -25.0330  -14.7550   20.2380 N   0  0  0  0  0  0  0  0  0  0  0  0
  -24.2900  -15.3980   20.4910 H   0  0  0  0  0  0  0  0  0  0  0  0
  -25.8240  -15.2110   19.8020 H   0  0  0  0  0  0  0  0  0  0  0  0
  -29.5290  -21.2320   19.8950 C   0  0  0  0  0  2  0  0  0  0  0  0
  -28.0090  -19.8400   18.3510 C   0  0  0  0  0  1  0  0  0  0  0  0
  -28.2400  -20.4010   19.7640 C   0  0  0  0  0  2  0  0  0  0  0  0
  -28.5860  -23.8880   21.2530 C   0  0  0  0  0  2  0  0  0  0  0  0
  -29.3120  -25.2080   20.9050 C   0  0  0  0  0  2  0  0  0  0  0  0
  -28.5740  -25.9660   19.7850 C   0  0  0  0  0  2  0  0  0  0  0  0
  -28.6520  -27.3940   19.9230 O   0  0  0  0  0  0  0  0  0  0  0  0
  -24.5290  -31.9570   23.4670 C   0  0  0  0  0  0  0  0  0  0  0  0
  -27.4460  -28.0700   19.9360 C   0  0  0  0  0  0  0  0  0  0  0  0
  -23.4180  -30.6930   21.6590 C   0  0  0  0  0  3  0  0  0  0  0  0
  -24.9680  -29.4320   20.0760 C   0  0  0  0  0  0  0  0  0  0  0  0
  -25.9200  -31.2170   21.5400 C   0  0  0  0  0  2  0  0  0  0  0  0
  -26.0890  -29.9440   20.7410 C   0  0  0  0  0  0  0  0  0  0  0  0
  -27.3300  -29.2690   20.6730 C   0  0  0  0  0  3  0  0  0  0  0  0
  -26.3090  -27.5900   19.2420 C   0  0  0  0  0  3  0  0  0  0  0  0
  -25.0710  -28.2540   19.3190 C   0  0  0  0  0  3  0  0  0  0  0  0
  -23.6740  -30.2010   20.2100 C   0  0  0  0  0  2  0  0  0  0  0  0
  -24.6390  -31.2970   22.2820 N   0  0  0  0  0  0  0  0  0  0  0  0
  -23.4310  -32.0990   24.0220 O   0  0  0  0  0  0  0  0  0  0  0  0
  -22.8250  -29.5270   22.4830 C   0  0  0  0  0  0  0  0  0  0  0  0
  -21.5150  -29.2810   22.3110 N   0  0  0  0  0  0  0  0  0  0  0  0
  -23.5360  -28.8510   23.2310 O   0  0  0  0  0  0  0  0  0  0  0  0
  -20.9980  -29.8850   21.6880 H   0  0  0  0  0  0  0  0  0  0  0  0
  -18.2250  -27.8090   22.5630 C   0  0  0  0  0  0  0  0  0  0  0  0
  -20.7480  -28.2140   22.9520 C   0  0  0  0  0  3  0  0  0  0  0  0
  -20.9760  -26.8590   22.2430 C   0  0  0  0  0  2  0  0  0  0  0  0
  -19.9330  -26.5650   21.1630 C   0  0  0  0  0  2  0  0  0  0  0  0
  -18.5220  -26.5490   21.7660 C   0  0  0  0  0  2  0  0  0  0  0  0
  -19.2710  -28.5980   23.1060 C   0  0  0  0  0  0  0  0  0  0  0  0
  -18.9440  -29.7790   23.8090 C   0  0  0  0  0  3  0  0  0  0  0  0
  -17.6020  -30.1670   23.9770 C   0  0  0  0  0  3  0  0  0  0  0  0
  -16.5690  -29.3710   23.4520 C   0  0  0  0  0  3  0  0  0  0  0  0
  -16.8810  -28.1970   22.7480 C   0  0  0  0  0  3  0  0  0  0  0  0
  -25.7740  -32.5800   24.1730 C   0  0  0  0  0  3  0  0  0  0  0  0
  -26.1670  -31.8460   25.5140 C   0  0  1  0  0  0  0  0  0  0  0  0
  -24.9660  -31.5880   26.4540 C   0  0  0  0  0  1  0  0  0  0  0  0
  -26.8350  -30.4820   25.2140 C   0  0  0  0  0  1  0  0  0  0  0  0
  -27.2080  -32.6900   26.2870 C   0  0  0  0  0  1  0  0  0  0  0  0
  -25.4720  -33.9950   24.4220 N   0  0  0  0  0  0  0  0  0  0  0  0
  -25.9090  -35.0110   23.6660 C   0  0  0  0  0  0  0  0  0  0  0  0
  -26.6760  -34.8550   22.7100 O   0  0  0  0  0  0  0  0  0  0  0  0
  -24.8040  -34.1960   25.1520 H   0  0  0  0  0  0  0  0  0  0  0  0
  -24.2760  -36.8340   23.0750 C   0  0  0  0  0  1  0  0  0  0  0  0
  -25.4150  -36.4260   24.0230 C   0  0  0  0  0  3  0  0  0  0  0  0
  -27.4910  -37.2720   25.0240 C   0  0  0  0  0  1  0  0  0  0  0  0
  -26.4820  -37.4480   23.9850 N   0  0  0  0  0  0  0  0  0  0  0  0
  -26.0890  -38.3800   24.0810 H   0  0  0  0  0  0  0  0  0  0  0  0
  1  5  1  0
  2  1  1  0
  2  8  1  0
  3  6  1  0
  4  3  2  0
  4  7  1  0
  6  1  2  0
  7  2  2  0
  9  8  1  0
 10  9  1  0
 11 10  1  0
 12 11  1  0
 13 21  1  0
 14 19  1  0
 15 16  1  0
 15 14  1  0
 17 16  1  0
 17 26  1  0
 17 18  1  0
 19 13  1  0
 19 18  1  0
 20 13  2  0
 21 12  1  0
 21 22  1  0
 23 24  2  0
 24 43  1  0
 25 24  1  0
 25 28  1  0
 26 27  1  0
 26 23  1  0
 27 25  2  0
 28 29  1  0
 29 30  2  0
 31 34  1  0
 31 30  1  0
 32 31  2  0
 33 32  1  0
 33 28  2  0
 34 35  1  0
 35 40  2  0
 35 36  1  0
 36 37  2  0
 37 38  1  0
 38 42  1  0
 39 38  2  0
 40 39  1  0
 41 40  1  0
 43 44  1  0
 44 46  1  0
 44 47  1  0
 45 43  2  0
 48 23  1  0
 48 49  1  0
 50 48  1  0
 51  4  1  0
 52 53  1  0
 53 51  1  0
 54  3  1  0
 55 54  1  0
 56 57  1  0
 56 55  1  0
 57 59  1  0
 58 69  2  0
 59 64  1  0
 60 68  1  0
 60 70  1  0
 61 67  1  0
 61 63  1  0
 62 68  1  0
 63 62  1  0
 64 63  2  0
 65 66  1  0
 65 59  2  0
 66 61  2  0
 67 60  1  0
 68 58  1  0
 70 72  2  0
 71 70  1  0
 73 71  1  0
 74 83  2  0
 74 79  1  0
 75 71  1  0
 75 79  1  0
 76 75  1  0
 77 78  1  0
 77 76  1  0
 78 74  1  0
 79 80  2  0
 80 81  1  0
 82 81  2  0
 83 82  1  0
 84 58  1  0
 84 89  1  0
 84 85  1  0
 85 88  1  1
 85 86  1  0
 87 85  1  0
 89 92  1  0
 90 94  1  0
 90 89  1  0
 91 90  2  0
 94 93  1  0
 96 94  1  0
 96 97  1  0
 96 95  1  0
M  ISO  4  13 100  21 100  56 101  57 101
M  END
>  <TORSDO>  (11) 
F 26

>  <SCORE>  (11) 
-8.916

>  <name>  (11) 
10

>  <ligand_id>  (11) 
10

>  <original_smiles>  (11) 
[H]c1c([H])c([H])c2c(c1[H])C([H])([H])C([H])([H])C([H])([H])C2([H])N([H])C(=O)C1([H])N(C(=O)C([H])(N([H])C(=O)C([H])(N([H])C([H])([H])[H])C([H])([H])[H])C(C([H])([H])[H])(C([H])([H])[H])C([H])([H])[H])C([H])([H])c2c([H])c(OC([H])([H])C([H])([H])C([H])([H])c3nc(C([H])([H])[H])c(C([H])([H])C([H])([H])C([H])([H])C([H])([H])C([H])([H])N([H])C(=O)N4C([H])([H])C([H])([H])C([H])([H])C([H])(n5nc(-c6c([H])c([H])c(Oc7c([H])c([H])c(F)c([H])c7F)c([H])c6[H])c(C(=O)N([H])[H])c5N([H])[H])C4([H])[H])nc3C([H])([H])C([H])([H])C([H])([H])[H])c([H])c([H])c2C1([H])[H]

>  <smiles>  (11) 
[H]c1c([H])c([H])c2c(c1[H])C([H])([H])C([H])([H])C([H])([H])C2([H])N([H])C(=O)C1([H])N(C(=O)C([H])(N([H])C(=O)C([H])(N([H])C([H])([H])[H])C([H])([H])[H])C(C([H])([H])[H])(C([H])([H])[H])C([H])([H])[H])C([H])([H])c2c([H])c(OC([H])([H])C([H])([H])C([H])([H])c3nc(C([H])([H])[H])c(C([H])([H])C([H])([H])C([H])([H])C([H])([H])C([H])([H])N([H])C(=O)N4C([H])([H])C([H])([H])C([H])([H])C([H])(n5nc(-c6c([H])c([H])c(Oc7c([H])c([H])c(F)c([H])c7F)c([H])c6[H])c(C(=O)N([H])[H])c5N([H])[H])C4([H])[H])nc3C([H])([H])C([H])([H])C([H])([H])[H])c([H])c([H])c2C1([H])[H]

$$$$
11:0:0
     RDKit          3D

 93101  0  0  1  0  0  0  0  0999 V2000
  -29.8940  -20.2600   19.6340 C   0  0  0  0  0  3  0  0  0  0  0  0
  -30.6080  -19.4170   20.4600 C   0  0  0  0  0  0  0  0  0  0  0  0
  -30.9230  -20.2740   21.5710 C   0  0  0  0  0  0  0  0  0  0  0  0
  -30.3600  -21.4800   21.4510 N   0  0  0  0  0  0  0  0  0  0  0  0
  -29.7430  -21.5020   20.2520 N   0  0  0  0  0  0  0  0  0  0  0  0
  -30.9700  -17.9270   20.2450 C   0  0  0  0  0  2  0  0  0  0  0  0
  -30.0060  -16.9640   20.9880 C   0  0  0  0  0  2  0  0  0  0  0  0
  -30.9440  -14.6270   20.2270 C   0  0  0  0  0  0  0  0  0  0  0  0
  -30.7000  -12.4490   19.0430 C   0  0  0  0  0  2  0  0  0  0  0  0
  -29.7300  -12.6550   17.8590 C   0  0  0  0  0  2  0  0  0  0  0  0
  -28.2590  -12.5190   18.3010 C   0  0  0  0  0  2  0  0  0  0  0  0
  -27.9540  -13.3340   19.5830 C   0  0  0  0  0  3  0  0  0  0  0  0
  -29.0190  -13.0600   20.6700 C   0  0  0  0  0  2  0  0  0  0  0  0
  -30.3390  -13.4050   20.1070 N   0  0  0  0  0  0  0  0  0  0  0  0
  -31.9740  -14.9280   19.6220 O   0  0  0  0  0  0  0  0  0  0  0  0
  -30.2450  -15.4950   20.9970 N   0  0  0  0  0  0  0  0  0  0  0  0
  -29.5690  -15.0080   21.5640 H   0  0  0  0  0  0  0  0  0  0  0  0
  -25.5720  -13.9820   20.3120 C   0  0  0  0  0  0  0  0  0  0  0  0
  -24.4960  -13.2250   20.7010 C   0  0  0  0  0  0  0  0  0  0  0  0
  -24.9380  -11.8670   20.6690 C   0  0  0  0  0  0  0  0  0  0  0  0
  -26.6020  -13.0830   20.0770 N   0  0  0  0  0  0  0  0  0  0  0  0
  -26.2240  -11.8070   20.3410 N   0  0  0  0  0  0  0  0  0  0  0  0
  -24.1930  -10.6160   20.8770 C   0  0  0  0  0  0  0  0  0  0  0  0
  -24.6010   -9.6720   21.8440 C   0  0  0  0  0  3  0  0  0  0  0  0
  -23.8640   -8.4840   22.0430 C   0  0  0  0  0  3  0  0  0  0  0  0
  -22.7020   -8.2350   21.2720 C   0  0  0  0  0  0  0  0  0  0  0  0
  -22.3120   -9.1680   20.2950 C   0  0  0  0  0  3  0  0  0  0  0  0
  -23.0510  -10.3460   20.0940 C   0  0  0  0  0  3  0  0  0  0  0  0
  -21.9440   -7.0940   21.3710 O   0  0  0  0  0  0  0  0  0  0  0  0
  -21.8310   -6.4020   22.5510 C   0  0  0  0  0  0  0  0  0  0  0  0
  -21.3270   -7.0080   23.7240 C   0  0  0  0  0  3  0  0  0  0  0  0
  -21.1610   -6.2430   24.8950 C   0  0  0  0  0  3  0  0  0  0  0  0
  -21.4920   -4.8750   24.8960 C   0  0  0  0  0  0  0  0  0  0  0  0
  -21.9900   -4.2680   23.7280 C   0  0  0  0  0  3  0  0  0  0  0  0
  -22.1570   -5.0300   22.5580 C   0  0  0  0  0  0  0  0  0  0  0  0
  -22.6160   -4.4370   21.4280 F   0  0  0  0  0  0  0  0  0  0  0  0
  -21.3280   -4.1370   26.0190 F   0  0  0  0  0  0  0  0  0  0  0  0
  -23.1090  -13.7250   20.9910 C   0  0  0  0  0  0  0  0  0  0  0  0
  -22.3840  -13.0460   21.8760 N   0  0  0  0  0  0  0  0  0  0  0  0
  -22.6720  -14.7460   20.4660 O   0  0  0  0  0  0  0  0  0  0  0  0
  -22.7470  -12.2170   22.3180 H   0  0  0  0  0  0  0  0  0  0  0  0
  -21.4540  -13.3660   22.1130 H   0  0  0  0  0  0  0  0  0  0  0  0
  -25.7550  -15.3470   20.1280 N   0  0  0  0  0  0  0  0  0  0  0  0
  -25.0020  -16.0210   20.2300 H   0  0  0  0  0  0  0  0  0  0  0  0
  -26.6190  -15.7600   19.7960 H   0  0  0  0  0  0  0  0  0  0  0  0
  -31.7310  -19.9620   22.8230 C   0  0  0  0  0  2  0  0  0  0  0  0
  -32.1490  -21.2020   23.6600 C   0  0  0  0  0  2  0  0  0  0  0  0
  -29.9670  -21.0900   25.0620 C   0  0  0  0  0  1  0  0  0  0  0  0
  -30.9500  -21.9700   24.2650 C   0  0  0  0  0  2  0  0  0  0  0  0
  -28.8660  -22.6410   19.8860 C   0  0  0  0  0  2  0  0  0  0  0  0
  -29.3570  -24.1320   20.0770 C   0  0  0  0  0  2  0  0  0  0  0  0
  -28.2010  -25.1420   19.7290 C   0  0  0  0  0  2  0  0  0  0  0  0
  -28.3970  -26.5900   19.8430 O   0  0  0  0  0  0  0  0  0  0  0  0
  -24.6010  -31.7110   23.0900 C   0  0  0  0  0  0  0  0  0  0  0  0
  -27.2410  -27.3800   19.8220 C   0  0  0  0  0  0  0  0  0  0  0  0
  -23.3780  -30.3400   21.4400 C   0  0  0  0  0  3  0  0  0  0  0  0
  -24.8240  -28.8890   19.9180 C   0  0  0  0  0  0  0  0  0  0  0  0
  -25.8950  -30.7580   21.1790 C   0  0  0  0  0  2  0  0  0  0  0  0
  -25.9950  -29.4090   20.4880 C   0  0  0  0  0  0  0  0  0  0  0  0
  -27.2060  -28.6660   20.4270 C   0  0  0  0  0  3  0  0  0  0  0  0
  -26.0430  -26.9010   19.2370 C   0  0  0  0  0  3  0  0  0  0  0  0
  -24.8470  -27.6350   19.2880 C   0  0  0  0  0  3  0  0  0  0  0  0
  -23.5640  -29.7200   20.0300 C   0  0  0  0  0  2  0  0  0  0  0  0
  -24.6450  -30.9480   21.9620 N   0  0  0  0  0  0  0  0  0  0  0  0
  -23.5290  -31.9400   23.6680 O   0  0  0  0  0  0  0  0  0  0  0  0
  -22.7750  -29.2720   22.3830 C   0  0  0  0  0  0  0  0  0  0  0  0
  -21.4600  -29.0340   22.2540 N   0  0  0  0  0  0  0  0  0  0  0  0
  -23.4870  -28.6660   23.1870 O   0  0  0  0  0  0  0  0  0  0  0  0
  -20.9520  -29.5700   21.5650 H   0  0  0  0  0  0  0  0  0  0  0  0
  -18.1460  -27.6670   22.7200 C   0  0  0  0  0  0  0  0  0  0  0  0
  -20.6860  -28.0490   23.0070 C   0  0  0  0  0  3  0  0  0  0  0  0
  -20.8690  -26.6380   22.4090 C   0  0  0  0  0  2  0  0  0  0  0  0
  -19.7880  -26.2730   21.3870 C   0  0  0  0  0  2  0  0  0  0  0  0
  -18.3960  -26.3380   22.0240 C   0  0  0  0  0  2  0  0  0  0  0  0
  -19.2240  -28.4780   23.1650 C   0  0  0  0  0  0  0  0  0  0  0  0
  -18.9420  -29.7200   23.7730 C   0  0  0  0  0  3  0  0  0  0  0  0
  -17.6120  -30.1530   23.9440 C   0  0  0  0  0  3  0  0  0  0  0  0
  -16.5500  -29.3390   23.5160 C   0  0  0  0  0  3  0  0  0  0  0  0
  -16.8160  -28.0980   22.9080 C   0  0  0  0  0  3  0  0  0  0  0  0
  -25.8890  -32.3500   23.6920 C   0  0  0  0  0  3  0  0  0  0  0  0
  -25.5520  -33.7240   24.0920 N   0  0  0  0  0  0  0  0  0  0  0  0
  -25.8400  -34.8150   23.3720 C   0  0  0  0  0  0  0  0  0  0  0  0
  -26.4890  -34.7740   22.3230 O   0  0  0  0  0  0  0  0  0  0  0  0
  -24.9720  -33.8250   24.9130 H   0  0  0  0  0  0  0  0  0  0  0  0
  -24.0550  -36.5730   23.1340 C   0  0  0  0  0  1  0  0  0  0  0  0
  -25.3270  -36.1700   23.8970 C   0  0  0  0  0  3  0  0  0  0  0  0
  -27.4560  -37.0840   24.7110 C   0  0  0  0  0  1  0  0  0  0  0  0
  -26.3280  -37.2560   23.8010 N   0  0  0  0  0  0  0  0  0  0  0  0
  -25.8970  -38.1570   23.9900 H   0  0  0  0  0  0  0  0  0  0  0  0
  -26.4650  -31.5360   24.9170 C   0  0  1  0  0  0  0  0  0  0  0  0
  -25.4070  -31.1990   25.9910 C   0  0  0  0  0  1  0  0  0  0  0  0
  -27.0950  -30.2040   24.4410 C   0  0  0  0  0  1  0  0  0  0  0  0
  -27.5900  -32.3430   25.6030 C   0  0  0  0  0  1  0  0  0  0  0  0
  1  5  1  0
  1  2  2  0
  2  3  1  0
  3 46  1  0
  4  3  2  0
  5  4  1  0
  6  2  1  0
  6  7  1  0
  7 16  1  0
  8 16  1  0
  9 14  1  0
 10 11  1  0
 10  9  1  0
 12 11  1  0
 12 21  1  0
 12 13  1  0
 14  8  1  0
 14 13  1  0
 15  8  2  0
 16 17  1  0
 18 19  2  0
 19 38  1  0
 20 19  1  0
 20 23  1  0
 21 18  1  0
 21 22  1  0
 22 20  2  0
 23 24  1  0
 24 25  2  0
 26 29  1  0
 26 25  1  0
 27 26  2  0
 28 27  1  0
 28 23  2  0
 29 30  1  0
 30 35  2  0
 30 31  1  0
 31 32  2  0
 32 33  1  0
 33 37  1  0
 34 33  2  0
 35 34  1  0
 36 35  1  0
 38 39  1  0
 39 42  1  0
 39 41  1  0
 40 38  2  0
 43 44  1  0
 43 18  1  0
 45 43  1  0
 46 47  1  0
 47 49  1  0
 49 48  1  0
 50 51  1  0
 50  5  1  0
 52 53  1  0
 52 51  1  0
 54 65  2  0
 55 53  1  0
 55 60  1  0
 56 64  1  0
 56 66  1  0
 57 63  1  0
 57 59  1  0
 58 64  1  0
 59 58  1  0
 60 59  2  0
 61 62  1  0
 61 55  2  0
 62 57  2  0
 63 56  1  0
 64 54  1  0
 66 68  2  0
 67 66  1  0
 69 67  1  0
 70 79  2  0
 70 75  1  0
 71 67  1  0
 71 75  1  0
 72 71  1  0
 73 74  1  0
 73 72  1  0
 74 70  1  0
 75 76  2  0
 76 77  1  0
 78 77  2  0
 79 78  1  0
 80 54  1  0
 80 81  1  0
 80 90  1  0
 81 84  1  0
 82 86  1  0
 82 81  1  0
 83 82  2  0
 86 85  1  0
 88 86  1  0
 88 89  1  0
 88 87  1  0
 90 93  1  1
 90 91  1  0
 92 90  1  0
M  ISO  4   8 100  16 100  52 101  53 101
M  END
>  <TORSDO>  (12) 
F 24

>  <SCORE>  (12) 
-12.355

>  <name>  (12) 
11

>  <ligand_id>  (12) 
11

>  <original_smiles>  (12) 
[H]c1c([H])c([H])c2c(c1[H])C([H])([H])C([H])([H])C([H])([H])C2([H])N([H])C(=O)C1([H])N(C(=O)C([H])(N([H])C(=O)C([H])(N([H])C([H])([H])[H])C([H])([H])[H])C(C([H])([H])[H])(C([H])([H])[H])C([H])([H])[H])C([H])([H])c2c([H])c(OC([H])([H])C([H])([H])C([H])([H])n3nc(C([H])([H])C([H])([H])C([H])([H])C([H])([H])[H])c(C([H])([H])C([H])([H])N([H])C(=O)N4C([H])([H])C([H])([H])C([H])([H])C([H])(n5nc(-c6c([H])c([H])c(Oc7c([H])c([H])c(F)c([H])c7F)c([H])c6[H])c(C(=O)N([H])[H])c5N([H])[H])C4([H])[H])c3[H])c([H])c([H])c2C1([H])[H]

>  <smiles>  (12) 
[H]c1c([H])c([H])c2c(c1[H])C([H])([H])C([H])([H])C([H])([H])C2([H])N([H])C(=O)C1([H])N(C(=O)C([H])(N([H])C(=O)C([H])(N([H])C([H])([H])[H])C([H])([H])[H])C(C([H])([H])[H])(C([H])([H])[H])C([H])([H])[H])C([H])([H])c2c([H])c(OC([H])([H])C([H])([H])C([H])([H])n3nc(C([H])([H])C([H])([H])C([H])([H])C([H])([H])[H])c(C([H])([H])C([H])([H])N([H])C(=O)N4C([H])([H])C([H])([H])C([H])([H])C([H])(n5nc(-c6c([H])c([H])c(Oc7c([H])c([H])c(F)c([H])c7F)c([H])c6[H])c(C(=O)N([H])[H])c5N([H])[H])C4([H])[H])c3[H])c([H])c([H])c2C1([H])[H]

$$$$
12:0:0
     RDKit          3D

 93101  0  0  1  0  0  0  0  0999 V2000
  -28.0770  -22.0370   19.4350 C   0  0  0  0  0  3  0  0  0  0  0  0
  -27.7220  -24.3970   18.9350 C   0  0  0  0  0  3  0  0  0  0  0  0
  -29.4930  -23.7300   20.4680 C   0  0  0  0  0  3  0  0  0  0  0  0
  -27.3550  -23.0480   18.7680 C   0  0  0  0  0  0  0  0  0  0  0  0
  -29.1610  -22.3690   20.2830 C   0  0  0  0  0  0  0  0  0  0  0  0
  -28.7820  -24.7450   19.7950 C   0  0  0  0  0  0  0  0  0  0  0  0
  -26.6440  -22.2560   16.4660 C   0  0  0  0  0  1  0  0  0  0  0  0
  -26.1880  -22.6900   17.8630 C   0  0  0  0  0  2  0  0  0  0  0  0
  -29.9950  -21.3080   21.0010 C   0  0  0  0  0  2  0  0  0  0  0  0
  -29.7780  -19.8530   20.5400 C   0  0  0  0  0  2  0  0  0  0  0  0
  -30.7660  -18.8620   21.1790 C   0  0  0  0  0  2  0  0  0  0  0  0
  -30.4700  -17.4090   20.7770 C   0  0  0  0  0  2  0  0  0  0  0  0
  -31.4000  -16.3810   21.4440 C   0  0  0  0  0  2  0  0  0  0  0  0
  -31.3400  -14.2150   20.2030 C   0  0  0  0  0  0  0  0  0  0  0  0
  -30.8060  -12.2100   18.8710 C   0  0  0  0  0  2  0  0  0  0  0  0
  -29.8200  -12.5540   17.7370 C   0  0  0  0  0  2  0  0  0  0  0  0
  -28.3630  -12.4900   18.2330 C   0  0  0  0  0  2  0  0  0  0  0  0
  -28.1490  -13.2690   19.5570 C   0  0  0  0  0  3  0  0  0  0  0  0
  -29.2300  -12.8890   20.5940 C   0  0  0  0  0  2  0  0  0  0  0  0
  -30.5570  -13.1250   19.9940 N   0  0  0  0  0  0  0  0  0  0  0  0
  -32.3470  -14.4710   19.5360 O   0  0  0  0  0  0  0  0  0  0  0  0
  -30.9220  -15.0270   21.1810 N   0  0  0  0  0  0  0  0  0  0  0  0
  -30.1260  -14.7090   21.7130 H   0  0  0  0  0  0  0  0  0  0  0  0
  -25.8160  -13.9930   20.3820 C   0  0  0  0  0  0  0  0  0  0  0  0
  -24.7210  -13.2710   20.7770 C   0  0  0  0  0  0  0  0  0  0  0  0
  -25.1010  -11.8980   20.6880 C   0  0  0  0  0  0  0  0  0  0  0  0
  -26.7990  -13.0620   20.0830 N   0  0  0  0  0  0  0  0  0  0  0  0
  -26.3720  -11.7950   20.3200 N   0  0  0  0  0  0  0  0  0  0  0  0
  -24.3130  -10.6730   20.8760 C   0  0  0  0  0  0  0  0  0  0  0  0
  -24.6670   -9.7100   21.8470 C   0  0  0  0  0  3  0  0  0  0  0  0
  -23.8830   -8.5490   22.0210 C   0  0  0  0  0  3  0  0  0  0  0  0
  -22.7320   -8.3430   21.2250 C   0  0  0  0  0  0  0  0  0  0  0  0
  -22.3970   -9.2930   20.2450 C   0  0  0  0  0  3  0  0  0  0  0  0
  -23.1800  -10.4470   20.0690 C   0  0  0  0  0  3  0  0  0  0  0  0
  -21.9250   -7.2330   21.3070 O   0  0  0  0  0  0  0  0  0  0  0  0
  -21.7360   -6.5670   22.4910 C   0  0  0  0  0  0  0  0  0  0  0  0
  -21.1270   -7.1840   23.6050 C   0  0  0  0  0  3  0  0  0  0  0  0
  -20.8890   -6.4420   24.7790 C   0  0  0  0  0  3  0  0  0  0  0  0
  -21.2490   -5.0820   24.8390 C   0  0  0  0  0  0  0  0  0  0  0  0
  -21.8510   -4.4640   23.7290 C   0  0  0  0  0  3  0  0  0  0  0  0
  -22.0910   -5.2040   22.5570 C   0  0  0  0  0  0  0  0  0  0  0  0
  -22.6510   -4.5980   21.4830 F   0  0  0  0  0  0  0  0  0  0  0  0
  -21.0130   -4.3670   25.9630 F   0  0  0  0  0  0  0  0  0  0  0  0
  -23.3670  -13.8180   21.1290 C   0  0  0  0  0  0  0  0  0  0  0  0
  -22.6390  -13.1360   22.0070 N   0  0  0  0  0  0  0  0  0  0  0  0
  -22.9660  -14.8810   20.6600 O   0  0  0  0  0  0  0  0  0  0  0  0
  -22.9760  -12.2730   22.4080 H   0  0  0  0  0  0  0  0  0  0  0  0
  -21.7300  -13.4800   22.2800 H   0  0  0  0  0  0  0  0  0  0  0  0
  -26.0520  -15.3570   20.2340 N   0  0  0  0  0  0  0  0  0  0  0  0
  -25.3340  -16.0550   20.3890 H   0  0  0  0  0  0  0  0  0  0  0  0
  -26.9220  -15.7530   19.8980 H   0  0  0  0  0  0  0  0  0  0  0  0
  -29.1980  -26.2000   19.9430 C   0  0  0  0  0  2  0  0  0  0  0  0
  -28.6930  -26.8430   21.1120 O   0  0  0  0  0  0  0  0  0  0  0  0
  -24.6690  -32.1460   23.5880 C   0  0  0  0  0  0  0  0  0  0  0  0
  -27.4990  -27.5170   20.9980 C   0  0  0  0  0  0  0  0  0  0  0  0
  -23.5580  -30.6240   21.9820 C   0  0  0  0  0  3  0  0  0  0  0  0
  -25.0940  -28.9850   20.7700 C   0  0  0  0  0  0  0  0  0  0  0  0
  -26.0890  -30.9760   21.9120 C   0  0  0  0  0  2  0  0  0  0  0  0
  -26.2100  -29.5600   21.3900 C   0  0  0  0  0  0  0  0  0  0  0  0
  -27.4090  -28.8270   21.5170 C   0  0  0  0  0  3  0  0  0  0  0  0
  -26.3600  -26.9430   20.3890 C   0  0  0  0  0  3  0  0  0  0  0  0
  -25.1610  -27.6710   20.2760 C   0  0  0  0  0  3  0  0  0  0  0  0
  -23.8480  -29.8370   20.6750 C   0  0  0  0  0  2  0  0  0  0  0  0
  -24.7860  -31.2670   22.5530 N   0  0  0  0  0  0  0  0  0  0  0  0
  -23.5590  -32.4580   24.0410 O   0  0  0  0  0  0  0  0  0  0  0  0
  -22.8470  -29.6770   22.9740 C   0  0  0  0  0  0  0  0  0  0  0  0
  -21.5610  -29.3960   22.7140 N   0  0  0  0  0  0  0  0  0  0  0  0
  -23.4550  -29.1920   23.9320 O   0  0  0  0  0  0  0  0  0  0  0  0
  -21.1310  -29.8410   21.9140 H   0  0  0  0  0  0  0  0  0  0  0  0
  -18.2300  -28.0170   22.9200 C   0  0  0  0  0  0  0  0  0  0  0  0
  -20.7040  -28.4990   23.4870 C   0  0  0  0  0  3  0  0  0  0  0  0
  -20.9700  -27.0210   23.1220 C   0  0  0  0  0  2  0  0  0  0  0  0
  -20.0410  -26.4950   22.0220 C   0  0  0  0  0  2  0  0  0  0  0  0
  -18.5770  -26.6120   22.4550 C   0  0  0  0  0  2  0  0  0  0  0  0
  -19.2310  -28.9080   23.3880 C   0  0  0  0  0  0  0  0  0  0  0  0
  -18.8590  -30.2140   23.7730 C   0  0  0  0  0  3  0  0  0  0  0  0
  -17.5170  -30.6320   23.6980 C   0  0  0  0  0  3  0  0  0  0  0  0
  -16.5280  -29.7410   23.2470 C   0  0  0  0  0  3  0  0  0  0  0  0
  -16.8850  -28.4360   22.8640 C   0  0  0  0  0  3  0  0  0  0  0  0
  -25.9190  -32.8190   24.2370 C   0  0  0  0  0  3  0  0  0  0  0  0
  -25.5910  -34.2320   24.4660 N   0  0  0  0  0  0  0  0  0  0  0  0
  -25.9300  -35.2340   23.6430 C   0  0  0  0  0  0  0  0  0  0  0  0
  -26.6250  -35.0690   22.6360 O   0  0  0  0  0  0  0  0  0  0  0  0
  -24.9770  -34.4340   25.2410 H   0  0  0  0  0  0  0  0  0  0  0  0
  -24.1780  -36.9660   23.1410 C   0  0  0  0  0  1  0  0  0  0  0  0
  -25.4160  -36.6430   23.9930 C   0  0  0  0  0  3  0  0  0  0  0  0
  -27.5130  -37.6330   24.7960 C   0  0  0  0  0  1  0  0  0  0  0  0
  -26.4320  -37.7020   23.8160 N   0  0  0  0  0  0  0  0  0  0  0  0
  -26.0070  -38.6230   23.8770 H   0  0  0  0  0  0  0  0  0  0  0  0
  -26.3730  -32.1270   25.5800 C   0  0  1  0  0  0  0  0  0  0  0  0
  -25.2150  -31.8820   26.5760 C   0  0  0  0  0  1  0  0  0  0  0  0
  -27.0420  -30.7630   25.2910 C   0  0  0  0  0  1  0  0  0  0  0  0
  -27.4380  -32.9990   26.2880 C   0  0  0  0  0  1  0  0  0  0  0  0
  1  5  1  0
  2  6  2  0
  4  2  1  0
  4  1  2  0
  5  3  2  0
  5  9  1  0
  6 52  1  0
  6  3  1  0
  7  8  1  0
  8  4  1  0
 10  9  1  0
 10 11  1  0
 12 11  1  0
 12 13  1  0
 14 22  1  0
 15 20  1  0
 16 17  1  0
 16 15  1  0
 18 17  1  0
 18 27  1  0
 18 19  1  0
 20 14  1  0
 20 19  1  0
 21 14  2  0
 22 13  1  0
 22 23  1  0
 24 25  2  0
 25 44  1  0
 26 25  1  0
 26 29  1  0
 27 28  1  0
 27 24  1  0
 28 26  2  0
 29 30  1  0
 30 31  2  0
 32 35  1  0
 32 31  1  0
 33 32  2  0
 34 33  1  0
 34 29  2  0
 35 36  1  0
 36 41  2  0
 36 37  1  0
 37 38  2  0
 38 39  1  0
 39 43  1  0
 40 39  2  0
 41 40  1  0
 42 41  1  0
 44 45  1  0
 45 48  1  0
 45 47  1  0
 46 44  2  0
 49 24  1  0
 49 50  1  0
 51 49  1  0
 52 53  1  0
 54 65  2  0
 55 53  1  0
 55 60  1  0
 56 64  1  0
 56 66  1  0
 57 59  1  0
 58 64  1  0
 59 60  2  0
 59 58  1  0
 61 55  2  0
 62 61  1  0
 62 57  2  0
 63 57  1  0
 63 56  1  0
 64 54  1  0
 66 68  2  0
 67 66  1  0
 69 67  1  0
 70 75  1  0
 71 67  1  0
 72 71  1  0
 73 74  1  0
 73 72  1  0
 74 70  1  0
 75 71  1  0
 75 76  2  0
 77 76  1  0
 78 77  2  0
 79 70  2  0
 79 78  1  0
 80 54  1  0
 80 81  1  0
 80 90  1  0
 81 84  1  0
 82 86  1  0
 82 81  1  0
 83 82  2  0
 86 85  1  0
 88 89  1  0
 88 86  1  0
 88 87  1  0
 90 93  1  1
 90 91  1  0
 92 90  1  0
M  ISO  4  14 100  22 100  52 101  53 101
M  END
>  <TORSDO>  (13) 
F 23

>  <SCORE>  (13) 
-10.068

>  <name>  (13) 
12

>  <ligand_id>  (13) 
12

>  <original_smiles>  (13) 
[H]c1c([H])c([H])c2c(c1[H])C([H])([H])C([H])([H])C([H])([H])C2([H])N([H])C(=O)C1([H])N(C(=O)C([H])(N([H])C(=O)C([H])(N([H])C([H])([H])[H])C([H])([H])[H])C(C([H])([H])[H])(C([H])([H])[H])C([H])([H])[H])C([H])([H])c2c([H])c(OC([H])([H])c3c([H])c(C([H])([H])C([H])([H])[H])c([H])c(C([H])([H])C([H])([H])C([H])([H])C([H])([H])C([H])([H])N([H])C(=O)N4C([H])([H])C([H])([H])C([H])([H])C([H])(n5nc(-c6c([H])c([H])c(Oc7c([H])c([H])c(F)c([H])c7F)c([H])c6[H])c(C(=O)N([H])[H])c5N([H])[H])C4([H])[H])c3[H])c([H])c([H])c2C1([H])[H]

>  <smiles>  (13) 
[H]c1c([H])c([H])c2c(c1[H])C([H])([H])C([H])([H])C([H])([H])C2([H])N([H])C(=O)C1([H])N(C(=O)C([H])(N([H])C(=O)C([H])(N([H])C([H])([H])[H])C([H])([H])[H])C(C([H])([H])[H])(C([H])([H])[H])C([H])([H])[H])C([H])([H])c2c([H])c(OC([H])([H])c3c([H])c(C([H])([H])C([H])([H])[H])c([H])c(C([H])([H])C([H])([H])C([H])([H])C([H])([H])C([H])([H])N([H])C(=O)N4C([H])([H])C([H])([H])C([H])([H])C([H])(n5nc(-c6c([H])c([H])c(Oc7c([H])c([H])c(F)c([H])c7F)c([H])c6[H])c(C(=O)N([H])[H])c5N([H])[H])C4([H])[H])c3[H])c([H])c([H])c2C1([H])[H]

$$$$
13:0:0
     RDKit          3D

 95103  0  0  1  0  0  0  0  0999 V2000
  -31.4150  -25.9690   18.0000 C   0  0  0  0  0  3  0  0  0  0  0  0
  -31.1420  -23.8280   18.5670 C   0  0  0  0  0  3  0  0  0  0  0  0
  -32.6620  -25.4080   18.0860 C   0  0  0  0  0  0  0  0  0  0  0  0
  -32.4910  -24.0390   18.4670 C   0  0  0  0  0  0  0  0  0  0  0  0
  -33.9660  -26.1200   17.8230 C   0  0  0  0  0  1  0  0  0  0  0  0
  -30.4760  -25.0070   18.2980 N   0  0  0  0  0  0  0  0  0  0  0  0
  -29.0310  -25.1850   18.3160 C   0  0  0  0  0  2  0  0  0  0  0  0
  -28.4960  -25.4110   19.7420 C   0  0  0  0  0  2  0  0  0  0  0  0
  -28.4500  -26.8010   20.0840 O   0  0  0  0  0  0  0  0  0  0  0  0
  -24.5870  -31.8920   23.2000 C   0  0  0  0  0  0  0  0  0  0  0  0
  -27.2460  -27.4780   20.0720 C   0  0  0  0  0  0  0  0  0  0  0  0
  -23.3800  -30.4940   21.5520 C   0  0  0  0  0  3  0  0  0  0  0  0
  -24.8370  -28.9680   20.1150 C   0  0  0  0  0  0  0  0  0  0  0  0
  -25.9070  -30.8510   21.3650 C   0  0  0  0  0  2  0  0  0  0  0  0
  -25.9930  -29.4890   20.7090 C   0  0  0  0  0  0  0  0  0  0  0  0
  -27.1950  -28.7490   20.6870 C   0  0  0  0  0  3  0  0  0  0  0  0
  -26.0700  -26.9740   19.4650 C   0  0  0  0  0  3  0  0  0  0  0  0
  -24.8710  -27.7080   19.4970 C   0  0  0  0  0  3  0  0  0  0  0  0
  -23.5900  -29.8190   20.1700 C   0  0  0  0  0  2  0  0  0  0  0  0
  -24.6410  -31.0960   22.0960 N   0  0  0  0  0  0  0  0  0  0  0  0
  -23.5070  -32.1640   23.7420 O   0  0  0  0  0  0  0  0  0  0  0  0
  -22.7310  -29.4660   22.5080 C   0  0  0  0  0  0  0  0  0  0  0  0
  -21.4060  -29.2880   22.3820 N   0  0  0  0  0  0  0  0  0  0  0  0
  -23.4170  -28.8330   23.3160 O   0  0  0  0  0  0  0  0  0  0  0  0
  -20.9170  -29.8490   21.6980 H   0  0  0  0  0  0  0  0  0  0  0  0
  -18.0290  -28.1120   22.8870 C   0  0  0  0  0  0  0  0  0  0  0  0
  -20.5890  -28.3470   23.1470 C   0  0  0  0  0  3  0  0  0  0  0  0
  -20.6800  -26.9230   22.5520 C   0  0  0  0  0  2  0  0  0  0  0  0
  -19.5700  -26.6200   21.5420 C   0  0  0  0  0  2  0  0  0  0  0  0
  -18.1930  -26.7680   22.1950 C   0  0  0  0  0  2  0  0  0  0  0  0
  -19.1560  -28.8610   23.3190 C   0  0  0  0  0  0  0  0  0  0  0  0
  -18.9520  -30.1200   23.9240 C   0  0  0  0  0  3  0  0  0  0  0  0
  -17.6530  -30.6310   24.1010 C   0  0  0  0  0  3  0  0  0  0  0  0
  -16.5400  -29.8790   23.6880 C   0  0  0  0  0  3  0  0  0  0  0  0
  -16.7290  -28.6210   23.0870 C   0  0  0  0  0  3  0  0  0  0  0  0
  -25.8740  -32.5170   23.8230 C   0  0  0  0  0  3  0  0  0  0  0  0
  -26.4030  -31.7310   25.0860 C   0  0  1  0  0  0  0  0  0  0  0  0
  -25.3140  -31.4760   26.1540 C   0  0  0  0  0  1  0  0  0  0  0  0
  -26.9890  -30.3610   24.6730 C   0  0  0  0  0  1  0  0  0  0  0  0
  -27.5550  -32.5220   25.7520 C   0  0  0  0  0  1  0  0  0  0  0  0
  -25.5650  -33.9100   24.1690 N   0  0  0  0  0  0  0  0  0  0  0  0
  -25.8820  -34.9700   23.4140 C   0  0  0  0  0  0  0  0  0  0  0  0
  -26.5370  -34.8790   22.3710 O   0  0  0  0  0  0  0  0  0  0  0  0
  -24.9810  -34.0590   24.9780 H   0  0  0  0  0  0  0  0  0  0  0  0
  -24.1350  -36.7510   23.0980 C   0  0  0  0  0  1  0  0  0  0  0  0
  -25.3900  -36.3490   23.8880 C   0  0  0  0  0  3  0  0  0  0  0  0
  -27.5250  -37.2460   24.7000 C   0  0  0  0  0  1  0  0  0  0  0  0
  -26.4130  -37.4110   23.7680 N   0  0  0  0  0  0  0  0  0  0  0  0
  -26.0020  -38.3270   23.9250 H   0  0  0  0  0  0  0  0  0  0  0  0
  -33.5990  -23.0240   18.6910 C   0  0  0  0  0  2  0  0  0  0  0  0
  -33.1940  -21.7280   19.4270 C   0  0  0  0  0  2  0  0  0  0  0  0
  -32.6820  -21.9480   20.8650 C   0  0  0  0  0  2  0  0  0  0  0  0
  -32.5860  -20.6750   21.7200 C   0  0  0  0  0  2  0  0  0  0  0  0
  -31.7120  -19.5660   21.1130 C   0  0  0  0  0  2  0  0  0  0  0  0
  -31.4720  -18.4150   22.0960 C   0  0  0  0  0  2  0  0  0  0  0  0
  -30.7580  -17.2300   21.4370 C   0  0  0  0  0  2  0  0  0  0  0  0
  -31.0370  -15.9110   22.1640 C   0  0  0  0  0  2  0  0  0  0  0  0
  -30.6740  -14.2480   20.3250 C   0  0  0  0  0  0  0  0  0  0  0  0
  -30.2210  -12.2870   18.8950 C   0  0  0  0  0  2  0  0  0  0  0  0
  -29.2090  -12.5930   17.7770 C   0  0  0  0  0  2  0  0  0  0  0  0
  -27.7610  -12.4430   18.2810 C   0  0  0  0  0  2  0  0  0  0  0  0
  -27.5170  -13.2030   19.6110 C   0  0  0  0  0  3  0  0  0  0  0  0
  -28.6100  -12.8480   20.6390 C   0  0  0  0  0  2  0  0  0  0  0  0
  -29.9250  -13.1540   20.0430 N   0  0  0  0  0  0  0  0  0  0  0  0
  -31.6060  -14.6450   19.6180 O   0  0  0  0  0  0  0  0  0  0  0  0
  -30.3710  -14.7960   21.5110 N   0  0  0  0  0  0  0  0  0  0  0  0
  -29.6230  -14.3520   22.0260 H   0  0  0  0  0  0  0  0  0  0  0  0
  -25.1590  -13.8310   20.4430 C   0  0  0  0  0  0  0  0  0  0  0  0
  -24.1010  -13.0650   20.8500 C   0  0  0  0  0  0  0  0  0  0  0  0
  -24.5410  -11.7070   20.7640 C   0  0  0  0  0  0  0  0  0  0  0  0
  -26.1820  -12.9410   20.1450 N   0  0  0  0  0  0  0  0  0  0  0  0
  -25.8130  -11.6590   20.3880 N   0  0  0  0  0  0  0  0  0  0  0  0
  -23.8100  -10.4510   20.9670 C   0  0  0  0  0  0  0  0  0  0  0  0
  -24.2480   -9.4840   21.8990 C   0  0  0  0  0  3  0  0  0  0  0  0
  -23.5200   -8.2900   22.0890 C   0  0  0  0  0  3  0  0  0  0  0  0
  -22.3370   -8.0560   21.3470 C   0  0  0  0  0  0  0  0  0  0  0  0
  -21.9180   -9.0110   20.4040 C   0  0  0  0  0  3  0  0  0  0  0  0
  -22.6470  -10.1960   20.2130 C   0  0  0  0  0  3  0  0  0  0  0  0
  -21.5810   -6.9140   21.4450 O   0  0  0  0  0  0  0  0  0  0  0  0
  -21.5180   -6.1890   22.6070 C   0  0  0  0  0  0  0  0  0  0  0  0
  -21.0670   -6.7620   23.8160 C   0  0  0  0  0  3  0  0  0  0  0  0
  -20.9460   -5.9640   24.9720 C   0  0  0  0  0  3  0  0  0  0  0  0
  -21.2670   -4.5950   24.9200 C   0  0  0  0  0  0  0  0  0  0  0  0
  -21.7100   -4.0220   23.7150 C   0  0  0  0  0  3  0  0  0  0  0  0
  -21.8320   -4.8170   22.5620 C   0  0  0  0  0  0  0  0  0  0  0  0
  -22.2360   -4.2520   21.3980 F   0  0  0  0  0  0  0  0  0  0  0  0
  -21.1480   -3.8270   26.0290 F   0  0  0  0  0  0  0  0  0  0  0  0
  -22.7240  -13.5510   21.2080 C   0  0  0  0  0  0  0  0  0  0  0  0
  -22.0310  -12.8390   22.0900 N   0  0  0  0  0  0  0  0  0  0  0  0
  -22.2730  -14.5960   20.7420 O   0  0  0  0  0  0  0  0  0  0  0  0
  -22.4100  -11.9920   22.4870 H   0  0  0  0  0  0  0  0  0  0  0  0
  -21.1090  -13.1470   22.3630 H   0  0  0  0  0  0  0  0  0  0  0  0
  -25.3350  -15.2030   20.2800 N   0  0  0  0  0  0  0  0  0  0  0  0
  -24.5960  -15.8780   20.4410 H   0  0  0  0  0  0  0  0  0  0  0  0
  -26.1930  -15.6310   19.9540 H   0  0  0  0  0  0  0  0  0  0  0  0
  1  3  2  0
  1  6  1  0
  3  4  1  0
  4  2  2  0
  4 50  1  0
  5  3  1  0
  6  7  1  0
  6  2  1  0
  7  8  1  0
  8  9  1  0
 10 21  2  0
 11  9  1  0
 11 16  1  0
 12 20  1  0
 12 22  1  0
 13 19  1  0
 13 15  1  0
 14 20  1  0
 15 14  1  0
 16 15  2  0
 17 18  1  0
 17 11  2  0
 18 13  2  0
 19 12  1  0
 20 10  1  0
 22 24  2  0
 23 22  1  0
 25 23  1  0
 26 35  2  0
 26 31  1  0
 27 23  1  0
 27 31  1  0
 28 27  1  0
 29 30  1  0
 29 28  1  0
 30 26  1  0
 31 32  2  0
 32 33  1  0
 34 33  2  0
 35 34  1  0
 36 10  1  0
 36 41  1  0
 36 37  1  0
 37 40  1  1
 37 38  1  0
 39 37  1  0
 41 44  1  0
 42 46  1  0
 42 41  1  0
 43 42  2  0
 46 45  1  0
 48 46  1  0
 48 49  1  0
 48 47  1  0
 50 51  1  0
 51 52  1  0
 52 53  1  0
 54 53  1  0
 54 55  1  0
 56 55  1  0
 56 57  1  0
 58 66  1  0
 59 64  1  0
 60 61  1  0
 60 59  1  0
 62 61  1  0
 62 71  1  0
 62 63  1  0
 64 58  1  0
 64 63  1  0
 65 58  2  0
 66 67  1  0
 66 57  1  0
 68 69  2  0
 69 88  1  0
 70 69  1  0
 70 73  1  0
 71 72  1  0
 71 68  1  0
 72 70  2  0
 73 74  1  0
 74 75  2  0
 76 79  1  0
 76 75  1  0
 77 76  2  0
 78 77  1  0
 78 73  2  0
 79 80  1  0
 80 81  1  0
 81 82  2  0
 83 82  1  0
 83 87  1  0
 84 83  2  0
 85 80  2  0
 85 84  1  0
 86 85  1  0
 88 89  1  0
 89 92  1  0
 89 91  1  0
 90 88  2  0
 93 94  1  0
 93 68  1  0
 95 93  1  0
M  ISO  4   8 101   9 101  58 100  66 100
M  END
>  <TORSDO>  (14) 
F 26

>  <SCORE>  (14) 
-11.386

>  <name>  (14) 
13

>  <ligand_id>  (14) 
13

>  <original_smiles>  (14) 
[H]c1c([H])c([H])c2c(c1[H])C([H])([H])C([H])([H])C([H])([H])C2([H])N([H])C(=O)C1([H])N(C(=O)C([H])(N([H])C(=O)C([H])(N([H])C([H])([H])[H])C([H])([H])[H])C(C([H])([H])[H])(C([H])([H])[H])C([H])([H])[H])C([H])([H])c2c([H])c(OC([H])([H])C([H])([H])n3c([H])c(C([H])([H])[H])c(C([H])([H])C([H])([H])C([H])([H])C([H])([H])C([H])([H])C([H])([H])C([H])([H])C([H])([H])N([H])C(=O)N4C([H])([H])C([H])([H])C([H])([H])C([H])(n5nc(-c6c([H])c([H])c(Oc7c([H])c([H])c(F)c([H])c7F)c([H])c6[H])c(C(=O)N([H])[H])c5N([H])[H])C4([H])[H])c3[H])c([H])c([H])c2C1([H])[H]

>  <smiles>  (14) 
[H]c1c([H])c([H])c2c(c1[H])C([H])([H])C([H])([H])C([H])([H])C2([H])N([H])C(=O)C1([H])N(C(=O)C([H])(N([H])C(=O)C([H])(N([H])C([H])([H])[H])C([H])([H])[H])C(C([H])([H])[H])(C([H])([H])[H])C([H])([H])[H])C([H])([H])c2c([H])c(OC([H])([H])C([H])([H])n3c([H])c(C([H])([H])[H])c(C([H])([H])C([H])([H])C([H])([H])C([H])([H])C([H])([H])C([H])([H])C([H])([H])C([H])([H])N([H])C(=O)N4C([H])([H])C([H])([H])C([H])([H])C([H])(n5nc(-c6c([H])c([H])c(Oc7c([H])c([H])c(F)c([H])c7F)c([H])c6[H])c(C(=O)N([H])[H])c5N([H])[H])C4([H])[H])c3[H])c([H])c([H])c2C1([H])[H]

$$$$
14:0:0
     RDKit          3D

 93101  0  0  1  0  0  0  0  0999 V2000
  -28.6310  -24.5130   17.8190 C   0  0  0  0  0  3  0  0  0  0  0  0
  -29.4860  -24.2940   18.9160 C   0  0  0  0  0  0  0  0  0  0  0  0
  -29.5750  -22.9450   19.3640 C   0  0  0  0  0  0  0  0  0  0  0  0
  -28.1280  -22.2990   17.6970 C   0  0  0  0  0  0  0  0  0  0  0  0
  -27.3830  -21.1690   17.0210 C   0  0  0  0  0  1  0  0  0  0  0  0
  -27.9500  -23.5210   17.2210 N   0  0  0  0  0  0  0  0  0  0  0  0
  -28.9070  -21.9710   18.7150 N   0  0  0  0  0  0  0  0  0  0  0  0
  -30.2870  -25.4800   19.4920 C   0  0  0  0  0  2  0  0  0  0  0  0
  -29.5770  -26.8700   19.4500 C   0  0  0  0  0  2  0  0  0  0  0  0
  -28.3820  -26.7050   20.1820 O   0  0  0  0  0  0  0  0  0  0  0  0
  -24.6920  -31.9760   23.2140 C   0  0  0  0  0  0  0  0  0  0  0  0
  -27.3270  -27.5780   20.0670 C   0  0  0  0  0  0  0  0  0  0  0  0
  -23.4720  -30.5630   21.5920 C   0  0  0  0  0  3  0  0  0  0  0  0
  -24.9230  -29.0580   20.1230 C   0  0  0  0  0  0  0  0  0  0  0  0
  -25.9910  -30.9600   21.3430 C   0  0  0  0  0  2  0  0  0  0  0  0
  -26.0880  -29.5970   20.6860 C   0  0  0  0  0  0  0  0  0  0  0  0
  -27.3030  -28.8650   20.6540 C   0  0  0  0  0  3  0  0  0  0  0  0
  -26.1490  -27.0540   19.5040 C   0  0  0  0  0  3  0  0  0  0  0  0
  -24.9490  -27.7880   19.5220 C   0  0  0  0  0  3  0  0  0  0  0  0
  -23.6630  -29.8920   20.2050 C   0  0  0  0  0  2  0  0  0  0  0  0
  -24.7380  -31.1790   22.1080 N   0  0  0  0  0  0  0  0  0  0  0  0
  -23.6180  -32.2330   23.7760 O   0  0  0  0  0  0  0  0  0  0  0  0
  -22.8510  -29.5320   22.5640 C   0  0  0  0  0  0  0  0  0  0  0  0
  -21.5290  -29.3210   22.4510 N   0  0  0  0  0  0  0  0  0  0  0  0
  -23.5550  -28.9240   23.3750 O   0  0  0  0  0  0  0  0  0  0  0  0
  -21.0210  -29.8650   21.7670 H   0  0  0  0  0  0  0  0  0  0  0  0
  -18.1910  -28.0330   22.9660 C   0  0  0  0  0  0  0  0  0  0  0  0
  -20.7400  -28.3710   23.2360 C   0  0  0  0  0  3  0  0  0  0  0  0
  -20.8860  -26.9350   22.6790 C   0  0  0  0  0  2  0  0  0  0  0  0
  -19.7940  -26.5660   21.6700 C   0  0  0  0  0  2  0  0  0  0  0  0
  -18.4080  -26.6800   22.3110 C   0  0  0  0  0  2  0  0  0  0  0  0
  -19.2860  -28.8330   23.3870 C   0  0  0  0  0  0  0  0  0  0  0  0
  -19.0290  -30.0990   23.9600 C   0  0  0  0  0  3  0  0  0  0  0  0
  -17.7100  -30.5630   24.1170 C   0  0  0  0  0  3  0  0  0  0  0  0
  -16.6290  -29.7610   23.7130 C   0  0  0  0  0  3  0  0  0  0  0  0
  -16.8710  -28.4980   23.1430 C   0  0  0  0  0  3  0  0  0  0  0  0
  -25.9830  -32.6220   23.8090 C   0  0  0  0  0  3  0  0  0  0  0  0
  -25.6600  -34.0110   24.1580 N   0  0  0  0  0  0  0  0  0  0  0  0
  -25.9710  -35.0760   23.4070 C   0  0  0  0  0  0  0  0  0  0  0  0
  -26.6310  -34.9920   22.3670 O   0  0  0  0  0  0  0  0  0  0  0  0
  -25.0740  -34.1500   24.9690 H   0  0  0  0  0  0  0  0  0  0  0  0
  -24.2240  -36.8540   23.0830 C   0  0  0  0  0  1  0  0  0  0  0  0
  -25.4710  -36.4530   23.8850 C   0  0  0  0  0  3  0  0  0  0  0  0
  -27.6020  -37.3440   24.7160 C   0  0  0  0  0  1  0  0  0  0  0  0
  -26.4920  -37.5180   23.7830 N   0  0  0  0  0  0  0  0  0  0  0  0
  -26.0780  -38.4310   23.9510 H   0  0  0  0  0  0  0  0  0  0  0  0
  -26.5450  -31.8460   25.0620 C   0  0  1  0  0  0  0  0  0  0  0  0
  -25.4850  -31.5810   26.1570 C   0  0  0  0  0  1  0  0  0  0  0  0
  -27.1370  -30.4810   24.6390 C   0  0  0  0  0  1  0  0  0  0  0  0
  -27.7000  -32.6510   25.7010 C   0  0  0  0  0  1  0  0  0  0  0  0
  -30.4640  -22.4400   20.5140 C   0  0  0  0  0  2  0  0  0  0  0  0
  -29.9990  -21.1170   21.2160 C   0  0  0  0  0  3  0  0  0  0  0  0
  -30.6020  -19.7970   20.6500 C   0  0  0  0  0  3  0  0  0  0  0  0
  -30.0230  -18.4700   21.2370 C   0  0  0  0  0  2  0  0  0  0  0  0
  -30.9180  -17.2380   20.9210 C   0  0  0  0  0  2  0  0  0  0  0  0
  -31.0200  -14.7670   20.9000 C   0  0  0  0  0  0  0  0  0  0  0  0
  -30.7400  -12.5900   19.7900 C   0  0  0  0  0  2  0  0  0  0  0  0
  -29.9090  -12.7950   18.5090 C   0  0  0  0  0  2  0  0  0  0  0  0
  -28.4040  -12.6780   18.8250 C   0  0  0  0  0  2  0  0  0  0  0  0
  -27.9760  -13.5310   20.0520 C   0  0  0  0  0  3  0  0  0  0  0  0
  -28.9480  -13.3530   21.2420 C   0  0  0  0  0  2  0  0  0  0  0  0
  -30.3110  -13.6140   20.7570 N   0  0  0  0  0  0  0  0  0  0  0  0
  -32.2100  -14.8470   20.5880 O   0  0  0  0  0  0  0  0  0  0  0  0
  -30.3290  -15.9000   21.1600 N   0  0  0  0  0  0  0  0  0  0  0  0
  -29.3420  -15.8290   21.3600 H   0  0  0  0  0  0  0  0  0  0  0  0
  -25.5280  -14.1380   20.5540 C   0  0  0  0  0  0  0  0  0  0  0  0
  -24.4370  -13.3720   20.8600 C   0  0  0  0  0  0  0  0  0  0  0  0
  -24.9010  -12.0220   20.9080 C   0  0  0  0  0  0  0  0  0  0  0  0
  -26.5920  -13.2580   20.4360 N   0  0  0  0  0  0  0  0  0  0  0  0
  -26.2130  -11.9820   20.7070 N   0  0  0  0  0  0  0  0  0  0  0  0
  -24.1640  -10.7630   21.0760 C   0  0  0  0  0  0  0  0  0  0  0  0
  -24.5310   -9.8190   22.0600 C   0  0  0  0  0  3  0  0  0  0  0  0
  -23.7950   -8.6240   22.2150 C   0  0  0  0  0  3  0  0  0  0  0  0
  -22.6760   -8.3670   21.3870 C   0  0  0  0  0  0  0  0  0  0  0  0
  -22.3300   -9.2990   20.3930 C   0  0  0  0  0  3  0  0  0  0  0  0
  -23.0670  -10.4840   20.2360 C   0  0  0  0  0  3  0  0  0  0  0  0
  -21.9170   -7.2230   21.4500 O   0  0  0  0  0  0  0  0  0  0  0  0
  -21.7930   -6.5040   22.6110 C   0  0  0  0  0  0  0  0  0  0  0  0
  -21.3000   -7.0870   23.8000 C   0  0  0  0  0  3  0  0  0  0  0  0
  -21.1230   -6.2940   24.9520 C   0  0  0  0  0  3  0  0  0  0  0  0
  -21.4270   -4.9200   24.9150 C   0  0  0  0  0  0  0  0  0  0  0  0
  -21.9100   -4.3370   23.7300 C   0  0  0  0  0  3  0  0  0  0  0  0
  -22.0890   -5.1270   22.5820 C   0  0  0  0  0  0  0  0  0  0  0  0
  -22.5360   -4.5570   21.4380 F   0  0  0  0  0  0  0  0  0  0  0  0
  -21.2490   -4.1560   26.0180 F   0  0  0  0  0  0  0  0  0  0  0  0
  -23.0200  -13.8500   21.0010 C   0  0  0  0  0  0  0  0  0  0  0  0
  -22.2270  -13.1820   21.8310 N   0  0  0  0  0  0  0  0  0  0  0  0
  -22.6220  -14.8510   20.4050 O   0  0  0  0  0  0  0  0  0  0  0  0
  -22.5600  -12.3760   22.3380 H   0  0  0  0  0  0  0  0  0  0  0  0
  -21.2710  -13.4810   21.9600 H   0  0  0  0  0  0  0  0  0  0  0  0
  -25.7050  -15.5040   20.3490 N   0  0  0  0  0  0  0  0  0  0  0  0
  -24.9350  -16.1610   20.3850 H   0  0  0  0  0  0  0  0  0  0  0  0
  -26.5800  -15.9350   20.0750 H   0  0  0  0  0  0  0  0  0  0  0  0
  1  2  2  0
  2  3  1  0
  2  8  1  0
  3 51  1  0
  4  7  1  0
  5  4  1  0
  6  4  2  0
  6  1  1  0
  7  3  2  0
  9  8  1  0
  9 10  1  0
 11 22  2  0
 12 10  1  0
 12 17  1  0
 13 21  1  0
 13 23  1  0
 14 20  1  0
 14 16  1  0
 15 21  1  0
 16 15  1  0
 17 16  2  0
 18 19  1  0
 18 12  2  0
 19 14  2  0
 20 13  1  0
 21 11  1  0
 23 25  2  0
 24 23  1  0
 26 24  1  0
 27 36  2  0
 27 32  1  0
 28 24  1  0
 28 32  1  0
 29 28  1  0
 30 31  1  0
 30 29  1  0
 31 27  1  0
 32 33  2  0
 33 34  1  0
 35 34  2  0
 36 35  1  0
 37 11  1  0
 37 38  1  0
 37 47  1  0
 38 41  1  0
 39 43  1  0
 39 38  1  0
 40 39  2  0
 43 42  1  0
 45 43  1  0
 45 46  1  0
 45 44  1  0
 47 50  1  1
 47 48  1  0
 49 47  1  0
 51 52  1  0
 53 52  2  0
 53 54  1  0
 55 64  1  0
 55 54  1  0
 56 64  1  0
 57 62  1  0
 58 59  1  0
 58 57  1  0
 60 59  1  0
 60 69  1  0
 60 61  1  0
 62 56  1  0
 62 61  1  0
 63 56  2  0
 64 65  1  0
 66 67  2  0
 67 68  1  0
 67 86  1  0
 68 71  1  0
 69 66  1  0
 69 70  1  0
 70 68  2  0
 71 72  1  0
 72 73  2  0
 74 77  1  0
 74 73  1  0
 75 74  2  0
 76 75  1  0
 76 71  2  0
 77 78  1  0
 78 79  1  0
 79 80  2  0
 81 80  1  0
 81 85  1  0
 82 81  2  0
 83 78  2  0
 83 82  1  0
 84 83  1  0
 86 87  1  0
 87 90  1  0
 87 89  1  0
 88 86  2  0
 91 92  1  0
 91 66  1  0
 93 91  1  0
M  ISO  4   9 101  10 101  56 100  64 100
M  END
>  <TORSDO>  (15) 
F 23

>  <SCORE>  (15) 
-12.083

>  <name>  (15) 
14

>  <ligand_id>  (15) 
14

>  <original_smiles>  (15) 
[H]c1nc(C([H])([H])[H])nc(C([H])([H])C([H])([H])C([H])([H])C([H])([H])C([H])([H])N([H])C(=O)N2C([H])([H])C([H])([H])C([H])([H])C([H])(n3nc(-c4c([H])c([H])c(Oc5c([H])c([H])c(F)c([H])c5F)c([H])c4[H])c(C(=O)N([H])[H])c3N([H])[H])C2([H])[H])c1C([H])([H])C([H])([H])Oc1c([H])c([H])c2c(c1[H])C([H])([H])N(C(=O)C([H])(N([H])C(=O)C([H])(N([H])C([H])([H])[H])C([H])([H])[H])C(C([H])([H])[H])(C([H])([H])[H])C([H])([H])[H])C([H])(C(=O)N([H])C1([H])c3c([H])c([H])c([H])c([H])c3C([H])([H])C([H])([H])C1([H])[H])C2([H])[H]

>  <smiles>  (15) 
[H]c1nc(C([H])([H])[H])nc(C([H])([H])C([H])([H])C([H])([H])C([H])([H])C([H])([H])N([H])C(=O)N2C([H])([H])C([H])([H])C([H])([H])C([H])(n3nc(-c4c([H])c([H])c(Oc5c([H])c([H])c(F)c([H])c5F)c([H])c4[H])c(C(=O)N([H])[H])c3N([H])[H])C2([H])[H])c1C([H])([H])C([H])([H])Oc1c([H])c([H])c2c(c1[H])C([H])([H])N(C(=O)C([H])(N([H])C(=O)C([H])(N([H])C([H])([H])[H])C([H])([H])[H])C(C([H])([H])[H])(C([H])([H])[H])C([H])([H])[H])C([H])(C(=O)N([H])C1([H])c3c([H])c([H])c([H])c([H])c3C([H])([H])C([H])([H])C1([H])[H])C2([H])[H]

$$$$
15:0:0
     RDKit          3D

 95103  0  0  1  0  0  0  0  0999 V2000
  -26.4910  -22.7540   20.1760 C   0  0  0  0  0  0  0  0  0  0  0  0
  -29.0050  -22.8180   19.1620 C   0  0  0  0  0  0  0  0  0  0  0  0
  -26.9550  -21.7740   19.2600 C   0  0  0  0  0  0  0  0  0  0  0  0
  -28.5590  -23.7680   20.1130 C   0  0  0  0  0  0  0  0  0  0  0  0
  -25.0840  -22.7470   20.7480 C   0  0  0  0  0  1  0  0  0  0  0  0
  -30.4290  -22.7890   18.6400 C   0  0  0  0  0  1  0  0  0  0  0  0
  -28.1900  -21.8450   18.7060 N   0  0  0  0  0  0  0  0  0  0  0  0
  -27.2920  -23.7620   20.5910 N   0  0  0  0  0  0  0  0  0  0  0  0
  -26.1380  -20.5580   18.8580 C   0  0  0  0  0  2  0  0  0  0  0  0
  -26.9190  -19.2290   18.9360 C   0  0  0  0  0  2  0  0  0  0  0  0
  -28.1740  -19.1890   19.8430 C   0  0  0  0  0  2  0  0  0  0  0  0
  -28.5740  -17.7360   20.1010 C   0  0  0  0  0  2  0  0  0  0  0  0
  -29.9560  -17.4790   20.7170 C   0  0  0  0  0  2  0  0  0  0  0  0
  -29.9270  -16.1190   21.4390 C   0  0  0  0  0  2  0  0  0  0  0  0
  -31.6270  -14.3330   20.8530 C   0  0  0  0  0  0  0  0  0  0  0  0
  -31.4080  -11.8990   20.4700 C   0  0  0  0  0  2  0  0  0  0  0  0
  -30.6110  -11.6110   19.1800 C   0  0  0  0  0  2  0  0  0  0  0  0
  -29.0890  -11.6160   19.4400 C   0  0  0  0  0  2  0  0  0  0  0  0
  -28.6360  -12.8570   20.2540 C   0  0  0  0  0  3  0  0  0  0  0  0
  -29.5420  -13.0000   21.5020 C   0  0  0  0  0  2  0  0  0  0  0  0
  -30.9300  -13.1720   21.0380 N   0  0  0  0  0  0  0  0  0  0  0  0
  -32.7220  -14.3600   20.2830 O   0  0  0  0  0  0  0  0  0  0  0  0
  -31.2260  -15.4390   21.5030 N   0  0  0  0  0  0  0  0  0  0  0  0
  -31.9900  -16.0890   21.6170 H   0  0  0  0  0  0  0  0  0  0  0  0
  -26.2900  -13.7920   20.7880 C   0  0  0  0  0  0  0  0  0  0  0  0
  -25.0960  -13.1770   21.0450 C   0  0  0  0  0  0  0  0  0  0  0  0
  -25.3620  -11.7750   20.9950 C   0  0  0  0  0  0  0  0  0  0  0  0
  -27.2190  -12.7770   20.6080 N   0  0  0  0  0  0  0  0  0  0  0  0
  -26.6530  -11.5560   20.7780 N   0  0  0  0  0  0  0  0  0  0  0  0
  -24.4530  -10.6260   21.0770 C   0  0  0  0  0  0  0  0  0  0  0  0
  -24.6600   -9.5830   22.0080 C   0  0  0  0  0  3  0  0  0  0  0  0
  -23.7610   -8.4980   22.0760 C   0  0  0  0  0  3  0  0  0  0  0  0
  -22.6400   -8.4490   21.2130 C   0  0  0  0  0  0  0  0  0  0  0  0
  -22.4530   -9.4780   20.2730 C   0  0  0  0  0  3  0  0  0  0  0  0
  -23.3520  -10.5530   20.2010 C   0  0  0  0  0  3  0  0  0  0  0  0
  -21.7290   -7.4210   21.1920 O   0  0  0  0  0  0  0  0  0  0  0  0
  -21.4850   -6.6580   22.3050 C   0  0  0  0  0  0  0  0  0  0  0  0
  -21.0180   -7.2230   23.5130 C   0  0  0  0  0  3  0  0  0  0  0  0
  -20.7170   -6.3900   24.6090 C   0  0  0  0  0  3  0  0  0  0  0  0
  -20.8710   -4.9960   24.4970 C   0  0  0  0  0  0  0  0  0  0  0  0
  -21.3320   -4.4320   23.2940 C   0  0  0  0  0  3  0  0  0  0  0  0
  -21.6370   -5.2610   22.2010 C   0  0  0  0  0  0  0  0  0  0  0  0
  -22.0650   -4.7110   21.0380 F   0  0  0  0  0  0  0  0  0  0  0  0
  -20.5720   -4.1930   25.5450 F   0  0  0  0  0  0  0  0  0  0  0  0
  -23.7670  -13.8510   21.2380 C   0  0  0  0  0  0  0  0  0  0  0  0
  -22.8840  -13.2590   22.0340 N   0  0  0  0  0  0  0  0  0  0  0  0
  -23.5180  -14.9400   20.7210 O   0  0  0  0  0  0  0  0  0  0  0  0
  -23.0890  -12.3800   22.4860 H   0  0  0  0  0  0  0  0  0  0  0  0
  -21.9920  -13.7020   22.2040 H   0  0  0  0  0  0  0  0  0  0  0  0
  -26.6520  -15.1250   20.6740 N   0  0  0  0  0  0  0  0  0  0  0  0
  -25.9840  -15.8790   20.7890 H   0  0  0  0  0  0  0  0  0  0  0  0
  -27.5880  -15.4470   20.4680 H   0  0  0  0  0  0  0  0  0  0  0  0
  -29.4730  -24.8500   20.6370 C   0  0  0  0  0  2  0  0  0  0  0  0
  -29.6320  -26.0070   19.6440 C   0  0  0  0  0  2  0  0  0  0  0  0
  -29.2820  -27.2260   20.2800 O   0  0  0  0  0  0  0  0  0  0  0  0
  -24.8310  -31.8000   23.3090 C   0  0  0  0  0  0  0  0  0  0  0  0
  -27.9990  -27.7210   20.2460 C   0  0  0  0  0  0  0  0  0  0  0  0
  -23.8280  -30.3630   21.5600 C   0  0  0  0  0  3  0  0  0  0  0  0
  -25.4730  -28.9870   20.1830 C   0  0  0  0  0  0  0  0  0  0  0  0
  -26.3180  -30.9330   21.5110 C   0  0  0  0  0  2  0  0  0  0  0  0
  -26.5450  -29.5950   20.8440 C   0  0  0  0  0  0  0  0  0  0  0  0
  -27.8040  -28.9660   20.8750 C   0  0  0  0  0  3  0  0  0  0  0  0
  -26.8990  -27.0960   19.6100 C   0  0  0  0  0  3  0  0  0  0  0  0
  -25.6410  -27.7310   19.5710 C   0  0  0  0  0  3  0  0  0  0  0  0
  -24.1640  -29.7410   20.1780 C   0  0  0  0  0  2  0  0  0  0  0  0
  -25.0070  -31.0460   22.1880 N   0  0  0  0  0  0  0  0  0  0  0  0
  -23.7050  -31.9700   23.7940 O   0  0  0  0  0  0  0  0  0  0  0  0
  -23.2090  -29.2650   22.4530 C   0  0  0  0  0  0  0  0  0  0  0  0
  -21.9210  -28.9660   22.2200 N   0  0  0  0  0  0  0  0  0  0  0  0
  -23.8860  -28.6870   23.3070 O   0  0  0  0  0  0  0  0  0  0  0  0
  -21.4340  -29.4910   21.5070 H   0  0  0  0  0  0  0  0  0  0  0  0
  -18.6420  -27.4720   22.4400 C   0  0  0  0  0  0  0  0  0  0  0  0
  -21.1390  -27.9400   22.9070 C   0  0  0  0  0  3  0  0  0  0  0  0
  -21.4100  -26.5400   22.3090 C   0  0  0  0  0  2  0  0  0  0  0  0
  -20.4160  -26.1530   21.2090 C   0  0  0  0  0  2  0  0  0  0  0  0
  -18.9840  -26.1620   21.7520 C   0  0  0  0  0  2  0  0  0  0  0  0
  -19.6540  -28.3150   22.9690 C   0  0  0  0  0  0  0  0  0  0  0  0
  -19.2840  -29.5390   23.5670 C   0  0  0  0  0  3  0  0  0  0  0  0
  -17.9320  -29.9230   23.6440 C   0  0  0  0  0  3  0  0  0  0  0  0
  -16.9310  -29.0770   23.1340 C   0  0  0  0  0  3  0  0  0  0  0  0
  -17.2860  -27.8530   22.5380 C   0  0  0  0  0  3  0  0  0  0  0  0
  -26.0300  -32.5020   24.0210 C   0  0  0  0  0  3  0  0  0  0  0  0
  -25.6280  -33.8860   24.3020 N   0  0  0  0  0  0  0  0  0  0  0  0
  -25.9570  -34.9410   23.5450 C   0  0  0  0  0  0  0  0  0  0  0  0
  -26.7010  -34.8580   22.5640 O   0  0  0  0  0  0  0  0  0  0  0  0
  -24.9740  -34.0230   25.0590 H   0  0  0  0  0  0  0  0  0  0  0  0
  -24.1620  -36.6260   23.0360 C   0  0  0  0  0  1  0  0  0  0  0  0
  -25.3650  -36.3090   23.9380 C   0  0  0  0  0  3  0  0  0  0  0  0
  -27.3910  -37.3230   24.8840 C   0  0  0  0  0  1  0  0  0  0  0  0
  -26.3440  -37.4150   23.8700 N   0  0  0  0  0  0  0  0  0  0  0  0
  -25.8800  -38.3140   23.9740 H   0  0  0  0  0  0  0  0  0  0  0  0
  -26.4850  -31.7720   25.3440 C   0  0  1  0  0  0  0  0  0  0  0  0
  -25.3140  -31.4060   26.2850 C   0  0  0  0  0  1  0  0  0  0  0  0
  -27.2470  -30.4680   25.0090 C   0  0  0  0  0  1  0  0  0  0  0  0
  -27.4670  -32.6720   26.1300 C   0  0  0  0  0  1  0  0  0  0  0  0
  1  8  1  0
  1  5  1  0
  2  4  1  0
  3  1  2  0
  4  8  2  0
  4 53  1  0
  6  2  1  0
  7  2  2  0
  7  3  1  0
  9 10  1  0
  9  3  1  0
 10 11  1  0
 11 12  1  0
 12 13  1  0
 13 14  1  0
 14 23  1  0
 15 21  1  0
 15 23  1  0
 16 21  1  0
 17 18  1  0
 17 16  1  0
 19 18  1  0
 19 28  1  0
 19 20  1  0
 21 20  1  0
 22 15  2  0
 23 24  1  0
 25 26  2  0
 26 45  1  0
 27 26  1  0
 27 30  1  0
 28 29  1  0
 28 25  1  0
 29 27  2  0
 30 31  1  0
 31 32  2  0
 33 32  1  0
 34 33  2  0
 35 34  1  0
 35 30  2  0
 36 33  1  0
 36 37  1  0
 37 38  1  0
 38 39  2  0
 40 39  1  0
 40 44  1  0
 41 40  2  0
 42 37  2  0
 42 41  1  0
 43 42  1  0
 45 46  1  0
 46 49  1  0
 46 48  1  0
 47 45  2  0
 50 25  1  0
 50 51  1  0
 52 50  1  0
 54 55  1  0
 54 53  1  0
 56 67  2  0
 57 55  1  0
 57 62  1  0
 58 66  1  0
 58 68  1  0
 59 61  1  0
 60 66  1  0
 61 62  2  0
 61 60  1  0
 63 57  2  0
 64 63  1  0
 64 59  2  0
 65 59  1  0
 65 58  1  0
 66 56  1  0
 68 70  2  0
 69 68  1  0
 71 69  1  0
 72 81  2  0
 72 77  1  0
 73 69  1  0
 73 77  1  0
 74 73  1  0
 75 76  1  0
 75 74  1  0
 76 72  1  0
 77 78  2  0
 78 79  1  0
 80 79  2  0
 81 80  1  0
 82 56  1  0
 82 83  1  0
 82 92  1  0
 83 86  1  0
 84 88  1  0
 84 83  1  0
 85 84  2  0
 88 87  1  0
 90 88  1  0
 90 91  1  0
 90 89  1  0
 92 95  1  1
 92 93  1  0
 94 92  1  0
M  ISO  4  15 100  23 100  54 101  55 101
M  END
>  <TORSDO>  (16) 
F 24

>  <SCORE>  (16) 
-10.308

>  <name>  (16) 
15

>  <ligand_id>  (16) 
15

>  <original_smiles>  (16) 
[H]c1c([H])c([H])c2c(c1[H])C([H])([H])C([H])([H])C([H])([H])C2([H])N([H])C(=O)C1([H])N(C(=O)C([H])(N([H])C(=O)C([H])(N([H])C([H])([H])[H])C([H])([H])[H])C(C([H])([H])[H])(C([H])([H])[H])C([H])([H])[H])C([H])([H])c2c([H])c(OC([H])([H])C([H])([H])c3nc(C([H])([H])[H])c(C([H])([H])C([H])([H])C([H])([H])C([H])([H])C([H])([H])C([H])([H])N([H])C(=O)N4C([H])([H])C([H])([H])C([H])([H])C([H])(n5nc(-c6c([H])c([H])c(Oc7c([H])c([H])c(F)c([H])c7F)c([H])c6[H])c(C(=O)N([H])[H])c5N([H])[H])C4([H])[H])nc3C([H])([H])[H])c([H])c([H])c2C1([H])[H]

>  <smiles>  (16) 
[H]c1c([H])c([H])c2c(c1[H])C([H])([H])C([H])([H])C([H])([H])C2([H])N([H])C(=O)C1([H])N(C(=O)C([H])(N([H])C(=O)C([H])(N([H])C([H])([H])[H])C([H])([H])[H])C(C([H])([H])[H])(C([H])([H])[H])C([H])([H])[H])C([H])([H])c2c([H])c(OC([H])([H])C([H])([H])c3nc(C([H])([H])[H])c(C([H])([H])C([H])([H])C([H])([H])C([H])([H])C([H])([H])C([H])([H])N([H])C(=O)N4C([H])([H])C([H])([H])C([H])([H])C([H])(n5nc(-c6c([H])c([H])c(Oc7c([H])c([H])c(F)c([H])c7F)c([H])c6[H])c(C(=O)N([H])[H])c5N([H])[H])C4([H])[H])nc3C([H])([H])[H])c([H])c([H])c2C1([H])[H]

$$$$
16:0:0
     RDKit          3D

 94102  0  0  1  0  0  0  0  0999 V2000
  -30.1170  -21.1600   19.4950 C   0  0  0  0  0  0  0  0  0  0  0  0
  -28.1160  -22.6230   20.6180 C   0  0  0  0  0  0  0  0  0  0  0  0
  -29.2100  -20.5540   20.4230 C   0  0  0  0  0  0  0  0  0  0  0  0
  -29.0110  -23.2110   19.6860 C   0  0  0  0  0  0  0  0  0  0  0  0
  -28.2390  -21.3190   20.9880 N   0  0  0  0  0  0  0  0  0  0  0  0
  -30.0130  -22.4720   19.1490 N   0  0  0  0  0  0  0  0  0  0  0  0
  -25.7980  -22.6200   21.7780 C   0  0  0  0  0  1  0  0  0  0  0  0
  -27.0230  -23.4320   21.3140 C   0  0  0  0  0  2  0  0  0  0  0  0
  -32.6250  -20.7780   19.4380 C   0  0  0  0  0  1  0  0  0  0  0  0
  -31.2690  -20.4640   18.7860 C   0  0  0  0  0  2  0  0  0  0  0  0
  -29.1300  -19.0620   20.8500 C   0  0  0  0  0  2  0  0  0  0  0  0
  -30.4180  -18.2000   20.9380 C   0  0  0  0  0  2  0  0  0  0  0  0
  -30.3860  -16.9970   21.9200 C   0  0  0  0  0  2  0  0  0  0  0  0
  -30.5270  -14.7800   20.7440 C   0  0  0  0  0  0  0  0  0  0  0  0
  -30.3230  -12.6340   19.5320 C   0  0  0  0  0  2  0  0  0  0  0  0
  -29.4100  -12.8120   18.3040 C   0  0  0  0  0  2  0  0  0  0  0  0
  -27.9290  -12.6240   18.6900 C   0  0  0  0  0  2  0  0  0  0  0  0
  -27.5320  -13.4370   19.9520 C   0  0  0  0  0  3  0  0  0  0  0  0
  -28.5590  -13.2360   21.0870 C   0  0  0  0  0  2  0  0  0  0  0  0
  -29.8850  -13.5950   20.5580 N   0  0  0  0  0  0  0  0  0  0  0  0
  -31.6490  -15.0140   20.2870 O   0  0  0  0  0  0  0  0  0  0  0  0
  -29.8350  -15.7310   21.4040 N   0  0  0  0  0  0  0  0  0  0  0  0
  -28.9010  -15.4820   21.6990 H   0  0  0  0  0  0  0  0  0  0  0  0
  -25.0930  -13.9580   20.5810 C   0  0  0  0  0  0  0  0  0  0  0  0
  -24.0430  -13.1460   20.9180 C   0  0  0  0  0  0  0  0  0  0  0  0
  -24.5550  -11.8120   20.9120 C   0  0  0  0  0  0  0  0  0  0  0  0
  -26.1760  -13.1130   20.3890 N   0  0  0  0  0  0  0  0  0  0  0  0
  -25.8560  -11.8180   20.6480 N   0  0  0  0  0  0  0  0  0  0  0  0
  -23.8720  -10.5240   21.0840 C   0  0  0  0  0  0  0  0  0  0  0  0
  -24.3210   -9.5700   22.0240 C   0  0  0  0  0  3  0  0  0  0  0  0
  -23.6360   -8.3440   22.1820 C   0  0  0  0  0  3  0  0  0  0  0  0
  -22.4880   -8.0690   21.4030 C   0  0  0  0  0  0  0  0  0  0  0  0
  -22.0610   -9.0110   20.4510 C   0  0  0  0  0  3  0  0  0  0  0  0
  -22.7460  -10.2280   20.2910 C   0  0  0  0  0  3  0  0  0  0  0  0
  -21.7750   -6.8960   21.4730 O   0  0  0  0  0  0  0  0  0  0  0  0
  -21.7490   -6.1360   22.6140 C   0  0  0  0  0  0  0  0  0  0  0  0
  -21.3130   -6.6620   23.8510 C   0  0  0  0  0  3  0  0  0  0  0  0
  -21.2350   -5.8260   24.9820 C   0  0  0  0  0  3  0  0  0  0  0  0
  -21.5820   -4.4650   24.8790 C   0  0  0  0  0  0  0  0  0  0  0  0
  -22.0120   -3.9400   23.6480 C   0  0  0  0  0  3  0  0  0  0  0  0
  -22.0910   -4.7710   22.5170 C   0  0  0  0  0  0  0  0  0  0  0  0
  -22.4850   -4.2540   21.3300 F   0  0  0  0  0  0  0  0  0  0  0  0
  -21.5000   -3.6600   25.9650 F   0  0  0  0  0  0  0  0  0  0  0  0
  -22.6200  -13.5700   21.1400 C   0  0  0  0  0  0  0  0  0  0  0  0
  -21.8890  -12.8480   21.9820 N   0  0  0  0  0  0  0  0  0  0  0  0
  -22.1610  -14.5760   20.6000 O   0  0  0  0  0  0  0  0  0  0  0  0
  -22.2710  -12.0340   22.4380 H   0  0  0  0  0  0  0  0  0  0  0  0
  -20.9320  -13.1120   22.1710 H   0  0  0  0  0  0  0  0  0  0  0  0
  -25.2180  -15.3300   20.4000 N   0  0  0  0  0  0  0  0  0  0  0  0
  -24.4340  -15.9660   20.4810 H   0  0  0  0  0  0  0  0  0  0  0  0
  -26.0690  -15.7850   20.0970 H   0  0  0  0  0  0  0  0  0  0  0  0
  -28.8960  -24.6570   19.1690 C   0  0  0  0  0  2  0  0  0  0  0  0
  -29.0330  -25.7860   20.2260 C   0  0  0  0  0  2  0  0  0  0  0  0
  -28.8750  -27.1110   19.6860 O   0  0  0  0  0  0  0  0  0  0  0  0
  -24.7820  -31.8350   23.1140 C   0  0  0  0  0  0  0  0  0  0  0  0
  -27.6390  -27.7200   19.7750 C   0  0  0  0  0  0  0  0  0  0  0  0
  -23.6300  -30.4380   21.4250 C   0  0  0  0  0  3  0  0  0  0  0  0
  -25.1460  -29.0640   19.9000 C   0  0  0  0  0  0  0  0  0  0  0  0
  -26.1200  -30.9690   21.1970 C   0  0  0  0  0  2  0  0  0  0  0  0
  -26.2810  -29.6380   20.4850 C   0  0  0  0  0  0  0  0  0  0  0  0
  -27.5280  -28.9790   20.4100 C   0  0  0  0  0  3  0  0  0  0  0  0
  -26.4810  -27.1510   19.2020 C   0  0  0  0  0  3  0  0  0  0  0  0
  -25.2400  -27.8170   19.2560 C   0  0  0  0  0  3  0  0  0  0  0  0
  -23.8520  -29.8410   20.0090 C   0  0  0  0  0  2  0  0  0  0  0  0
  -24.8630  -31.0940   21.9700 N   0  0  0  0  0  0  0  0  0  0  0  0
  -23.6980  -32.0140   23.6830 O   0  0  0  0  0  0  0  0  0  0  0  0
  -23.0640  -29.3300   22.3430 C   0  0  0  0  0  0  0  0  0  0  0  0
  -21.7520  -29.0660   22.2200 N   0  0  0  0  0  0  0  0  0  0  0  0
  -23.8000  -28.7130   23.1170 O   0  0  0  0  0  0  0  0  0  0  0  0
  -21.2190  -29.6320   21.5740 H   0  0  0  0  0  0  0  0  0  0  0  0
  -18.4730  -27.6130   22.6730 C   0  0  0  0  0  0  0  0  0  0  0  0
  -21.0080  -28.0380   22.9470 C   0  0  0  0  0  3  0  0  0  0  0  0
  -21.2080  -26.6460   22.3050 C   0  0  0  0  0  2  0  0  0  0  0  0
  -20.1230  -26.2930   21.2820 C   0  0  0  0  0  2  0  0  0  0  0  0
  -18.7370  -26.3110   21.9380 C   0  0  0  0  0  2  0  0  0  0  0  0
  -19.5390  -28.4330   23.1320 C   0  0  0  0  0  0  0  0  0  0  0  0
  -19.2390  -29.6520   23.7780 C   0  0  0  0  0  3  0  0  0  0  0  0
  -17.9050  -30.0550   23.9690 C   0  0  0  0  0  3  0  0  0  0  0  0
  -16.8530  -29.2310   23.5290 C   0  0  0  0  0  3  0  0  0  0  0  0
  -17.1380  -28.0120   22.8860 C   0  0  0  0  0  3  0  0  0  0  0  0
  -26.0420  -32.5090   23.7430 C   0  0  0  0  0  3  0  0  0  0  0  0
  -25.6450  -33.8510   24.1890 N   0  0  0  0  0  0  0  0  0  0  0  0
  -25.8720  -34.9770   23.5020 C   0  0  0  0  0  0  0  0  0  0  0  0
  -26.5120  -35.0030   22.4470 O   0  0  0  0  0  0  0  0  0  0  0  0
  -25.0720  -33.9010   25.0170 H   0  0  0  0  0  0  0  0  0  0  0  0
  -24.0010  -36.6490   23.3440 C   0  0  0  0  0  1  0  0  0  0  0  0
  -25.3000  -36.2850   24.0780 C   0  0  0  0  0  3  0  0  0  0  0  0
  -27.3920  -37.2710   24.9000 C   0  0  0  0  0  1  0  0  0  0  0  0
  -26.2450  -37.4200   24.0110 N   0  0  0  0  0  0  0  0  0  0  0  0
  -25.7770  -38.2900   24.2440 H   0  0  0  0  0  0  0  0  0  0  0  0
  -26.6610  -31.6820   24.9370 C   0  0  1  0  0  0  0  0  0  0  0  0
  -25.6270  -31.2610   26.0070 C   0  0  0  0  0  1  0  0  0  0  0  0
  -27.3430  -30.3980   24.4090 C   0  0  0  0  0  1  0  0  0  0  0  0
  -27.7540  -32.5220   25.6430 C   0  0  0  0  0  1  0  0  0  0  0  0
  1  3  1  0
  2  5  1  0
  2  8  1  0
  3 11  1  0
  3  5  2  0
  4  2  2  0
  6  1  2  0
  6  4  1  0
  8  7  1  0
 10  9  1  0
 10  1  1  0
 11 12  1  0
 12 13  1  0
 14 22  1  0
 15 20  1  0
 16 17  1  0
 16 15  1  0
 18 17  1  0
 18 27  1  0
 18 19  1  0
 20 14  1  0
 20 19  1  0
 21 14  2  0
 22 23  1  0
 22 13  1  0
 24 25  2  0
 25 44  1  0
 26 25  1  0
 26 29  1  0
 27 24  1  0
 27 28  1  0
 28 26  2  0
 29 30  1  0
 30 31  2  0
 32 35  1  0
 32 31  1  0
 33 32  2  0
 34 33  1  0
 34 29  2  0
 35 36  1  0
 36 37  1  0
 37 38  2  0
 39 38  1  0
 39 43  1  0
 40 39  2  0
 41 36  2  0
 41 40  1  0
 42 41  1  0
 44 45  1  0
 45 48  1  0
 45 47  1  0
 46 44  2  0
 49 50  1  0
 49 24  1  0
 51 49  1  0
 52  4  1  0
 52 53  1  0
 54 56  1  0
 54 53  1  0
 55 66  2  0
 56 61  1  0
 57 65  1  0
 57 67  1  0
 58 64  1  0
 58 60  1  0
 59 65  1  0
 60 59  1  0
 61 60  2  0
 62 63  1  0
 62 56  2  0
 63 58  2  0
 64 57  1  0
 65 55  1  0
 67 69  2  0
 68 67  1  0
 70 68  1  0
 71 80  2  0
 71 76  1  0
 72 68  1  0
 72 76  1  0
 73 72  1  0
 74 75  1  0
 74 73  1  0
 75 71  1  0
 76 77  2  0
 77 78  1  0
 79 78  2  0
 80 79  1  0
 81 55  1  0
 81 82  1  0
 81 91  1  0
 82 85  1  0
 83 87  1  0
 83 82  1  0
 84 83  2  0
 87 86  1  0
 89 87  1  0
 89 90  1  0
 89 88  1  0
 91 94  1  1
 91 92  1  0
 93 91  1  0
M  ISO  4  14 100  22 100  53 101  54 101
M  END
>  <TORSDO>  (17) 
F 23

>  <SCORE>  (17) 
-11.314

>  <name>  (17) 
16

>  <ligand_id>  (17) 
16

>  <original_smiles>  (17) 
[H]c1c([H])c([H])c2c(c1[H])C([H])([H])C([H])([H])C([H])([H])C2([H])N([H])C(=O)C1([H])N(C(=O)C([H])(N([H])C(=O)C([H])(N([H])C([H])([H])[H])C([H])([H])[H])C(C([H])([H])[H])(C([H])([H])[H])C([H])([H])[H])C([H])([H])c2c([H])c(OC([H])([H])C([H])([H])c3nc(C([H])([H])C([H])([H])[H])c(C([H])([H])C([H])([H])C([H])([H])N([H])C(=O)N4C([H])([H])C([H])([H])C([H])([H])C([H])(n5nc(-c6c([H])c([H])c(Oc7c([H])c([H])c(F)c([H])c7F)c([H])c6[H])c(C(=O)N([H])[H])c5N([H])[H])C4([H])[H])nc3C([H])([H])C([H])([H])[H])c([H])c([H])c2C1([H])[H]

>  <smiles>  (17) 
[H]c1c([H])c([H])c2c(c1[H])C([H])([H])C([H])([H])C([H])([H])C2([H])N([H])C(=O)C1([H])N(C(=O)C([H])(N([H])C(=O)C([H])(N([H])C([H])([H])[H])C([H])([H])[H])C(C([H])([H])[H])(C([H])([H])[H])C([H])([H])[H])C([H])([H])c2c([H])c(OC([H])([H])C([H])([H])c3nc(C([H])([H])C([H])([H])[H])c(C([H])([H])C([H])([H])C([H])([H])N([H])C(=O)N4C([H])([H])C([H])([H])C([H])([H])C([H])(n5nc(-c6c([H])c([H])c(Oc7c([H])c([H])c(F)c([H])c7F)c([H])c6[H])c(C(=O)N([H])[H])c5N([H])[H])C4([H])[H])nc3C([H])([H])C([H])([H])[H])c([H])c([H])c2C1([H])[H]

$$$$
17:0:0
     RDKit          3D

 93101  0  0  1  0  0  0  0  0999 V2000
  -27.4990  -20.7470   20.7790 C   0  0  0  0  0  2  0  0  0  0  0  0
  -29.4350  -19.0970   20.7260 C   0  0  0  0  0  3  0  0  0  0  0  0
  -29.7720  -17.7070   18.7790 C   0  0  0  0  0  3  0  0  0  0  0  0
  -30.1650  -18.0750   20.0800 C   0  0  0  0  0  0  0  0  0  0  0  0
  -28.3100  -19.6550   20.0790 C   0  0  0  0  0  0  0  0  0  0  0  0
  -27.9460  -19.1370   18.8150 C   0  0  0  0  0  0  0  0  0  0  0  0
  -26.6740  -19.5650   18.1010 C   0  0  0  0  0  1  0  0  0  0  0  0
  -28.6780  -18.2050   18.1710 N   0  0  0  0  0  0  0  0  0  0  0  0
  -31.3410  -17.3850   20.7710 C   0  0  0  0  0  2  0  0  0  0  0  0
  -31.8030  -14.9380   20.4750 C   0  0  0  0  0  0  0  0  0  0  0  0
  -31.4940  -12.7170   19.4560 C   0  0  0  0  0  2  0  0  0  0  0  0
  -30.5870  -12.8620   18.2150 C   0  0  0  0  0  2  0  0  0  0  0  0
  -29.0960  -12.7770   18.6070 C   0  0  0  0  0  2  0  0  0  0  0  0
  -28.7430  -13.7200   19.7890 C   0  0  0  0  0  3  0  0  0  0  0  0
  -29.7580  -13.5460   20.9460 C   0  0  0  0  0  2  0  0  0  0  0  0
  -31.1150  -13.7690   20.4090 N   0  0  0  0  0  0  0  0  0  0  0  0
  -32.9190  -15.1050   19.9720 O   0  0  0  0  0  0  0  0  0  0  0  0
  -31.0970  -15.9570   20.9780 N   0  0  0  0  0  0  0  0  0  0  0  0
  -30.2170  -15.7050   21.4010 H   0  0  0  0  0  0  0  0  0  0  0  0
  -26.3740  -14.4590   20.4910 C   0  0  0  0  0  0  0  0  0  0  0  0
  -25.2570  -13.7400   20.8230 C   0  0  0  0  0  0  0  0  0  0  0  0
  -25.6350  -12.3640   20.7490 C   0  0  0  0  0  0  0  0  0  0  0  0
  -27.3690  -13.5220   20.2400 N   0  0  0  0  0  0  0  0  0  0  0  0
  -26.9240  -12.2560   20.4520 N   0  0  0  0  0  0  0  0  0  0  0  0
  -24.8340  -11.1430   20.8820 C   0  0  0  0  0  0  0  0  0  0  0  0
  -25.1290  -10.1680   21.8610 C   0  0  0  0  0  3  0  0  0  0  0  0
  -24.3280   -9.0110   21.9800 C   0  0  0  0  0  3  0  0  0  0  0  0
  -23.2210   -8.8220   21.1180 C   0  0  0  0  0  0  0  0  0  0  0  0
  -22.9500   -9.7840   20.1280 C   0  0  0  0  0  3  0  0  0  0  0  0
  -23.7520  -10.9300   20.0070 C   0  0  0  0  0  3  0  0  0  0  0  0
  -22.4030   -7.7190   21.1440 O   0  0  0  0  0  0  0  0  0  0  0  0
  -22.1200   -7.0610   22.3160 C   0  0  0  0  0  0  0  0  0  0  0  0
  -21.4700   -7.7020   23.3940 C   0  0  0  0  0  3  0  0  0  0  0  0
  -21.1350   -6.9700   24.5500 C   0  0  0  0  0  3  0  0  0  0  0  0
  -21.4430   -5.5970   24.6280 C   0  0  0  0  0  0  0  0  0  0  0  0
  -22.0880   -4.9580   23.5550 C   0  0  0  0  0  3  0  0  0  0  0  0
  -22.4210   -5.6870   22.4020 C   0  0  0  0  0  0  0  0  0  0  0  0
  -23.0220   -5.0600   21.3610 F   0  0  0  0  0  0  0  0  0  0  0  0
  -21.1140   -4.8920   25.7350 F   0  0  0  0  0  0  0  0  0  0  0  0
  -23.8860  -14.2900   21.0980 C   0  0  0  0  0  0  0  0  0  0  0  0
  -23.1120  -13.6160   21.9390 N   0  0  0  0  0  0  0  0  0  0  0  0
  -23.5130  -15.3540   20.6020 O   0  0  0  0  0  0  0  0  0  0  0  0
  -23.4240  -12.7530   22.3580 H   0  0  0  0  0  0  0  0  0  0  0  0
  -22.1900  -13.9670   22.1600 H   0  0  0  0  0  0  0  0  0  0  0  0
  -26.6150  -15.8250   20.3650 N   0  0  0  0  0  0  0  0  0  0  0  0
  -25.8730  -16.5020   20.5050 H   0  0  0  0  0  0  0  0  0  0  0  0
  -27.4560  -16.2530   19.9950 H   0  0  0  0  0  0  0  0  0  0  0  0
  -27.4490  -22.0990   20.0220 C   0  0  0  0  0  2  0  0  0  0  0  0
  -27.8900  -23.3400   20.8360 C   0  0  0  0  0  2  0  0  0  0  0  0
  -29.2400  -23.9280   20.3700 C   0  0  0  0  0  2  0  0  0  0  0  0
  -29.8950  -24.9150   21.3620 C   0  0  0  0  0  2  0  0  0  0  0  0
  -29.1120  -26.2060   21.6600 C   0  0  0  0  0  2  0  0  0  0  0  0
  -28.9650  -26.9950   20.4830 O   0  0  0  0  0  0  0  0  0  0  0  0
  -24.7790  -32.0010   23.3680 C   0  0  0  0  0  0  0  0  0  0  0  0
  -27.7860  -27.6940   20.4460 C   0  0  0  0  0  0  0  0  0  0  0  0
  -23.7320  -30.5430   21.6670 C   0  0  0  0  0  3  0  0  0  0  0  0
  -25.3280  -29.0680   20.3350 C   0  0  0  0  0  0  0  0  0  0  0  0
  -26.2430  -31.0180   21.6070 C   0  0  0  0  0  2  0  0  0  0  0  0
  -26.4250  -29.6500   20.9830 C   0  0  0  0  0  0  0  0  0  0  0  0
  -27.6610  -28.9680   21.0420 C   0  0  0  0  0  3  0  0  0  0  0  0
  -26.6770  -27.1150   19.7980 C   0  0  0  0  0  3  0  0  0  0  0  0
  -25.4470  -27.7960   19.7440 C   0  0  0  0  0  3  0  0  0  0  0  0
  -24.0450  -29.8650   20.3070 C   0  0  0  0  0  2  0  0  0  0  0  0
  -24.9340  -31.2010   22.2750 N   0  0  0  0  0  0  0  0  0  0  0  0
  -23.6580  -32.2240   23.8470 O   0  0  0  0  0  0  0  0  0  0  0  0
  -23.0750  -29.4950   22.5940 C   0  0  0  0  0  0  0  0  0  0  0  0
  -21.7680  -29.2540   22.3920 N   0  0  0  0  0  0  0  0  0  0  0  0
  -23.7390  -28.9060   23.4520 O   0  0  0  0  0  0  0  0  0  0  0  0
  -21.2970  -29.7580   21.6540 H   0  0  0  0  0  0  0  0  0  0  0  0
  -18.4130  -27.9750   22.7820 C   0  0  0  0  0  0  0  0  0  0  0  0
  -20.9530  -28.2880   23.1310 C   0  0  0  0  0  3  0  0  0  0  0  0
  -21.1070  -26.8700   22.5420 C   0  0  0  0  0  2  0  0  0  0  0  0
  -20.0430  -26.5300   21.4920 C   0  0  0  0  0  2  0  0  0  0  0  0
  -18.6420  -26.6370   22.1000 C   0  0  0  0  0  2  0  0  0  0  0  0
  -19.4990  -28.7570   23.2560 C   0  0  0  0  0  0  0  0  0  0  0  0
  -19.2370  -30.0040   23.8620 C   0  0  0  0  0  3  0  0  0  0  0  0
  -17.9160  -30.4720   24.0040 C   0  0  0  0  0  3  0  0  0  0  0  0
  -16.8440  -29.6890   23.5420 C   0  0  0  0  0  3  0  0  0  0  0  0
  -17.0910  -28.4460   22.9350 C   0  0  0  0  0  3  0  0  0  0  0  0
  -25.9980  -32.6940   24.0530 C   0  0  0  0  0  3  0  0  0  0  0  0
  -25.6250  -34.0900   24.3160 N   0  0  0  0  0  0  0  0  0  0  0  0
  -25.9690  -35.1280   23.5400 C   0  0  0  0  0  0  0  0  0  0  0  0
  -26.7020  -35.0120   22.5540 O   0  0  0  0  0  0  0  0  0  0  0  0
  -24.9800  -34.2490   25.0750 H   0  0  0  0  0  0  0  0  0  0  0  0
  -24.2050  -36.8430   23.0210 C   0  0  0  0  0  1  0  0  0  0  0  0
  -25.4090  -36.5100   23.9170 C   0  0  0  0  0  3  0  0  0  0  0  0
  -27.4520  -37.5070   24.8460 C   0  0  0  0  0  1  0  0  0  0  0  0
  -26.4090  -37.5950   23.8270 N   0  0  0  0  0  0  0  0  0  0  0  0
  -25.9640  -38.5050   23.9050 H   0  0  0  0  0  0  0  0  0  0  0  0
  -26.4550  -31.9760   25.3830 C   0  0  1  0  0  0  0  0  0  0  0  0
  -25.2970  -31.7050   26.3720 C   0  0  0  0  0  1  0  0  0  0  0  0
  -27.1340  -30.6230   25.0660 C   0  0  0  0  0  1  0  0  0  0  0  0
  -27.5090  -32.8430   26.1110 C   0  0  0  0  0  1  0  0  0  0  0  0
  3  4  2  0
  4  2  1  0
  4  9  1  0
  5  2  2  0
  5  1  1  0
  6  5  1  0
  7  6  1  0
  8  3  1  0
  8  6  2  0
  9 18  1  0
 10 18  1  0
 11 16  1  0
 12 13  1  0
 12 11  1  0
 14 13  1  0
 14 23  1  0
 14 15  1  0
 16 10  1  0
 16 15  1  0
 17 10  2  0
 18 19  1  0
 20 21  2  0
 21 40  1  0
 22 21  1  0
 22 25  1  0
 23 24  1  0
 23 20  1  0
 24 22  2  0
 25 26  1  0
 26 27  2  0
 28 31  1  0
 28 27  1  0
 29 28  2  0
 30 29  1  0
 30 25  2  0
 31 32  1  0
 32 37  2  0
 32 33  1  0
 33 34  2  0
 34 35  1  0
 35 39  1  0
 36 35  2  0
 37 36  1  0
 38 37  1  0
 40 41  1  0
 41 44  1  0
 41 43  1  0
 42 40  2  0
 45 20  1  0
 45 46  1  0
 47 45  1  0
 48  1  1  0
 48 49  1  0
 50 49  1  0
 50 51  1  0
 51 52  1  0
 53 52  1  0
 54 65  2  0
 55 53  1  0
 55 60  1  0
 56 64  1  0
 56 66  1  0
 57 59  1  0
 58 64  1  0
 59 60  2  0
 59 58  1  0
 61 55  2  0
 62 61  1  0
 62 57  2  0
 63 57  1  0
 63 56  1  0
 64 54  1  0
 66 68  2  0
 67 66  1  0
 69 67  1  0
 70 79  2  0
 70 75  1  0
 71 67  1  0
 71 75  1  0
 72 71  1  0
 73 74  1  0
 73 72  1  0
 74 70  1  0
 75 76  2  0
 76 77  1  0
 78 77  2  0
 79 78  1  0
 80 54  1  0
 80 81  1  0
 80 90  1  0
 81 84  1  0
 82 86  1  0
 82 81  1  0
 83 82  2  0
 86 85  1  0
 88 89  1  0
 88 86  1  0
 88 87  1  0
 90 93  1  1
 90 91  1  0
 92 90  1  0
M  ISO  4  10 100  18 100  52 101  53 101
M  END
>  <TORSDO>  (18) 
F 23

>  <SCORE>  (18) 
-10.918

>  <name>  (18) 
17

>  <ligand_id>  (18) 
17

>  <original_smiles>  (18) 
[H]c1nc(C([H])([H])[H])c(C([H])([H])C([H])([H])C([H])([H])C([H])([H])C([H])([H])C([H])([H])Oc2c([H])c([H])c3c(c2[H])C([H])([H])N(C(=O)C([H])(N([H])C(=O)C([H])(N([H])C([H])([H])[H])C([H])([H])[H])C(C([H])([H])[H])(C([H])([H])[H])C([H])([H])[H])C([H])(C(=O)N([H])C2([H])c4c([H])c([H])c([H])c([H])c4C([H])([H])C([H])([H])C2([H])[H])C3([H])[H])c([H])c1C([H])([H])N([H])C(=O)N1C([H])([H])C([H])([H])C([H])([H])C([H])(n2nc(-c3c([H])c([H])c(Oc4c([H])c([H])c(F)c([H])c4F)c([H])c3[H])c(C(=O)N([H])[H])c2N([H])[H])C1([H])[H]

>  <smiles>  (18) 
[H]c1nc(C([H])([H])[H])c(C([H])([H])C([H])([H])C([H])([H])C([H])([H])C([H])([H])C([H])([H])Oc2c([H])c([H])c3c(c2[H])C([H])([H])N(C(=O)C([H])(N([H])C(=O)C([H])(N([H])C([H])([H])[H])C([H])([H])[H])C(C([H])([H])[H])(C([H])([H])[H])C([H])([H])[H])C([H])(C(=O)N([H])C2([H])c4c([H])c([H])c([H])c([H])c4C([H])([H])C([H])([H])C2([H])[H])C3([H])[H])c([H])c1C([H])([H])N([H])C(=O)N1C([H])([H])C([H])([H])C([H])([H])C([H])(n2nc(-c3c([H])c([H])c(Oc4c([H])c([H])c(F)c([H])c4F)c([H])c3[H])c(C(=O)N([H])[H])c2N([H])[H])C1([H])[H]

$$$$
18:0:0
     RDKit          3D

 90 98  0  0  1  0  0  0  0  0999 V2000
  -29.4170  -23.1130   20.4280 C   0  0  0  0  0  3  0  0  0  0  0  0
  -27.2860  -23.4660   19.9100 C   0  0  0  0  0  3  0  0  0  0  0  0
  -28.3710  -24.1010   20.4520 C   0  0  0  0  0  0  0  0  0  0  0  0
  -28.9560  -21.9320   19.8880 C   0  0  0  0  0  0  0  0  0  0  0  0
  -26.7080  -21.2170   18.9530 C   0  0  0  0  0  1  0  0  0  0  0  0
  -27.6230  -22.1640   19.5680 N   0  0  0  0  0  0  0  0  0  0  0  0
  -28.4090  -25.5240   21.0500 C   0  0  0  0  0  2  0  0  0  0  0  0
  -28.3700  -26.6450   20.1330 O   0  0  0  0  0  0  0  0  0  0  0  0
  -24.5930  -31.8910   23.2470 C   0  0  0  0  0  0  0  0  0  0  0  0
  -27.2230  -27.4200   20.1670 C   0  0  0  0  0  0  0  0  0  0  0  0
  -23.3840  -30.4930   21.6020 C   0  0  0  0  0  3  0  0  0  0  0  0
  -24.8380  -28.9500   20.1770 C   0  0  0  0  0  0  0  0  0  0  0  0
  -25.9140  -30.8410   21.4080 C   0  0  0  0  0  2  0  0  0  0  0  0
  -25.9990  -29.4660   20.7680 C   0  0  0  0  0  0  0  0  0  0  0  0
  -27.1990  -28.7110   20.7570 C   0  0  0  0  0  3  0  0  0  0  0  0
  -26.0480  -26.9260   19.5690 C   0  0  0  0  0  3  0  0  0  0  0  0
  -24.8570  -27.6810   19.5740 C   0  0  0  0  0  3  0  0  0  0  0  0
  -23.5960  -29.8140   20.2220 C   0  0  0  0  0  2  0  0  0  0  0  0
  -24.6480  -31.0910   22.1440 N   0  0  0  0  0  0  0  0  0  0  0  0
  -23.5130  -32.1650   23.7880 O   0  0  0  0  0  0  0  0  0  0  0  0
  -22.7300  -29.4730   22.5620 C   0  0  0  0  0  0  0  0  0  0  0  0
  -21.4050  -29.2980   22.4410 N   0  0  0  0  0  0  0  0  0  0  0  0
  -23.4150  -28.8430   23.3740 O   0  0  0  0  0  0  0  0  0  0  0  0
  -20.9140  -29.8600   21.7590 H   0  0  0  0  0  0  0  0  0  0  0  0
  -18.0270  -28.1140   22.9450 C   0  0  0  0  0  0  0  0  0  0  0  0
  -20.5860  -28.3600   23.2100 C   0  0  0  0  0  3  0  0  0  0  0  0
  -20.6810  -26.9310   22.6260 C   0  0  0  0  0  2  0  0  0  0  0  0
  -19.5730  -26.6180   21.6140 C   0  0  0  0  0  2  0  0  0  0  0  0
  -18.1950  -26.7660   22.2640 C   0  0  0  0  0  2  0  0  0  0  0  0
  -19.1500  -28.8690   23.3760 C   0  0  0  0  0  0  0  0  0  0  0  0
  -18.9390  -30.1310   23.9720 C   0  0  0  0  0  3  0  0  0  0  0  0
  -17.6370  -30.6380   24.1450 C   0  0  0  0  0  3  0  0  0  0  0  0
  -16.5270  -29.8800   23.7310 C   0  0  0  0  0  3  0  0  0  0  0  0
  -16.7240  -28.6200   23.1370 C   0  0  0  0  0  3  0  0  0  0  0  0
  -25.8810  -32.5210   23.8670 C   0  0  0  0  0  3  0  0  0  0  0  0
  -25.5770  -33.9200   24.1950 N   0  0  0  0  0  0  0  0  0  0  0  0
  -25.9110  -34.9690   23.4320 C   0  0  0  0  0  0  0  0  0  0  0  0
  -26.5810  -34.8610   22.4010 O   0  0  0  0  0  0  0  0  0  0  0  0
  -24.9910  -34.0790   25.0010 H   0  0  0  0  0  0  0  0  0  0  0  0
  -24.1890  -36.7620   23.0670 C   0  0  0  0  0  1  0  0  0  0  0  0
  -25.4260  -36.3600   23.8850 C   0  0  0  0  0  3  0  0  0  0  0  0
  -27.5620  -37.2380   24.7180 C   0  0  0  0  0  1  0  0  0  0  0  0
  -26.4620  -37.4100   23.7720 N   0  0  0  0  0  0  0  0  0  0  0  0
  -26.0580  -38.3320   23.9200 H   0  0  0  0  0  0  0  0  0  0  0  0
  -26.3950  -31.7500   25.1450 C   0  0  1  0  0  0  0  0  0  0  0  0
  -25.3030  -31.5210   26.2140 C   0  0  0  0  0  1  0  0  0  0  0  0
  -26.9710  -30.3680   24.7530 C   0  0  0  0  0  1  0  0  0  0  0  0
  -27.5510  -32.5380   25.8040 C   0  0  0  0  0  1  0  0  0  0  0  0
  -29.6420  -20.6020   19.5630 C   0  0  0  0  0  2  0  0  0  0  0  0
  -29.6660  -19.4870   20.6590 C   0  0  0  0  0  3  0  0  0  0  0  0
  -29.8270  -18.0210   20.1220 C   0  0  0  0  0  3  0  0  0  0  0  0
  -30.3040  -16.9610   21.1690 C   0  0  0  0  0  2  0  0  0  0  0  0
  -30.6460  -14.5510   20.3500 C   0  0  0  0  0  0  0  0  0  0  0  0
  -30.3520  -12.3900   19.1760 C   0  0  0  0  0  2  0  0  0  0  0  0
  -29.3980  -12.6010   17.9820 C   0  0  0  0  0  2  0  0  0  0  0  0
  -27.9260  -12.4610   18.4250 C   0  0  0  0  0  2  0  0  0  0  0  0
  -27.6030  -13.2890   19.6960 C   0  0  0  0  0  3  0  0  0  0  0  0
  -28.6650  -13.0510   20.7920 C   0  0  0  0  0  2  0  0  0  0  0  0
  -29.9830  -13.3670   20.2140 N   0  0  0  0  0  0  0  0  0  0  0  0
  -31.7810  -14.7350   19.9040 O   0  0  0  0  0  0  0  0  0  0  0  0
  -29.9170  -15.5610   20.8770 N   0  0  0  0  0  0  0  0  0  0  0  0
  -28.9850  -15.2990   21.1620 H   0  0  0  0  0  0  0  0  0  0  0  0
  -25.2090  -13.9130   20.4050 C   0  0  0  0  0  0  0  0  0  0  0  0
  -24.1390  -13.1500   20.7890 C   0  0  0  0  0  0  0  0  0  0  0  0
  -24.5950  -11.7960   20.7740 C   0  0  0  0  0  0  0  0  0  0  0  0
  -26.2500  -13.0250   20.1820 N   0  0  0  0  0  0  0  0  0  0  0  0
  -25.8850  -11.7470   20.4600 N   0  0  0  0  0  0  0  0  0  0  0  0
  -23.8650  -10.5400   20.9820 C   0  0  0  0  0  0  0  0  0  0  0  0
  -24.3040   -9.5760   21.9170 C   0  0  0  0  0  3  0  0  0  0  0  0
  -23.5740   -8.3840   22.1110 C   0  0  0  0  0  3  0  0  0  0  0  0
  -22.3920   -8.1470   21.3710 C   0  0  0  0  0  0  0  0  0  0  0  0
  -21.9720   -9.0980   20.4250 C   0  0  0  0  0  3  0  0  0  0  0  0
  -22.7020  -10.2820   20.2290 C   0  0  0  0  0  3  0  0  0  0  0  0
  -21.6330   -7.0060   21.4760 O   0  0  0  0  0  0  0  0  0  0  0  0
  -21.6030   -6.2640   22.6300 C   0  0  0  0  0  0  0  0  0  0  0  0
  -21.2120   -6.8250   23.8660 C   0  0  0  0  0  3  0  0  0  0  0  0
  -21.1290   -6.0110   25.0130 C   0  0  0  0  0  3  0  0  0  0  0  0
  -21.4240   -4.6370   24.9260 C   0  0  0  0  0  0  0  0  0  0  0  0
  -21.8090   -4.0770   23.6940 C   0  0  0  0  0  3  0  0  0  0  0  0
  -21.8940   -4.8880   22.5500 C   0  0  0  0  0  0  0  0  0  0  0  0
  -22.2440   -4.3380   21.3620 F   0  0  0  0  0  0  0  0  0  0  0  0
  -21.3370   -3.8540   26.0250 F   0  0  0  0  0  0  0  0  0  0  0  0
  -22.7450  -13.6370   21.0600 C   0  0  0  0  0  0  0  0  0  0  0  0
  -22.0160  -12.9540   21.9360 N   0  0  0  0  0  0  0  0  0  0  0  0
  -22.3100  -14.6590   20.5310 O   0  0  0  0  0  0  0  0  0  0  0  0
  -22.3790  -12.1270   22.3860 H   0  0  0  0  0  0  0  0  0  0  0  0
  -21.0810  -13.2640   22.1600 H   0  0  0  0  0  0  0  0  0  0  0  0
  -25.3790  -15.2810   20.2100 N   0  0  0  0  0  0  0  0  0  0  0  0
  -24.6150  -15.9400   20.3100 H   0  0  0  0  0  0  0  0  0  0  0  0
  -26.2280  -15.7100   19.8630 H   0  0  0  0  0  0  0  0  0  0  0  0
  1  3  1  0
  2  3  2  0
  3  7  1  0
  4  1  2  0
  5  6  1  0
  6  4  1  0
  6  2  1  0
  8 10  1  0
  8  7  1  0
  9 20  2  0
 10 15  1  0
 11 19  1  0
 11 21  1  0
 12 18  1  0
 12 14  1  0
 13 19  1  0
 14 13  1  0
 15 14  2  0
 16 17  1  0
 16 10  2  0
 17 12  2  0
 18 11  1  0
 19  9  1  0
 21 23  2  0
 22 21  1  0
 24 22  1  0
 25 34  2  0
 25 30  1  0
 26 22  1  0
 26 30  1  0
 27 26  1  0
 28 29  1  0
 28 27  1  0
 29 25  1  0
 30 31  2  0
 31 32  1  0
 33 32  2  0
 34 33  1  0
 35  9  1  0
 35 36  1  0
 35 45  1  0
 36 39  1  0
 37 41  1  0
 37 36  1  0
 38 37  2  0
 41 40  1  0
 43 41  1  0
 43 44  1  0
 43 42  1  0
 45 48  1  1
 45 46  1  0
 47 45  1  0
 49  4  1  0
 49 50  1  0
 51 50  2  0
 51 52  1  0
 53 61  1  0
 54 59  1  0
 55 56  1  0
 55 54  1  0
 57 56  1  0
 57 66  1  0
 57 58  1  0
 59 53  1  0
 59 58  1  0
 60 53  2  0
 61 62  1  0
 61 52  1  0
 63 64  2  0
 64 83  1  0
 65 64  1  0
 65 68  1  0
 66 63  1  0
 66 67  1  0
 67 65  2  0
 68 69  1  0
 69 70  2  0
 71 74  1  0
 71 70  1  0
 72 71  2  0
 73 72  1  0
 73 68  2  0
 74 75  1  0
 75 76  1  0
 76 77  2  0
 78 77  1  0
 78 82  1  0
 79 78  2  0
 80 75  2  0
 80 79  1  0
 81 80  1  0
 83 84  1  0
 84 87  1  0
 84 86  1  0
 85 83  2  0
 88 89  1  0
 88 63  1  0
 90 88  1  0
M  ISO  4   7 101   8 101  53 100  61 100
M  END
>  <TORSDO>  (19) 
F 21

>  <SCORE>  (19) 
-13.374

>  <name>  (19) 
18

>  <ligand_id>  (19) 
18

>  <original_smiles>  (19) 
[H]c1c([H])c([H])c2c(c1[H])C([H])([H])C([H])([H])C([H])([H])C2([H])N([H])C(=O)C1([H])N(C(=O)C([H])(N([H])C(=O)C([H])(N([H])C([H])([H])[H])C([H])([H])[H])C(C([H])([H])[H])(C([H])([H])[H])C([H])([H])[H])C([H])([H])c2c([H])c(OC([H])([H])c3c([H])c(C([H])([H])C([H])([H])C([H])([H])C([H])([H])N([H])C(=O)N4C([H])([H])C([H])([H])C([H])([H])C([H])(n5nc(-c6c([H])c([H])c(Oc7c([H])c([H])c(F)c([H])c7F)c([H])c6[H])c(C(=O)N([H])[H])c5N([H])[H])C4([H])[H])n(C([H])([H])[H])c3[H])c([H])c([H])c2C1([H])[H]

>  <smiles>  (19) 
[H]c1c([H])c([H])c2c(c1[H])C([H])([H])C([H])([H])C([H])([H])C2([H])N([H])C(=O)C1([H])N(C(=O)C([H])(N([H])C(=O)C([H])(N([H])C([H])([H])[H])C([H])([H])[H])C(C([H])([H])[H])(C([H])([H])[H])C([H])([H])[H])C([H])([H])c2c([H])c(OC([H])([H])c3c([H])c(C([H])([H])C([H])([H])C([H])([H])C([H])([H])N([H])C(=O)N4C([H])([H])C([H])([H])C([H])([H])C([H])(n5nc(-c6c([H])c([H])c(Oc7c([H])c([H])c(F)c([H])c7F)c([H])c6[H])c(C(=O)N([H])[H])c5N([H])[H])C4([H])[H])n(C([H])([H])[H])c3[H])c([H])c([H])c2C1([H])[H]

$$$$
19:0:0
     RDKit          3D

 93101  0  0  1  0  0  0  0  0999 V2000
  -26.5970  -23.1290   19.4200 C   0  0  0  0  0  3  0  0  0  0  0  0
  -27.4070  -20.5160   18.9570 C   0  0  0  0  0  3  0  0  0  0  0  0
  -27.9450  -22.7870   19.7120 C   0  0  0  0  0  0  0  0  0  0  0  0
  -25.6620  -22.1920   18.9380 C   0  0  0  0  0  0  0  0  0  0  0  0
  -28.3620  -21.4230   19.4730 C   0  0  0  0  0  0  0  0  0  0  0  0
  -26.0770  -20.8740   18.7030 C   0  0  0  0  0  0  0  0  0  0  0  0
  -24.2250  -22.6020   18.6630 C   0  0  0  0  0  1  0  0  0  0  0  0
  -24.9870  -19.6790   18.0930 Cl  0  0  0  0  0  0  0  0  0  0  0  0
  -28.8540  -23.9620   20.1810 C   0  0  0  0  0  2  0  0  0  0  0  0
  -28.1710  -25.0740   21.0760 C   0  0  0  0  0  2  0  0  0  0  0  0
  -28.4120  -26.4750   20.7400 O   0  0  0  0  0  0  0  0  0  0  0  0
  -24.5530  -31.9130   23.4060 C   0  0  0  0  0  0  0  0  0  0  0  0
  -27.2830  -27.2770   20.6480 C   0  0  0  0  0  0  0  0  0  0  0  0
  -23.4060  -30.4350   21.7930 C   0  0  0  0  0  3  0  0  0  0  0  0
  -24.9060  -28.8270   20.4930 C   0  0  0  0  0  0  0  0  0  0  0  0
  -25.9440  -30.7640   21.6800 C   0  0  0  0  0  2  0  0  0  0  0  0
  -26.0490  -29.3620   21.1040 C   0  0  0  0  0  0  0  0  0  0  0  0
  -27.2440  -28.5940   21.1760 C   0  0  0  0  0  3  0  0  0  0  0  0
  -26.1280  -26.7770   20.0080 C   0  0  0  0  0  3  0  0  0  0  0  0
  -24.9430  -27.5360   19.9400 C   0  0  0  0  0  3  0  0  0  0  0  0
  -23.6660  -29.6940   20.4560 C   0  0  0  0  0  2  0  0  0  0  0  0
  -24.6500  -31.0550   22.3510 N   0  0  0  0  0  0  0  0  0  0  0  0
  -23.4510  -32.2180   23.8870 O   0  0  0  0  0  0  0  0  0  0  0  0
  -22.7130  -29.4620   22.7740 C   0  0  0  0  0  0  0  0  0  0  0  0
  -21.4090  -29.2220   22.5580 N   0  0  0  0  0  0  0  0  0  0  0  0
  -23.3460  -28.9230   23.6840 O   0  0  0  0  0  0  0  0  0  0  0  0
  -20.9600  -29.7060   21.7940 H   0  0  0  0  0  0  0  0  0  0  0  0
  -18.0510  -27.9110   22.8540 C   0  0  0  0  0  0  0  0  0  0  0  0
  -20.5600  -28.3100   23.3270 C   0  0  0  0  0  3  0  0  0  0  0  0
  -20.7730  -26.8460   22.8820 C   0  0  0  0  0  2  0  0  0  0  0  0
  -19.7820  -26.3910   21.8060 C   0  0  0  0  0  2  0  0  0  0  0  0
  -18.3430  -26.5210   22.3110 C   0  0  0  0  0  2  0  0  0  0  0  0
  -19.0940  -28.7560   23.3140 C   0  0  0  0  0  0  0  0  0  0  0  0
  -18.7730  -30.0520   23.7740 C   0  0  0  0  0  3  0  0  0  0  0  0
  -17.4410  -30.5060   23.7780 C   0  0  0  0  0  3  0  0  0  0  0  0
  -16.4100  -29.6570   23.3370 C   0  0  0  0  0  3  0  0  0  0  0  0
  -16.7150  -28.3610   22.8830 C   0  0  0  0  0  3  0  0  0  0  0  0
  -25.8140  -32.5710   24.0450 C   0  0  0  0  0  3  0  0  0  0  0  0
  -25.5050  -33.9900   24.2780 N   0  0  0  0  0  0  0  0  0  0  0  0
  -25.8700  -34.9900   23.4630 C   0  0  0  0  0  0  0  0  0  0  0  0
  -26.5710  -34.8160   22.4630 O   0  0  0  0  0  0  0  0  0  0  0  0
  -24.8820  -34.1980   25.0430 H   0  0  0  0  0  0  0  0  0  0  0  0
  -24.1540  -36.7560   22.9550 C   0  0  0  0  0  1  0  0  0  0  0  0
  -25.3800  -36.4070   23.8140 C   0  0  0  0  0  3  0  0  0  0  0  0
  -27.5040  -37.3390   24.6240 C   0  0  0  0  0  1  0  0  0  0  0  0
  -26.4200  -37.4460   23.6490 N   0  0  0  0  0  0  0  0  0  0  0  0
  -26.0170  -38.3750   23.7280 H   0  0  0  0  0  0  0  0  0  0  0  0
  -26.2670  -31.8720   25.3850 C   0  0  1  0  0  0  0  0  0  0  0  0
  -25.1090  -31.6450   26.3870 C   0  0  0  0  0  1  0  0  0  0  0  0
  -26.9080  -30.4960   25.0910 C   0  0  0  0  0  1  0  0  0  0  0  0
  -27.3530  -32.7270   26.0800 C   0  0  0  0  0  1  0  0  0  0  0  0
  -29.7950  -20.8700   19.6590 C   0  0  0  0  0  2  0  0  0  0  0  0
  -30.0230  -19.5770   20.5450 C   0  0  0  0  0  2  0  0  0  0  0  0
  -29.7660  -18.1300   19.9750 C   0  0  0  0  0  2  0  0  0  0  0  0
  -30.6300  -17.0020   20.6390 C   0  0  0  0  0  2  0  0  0  0  0  0
  -30.8410  -14.5480   19.9660 C   0  0  0  0  0  0  0  0  0  0  0  0
  -30.4710  -12.3490   18.8880 C   0  0  0  0  0  2  0  0  0  0  0  0
  -29.4510  -12.5230   17.7440 C   0  0  0  0  0  2  0  0  0  0  0  0
  -28.0090  -12.4020   18.2790 C   0  0  0  0  0  2  0  0  0  0  0  0
  -27.7620  -13.2690   19.5420 C   0  0  0  0  0  3  0  0  0  0  0  0
  -28.8920  -13.0620   20.5750 C   0  0  0  0  0  2  0  0  0  0  0  0
  -30.1650  -13.3640   19.9070 N   0  0  0  0  0  0  0  0  0  0  0  0
  -31.9650  -14.6910   19.4780 O   0  0  0  0  0  0  0  0  0  0  0  0
  -30.1440  -15.6100   20.4440 N   0  0  0  0  0  0  0  0  0  0  0  0
  -29.2060  -15.4080   20.7550 H   0  0  0  0  0  0  0  0  0  0  0  0
  -25.4470  -13.9130   20.4540 C   0  0  0  0  0  0  0  0  0  0  0  0
  -24.3850  -13.1540   20.8740 C   0  0  0  0  0  0  0  0  0  0  0  0
  -24.8040  -11.7930   20.7650 C   0  0  0  0  0  0  0  0  0  0  0  0
  -26.4440  -13.0110   20.1160 N   0  0  0  0  0  0  0  0  0  0  0  0
  -26.0660  -11.7300   20.3630 N   0  0  0  0  0  0  0  0  0  0  0  0
  -24.0590  -10.5430   20.9660 C   0  0  0  0  0  0  0  0  0  0  0  0
  -24.5080   -9.5500   21.8640 C   0  0  0  0  0  3  0  0  0  0  0  0
  -23.7630   -8.3660   22.0530 C   0  0  0  0  0  3  0  0  0  0  0  0
  -22.5550   -8.1670   21.3450 C   0  0  0  0  0  0  0  0  0  0  0  0
  -22.1240   -9.1480   20.4350 C   0  0  0  0  0  3  0  0  0  0  0  0
  -22.8700  -10.3240   20.2430 C   0  0  0  0  0  3  0  0  0  0  0  0
  -21.7790   -7.0390   21.4470 O   0  0  0  0  0  0  0  0  0  0  0  0
  -21.7370   -6.2960   22.6000 C   0  0  0  0  0  0  0  0  0  0  0  0
  -21.3270   -6.8530   23.8310 C   0  0  0  0  0  3  0  0  0  0  0  0
  -21.2320   -6.0370   24.9770 C   0  0  0  0  0  3  0  0  0  0  0  0
  -21.5380   -4.6660   24.8920 C   0  0  0  0  0  0  0  0  0  0  0  0
  -21.9420   -4.1080   23.6660 C   0  0  0  0  0  3  0  0  0  0  0  0
  -22.0390   -4.9220   22.5230 C   0  0  0  0  0  0  0  0  0  0  0  0
  -22.4080   -4.3740   21.3400 F   0  0  0  0  0  0  0  0  0  0  0  0
  -21.4390   -3.8790   25.9910 F   0  0  0  0  0  0  0  0  0  0  0  0
  -23.0240  -13.6560   21.2640 C   0  0  0  0  0  0  0  0  0  0  0  0
  -22.3550  -12.9610   22.1780 N   0  0  0  0  0  0  0  0  0  0  0  0
  -22.5680  -14.6960   20.7940 O   0  0  0  0  0  0  0  0  0  0  0  0
  -22.7380  -12.1160   22.5740 H   0  0  0  0  0  0  0  0  0  0  0  0
  -21.4470  -13.2780   22.4850 H   0  0  0  0  0  0  0  0  0  0  0  0
  -25.6430  -15.2830   20.3130 N   0  0  0  0  0  0  0  0  0  0  0  0
  -24.9230  -15.9660   20.5200 H   0  0  0  0  0  0  0  0  0  0  0  0
  -26.4870  -15.7010   19.9420 H   0  0  0  0  0  0  0  0  0  0  0  0
  1  3  1  0
  2  5  1  0
  3  9  1  0
  4  1  2  0
  5 52  1  0
  5  3  2  0
  6  4  1  0
  6  2  2  0
  7  4  1  0
  8  6  1  0
  9 10  1  0
 11 10  1  0
 12 23  2  0
 13 11  1  0
 13 18  1  0
 14 22  1  0
 14 24  1  0
 15 17  1  0
 16 22  1  0
 17 18  2  0
 17 16  1  0
 19 13  2  0
 20 19  1  0
 20 15  2  0
 21 15  1  0
 21 14  1  0
 22 12  1  0
 24 26  2  0
 25 24  1  0
 27 25  1  0
 28 37  2  0
 28 33  1  0
 29 25  1  0
 30 29  1  0
 31 32  1  0
 31 30  1  0
 32 28  1  0
 33 29  1  0
 33 34  2  0
 34 35  1  0
 36 35  2  0
 37 36  1  0
 38 12  1  0
 38 39  1  0
 38 48  1  0
 39 42  1  0
 40 44  1  0
 40 39  1  0
 41 40  2  0
 44 43  1  0
 46 47  1  0
 46 44  1  0
 46 45  1  0
 48 51  1  1
 48 49  1  0
 50 48  1  0
 52 53  1  0
 54 53  1  0
 54 55  1  0
 56 64  1  0
 57 62  1  0
 58 59  1  0
 58 57  1  0
 60 59  1  0
 60 69  1  0
 60 61  1  0
 62 56  1  0
 62 61  1  0
 63 56  2  0
 64 55  1  0
 64 65  1  0
 66 67  2  0
 67 86  1  0
 68 67  1  0
 68 71  1  0
 69 70  1  0
 69 66  1  0
 70 68  2  0
 71 72  1  0
 72 73  2  0
 74 77  1  0
 74 73  1  0
 75 74  2  0
 76 75  1  0
 76 71  2  0
 77 78  1  0
 78 79  1  0
 79 80  2  0
 81 80  1  0
 81 85  1  0
 82 81  2  0
 83 78  2  0
 83 82  1  0
 84 83  1  0
 86 87  1  0
 87 90  1  0
 87 89  1  0
 88 86  2  0
 91 66  1  0
 91 92  1  0
 93 91  1  0
M  ISO  4  10 101  11 101  56 100  64 100
M  END
>  <TORSDO>  (20) 
F 22

>  <SCORE>  (20) 
-12.212

>  <name>  (20) 
19

>  <ligand_id>  (20) 
19

>  <original_smiles>  (20) 
[H]c1c([H])c([H])c2c(c1[H])C([H])([H])C([H])([H])C([H])([H])C2([H])N([H])C(=O)C1([H])N(C(=O)C([H])(N([H])C(=O)C([H])(N([H])C([H])([H])[H])C([H])([H])[H])C(C([H])([H])[H])(C([H])([H])[H])C([H])([H])[H])C([H])([H])c2c([H])c(OC([H])([H])C([H])([H])c3c([H])c(C([H])([H])[H])c(Cl)c([H])c3C([H])([H])C([H])([H])C([H])([H])C([H])([H])N([H])C(=O)N3C([H])([H])C([H])([H])C([H])([H])C([H])(n4nc(-c5c([H])c([H])c(Oc6c([H])c([H])c(F)c([H])c6F)c([H])c5[H])c(C(=O)N([H])[H])c4N([H])[H])C3([H])[H])c([H])c([H])c2C1([H])[H]

>  <smiles>  (20) 
[H]c1c([H])c([H])c2c(c1[H])C([H])([H])C([H])([H])C([H])([H])C2([H])N([H])C(=O)C1([H])N(C(=O)C([H])(N([H])C(=O)C([H])(N([H])C([H])([H])[H])C([H])([H])[H])C(C([H])([H])[H])(C([H])([H])[H])C([H])([H])[H])C([H])([H])c2c([H])c(OC([H])([H])C([H])([H])c3c([H])c(C([H])([H])[H])c(Cl)c([H])c3C([H])([H])C([H])([H])C([H])([H])C([H])([H])N([H])C(=O)N3C([H])([H])C([H])([H])C([H])([H])C([H])(n4nc(-c5c([H])c([H])c(Oc6c([H])c([H])c(F)c([H])c6F)c([H])c5[H])c(C(=O)N([H])[H])c4N([H])[H])C3([H])[H])c([H])c([H])c2C1([H])[H]

$$$$
20:0:0
     RDKit          3D

 95101  0  0  1  0  0  0  0  0999 V2000
  -21.5910  -28.9370   23.2220 C   0  0  0  0  0  1  0  0  0  0  0  0
  -22.6870  -27.5420   23.7720 C   0  0  0  0  0  3  0  0  0  0  0  0
  -21.7670  -26.6220   21.3680 C   0  0  0  0  0  3  0  0  0  0  0  0
  -20.3130  -28.8360   20.3170 C   0  0  0  0  0  1  0  0  0  0  0  0
  -20.9800  -28.1940   21.4670 N   0  0  0  0  0  2  0  0  0  0  0  0
  -22.5490  -26.3660   22.6660 N   0  0  0  0  0  0  0  0  0  0  0  0
  -23.1150  -25.5300   22.7040 H   0  0  0  0  0  0  0  0  0  0  0  0
  -24.3840  -27.0930   23.8690 C   0  0  0  0  0  3  0  0  0  0  0  0
  -25.4280  -26.9620   22.4150 C   0  0  0  0  0  3  0  0  0  0  0  0
  -26.8560  -26.6950   21.7030 O   0  0  0  0  0  0  0  0  0  0  0  0
  -24.7640  -32.1080   23.0430 C   0  0  0  0  0  0  0  0  0  0  0  0
  -26.9730  -27.4020   20.5100 C   0  0  0  0  0  0  0  0  0  0  0  0
  -23.7210  -30.7410   21.2760 C   0  0  0  0  0  3  0  0  0  0  0  0
  -25.0810  -29.2430   19.7820 C   0  0  0  0  0  0  0  0  0  0  0  0
  -26.1820  -31.0450   21.2140 C   0  0  0  0  0  2  0  0  0  0  0  0
  -26.2170  -29.6750   20.5020 C   0  0  0  0  0  0  0  0  0  0  0  0
  -27.2590  -28.7590   20.7400 C   0  0  0  0  0  3  0  0  0  0  0  0
  -26.0270  -27.0260   19.5320 C   0  0  0  0  0  3  0  0  0  0  0  0
  -25.0020  -27.9430   19.2380 C   0  0  0  0  0  3  0  0  0  0  0  0
  -23.9050  -30.2070   19.8300 C   0  0  0  0  0  2  0  0  0  0  0  0
  -24.8960  -31.4210   21.8490 N   0  0  0  0  0  0  0  0  0  0  0  0
  -23.6550  -32.3010   23.5780 O   0  0  0  0  0  0  0  0  0  0  0  0
  -23.7480  -29.5470   22.1360 C   0  0  0  0  0  0  0  0  0  0  0  0
  -23.1010  -28.4310   21.7460 N   0  0  0  0  0  2  0  0  0  0  0  0
  -24.0960  -29.5700   23.3090 O   0  0  0  0  0  0  0  0  0  0  0  0
  -23.1260  -28.2820   20.7460 H   0  0  0  0  0  0  0  0  0  0  0  0
  -17.8650  -27.8620   22.8240 C   0  0  0  0  0  0  0  0  0  0  0  0
  -20.4470  -27.1290   23.2880 C   0  0  0  0  0  2  0  0  0  0  0  0
  -19.8590  -25.8220   22.8710 C   0  0  0  0  0  2  0  0  0  0  0  0
  -19.0170  -25.9440   21.6180 C   0  0  0  0  0  2  0  0  0  0  0  0
  -17.7500  -26.6460   21.9770 C   0  0  0  0  0  2  0  0  0  0  0  0
  -19.0960  -28.2270   23.4100 C   0  0  0  0  0  0  0  0  0  0  0  0
  -19.0050  -29.5630   24.0170 C   0  0  0  0  0  3  0  0  0  0  0  0
  -17.8370  -30.3890   23.9840 C   0  0  0  0  0  3  0  0  0  0  0  0
  -16.6230  -29.8390   23.5610 C   0  0  0  0  0  3  0  0  0  0  0  0
  -16.6540  -28.5500   23.0220 C   0  0  0  0  0  3  0  0  0  0  0  0
  -26.0090  -32.5820   23.8170 C   0  0  0  0  0  3  0  0  0  0  0  0
  -26.4520  -31.6880   25.0430 C   0  0  1  0  0  0  0  0  0  0  0  0
  -25.3350  -31.3770   26.0690 C   0  0  0  0  0  1  0  0  0  0  0  0
  -27.0480  -30.3450   24.5670 C   0  0  0  0  0  1  0  0  0  0  0  0
  -27.5940  -32.4190   25.7900 C   0  0  0  0  0  1  0  0  0  0  0  0
  -25.6750  -33.9300   24.2610 N   0  0  0  0  0  0  0  0  0  0  0  0
  -25.9240  -35.0070   23.5130 C   0  0  0  0  0  0  0  0  0  0  0  0
  -26.5460  -34.9470   22.4470 O   0  0  0  0  0  0  0  0  0  0  0  0
  -25.1030  -34.0230   25.0890 H   0  0  0  0  0  0  0  0  0  0  0  0
  -24.1480  -36.7570   23.2580 C   0  0  0  0  0  1  0  0  0  0  0  0
  -25.4120  -36.3570   24.0360 C   0  0  0  0  0  3  0  0  0  0  0  0
  -27.5650  -37.2020   24.8460 C   0  0  0  0  0  1  0  0  0  0  0  0
  -26.4310  -37.4240   23.9530 N   0  0  0  0  0  0  0  0  0  0  0  0
  -26.0320  -38.3340   24.1700 H   0  0  0  0  0  0  0  0  0  0  0  0
  -22.4400  -25.3920   20.3910 C   0  0  0  0  0  2  0  0  0  0  0  0
  -23.2510  -23.8720   20.8970 C   0  0  0  0  0  3  0  0  0  0  0  0
  -24.7040  -22.9490   20.4180 C   0  0  0  0  0  3  0  0  0  0  0  0
  -25.2370  -21.2680   20.7260 C   0  0  0  0  0  3  0  0  0  0  0  0
  -26.7550  -20.3580   20.4430 C   0  0  0  0  0  3  0  0  0  0  0  0
  -27.2130  -18.6390   20.6590 C   0  0  0  0  0  3  0  0  0  0  0  0
  -28.7250  -17.7180   20.4040 C   0  0  0  0  0  3  0  0  0  0  0  0
  -30.1170  -15.1080   20.4180 C   0  0  0  0  0  0  0  0  0  0  0  0
  -30.4150  -12.7040   19.5320 C   0  0  0  0  0  2  0  0  0  0  0  0
  -29.5170  -12.5510   18.2770 C   0  0  0  0  0  2  0  0  0  0  0  0
  -28.0560  -12.2700   18.6820 C   0  0  0  0  0  2  0  0  0  0  0  0
  -27.5880  -13.2050   19.8260 C   0  0  0  0  0  3  0  0  0  0  0  0
  -28.5840  -13.2050   20.9910 C   0  0  0  0  0  2  0  0  0  0  0  0
  -29.8020  -13.7480   20.4190 N   0  0  0  0  0  0  0  0  0  0  0  0
  -31.3110  -15.3410   20.1400 O   0  0  0  0  0  0  0  0  0  0  0  0
  -29.0380  -16.1070   20.5700 N   0  0  0  0  0  0  0  0  0  0  0  0
  -28.1950  -15.6230   20.8440 H   0  0  0  0  0  0  0  0  0  0  0  0
  -25.2290  -13.8080   20.5610 C   0  0  0  0  0  0  0  0  0  0  0  0
  -24.1640  -13.0400   20.9210 C   0  0  0  0  0  0  0  0  0  0  0  0
  -24.6190  -11.6840   20.8780 C   0  0  0  0  0  0  0  0  0  0  0  0
  -26.2550  -12.9170   20.3000 N   0  0  0  0  0  0  0  0  0  0  0  0
  -25.9050  -11.6380   20.5610 N   0  0  0  0  0  0  0  0  0  0  0  0
  -23.8920  -10.4270   21.0460 C   0  0  0  0  0  0  0  0  0  0  0  0
  -24.3530   -9.4200   21.9220 C   0  0  0  0  0  3  0  0  0  0  0  0
  -23.6240   -8.2220   22.0770 C   0  0  0  0  0  3  0  0  0  0  0  0
  -22.4240   -8.0240   21.3550 C   0  0  0  0  0  0  0  0  0  0  0  0
  -21.9830   -9.0200   20.4660 C   0  0  0  0  0  3  0  0  0  0  0  0
  -22.7120  -10.2090   20.3080 C   0  0  0  0  0  3  0  0  0  0  0  0
  -21.6610   -6.8840   21.4250 O   0  0  0  0  0  0  0  0  0  0  0  0
  -21.6840   -6.0710   22.5290 C   0  0  0  0  0  0  0  0  0  0  0  0
  -21.4000   -6.5630   23.8220 C   0  0  0  0  0  3  0  0  0  0  0  0
  -21.3660   -5.6780   24.9190 C   0  0  0  0  0  3  0  0  0  0  0  0
  -21.6040   -4.3050   24.7240 C   0  0  0  0  0  0  0  0  0  0  0  0
  -21.8820   -3.8130   23.4360 C   0  0  0  0  0  3  0  0  0  0  0  0
  -21.9190   -4.6940   22.3410 C   0  0  0  0  0  0  0  0  0  0  0  0
  -22.1660   -4.2130   21.0990 F   0  0  0  0  0  0  0  0  0  0  0  0
  -21.5630   -3.4540   25.7760 F   0  0  0  0  0  0  0  0  0  0  0  0
  -22.7700  -13.5220   21.1910 C   0  0  0  0  0  0  0  0  0  0  0  0
  -22.0340  -12.8240   22.0460 N   0  0  0  0  0  0  0  0  0  0  0  0
  -22.3460  -14.5560   20.6740 O   0  0  0  0  0  0  0  0  0  0  0  0
  -22.3920  -11.9870   22.4850 H   0  0  0  0  0  0  0  0  0  0  0  0
  -21.0960  -13.1280   22.2700 H   0  0  0  0  0  0  0  0  0  0  0  0
  -25.4090  -15.1800   20.3990 N   0  0  0  0  0  0  0  0  0  0  0  0
  -24.6290  -15.8190   20.5030 H   0  0  0  0  0  0  0  0  0  0  0  0
  -26.2010  -15.5980   19.9340 H   0  0  0  0  0  0  0  0  0  0  0  0
  2  1  1  0
  2  8  1  0
  3 51  1  0
  3  5  1  0
  3  6  1  0
  4  5  1  0
  6  7  1  0
  6  2  1  0
  9  8  2  0
 10  9  1  0
 11 22  2  0
 12 17  1  0
 12 10  1  0
 13 21  1  0
 13 23  1  0
 14 20  1  0
 14 16  1  0
 15 21  1  0
 16 17  2  0
 16 15  1  0
 18 12  2  0
 19 18  1  0
 19 14  2  0
 20 13  1  0
 21 11  1  0
 23 25  2  0
 24 23  1  0
 26 24  1  0
 27 36  2  0
 27 32  1  0
 28 32  1  0
 29 28  1  0
 30 31  1  0
 30 29  1  0
 31 27  1  0
 32 33  2  0
 34 33  1  0
 35 34  2  0
 36 35  1  0
 37 11  1  0
 37 42  1  0
 37 38  1  0
 38 41  1  1
 38 39  1  0
 40 38  1  0
 42 45  1  0
 43 47  1  0
 43 42  1  0
 44 43  2  0
 47 46  1  0
 49 47  1  0
 49 50  1  0
 49 48  1  0
 51 52  1  0
 53 54  1  0
 53 52  2  0
 55 56  1  0
 55 54  2  0
 57 66  1  0
 57 56  2  0
 58 64  1  0
 58 66  1  0
 59 64  1  0
 60 61  1  0
 60 59  1  0
 62 61  1  0
 62 71  1  0
 62 63  1  0
 64 63  1  0
 65 58  2  0
 66 67  1  0
 68 69  2  0
 69 88  1  0
 70 69  1  0
 70 73  1  0
 71 68  1  0
 71 72  1  0
 72 70  2  0
 73 74  1  0
 74 75  2  0
 76 79  1  0
 76 75  1  0
 77 76  2  0
 78 77  1  0
 78 73  2  0
 79 80  1  0
 80 81  1  0
 81 82  2  0
 83 82  1  0
 83 87  1  0
 84 83  2  0
 85 80  2  0
 85 84  1  0
 86 85  1  0
 88 89  1  0
 89 92  1  0
 89 91  1  0
 90 88  2  0
 93 94  1  0
 93 68  1  0
 95 93  1  0
M  ISO  4   9 101  10 101  58 100  66 100
M  END
>  <TORSDO>  (21) 
F 25

>  <SCORE>  (21) 
-7.236

>  <name>  (21) 
20

>  <ligand_id>  (21) 
20

>  <original_smiles>  (21) 
[H]c1c([H])c([H])c2c(c1[H])C([H])([H])C([H])([H])C([H])([H])C2([H])N([H])C(=O)C1([H])N(C(=O)C([H])(N([H])C(=O)C([H])(N([H])C([H])([H])[H])C([H])([H])[H])C(C([H])([H])[H])(C([H])([H])[H])C([H])([H])[H])C([H])([H])c2c([H])c(OC([H])([H])C([H])([H])c3c([H])n(C([H])([H])[H])c(C([H])([H])C([H])([H])C([H])([H])C([H])([H])C([H])([H])C([H])([H])C([H])([H])N([H])C(=O)N4C([H])([H])C([H])([H])C([H])([H])C([H])(n5nc(-c6c([H])c([H])c(Oc7c([H])c([H])c(F)c([H])c7F)c([H])c6[H])c(C(=O)N([H])[H])c5N([H])[H])C4([H])[H])[n+]3[H])c([H])c([H])c2C1([H])[H]

>  <smiles>  (21) 
[H]c1c([H])c([H])c2c(c1[H])C([H])([H])C([H])([H])C([H])([H])C2([H])N([H])C(=O)C1([H])N(C(=O)C([H])(N([H])C(=O)C([H])(N([H])C([H])([H])[H])C([H])([H])[H])C(C([H])([H])[H])(C([H])([H])[H])C([H])([H])[H])C([H])([H])c2c([H])c(OC([H])([H])C([H])([H])c3c([H])n(C([H])([H])[H])c(C([H])([H])C([H])([H])C([H])([H])C([H])([H])C([H])([H])C([H])([H])C([H])([H])N([H])C(=O)N4C([H])([H])C([H])([H])C([H])([H])C([H])(n5nc(-c6c([H])c([H])c(Oc7c([H])c([H])c(F)c([H])c7F)c([H])c6[H])c(C(=O)N([H])[H])c5N([H])[H])C4([H])[H])[n+]3[H])c([H])c([H])c2C1([H])[H]

$$$$
21:0:0
     RDKit          3D

 89 97  0  0  1  0  0  0  0  0999 V2000
  -30.0570  -21.0170   22.1330 C   0  0  0  0  0  3  0  0  0  0  0  0
  -30.7760  -18.9280   21.9400 C   0  0  0  0  0  3  0  0  0  0  0  0
  -29.6300  -20.6340   20.8850 C   0  0  0  0  0  0  0  0  0  0  0  0
  -30.1470  -19.1860   20.7510 C   0  0  0  0  0  0  0  0  0  0  0  0
  -31.3070  -20.0860   24.1020 C   0  0  0  0  0  1  0  0  0  0  0  0
  -30.7320  -20.0120   22.7720 N   0  0  0  0  0  0  0  0  0  0  0  0
  -28.7580  -21.8040   20.1060 C   0  0  0  0  0  2  0  0  0  0  0  0
  -28.8600  -23.4660   20.4730 C   0  0  0  0  0  3  0  0  0  0  0  0
  -27.9060  -24.7300   19.8840 C   0  0  0  0  0  3  0  0  0  0  0  0
  -28.1280  -26.2680   20.0500 O   0  0  0  0  0  0  0  0  0  0  0  0
  -24.6630  -31.9480   23.2050 C   0  0  0  0  0  0  0  0  0  0  0  0
  -27.0700  -27.2530   20.0090 C   0  0  0  0  0  0  0  0  0  0  0  0
  -23.3770  -30.5720   21.6140 C   0  0  0  0  0  3  0  0  0  0  0  0
  -24.7480  -29.0070   20.1020 C   0  0  0  0  0  0  0  0  0  0  0  0
  -25.9210  -30.8290   21.3290 C   0  0  0  0  0  2  0  0  0  0  0  0
  -25.9560  -29.4420   20.6610 C   0  0  0  0  0  0  0  0  0  0  0  0
  -27.1140  -28.5800   20.6020 C   0  0  0  0  0  3  0  0  0  0  0  0
  -25.8390  -26.9280   19.3970 C   0  0  0  0  0  3  0  0  0  0  0  0
  -24.7030  -27.7640   19.4540 C   0  0  0  0  0  3  0  0  0  0  0  0
  -23.5270  -29.9070   20.2200 C   0  0  0  0  0  2  0  0  0  0  0  0
  -24.6770  -31.1370   22.1030 N   0  0  0  0  0  0  0  0  0  0  0  0
  -23.6050  -32.2330   23.7880 O   0  0  0  0  0  0  0  0  0  0  0  0
  -22.7440  -29.5580   22.5990 C   0  0  0  0  0  0  0  0  0  0  0  0
  -21.4310  -29.3020   22.4550 N   0  0  0  0  0  0  0  0  0  0  0  0
  -23.4350  -29.0040   23.4580 O   0  0  0  0  0  0  0  0  0  0  0  0
  -20.9260  -29.8030   21.7380 H   0  0  0  0  0  0  0  0  0  0  0  0
  -18.1500  -27.8170   22.8530 C   0  0  0  0  0  0  0  0  0  0  0  0
  -20.6520  -28.3440   23.2450 C   0  0  0  0  0  3  0  0  0  0  0  0
  -20.9230  -26.8920   22.7860 C   0  0  0  0  0  2  0  0  0  0  0  0
  -19.9230  -26.3960   21.7360 C   0  0  0  0  0  2  0  0  0  0  0  0
  -18.4950  -26.4490   22.2870 C   0  0  0  0  0  2  0  0  0  0  0  0
  -19.1640  -28.7130   23.2880 C   0  0  0  0  0  0  0  0  0  0  0  0
  -18.7890  -29.9830   23.7740 C   0  0  0  0  0  3  0  0  0  0  0  0
  -17.4350  -30.3630   23.8310 C   0  0  0  0  0  3  0  0  0  0  0  0
  -16.4360  -29.4680   23.4120 C   0  0  0  0  0  3  0  0  0  0  0  0
  -16.7940  -28.1970   22.9290 C   0  0  0  0  0  3  0  0  0  0  0  0
  -25.9730  -32.5730   23.7740 C   0  0  0  0  0  3  0  0  0  0  0  0
  -26.5440  -31.7900   25.0200 C   0  0  1  0  0  0  0  0  0  0  0  0
  -25.4920  -31.5180   26.1200 C   0  0  0  0  0  1  0  0  0  0  0  0
  -27.1350  -30.4270   24.5890 C   0  0  0  0  0  1  0  0  0  0  0  0
  -27.7050  -32.5910   25.6540 C   0  0  0  0  0  1  0  0  0  0  0  0
  -25.6820  -33.9700   24.1370 N   0  0  0  0  0  0  0  0  0  0  0  0
  -26.0080  -35.0370   23.3970 C   0  0  0  0  0  0  0  0  0  0  0  0
  -26.6530  -34.9490   22.3480 O   0  0  0  0  0  0  0  0  0  0  0  0
  -25.1070  -34.1120   24.9540 H   0  0  0  0  0  0  0  0  0  0  0  0
  -24.2950  -36.8600   23.1230 C   0  0  0  0  0  1  0  0  0  0  0  0
  -25.5490  -36.4210   23.8970 C   0  0  0  0  0  3  0  0  0  0  0  0
  -27.7070  -37.2690   24.7080 C   0  0  0  0  0  1  0  0  0  0  0  0
  -26.5920  -37.4640   23.7850 N   0  0  0  0  0  0  0  0  0  0  0  0
  -26.1990  -38.3860   23.9530 H   0  0  0  0  0  0  0  0  0  0  0  0
  -30.2380  -17.9150   19.7160 C   0  0  0  0  0  2  0  0  0  0  0  0
  -30.9170  -15.2290   19.9300 C   0  0  0  0  0  0  0  0  0  0  0  0
  -30.7540  -12.8770   19.0020 C   0  0  0  0  0  2  0  0  0  0  0  0
  -29.7760  -12.8560   17.8030 C   0  0  0  0  0  2  0  0  0  0  0  0
  -28.3270  -12.6560   18.2870 C   0  0  0  0  0  2  0  0  0  0  0  0
  -27.9740  -13.5730   19.4880 C   0  0  0  0  0  3  0  0  0  0  0  0
  -29.0710  -13.5630   20.5750 C   0  0  0  0  0  2  0  0  0  0  0  0
  -30.3260  -13.9660   19.9280 N   0  0  0  0  0  0  0  0  0  0  0  0
  -32.0860  -15.3050   19.5380 O   0  0  0  0  0  0  0  0  0  0  0  0
  -30.1390  -16.3940   20.1600 N   0  0  0  0  0  0  0  0  0  0  0  0
  -29.2260  -16.1660   20.5230 H   0  0  0  0  0  0  0  0  0  0  0  0
  -25.6290  -14.1600   20.3300 C   0  0  0  0  0  0  0  0  0  0  0  0
  -24.5730  -13.3880   20.7300 C   0  0  0  0  0  0  0  0  0  0  0  0
  -25.0230  -12.0330   20.6560 C   0  0  0  0  0  0  0  0  0  0  0  0
  -26.6530  -13.2770   20.0330 N   0  0  0  0  0  0  0  0  0  0  0  0
  -26.2990  -11.9920   20.2930 N   0  0  0  0  0  0  0  0  0  0  0  0
  -24.2910  -10.7750   20.8530 C   0  0  0  0  0  0  0  0  0  0  0  0
  -24.6810   -9.8390   21.8370 C   0  0  0  0  0  3  0  0  0  0  0  0
  -23.9480   -8.6470   22.0190 C   0  0  0  0  0  3  0  0  0  0  0  0
  -22.8120   -8.3800   21.2200 C   0  0  0  0  0  0  0  0  0  0  0  0
  -22.4420   -9.3050   20.2260 C   0  0  0  0  0  3  0  0  0  0  0  0
  -23.1750  -10.4890   20.0420 C   0  0  0  0  0  3  0  0  0  0  0  0
  -22.0550   -7.2370   21.3090 O   0  0  0  0  0  0  0  0  0  0  0  0
  -21.8630   -6.5940   22.5050 C   0  0  0  0  0  0  0  0  0  0  0  0
  -21.2360   -7.2280   23.6000 C   0  0  0  0  0  3  0  0  0  0  0  0
  -20.9960   -6.5080   24.7880 C   0  0  0  0  0  3  0  0  0  0  0  0
  -21.3700   -5.1550   24.8800 C   0  0  0  0  0  0  0  0  0  0  0  0
  -21.9890   -4.5200   23.7880 C   0  0  0  0  0  3  0  0  0  0  0  0
  -22.2310   -5.2370   22.6030 C   0  0  0  0  0  0  0  0  0  0  0  0
  -22.8090   -4.6140   21.5470 F   0  0  0  0  0  0  0  0  0  0  0  0
  -21.1330   -4.4600   26.0170 F   0  0  0  0  0  0  0  0  0  0  0  0
  -23.1930  -13.8730   21.0650 C   0  0  0  0  0  0  0  0  0  0  0  0
  -22.4960  -13.1720   21.9520 N   0  0  0  0  0  0  0  0  0  0  0  0
  -22.7440  -14.9090   20.5760 O   0  0  0  0  0  0  0  0  0  0  0  0
  -22.8730  -12.3350   22.3700 H   0  0  0  0  0  0  0  0  0  0  0  0
  -21.5710  -13.4800   22.2190 H   0  0  0  0  0  0  0  0  0  0  0  0
  -25.7970  -15.5320   20.1690 N   0  0  0  0  0  0  0  0  0  0  0  0
  -25.0360  -16.1860   20.3200 H   0  0  0  0  0  0  0  0  0  0  0  0
  -26.6220  -15.9700   19.7820 H   0  0  0  0  0  0  0  0  0  0  0  0
  1  6  1  0
  2  6  1  0
  3  1  2  0
  4  3  1  0
  4  2  2  0
  6  5  1  0
  7  8  1  0
  7  3  1  0
  9 10  1  0
  9  8  2  0
 11 22  2  0
 12 10  1  0
 12 17  1  0
 13 21  1  0
 13 23  1  0
 14 20  1  0
 14 16  1  0
 15 21  1  0
 16 15  1  0
 17 16  2  0
 18 19  1  0
 18 12  2  0
 19 14  2  0
 20 13  1  0
 21 11  1  0
 23 25  2  0
 24 23  1  0
 26 24  1  0
 27 36  2  0
 27 32  1  0
 28 24  1  0
 28 32  1  0
 29 28  1  0
 30 31  1  0
 30 29  1  0
 31 27  1  0
 32 33  2  0
 33 34  1  0
 35 34  2  0
 36 35  1  0
 37 11  1  0
 37 42  1  0
 37 38  1  0
 38 41  1  1
 38 39  1  0
 40 38  1  0
 42 45  1  0
 43 47  1  0
 43 42  1  0
 44 43  2  0
 47 46  1  0
 49 47  1  0
 49 50  1  0
 49 48  1  0
 51 60  1  0
 51  4  1  0
 52 60  1  0
 53 58  1  0
 54 55  1  0
 54 53  1  0
 56 55  1  0
 56 65  1  0
 56 57  1  0
 58 52  1  0
 58 57  1  0
 59 52  2  0
 60 61  1  0
 62 63  2  0
 63 82  1  0
 64 63  1  0
 64 67  1  0
 65 66  1  0
 65 62  1  0
 66 64  2  0
 67 68  1  0
 68 69  2  0
 70 73  1  0
 70 69  1  0
 71 70  2  0
 72 71  1  0
 72 67  2  0
 73 74  1  0
 74 79  2  0
 74 75  1  0
 75 76  2  0
 76 77  1  0
 77 81  1  0
 78 77  2  0
 79 78  1  0
 80 79  1  0
 82 83  1  0
 83 86  1  0
 83 85  1  0
 84 82  2  0
 87 88  1  0
 87 62  1  0
 89 87  1  0
M  ISO  4   9 101  10 101  52 100  60 100
M  END
>  <TORSDO>  (22) 
F 20

>  <SCORE>  (22) 
-13.782

>  <name>  (22) 
21

>  <ligand_id>  (22) 
21

>  <original_smiles>  (22) 
[H]c1c([H])c([H])c2c(c1[H])C([H])([H])C([H])([H])C([H])([H])C2([H])N([H])C(=O)C1([H])N(C(=O)C([H])(N([H])C(=O)C([H])(N([H])C([H])([H])[H])C([H])([H])[H])C(C([H])([H])[H])(C([H])([H])[H])C([H])([H])[H])C([H])([H])c2c([H])c(OC([H])([H])C([H])([H])C([H])([H])c3c(C([H])([H])N([H])C(=O)N4C([H])([H])C([H])([H])C([H])([H])C([H])(n5nc(-c6c([H])c([H])c(Oc7c([H])c([H])c(F)c([H])c7F)c([H])c6[H])c(C(=O)N([H])[H])c5N([H])[H])C4([H])[H])c([H])n(C([H])([H])[H])c3[H])c([H])c([H])c2C1([H])[H]

>  <smiles>  (22) 
[H]c1c([H])c([H])c2c(c1[H])C([H])([H])C([H])([H])C([H])([H])C2([H])N([H])C(=O)C1([H])N(C(=O)C([H])(N([H])C(=O)C([H])(N([H])C([H])([H])[H])C([H])([H])[H])C(C([H])([H])[H])(C([H])([H])[H])C([H])([H])[H])C([H])([H])c2c([H])c(OC([H])([H])C([H])([H])C([H])([H])c3c(C([H])([H])N([H])C(=O)N4C([H])([H])C([H])([H])C([H])([H])C([H])(n5nc(-c6c([H])c([H])c(Oc7c([H])c([H])c(F)c([H])c7F)c([H])c6[H])c(C(=O)N([H])[H])c5N([H])[H])C4([H])[H])c([H])n(C([H])([H])[H])c3[H])c([H])c([H])c2C1([H])[H]

$$$$
22:0:0
     RDKit          3D

 88 96  0  0  1  0  0  0  0  0999 V2000
  -28.5370  -20.2510   20.2330 C   0  0  0  0  0  3  0  0  0  0  0  0
  -29.0210  -21.6510   20.4780 C   0  0  0  0  0  0  0  0  0  0  0  0
  -29.5760  -19.2660   20.2680 C   0  0  0  0  0  0  0  0  0  0  0  0
  -32.0380  -19.7570   20.6930 C   0  0  0  0  0  1  0  0  0  0  0  0
  -30.3240  -21.4670   20.6900 N   0  0  0  0  0  0  0  0  0  0  0  0
  -30.6400  -20.1240   20.5630 N   0  0  0  0  0  0  0  0  0  0  0  0
  -28.3520  -23.1700   20.7880 C   0  0  0  0  0  2  0  0  0  0  0  0
  -28.3560  -24.6330   19.9000 C   0  0  0  0  0  2  0  0  0  0  0  0
  -28.2710  -26.1400   20.3860 O   0  0  0  0  0  0  0  0  0  0  0  0
  -24.6270  -31.8920   23.2390 C   0  0  0  0  0  0  0  0  0  0  0  0
  -27.2020  -27.1150   20.2560 C   0  0  0  0  0  0  0  0  0  0  0  0
  -23.4310  -30.4860   21.6040 C   0  0  0  0  0  3  0  0  0  0  0  0
  -24.8800  -28.8910   20.1900 C   0  0  0  0  0  0  0  0  0  0  0  0
  -25.9860  -30.7340   21.4510 C   0  0  0  0  0  2  0  0  0  0  0  0
  -26.0560  -29.3340   20.8060 C   0  0  0  0  0  0  0  0  0  0  0  0
  -27.2120  -28.4610   20.8200 C   0  0  0  0  0  3  0  0  0  0  0  0
  -26.0000  -26.7800   19.5960 C   0  0  0  0  0  3  0  0  0  0  0  0
  -24.8680  -27.6300   19.5690 C   0  0  0  0  0  3  0  0  0  0  0  0
  -23.6540  -29.7950   20.2300 C   0  0  0  0  0  2  0  0  0  0  0  0
  -24.7020  -31.0610   22.1510 N   0  0  0  0  0  0  0  0  0  0  0  0
  -23.5390  -32.1830   23.7590 O   0  0  0  0  0  0  0  0  0  0  0  0
  -22.7420  -29.4920   22.5720 C   0  0  0  0  0  0  0  0  0  0  0  0
  -21.4130  -29.3300   22.4470 N   0  0  0  0  0  0  0  0  0  0  0  0
  -23.4080  -28.8660   23.4010 O   0  0  0  0  0  0  0  0  0  0  0  0
  -20.9300  -29.8860   21.7550 H   0  0  0  0  0  0  0  0  0  0  0  0
  -18.0220  -28.1590   22.9580 C   0  0  0  0  0  0  0  0  0  0  0  0
  -20.5840  -28.4020   23.2220 C   0  0  0  0  0  3  0  0  0  0  0  0
  -20.6740  -26.9680   22.6510 C   0  0  0  0  0  2  0  0  0  0  0  0
  -19.5680  -26.6520   21.6390 C   0  0  0  0  0  2  0  0  0  0  0  0
  -18.1880  -26.8080   22.2810 C   0  0  0  0  0  2  0  0  0  0  0  0
  -19.1470  -28.9150   23.3840 C   0  0  0  0  0  0  0  0  0  0  0  0
  -18.9360  -30.1790   23.9750 C   0  0  0  0  0  3  0  0  0  0  0  0
  -17.6340  -30.6880   24.1440 C   0  0  0  0  0  3  0  0  0  0  0  0
  -16.5250  -29.9290   23.7330 C   0  0  0  0  0  3  0  0  0  0  0  0
  -16.7200  -28.6660   23.1460 C   0  0  0  0  0  3  0  0  0  0  0  0
  -25.9030  -32.5300   23.8690 C   0  0  0  0  0  3  0  0  0  0  0  0
  -26.4010  -31.7730   25.1610 C   0  0  1  0  0  0  0  0  0  0  0  0
  -25.2950  -31.5600   26.2220 C   0  0  0  0  0  1  0  0  0  0  0  0
  -26.9800  -30.3870   24.8000 C   0  0  0  0  0  1  0  0  0  0  0  0
  -27.5500  -32.5690   25.8260 C   0  0  0  0  0  1  0  0  0  0  0  0
  -25.5940  -33.9340   24.1880 N   0  0  0  0  0  0  0  0  0  0  0  0
  -25.9350  -34.9840   23.4310 C   0  0  0  0  0  0  0  0  0  0  0  0
  -26.6090  -34.8750   22.4040 O   0  0  0  0  0  0  0  0  0  0  0  0
  -24.9970  -34.0950   24.9870 H   0  0  0  0  0  0  0  0  0  0  0  0
  -24.2180  -36.7900   23.0680 C   0  0  0  0  0  1  0  0  0  0  0  0
  -25.4540  -36.3790   23.8830 C   0  0  0  0  0  3  0  0  0  0  0  0
  -27.5910  -37.2550   24.7190 C   0  0  0  0  0  1  0  0  0  0  0  0
  -26.4940  -37.4260   23.7700 N   0  0  0  0  0  0  0  0  0  0  0  0
  -26.0920  -38.3480   23.9130 H   0  0  0  0  0  0  0  0  0  0  0  0
  -29.8590  -17.6800   19.7920 C   0  0  0  0  0  2  0  0  0  0  0  0
  -30.4860  -15.0380   20.3020 C   0  0  0  0  0  0  0  0  0  0  0  0
  -30.3680  -12.6670   19.3870 C   0  0  0  0  0  2  0  0  0  0  0  0
  -29.4410  -12.6270   18.1500 C   0  0  0  0  0  2  0  0  0  0  0  0
  -27.9770  -12.4110   18.5780 C   0  0  0  0  0  2  0  0  0  0  0  0
  -27.5730  -13.3270   19.7650 C   0  0  0  0  0  3  0  0  0  0  0  0
  -28.6280  -13.3430   20.8920 C   0  0  0  0  0  2  0  0  0  0  0  0
  -29.8960  -13.7670   20.2870 N   0  0  0  0  0  0  0  0  0  0  0  0
  -31.6710  -15.0860   19.9520 O   0  0  0  0  0  0  0  0  0  0  0  0
  -29.7290  -16.2450   20.4850 N   0  0  0  0  0  0  0  0  0  0  0  0
  -28.8090  -16.0740   20.8630 H   0  0  0  0  0  0  0  0  0  0  0  0
  -25.1980  -13.9020   20.5110 C   0  0  0  0  0  0  0  0  0  0  0  0
  -24.1340  -13.1280   20.8840 C   0  0  0  0  0  0  0  0  0  0  0  0
  -24.5970  -11.7770   20.8500 C   0  0  0  0  0  0  0  0  0  0  0  0
  -26.2370  -13.0230   20.2660 N   0  0  0  0  0  0  0  0  0  0  0  0
  -25.8870  -11.7390   20.5350 N   0  0  0  0  0  0  0  0  0  0  0  0
  -23.8680  -10.5150   21.0410 C   0  0  0  0  0  0  0  0  0  0  0  0
  -24.3020   -9.5430   21.9670 C   0  0  0  0  0  3  0  0  0  0  0  0
  -23.5700   -8.3480   22.1480 C   0  0  0  0  0  3  0  0  0  0  0  0
  -22.3910   -8.1180   21.4000 C   0  0  0  0  0  0  0  0  0  0  0  0
  -21.9760   -9.0790   20.4610 C   0  0  0  0  0  3  0  0  0  0  0  0
  -22.7080  -10.2640   20.2800 C   0  0  0  0  0  3  0  0  0  0  0  0
  -21.6320   -6.9760   21.4890 O   0  0  0  0  0  0  0  0  0  0  0  0
  -21.5910   -6.2270   22.6380 C   0  0  0  0  0  0  0  0  0  0  0  0
  -21.1790   -6.7760   23.8710 C   0  0  0  0  0  3  0  0  0  0  0  0
  -21.0860   -5.9530   25.0120 C   0  0  0  0  0  3  0  0  0  0  0  0
  -21.3930   -4.5820   24.9190 C   0  0  0  0  0  0  0  0  0  0  0  0
  -21.7980   -4.0330   23.6900 C   0  0  0  0  0  3  0  0  0  0  0  0
  -21.8930   -4.8530   22.5520 C   0  0  0  0  0  0  0  0  0  0  0  0
  -22.2630   -4.3130   21.3650 F   0  0  0  0  0  0  0  0  0  0  0  0
  -21.2960   -3.7900   26.0120 F   0  0  0  0  0  0  0  0  0  0  0  0
  -22.7380  -13.6080   21.1560 C   0  0  0  0  0  0  0  0  0  0  0  0
  -22.0090  -12.9120   22.0200 N   0  0  0  0  0  0  0  0  0  0  0  0
  -22.3050  -14.6370   20.6380 O   0  0  0  0  0  0  0  0  0  0  0  0
  -22.3730  -12.0810   22.4610 H   0  0  0  0  0  0  0  0  0  0  0  0
  -21.0720  -13.2170   22.2440 H   0  0  0  0  0  0  0  0  0  0  0  0
  -25.3610  -15.2720   20.3330 N   0  0  0  0  0  0  0  0  0  0  0  0
  -24.5910  -15.9240   20.4360 H   0  0  0  0  0  0  0  0  0  0  0  0
  -26.2010  -15.7090   19.9740 H   0  0  0  0  0  0  0  0  0  0  0  0
  1  3  2  0
  1  2  1  0
  2  5  2  0
  2  7  1  0
  3  6  1  0
  6  5  1  0
  6  4  1  0
  8  9  1  0
  8  7  1  0
 10 21  2  0
 11  9  1  0
 11 16  1  0
 12 20  1  0
 12 22  1  0
 13 19  1  0
 13 15  1  0
 14 20  1  0
 15 16  2  0
 15 14  1  0
 17 11  2  0
 18 17  1  0
 18 13  2  0
 19 12  1  0
 20 10  1  0
 22 24  2  0
 23 22  1  0
 25 23  1  0
 26 35  2  0
 26 31  1  0
 27 23  1  0
 27 31  1  0
 28 27  1  0
 29 30  1  0
 29 28  1  0
 30 26  1  0
 31 32  2  0
 32 33  1  0
 34 33  2  0
 35 34  1  0
 36 10  1  0
 36 41  1  0
 36 37  1  0
 37 40  1  1
 37 38  1  0
 39 37  1  0
 41 44  1  0
 42 46  1  0
 42 41  1  0
 43 42  2  0
 46 45  1  0
 48 46  1  0
 48 49  1  0
 48 47  1  0
 50  3  1  0
 50 59  1  0
 51 59  1  0
 52 57  1  0
 53 54  1  0
 53 52  1  0
 55 54  1  0
 55 64  1  0
 55 56  1  0
 57 51  1  0
 57 56  1  0
 58 51  2  0
 59 60  1  0
 61 62  2  0
 62 81  1  0
 63 62  1  0
 63 66  1  0
 64 61  1  0
 64 65  1  0
 65 63  2  0
 66 67  1  0
 67 68  2  0
 69 72  1  0
 69 68  1  0
 70 69  2  0
 71 70  1  0
 71 66  2  0
 72 73  1  0
 73 74  1  0
 74 75  2  0
 76 75  1  0
 76 80  1  0
 77 76  2  0
 78 73  2  0
 78 77  1  0
 79 78  1  0
 81 82  1  0
 82 85  1  0
 82 84  1  0
 83 81  2  0
 86 87  1  0
 86 61  1  0
 88 86  1  0
M  ISO  4   8 101   9 101  51 100  59 100
M  END
>  <TORSDO>  (23) 
F 19

>  <SCORE>  (23) 
-15.035

>  <name>  (23) 
22

>  <ligand_id>  (23) 
22

>  <original_smiles>  (23) 
[H]c1c([H])c([H])c2c(c1[H])C([H])([H])C([H])([H])C([H])([H])C2([H])N([H])C(=O)C1([H])N(C(=O)C([H])(N([H])C(=O)C([H])(N([H])C([H])([H])[H])C([H])([H])[H])C(C([H])([H])[H])(C([H])([H])[H])C([H])([H])[H])C([H])([H])c2c([H])c(OC([H])([H])C([H])([H])c3nn(C([H])([H])[H])c(C([H])([H])N([H])C(=O)N4C([H])([H])C([H])([H])C([H])([H])C([H])(n5nc(-c6c([H])c([H])c(Oc7c([H])c([H])c(F)c([H])c7F)c([H])c6[H])c(C(=O)N([H])[H])c5N([H])[H])C4([H])[H])c3[H])c([H])c([H])c2C1([H])[H]

>  <smiles>  (23) 
[H]c1c([H])c([H])c2c(c1[H])C([H])([H])C([H])([H])C([H])([H])C2([H])N([H])C(=O)C1([H])N(C(=O)C([H])(N([H])C(=O)C([H])(N([H])C([H])([H])[H])C([H])([H])[H])C(C([H])([H])[H])(C([H])([H])[H])C([H])([H])[H])C([H])([H])c2c([H])c(OC([H])([H])C([H])([H])c3nn(C([H])([H])[H])c(C([H])([H])N([H])C(=O)N4C([H])([H])C([H])([H])C([H])([H])C([H])(n5nc(-c6c([H])c([H])c(Oc7c([H])c([H])c(F)c([H])c7F)c([H])c6[H])c(C(=O)N([H])[H])c5N([H])[H])C4([H])[H])c3[H])c([H])c([H])c2C1([H])[H]

$$$$
23:0:0
     RDKit          3D

 99108  0  0  1  0  0  0  0  0999 V2000
  -27.0120  -21.0130   19.9750 C   0  0  0  0  0  3  0  0  0  0  0  0
  -26.9710  -22.2840   19.3940 C   0  0  0  0  0  3  0  0  0  0  0  0
  -28.7530  -20.3420   18.3920 C   0  0  0  0  0  0  0  0  0  0  0  0
  -28.7830  -21.6680   17.8720 C   0  0  0  0  0  0  0  0  0  0  0  0
  -27.9090  -20.0420   19.4990 C   0  0  0  0  0  0  0  0  0  0  0  0
  -27.8750  -22.6410   18.3760 C   0  0  0  0  0  0  0  0  0  0  0  0
  -29.6240  -19.2630   17.7410 C   0  0  0  0  0  2  0  0  0  0  0  0
  -29.8120  -22.0200   16.7940 C   0  0  0  0  0  2  0  0  0  0  0  0
  -29.2640  -19.0030   16.2630 C   0  0  0  0  0  2  0  0  0  0  0  0
  -29.4870  -21.4220   15.4130 C   0  0  0  0  0  2  0  0  0  0  0  0
  -29.9450  -19.9590   15.2620 C   0  0  0  0  0  3  0  0  0  0  0  0
  -29.7660  -19.4610   13.8160 C   0  0  0  0  0  1  0  0  0  0  0  0
  -27.9880  -18.7350   20.2800 C   0  0  0  0  0  2  0  0  0  0  0  0
  -29.4420  -18.4780   20.7120 C   0  0  0  0  0  2  0  0  0  0  0  0
  -29.6490  -17.1910   21.5150 C   0  0  0  0  0  2  0  0  0  0  0  0
  -31.1420  -16.9780   21.8450 C   0  0  0  0  0  2  0  0  0  0  0  0
  -31.4720  -15.6160   22.4770 C   0  0  0  0  0  2  0  0  0  0  0  0
  -31.0990  -14.1120   20.4940 C   0  0  0  0  0  0  0  0  0  0  0  0
  -30.4960  -12.3590   18.8600 C   0  0  0  0  0  2  0  0  0  0  0  0
  -29.5380  -12.8560   17.7640 C   0  0  0  0  0  2  0  0  0  0  0  0
  -28.0740  -12.7710   18.2310 C   0  0  0  0  0  2  0  0  0  0  0  0
  -27.8620  -13.4270   19.6180 C   0  0  0  0  0  3  0  0  0  0  0  0
  -28.9020  -12.8990   20.6290 C   0  0  0  0  0  2  0  0  0  0  0  0
  -30.2580  -13.1320   20.0860 N   0  0  0  0  0  0  0  0  0  0  0  0
  -32.0490  -14.5340   19.8250 O   0  0  0  0  0  0  0  0  0  0  0  0
  -30.8650  -14.5090   21.7510 N   0  0  0  0  0  0  0  0  0  0  0  0
  -30.1270  -14.0140   22.2270 H   0  0  0  0  0  0  0  0  0  0  0  0
  -25.4880  -14.1470   20.3190 C   0  0  0  0  0  0  0  0  0  0  0  0
  -24.3890  -13.4240   20.7030 C   0  0  0  0  0  0  0  0  0  0  0  0
  -24.7960  -12.0550   20.6880 C   0  0  0  0  0  0  0  0  0  0  0  0
  -26.4960  -13.2220   20.0990 N   0  0  0  0  0  0  0  0  0  0  0  0
  -26.0800  -11.9580   20.3730 N   0  0  0  0  0  0  0  0  0  0  0  0
  -24.0200  -10.8250   20.8980 C   0  0  0  0  0  0  0  0  0  0  0  0
  -24.4320   -9.8410   21.8250 C   0  0  0  0  0  3  0  0  0  0  0  0
  -23.6600   -8.6760   22.0210 C   0  0  0  0  0  3  0  0  0  0  0  0
  -22.4640   -8.4850   21.2900 C   0  0  0  0  0  0  0  0  0  0  0  0
  -22.0720   -9.4570   20.3520 C   0  0  0  0  0  3  0  0  0  0  0  0
  -22.8420  -10.6150   20.1550 C   0  0  0  0  0  3  0  0  0  0  0  0
  -21.6630   -7.3740   21.3970 O   0  0  0  0  0  0  0  0  0  0  0  0
  -21.6130   -6.6310   22.5490 C   0  0  0  0  0  0  0  0  0  0  0  0
  -21.2900   -7.2090   23.7960 C   0  0  0  0  0  3  0  0  0  0  0  0
  -21.1800   -6.3980   24.9420 C   0  0  0  0  0  3  0  0  0  0  0  0
  -21.3860   -5.0090   24.8450 C   0  0  0  0  0  0  0  0  0  0  0  0
  -21.7040   -4.4300   23.6030 C   0  0  0  0  0  3  0  0  0  0  0  0
  -21.8140   -5.2380   22.4580 C   0  0  0  0  0  0  0  0  0  0  0  0
  -22.0990   -4.6730   21.2600 F   0  0  0  0  0  0  0  0  0  0  0  0
  -21.2740   -4.2260   25.9430 F   0  0  0  0  0  0  0  0  0  0  0  0
  -23.0140  -13.9600   20.9750 C   0  0  0  0  0  0  0  0  0  0  0  0
  -22.2750  -13.3150   21.8730 N   0  0  0  0  0  0  0  0  0  0  0  0
  -22.6060  -14.9830   20.4290 O   0  0  0  0  0  0  0  0  0  0  0  0
  -22.6190  -12.4860   22.3330 H   0  0  0  0  0  0  0  0  0  0  0  0
  -21.3510  -13.6570   22.1010 H   0  0  0  0  0  0  0  0  0  0  0  0
  -25.7070  -15.5060   20.1250 N   0  0  0  0  0  0  0  0  0  0  0  0
  -24.9710  -16.1950   20.2330 H   0  0  0  0  0  0  0  0  0  0  0  0
  -26.5810  -15.9010   19.8060 H   0  0  0  0  0  0  0  0  0  0  0  0
  -27.7860  -24.0630   17.8350 C   0  0  0  0  0  2  0  0  0  0  0  0
  -28.7340  -25.1000   18.5120 C   0  0  0  0  0  2  0  0  0  0  0  0
  -28.5850  -25.3600   20.0420 C   0  0  0  0  0  2  0  0  0  0  0  0
  -28.6430  -26.7520   20.4140 O   0  0  0  0  0  0  0  0  0  0  0  0
  -24.6820  -31.9350   23.3270 C   0  0  0  0  0  0  0  0  0  0  0  0
  -27.4610  -27.4690   20.4030 C   0  0  0  0  0  0  0  0  0  0  0  0
  -23.5390  -30.4880   21.6800 C   0  0  0  0  0  3  0  0  0  0  0  0
  -25.0500  -28.9600   20.3330 C   0  0  0  0  0  0  0  0  0  0  0  0
  -26.0720  -30.8830   21.5500 C   0  0  0  0  0  2  0  0  0  0  0  0
  -26.1950  -29.5070   20.9290 C   0  0  0  0  0  0  0  0  0  0  0  0
  -27.4090  -28.7760   20.9490 C   0  0  0  0  0  3  0  0  0  0  0  0
  -26.2700  -26.9370   19.8610 C   0  0  0  0  0  3  0  0  0  0  0  0
  -25.0820  -27.6700   19.8000 C   0  0  0  0  0  3  0  0  0  0  0  0
  -23.7950  -29.7950   20.3200 C   0  0  0  0  0  2  0  0  0  0  0  0
  -24.7800  -31.1140   22.2430 N   0  0  0  0  0  0  0  0  0  0  0  0
  -23.5810  -32.2030   23.8270 O   0  0  0  0  0  0  0  0  0  0  0  0
  -22.8800  -29.4670   22.6370 C   0  0  0  0  0  0  0  0  0  0  0  0
  -21.5590  -29.2770   22.4920 N   0  0  0  0  0  0  0  0  0  0  0  0
  -23.5530  -28.8490   23.4650 O   0  0  0  0  0  0  0  0  0  0  0  0
  -21.0800  -29.8280   21.7930 H   0  0  0  0  0  0  0  0  0  0  0  0
  -18.1690  -28.1190   22.9750 C   0  0  0  0  0  0  0  0  0  0  0  0
  -20.7290  -28.3480   23.2570 C   0  0  0  0  0  3  0  0  0  0  0  0
  -20.8180  -26.9150   22.6820 C   0  0  0  0  0  2  0  0  0  0  0  0
  -19.7160  -26.6030   21.6650 C   0  0  0  0  0  2  0  0  0  0  0  0
  -18.3320  -26.7660   22.3030 C   0  0  0  0  0  2  0  0  0  0  0  0
  -19.2950  -28.8700   23.4070 C   0  0  0  0  0  0  0  0  0  0  0  0
  -19.0880  -30.1400   23.9890 C   0  0  0  0  0  3  0  0  0  0  0  0
  -17.7880  -30.6550   24.1490 C   0  0  0  0  0  3  0  0  0  0  0  0
  -16.6770  -29.8980   23.7370 C   0  0  0  0  0  3  0  0  0  0  0  0
  -16.8690  -28.6330   23.1530 C   0  0  0  0  0  3  0  0  0  0  0  0
  -25.9400  -32.5930   23.9660 C   0  0  0  0  0  3  0  0  0  0  0  0
  -25.5980  -33.9930   24.2560 N   0  0  0  0  0  0  0  0  0  0  0  0
  -25.9410  -35.0340   23.4850 C   0  0  0  0  0  0  0  0  0  0  0  0
  -26.6510  -34.9210   22.4830 O   0  0  0  0  0  0  0  0  0  0  0  0
  -24.9710  -34.1510   25.0320 H   0  0  0  0  0  0  0  0  0  0  0  0
  -24.1950  -36.7910   23.0330 C   0  0  0  0  0  1  0  0  0  0  0  0
  -25.4140  -36.4230   23.8950 C   0  0  0  0  0  3  0  0  0  0  0  0
  -27.5050  -37.3640   24.7760 C   0  0  0  0  0  1  0  0  0  0  0  0
  -26.4320  -37.4920   23.7930 N   0  0  0  0  0  0  0  0  0  0  0  0
  -26.0040  -38.4070   23.9140 H   0  0  0  0  0  0  0  0  0  0  0  0
  -26.4360  -31.8550   25.2690 C   0  0  1  0  0  0  0  0  0  0  0  0
  -25.3180  -31.6130   26.3100 C   0  0  0  0  0  1  0  0  0  0  0  0
  -27.0620  -30.4830   24.9250 C   0  0  0  0  0  1  0  0  0  0  0  0
  -27.5480  -32.6870   25.9520 C   0  0  0  0  0  1  0  0  0  0  0  0
  2  1  2  0
  3  5  2  0
  4  6  2  0
  4  3  1  0
  5  1  1  0
  5 13  1  0
  6  2  1  0
  7  3  1  0
  8  4  1  0
  9  7  1  0
 10  8  1  0
 11 12  1  0
 11 10  1  0
 11  9  1  0
 13 14  1  0
 14 15  1  0
 15 16  1  0
 16 17  1  0
 18 26  1  0
 19 24  1  0
 20 21  1  0
 20 19  1  0
 22 21  1  0
 22 31  1  0
 22 23  1  0
 24 18  1  0
 24 23  1  0
 25 18  2  0
 26 27  1  0
 26 17  1  0
 28 29  2  0
 29 48  1  0
 30 29  1  0
 30 33  1  0
 31 28  1  0
 31 32  1  0
 32 30  2  0
 33 34  1  0
 34 35  2  0
 36 39  1  0
 36 35  1  0
 37 36  2  0
 38 37  1  0
 38 33  2  0
 39 40  1  0
 40 41  1  0
 41 42  2  0
 43 42  1  0
 43 47  1  0
 44 43  2  0
 45 40  2  0
 45 44  1  0
 46 45  1  0
 48 49  1  0
 49 52  1  0
 49 51  1  0
 50 48  2  0
 53 54  1  0
 53 28  1  0
 55 53  1  0
 56  6  1  0
 56 57  1  0
 57 58  1  0
 58 59  1  0
 60 71  2  0
 61 59  1  0
 61 66  1  0
 62 70  1  0
 62 72  1  0
 63 65  1  0
 64 70  1  0
 65 66  2  0
 65 64  1  0
 67 61  2  0
 68 67  1  0
 68 63  2  0
 69 63  1  0
 69 62  1  0
 70 60  1  0
 72 74  2  0
 73 72  1  0
 75 73  1  0
 76 85  2  0
 76 81  1  0
 77 73  1  0
 77 81  1  0
 78 77  1  0
 79 80  1  0
 79 78  1  0
 80 76  1  0
 81 82  2  0
 82 83  1  0
 84 83  2  0
 85 84  1  0
 86 60  1  0
 86 87  1  0
 86 96  1  0
 87 90  1  0
 88 92  1  0
 88 87  1  0
 89 88  2  0
 92 91  1  0
 94 92  1  0
 94 95  1  0
 94 93  1  0
 96 99  1  1
 96 97  1  0
 98 96  1  0
M  ISO  4  18 100  26 100  58 101  59 101
M  END
>  <TORSDO>  (24) 
F 24

>  <SCORE>  (24) 
-10.915

>  <name>  (24) 
23

>  <ligand_id>  (24) 
23

>  <original_smiles>  (24) 
[H]c1c([H])c([H])c2c(c1[H])C([H])([H])C([H])([H])C([H])([H])C2([H])N([H])C(=O)C1([H])N(C(=O)C([H])(N([H])C(=O)C([H])(N([H])C([H])([H])[H])C([H])([H])[H])C(C([H])([H])[H])(C([H])([H])[H])C([H])([H])[H])C([H])([H])c2c([H])c(OC([H])([H])C([H])([H])C([H])([H])c3c([H])c([H])c(C([H])([H])C([H])([H])C([H])([H])C([H])([H])C([H])([H])N([H])C(=O)N4C([H])([H])C([H])([H])C([H])([H])C([H])(n5nc(-c6c([H])c([H])c(Oc7c([H])c([H])c(F)c([H])c7F)c([H])c6[H])c(C(=O)N([H])[H])c5N([H])[H])C4([H])[H])c4c3C([H])([H])C([H])([H])C([H])(C([H])([H])[H])C([H])([H])C4([H])[H])c([H])c([H])c2C1([H])[H]

>  <smiles>  (24) 
[H]c1c([H])c([H])c2c(c1[H])C([H])([H])C([H])([H])C([H])([H])C2([H])N([H])C(=O)C1([H])N(C(=O)C([H])(N([H])C(=O)C([H])(N([H])C([H])([H])[H])C([H])([H])[H])C(C([H])([H])[H])(C([H])([H])[H])C([H])([H])[H])C([H])([H])c2c([H])c(OC([H])([H])C([H])([H])C([H])([H])c3c([H])c([H])c(C([H])([H])C([H])([H])C([H])([H])C([H])([H])C([H])([H])N([H])C(=O)N4C([H])([H])C([H])([H])C([H])([H])C([H])(n5nc(-c6c([H])c([H])c(Oc7c([H])c([H])c(F)c([H])c7F)c([H])c6[H])c(C(=O)N([H])[H])c5N([H])[H])C4([H])[H])c4c3C([H])([H])C([H])([H])C([H])(C([H])([H])[H])C([H])([H])C4([H])[H])c([H])c([H])c2C1([H])[H]

$$$$
24:0:0
     RDKit          3D

 97105  0  0  1  0  0  0  0  0999 V2000
  -29.0560  -23.7690   21.5500 C   0  0  0  0  0  3  0  0  0  0  0  0
  -30.2510  -21.2520   21.5180 C   0  0  0  0  0  3  0  0  0  0  0  0
  -29.9300  -23.4130   22.5860 C   0  0  0  0  0  0  0  0  0  0  0  0
  -28.7430  -22.9080   20.4750 C   0  0  0  0  0  0  0  0  0  0  0  0
  -30.5150  -22.1310   22.5840 C   0  0  0  0  0  0  0  0  0  0  0  0
  -29.3670  -21.5610   20.4530 C   0  0  0  0  0  0  0  0  0  0  0  0
  -30.2180  -24.4330   23.6780 C   0  0  0  0  0  1  0  0  0  0  0  0
  -31.4070  -21.6650   23.7280 C   0  0  0  0  0  2  0  0  0  0  0  0
  -30.5950  -21.2500   24.9720 C   0  0  0  0  0  2  0  0  0  0  0  0
  -30.0980  -19.7950   24.9810 C   0  0  0  0  0  2  0  0  0  0  0  0
  -29.1790  -19.5220   26.1830 C   0  0  0  0  0  2  0  0  0  0  0  0
  -28.1300  -17.7640   27.7100 C   0  0  0  0  0  1  0  0  0  0  0  0
  -29.0920  -18.0330   26.5460 C   0  0  0  0  0  2  0  0  0  0  0  0
  -27.6500  -23.5700   19.5480 C   0  0  0  0  0  2  0  0  0  0  0  0
  -27.7260  -25.1120   18.9750 C   0  0  0  0  0  2  0  0  0  0  0  0
  -27.7670  -26.4430   19.6740 O   0  0  0  0  0  0  0  0  0  0  0  0
  -24.6900  -31.7880   23.4790 C   0  0  0  0  0  0  0  0  0  0  0  0
  -26.7020  -27.3700   19.7600 C   0  0  0  0  0  0  0  0  0  0  0  0
  -23.2520  -30.6190   21.8470 C   0  0  0  0  0  3  0  0  0  0  0  0
  -24.4580  -29.1340   20.1380 C   0  0  0  0  0  0  0  0  0  0  0  0
  -25.7810  -30.7980   21.4490 C   0  0  0  0  0  2  0  0  0  0  0  0
  -25.7060  -29.4870   20.6650 C   0  0  0  0  0  0  0  0  0  0  0  0
  -26.8220  -28.6100   20.4780 C   0  0  0  0  0  3  0  0  0  0  0  0
  -25.4330  -27.0850   19.2130 C   0  0  0  0  0  3  0  0  0  0  0  0
  -24.3270  -27.9420   19.4040 C   0  0  0  0  0  3  0  0  0  0  0  0
  -23.2900  -30.0680   20.3960 C   0  0  0  0  0  2  0  0  0  0  0  0
  -24.5980  -31.0830   22.3130 N   0  0  0  0  0  0  0  0  0  0  0  0
  -23.6800  -32.0760   24.1400 O   0  0  0  0  0  0  0  0  0  0  0  0
  -22.6180  -29.5550   22.7750 C   0  0  0  0  0  0  0  0  0  0  0  0
  -21.3090  -29.3030   22.6050 N   0  0  0  0  0  0  0  0  0  0  0  0
  -23.3060  -28.9590   23.6100 O   0  0  0  0  0  0  0  0  0  0  0  0
  -20.8080  -29.8390   21.9100 H   0  0  0  0  0  0  0  0  0  0  0  0
  -18.0550  -27.7350   22.8200 C   0  0  0  0  0  0  0  0  0  0  0  0
  -20.5230  -28.3090   23.3380 C   0  0  0  0  0  3  0  0  0  0  0  0
  -20.8500  -26.8750   22.8560 C   0  0  0  0  0  2  0  0  0  0  0  0
  -19.9110  -26.3820   21.7520 C   0  0  0  0  0  2  0  0  0  0  0  0
  -18.4590  -26.3900   22.2400 C   0  0  0  0  0  2  0  0  0  0  0  0
  -19.0250  -28.6440   23.3210 C   0  0  0  0  0  0  0  0  0  0  0  0
  -18.5990  -29.8940   23.8170 C   0  0  0  0  0  3  0  0  0  0  0  0
  -17.2360  -30.2410   23.8190 C   0  0  0  0  0  3  0  0  0  0  0  0
  -16.2780  -29.3320   23.3400 C   0  0  0  0  0  3  0  0  0  0  0  0
  -16.6880  -28.0810   22.8460 C   0  0  0  0  0  3  0  0  0  0  0  0
  -26.0610  -32.2900   24.0260 C   0  0  0  0  0  3  0  0  0  0  0  0
  -26.6790  -31.3440   25.1270 C   0  0  1  0  0  0  0  0  0  0  0  0
  -25.6970  -31.0000   26.2720 C   0  0  0  0  0  1  0  0  0  0  0  0
  -27.1500  -30.0130   24.4990 C   0  0  0  0  0  1  0  0  0  0  0  0
  -27.9300  -32.0100   25.7490 C   0  0  0  0  0  1  0  0  0  0  0  0
  -25.8630  -33.6440   24.5650 N   0  0  0  0  0  0  0  0  0  0  0  0
  -26.1720  -34.7750   23.9180 C   0  0  0  0  0  0  0  0  0  0  0  0
  -26.7230  -34.7880   22.8130 O   0  0  0  0  0  0  0  0  0  0  0  0
  -25.3640  -33.7150   25.4390 H   0  0  0  0  0  0  0  0  0  0  0  0
  -24.5150  -36.6640   24.0020 C   0  0  0  0  0  1  0  0  0  0  0  0
  -25.8120  -36.1050   24.6070 C   0  0  0  0  0  3  0  0  0  0  0  0
  -28.0610  -36.7890   25.3110 C   0  0  0  0  0  1  0  0  0  0  0  0
  -26.8800  -37.1240   24.5200 N   0  0  0  0  0  0  0  0  0  0  0  0
  -26.5370  -38.0270   24.8350 H   0  0  0  0  0  0  0  0  0  0  0  0
  -29.2780  -20.3710   19.3950 C   0  0  0  0  0  2  0  0  0  0  0  0
  -29.0410  -18.8060   19.8620 C   0  0  0  0  0  3  0  0  0  0  0  0
  -30.1260  -17.6060   19.6310 C   0  0  0  0  0  3  0  0  0  0  0  0
  -30.5460  -14.9950   19.7340 C   0  0  0  0  0  0  0  0  0  0  0  0
  -30.3430  -12.6600   18.8630 C   0  0  0  0  0  2  0  0  0  0  0  0
  -29.3540  -12.6600   17.6750 C   0  0  0  0  0  2  0  0  0  0  0  0
  -27.9020  -12.5060   18.1670 C   0  0  0  0  0  2  0  0  0  0  0  0
  -27.5710  -13.4410   19.3630 C   0  0  0  0  0  3  0  0  0  0  0  0
  -28.6770  -13.4180   20.4380 C   0  0  0  0  0  2  0  0  0  0  0  0
  -29.9400  -13.7560   19.7740 N   0  0  0  0  0  0  0  0  0  0  0  0
  -31.7110  -15.0880   19.3350 O   0  0  0  0  0  0  0  0  0  0  0  0
  -29.7730  -16.1350   19.9290 N   0  0  0  0  0  0  0  0  0  0  0  0
  -28.8300  -15.9570   20.2430 H   0  0  0  0  0  0  0  0  0  0  0  0
  -25.2400  -14.0510   20.2480 C   0  0  0  0  0  0  0  0  0  0  0  0
  -24.1860  -13.2850   20.6630 C   0  0  0  0  0  0  0  0  0  0  0  0
  -24.6240  -11.9270   20.5750 C   0  0  0  0  0  0  0  0  0  0  0  0
  -26.2530  -13.1620   19.9270 N   0  0  0  0  0  0  0  0  0  0  0  0
  -25.8930  -11.8790   20.1880 N   0  0  0  0  0  0  0  0  0  0  0  0
  -23.8880  -10.6720   20.7790 C   0  0  0  0  0  0  0  0  0  0  0  0
  -24.3290   -9.6980   21.7010 C   0  0  0  0  0  3  0  0  0  0  0  0
  -23.5930   -8.5090   21.8940 C   0  0  0  0  0  3  0  0  0  0  0  0
  -22.3990   -8.2840   21.1670 C   0  0  0  0  0  0  0  0  0  0  0  0
  -21.9770   -9.2480   20.2350 C   0  0  0  0  0  3  0  0  0  0  0  0
  -22.7150  -10.4290   20.0380 C   0  0  0  0  0  3  0  0  0  0  0  0
  -21.6320   -7.1500   21.2710 O   0  0  0  0  0  0  0  0  0  0  0  0
  -21.5620   -6.4320   22.4390 C   0  0  0  0  0  0  0  0  0  0  0  0
  -21.1060   -7.0120   23.6420 C   0  0  0  0  0  3  0  0  0  0  0  0
  -20.9810   -6.2210   24.8030 C   0  0  0  0  0  3  0  0  0  0  0  0
  -21.3040   -4.8510   24.7590 C   0  0  0  0  0  0  0  0  0  0  0  0
  -21.7530   -4.2710   23.5600 C   0  0  0  0  0  3  0  0  0  0  0  0
  -21.8780   -5.0600   22.4040 C   0  0  0  0  0  0  0  0  0  0  0  0
  -22.2900   -4.4900   21.2450 F   0  0  0  0  0  0  0  0  0  0  0  0
  -21.1790   -4.0880   25.8710 F   0  0  0  0  0  0  0  0  0  0  0  0
  -22.8140  -13.7770   21.0250 C   0  0  0  0  0  0  0  0  0  0  0  0
  -22.1370  -13.0870   21.9350 N   0  0  0  0  0  0  0  0  0  0  0  0
  -22.3560  -14.8080   20.5330 O   0  0  0  0  0  0  0  0  0  0  0  0
  -22.5240  -12.2530   22.3520 H   0  0  0  0  0  0  0  0  0  0  0  0
  -21.2180  -13.3950   22.2190 H   0  0  0  0  0  0  0  0  0  0  0  0
  -25.4160  -15.4220   20.0900 N   0  0  0  0  0  0  0  0  0  0  0  0
  -24.6700  -16.0880   20.2550 H   0  0  0  0  0  0  0  0  0  0  0  0
  -26.2430  -15.8500   19.6940 H   0  0  0  0  0  0  0  0  0  0  0  0
  1  3  1  0
  2  5  1  0
  3  7  1  0
  4  1  2  0
  5  3  2  0
  5  8  1  0
  6  4  1  0
  6  2  2  0
  8  9  1  0
  9 10  1  0
 10 11  1  0
 11 13  1  0
 13 12  1  0
 14  4  1  0
 15 14  1  0
 15 16  1  0
 16 18  1  0
 17 28  2  0
 18 23  1  0
 19 27  1  0
 19 29  1  0
 20 26  1  0
 20 22  1  0
 21 27  1  0
 22 21  1  0
 23 22  2  0
 24 25  1  0
 24 18  2  0
 25 20  2  0
 26 19  1  0
 27 17  1  0
 29 31  2  0
 30 29  1  0
 32 30  1  0
 33 42  2  0
 33 38  1  0
 34 30  1  0
 35 34  1  0
 36 37  1  0
 36 35  1  0
 37 33  1  0
 38 34  1  0
 38 39  2  0
 39 40  1  0
 41 40  2  0
 42 41  1  0
 43 17  1  0
 43 48  1  0
 43 44  1  0
 44 47  1  1
 44 45  1  0
 46 44  1  0
 48 51  1  0
 49 48  1  0
 49 53  1  0
 50 49  2  0
 53 52  1  0
 55 53  1  0
 55 56  1  0
 55 54  1  0
 57 58  1  0
 57  6  1  0
 59 58  2  0
 59 68  1  0
 60 66  1  0
 60 68  1  0
 61 66  1  0
 62 63  1  0
 62 61  1  0
 64 63  1  0
 64 73  1  0
 64 65  1  0
 66 65  1  0
 67 60  2  0
 68 69  1  0
 70 71  2  0
 71 90  1  0
 72 71  1  0
 72 75  1  0
 73 74  1  0
 73 70  1  0
 74 72  2  0
 75 76  1  0
 76 77  2  0
 78 81  1  0
 78 77  1  0
 79 78  2  0
 80 79  1  0
 80 75  2  0
 81 82  1  0
 82 83  1  0
 83 84  2  0
 85 84  1  0
 85 89  1  0
 86 85  2  0
 87 82  2  0
 87 86  1  0
 88 87  1  0
 90 91  1  0
 91 94  1  0
 91 93  1  0
 92 90  2  0
 95 70  1  0
 95 96  1  0
 97 95  1  0
M  ISO  4  15 101  16 101  60 100  68 100
M  END
>  <TORSDO>  (25) 
F 26

>  <SCORE>  (25) 
-3.928

>  <name>  (25) 
24

>  <ligand_id>  (25) 
24

>  <original_smiles>  (25) 
[H]c1c([H])c([H])c2c(c1[H])C([H])([H])C([H])([H])C([H])([H])C2([H])N([H])C(=O)C1([H])N(C(=O)C([H])(N([H])C(=O)C([H])(N([H])C([H])([H])[H])C([H])([H])[H])C(C([H])([H])[H])(C([H])([H])[H])C([H])([H])[H])C([H])([H])c2c([H])c(OC([H])([H])C([H])([H])c3c([H])c(C([H])([H])[H])c(C([H])([H])C([H])([H])C([H])([H])C([H])([H])C([H])([H])C([H])([H])[H])c([H])c3C([H])([H])C([H])([H])C([H])([H])N([H])C(=O)N3C([H])([H])C([H])([H])C([H])([H])C([H])(n4nc(-c5c([H])c([H])c(Oc6c([H])c([H])c(F)c([H])c6F)c([H])c5[H])c(C(=O)N([H])[H])c4N([H])[H])C3([H])[H])c([H])c([H])c2C1([H])[H]

>  <smiles>  (25) 
[H]c1c([H])c([H])c2c(c1[H])C([H])([H])C([H])([H])C([H])([H])C2([H])N([H])C(=O)C1([H])N(C(=O)C([H])(N([H])C(=O)C([H])(N([H])C([H])([H])[H])C([H])([H])[H])C(C([H])([H])[H])(C([H])([H])[H])C([H])([H])[H])C([H])([H])c2c([H])c(OC([H])([H])C([H])([H])c3c([H])c(C([H])([H])[H])c(C([H])([H])C([H])([H])C([H])([H])C([H])([H])C([H])([H])C([H])([H])[H])c([H])c3C([H])([H])C([H])([H])C([H])([H])N([H])C(=O)N3C([H])([H])C([H])([H])C([H])([H])C([H])(n4nc(-c5c([H])c([H])c(Oc6c([H])c([H])c(F)c([H])c6F)c([H])c5[H])c(C(=O)N([H])[H])c4N([H])[H])C3([H])[H])c([H])c([H])c2C1([H])[H]

$$$$
25:0:0
     RDKit          3D

 92100  0  0  1  0  0  0  0  0999 V2000
  -31.4100  -20.9180   20.2870 C   0  0  0  0  0  3  0  0  0  0  0  0
  -31.0360  -23.3360   20.3510 C   0  0  0  0  0  3  0  0  0  0  0  0
  -29.2480  -21.8190   20.9820 C   0  0  0  0  0  3  0  0  0  0  0  0
  -31.8830  -22.2420   20.0900 C   0  0  0  0  0  0  0  0  0  0  0  0
  -30.0870  -20.6860   20.7450 C   0  0  0  0  0  0  0  0  0  0  0  0
  -29.7070  -23.1530   20.7750 C   0  0  0  0  0  0  0  0  0  0  0  0
  -34.1340  -21.3860   19.1140 C   0  0  0  0  0  1  0  0  0  0  0  0
  -33.2890  -22.5700   19.5930 C   0  0  0  0  0  2  0  0  0  0  0  0
  -29.5180  -19.2530   20.9520 C   0  0  0  0  0  2  0  0  0  0  0  0
  -30.4560  -17.9850   20.9840 C   0  0  0  0  0  2  0  0  0  0  0  0
  -29.6440  -16.6360   21.0730 C   0  0  0  0  0  2  0  0  0  0  0  0
  -30.7910  -14.4950   20.4100 C   0  0  0  0  0  0  0  0  0  0  0  0
  -30.3920  -12.3590   19.2070 C   0  0  0  0  0  2  0  0  0  0  0  0
  -29.4350  -12.5500   18.0130 C   0  0  0  0  0  2  0  0  0  0  0  0
  -27.9730  -12.4030   18.4650 C   0  0  0  0  0  2  0  0  0  0  0  0
  -27.6520  -13.2550   19.7190 C   0  0  0  0  0  3  0  0  0  0  0  0
  -28.7260  -13.0780   20.8200 C   0  0  0  0  0  2  0  0  0  0  0  0
  -30.0540  -13.3560   20.2440 N   0  0  0  0  0  0  0  0  0  0  0  0
  -31.8370  -14.7000   19.7960 O   0  0  0  0  0  0  0  0  0  0  0  0
  -30.3970  -15.3860   21.3440 N   0  0  0  0  0  0  0  0  0  0  0  0
  -31.1320  -15.5390   22.0220 H   0  0  0  0  0  0  0  0  0  0  0  0
  -25.2650  -13.8600   20.4610 C   0  0  0  0  0  0  0  0  0  0  0  0
  -24.1970  -13.0860   20.8350 C   0  0  0  0  0  0  0  0  0  0  0  0
  -24.6550  -11.7350   20.7910 C   0  0  0  0  0  0  0  0  0  0  0  0
  -26.3050  -12.9760   20.2170 N   0  0  0  0  0  0  0  0  0  0  0  0
  -25.9420  -11.6930   20.4730 N   0  0  0  0  0  0  0  0  0  0  0  0
  -23.9250  -10.4720   20.9820 C   0  0  0  0  0  0  0  0  0  0  0  0
  -24.3470   -9.5110   21.9290 C   0  0  0  0  0  3  0  0  0  0  0  0
  -23.6160   -8.3160   22.1110 C   0  0  0  0  0  3  0  0  0  0  0  0
  -22.4510   -8.0730   21.3450 C   0  0  0  0  0  0  0  0  0  0  0  0
  -22.0480   -9.0220   20.3890 C   0  0  0  0  0  3  0  0  0  0  0  0
  -22.7800  -10.2070   20.2060 C   0  0  0  0  0  3  0  0  0  0  0  0
  -21.6950   -6.9300   21.4350 O   0  0  0  0  0  0  0  0  0  0  0  0
  -21.6120   -6.2100   22.6000 C   0  0  0  0  0  0  0  0  0  0  0  0
  -21.1240   -6.7810   23.7960 C   0  0  0  0  0  3  0  0  0  0  0  0
  -20.9880   -5.9850   24.9510 C   0  0  0  0  0  3  0  0  0  0  0  0
  -21.3350   -4.6220   24.9120 C   0  0  0  0  0  0  0  0  0  0  0  0
  -21.8150   -4.0500   23.7210 C   0  0  0  0  0  3  0  0  0  0  0  0
  -21.9510   -4.8420   22.5680 C   0  0  0  0  0  0  0  0  0  0  0  0
  -22.3950   -4.2820   21.4170 F   0  0  0  0  0  0  0  0  0  0  0  0
  -21.1990   -3.8570   26.0210 F   0  0  0  0  0  0  0  0  0  0  0  0
  -22.8020  -13.5650   21.1230 C   0  0  0  0  0  0  0  0  0  0  0  0
  -22.0780  -12.8610   21.9860 N   0  0  0  0  0  0  0  0  0  0  0  0
  -22.3650  -14.5970   20.6150 O   0  0  0  0  0  0  0  0  0  0  0  0
  -22.4470  -12.0250   22.4150 H   0  0  0  0  0  0  0  0  0  0  0  0
  -21.1460  -13.1670   22.2260 H   0  0  0  0  0  0  0  0  0  0  0  0
  -25.4270  -15.2290   20.2910 N   0  0  0  0  0  0  0  0  0  0  0  0
  -24.6640  -15.8820   20.4300 H   0  0  0  0  0  0  0  0  0  0  0  0
  -26.2820  -15.6780   19.9840 H   0  0  0  0  0  0  0  0  0  0  0  0
  -28.8460  -24.4070   21.0500 C   0  0  0  0  0  2  0  0  0  0  0  0
  -28.6570  -25.3770   19.8370 C   0  0  0  0  0  2  0  0  0  0  0  0
  -28.4800  -26.7580   20.2230 O   0  0  0  0  0  0  0  0  0  0  0  0
  -24.5770  -31.8920   23.2250 C   0  0  0  0  0  0  0  0  0  0  0  0
  -27.2650  -27.4260   20.1820 C   0  0  0  0  0  0  0  0  0  0  0  0
  -23.3880  -30.4870   21.5710 C   0  0  0  0  0  3  0  0  0  0  0  0
  -24.8560  -28.9380   20.1690 C   0  0  0  0  0  0  0  0  0  0  0  0
  -25.9140  -30.8450   21.3960 C   0  0  0  0  0  2  0  0  0  0  0  0
  -26.0070  -29.4680   20.7610 C   0  0  0  0  0  0  0  0  0  0  0  0
  -27.2080  -28.7200   20.7590 C   0  0  0  0  0  3  0  0  0  0  0  0
  -26.0870  -26.9090   19.5920 C   0  0  0  0  0  3  0  0  0  0  0  0
  -24.8910  -27.6590   19.5850 C   0  0  0  0  0  3  0  0  0  0  0  0
  -23.6120  -29.8020   20.1950 C   0  0  0  0  0  2  0  0  0  0  0  0
  -24.6440  -31.0920   22.1220 N   0  0  0  0  0  0  0  0  0  0  0  0
  -23.4900  -32.1600   23.7540 O   0  0  0  0  0  0  0  0  0  0  0  0
  -22.7280  -29.4680   22.5270 C   0  0  0  0  0  0  0  0  0  0  0  0
  -21.4040  -29.2890   22.3910 N   0  0  0  0  0  0  0  0  0  0  0  0
  -23.4060  -28.8410   23.3450 O   0  0  0  0  0  0  0  0  0  0  0  0
  -20.9190  -29.8450   21.7020 H   0  0  0  0  0  0  0  0  0  0  0  0
  -18.0210  -28.1210   22.8930 C   0  0  0  0  0  0  0  0  0  0  0  0
  -20.5820  -28.3530   23.1580 C   0  0  0  0  0  3  0  0  0  0  0  0
  -20.6670  -26.9270   22.5660 C   0  0  0  0  0  2  0  0  0  0  0  0
  -19.5600  -26.6250   21.5520 C   0  0  0  0  0  2  0  0  0  0  0  0
  -18.1820  -26.7770   22.2030 C   0  0  0  0  0  2  0  0  0  0  0  0
  -19.1470  -28.8680   23.3270 C   0  0  0  0  0  0  0  0  0  0  0  0
  -18.9420  -30.1260   23.9340 C   0  0  0  0  0  3  0  0  0  0  0  0
  -17.6430  -30.6400   24.1060 C   0  0  0  0  0  3  0  0  0  0  0  0
  -16.5310  -29.8900   23.6870 C   0  0  0  0  0  3  0  0  0  0  0  0
  -16.7200  -28.6310   23.0880 C   0  0  0  0  0  3  0  0  0  0  0  0
  -25.8560  -32.5250   23.8570 C   0  0  0  0  0  3  0  0  0  0  0  0
  -25.5420  -33.9230   24.1810 N   0  0  0  0  0  0  0  0  0  0  0  0
  -25.8850  -34.9740   23.4220 C   0  0  0  0  0  0  0  0  0  0  0  0
  -26.5680  -34.8660   22.4000 O   0  0  0  0  0  0  0  0  0  0  0  0
  -24.9380  -34.0790   24.9750 H   0  0  0  0  0  0  0  0  0  0  0  0
  -24.1720  -36.7710   23.0260 C   0  0  0  0  0  1  0  0  0  0  0  0
  -25.3910  -36.3640   23.8670 C   0  0  0  0  0  3  0  0  0  0  0  0
  -27.5070  -37.2440   24.7530 C   0  0  0  0  0  1  0  0  0  0  0  0
  -26.4300  -37.4130   23.7790 N   0  0  0  0  0  0  0  0  0  0  0  0
  -26.0250  -38.3350   23.9100 H   0  0  0  0  0  0  0  0  0  0  0  0
  -26.3640  -31.7540   25.1380 C   0  0  1  0  0  0  0  0  0  0  0  0
  -25.2620  -31.5100   26.1940 C   0  0  0  0  0  1  0  0  0  0  0  0
  -26.9530  -30.3790   24.7490 C   0  0  0  0  0  1  0  0  0  0  0  0
  -27.5090  -32.5500   25.8080 C   0  0  0  0  0  1  0  0  0  0  0  0
  1  5  1  0
  2  6  2  0
  4  1  2  0
  4  2  1  0
  5  9  1  0
  5  3  2  0
  6  3  1  0
  6 50  1  0
  7  8  1  0
  8  4  1  0
  9 10  1  0
 10 11  1  0
 11 20  1  0
 12 20  1  0
 13 18  1  0
 14 15  1  0
 14 13  1  0
 16 15  1  0
 16 25  1  0
 16 17  1  0
 18 12  1  0
 18 17  1  0
 19 12  2  0
 20 21  1  0
 22 23  2  0
 23 42  1  0
 24 23  1  0
 24 27  1  0
 25 22  1  0
 25 26  1  0
 26 24  2  0
 27 28  1  0
 28 29  2  0
 30 33  1  0
 30 29  1  0
 31 30  2  0
 32 31  1  0
 32 27  2  0
 33 34  1  0
 34 35  1  0
 35 36  2  0
 37 36  1  0
 37 41  1  0
 38 37  2  0
 39 34  2  0
 39 38  1  0
 40 39  1  0
 42 43  1  0
 43 46  1  0
 43 45  1  0
 44 42  2  0
 47 48  1  0
 47 22  1  0
 49 47  1  0
 51 52  1  0
 51 50  1  0
 53 64  2  0
 54 52  1  0
 54 59  1  0
 55 63  1  0
 55 65  1  0
 56 62  1  0
 56 58  1  0
 57 63  1  0
 58 57  1  0
 59 58  2  0
 60 54  2  0
 61 60  1  0
 61 56  2  0
 62 55  1  0
 63 53  1  0
 65 67  2  0
 66 65  1  0
 68 66  1  0
 69 78  2  0
 69 74  1  0
 70 66  1  0
 70 74  1  0
 71 70  1  0
 72 73  1  0
 72 71  1  0
 73 69  1  0
 74 75  2  0
 75 76  1  0
 77 76  2  0
 78 77  1  0
 79 53  1  0
 79 80  1  0
 79 89  1  0
 80 83  1  0
 81 85  1  0
 81 80  1  0
 82 81  2  0
 85 84  1  0
 87 85  1  0
 87 88  1  0
 87 86  1  0
 89 92  1  1
 89 90  1  0
 91 89  1  0
M  ISO  4  12 100  20 100  51 101  52 101
M  END
>  <TORSDO>  (26) 
F 22

>  <SCORE>  (26) 
-13.241

>  <name>  (26) 
25

>  <ligand_id>  (26) 
25

>  <original_smiles>  (26) 
[H]c1c([H])c([H])c2c(c1[H])C([H])([H])C([H])([H])C([H])([H])C2([H])N([H])C(=O)C1([H])N(C(=O)C([H])(N([H])C(=O)C([H])(N([H])C([H])([H])[H])C([H])([H])[H])C(C([H])([H])[H])(C([H])([H])[H])C([H])([H])[H])C([H])([H])c2c([H])c(OC([H])([H])C([H])([H])c3c([H])c(C([H])([H])C([H])([H])[H])c([H])c(C([H])([H])C([H])([H])C([H])([H])N([H])C(=O)N4C([H])([H])C([H])([H])C([H])([H])C([H])(n5nc(-c6c([H])c([H])c(Oc7c([H])c([H])c(F)c([H])c7F)c([H])c6[H])c(C(=O)N([H])[H])c5N([H])[H])C4([H])[H])c3[H])c([H])c([H])c2C1([H])[H]

>  <smiles>  (26) 
[H]c1c([H])c([H])c2c(c1[H])C([H])([H])C([H])([H])C([H])([H])C2([H])N([H])C(=O)C1([H])N(C(=O)C([H])(N([H])C(=O)C([H])(N([H])C([H])([H])[H])C([H])([H])[H])C(C([H])([H])[H])(C([H])([H])[H])C([H])([H])[H])C([H])([H])c2c([H])c(OC([H])([H])C([H])([H])c3c([H])c(C([H])([H])C([H])([H])[H])c([H])c(C([H])([H])C([H])([H])C([H])([H])N([H])C(=O)N4C([H])([H])C([H])([H])C([H])([H])C([H])(n5nc(-c6c([H])c([H])c(Oc7c([H])c([H])c(F)c([H])c7F)c([H])c6[H])c(C(=O)N([H])[H])c5N([H])[H])C4([H])[H])c3[H])c([H])c([H])c2C1([H])[H]

$$$$
26:0:0
     RDKit          3D

 90 98  0  0  1  0  0  0  0  0999 V2000
  -28.4570  -21.3830   21.8930 C   0  0  0  0  0  3  0  0  0  0  0  0
  -28.9690  -20.6280   20.7990 C   0  0  0  0  0  0  0  0  0  0  0  0
  -29.2790  -21.6190   19.8850 C   0  0  0  0  0  0  0  0  0  0  0  0
  -29.8880  -21.4910   18.5270 C   0  0  0  0  0  1  0  0  0  0  0  0
  -28.4210  -22.6910   21.6710 N   0  0  0  0  0  0  0  0  0  0  0  0
  -28.9070  -22.8640   20.4220 N   0  0  0  0  0  0  0  0  0  0  0  0
  -29.0240  -19.0790   20.7600 C   0  0  0  0  0  2  0  0  0  0  0  0
  -30.3970  -18.3860   20.4850 C   0  0  0  0  0  2  0  0  0  0  0  0
  -30.7510  -17.0960   21.3210 C   0  0  0  0  0  2  0  0  0  0  0  0
  -30.8760  -14.7260   20.4070 C   0  0  0  0  0  0  0  0  0  0  0  0
  -30.6100  -12.5230   19.3030 C   0  0  0  0  0  2  0  0  0  0  0  0
  -29.6700  -12.6620   18.0880 C   0  0  0  0  0  2  0  0  0  0  0  0
  -28.1980  -12.5060   18.5170 C   0  0  0  0  0  2  0  0  0  0  0  0
  -27.8400  -13.3710   19.7560 C   0  0  0  0  0  3  0  0  0  0  0  0
  -28.8970  -13.2190   20.8720 C   0  0  0  0  0  2  0  0  0  0  0  0
  -30.2090  -13.5400   20.2910 N   0  0  0  0  0  0  0  0  0  0  0  0
  -32.0200  -14.8740   19.9710 O   0  0  0  0  0  0  0  0  0  0  0  0
  -30.1860  -15.7780   20.9160 N   0  0  0  0  0  0  0  0  0  0  0  0
  -29.2350  -15.5870   21.1990 H   0  0  0  0  0  0  0  0  0  0  0  0
  -25.4440  -13.9600   20.4760 C   0  0  0  0  0  0  0  0  0  0  0  0
  -24.3800  -13.1810   20.8430 C   0  0  0  0  0  0  0  0  0  0  0  0
  -24.8470  -11.8310   20.8070 C   0  0  0  0  0  0  0  0  0  0  0  0
  -26.4930  -13.0850   20.2400 N   0  0  0  0  0  0  0  0  0  0  0  0
  -26.1380  -11.7990   20.4970 N   0  0  0  0  0  0  0  0  0  0  0  0
  -24.1260  -10.5660   20.9920 C   0  0  0  0  0  0  0  0  0  0  0  0
  -24.5400   -9.6120   21.9480 C   0  0  0  0  0  3  0  0  0  0  0  0
  -23.8190   -8.4110   22.1210 C   0  0  0  0  0  3  0  0  0  0  0  0
  -22.6690   -8.1560   21.3380 C   0  0  0  0  0  0  0  0  0  0  0  0
  -22.2740   -9.0980   20.3710 C   0  0  0  0  0  3  0  0  0  0  0  0
  -22.9970  -10.2900   20.1970 C   0  0  0  0  0  3  0  0  0  0  0  0
  -21.9200   -7.0070   21.4180 O   0  0  0  0  0  0  0  0  0  0  0  0
  -21.8250   -6.2900   22.5840 C   0  0  0  0  0  0  0  0  0  0  0  0
  -21.2990   -6.8580   23.7650 C   0  0  0  0  0  3  0  0  0  0  0  0
  -21.1530   -6.0660   24.9220 C   0  0  0  0  0  3  0  0  0  0  0  0
  -21.5220   -4.7080   24.8980 C   0  0  0  0  0  0  0  0  0  0  0  0
  -22.0400   -4.1400   23.7200 C   0  0  0  0  0  3  0  0  0  0  0  0
  -22.1870   -4.9290   22.5660 C   0  0  0  0  0  0  0  0  0  0  0  0
  -22.6660   -4.3710   21.4290 F   0  0  0  0  0  0  0  0  0  0  0  0
  -21.3740   -3.9450   26.0060 F   0  0  0  0  0  0  0  0  0  0  0  0
  -22.9810  -13.6520   21.1170 C   0  0  0  0  0  0  0  0  0  0  0  0
  -22.2560  -12.9460   21.9790 N   0  0  0  0  0  0  0  0  0  0  0  0
  -22.5400  -14.6790   20.6050 O   0  0  0  0  0  0  0  0  0  0  0  0
  -22.6260  -12.1150   22.4150 H   0  0  0  0  0  0  0  0  0  0  0  0
  -21.3170  -13.2430   22.2050 H   0  0  0  0  0  0  0  0  0  0  0  0
  -25.6030  -15.3320   20.3030 N   0  0  0  0  0  0  0  0  0  0  0  0
  -24.8330  -15.9830   20.4130 H   0  0  0  0  0  0  0  0  0  0  0  0
  -26.4480  -15.7750   19.9660 H   0  0  0  0  0  0  0  0  0  0  0  0
  -28.9890  -24.2370   19.8370 C   0  0  0  0  0  3  0  0  0  0  0  0
  -28.3730  -25.4100   20.6850 C   0  0  0  0  0  3  0  0  0  0  0  0
  -28.5010  -26.7580   20.1330 O   0  0  0  0  0  0  0  0  0  0  0  0
  -24.6540  -31.9620   23.2260 C   0  0  0  0  0  0  0  0  0  0  0  0
  -27.3500  -27.5320   20.1320 C   0  0  0  0  0  0  0  0  0  0  0  0
  -23.4670  -30.5470   21.5820 C   0  0  0  0  0  3  0  0  0  0  0  0
  -24.9430  -29.0370   20.1440 C   0  0  0  0  0  0  0  0  0  0  0  0
  -25.9910  -30.9370   21.3840 C   0  0  0  0  0  2  0  0  0  0  0  0
  -26.0990  -29.5670   20.7340 C   0  0  0  0  0  0  0  0  0  0  0  0
  -27.3090  -28.8250   20.7190 C   0  0  0  0  0  3  0  0  0  0  0  0
  -26.1780  -27.0330   19.5240 C   0  0  0  0  0  3  0  0  0  0  0  0
  -24.9810  -27.7730   19.5320 C   0  0  0  0  0  3  0  0  0  0  0  0
  -23.6860  -29.8800   20.1970 C   0  0  0  0  0  2  0  0  0  0  0  0
  -24.7230  -31.1650   22.1210 N   0  0  0  0  0  0  0  0  0  0  0  0
  -23.5690  -32.2150   23.7700 O   0  0  0  0  0  0  0  0  0  0  0  0
  -22.8350  -29.5110   22.5400 C   0  0  0  0  0  0  0  0  0  0  0  0
  -21.5160  -29.2930   22.4040 N   0  0  0  0  0  0  0  0  0  0  0  0
  -23.5280  -28.9040   23.3620 O   0  0  0  0  0  0  0  0  0  0  0  0
  -21.0180  -29.8360   21.7130 H   0  0  0  0  0  0  0  0  0  0  0  0
  -18.1700  -28.0100   22.8800 C   0  0  0  0  0  0  0  0  0  0  0  0
  -20.7180  -28.3350   23.1690 C   0  0  0  0  0  3  0  0  0  0  0  0
  -20.8630  -26.9070   22.5950 C   0  0  0  0  0  2  0  0  0  0  0  0
  -19.7770  -26.5540   21.5730 C   0  0  0  0  0  2  0  0  0  0  0  0
  -18.3870  -26.6650   22.2060 C   0  0  0  0  0  2  0  0  0  0  0  0
  -19.2650  -28.8000   23.3170 C   0  0  0  0  0  0  0  0  0  0  0  0
  -19.0100  -30.0590   23.9040 C   0  0  0  0  0  3  0  0  0  0  0  0
  -17.6920  -30.5270   24.0580 C   0  0  0  0  0  3  0  0  0  0  0  0
  -16.6100  -29.7330   23.6380 C   0  0  0  0  0  3  0  0  0  0  0  0
  -16.8500  -28.4760   23.0550 C   0  0  0  0  0  3  0  0  0  0  0  0
  -25.9300  -32.6130   23.8460 C   0  0  0  0  0  3  0  0  0  0  0  0
  -25.6020  -34.0070   24.1720 N   0  0  0  0  0  0  0  0  0  0  0  0
  -25.9270  -35.0620   23.4140 C   0  0  0  0  0  0  0  0  0  0  0  0
  -26.6080  -34.9660   22.3890 O   0  0  0  0  0  0  0  0  0  0  0  0
  -25.0010  -34.1540   24.9710 H   0  0  0  0  0  0  0  0  0  0  0  0
  -24.1930  -36.8420   23.0250 C   0  0  0  0  0  1  0  0  0  0  0  0
  -25.4180  -36.4460   23.8640 C   0  0  0  0  0  3  0  0  0  0  0  0
  -27.5230  -37.3470   24.7520 C   0  0  0  0  0  1  0  0  0  0  0  0
  -26.4450  -37.5060   23.7790 N   0  0  0  0  0  0  0  0  0  0  0  0
  -26.0280  -38.4220   23.9180 H   0  0  0  0  0  0  0  0  0  0  0  0
  -26.4580  -31.8520   25.1220 C   0  0  1  0  0  0  0  0  0  0  0  0
  -25.3650  -31.5850   26.1840 C   0  0  0  0  0  1  0  0  0  0  0  0
  -27.0760  -30.4890   24.7270 C   0  0  0  0  0  1  0  0  0  0  0  0
  -27.5890  -32.6700   25.7900 C   0  0  0  0  0  1  0  0  0  0  0  0
  2  1  1  0
  3  6  1  0
  3  2  2  0
  4  3  1  0
  5  1  2  0
  6  5  1  0
  7  2  1  0
  8  7  1  0
  8  9  1  0
 10 18  1  0
 11 16  1  0
 12 13  1  0
 12 11  1  0
 14 13  1  0
 14 23  1  0
 14 15  1  0
 16 10  1  0
 16 15  1  0
 17 10  2  0
 18 19  1  0
 18  9  1  0
 20 21  2  0
 21 40  1  0
 22 21  1  0
 22 25  1  0
 23 20  1  0
 23 24  1  0
 24 22  2  0
 25 26  1  0
 26 27  2  0
 28 31  1  0
 28 27  1  0
 29 28  2  0
 30 29  1  0
 30 25  2  0
 31 32  1  0
 32 33  1  0
 33 34  2  0
 35 34  1  0
 35 39  1  0
 36 35  2  0
 37 32  2  0
 37 36  1  0
 38 37  1  0
 40 41  1  0
 41 44  1  0
 41 43  1  0
 42 40  2  0
 45 46  1  0
 45 20  1  0
 47 45  1  0
 48  6  1  0
 48 49  2  0
 50 49  1  0
 51 62  2  0
 52 50  1  0
 52 57  1  0
 53 61  1  0
 53 63  1  0
 54 60  1  0
 54 56  1  0
 55 61  1  0
 56 55  1  0
 57 56  2  0
 58 59  1  0
 58 52  2  0
 59 54  2  0
 60 53  1  0
 61 51  1  0
 63 65  2  0
 64 63  1  0
 66 64  1  0
 67 76  2  0
 67 72  1  0
 68 64  1  0
 68 72  1  0
 69 68  1  0
 70 71  1  0
 70 69  1  0
 71 67  1  0
 72 73  2  0
 73 74  1  0
 75 74  2  0
 76 75  1  0
 77 51  1  0
 77 78  1  0
 77 87  1  0
 78 81  1  0
 79 83  1  0
 79 78  1  0
 80 79  2  0
 83 82  1  0
 85 83  1  0
 85 86  1  0
 85 84  1  0
 87 90  1  1
 87 88  1  0
 89 87  1  0
M  ISO  4  10 100  18 100  49 101  50 101
M  END
>  <TORSDO>  (27) 
F 21

>  <SCORE>  (27) 
-13.184

>  <name>  (27) 
26

>  <ligand_id>  (27) 
26

>  <original_smiles>  (27) 
[H]c1nn(C([H])([H])C([H])([H])Oc2c([H])c([H])c3c(c2[H])C([H])([H])N(C(=O)C([H])(N([H])C(=O)C([H])(N([H])C([H])([H])[H])C([H])([H])[H])C(C([H])([H])[H])(C([H])([H])[H])C([H])([H])[H])C([H])(C(=O)N([H])C2([H])c4c([H])c([H])c([H])c([H])c4C([H])([H])C([H])([H])C2([H])[H])C3([H])[H])c(C([H])([H])[H])c1C([H])([H])C([H])([H])C([H])([H])N([H])C(=O)N1C([H])([H])C([H])([H])C([H])([H])C([H])(n2nc(-c3c([H])c([H])c(Oc4c([H])c([H])c(F)c([H])c4F)c([H])c3[H])c(C(=O)N([H])[H])c2N([H])[H])C1([H])[H]

>  <smiles>  (27) 
[H]c1nn(C([H])([H])C([H])([H])Oc2c([H])c([H])c3c(c2[H])C([H])([H])N(C(=O)C([H])(N([H])C(=O)C([H])(N([H])C([H])([H])[H])C([H])([H])[H])C(C([H])([H])[H])(C([H])([H])[H])C([H])([H])[H])C([H])(C(=O)N([H])C2([H])c4c([H])c([H])c([H])c([H])c4C([H])([H])C([H])([H])C2([H])[H])C3([H])[H])c(C([H])([H])[H])c1C([H])([H])C([H])([H])C([H])([H])N([H])C(=O)N1C([H])([H])C([H])([H])C([H])([H])C([H])(n2nc(-c3c([H])c([H])c(Oc4c([H])c([H])c(F)c([H])c4F)c([H])c3[H])c(C(=O)N([H])[H])c2N([H])[H])C1([H])[H]

$$$$
27:0:0
     RDKit          3D

 99107  0  0  1  0  0  0  0  0999 V2000
  -27.2580  -23.6670   22.5150 C   0  0  0  0  0  3  0  0  0  0  0  0
  -26.4520  -23.8560   21.3780 C   0  0  0  0  0  0  0  0  0  0  0  0
  -27.0690  -24.2730   20.1630 C   0  0  0  0  0  0  0  0  0  0  0  0
  -28.6410  -23.8500   22.4150 C   0  0  0  0  0  0  0  0  0  0  0  0
  -28.4890  -24.3820   20.1570 C   0  0  0  0  0  0  0  0  0  0  0  0
  -24.9690  -23.5680   21.5410 C   0  0  0  0  0  1  0  0  0  0  0  0
  -29.2430  -24.1900   21.2610 N   0  0  0  0  0  0  0  0  0  0  0  0
  -26.2610  -24.5920   18.8950 C   0  0  0  0  0  2  0  0  0  0  0  0
  -26.4020  -25.9540   18.4720 O   0  0  0  0  0  0  0  0  0  0  0  0
  -24.8440  -31.0410   23.2020 C   0  0  0  0  0  0  0  0  0  0  0  0
  -25.4810  -26.8930   18.8900 C   0  0  0  0  0  0  0  0  0  0  0  0
  -22.9980  -30.3680   21.7030 C   0  0  0  0  0  3  0  0  0  0  0  0
  -23.6540  -28.8770   19.7450 C   0  0  0  0  0  0  0  0  0  0  0  0
  -25.4350  -30.1400   20.9580 C   0  0  0  0  0  2  0  0  0  0  0  0
  -25.0020  -28.9620   20.1110 C   0  0  0  0  0  0  0  0  0  0  0  0
  -25.9170  -27.9710   19.6910 C   0  0  0  0  0  3  0  0  0  0  0  0
  -24.1250  -26.8530   18.4980 C   0  0  0  0  0  3  0  0  0  0  0  0
  -23.2070  -27.8210   18.9380 C   0  0  0  0  0  3  0  0  0  0  0  0
  -22.7360  -29.9760   20.2240 C   0  0  0  0  0  2  0  0  0  0  0  0
  -24.4570  -30.5150   22.0060 N   0  0  0  0  0  0  0  0  0  0  0  0
  -24.0090  -31.4390   24.0270 O   0  0  0  0  0  0  0  0  0  0  0  0
  -22.2830  -29.3450   22.6140 C   0  0  0  0  0  0  0  0  0  0  0  0
  -20.9400  -29.3420   22.5720 N   0  0  0  0  0  0  0  0  0  0  0  0
  -22.9300  -28.5620   23.3160 O   0  0  0  0  0  0  0  0  0  0  0  0
  -20.4840  -30.0220   21.9800 H   0  0  0  0  0  0  0  0  0  0  0  0
  -17.5020  -28.3090   22.9720 C   0  0  0  0  0  0  0  0  0  0  0  0
  -20.0600  -28.4450   23.3200 C   0  0  0  0  0  3  0  0  0  0  0  0
  -20.1120  -27.0100   22.7490 C   0  0  0  0  0  2  0  0  0  0  0  0
  -19.0260  -26.7380   21.7020 C   0  0  0  0  0  2  0  0  0  0  0  0
  -17.6340  -26.9510   22.3020 C   0  0  0  0  0  2  0  0  0  0  0  0
  -18.6420  -29.0160   23.4350 C   0  0  0  0  0  0  0  0  0  0  0  0
  -18.4660  -30.2900   24.0190 C   0  0  0  0  0  3  0  0  0  0  0  0
  -17.1820  -30.8530   24.1430 C   0  0  0  0  0  3  0  0  0  0  0  0
  -16.0570  -30.1420   23.6950 C   0  0  0  0  0  3  0  0  0  0  0  0
  -16.2180  -28.8710   23.1160 C   0  0  0  0  0  3  0  0  0  0  0  0
  -26.3510  -31.1930   23.5800 C   0  0  0  0  0  3  0  0  0  0  0  0
  -26.4890  -32.4410   24.3440 N   0  0  0  0  0  0  0  0  0  0  0  0
  -27.0150  -33.5740   23.8580 C   0  0  0  0  0  0  0  0  0  0  0  0
  -27.5070  -33.6530   22.7280 O   0  0  0  0  0  0  0  0  0  0  0  0
  -26.0590  -32.4620   25.2560 H   0  0  0  0  0  0  0  0  0  0  0  0
  -25.8600  -35.7560   24.3340 C   0  0  0  0  0  1  0  0  0  0  0  0
  -26.9920  -34.8130   24.7720 C   0  0  0  0  0  3  0  0  0  0  0  0
  -29.3540  -34.8150   25.4400 C   0  0  0  0  0  1  0  0  0  0  0  0
  -28.2730  -35.5530   24.7930 N   0  0  0  0  0  0  0  0  0  0  0  0
  -28.1660  -36.4440   25.2700 H   0  0  0  0  0  0  0  0  0  0  0  0
  -26.9120  -29.9700   24.4040 C   0  0  1  0  0  0  0  0  0  0  0  0
  -26.0500  -29.6020   25.6340 C   0  0  0  0  0  1  0  0  0  0  0  0
  -27.0230  -28.7140   23.5100 C   0  0  0  0  0  1  0  0  0  0  0  0
  -28.3430  -30.2860   24.9000 C   0  0  0  0  0  1  0  0  0  0  0  0
  -29.5420  -23.5320   23.5960 C   0  0  0  0  0  2  0  0  0  0  0  0
  -29.7790  -22.0190   23.7820 C   0  0  0  0  0  2  0  0  0  0  0  0
  -30.3010  -21.3050   22.5230 C   0  0  0  0  0  2  0  0  0  0  0  0
  -30.5440  -19.8060   22.7300 C   0  0  0  0  0  2  0  0  0  0  0  0
  -31.0260  -19.1470   21.4340 C   0  0  0  0  0  2  0  0  0  0  0  0
  -31.1970  -17.6300   21.5520 C   0  0  0  0  0  2  0  0  0  0  0  0
  -31.9570  -17.0660   20.3450 C   0  0  0  0  0  2  0  0  0  0  0  0
  -32.4530  -15.6330   20.5590 C   0  0  0  0  0  2  0  0  0  0  0  0
  -31.3740  -13.8520   19.1990 C   0  0  0  0  0  0  0  0  0  0  0  0
  -30.8570  -11.5120   18.6440 C   0  0  0  0  0  2  0  0  0  0  0  0
  -29.7740  -11.3260   17.5710 C   0  0  0  0  0  2  0  0  0  0  0  0
  -28.3750  -11.3310   18.2110 C   0  0  0  0  0  2  0  0  0  0  0  0
  -28.1570  -12.5560   19.1360 C   0  0  0  0  0  3  0  0  0  0  0  0
  -29.3300  -12.7250   20.1260 C   0  0  0  0  0  2  0  0  0  0  0  0
  -30.5980  -12.7580   19.3760 N   0  0  0  0  0  0  0  0  0  0  0  0
  -32.1570  -13.9970   18.2540 O   0  0  0  0  0  0  0  0  0  0  0  0
  -31.4190  -14.6430   20.2770 N   0  0  0  0  0  0  0  0  0  0  0  0
  -30.7900  -14.4040   21.0300 H   0  0  0  0  0  0  0  0  0  0  0  0
  -26.0310  -13.4860   20.2570 C   0  0  0  0  0  0  0  0  0  0  0  0
  -24.9280  -12.8680   20.7840 C   0  0  0  0  0  0  0  0  0  0  0  0
  -25.1590  -11.4650   20.6400 C   0  0  0  0  0  0  0  0  0  0  0  0
  -26.8730  -12.4690   19.8310 N   0  0  0  0  0  0  0  0  0  0  0  0
  -26.3570  -11.2460   20.1150 N   0  0  0  0  0  0  0  0  0  0  0  0
  -24.2810  -10.3210   20.9200 C   0  0  0  0  0  0  0  0  0  0  0  0
  -24.6730   -9.2900   21.8030 C   0  0  0  0  0  3  0  0  0  0  0  0
  -23.8070   -8.2070   22.0690 C   0  0  0  0  0  3  0  0  0  0  0  0
  -22.5320   -8.1500   21.4550 C   0  0  0  0  0  0  0  0  0  0  0  0
  -22.1570   -9.1680   20.5580 C   0  0  0  0  0  3  0  0  0  0  0  0
  -23.0240  -10.2420   20.2910 C   0  0  0  0  0  3  0  0  0  0  0  0
  -21.6350   -7.1270   21.6350 O   0  0  0  0  0  0  0  0  0  0  0  0
  -21.5650   -6.4300   22.8150 C   0  0  0  0  0  0  0  0  0  0  0  0
  -21.3260   -7.0750   24.0480 C   0  0  0  0  0  3  0  0  0  0  0  0
  -21.1920   -6.3140   25.2260 C   0  0  0  0  0  3  0  0  0  0  0  0
  -21.2860   -4.9110   25.1720 C   0  0  0  0  0  0  0  0  0  0  0  0
  -21.5170   -4.2660   23.9450 C   0  0  0  0  0  3  0  0  0  0  0  0
  -21.6530   -5.0240   22.7680 C   0  0  0  0  0  0  0  0  0  0  0  0
  -21.8550   -4.3970   21.5850 F   0  0  0  0  0  0  0  0  0  0  0  0
  -21.1490   -4.1780   26.3030 F   0  0  0  0  0  0  0  0  0  0  0  0
  -23.6900  -13.5380   21.3030 C   0  0  0  0  0  0  0  0  0  0  0  0
  -23.0330  -12.9340   22.2880 N   0  0  0  0  0  0  0  0  0  0  0  0
  -23.3230  -14.6300   20.8700 O   0  0  0  0  0  0  0  0  0  0  0  0
  -23.3440  -12.0490   22.6600 H   0  0  0  0  0  0  0  0  0  0  0  0
  -22.2060  -13.3650   22.6780 H   0  0  0  0  0  0  0  0  0  0  0  0
  -26.3770  -14.8230   20.0890 N   0  0  0  0  0  0  0  0  0  0  0  0
  -25.7550  -15.5790   20.3500 H   0  0  0  0  0  0  0  0  0  0  0  0
  -27.2310  -15.1450   19.6500 H   0  0  0  0  0  0  0  0  0  0  0  0
  -29.3100  -24.6480   18.8940 C   0  0  0  0  0  2  0  0  0  0  0  0
  -30.4340  -26.9030   19.3750 C   0  0  0  0  0  1  0  0  0  0  0  0
  -29.8320  -26.2650   17.0080 C   0  0  0  0  0  1  0  0  0  0  0  0
  -29.4390  -26.1350   18.4910 C   0  0  0  0  0  3  0  0  0  0  0  0
  2  6  1  0
  2  1  2  0
  3  2  1  0
  4  1  1  0
  4 50  1  0
  5  3  2  0
  5  7  1  0
  7  4  2  0
  8  3  1  0
  9 11  1  0
  9  8  1  0
 10 21  2  0
 11 16  1  0
 12 20  1  0
 12 22  1  0
 13 15  1  0
 13 19  1  0
 14 20  1  0
 15 14  1  0
 16 15  2  0
 17 11  2  0
 17 18  1  0
 18 13  2  0
 19 12  1  0
 20 10  1  0
 22 24  2  0
 23 22  1  0
 25 23  1  0
 26 35  2  0
 26 31  1  0
 27 23  1  0
 27 31  1  0
 28 27  1  0
 29 30  1  0
 29 28  1  0
 30 26  1  0
 31 32  2  0
 32 33  1  0
 34 33  2  0
 35 34  1  0
 36 10  1  0
 36 37  1  0
 36 46  1  0
 37 40  1  0
 38 37  1  0
 38 42  1  0
 39 38  2  0
 42 41  1  0
 42 44  1  0
 44 45  1  0
 44 43  1  0
 46 49  1  1
 46 47  1  0
 48 46  1  0
 50 51  1  0
 52 53  1  0
 52 51  1  0
 54 55  1  0
 54 53  1  0
 56 57  1  0
 56 55  1  0
 58 64  1  0
 58 66  1  0
 59 64  1  0
 60 61  1  0
 60 59  1  0
 62 61  1  0
 62 71  1  0
 62 63  1  0
 64 63  1  0
 65 58  2  0
 66 57  1  0
 66 67  1  0
 68 69  2  0
 69 88  1  0
 70 69  1  0
 70 73  1  0
 71 72  1  0
 71 68  1  0
 72 70  2  0
 73 74  1  0
 74 75  2  0
 76 79  1  0
 76 75  1  0
 77 76  2  0
 78 77  1  0
 78 73  2  0
 79 80  1  0
 80 81  1  0
 81 82  2  0
 83 82  1  0
 83 87  1  0
 84 83  2  0
 85 80  2  0
 85 84  1  0
 86 85  1  0
 88 89  1  0
 89 91  1  0
 89 92  1  0
 90 88  2  0
 93 68  1  0
 93 94  1  0
 95 93  1  0
 96  5  1  0
 98 99  1  0
 99 96  1  0
 99 97  1  0
M  ISO  4   8 101   9 101  58 100  66 100
M  END
>  <TORSDO>  (28) 
F 27

>  <SCORE>  (28) 
-8.241

>  <name>  (28) 
27

>  <ligand_id>  (28) 
27

>  <original_smiles>  (28) 
[H]c1c([H])c([H])c2c(c1[H])C([H])([H])C([H])([H])C([H])([H])C2([H])N([H])C(=O)C1([H])N(C(=O)C([H])(N([H])C(=O)C([H])(N([H])C([H])([H])[H])C([H])([H])[H])C(C([H])([H])[H])(C([H])([H])[H])C([H])([H])[H])C([H])([H])c2c([H])c(OC([H])([H])c3c(C([H])([H])C([H])(C([H])([H])[H])C([H])([H])[H])nc(C([H])([H])C([H])([H])C([H])([H])C([H])([H])C([H])([H])C([H])([H])C([H])([H])C([H])([H])N([H])C(=O)N4C([H])([H])C([H])([H])C([H])([H])C([H])(n5nc(-c6c([H])c([H])c(Oc7c([H])c([H])c(F)c([H])c7F)c([H])c6[H])c(C(=O)N([H])[H])c5N([H])[H])C4([H])[H])c([H])c3C([H])([H])[H])c([H])c([H])c2C1([H])[H]

>  <smiles>  (28) 
[H]c1c([H])c([H])c2c(c1[H])C([H])([H])C([H])([H])C([H])([H])C2([H])N([H])C(=O)C1([H])N(C(=O)C([H])(N([H])C(=O)C([H])(N([H])C([H])([H])[H])C([H])([H])[H])C(C([H])([H])[H])(C([H])([H])[H])C([H])([H])[H])C([H])([H])c2c([H])c(OC([H])([H])c3c(C([H])([H])C([H])(C([H])([H])[H])C([H])([H])[H])nc(C([H])([H])C([H])([H])C([H])([H])C([H])([H])C([H])([H])C([H])([H])C([H])([H])C([H])([H])N([H])C(=O)N4C([H])([H])C([H])([H])C([H])([H])C([H])(n5nc(-c6c([H])c([H])c(Oc7c([H])c([H])c(F)c([H])c7F)c([H])c6[H])c(C(=O)N([H])[H])c5N([H])[H])C4([H])[H])c([H])c3C([H])([H])[H])c([H])c([H])c2C1([H])[H]

$$$$
28:0:0
     RDKit          3D

 89 97  0  0  1  0  0  0  0  0999 V2000
  -30.7110  -20.2090   19.6360 C   0  0  0  0  0  3  0  0  0  0  0  0
  -29.8440  -19.0790   19.7750 C   0  0  0  0  0  0  0  0  0  0  0  0
  -28.4980  -19.5670   19.8480 C   0  0  0  0  0  0  0  0  0  0  0  0
  -29.0450  -21.9110   19.6050 C   0  0  0  0  0  0  0  0  0  0  0  0
  -27.3530  -18.6060   20.0720 C   0  0  0  0  0  1  0  0  0  0  0  0
  -30.3340  -21.5350   19.5510 N   0  0  0  0  0  0  0  0  0  0  0  0
  -28.1340  -20.9120   19.7430 N   0  0  0  0  0  0  0  0  0  0  0  0
  -30.5070  -17.5630   19.9040 C   0  0  0  0  0  2  0  0  0  0  0  0
  -30.6240  -14.8950   19.9340 C   0  0  0  0  0  0  0  0  0  0  0  0
  -30.3760  -12.5780   18.9940 C   0  0  0  0  0  2  0  0  0  0  0  0
  -29.3750  -12.5860   17.8160 C   0  0  0  0  0  2  0  0  0  0  0  0
  -27.9380  -12.3880   18.3340 C   0  0  0  0  0  2  0  0  0  0  0  0
  -27.6150  -13.3000   19.5490 C   0  0  0  0  0  3  0  0  0  0  0  0
  -28.7350  -13.2930   20.6100 C   0  0  0  0  0  2  0  0  0  0  0  0
  -29.9750  -13.6710   19.9190 N   0  0  0  0  0  0  0  0  0  0  0  0
  -31.8200  -14.9110   19.6240 O   0  0  0  0  0  0  0  0  0  0  0  0
  -29.9200  -16.1170   20.0620 N   0  0  0  0  0  0  0  0  0  0  0  0
  -28.9280  -16.0280   20.2150 H   0  0  0  0  0  0  0  0  0  0  0  0
  -25.2970  -13.8850   20.4640 C   0  0  0  0  0  0  0  0  0  0  0  0
  -24.2480  -13.1110   20.8730 C   0  0  0  0  0  0  0  0  0  0  0  0
  -24.6920  -11.7570   20.7680 C   0  0  0  0  0  0  0  0  0  0  0  0
  -26.3090  -13.0040   20.1270 N   0  0  0  0  0  0  0  0  0  0  0  0
  -25.9620  -11.7150   20.3790 N   0  0  0  0  0  0  0  0  0  0  0  0
  -23.9600  -10.4990   20.9610 C   0  0  0  0  0  0  0  0  0  0  0  0
  -24.3940   -9.5240   21.8860 C   0  0  0  0  0  3  0  0  0  0  0  0
  -23.6630   -8.3310   22.0660 C   0  0  0  0  0  3  0  0  0  0  0  0
  -22.4800   -8.1050   21.3230 C   0  0  0  0  0  0  0  0  0  0  0  0
  -22.0640   -9.0660   20.3840 C   0  0  0  0  0  3  0  0  0  0  0  0
  -22.7970  -10.2530   20.2020 C   0  0  0  0  0  3  0  0  0  0  0  0
  -21.7200   -6.9650   21.4150 O   0  0  0  0  0  0  0  0  0  0  0  0
  -21.6420   -6.2430   22.5770 C   0  0  0  0  0  0  0  0  0  0  0  0
  -21.1510   -6.8100   23.7730 C   0  0  0  0  0  3  0  0  0  0  0  0
  -21.0200   -6.0150   24.9290 C   0  0  0  0  0  3  0  0  0  0  0  0
  -21.3700   -4.6530   24.8900 C   0  0  0  0  0  0  0  0  0  0  0  0
  -21.8500   -4.0830   23.6980 C   0  0  0  0  0  3  0  0  0  0  0  0
  -21.9830   -4.8750   22.5450 C   0  0  0  0  0  0  0  0  0  0  0  0
  -22.4290   -4.3180   21.3930 F   0  0  0  0  0  0  0  0  0  0  0  0
  -21.2370   -3.8830   25.9970 F   0  0  0  0  0  0  0  0  0  0  0  0
  -22.8780  -13.5980   21.2410 C   0  0  0  0  0  0  0  0  0  0  0  0
  -22.1890  -12.8800   22.1210 N   0  0  0  0  0  0  0  0  0  0  0  0
  -22.4290  -14.6510   20.7880 O   0  0  0  0  0  0  0  0  0  0  0  0
  -22.5650  -12.0310   22.5150 H   0  0  0  0  0  0  0  0  0  0  0  0
  -21.2740  -13.1870   22.4090 H   0  0  0  0  0  0  0  0  0  0  0  0
  -25.4660  -15.2590   20.3150 N   0  0  0  0  0  0  0  0  0  0  0  0
  -24.7080  -15.9110   20.4820 H   0  0  0  0  0  0  0  0  0  0  0  0
  -26.2820  -15.6940   19.9060 H   0  0  0  0  0  0  0  0  0  0  0  0
  -28.6530  -23.4720   19.2210 C   0  0  0  0  0  2  0  0  0  0  0  0
  -28.2870  -24.7470   20.2310 C   0  0  0  0  0  2  0  0  0  0  0  0
  -28.3390  -26.2660   19.9280 O   0  0  0  0  0  0  0  0  0  0  0  0
  -24.6290  -31.7840   23.1350 C   0  0  0  0  0  0  0  0  0  0  0  0
  -27.2230  -27.1580   20.0000 C   0  0  0  0  0  0  0  0  0  0  0  0
  -23.4200  -30.3950   21.4920 C   0  0  0  0  0  3  0  0  0  0  0  0
  -24.8630  -28.8400   20.0390 C   0  0  0  0  0  0  0  0  0  0  0  0
  -25.9670  -30.6880   21.2950 C   0  0  0  0  0  2  0  0  0  0  0  0
  -26.0460  -29.3030   20.6300 C   0  0  0  0  0  0  0  0  0  0  0  0
  -27.2270  -28.4790   20.5910 C   0  0  0  0  0  3  0  0  0  0  0  0
  -26.0090  -26.7670   19.4010 C   0  0  0  0  0  3  0  0  0  0  0  0
  -24.8530  -27.5810   19.4160 C   0  0  0  0  0  3  0  0  0  0  0  0
  -23.6300  -29.7290   20.1070 C   0  0  0  0  0  2  0  0  0  0  0  0
  -24.6940  -30.9760   22.0300 N   0  0  0  0  0  0  0  0  0  0  0  0
  -23.5470  -32.0510   23.6780 O   0  0  0  0  0  0  0  0  0  0  0  0
  -22.7620  -29.3720   22.4500 C   0  0  0  0  0  0  0  0  0  0  0  0
  -21.4320  -29.2050   22.3430 N   0  0  0  0  0  0  0  0  0  0  0  0
  -23.4490  -28.7310   23.2490 O   0  0  0  0  0  0  0  0  0  0  0  0
  -20.9360  -29.7690   21.6670 H   0  0  0  0  0  0  0  0  0  0  0  0
  -18.0570  -28.0240   22.9050 C   0  0  0  0  0  0  0  0  0  0  0  0
  -20.6240  -28.2560   23.1110 C   0  0  0  0  0  3  0  0  0  0  0  0
  -20.6980  -26.8400   22.4960 C   0  0  0  0  0  2  0  0  0  0  0  0
  -19.5660  -26.5530   21.5050 C   0  0  0  0  0  2  0  0  0  0  0  0
  -18.2040  -26.6920   22.1880 C   0  0  0  0  0  2  0  0  0  0  0  0
  -19.1940  -28.7660   23.3230 C   0  0  0  0  0  0  0  0  0  0  0  0
  -19.0000  -30.0140   23.9560 C   0  0  0  0  0  3  0  0  0  0  0  0
  -17.7040  -30.5180   24.1740 C   0  0  0  0  0  3  0  0  0  0  0  0
  -16.5820  -29.7740   23.7690 C   0  0  0  0  0  3  0  0  0  0  0  0
  -16.7600  -28.5280   23.1410 C   0  0  0  0  0  3  0  0  0  0  0  0
  -25.9120  -32.4170   23.7550 C   0  0  0  0  0  3  0  0  0  0  0  0
  -26.4370  -31.6380   25.0240 C   0  0  1  0  0  0  0  0  0  0  0  0
  -25.3490  -31.3860   26.0940 C   0  0  0  0  0  1  0  0  0  0  0  0
  -27.0250  -30.2650   24.6210 C   0  0  0  0  0  1  0  0  0  0  0  0
  -27.5840  -32.4340   25.6910 C   0  0  0  0  0  1  0  0  0  0  0  0
  -25.5920  -33.8090   24.1040 N   0  0  0  0  0  0  0  0  0  0  0  0
  -25.9060  -34.8760   23.3590 C   0  0  0  0  0  0  0  0  0  0  0  0
  -26.5630  -34.7950   22.3170 O   0  0  0  0  0  0  0  0  0  0  0  0
  -25.0100  -33.9480   24.9170 H   0  0  0  0  0  0  0  0  0  0  0  0
  -24.1610  -36.6660   23.0520 C   0  0  0  0  0  1  0  0  0  0  0  0
  -25.4150  -36.2560   23.8420 C   0  0  0  0  0  3  0  0  0  0  0  0
  -27.5470  -37.1530   24.6690 C   0  0  0  0  0  1  0  0  0  0  0  0
  -26.4380  -37.3190   23.7320 N   0  0  0  0  0  0  0  0  0  0  0  0
  -26.0250  -38.2350   23.8890 H   0  0  0  0  0  0  0  0  0  0  0  0
  1  2  2  0
  2  3  1  0
  2  8  1  0
  3  5  1  0
  4  7  1  0
  6  4  2  0
  6  1  1  0
  7  3  2  0
  8 17  1  0
  9 17  1  0
 10 15  1  0
 11 12  1  0
 11 10  1  0
 13 12  1  0
 13 22  1  0
 13 14  1  0
 15  9  1  0
 15 14  1  0
 16  9  2  0
 17 18  1  0
 19 20  2  0
 20 39  1  0
 21 20  1  0
 21 24  1  0
 22 23  1  0
 22 19  1  0
 23 21  2  0
 24 25  1  0
 25 26  2  0
 27 30  1  0
 27 26  1  0
 28 27  2  0
 29 28  1  0
 29 24  2  0
 30 31  1  0
 31 32  1  0
 32 33  2  0
 34 33  1  0
 34 38  1  0
 35 34  2  0
 36 31  2  0
 36 35  1  0
 37 36  1  0
 39 40  1  0
 40 43  1  0
 40 42  1  0
 41 39  2  0
 44 19  1  0
 44 45  1  0
 46 44  1  0
 47  4  1  0
 47 48  1  0
 49 51  1  0
 49 48  1  0
 50 61  2  0
 51 56  1  0
 52 60  1  0
 52 62  1  0
 53 59  1  0
 53 55  1  0
 54 60  1  0
 55 54  1  0
 56 55  2  0
 57 58  1  0
 57 51  2  0
 58 53  2  0
 59 52  1  0
 60 50  1  0
 62 64  2  0
 63 62  1  0
 65 63  1  0
 66 75  2  0
 66 71  1  0
 67 63  1  0
 67 71  1  0
 68 67  1  0
 69 70  1  0
 69 68  1  0
 70 66  1  0
 71 72  2  0
 72 73  1  0
 74 73  2  0
 75 74  1  0
 76 50  1  0
 76 81  1  0
 76 77  1  0
 77 80  1  1
 77 78  1  0
 79 77  1  0
 81 84  1  0
 82 86  1  0
 82 81  1  0
 83 82  2  0
 86 85  1  0
 88 86  1  0
 88 89  1  0
 88 87  1  0
M  ISO  4   9 100  17 100  48 101  49 101
M  END
>  <TORSDO>  (29) 
F 19

>  <SCORE>  (29) 
-13.966

>  <name>  (29) 
28

>  <ligand_id>  (29) 
28

>  <original_smiles>  (29) 
[H]c1nc(C([H])([H])C([H])([H])Oc2c([H])c([H])c3c(c2[H])C([H])([H])N(C(=O)C([H])(N([H])C(=O)C([H])(N([H])C([H])([H])[H])C([H])([H])[H])C(C([H])([H])[H])(C([H])([H])[H])C([H])([H])[H])C([H])(C(=O)N([H])C2([H])c4c([H])c([H])c([H])c([H])c4C([H])([H])C([H])([H])C2([H])[H])C3([H])[H])nc(C([H])([H])[H])c1C([H])([H])N([H])C(=O)N1C([H])([H])C([H])([H])C([H])([H])C([H])(n2nc(-c3c([H])c([H])c(Oc4c([H])c([H])c(F)c([H])c4F)c([H])c3[H])c(C(=O)N([H])[H])c2N([H])[H])C1([H])[H]

>  <smiles>  (29) 
[H]c1nc(C([H])([H])C([H])([H])Oc2c([H])c([H])c3c(c2[H])C([H])([H])N(C(=O)C([H])(N([H])C(=O)C([H])(N([H])C([H])([H])[H])C([H])([H])[H])C(C([H])([H])[H])(C([H])([H])[H])C([H])([H])[H])C([H])(C(=O)N([H])C2([H])c4c([H])c([H])c([H])c([H])c4C([H])([H])C([H])([H])C2([H])[H])C3([H])[H])nc(C([H])([H])[H])c1C([H])([H])N([H])C(=O)N1C([H])([H])C([H])([H])C([H])([H])C([H])(n2nc(-c3c([H])c([H])c(Oc4c([H])c([H])c(F)c([H])c4F)c([H])c3[H])c(C(=O)N([H])[H])c2N([H])[H])C1([H])[H]

$$$$
30:0:0
     RDKit          3D

 96104  0  0  1  0  0  0  0  0999 V2000
  -30.2710  -24.1570   20.7060 C   0  0  0  0  0  3  0  0  0  0  0  0
  -30.7740  -23.1020   18.2230 C   0  0  0  0  0  3  0  0  0  0  0  0
  -29.4180  -24.5390   19.6470 C   0  0  0  0  0  0  0  0  0  0  0  0
  -29.6370  -23.9080   18.3890 C   0  0  0  0  0  0  0  0  0  0  0  0
  -31.3200  -23.2440   20.4580 C   0  0  0  0  0  0  0  0  0  0  0  0
  -31.6100  -22.7900   19.2240 N   0  0  0  0  0  0  0  0  0  0  0  0
  -28.6210  -23.9260   17.2520 C   0  0  0  0  0  2  0  0  0  0  0  0
  -28.6320  -25.1860   16.3810 C   0  0  0  0  0  2  0  0  0  0  0  0
  -26.4880  -26.4860   15.7680 C   0  0  0  0  0  1  0  0  0  0  0  0
  -27.3590  -25.2530   15.5150 C   0  0  0  0  0  2  0  0  0  0  0  0
  -32.1580  -22.6310   21.5750 C   0  0  0  0  0  2  0  0  0  0  0  0
  -31.5280  -21.3370   22.1590 C   0  0  0  0  0  2  0  0  0  0  0  0
  -31.7670  -20.0340   21.3510 C   0  0  0  0  0  2  0  0  0  0  0  0
  -31.1070  -18.7860   21.9820 C   0  0  0  0  0  2  0  0  0  0  0  0
  -31.0690  -17.5410   21.0680 C   0  0  0  0  0  2  0  0  0  0  0  0
  -30.8120  -16.2530   21.8840 C   0  0  0  0  0  2  0  0  0  0  0  0
  -30.7630  -14.3290   20.2340 C   0  0  0  0  0  0  0  0  0  0  0  0
  -30.4130  -12.2490   18.9460 C   0  0  0  0  0  2  0  0  0  0  0  0
  -29.3990  -12.4580   17.8010 C   0  0  0  0  0  2  0  0  0  0  0  0
  -27.9540  -12.2860   18.3060 C   0  0  0  0  0  2  0  0  0  0  0  0
  -27.6700  -13.1190   19.5850 C   0  0  0  0  0  3  0  0  0  0  0  0
  -28.7610  -12.8480   20.6410 C   0  0  0  0  0  2  0  0  0  0  0  0
  -30.0650  -13.1850   20.0270 N   0  0  0  0  0  0  0  0  0  0  0  0
  -31.8180  -14.6030   19.6490 O   0  0  0  0  0  0  0  0  0  0  0  0
  -30.2100  -15.1470   21.1430 N   0  0  0  0  0  0  0  0  0  0  0  0
  -29.2940  -14.8600   21.4650 H   0  0  0  0  0  0  0  0  0  0  0  0
  -25.3040  -13.7440   20.3820 C   0  0  0  0  0  0  0  0  0  0  0  0
  -24.2460  -12.9750   20.7880 C   0  0  0  0  0  0  0  0  0  0  0  0
  -24.7010  -11.6210   20.7430 C   0  0  0  0  0  0  0  0  0  0  0  0
  -26.3330  -12.8560   20.1100 N   0  0  0  0  0  0  0  0  0  0  0  0
  -25.9770  -11.5740   20.3830 N   0  0  0  0  0  0  0  0  0  0  0  0
  -23.9800  -10.3630   20.9640 C   0  0  0  0  0  0  0  0  0  0  0  0
  -24.4220   -9.4150   21.9150 C   0  0  0  0  0  3  0  0  0  0  0  0
  -23.7030   -8.2160   22.1140 C   0  0  0  0  0  3  0  0  0  0  0  0
  -22.5310   -7.9590   21.3650 C   0  0  0  0  0  0  0  0  0  0  0  0
  -22.1090   -8.8960   20.4040 C   0  0  0  0  0  3  0  0  0  0  0  0
  -22.8260  -10.0860   20.2020 C   0  0  0  0  0  3  0  0  0  0  0  0
  -21.7850   -6.8090   21.4750 O   0  0  0  0  0  0  0  0  0  0  0  0
  -21.7240   -6.1020   22.6500 C   0  0  0  0  0  0  0  0  0  0  0  0
  -21.2640   -6.6890   23.8490 C   0  0  0  0  0  3  0  0  0  0  0  0
  -21.1460   -5.9080   25.0170 C   0  0  0  0  0  3  0  0  0  0  0  0
  -21.4810   -4.5410   24.9850 C   0  0  0  0  0  0  0  0  0  0  0  0
  -21.9350   -3.9540   23.7930 C   0  0  0  0  0  3  0  0  0  0  0  0
  -22.0520   -4.7330   22.6260 C   0  0  0  0  0  0  0  0  0  0  0  0
  -22.4690   -4.1570   21.4730 F   0  0  0  0  0  0  0  0  0  0  0  0
  -21.3640   -3.7860   26.1040 F   0  0  0  0  0  0  0  0  0  0  0  0
  -22.8630  -13.4610   21.1230 C   0  0  0  0  0  0  0  0  0  0  0  0
  -22.1650  -12.7680   22.0150 N   0  0  0  0  0  0  0  0  0  0  0  0
  -22.4090  -14.4900   20.6250 O   0  0  0  0  0  0  0  0  0  0  0  0
  -22.5380  -11.9330   22.4400 H   0  0  0  0  0  0  0  0  0  0  0  0
  -21.2450  -13.0860   22.2820 H   0  0  0  0  0  0  0  0  0  0  0  0
  -25.4750  -15.1150   20.2000 N   0  0  0  0  0  0  0  0  0  0  0  0
  -24.7330  -15.7900   20.3640 H   0  0  0  0  0  0  0  0  0  0  0  0
  -26.3190  -15.5350   19.8300 H   0  0  0  0  0  0  0  0  0  0  0  0
  -28.1970  -25.4430   19.8840 C   0  0  0  0  0  2  0  0  0  0  0  0
  -28.3790  -26.8050   20.3520 O   0  0  0  0  0  0  0  0  0  0  0  0
  -24.5230  -32.0200   23.4390 C   0  0  0  0  0  0  0  0  0  0  0  0
  -27.2210  -27.5890   20.3330 C   0  0  0  0  0  0  0  0  0  0  0  0
  -23.3510  -30.6490   21.7510 C   0  0  0  0  0  3  0  0  0  0  0  0
  -24.8340  -29.1500   20.3200 C   0  0  0  0  0  0  0  0  0  0  0  0
  -25.8890  -30.9880   21.6250 C   0  0  0  0  0  2  0  0  0  0  0  0
  -25.9810  -29.6310   20.9600 C   0  0  0  0  0  0  0  0  0  0  0  0
  -27.1730  -28.8560   20.9770 C   0  0  0  0  0  3  0  0  0  0  0  0
  -26.0350  -27.1500   19.6830 C   0  0  0  0  0  3  0  0  0  0  0  0
  -24.8600  -27.9090   19.6740 C   0  0  0  0  0  3  0  0  0  0  0  0
  -23.5930  -30.0160   20.3580 C   0  0  0  0  0  2  0  0  0  0  0  0
  -24.6030  -31.2370   22.3270 N   0  0  0  0  0  0  0  0  0  0  0  0
  -23.4340  -32.2770   23.9700 O   0  0  0  0  0  0  0  0  0  0  0  0
  -22.6910  -29.5990   22.6770 C   0  0  0  0  0  0  0  0  0  0  0  0
  -21.3840  -29.3530   22.4820 N   0  0  0  0  0  0  0  0  0  0  0  0
  -23.3520  -29.0080   23.5350 O   0  0  0  0  0  0  0  0  0  0  0  0
  -20.9010  -29.8910   21.7760 H   0  0  0  0  0  0  0  0  0  0  0  0
  -18.0650  -27.9490   22.7670 C   0  0  0  0  0  0  0  0  0  0  0  0
  -20.5730  -28.3820   23.2190 C   0  0  0  0  0  3  0  0  0  0  0  0
  -20.8060  -26.9430   22.7040 C   0  0  0  0  0  2  0  0  0  0  0  0
  -19.8120  -26.5190   21.6200 C   0  0  0  0  0  2  0  0  0  0  0  0
  -18.3770  -26.5940   22.1530 C   0  0  0  0  0  2  0  0  0  0  0  0
  -19.0970  -28.7930   23.2560 C   0  0  0  0  0  0  0  0  0  0  0  0
  -18.7570  -30.0540   23.7880 C   0  0  0  0  0  3  0  0  0  0  0  0
  -17.4150  -30.4760   23.8410 C   0  0  0  0  0  3  0  0  0  0  0  0
  -16.3960  -29.6300   23.3680 C   0  0  0  0  0  3  0  0  0  0  0  0
  -16.7200  -28.3720   22.8360 C   0  0  0  0  0  3  0  0  0  0  0  0
  -25.7960  -32.6490   24.0860 C   0  0  0  0  0  3  0  0  0  0  0  0
  -26.2680  -31.8940   25.3920 C   0  0  1  0  0  0  0  0  0  0  0  0
  -25.1410  -31.6660   26.4250 C   0  0  0  0  0  1  0  0  0  0  0  0
  -26.8690  -30.5120   25.0420 C   0  0  0  0  0  1  0  0  0  0  0  0
  -27.3920  -32.6990   26.0820 C   0  0  0  0  0  1  0  0  0  0  0  0
  -25.4890  -34.0550   24.3810 N   0  0  0  0  0  0  0  0  0  0  0  0
  -25.8290  -35.0880   23.5980 C   0  0  0  0  0  0  0  0  0  0  0  0
  -26.5070  -34.9610   22.5750 O   0  0  0  0  0  0  0  0  0  0  0  0
  -24.8960  -34.2290   25.1770 H   0  0  0  0  0  0  0  0  0  0  0  0
  -24.1040  -36.8740   23.1820 C   0  0  0  0  0  1  0  0  0  0  0  0
  -25.3370  -36.4890   24.0150 C   0  0  0  0  0  3  0  0  0  0  0  0
  -27.4630  -37.4000   24.8390 C   0  0  0  0  0  1  0  0  0  0  0  0
  -26.3700  -37.5380   23.8810 N   0  0  0  0  0  0  0  0  0  0  0  0
  -25.9640  -38.4650   23.9940 H   0  0  0  0  0  0  0  0  0  0  0  0
  2  4  2  0
  2  6  1  0
  3 55  1  0
  3  1  2  0
  4  3  1  0
  5  1  1  0
  5 11  1  0
  6  5  2  0
  7  4  1  0
  8  7  1  0
 10  9  1  0
 10  8  1  0
 11 12  1  0
 13 14  1  0
 13 12  1  0
 15 16  1  0
 15 14  1  0
 17 25  1  0
 18 23  1  0
 19 20  1  0
 19 18  1  0
 21 20  1  0
 21 30  1  0
 21 22  1  0
 23 17  1  0
 23 22  1  0
 24 17  2  0
 25 26  1  0
 25 16  1  0
 27 28  2  0
 28 47  1  0
 29 28  1  0
 29 32  1  0
 30 27  1  0
 30 31  1  0
 31 29  2  0
 32 33  1  0
 33 34  2  0
 35 38  1  0
 35 34  1  0
 36 35  2  0
 37 36  1  0
 37 32  2  0
 38 39  1  0
 39 40  1  0
 40 41  2  0
 42 41  1  0
 42 46  1  0
 43 42  2  0
 44 39  2  0
 44 43  1  0
 45 44  1  0
 47 48  1  0
 48 51  1  0
 48 50  1  0
 49 47  2  0
 52 53  1  0
 52 27  1  0
 54 52  1  0
 55 56  1  0
 57 68  2  0
 58 56  1  0
 58 63  1  0
 59 67  1  0
 59 69  1  0
 60 66  1  0
 60 62  1  0
 61 67  1  0
 62 63  2  0
 62 61  1  0
 64 58  2  0
 65 64  1  0
 65 60  2  0
 66 59  1  0
 67 57  1  0
 69 71  2  0
 70 69  1  0
 72 70  1  0
 73 82  2  0
 73 78  1  0
 74 70  1  0
 74 78  1  0
 75 74  1  0
 76 77  1  0
 76 75  1  0
 77 73  1  0
 78 79  2  0
 79 80  1  0
 81 80  2  0
 82 81  1  0
 83 57  1  0
 83 88  1  0
 83 84  1  0
 84 87  1  1
 84 85  1  0
 86 84  1  0
 88 91  1  0
 89 93  1  0
 89 88  1  0
 90 89  2  0
 93 92  1  0
 95 96  1  0
 95 93  1  0
 95 94  1  0
M  ISO  4  17 100  25 100  55 101  56 101
M  END
>  <TORSDO>  (30) 
F 26

>  <SCORE>  (30) 
-11.110

>  <name>  (30) 
30

>  <ligand_id>  (30) 
30

>  <original_smiles>  (30) 
[H]c1nc(C([H])([H])C([H])([H])C([H])([H])C([H])([H])C([H])([H])C([H])([H])N([H])C(=O)N2C([H])([H])C([H])([H])C([H])([H])C([H])(n3nc(-c4c([H])c([H])c(Oc5c([H])c([H])c(F)c([H])c5F)c([H])c4[H])c(C(=O)N([H])[H])c3N([H])[H])C2([H])[H])c([H])c(C([H])([H])Oc2c([H])c([H])c3c(c2[H])C([H])([H])N(C(=O)C([H])(N([H])C(=O)C([H])(N([H])C([H])([H])[H])C([H])([H])[H])C(C([H])([H])[H])(C([H])([H])[H])C([H])([H])[H])C([H])(C(=O)N([H])C2([H])c4c([H])c([H])c([H])c([H])c4C([H])([H])C([H])([H])C2([H])[H])C3([H])[H])c1C([H])([H])C([H])([H])C([H])([H])C([H])([H])[H]

>  <smiles>  (30) 
[H]c1nc(C([H])([H])C([H])([H])C([H])([H])C([H])([H])C([H])([H])C([H])([H])N([H])C(=O)N2C([H])([H])C([H])([H])C([H])([H])C([H])(n3nc(-c4c([H])c([H])c(Oc5c([H])c([H])c(F)c([H])c5F)c([H])c4[H])c(C(=O)N([H])[H])c3N([H])[H])C2([H])[H])c([H])c(C([H])([H])Oc2c([H])c([H])c3c(c2[H])C([H])([H])N(C(=O)C([H])(N([H])C(=O)C([H])(N([H])C([H])([H])[H])C([H])([H])[H])C(C([H])([H])[H])(C([H])([H])[H])C([H])([H])[H])C([H])(C(=O)N([H])C2([H])c4c([H])c([H])c([H])c([H])c4C([H])([H])C([H])([H])C2([H])[H])C3([H])[H])c1C([H])([H])C([H])([H])C([H])([H])C([H])([H])[H]

$$$$
31:0:0
     RDKit          3D

 90 98  0  0  1  0  0  0  0  0999 V2000
  -27.9260  -21.9290   19.5990 C   0  0  0  0  0  3  0  0  0  0  0  0
  -28.4340  -22.8010   20.6090 C   0  0  0  0  0  0  0  0  0  0  0  0
  -29.2940  -21.9780   21.3040 C   0  0  0  0  0  0  0  0  0  0  0  0
  -30.1620  -22.2900   22.4810 C   0  0  0  0  0  1  0  0  0  0  0  0
  -28.4180  -20.6940   19.6720 N   0  0  0  0  0  0  0  0  0  0  0  0
  -29.2490  -20.7000   20.7390 N   0  0  0  0  0  0  0  0  0  0  0  0
  -28.0630  -24.2710   20.8700 C   0  0  0  0  0  2  0  0  0  0  0  0
  -28.5000  -25.2920   19.7790 C   0  0  0  0  0  2  0  0  0  0  0  0
  -28.4230  -26.6810   20.1880 O   0  0  0  0  0  0  0  0  0  0  0  0
  -24.5970  -31.8750   23.2350 C   0  0  0  0  0  0  0  0  0  0  0  0
  -27.2330  -27.3930   20.1630 C   0  0  0  0  0  0  0  0  0  0  0  0
  -23.3890  -30.4720   21.5960 C   0  0  0  0  0  3  0  0  0  0  0  0
  -24.8390  -28.9250   20.1730 C   0  0  0  0  0  0  0  0  0  0  0  0
  -25.9180  -30.8200   21.3970 C   0  0  0  0  0  2  0  0  0  0  0  0
  -25.9990  -29.4450   20.7570 C   0  0  0  0  0  0  0  0  0  0  0  0
  -27.1960  -28.6870   20.7460 C   0  0  0  0  0  3  0  0  0  0  0  0
  -26.0470  -26.8930   19.5790 C   0  0  0  0  0  3  0  0  0  0  0  0
  -24.8590  -27.6510   19.5810 C   0  0  0  0  0  3  0  0  0  0  0  0
  -23.5970  -29.7880   20.2170 C   0  0  0  0  0  2  0  0  0  0  0  0
  -24.6530  -31.0720   22.1340 N   0  0  0  0  0  0  0  0  0  0  0  0
  -23.5150  -32.1490   23.7740 O   0  0  0  0  0  0  0  0  0  0  0  0
  -22.7360  -29.4540   22.5580 C   0  0  0  0  0  0  0  0  0  0  0  0
  -21.4110  -29.2770   22.4360 N   0  0  0  0  0  0  0  0  0  0  0  0
  -23.4190  -28.8250   23.3710 O   0  0  0  0  0  0  0  0  0  0  0  0
  -20.9200  -29.8360   21.7510 H   0  0  0  0  0  0  0  0  0  0  0  0
  -18.0320  -28.0970   22.9450 C   0  0  0  0  0  0  0  0  0  0  0  0
  -20.5930  -28.3410   23.2070 C   0  0  0  0  0  3  0  0  0  0  0  0
  -20.6850  -26.9110   22.6260 C   0  0  0  0  0  2  0  0  0  0  0  0
  -19.5780  -26.5960   21.6160 C   0  0  0  0  0  2  0  0  0  0  0  0
  -18.2000  -26.7480   22.2670 C   0  0  0  0  0  2  0  0  0  0  0  0
  -19.1570  -28.8520   23.3730 C   0  0  0  0  0  0  0  0  0  0  0  0
  -18.9470  -30.1160   23.9670 C   0  0  0  0  0  3  0  0  0  0  0  0
  -17.6460  -30.6240   24.1380 C   0  0  0  0  0  3  0  0  0  0  0  0
  -16.5360  -29.8660   23.7280 C   0  0  0  0  0  3  0  0  0  0  0  0
  -16.7300  -28.6040   23.1370 C   0  0  0  0  0  3  0  0  0  0  0  0
  -25.8830  -32.5070   23.8540 C   0  0  0  0  0  3  0  0  0  0  0  0
  -25.5750  -33.9040   24.1840 N   0  0  0  0  0  0  0  0  0  0  0  0
  -25.9090  -34.9570   23.4250 C   0  0  0  0  0  0  0  0  0  0  0  0
  -26.5800  -34.8530   22.3940 O   0  0  0  0  0  0  0  0  0  0  0  0
  -24.9790  -34.0600   24.9840 H   0  0  0  0  0  0  0  0  0  0  0  0
  -24.1830  -36.7500   23.0670 C   0  0  0  0  0  1  0  0  0  0  0  0
  -25.4220  -36.3450   23.8800 C   0  0  0  0  0  3  0  0  0  0  0  0
  -27.5560  -37.2280   24.7140 C   0  0  0  0  0  1  0  0  0  0  0  0
  -26.4550  -37.3980   23.7700 N   0  0  0  0  0  0  0  0  0  0  0  0
  -26.0500  -38.3180   23.9170 H   0  0  0  0  0  0  0  0  0  0  0  0
  -26.4040  -31.7350   25.1280 C   0  0  1  0  0  0  0  0  0  0  0  0
  -25.3140  -31.4980   26.2000 C   0  0  0  0  0  1  0  0  0  0  0  0
  -26.9840  -30.3580   24.7340 C   0  0  0  0  0  1  0  0  0  0  0  0
  -27.5560  -32.5280   25.7880 C   0  0  0  0  0  1  0  0  0  0  0  0
  -30.0460  -19.5030   21.0980 C   0  0  0  0  0  2  0  0  0  0  0  0
  -29.4760  -18.0880   20.7430 C   0  0  0  0  0  2  0  0  0  0  0  0
  -30.4440  -16.9320   21.1660 C   0  0  0  0  0  2  0  0  0  0  0  0
  -30.6610  -14.5090   20.4490 C   0  0  0  0  0  0  0  0  0  0  0  0
  -30.3810  -12.3310   19.3110 C   0  0  0  0  0  2  0  0  0  0  0  0
  -29.4390  -12.5110   18.1030 C   0  0  0  0  0  2  0  0  0  0  0  0
  -27.9640  -12.3740   18.5330 C   0  0  0  0  0  2  0  0  0  0  0  0
  -27.6230  -13.2210   19.7890 C   0  0  0  0  0  3  0  0  0  0  0  0
  -28.6770  -13.0160   20.8990 C   0  0  0  0  0  2  0  0  0  0  0  0
  -29.9950  -13.3270   20.3260 N   0  0  0  0  0  0  0  0  0  0  0  0
  -31.8040  -14.6690   20.0100 O   0  0  0  0  0  0  0  0  0  0  0  0
  -29.9510  -15.5500   20.9470 N   0  0  0  0  0  0  0  0  0  0  0  0
  -29.0100  -15.3440   21.2490 H   0  0  0  0  0  0  0  0  0  0  0  0
  -25.2270  -13.8350   20.4920 C   0  0  0  0  0  0  0  0  0  0  0  0
  -24.1570  -13.0670   20.8640 C   0  0  0  0  0  0  0  0  0  0  0  0
  -24.6170  -11.7140   20.8430 C   0  0  0  0  0  0  0  0  0  0  0  0
  -26.2700  -12.9510   20.2680 N   0  0  0  0  0  0  0  0  0  0  0  0
  -25.9070  -11.6700   20.5380 N   0  0  0  0  0  0  0  0  0  0  0  0
  -23.8880  -10.4540   21.0410 C   0  0  0  0  0  0  0  0  0  0  0  0
  -24.3260   -9.4860   21.9700 C   0  0  0  0  0  3  0  0  0  0  0  0
  -23.5970   -8.2900   22.1550 C   0  0  0  0  0  3  0  0  0  0  0  0
  -22.4190   -8.0550   21.4090 C   0  0  0  0  0  0  0  0  0  0  0  0
  -22.0000   -9.0130   20.4680 C   0  0  0  0  0  3  0  0  0  0  0  0
  -22.7290  -10.1990   20.2820 C   0  0  0  0  0  3  0  0  0  0  0  0
  -21.6610   -6.9130   21.5030 O   0  0  0  0  0  0  0  0  0  0  0  0
  -21.6290   -6.1630   22.6520 C   0  0  0  0  0  0  0  0  0  0  0  0
  -21.2300   -6.7150   23.8890 C   0  0  0  0  0  3  0  0  0  0  0  0
  -21.1430   -5.8930   25.0310 C   0  0  0  0  0  3  0  0  0  0  0  0
  -21.4440   -4.5210   24.9360 C   0  0  0  0  0  0  0  0  0  0  0  0
  -21.8370   -3.9690   23.7050 C   0  0  0  0  0  3  0  0  0  0  0  0
  -21.9250   -4.7880   22.5650 C   0  0  0  0  0  0  0  0  0  0  0  0
  -22.2830   -4.2480   21.3750 F   0  0  0  0  0  0  0  0  0  0  0  0
  -21.3540   -3.7300   26.0310 F   0  0  0  0  0  0  0  0  0  0  0  0
  -22.7600  -13.5480   21.1300 C   0  0  0  0  0  0  0  0  0  0  0  0
  -22.0290  -12.8600   22.0000 N   0  0  0  0  0  0  0  0  0  0  0  0
  -22.3240  -14.5710   20.6010 O   0  0  0  0  0  0  0  0  0  0  0  0
  -22.3930  -12.0340   22.4510 H   0  0  0  0  0  0  0  0  0  0  0  0
  -21.0910  -13.1660   22.2200 H   0  0  0  0  0  0  0  0  0  0  0  0
  -25.3950  -15.2040   20.3050 N   0  0  0  0  0  0  0  0  0  0  0  0
  -24.6290  -15.8610   20.4100 H   0  0  0  0  0  0  0  0  0  0  0  0
  -26.2440  -15.6390   19.9660 H   0  0  0  0  0  0  0  0  0  0  0  0
  1  5  2  0
  1  2  1  0
  2  7  1  0
  2  3  2  0
  3  4  1  0
  5  6  1  0
  6 50  1  0
  6  3  1  0
  8  9  1  0
  8  7  1  0
 10 21  2  0
 11  9  1  0
 11 16  1  0
 12 20  1  0
 12 22  1  0
 13 19  1  0
 13 15  1  0
 14 20  1  0
 15 14  1  0
 16 15  2  0
 17 18  1  0
 17 11  2  0
 18 13  2  0
 19 12  1  0
 20 10  1  0
 22 24  2  0
 23 22  1  0
 25 23  1  0
 26 35  2  0
 26 31  1  0
 27 23  1  0
 27 31  1  0
 28 27  1  0
 29 30  1  0
 29 28  1  0
 30 26  1  0
 31 32  2  0
 32 33  1  0
 34 33  2  0
 35 34  1  0
 36 10  1  0
 36 37  1  0
 36 46  1  0
 37 40  1  0
 38 42  1  0
 38 37  1  0
 39 38  2  0
 42 41  1  0
 44 42  1  0
 44 45  1  0
 44 43  1  0
 46 49  1  1
 46 47  1  0
 48 46  1  0
 51 50  1  0
 51 52  1  0
 53 61  1  0
 54 59  1  0
 55 56  1  0
 55 54  1  0
 57 56  1  0
 57 66  1  0
 57 58  1  0
 59 53  1  0
 59 58  1  0
 60 53  2  0
 61 52  1  0
 61 62  1  0
 63 64  2  0
 64 83  1  0
 65 64  1  0
 65 68  1  0
 66 63  1  0
 66 67  1  0
 67 65  2  0
 68 69  1  0
 69 70  2  0
 71 74  1  0
 71 70  1  0
 72 71  2  0
 73 72  1  0
 73 68  2  0
 74 75  1  0
 75 76  1  0
 76 77  2  0
 78 77  1  0
 78 82  1  0
 79 78  2  0
 80 75  2  0
 80 79  1  0
 81 80  1  0
 83 84  1  0
 84 87  1  0
 84 86  1  0
 85 83  2  0
 88 89  1  0
 88 63  1  0
 90 88  1  0
M  ISO  4   8 101   9 101  53 100  61 100
M  END
>  <TORSDO>  (31) 
F 21

>  <SCORE>  (31) 
-13.616

>  <name>  (31) 
31

>  <ligand_id>  (31) 
31

>  <original_smiles>  (31) 
[H]c1nn(C([H])([H])C([H])([H])C([H])([H])N([H])C(=O)N2C([H])([H])C([H])([H])C([H])([H])C([H])(n3nc(-c4c([H])c([H])c(Oc5c([H])c([H])c(F)c([H])c5F)c([H])c4[H])c(C(=O)N([H])[H])c3N([H])[H])C2([H])[H])c(C([H])([H])[H])c1C([H])([H])C([H])([H])Oc1c([H])c([H])c2c(c1[H])C([H])([H])N(C(=O)C([H])(N([H])C(=O)C([H])(N([H])C([H])([H])[H])C([H])([H])[H])C(C([H])([H])[H])(C([H])([H])[H])C([H])([H])[H])C([H])(C(=O)N([H])C1([H])c3c([H])c([H])c([H])c([H])c3C([H])([H])C([H])([H])C1([H])[H])C2([H])[H]

>  <smiles>  (31) 
[H]c1nn(C([H])([H])C([H])([H])C([H])([H])N([H])C(=O)N2C([H])([H])C([H])([H])C([H])([H])C([H])(n3nc(-c4c([H])c([H])c(Oc5c([H])c([H])c(F)c([H])c5F)c([H])c4[H])c(C(=O)N([H])[H])c3N([H])[H])C2([H])[H])c(C([H])([H])[H])c1C([H])([H])C([H])([H])Oc1c([H])c([H])c2c(c1[H])C([H])([H])N(C(=O)C([H])(N([H])C(=O)C([H])(N([H])C([H])([H])[H])C([H])([H])[H])C(C([H])([H])[H])(C([H])([H])[H])C([H])([H])[H])C([H])(C(=O)N([H])C1([H])c3c([H])c([H])c([H])c([H])c3C([H])([H])C([H])([H])C1([H])[H])C2([H])[H]

$$$$
32:0:0
     RDKit          3D

 93101  0  0  1  0  0  0  0  0999 V2000
  -28.9180  -22.0950   19.6020 C   0  0  0  0  0  3  0  0  0  0  0  0
  -28.6070  -21.7950   20.9450 C   0  0  0  0  0  0  0  0  0  0  0  0
  -28.2390  -24.0500   21.3670 C   0  0  0  0  0  0  0  0  0  0  0  0
  -28.5750  -24.3490   20.0050 C   0  0  0  0  0  0  0  0  0  0  0  0
  -28.9010  -23.3600   19.1390 N   0  0  0  0  0  0  0  0  0  0  0  0
  -28.2620  -22.7690   21.8210 N   0  0  0  0  0  0  0  0  0  0  0  0
  -29.0740  -25.6250   23.2200 C   0  0  0  0  0  1  0  0  0  0  0  0
  -27.8660  -25.0620   22.4540 C   0  0  0  0  0  2  0  0  0  0  0  0
  -28.6620  -20.3710   21.4790 C   0  0  0  0  0  2  0  0  0  0  0  0
  -29.8130  -19.5340   20.8950 C   0  0  0  0  0  2  0  0  0  0  0  0
  -29.8860  -18.1270   21.5030 C   0  0  0  0  0  2  0  0  0  0  0  0
  -31.1750  -17.4000   21.1040 C   0  0  0  0  0  2  0  0  0  0  0  0
  -31.3570  -16.0650   21.8380 C   0  0  0  0  0  2  0  0  0  0  0  0
  -30.8990  -14.2680   20.1970 C   0  0  0  0  0  0  0  0  0  0  0  0
  -30.4330  -12.2090   18.9300 C   0  0  0  0  0  2  0  0  0  0  0  0
  -29.4500  -12.4470   17.7700 C   0  0  0  0  0  2  0  0  0  0  0  0
  -27.9950  -12.3480   18.2610 C   0  0  0  0  0  2  0  0  0  0  0  0
  -27.7320  -13.2030   19.5290 C   0  0  0  0  0  3  0  0  0  0  0  0
  -28.8070  -12.9240   20.6000 C   0  0  0  0  0  2  0  0  0  0  0  0
  -30.1310  -13.1730   19.9970 N   0  0  0  0  0  0  0  0  0  0  0  0
  -31.8970  -14.5380   19.5220 O   0  0  0  0  0  0  0  0  0  0  0  0
  -30.5460  -15.0080   21.2530 N   0  0  0  0  0  0  0  0  0  0  0  0
  -29.7030  -14.7330   21.7370 H   0  0  0  0  0  0  0  0  0  0  0  0
  -25.3740  -13.8930   20.3080 C   0  0  0  0  0  0  0  0  0  0  0  0
  -24.2960  -13.1550   20.7140 C   0  0  0  0  0  0  0  0  0  0  0  0
  -24.7130  -11.7870   20.6710 C   0  0  0  0  0  0  0  0  0  0  0  0
  -26.3840  -12.9790   20.0490 N   0  0  0  0  0  0  0  0  0  0  0  0
  -25.9900  -11.7090   20.3230 N   0  0  0  0  0  0  0  0  0  0  0  0
  -23.9570  -10.5490   20.8880 C   0  0  0  0  0  0  0  0  0  0  0  0
  -24.3710   -9.5910   21.8410 C   0  0  0  0  0  3  0  0  0  0  0  0
  -23.6190   -8.4140   22.0440 C   0  0  0  0  0  3  0  0  0  0  0  0
  -22.4420   -8.1840   21.2930 C   0  0  0  0  0  0  0  0  0  0  0  0
  -22.0490   -9.1320   20.3300 C   0  0  0  0  0  3  0  0  0  0  0  0
  -22.7980  -10.3010   20.1260 C   0  0  0  0  0  3  0  0  0  0  0  0
  -21.6620   -7.0590   21.4020 O   0  0  0  0  0  0  0  0  0  0  0  0
  -21.5830   -6.3500   22.5740 C   0  0  0  0  0  0  0  0  0  0  0  0
  -21.1640   -6.9510   23.7820 C   0  0  0  0  0  3  0  0  0  0  0  0
  -21.0290   -6.1700   24.9480 C   0  0  0  0  0  3  0  0  0  0  0  0
  -21.3050   -4.7900   24.9070 C   0  0  0  0  0  0  0  0  0  0  0  0
  -21.7150   -4.1900   23.7020 C   0  0  0  0  0  3  0  0  0  0  0  0
  -21.8510   -4.9670   22.5390 C   0  0  0  0  0  0  0  0  0  0  0  0
  -22.2280   -4.3780   21.3800 F   0  0  0  0  0  0  0  0  0  0  0  0
  -21.1670   -4.0380   26.0240 F   0  0  0  0  0  0  0  0  0  0  0  0
  -22.9230  -13.6740   21.0290 C   0  0  0  0  0  0  0  0  0  0  0  0
  -22.2010  -13.0030   21.9180 N   0  0  0  0  0  0  0  0  0  0  0  0
  -22.4970  -14.7110   20.5170 O   0  0  0  0  0  0  0  0  0  0  0  0
  -22.5530  -12.1600   22.3490 H   0  0  0  0  0  0  0  0  0  0  0  0
  -21.2800  -13.3320   22.1680 H   0  0  0  0  0  0  0  0  0  0  0  0
  -25.5760  -15.2580   20.1210 N   0  0  0  0  0  0  0  0  0  0  0  0
  -24.8410  -15.9400   20.2690 H   0  0  0  0  0  0  0  0  0  0  0  0
  -26.4330  -15.6660   19.7690 H   0  0  0  0  0  0  0  0  0  0  0  0
  -28.7190  -25.7290   19.3460 C   0  0  0  0  0  2  0  0  0  0  0  0
  -28.4540  -26.8690   20.1370 O   0  0  0  0  0  0  0  0  0  0  0  0
  -24.5560  -31.8690   23.1720 C   0  0  0  0  0  0  0  0  0  0  0  0
  -27.2370  -27.5050   20.0660 C   0  0  0  0  0  0  0  0  0  0  0  0
  -23.3500  -30.4700   21.5190 C   0  0  0  0  0  3  0  0  0  0  0  0
  -24.8100  -28.9420   20.0890 C   0  0  0  0  0  0  0  0  0  0  0  0
  -25.8630  -30.8590   21.3130 C   0  0  0  0  0  2  0  0  0  0  0  0
  -25.9550  -29.4920   20.6750 C   0  0  0  0  0  0  0  0  0  0  0  0
  -27.1640  -28.7730   20.6710 C   0  0  0  0  0  3  0  0  0  0  0  0
  -26.0740  -26.9520   19.4780 C   0  0  0  0  0  3  0  0  0  0  0  0
  -24.8600  -27.6660   19.4960 C   0  0  0  0  0  3  0  0  0  0  0  0
  -23.5570  -29.7810   20.1400 C   0  0  0  0  0  2  0  0  0  0  0  0
  -24.6070  -31.0810   22.0620 N   0  0  0  0  0  0  0  0  0  0  0  0
  -23.4760  -32.1350   23.7180 O   0  0  0  0  0  0  0  0  0  0  0  0
  -22.7030  -29.4480   22.4780 C   0  0  0  0  0  0  0  0  0  0  0  0
  -21.3820  -29.2520   22.3340 N   0  0  0  0  0  0  0  0  0  0  0  0
  -23.3840  -28.8320   23.3020 O   0  0  0  0  0  0  0  0  0  0  0  0
  -20.8940  -29.8000   21.6380 H   0  0  0  0  0  0  0  0  0  0  0  0
  -18.0220  -28.0080   22.7640 C   0  0  0  0  0  0  0  0  0  0  0  0
  -20.5670  -28.3050   23.0920 C   0  0  0  0  0  3  0  0  0  0  0  0
  -20.7070  -26.8760   22.5230 C   0  0  0  0  0  2  0  0  0  0  0  0
  -19.6340  -26.5310   21.4860 C   0  0  0  0  0  2  0  0  0  0  0  0
  -18.2340  -26.6600   22.0950 C   0  0  0  0  0  2  0  0  0  0  0  0
  -19.1190  -28.7890   23.2130 C   0  0  0  0  0  0  0  0  0  0  0  0
  -18.8690  -30.0530   23.7910 C   0  0  0  0  0  3  0  0  0  0  0  0
  -17.5570  -30.5380   23.9240 C   0  0  0  0  0  3  0  0  0  0  0  0
  -16.4720  -29.7530   23.4940 C   0  0  0  0  0  3  0  0  0  0  0  0
  -16.7050  -28.4890   22.9230 C   0  0  0  0  0  3  0  0  0  0  0  0
  -25.8450  -32.4940   23.7970 C   0  0  0  0  0  3  0  0  0  0  0  0
  -25.5380  -33.8860   24.1460 N   0  0  0  0  0  0  0  0  0  0  0  0
  -25.8680  -34.9470   23.4000 C   0  0  0  0  0  0  0  0  0  0  0  0
  -26.5360  -34.8580   22.3670 O   0  0  0  0  0  0  0  0  0  0  0  0
  -24.9580  -34.0280   24.9590 H   0  0  0  0  0  0  0  0  0  0  0  0
  -24.1340  -36.7380   23.0680 C   0  0  0  0  0  1  0  0  0  0  0  0
  -25.3750  -36.3270   23.8760 C   0  0  0  0  0  3  0  0  0  0  0  0
  -27.5020  -37.2150   24.7250 C   0  0  0  0  0  1  0  0  0  0  0  0
  -26.4040  -37.3860   23.7770 N   0  0  0  0  0  0  0  0  0  0  0  0
  -25.9920  -38.3030   23.9310 H   0  0  0  0  0  0  0  0  0  0  0  0
  -26.3700  -31.7080   25.0580 C   0  0  1  0  0  0  0  0  0  0  0  0
  -25.2770  -31.4220   26.1130 C   0  0  0  0  0  1  0  0  0  0  0  0
  -26.9820  -30.3530   24.6310 C   0  0  0  0  0  1  0  0  0  0  0  0
  -27.5000  -32.5080   25.7470 C   0  0  0  0  0  1  0  0  0  0  0  0
  1  2  1  0
  2  9  1  0
  2  6  2  0
  3  6  1  0
  3  8  1  0
  4  3  2  0
  5  1  2  0
  5  4  1  0
  8  7  1  0
 10  9  1  0
 10 11  1  0
 12 11  1  0
 12 13  1  0
 14 22  1  0
 15 20  1  0
 16 17  1  0
 16 15  1  0
 18 17  1  0
 18 27  1  0
 18 19  1  0
 20 14  1  0
 20 19  1  0
 21 14  2  0
 22 23  1  0
 22 13  1  0
 24 25  2  0
 25 44  1  0
 26 25  1  0
 26 29  1  0
 27 24  1  0
 27 28  1  0
 28 26  2  0
 29 30  1  0
 30 31  2  0
 32 35  1  0
 32 31  1  0
 33 32  2  0
 34 33  1  0
 34 29  2  0
 35 36  1  0
 36 37  1  0
 37 38  2  0
 39 38  1  0
 39 43  1  0
 40 39  2  0
 41 36  2  0
 41 40  1  0
 42 41  1  0
 44 45  1  0
 45 48  1  0
 45 47  1  0
 46 44  2  0
 49 50  1  0
 49 24  1  0
 51 49  1  0
 52  4  1  0
 52 53  1  0
 54 65  2  0
 55 53  1  0
 55 60  1  0
 56 64  1  0
 56 66  1  0
 57 63  1  0
 57 59  1  0
 58 64  1  0
 59 58  1  0
 60 59  2  0
 61 62  1  0
 61 55  2  0
 62 57  2  0
 63 56  1  0
 64 54  1  0
 66 68  2  0
 67 66  1  0
 69 67  1  0
 70 79  2  0
 70 75  1  0
 71 67  1  0
 71 75  1  0
 72 71  1  0
 73 74  1  0
 73 72  1  0
 74 70  1  0
 75 76  2  0
 76 77  1  0
 78 77  2  0
 79 78  1  0
 80 54  1  0
 80 81  1  0
 80 90  1  0
 81 84  1  0
 82 86  1  0
 82 81  1  0
 83 82  2  0
 86 85  1  0
 88 86  1  0
 88 89  1  0
 88 87  1  0
 90 93  1  1
 90 91  1  0
 92 90  1  0
M  ISO  4  14 100  22 100  52 101  53 101
M  END
>  <TORSDO>  (32) 
F 23

>  <SCORE>  (32) 
-12.124

>  <name>  (32) 
32

>  <ligand_id>  (32) 
32

>  <original_smiles>  (32) 
[H]c1nc(C([H])([H])Oc2c([H])c([H])c3c(c2[H])C([H])([H])N(C(=O)C([H])(N([H])C(=O)C([H])(N([H])C([H])([H])[H])C([H])([H])[H])C(C([H])([H])[H])(C([H])([H])[H])C([H])([H])[H])C([H])(C(=O)N([H])C2([H])c4c([H])c([H])c([H])c([H])c4C([H])([H])C([H])([H])C2([H])[H])C3([H])[H])c(C([H])([H])C([H])([H])[H])nc1C([H])([H])C([H])([H])C([H])([H])C([H])([H])C([H])([H])N([H])C(=O)N1C([H])([H])C([H])([H])C([H])([H])C([H])(n2nc(-c3c([H])c([H])c(Oc4c([H])c([H])c(F)c([H])c4F)c([H])c3[H])c(C(=O)N([H])[H])c2N([H])[H])C1([H])[H]

>  <smiles>  (32) 
[H]c1nc(C([H])([H])Oc2c([H])c([H])c3c(c2[H])C([H])([H])N(C(=O)C([H])(N([H])C(=O)C([H])(N([H])C([H])([H])[H])C([H])([H])[H])C(C([H])([H])[H])(C([H])([H])[H])C([H])([H])[H])C([H])(C(=O)N([H])C2([H])c4c([H])c([H])c([H])c([H])c4C([H])([H])C([H])([H])C2([H])[H])C3([H])[H])c(C([H])([H])C([H])([H])[H])nc1C([H])([H])C([H])([H])C([H])([H])C([H])([H])C([H])([H])N([H])C(=O)N1C([H])([H])C([H])([H])C([H])([H])C([H])(n2nc(-c3c([H])c([H])c(Oc4c([H])c([H])c(F)c([H])c4F)c([H])c3[H])c(C(=O)N([H])[H])c2N([H])[H])C1([H])[H]

$$$$
33:0:0
     RDKit          3D

 91 99  0  0  1  0  0  0  0  0999 V2000
  -30.2420  -22.6920   22.1670 C   0  0  0  0  0  0  0  0  0  0  0  0
  -30.3030  -21.9620   20.9540 C   0  0  0  0  0  0  0  0  0  0  0  0
  -29.1070  -24.3580   21.0710 C   0  0  0  0  0  0  0  0  0  0  0  0
  -30.8200  -22.1810   23.4730 C   0  0  0  0  0  1  0  0  0  0  0  0
  -29.6400  -23.9020   22.2130 N   0  0  0  0  0  0  0  0  0  0  0  0
  -29.7710  -22.5080   19.8280 N   0  0  0  0  0  0  0  0  0  0  0  0
  -29.1570  -23.7080   19.8880 N   0  0  0  0  0  0  0  0  0  0  0  0
  -30.9830  -20.5840   20.8360 C   0  0  0  0  0  2  0  0  0  0  0  0
  -30.0050  -19.3830   20.7330 C   0  0  0  0  0  2  0  0  0  0  0  0
  -30.6240  -17.9720   20.9720 C   0  0  0  0  0  2  0  0  0  0  0  0
  -29.6810  -16.8430   20.4800 C   0  0  0  0  0  2  0  0  0  0  0  0
  -30.6250  -14.5090   20.4720 C   0  0  0  0  0  0  0  0  0  0  0  0
  -30.3580  -12.3440   19.3190 C   0  0  0  0  0  2  0  0  0  0  0  0
  -29.4100  -12.5640   18.1200 C   0  0  0  0  0  2  0  0  0  0  0  0
  -27.9360  -12.4190   18.5480 C   0  0  0  0  0  2  0  0  0  0  0  0
  -27.6030  -13.2370   19.8230 C   0  0  0  0  0  3  0  0  0  0  0  0
  -28.6600  -12.9900   20.9270 C   0  0  0  0  0  2  0  0  0  0  0  0
  -29.9900  -13.3070   20.3710 N   0  0  0  0  0  0  0  0  0  0  0  0
  -31.7120  -14.7470   19.9390 O   0  0  0  0  0  0  0  0  0  0  0  0
  -29.8850  -15.4880   21.0270 N   0  0  0  0  0  0  0  0  0  0  0  0
  -29.0970  -15.1340   21.5500 H   0  0  0  0  0  0  0  0  0  0  0  0
  -25.1980  -13.8420   20.5230 C   0  0  0  0  0  0  0  0  0  0  0  0
  -24.1310  -13.0670   20.8940 C   0  0  0  0  0  0  0  0  0  0  0  0
  -24.5960  -11.7160   20.8650 C   0  0  0  0  0  0  0  0  0  0  0  0
  -26.2460  -12.9620   20.2970 N   0  0  0  0  0  0  0  0  0  0  0  0
  -25.8860  -11.6790   20.5560 N   0  0  0  0  0  0  0  0  0  0  0  0
  -23.8750  -10.4520   21.0590 C   0  0  0  0  0  0  0  0  0  0  0  0
  -24.3160   -9.4860   21.9890 C   0  0  0  0  0  3  0  0  0  0  0  0
  -23.5970   -8.2850   22.1700 C   0  0  0  0  0  3  0  0  0  0  0  0
  -22.4210   -8.0430   21.4190 C   0  0  0  0  0  0  0  0  0  0  0  0
  -21.9990   -8.9980   20.4770 C   0  0  0  0  0  3  0  0  0  0  0  0
  -22.7190  -10.1900   20.2950 C   0  0  0  0  0  3  0  0  0  0  0  0
  -21.6710   -6.8960   21.5100 O   0  0  0  0  0  0  0  0  0  0  0  0
  -21.6360   -6.1470   22.6590 C   0  0  0  0  0  0  0  0  0  0  0  0
  -21.2150   -6.6930   23.8910 C   0  0  0  0  0  3  0  0  0  0  0  0
  -21.1290   -5.8700   25.0330 C   0  0  0  0  0  3  0  0  0  0  0  0
  -21.4530   -4.5030   24.9420 C   0  0  0  0  0  0  0  0  0  0  0  0
  -21.8660   -3.9570   23.7140 C   0  0  0  0  0  3  0  0  0  0  0  0
  -21.9540   -4.7770   22.5760 C   0  0  0  0  0  0  0  0  0  0  0  0
  -22.3330   -4.2400   21.3910 F   0  0  0  0  0  0  0  0  0  0  0  0
  -21.3610   -3.7100   26.0350 F   0  0  0  0  0  0  0  0  0  0  0  0
  -22.7330  -13.5400   21.1690 C   0  0  0  0  0  0  0  0  0  0  0  0
  -22.0080  -12.8380   22.0340 N   0  0  0  0  0  0  0  0  0  0  0  0
  -22.2910  -14.5650   20.6530 O   0  0  0  0  0  0  0  0  0  0  0  0
  -22.3790  -12.0090   22.4730 H   0  0  0  0  0  0  0  0  0  0  0  0
  -21.0700  -13.1350   22.2610 H   0  0  0  0  0  0  0  0  0  0  0  0
  -25.3590  -15.2130   20.3420 N   0  0  0  0  0  0  0  0  0  0  0  0
  -24.5890  -15.8660   20.4340 H   0  0  0  0  0  0  0  0  0  0  0  0
  -26.2130  -15.6500   20.0180 H   0  0  0  0  0  0  0  0  0  0  0  0
  -28.1980  -25.5950   21.1970 C   0  0  0  0  0  2  0  0  0  0  0  0
  -28.3670  -26.6630   20.2380 O   0  0  0  0  0  0  0  0  0  0  0  0
  -24.5870  -31.9040   23.2500 C   0  0  0  0  0  0  0  0  0  0  0  0
  -27.2430  -27.4600   20.1850 C   0  0  0  0  0  0  0  0  0  0  0  0
  -23.3870  -30.5000   21.6040 C   0  0  0  0  0  3  0  0  0  0  0  0
  -24.8490  -28.9660   20.1810 C   0  0  0  0  0  0  0  0  0  0  0  0
  -25.9130  -30.8620   21.4140 C   0  0  0  0  0  2  0  0  0  0  0  0
  -26.0050  -29.4910   20.7740 C   0  0  0  0  0  0  0  0  0  0  0  0
  -27.2100  -28.7450   20.7740 C   0  0  0  0  0  3  0  0  0  0  0  0
  -26.0750  -26.9560   19.5760 C   0  0  0  0  0  3  0  0  0  0  0  0
  -24.8800  -27.6960   19.5780 C   0  0  0  0  0  3  0  0  0  0  0  0
  -23.6020  -29.8190   20.2270 C   0  0  0  0  0  2  0  0  0  0  0  0
  -24.6480  -31.1030   22.1480 N   0  0  0  0  0  0  0  0  0  0  0  0
  -23.5050  -32.1760   23.7880 O   0  0  0  0  0  0  0  0  0  0  0  0
  -22.7330  -29.4800   22.5660 C   0  0  0  0  0  0  0  0  0  0  0  0
  -21.4090  -29.2980   22.4390 N   0  0  0  0  0  0  0  0  0  0  0  0
  -23.4170  -28.8540   23.3810 O   0  0  0  0  0  0  0  0  0  0  0  0
  -20.9200  -29.8550   21.7520 H   0  0  0  0  0  0  0  0  0  0  0  0
  -18.0330  -28.1110   22.9380 C   0  0  0  0  0  0  0  0  0  0  0  0
  -20.5920  -28.3620   23.2090 C   0  0  0  0  0  3  0  0  0  0  0  0
  -20.6900  -26.9310   22.6320 C   0  0  0  0  0  2  0  0  0  0  0  0
  -19.5870  -26.6120   21.6180 C   0  0  0  0  0  2  0  0  0  0  0  0
  -18.2060  -26.7620   22.2620 C   0  0  0  0  0  2  0  0  0  0  0  0
  -19.1530  -28.8700   23.3680 C   0  0  0  0  0  0  0  0  0  0  0  0
  -18.9390  -30.1340   23.9590 C   0  0  0  0  0  3  0  0  0  0  0  0
  -17.6360  -30.6400   24.1250 C   0  0  0  0  0  3  0  0  0  0  0  0
  -16.5290  -29.8780   23.7120 C   0  0  0  0  0  3  0  0  0  0  0  0
  -16.7280  -28.6160   23.1240 C   0  0  0  0  0  3  0  0  0  0  0  0
  -25.8720  -32.5370   23.8700 C   0  0  0  0  0  3  0  0  0  0  0  0
  -25.5650  -33.9370   24.1920 N   0  0  0  0  0  0  0  0  0  0  0  0
  -25.9040  -34.9850   23.4280 C   0  0  0  0  0  0  0  0  0  0  0  0
  -26.5790  -34.8760   22.4020 O   0  0  0  0  0  0  0  0  0  0  0  0
  -24.9670  -34.0970   24.9900 H   0  0  0  0  0  0  0  0  0  0  0  0
  -24.1850  -36.7800   23.0460 C   0  0  0  0  0  1  0  0  0  0  0  0
  -25.4150  -36.3760   23.8750 C   0  0  0  0  0  3  0  0  0  0  0  0
  -27.5420  -37.2560   24.7290 C   0  0  0  0  0  1  0  0  0  0  0  0
  -26.4520  -37.4260   23.7720 N   0  0  0  0  0  0  0  0  0  0  0  0
  -26.0460  -38.3470   23.9140 H   0  0  0  0  0  0  0  0  0  0  0  0
  -26.3880  -31.7710   25.1500 C   0  0  1  0  0  0  0  0  0  0  0  0
  -25.2940  -31.5380   26.2170 C   0  0  0  0  0  1  0  0  0  0  0  0
  -26.9710  -30.3930   24.7620 C   0  0  0  0  0  1  0  0  0  0  0  0
  -27.5370  -32.5680   25.8120 C   0  0  0  0  0  1  0  0  0  0  0  0
  1  5  1  0
  1  4  1  0
  2  1  2  0
  3 50  1  0
  3  5  2  0
  6  7  2  0
  6  2  1  0
  7  3  1  0
  8  2  1  0
  9  8  1  0
  9 10  1  0
 11 10  1  0
 11 20  1  0
 12 20  1  0
 13 18  1  0
 14 15  1  0
 14 13  1  0
 16 15  1  0
 16 25  1  0
 16 17  1  0
 18 12  1  0
 18 17  1  0
 19 12  2  0
 20 21  1  0
 22 23  2  0
 23 42  1  0
 24 23  1  0
 24 27  1  0
 25 22  1  0
 25 26  1  0
 26 24  2  0
 27 28  1  0
 28 29  2  0
 30 33  1  0
 30 29  1  0
 31 30  2  0
 32 31  1  0
 32 27  2  0
 33 34  1  0
 34 35  1  0
 35 36  2  0
 37 36  1  0
 37 41  1  0
 38 37  2  0
 39 34  2  0
 39 38  1  0
 40 39  1  0
 42 43  1  0
 43 46  1  0
 43 45  1  0
 44 42  2  0
 47 48  1  0
 47 22  1  0
 49 47  1  0
 51 50  1  0
 52 63  2  0
 53 51  1  0
 53 58  1  0
 54 62  1  0
 54 64  1  0
 55 61  1  0
 55 57  1  0
 56 62  1  0
 57 56  1  0
 58 57  2  0
 59 60  1  0
 59 53  2  0
 60 55  2  0
 61 54  1  0
 62 52  1  0
 64 66  2  0
 65 64  1  0
 67 65  1  0
 68 77  2  0
 68 73  1  0
 69 65  1  0
 69 73  1  0
 70 69  1  0
 71 72  1  0
 71 70  1  0
 72 68  1  0
 73 74  2  0
 74 75  1  0
 76 75  2  0
 77 76  1  0
 78 52  1  0
 78 79  1  0
 78 88  1  0
 79 82  1  0
 80 84  1  0
 80 79  1  0
 81 80  2  0
 84 83  1  0
 86 84  1  0
 86 87  1  0
 86 85  1  0
 88 91  1  1
 88 89  1  0
 90 88  1  0
M  ISO  4  12 100  20 100  50 101  51 101
M  END
>  <TORSDO>  (33) 
F 21

>  <SCORE>  (33) 
-13.699

>  <name>  (33) 
33

>  <ligand_id>  (33) 
33

>  <original_smiles>  (33) 
[H]c1c([H])c([H])c2c(c1[H])C([H])([H])C([H])([H])C([H])([H])C2([H])N([H])C(=O)C1([H])N(C(=O)C([H])(N([H])C(=O)C([H])(N([H])C([H])([H])[H])C([H])([H])[H])C(C([H])([H])[H])(C([H])([H])[H])C([H])([H])[H])C([H])([H])c2c([H])c(OC([H])([H])c3nnc(C([H])([H])C([H])([H])C([H])([H])C([H])([H])N([H])C(=O)N4C([H])([H])C([H])([H])C([H])([H])C([H])(n5nc(-c6c([H])c([H])c(Oc7c([H])c([H])c(F)c([H])c7F)c([H])c6[H])c(C(=O)N([H])[H])c5N([H])[H])C4([H])[H])c(C([H])([H])[H])n3)c([H])c([H])c2C1([H])[H]

>  <smiles>  (33) 
[H]c1c([H])c([H])c2c(c1[H])C([H])([H])C([H])([H])C([H])([H])C2([H])N([H])C(=O)C1([H])N(C(=O)C([H])(N([H])C(=O)C([H])(N([H])C([H])([H])[H])C([H])([H])[H])C(C([H])([H])[H])(C([H])([H])[H])C([H])([H])[H])C([H])([H])c2c([H])c(OC([H])([H])c3nnc(C([H])([H])C([H])([H])C([H])([H])C([H])([H])N([H])C(=O)N4C([H])([H])C([H])([H])C([H])([H])C([H])(n5nc(-c6c([H])c([H])c(Oc7c([H])c([H])c(F)c([H])c7F)c([H])c6[H])c(C(=O)N([H])[H])c5N([H])[H])C4([H])[H])c(C([H])([H])[H])n3)c([H])c([H])c2C1([H])[H]

$$$$
34:0:0
     RDKit          3D

 96104  0  0  1  0  0  0  0  0999 V2000
  -29.6850  -24.1730   22.5880 C   0  0  0  0  0  3  0  0  0  0  0  0
  -29.0990  -23.9740   20.2490 C   0  0  0  0  0  3  0  0  0  0  0  0
  -29.1420  -24.7600   21.4240 C   0  0  0  0  0  0  0  0  0  0  0  0
  -30.1760  -22.8560   22.5230 C   0  0  0  0  0  0  0  0  0  0  0  0
  -29.6020  -22.6590   20.2790 C   0  0  0  0  0  0  0  0  0  0  0  0
  -30.1580  -22.1320   21.3870 N   0  0  0  0  0  0  0  0  0  0  0  0
  -28.6450  -26.2040   21.4420 C   0  0  0  0  0  2  0  0  0  0  0  0
  -28.0870  -26.6090   20.1890 O   0  0  0  0  0  0  0  0  0  0  0  0
  -24.6160  -31.9090   23.4640 C   0  0  0  0  0  0  0  0  0  0  0  0
  -26.9830  -27.4190   20.2640 C   0  0  0  0  0  0  0  0  0  0  0  0
  -23.3110  -30.6050   21.8130 C   0  0  0  0  0  3  0  0  0  0  0  0
  -24.6640  -29.0260   20.3350 C   0  0  0  0  0  0  0  0  0  0  0  0
  -25.8450  -30.8430   21.5830 C   0  0  0  0  0  2  0  0  0  0  0  0
  -25.8510  -29.4820   20.9210 C   0  0  0  0  0  0  0  0  0  0  0  0
  -27.0140  -28.6850   20.8890 C   0  0  0  0  0  3  0  0  0  0  0  0
  -25.7880  -26.9740   19.6630 C   0  0  0  0  0  3  0  0  0  0  0  0
  -24.6260  -27.7690   19.7020 C   0  0  0  0  0  3  0  0  0  0  0  0
  -23.4630  -29.9430   20.4170 C   0  0  0  0  0  2  0  0  0  0  0  0
  -24.6090  -31.1320   22.3450 N   0  0  0  0  0  0  0  0  0  0  0  0
  -23.5610  -32.2260   24.0290 O   0  0  0  0  0  0  0  0  0  0  0  0
  -22.6250  -29.5990   22.7640 C   0  0  0  0  0  0  0  0  0  0  0  0
  -21.3030  -29.4260   22.5970 N   0  0  0  0  0  0  0  0  0  0  0  0
  -23.2770  -28.9770   23.6050 O   0  0  0  0  0  0  0  0  0  0  0  0
  -20.8380  -29.9790   21.8910 H   0  0  0  0  0  0  0  0  0  0  0  0
  -17.9220  -28.2030   22.9350 C   0  0  0  0  0  0  0  0  0  0  0  0
  -20.4550  -28.5040   23.3500 C   0  0  0  0  0  3  0  0  0  0  0  0
  -20.6090  -27.0560   22.8320 C   0  0  0  0  0  2  0  0  0  0  0  0
  -19.5750  -26.6840   21.7650 C   0  0  0  0  0  2  0  0  0  0  0  0
  -18.1540  -26.8330   22.3190 C   0  0  0  0  0  2  0  0  0  0  0  0
  -19.0040  -28.9950   23.4050 C   0  0  0  0  0  0  0  0  0  0  0  0
  -18.7360  -30.2760   23.9330 C   0  0  0  0  0  3  0  0  0  0  0  0
  -17.4180  -30.7650   24.0020 C   0  0  0  0  0  3  0  0  0  0  0  0
  -16.3490  -29.9710   23.5520 C   0  0  0  0  0  3  0  0  0  0  0  0
  -16.6020  -28.6930   23.0230 C   0  0  0  0  0  3  0  0  0  0  0  0
  -25.9460  -32.4570   24.0730 C   0  0  0  0  0  3  0  0  0  0  0  0
  -26.4720  -31.6000   25.2900 C   0  0  1  0  0  0  0  0  0  0  0  0
  -25.4020  -31.3440   26.3760 C   0  0  0  0  0  1  0  0  0  0  0  0
  -26.9940  -30.2260   24.8070 C   0  0  0  0  0  1  0  0  0  0  0  0
  -27.6660  -32.3180   25.9610 C   0  0  0  0  0  1  0  0  0  0  0  0
  -25.7050  -33.8460   24.4820 N   0  0  0  0  0  0  0  0  0  0  0  0
  -26.0710  -34.9210   23.7720 C   0  0  0  0  0  0  0  0  0  0  0  0
  -26.7200  -34.8420   22.7250 O   0  0  0  0  0  0  0  0  0  0  0  0
  -25.1340  -33.9820   25.3030 H   0  0  0  0  0  0  0  0  0  0  0  0
  -24.4150  -36.7970   23.5390 C   0  0  0  0  0  1  0  0  0  0  0  0
  -25.6500  -36.3020   24.3080 C   0  0  0  0  0  3  0  0  0  0  0  0
  -27.8310  -37.0540   25.1470 C   0  0  0  0  0  1  0  0  0  0  0  0
  -26.7230  -37.3160   24.2320 N   0  0  0  0  0  0  0  0  0  0  0  0
  -26.3580  -38.2420   24.4350 H   0  0  0  0  0  0  0  0  0  0  0  0
  -29.6000  -21.7670   19.0380 C   0  0  0  0  0  2  0  0  0  0  0  0
  -28.4970  -20.6760   19.0010 C   0  0  0  0  0  2  0  0  0  0  0  0
  -28.5360  -19.6000   20.1170 C   0  0  0  0  0  2  0  0  0  0  0  0
  -29.7390  -18.6310   20.0770 C   0  0  0  0  0  2  0  0  0  0  0  0
  -29.9770  -17.9540   21.4420 C   0  0  0  0  0  2  0  0  0  0  0  0
  -31.0850  -16.8840   21.4280 C   0  0  0  0  0  2  0  0  0  0  0  0
  -31.1870  -14.5450   20.5600 C   0  0  0  0  0  0  0  0  0  0  0  0
  -30.8850  -12.3060   19.5740 C   0  0  0  0  0  2  0  0  0  0  0  0
  -29.9750  -12.3860   18.3310 C   0  0  0  0  0  2  0  0  0  0  0  0
  -28.4870  -12.3210   18.7200 C   0  0  0  0  0  2  0  0  0  0  0  0
  -28.1270  -13.2830   19.8840 C   0  0  0  0  0  3  0  0  0  0  0  0
  -29.1420  -13.1440   21.0400 C   0  0  0  0  0  2  0  0  0  0  0  0
  -30.4890  -13.3820   20.4910 N   0  0  0  0  0  0  0  0  0  0  0  0
  -32.2960  -14.7040   20.0410 O   0  0  0  0  0  0  0  0  0  0  0  0
  -30.5530  -15.5440   21.1840 N   0  0  0  0  0  0  0  0  0  0  0  0
  -29.6300  -15.3360   21.5340 H   0  0  0  0  0  0  0  0  0  0  0  0
  -25.7560  -14.0160   20.5700 C   0  0  0  0  0  0  0  0  0  0  0  0
  -24.6360  -13.2980   20.8950 C   0  0  0  0  0  0  0  0  0  0  0  0
  -25.0170  -11.9230   20.8290 C   0  0  0  0  0  0  0  0  0  0  0  0
  -26.7520  -13.0800   20.3330 N   0  0  0  0  0  0  0  0  0  0  0  0
  -26.3080  -11.8150   20.5440 N   0  0  0  0  0  0  0  0  0  0  0  0
  -24.2150  -10.7000   20.9710 C   0  0  0  0  0  0  0  0  0  0  0  0
  -24.5590   -9.6980   21.9040 C   0  0  0  0  0  3  0  0  0  0  0  0
  -23.7660   -8.5380   22.0360 C   0  0  0  0  0  3  0  0  0  0  0  0
  -22.6120   -8.3740   21.2350 C   0  0  0  0  0  0  0  0  0  0  0  0
  -22.2850   -9.3640   20.2920 C   0  0  0  0  0  3  0  0  0  0  0  0
  -23.0810  -10.5150   20.1570 C   0  0  0  0  0  3  0  0  0  0  0  0
  -21.7980   -7.2680   21.2740 O   0  0  0  0  0  0  0  0  0  0  0  0
  -21.6320   -6.5390   22.4240 C   0  0  0  0  0  0  0  0  0  0  0  0
  -21.1470   -7.1230   23.6150 C   0  0  0  0  0  3  0  0  0  0  0  0
  -20.9230   -6.3220   24.7510 C   0  0  0  0  0  3  0  0  0  0  0  0
  -21.1760   -4.9380   24.6990 C   0  0  0  0  0  0  0  0  0  0  0  0
  -21.6550   -4.3540   23.5140 C   0  0  0  0  0  3  0  0  0  0  0  0
  -21.8800   -5.1520   22.3790 C   0  0  0  0  0  0  0  0  0  0  0  0
  -22.3200   -4.5810   21.2330 F   0  0  0  0  0  0  0  0  0  0  0  0
  -20.9550   -4.1660   25.7890 F   0  0  0  0  0  0  0  0  0  0  0  0
  -23.2650  -13.8490   21.1600 C   0  0  0  0  0  0  0  0  0  0  0  0
  -22.4940  -13.1800   22.0100 N   0  0  0  0  0  0  0  0  0  0  0  0
  -22.8860  -14.9010   20.6490 O   0  0  0  0  0  0  0  0  0  0  0  0
  -22.8160  -12.3270   22.4420 H   0  0  0  0  0  0  0  0  0  0  0  0
  -21.5700  -13.5250   22.2280 H   0  0  0  0  0  0  0  0  0  0  0  0
  -26.0030  -15.3790   20.4370 N   0  0  0  0  0  0  0  0  0  0  0  0
  -25.2750  -16.0690   20.5810 H   0  0  0  0  0  0  0  0  0  0  0  0
  -26.8750  -15.7850   20.1170 H   0  0  0  0  0  0  0  0  0  0  0  0
  -30.7470  -22.1430   23.7390 C   0  0  0  0  0  2  0  0  0  0  0  0
  -29.9870  -20.8390   24.0640 C   0  0  0  0  0  2  0  0  0  0  0  0
  -30.1420  -18.4570   25.0140 C   0  0  0  0  0  1  0  0  0  0  0  0
  -30.8360  -19.8180   24.8460 C   0  0  0  0  0  2  0  0  0  0  0  0
  2  5  2  0
  2  3  1  0
  3  7  1  0
  3  1  2  0
  4  1  1  0
  4 93  1  0
  5  6  1  0
  6  4  2  0
  8 10  1  0
  8  7  1  0
  9 20  2  0
 10 15  1  0
 11 19  1  0
 11 21  1  0
 12 18  1  0
 12 14  1  0
 13 19  1  0
 14 13  1  0
 15 14  2  0
 16 17  1  0
 16 10  2  0
 17 12  2  0
 18 11  1  0
 19  9  1  0
 21 23  2  0
 22 21  1  0
 24 22  1  0
 25 34  2  0
 25 30  1  0
 26 22  1  0
 26 30  1  0
 27 26  1  0
 28 29  1  0
 28 27  1  0
 29 25  1  0
 30 31  2  0
 31 32  1  0
 33 32  2  0
 34 33  1  0
 35  9  1  0
 35 40  1  0
 35 36  1  0
 36 39  1  1
 36 37  1  0
 38 36  1  0
 40 43  1  0
 41 45  1  0
 41 40  1  0
 42 41  2  0
 45 44  1  0
 47 45  1  0
 47 48  1  0
 47 46  1  0
 49  5  1  0
 50 49  1  0
 50 51  1  0
 52 51  1  0
 52 53  1  0
 54 53  1  0
 55 63  1  0
 56 61  1  0
 57 58  1  0
 57 56  1  0
 59 58  1  0
 59 68  1  0
 59 60  1  0
 61 55  1  0
 61 60  1  0
 62 55  2  0
 63 54  1  0
 63 64  1  0
 65 66  2  0
 66 85  1  0
 67 66  1  0
 67 70  1  0
 68 69  1  0
 68 65  1  0
 69 67  2  0
 70 71  1  0
 71 72  2  0
 73 76  1  0
 73 72  1  0
 74 73  2  0
 75 74  1  0
 75 70  2  0
 76 77  1  0
 77 78  1  0
 78 79  2  0
 80 79  1  0
 80 84  1  0
 81 80  2  0
 82 77  2  0
 82 81  1  0
 83 82  1  0
 85 86  1  0
 86 89  1  0
 86 88  1  0
 87 85  2  0
 90 65  1  0
 90 91  1  0
 92 90  1  0
 93 94  1  0
 94 96  1  0
 96 95  1  0
M  ISO  4   7 101   8 101  55 100  63 100
M  END
>  <TORSDO>  (34) 
F 26

>  <SCORE>  (34) 
-9.775

>  <name>  (34) 
34

>  <ligand_id>  (34) 
34

>  <original_smiles>  (34) 
[H]c1c([H])c([H])c2c(c1[H])C([H])([H])C([H])([H])C([H])([H])C2([H])N([H])C(=O)C1([H])N(C(=O)C([H])(N([H])C(=O)C([H])(N([H])C([H])([H])[H])C([H])([H])[H])C(C([H])([H])[H])(C([H])([H])[H])C([H])([H])[H])C([H])([H])c2c([H])c(OC([H])([H])c3c([H])c(C([H])([H])C([H])([H])C([H])([H])C([H])([H])[H])nc(C([H])([H])C([H])([H])C([H])([H])C([H])([H])C([H])([H])C([H])([H])N([H])C(=O)N4C([H])([H])C([H])([H])C([H])([H])C([H])(n5nc(-c6c([H])c([H])c(Oc7c([H])c([H])c(F)c([H])c7F)c([H])c6[H])c(C(=O)N([H])[H])c5N([H])[H])C4([H])[H])c3[H])c([H])c([H])c2C1([H])[H]

>  <smiles>  (34) 
[H]c1c([H])c([H])c2c(c1[H])C([H])([H])C([H])([H])C([H])([H])C2([H])N([H])C(=O)C1([H])N(C(=O)C([H])(N([H])C(=O)C([H])(N([H])C([H])([H])[H])C([H])([H])[H])C(C([H])([H])[H])(C([H])([H])[H])C([H])([H])[H])C([H])([H])c2c([H])c(OC([H])([H])c3c([H])c(C([H])([H])C([H])([H])C([H])([H])C([H])([H])[H])nc(C([H])([H])C([H])([H])C([H])([H])C([H])([H])C([H])([H])C([H])([H])N([H])C(=O)N4C([H])([H])C([H])([H])C([H])([H])C([H])(n5nc(-c6c([H])c([H])c(Oc7c([H])c([H])c(F)c([H])c7F)c([H])c6[H])c(C(=O)N([H])[H])c5N([H])[H])C4([H])[H])c3[H])c([H])c([H])c2C1([H])[H]

$$$$
35:0:0
     RDKit          3D

 95103  0  0  1  0  0  0  0  0999 V2000
  -31.1740  -23.4180   19.9700 C   0  0  0  0  0  3  0  0  0  0  0  0
  -29.5850  -24.4000   22.0490 C   0  0  0  0  0  3  0  0  0  0  0  0
  -30.8660  -22.5700   21.0590 C   0  0  0  0  0  0  0  0  0  0  0  0
  -30.6910  -24.7440   19.9010 C   0  0  0  0  0  0  0  0  0  0  0  0
  -30.0870  -23.0840   22.1280 C   0  0  0  0  0  0  0  0  0  0  0  0
  -29.8560  -25.2320   20.9420 C   0  0  0  0  0  0  0  0  0  0  0  0
  -30.7240  -22.5810   24.5310 C   0  0  0  0  0  1  0  0  0  0  0  0
  -29.7630  -22.2730   23.3760 C   0  0  0  0  0  2  0  0  0  0  0  0
  -32.2710  -26.5160   18.9670 C   0  0  0  0  0  1  0  0  0  0  0  0
  -31.0780  -25.5910   18.6920 C   0  0  0  0  0  2  0  0  0  0  0  0
  -31.4240  -21.1450   21.0500 C   0  0  0  0  0  2  0  0  0  0  0  0
  -30.3740  -20.0250   21.2650 C   0  0  0  0  0  2  0  0  0  0  0  0
  -30.5870  -18.7940   20.3600 C   0  0  0  0  0  2  0  0  0  0  0  0
  -29.9990  -17.4790   20.9180 C   0  0  0  0  0  2  0  0  0  0  0  0
  -29.9030  -16.3910   19.8310 C   0  0  0  0  0  2  0  0  0  0  0  0
  -30.4030  -13.9730   20.0090 C   0  0  0  0  0  0  0  0  0  0  0  0
  -30.0380  -11.8060   18.9230 C   0  0  0  0  0  2  0  0  0  0  0  0
  -29.0200  -12.0170   17.7820 C   0  0  0  0  0  2  0  0  0  0  0  0
  -27.5790  -11.8700   18.3070 C   0  0  0  0  0  2  0  0  0  0  0  0
  -27.3190  -12.6980   19.5920 C   0  0  0  0  0  3  0  0  0  0  0  0
  -28.4500  -12.5010   20.6290 C   0  0  0  0  0  2  0  0  0  0  0  0
  -29.7330  -12.7930   19.9690 N   0  0  0  0  0  0  0  0  0  0  0  0
  -31.5240  -14.1280   19.5190 O   0  0  0  0  0  0  0  0  0  0  0  0
  -29.6610  -15.0370   20.3540 N   0  0  0  0  0  0  0  0  0  0  0  0
  -28.7450  -14.8450   20.7300 H   0  0  0  0  0  0  0  0  0  0  0  0
  -24.9520  -13.2600   20.4370 C   0  0  0  0  0  0  0  0  0  0  0  0
  -23.9290  -12.4680   20.8840 C   0  0  0  0  0  0  0  0  0  0  0  0
  -24.4200  -11.1280   20.8450 C   0  0  0  0  0  0  0  0  0  0  0  0
  -26.0030  -12.4010   20.1560 N   0  0  0  0  0  0  0  0  0  0  0  0
  -25.6900  -11.1150   20.4600 N   0  0  0  0  0  0  0  0  0  0  0  0
  -23.7400   -9.8520   21.1010 C   0  0  0  0  0  0  0  0  0  0  0  0
  -24.2330   -8.9250   22.0460 C   0  0  0  0  0  3  0  0  0  0  0  0
  -23.5490   -7.7140   22.2830 C   0  0  0  0  0  3  0  0  0  0  0  0
  -22.3580   -7.4190   21.5780 C   0  0  0  0  0  0  0  0  0  0  0  0
  -21.8860   -8.3350   20.6220 C   0  0  0  0  0  3  0  0  0  0  0  0
  -22.5690   -9.5370   20.3810 C   0  0  0  0  0  3  0  0  0  0  0  0
  -21.6430   -6.2560   21.7240 O   0  0  0  0  0  0  0  0  0  0  0  0
  -21.6420   -5.5580   22.9050 C   0  0  0  0  0  0  0  0  0  0  0  0
  -21.2230   -6.1470   24.1190 C   0  0  0  0  0  3  0  0  0  0  0  0
  -21.1700   -5.3730   25.2940 C   0  0  0  0  0  3  0  0  0  0  0  0
  -21.5280   -4.0120   25.2580 C   0  0  0  0  0  0  0  0  0  0  0  0
  -21.9420   -3.4230   24.0500 C   0  0  0  0  0  3  0  0  0  0  0  0
  -21.9950   -4.1940   22.8770 C   0  0  0  0  0  0  0  0  0  0  0  0
  -22.3750   -3.6180   21.7110 F   0  0  0  0  0  0  0  0  0  0  0  0
  -21.4700   -3.2650   26.3860 F   0  0  0  0  0  0  0  0  0  0  0  0
  -22.5380  -12.9160   21.2340 C   0  0  0  0  0  0  0  0  0  0  0  0
  -21.8840  -12.2210   22.1590 N   0  0  0  0  0  0  0  0  0  0  0  0
  -22.0400  -13.9180   20.7210 O   0  0  0  0  0  0  0  0  0  0  0  0
  -22.2980  -11.4110   22.5970 H   0  0  0  0  0  0  0  0  0  0  0  0
  -20.9550  -12.5040   22.4380 H   0  0  0  0  0  0  0  0  0  0  0  0
  -25.0690  -14.6300   20.2250 N   0  0  0  0  0  0  0  0  0  0  0  0
  -24.2910  -15.2600   20.3890 H   0  0  0  0  0  0  0  0  0  0  0  0
  -25.8740  -15.0870   19.8150 H   0  0  0  0  0  0  0  0  0  0  0  0
  -29.1740  -26.5960   20.8690 C   0  0  0  0  0  2  0  0  0  0  0  0
  -28.0740  -26.5010   19.9800 O   0  0  0  0  0  0  0  0  0  0  0  0
  -24.4190  -31.7690   23.2040 C   0  0  0  0  0  0  0  0  0  0  0  0
  -26.9920  -27.3420   20.0680 C   0  0  0  0  0  0  0  0  0  0  0  0
  -23.1920  -30.4240   21.5280 C   0  0  0  0  0  3  0  0  0  0  0  0
  -24.6250  -28.8820   20.0910 C   0  0  0  0  0  0  0  0  0  0  0  0
  -25.7260  -30.7360   21.3530 C   0  0  0  0  0  2  0  0  0  0  0  0
  -25.7910  -29.3740   20.6970 C   0  0  0  0  0  0  0  0  0  0  0  0
  -26.9800  -28.6120   20.6900 C   0  0  0  0  0  3  0  0  0  0  0  0
  -25.8130  -26.8640   19.4630 C   0  0  0  0  0  3  0  0  0  0  0  0
  -24.6300  -27.6220   19.4720 C   0  0  0  0  0  3  0  0  0  0  0  0
  -23.3980  -29.7640   20.1390 C   0  0  0  0  0  2  0  0  0  0  0  0
  -24.4640  -30.9880   22.0880 N   0  0  0  0  0  0  0  0  0  0  0  0
  -23.3410  -32.0570   23.7410 O   0  0  0  0  0  0  0  0  0  0  0  0
  -22.5100  -29.4020   22.4640 C   0  0  0  0  0  0  0  0  0  0  0  0
  -21.1790  -29.2780   22.3450 N   0  0  0  0  0  0  0  0  0  0  0  0
  -23.1750  -28.7230   23.2500 O   0  0  0  0  0  0  0  0  0  0  0  0
  -20.7040  -29.8750   21.6810 H   0  0  0  0  0  0  0  0  0  0  0  0
  -17.7550  -28.2510   22.8770 C   0  0  0  0  0  0  0  0  0  0  0  0
  -20.3290  -28.3540   23.0970 C   0  0  0  0  0  3  0  0  0  0  0  0
  -20.3380  -26.9460   22.4590 C   0  0  0  0  0  2  0  0  0  0  0  0
  -19.1970  -26.7290   21.4600 C   0  0  0  0  0  2  0  0  0  0  0  0
  -17.8410  -26.9230   22.1440 C   0  0  0  0  0  2  0  0  0  0  0  0
  -18.9250  -28.9310   23.3110 C   0  0  0  0  0  0  0  0  0  0  0  0
  -18.7910  -30.1800   23.9560 C   0  0  0  0  0  3  0  0  0  0  0  0
  -17.5220  -30.7460   24.1730 C   0  0  0  0  0  3  0  0  0  0  0  0
  -16.3670  -30.0620   23.7550 C   0  0  0  0  0  3  0  0  0  0  0  0
  -16.4850  -28.8160   23.1140 C   0  0  0  0  0  3  0  0  0  0  0  0
  -25.7170  -32.3540   23.8420 C   0  0  0  0  0  3  0  0  0  0  0  0
  -25.4440  -33.7550   24.1890 N   0  0  0  0  0  0  0  0  0  0  0  0
  -25.8160  -34.8070   23.4450 C   0  0  0  0  0  0  0  0  0  0  0  0
  -26.4960  -34.6980   22.4210 O   0  0  0  0  0  0  0  0  0  0  0  0
  -24.8460  -33.9160   24.9840 H   0  0  0  0  0  0  0  0  0  0  0  0
  -24.1350  -36.6450   23.0970 C   0  0  0  0  0  1  0  0  0  0  0  0
  -25.3590  -36.2020   23.9140 C   0  0  0  0  0  3  0  0  0  0  0  0
  -27.5100  -37.0210   24.7670 C   0  0  0  0  0  1  0  0  0  0  0  0
  -26.4190  -37.2300   23.8210 N   0  0  0  0  0  0  0  0  0  0  0  0
  -26.0350  -38.1570   23.9800 H   0  0  0  0  0  0  0  0  0  0  0  0
  -26.2060  -31.5480   25.1070 C   0  0  1  0  0  0  0  0  0  0  0  0
  -25.1000  -31.3210   26.1630 C   0  0  0  0  0  1  0  0  0  0  0  0
  -26.7570  -30.1630   24.6920 C   0  0  0  0  0  1  0  0  0  0  0  0
  -27.3710  -32.3020   25.7900 C   0  0  0  0  0  1  0  0  0  0  0  0
  1  3  1  0
  2  5  1  0
  3  5  2  0
  4  1  2  0
  4  6  1  0
  5  8  1  0
  6  2  2  0
  8  7  1  0
 10  9  1  0
 10  4  1  0
 11  3  1  0
 11 12  1  0
 13 14  1  0
 13 12  1  0
 15 24  1  0
 15 14  1  0
 16 24  1  0
 17 22  1  0
 18 19  1  0
 18 17  1  0
 20 19  1  0
 20 29  1  0
 20 21  1  0
 22 16  1  0
 22 21  1  0
 23 16  2  0
 24 25  1  0
 26 27  2  0
 27 46  1  0
 28 27  1  0
 28 31  1  0
 29 26  1  0
 29 30  1  0
 30 28  2  0
 31 32  1  0
 32 33  2  0
 34 37  1  0
 34 33  1  0
 35 34  2  0
 36 35  1  0
 36 31  2  0
 37 38  1  0
 38 39  1  0
 39 40  2  0
 41 40  1  0
 41 45  1  0
 42 41  2  0
 43 38  2  0
 43 42  1  0
 44 43  1  0
 46 47  1  0
 47 50  1  0
 47 49  1  0
 48 46  2  0
 51 52  1  0
 51 26  1  0
 53 51  1  0
 54  6  1  0
 55 57  1  0
 55 54  1  0
 56 67  2  0
 57 62  1  0
 58 66  1  0
 58 68  1  0
 59 65  1  0
 59 61  1  0
 60 66  1  0
 61 60  1  0
 62 61  2  0
 63 64  1  0
 63 57  2  0
 64 59  2  0
 65 58  1  0
 66 56  1  0
 68 70  2  0
 69 68  1  0
 71 69  1  0
 72 81  2  0
 72 77  1  0
 73 69  1  0
 73 77  1  0
 74 73  1  0
 75 76  1  0
 75 74  1  0
 76 72  1  0
 77 78  2  0
 78 79  1  0
 80 79  2  0
 81 80  1  0
 82 56  1  0
 82 83  1  0
 82 92  1  0
 83 86  1  0
 84 88  1  0
 84 83  1  0
 85 84  2  0
 88 87  1  0
 90 88  1  0
 90 91  1  0
 90 89  1  0
 92 95  1  1
 92 93  1  0
 94 92  1  0
M  ISO  4  16 100  24 100  54 101  55 101
M  END
>  <TORSDO>  (35) 
F 24

>  <SCORE>  (35) 
-11.376

>  <name>  (35) 
35

>  <ligand_id>  (35) 
35

>  <original_smiles>  (35) 
[H]c1c([H])c([H])c2c(c1[H])C([H])([H])C([H])([H])C([H])([H])C2([H])N([H])C(=O)C1([H])N(C(=O)C([H])(N([H])C(=O)C([H])(N([H])C([H])([H])[H])C([H])([H])[H])C(C([H])([H])[H])(C([H])([H])[H])C([H])([H])[H])C([H])([H])c2c([H])c(OC([H])([H])c3c([H])c(C([H])([H])C([H])([H])[H])c(C([H])([H])C([H])([H])C([H])([H])C([H])([H])C([H])([H])N([H])C(=O)N4C([H])([H])C([H])([H])C([H])([H])C([H])(n5nc(-c6c([H])c([H])c(Oc7c([H])c([H])c(F)c([H])c7F)c([H])c6[H])c(C(=O)N([H])[H])c5N([H])[H])C4([H])[H])c([H])c3C([H])([H])C([H])([H])[H])c([H])c([H])c2C1([H])[H]

>  <smiles>  (35) 
[H]c1c([H])c([H])c2c(c1[H])C([H])([H])C([H])([H])C([H])([H])C2([H])N([H])C(=O)C1([H])N(C(=O)C([H])(N([H])C(=O)C([H])(N([H])C([H])([H])[H])C([H])([H])[H])C(C([H])([H])[H])(C([H])([H])[H])C([H])([H])[H])C([H])([H])c2c([H])c(OC([H])([H])c3c([H])c(C([H])([H])C([H])([H])[H])c(C([H])([H])C([H])([H])C([H])([H])C([H])([H])C([H])([H])N([H])C(=O)N4C([H])([H])C([H])([H])C([H])([H])C([H])(n5nc(-c6c([H])c([H])c(Oc7c([H])c([H])c(F)c([H])c7F)c([H])c6[H])c(C(=O)N([H])[H])c5N([H])[H])C4([H])[H])c([H])c3C([H])([H])C([H])([H])[H])c([H])c([H])c2C1([H])[H]

$$$$
36:0:0
     RDKit          3D

 93102  0  0  1  0  0  0  0  0999 V2000
  -29.7870  -22.4740   20.8210 C   0  0  0  0  0  3  0  0  0  0  0  0
  -30.3380  -24.7150   21.5360 C   0  0  0  0  0  3  0  0  0  0  0  0
  -29.8550  -23.8550   20.5410 C   0  0  0  0  0  0  0  0  0  0  0  0
  -30.1710  -21.9990   22.0940 C   0  0  0  0  0  0  0  0  0  0  0  0
  -30.5820  -22.9660   23.0510 C   0  0  0  0  0  0  0  0  0  0  0  0
  -30.6980  -24.2790   22.7570 N   0  0  0  0  0  0  0  0  0  0  0  0
  -29.9550  -21.7820   25.3170 C   0  0  0  0  0  2  0  0  0  0  0  0
  -29.9730  -23.2620   25.5710 C   0  0  0  0  0  2  0  0  0  0  0  0
  -30.8710  -22.6690   24.4970 C   0  0  0  0  0  3  0  0  0  0  0  0
  -29.4100  -24.4180   19.1970 C   0  0  0  0  0  2  0  0  0  0  0  0
  -28.0480  -25.1370   19.2530 C   0  0  0  0  0  2  0  0  0  0  0  0
  -28.1020  -26.4300   19.8730 O   0  0  0  0  0  0  0  0  0  0  0  0
  -24.5010  -31.5890   23.2250 C   0  0  0  0  0  0  0  0  0  0  0  0
  -26.9360  -27.1800   19.9110 C   0  0  0  0  0  0  0  0  0  0  0  0
  -23.2120  -30.2800   21.5690 C   0  0  0  0  0  3  0  0  0  0  0  0
  -24.5820  -28.7570   20.0550 C   0  0  0  0  0  0  0  0  0  0  0  0
  -25.7450  -30.5680   21.3220 C   0  0  0  0  0  2  0  0  0  0  0  0
  -25.7720  -29.2220   20.6280 C   0  0  0  0  0  0  0  0  0  0  0  0
  -26.9500  -28.4410   20.5540 C   0  0  0  0  0  3  0  0  0  0  0  0
  -25.7200  -26.7350   19.3380 C   0  0  0  0  0  3  0  0  0  0  0  0
  -24.5520  -27.5110   19.4100 C   0  0  0  0  0  3  0  0  0  0  0  0
  -23.3650  -29.6430   20.1640 C   0  0  0  0  0  2  0  0  0  0  0  0
  -24.5060  -30.8250   22.0970 N   0  0  0  0  0  0  0  0  0  0  0  0
  -23.4420  -31.8760   23.8010 O   0  0  0  0  0  0  0  0  0  0  0  0
  -22.5540  -29.2460   22.5110 C   0  0  0  0  0  0  0  0  0  0  0  0
  -21.2360  -29.0440   22.3520 N   0  0  0  0  0  0  0  0  0  0  0  0
  -23.2280  -28.6270   23.3400 O   0  0  0  0  0  0  0  0  0  0  0  0
  -20.7520  -29.5980   21.6580 H   0  0  0  0  0  0  0  0  0  0  0  0
  -17.8890  -27.7310   22.6970 C   0  0  0  0  0  0  0  0  0  0  0  0
  -20.4170  -28.0910   23.0990 C   0  0  0  0  0  3  0  0  0  0  0  0
  -20.6010  -26.6530   22.5590 C   0  0  0  0  0  2  0  0  0  0  0  0
  -19.5670  -26.2680   21.4960 C   0  0  0  0  0  2  0  0  0  0  0  0
  -18.1490  -26.3750   22.0640 C   0  0  0  0  0  2  0  0  0  0  0  0
  -18.9530  -28.5420   23.1700 C   0  0  0  0  0  0  0  0  0  0  0  0
  -18.6580  -29.8090   23.7180 C   0  0  0  0  0  3  0  0  0  0  0  0
  -17.3290  -30.2660   23.7990 C   0  0  0  0  0  3  0  0  0  0  0  0
  -16.2760  -29.4520   23.3460 C   0  0  0  0  0  3  0  0  0  0  0  0
  -16.5570  -28.1850   22.8010 C   0  0  0  0  0  3  0  0  0  0  0  0
  -25.8210  -32.1560   23.8320 C   0  0  0  0  0  3  0  0  0  0  0  0
  -25.5500  -33.5310   24.2740 N   0  0  0  0  0  0  0  0  0  0  0  0
  -25.8740  -34.6290   23.5810 C   0  0  0  0  0  0  0  0  0  0  0  0
  -26.5070  -34.5910   22.5220 O   0  0  0  0  0  0  0  0  0  0  0  0
  -24.9840  -33.6350   25.1040 H   0  0  0  0  0  0  0  0  0  0  0  0
  -24.1680  -36.4680   23.4130 C   0  0  0  0  0  1  0  0  0  0  0  0
  -25.4260  -35.9880   24.1540 C   0  0  0  0  0  3  0  0  0  0  0  0
  -27.5990  -36.7780   24.9820 C   0  0  0  0  0  1  0  0  0  0  0  0
  -26.4740  -37.0300   24.0850 N   0  0  0  0  0  0  0  0  0  0  0  0
  -26.0880  -37.9440   24.3080 H   0  0  0  0  0  0  0  0  0  0  0  0
  -26.3810  -31.2830   25.0220 C   0  0  1  0  0  0  0  0  0  0  0  0
  -25.3310  -30.9730   26.1150 C   0  0  0  0  0  1  0  0  0  0  0  0
  -26.9270  -29.9330   24.5020 C   0  0  0  0  0  1  0  0  0  0  0  0
  -27.5660  -32.0140   25.6940 C   0  0  0  0  0  1  0  0  0  0  0  0
  -30.0610  -20.5000   22.4330 C   0  0  0  0  0  2  0  0  0  0  0  0
  -30.5850  -19.4980   21.3640 C   0  0  0  0  0  2  0  0  0  0  0  0
  -30.4980  -18.0180   21.8310 C   0  0  0  0  0  2  0  0  0  0  0  0
  -30.9380  -16.9580   20.7760 C   0  0  0  0  0  2  0  0  0  0  0  0
  -30.5870  -15.4850   21.1620 C   0  0  0  0  0  2  0  0  0  0  0  0
  -31.1320  -14.3700   20.2160 C   0  0  0  0  0  0  0  0  0  0  0  0
  -30.7580  -12.2560   18.9590 C   0  0  0  0  0  2  0  0  0  0  0  0
  -29.7960  -12.5080   17.7820 C   0  0  0  0  0  2  0  0  0  0  0  0
  -28.3270  -12.3940   18.2380 C   0  0  0  0  0  2  0  0  0  0  0  0
  -28.0410  -13.2190   19.5210 C   0  0  0  0  0  3  0  0  0  0  0  0
  -29.1060  -12.9250   20.6020 C   0  0  0  0  0  2  0  0  0  0  0  0
  -30.4270  -13.2190   20.0260 N   0  0  0  0  0  0  0  0  0  0  0  0
  -32.1990  -14.5730   19.6250 O   0  0  0  0  0  0  0  0  0  0  0  0
  -25.6730  -13.9090   20.2610 C   0  0  0  0  0  0  0  0  0  0  0  0
  -24.5860  -13.1740   20.6520 C   0  0  0  0  0  0  0  0  0  0  0  0
  -25.0000  -11.8080   20.6140 C   0  0  0  0  0  0  0  0  0  0  0  0
  -26.6860  -12.9940   20.0170 N   0  0  0  0  0  0  0  0  0  0  0  0
  -26.2840  -11.7260   20.2850 N   0  0  0  0  0  0  0  0  0  0  0  0
  -24.2340  -10.5700   20.8170 C   0  0  0  0  0  0  0  0  0  0  0  0
  -24.6080   -9.6240   21.7980 C   0  0  0  0  0  3  0  0  0  0  0  0
  -23.8460   -8.4520   21.9890 C   0  0  0  0  0  3  0  0  0  0  0  0
  -22.6950   -8.2170   21.1980 C   0  0  0  0  0  0  0  0  0  0  0  0
  -22.3420   -9.1500   20.2070 C   0  0  0  0  0  3  0  0  0  0  0  0
  -23.1050  -10.3130   20.0140 C   0  0  0  0  0  3  0  0  0  0  0  0
  -21.9100   -7.0950   21.2960 O   0  0  0  0  0  0  0  0  0  0  0  0
  -21.7320   -6.4430   22.4900 C   0  0  0  0  0  0  0  0  0  0  0  0
  -21.2100   -7.0970   23.6280 C   0  0  0  0  0  3  0  0  0  0  0  0
  -20.9780   -6.3700   24.8130 C   0  0  0  0  0  3  0  0  0  0  0  0
  -21.2570   -4.9910   24.8590 C   0  0  0  0  0  0  0  0  0  0  0  0
  -21.7720   -4.3370   23.7260 C   0  0  0  0  0  3  0  0  0  0  0  0
  -22.0060   -5.0610   22.5440 C   0  0  0  0  0  0  0  0  0  0  0  0
  -22.4790   -4.4230   21.4480 F   0  0  0  0  0  0  0  0  0  0  0  0
  -21.0300   -4.2910   25.9950 F   0  0  0  0  0  0  0  0  0  0  0  0
  -23.2100  -13.6960   20.9500 C   0  0  0  0  0  0  0  0  0  0  0  0
  -22.4820  -13.0370   21.8440 N   0  0  0  0  0  0  0  0  0  0  0  0
  -22.7890  -14.7250   20.4220 O   0  0  0  0  0  0  0  0  0  0  0  0
  -22.8320  -12.2050   22.2970 H   0  0  0  0  0  0  0  0  0  0  0  0
  -21.5540  -13.3660   22.0740 H   0  0  0  0  0  0  0  0  0  0  0  0
  -25.8810  -15.2740   20.0780 N   0  0  0  0  0  0  0  0  0  0  0  0
  -25.1400  -15.9550   20.2100 H   0  0  0  0  0  0  0  0  0  0  0  0
  -26.7440  -15.6940   19.7560 H   0  0  0  0  0  0  0  0  0  0  0  0
  1  4  1  0
  2  6  2  0
  3  1  2  0
  3  2  1  0
  4 53  1  0
  4  5  2  0
  5  9  1  0
  6  5  1  0
  7  8  1  0
  9  7  1  0
  9  8  1  0
 10 11  1  0
 10  3  1  0
 11 12  1  0
 12 14  1  0
 13 24  2  0
 14 19  1  0
 15 23  1  0
 15 25  1  0
 16 22  1  0
 16 18  1  0
 17 23  1  0
 18 17  1  0
 19 18  2  0
 20 21  1  0
 20 14  2  0
 21 16  2  0
 22 15  1  0
 23 13  1  0
 25 27  2  0
 26 25  1  0
 28 26  1  0
 29 38  2  0
 29 34  1  0
 30 26  1  0
 30 34  1  0
 31 30  1  0
 32 33  1  0
 32 31  1  0
 33 29  1  0
 34 35  2  0
 35 36  1  0
 37 36  2  0
 38 37  1  0
 39 13  1  0
 39 40  1  0
 39 49  1  0
 40 43  1  0
 41 45  1  0
 41 40  1  0
 42 41  2  0
 45 44  1  0
 47 45  1  0
 47 48  1  0
 47 46  1  0
 49 52  1  1
 49 50  1  0
 51 49  1  0
 54 55  1  0
 54 53  1  0
 56 57  1  0
 56 55  1  0
 58 57  1  0
 59 64  1  0
 60 61  1  0
 60 59  1  0
 62 61  1  0
 62 69  1  0
 62 63  1  0
 64 58  1  0
 64 63  1  0
 65 58  2  0
 66 67  2  0
 67 86  1  0
 68 67  1  0
 68 71  1  0
 69 66  1  0
 69 70  1  0
 70 68  2  0
 71 72  1  0
 72 73  2  0
 74 77  1  0
 74 73  1  0
 75 74  2  0
 76 75  1  0
 76 71  2  0
 77 78  1  0
 78 83  2  0
 78 79  1  0
 79 80  2  0
 80 81  1  0
 81 85  1  0
 82 81  2  0
 83 82  1  0
 84 83  1  0
 86 87  1  0
 87 90  1  0
 87 89  1  0
 88 86  2  0
 91 92  1  0
 91 66  1  0
 93 91  1  0
M  ISO  4  11 101  12 101  57 100  58 100
M  END
>  <TORSDO>  (36) 
F 24

>  <SCORE>  (36) 
-8.411

>  <name>  (36) 
36

>  <ligand_id>  (36) 
36

>  <original_smiles>  (36) 
[H]c1nc(C2([H])C([H])([H])C2([H])[H])c(C([H])([H])C([H])([H])C([H])([H])C([H])([H])C([H])([H])C(=O)N2C([H])([H])C([H])([H])C([H])([H])C([H])(n3nc(-c4c([H])c([H])c(Oc5c([H])c([H])c(F)c([H])c5F)c([H])c4[H])c(C(=O)N([H])[H])c3N([H])[H])C2([H])[H])c([H])c1C([H])([H])C([H])([H])Oc1c([H])c([H])c2c(c1[H])C([H])([H])N(C(=O)C([H])(N([H])C(=O)C([H])(N([H])C([H])([H])[H])C([H])([H])[H])C(C([H])([H])[H])(C([H])([H])[H])C([H])([H])[H])C([H])(C(=O)N([H])C1([H])c3c([H])c([H])c([H])c([H])c3C([H])([H])C([H])([H])C1([H])[H])C2([H])[H]

>  <smiles>  (36) 
[H]c1nc(C2([H])C([H])([H])C2([H])[H])c(C([H])([H])C([H])([H])C([H])([H])C([H])([H])C([H])([H])C(=O)N2C([H])([H])C([H])([H])C([H])([H])C([H])(n3nc(-c4c([H])c([H])c(Oc5c([H])c([H])c(F)c([H])c5F)c([H])c4[H])c(C(=O)N([H])[H])c3N([H])[H])C2([H])[H])c([H])c1C([H])([H])C([H])([H])Oc1c([H])c([H])c2c(c1[H])C([H])([H])N(C(=O)C([H])(N([H])C(=O)C([H])(N([H])C([H])([H])[H])C([H])([H])[H])C(C([H])([H])[H])(C([H])([H])[H])C([H])([H])[H])C([H])(C(=O)N([H])C1([H])c3c([H])c([H])c([H])c([H])c3C([H])([H])C([H])([H])C1([H])[H])C2([H])[H]

$$$$
37:0:0
     RDKit          3D

 91 99  0  0  1  0  0  0  0  0999 V2000
  -28.4630  -21.8250   20.4370 C   0  0  0  0  0  0  0  0  0  0  0  0
  -28.7990  -22.9190   19.5790 C   0  0  0  0  0  0  0  0  0  0  0  0
  -29.2130  -20.7260   20.0780 C   0  0  0  0  0  0  0  0  0  0  0  0
  -30.9390  -20.5100   18.1650 C   0  0  0  0  0  1  0  0  0  0  0  0
  -29.7540  -22.5190   18.7460 N   0  0  0  0  0  0  0  0  0  0  0  0
  -29.9840  -21.2000   19.0140 N   0  0  0  0  0  0  0  0  0  0  0  0
  -27.2580  -21.8600   21.6740 Cl  0  0  0  0  0  0  0  0  0  0  0  0
  -28.1840  -24.3220   19.4180 C   0  0  0  0  0  2  0  0  0  0  0  0
  -28.5950  -25.4170   20.4530 C   0  0  0  0  0  2  0  0  0  0  0  0
  -28.5360  -26.8130   20.0360 O   0  0  0  0  0  0  0  0  0  0  0  0
  -24.6090  -31.9010   23.2160 C   0  0  0  0  0  0  0  0  0  0  0  0
  -27.3410  -27.5140   20.0910 C   0  0  0  0  0  0  0  0  0  0  0  0
  -23.4380  -30.5100   21.5410 C   0  0  0  0  0  3  0  0  0  0  0  0
  -24.9260  -29.0110   20.1060 C   0  0  0  0  0  0  0  0  0  0  0  0
  -25.9640  -30.9020   21.3700 C   0  0  0  0  0  2  0  0  0  0  0  0
  -26.0750  -29.5390   20.7090 C   0  0  0  0  0  0  0  0  0  0  0  0
  -27.2860  -28.8000   20.6910 C   0  0  0  0  0  3  0  0  0  0  0  0
  -26.1720  -27.0100   19.4830 C   0  0  0  0  0  3  0  0  0  0  0  0
  -24.9730  -27.7500   19.4870 C   0  0  0  0  0  3  0  0  0  0  0  0
  -23.6710  -29.8560   20.1520 C   0  0  0  0  0  2  0  0  0  0  0  0
  -24.6890  -31.1200   22.1010 N   0  0  0  0  0  0  0  0  0  0  0  0
  -23.5200  -32.1470   23.7520 O   0  0  0  0  0  0  0  0  0  0  0  0
  -22.7930  -29.4630   22.4790 C   0  0  0  0  0  0  0  0  0  0  0  0
  -21.4750  -29.2560   22.3330 N   0  0  0  0  0  0  0  0  0  0  0  0
  -23.4800  -28.8400   23.2940 O   0  0  0  0  0  0  0  0  0  0  0  0
  -20.9810  -29.8130   21.6490 H   0  0  0  0  0  0  0  0  0  0  0  0
  -18.1210  -27.9810   22.7700 C   0  0  0  0  0  0  0  0  0  0  0  0
  -20.6680  -28.2910   23.0800 C   0  0  0  0  0  3  0  0  0  0  0  0
  -20.8100  -26.8700   22.4850 C   0  0  0  0  0  2  0  0  0  0  0  0
  -19.7290  -26.5380   21.4510 C   0  0  0  0  0  2  0  0  0  0  0  0
  -18.3360  -26.6450   22.0770 C   0  0  0  0  0  2  0  0  0  0  0  0
  -19.2170  -28.7600   23.2250 C   0  0  0  0  0  0  0  0  0  0  0  0
  -18.9620  -30.0110   23.8310 C   0  0  0  0  0  3  0  0  0  0  0  0
  -17.6450  -30.4820   23.9840 C   0  0  0  0  0  3  0  0  0  0  0  0
  -16.5640  -29.6990   23.5440 C   0  0  0  0  0  3  0  0  0  0  0  0
  -16.8020  -28.4500   22.9430 C   0  0  0  0  0  3  0  0  0  0  0  0
  -25.8790  -32.5440   23.8570 C   0  0  0  0  0  3  0  0  0  0  0  0
  -25.5590  -33.9420   24.1710 N   0  0  0  0  0  0  0  0  0  0  0  0
  -25.8960  -34.9900   23.4060 C   0  0  0  0  0  0  0  0  0  0  0  0
  -26.5800  -34.8810   22.3850 O   0  0  0  0  0  0  0  0  0  0  0  0
  -24.9570  -34.1020   24.9650 H   0  0  0  0  0  0  0  0  0  0  0  0
  -24.1700  -36.7740   23.0000 C   0  0  0  0  0  1  0  0  0  0  0  0
  -25.3930  -36.3790   23.8430 C   0  0  0  0  0  3  0  0  0  0  0  0
  -27.5000  -37.2820   24.7220 C   0  0  0  0  0  1  0  0  0  0  0  0
  -26.4250  -37.4360   23.7470 N   0  0  0  0  0  0  0  0  0  0  0  0
  -26.0110  -38.3560   23.8720 H   0  0  0  0  0  0  0  0  0  0  0  0
  -26.3760  -31.7840   25.1470 C   0  0  1  0  0  0  0  0  0  0  0  0
  -25.2650  -31.5430   26.1950 C   0  0  0  0  0  1  0  0  0  0  0  0
  -26.9770  -30.4090   24.7720 C   0  0  0  0  0  1  0  0  0  0  0  0
  -27.5090  -32.5890   25.8260 C   0  0  0  0  0  1  0  0  0  0  0  0
  -29.1870  -19.2980   20.6570 C   0  0  0  0  0  2  0  0  0  0  0  0
  -30.3000  -18.2510   20.2900 C   0  0  0  0  0  2  0  0  0  0  0  0
  -30.5090  -17.0380   21.2650 C   0  0  0  0  0  2  0  0  0  0  0  0
  -30.7520  -14.6960   20.2850 C   0  0  0  0  0  0  0  0  0  0  0  0
  -30.4720  -12.5480   19.0900 C   0  0  0  0  0  2  0  0  0  0  0  0
  -29.4930  -12.7440   17.9150 C   0  0  0  0  0  2  0  0  0  0  0  0
  -28.0310  -12.5820   18.3800 C   0  0  0  0  0  2  0  0  0  0  0  0
  -27.7190  -13.3890   19.6710 C   0  0  0  0  0  3  0  0  0  0  0  0
  -28.8060  -13.1590   20.7420 C   0  0  0  0  0  2  0  0  0  0  0  0
  -30.1010  -13.5090   20.1400 N   0  0  0  0  0  0  0  0  0  0  0  0
  -31.8870  -14.8890   19.8380 O   0  0  0  0  0  0  0  0  0  0  0  0
  -30.0270  -15.7040   20.8300 N   0  0  0  0  0  0  0  0  0  0  0  0
  -29.0830  -15.4630   21.0930 H   0  0  0  0  0  0  0  0  0  0  0  0
  -25.3360  -13.9610   20.4490 C   0  0  0  0  0  0  0  0  0  0  0  0
  -24.2860  -13.1730   20.8370 C   0  0  0  0  0  0  0  0  0  0  0  0
  -24.7620  -11.8270   20.7820 C   0  0  0  0  0  0  0  0  0  0  0  0
  -26.3830  -13.0930   20.1820 N   0  0  0  0  0  0  0  0  0  0  0  0
  -26.0440  -11.8040   20.4410 N   0  0  0  0  0  0  0  0  0  0  0  0
  -24.0540  -10.5550   20.9790 C   0  0  0  0  0  0  0  0  0  0  0  0
  -24.5030   -9.6000   21.9170 C   0  0  0  0  0  3  0  0  0  0  0  0
  -23.7960   -8.3930   22.1010 C   0  0  0  0  0  3  0  0  0  0  0  0
  -22.6270   -8.1310   21.3470 C   0  0  0  0  0  0  0  0  0  0  0  0
  -22.1980   -9.0770   20.3980 C   0  0  0  0  0  3  0  0  0  0  0  0
  -22.9050  -10.2750   20.2120 C   0  0  0  0  0  3  0  0  0  0  0  0
  -21.8910   -6.9760   21.4390 O   0  0  0  0  0  0  0  0  0  0  0  0
  -21.8370   -6.2480   22.6010 C   0  0  0  0  0  0  0  0  0  0  0  0
  -21.3470   -6.8020   23.8050 C   0  0  0  0  0  3  0  0  0  0  0  0
  -21.2440   -5.9980   24.9580 C   0  0  0  0  0  3  0  0  0  0  0  0
  -21.6190   -4.6420   24.9090 C   0  0  0  0  0  0  0  0  0  0  0  0
  -22.1010   -4.0880   23.7090 C   0  0  0  0  0  3  0  0  0  0  0  0
  -22.2070   -4.8890   22.5590 C   0  0  0  0  0  0  0  0  0  0  0  0
  -22.6510   -4.3440   21.4000 F   0  0  0  0  0  0  0  0  0  0  0  0
  -21.5120   -3.8680   26.0140 F   0  0  0  0  0  0  0  0  0  0  0  0
  -22.8910  -13.6320   21.1480 C   0  0  0  0  0  0  0  0  0  0  0  0
  -22.1910  -12.9180   22.0210 N   0  0  0  0  0  0  0  0  0  0  0  0
  -22.4300  -14.6580   20.6490 O   0  0  0  0  0  0  0  0  0  0  0  0
  -22.5790  -12.0880   22.4470 H   0  0  0  0  0  0  0  0  0  0  0  0
  -21.2540  -13.2030   22.2670 H   0  0  0  0  0  0  0  0  0  0  0  0
  -25.4800  -15.3350   20.2790 N   0  0  0  0  0  0  0  0  0  0  0  0
  -24.7120  -15.9800   20.4260 H   0  0  0  0  0  0  0  0  0  0  0  0
  -26.3100  -15.7870   19.9140 H   0  0  0  0  0  0  0  0  0  0  0  0
  1  7  1  0
  2  1  1  0
  3  1  2  0
  3 51  1  0
  4  6  1  0
  5  6  1  0
  5  2  2  0
  6  3  1  0
  8  2  1  0
  8  9  1  0
 10 12  1  0
 10  9  1  0
 11 22  2  0
 12 17  1  0
 13 21  1  0
 13 23  1  0
 14 20  1  0
 14 16  1  0
 15 21  1  0
 16 15  1  0
 17 16  2  0
 18 19  1  0
 18 12  2  0
 19 14  2  0
 20 13  1  0
 21 11  1  0
 23 25  2  0
 24 23  1  0
 26 24  1  0
 27 36  2  0
 27 32  1  0
 28 24  1  0
 28 32  1  0
 29 28  1  0
 30 31  1  0
 30 29  1  0
 31 27  1  0
 32 33  2  0
 33 34  1  0
 35 34  2  0
 36 35  1  0
 37 11  1  0
 37 38  1  0
 37 47  1  0
 38 41  1  0
 39 43  1  0
 39 38  1  0
 40 39  2  0
 43 42  1  0
 45 43  1  0
 45 46  1  0
 45 44  1  0
 47 50  1  1
 47 48  1  0
 49 47  1  0
 52 51  1  0
 52 53  1  0
 54 62  1  0
 55 60  1  0
 56 57  1  0
 56 55  1  0
 58 57  1  0
 58 67  1  0
 58 59  1  0
 60 54  1  0
 60 59  1  0
 61 54  2  0
 62 63  1  0
 62 53  1  0
 64 65  2  0
 65 84  1  0
 66 65  1  0
 66 69  1  0
 67 68  1  0
 67 64  1  0
 68 66  2  0
 69 70  1  0
 70 71  2  0
 72 75  1  0
 72 71  1  0
 73 72  2  0
 74 73  1  0
 74 69  2  0
 75 76  1  0
 76 77  1  0
 77 78  2  0
 79 78  1  0
 79 83  1  0
 80 79  2  0
 81 76  2  0
 81 80  1  0
 82 81  1  0
 84 85  1  0
 85 88  1  0
 85 87  1  0
 86 84  2  0
 89 90  1  0
 89 64  1  0
 91 89  1  0
M  ISO  4   9 101  10 101  54 100  62 100
M  END
>  <TORSDO>  (37) 
F 21

>  <SCORE>  (37) 
-13.042

>  <name>  (37) 
37

>  <ligand_id>  (37) 
37

>  <original_smiles>  (37) 
[H]c1c([H])c([H])c2c(c1[H])C([H])([H])C([H])([H])C([H])([H])C2([H])N([H])C(=O)C1([H])N(C(=O)C([H])(N([H])C(=O)C([H])(N([H])C([H])([H])[H])C([H])([H])[H])C(C([H])([H])[H])(C([H])([H])[H])C([H])([H])[H])C([H])([H])c2c([H])c(OC([H])([H])C([H])([H])c3nn(C([H])([H])[H])c(C([H])([H])C([H])([H])C([H])([H])N([H])C(=O)N4C([H])([H])C([H])([H])C([H])([H])C([H])(n5nc(-c6c([H])c([H])c(Oc7c([H])c([H])c(F)c([H])c7F)c([H])c6[H])c(C(=O)N([H])[H])c5N([H])[H])C4([H])[H])c3Cl)c([H])c([H])c2C1([H])[H]

>  <smiles>  (37) 
[H]c1c([H])c([H])c2c(c1[H])C([H])([H])C([H])([H])C([H])([H])C2([H])N([H])C(=O)C1([H])N(C(=O)C([H])(N([H])C(=O)C([H])(N([H])C([H])([H])[H])C([H])([H])[H])C(C([H])([H])[H])(C([H])([H])[H])C([H])([H])[H])C([H])([H])c2c([H])c(OC([H])([H])C([H])([H])c3nn(C([H])([H])[H])c(C([H])([H])C([H])([H])C([H])([H])N([H])C(=O)N4C([H])([H])C([H])([H])C([H])([H])C([H])(n5nc(-c6c([H])c([H])c(Oc7c([H])c([H])c(F)c([H])c7F)c([H])c6[H])c(C(=O)N([H])[H])c5N([H])[H])C4([H])[H])c3Cl)c([H])c([H])c2C1([H])[H]

$$$$
38:0:0
     RDKit          3D

 96105  0  0  1  0  0  0  0  0999 V2000
  -32.7710  -25.0050   19.2940 C   0  0  0  0  0  3  0  0  0  0  0  0
  -31.5010  -25.2950   19.8750 C   0  0  0  0  0  0  0  0  0  0  0  0
  -31.6130  -25.9700   21.0610 C   0  0  0  0  0  0  0  0  0  0  0  0
  -33.8280  -25.4620   20.0420 C   0  0  0  0  0  0  0  0  0  0  0  0
  -30.1670  -24.9310   19.2830 C   0  0  0  0  0  2  0  0  0  0  0  0
  -30.4710  -26.3980   21.9230 C   0  0  0  0  0  2  0  0  0  0  0  0
  -29.0160  -25.0410   20.3080 C   0  0  0  0  0  2  0  0  0  0  0  0
  -29.1120  -26.3000   21.1970 C   0  0  0  0  0  3  0  0  0  0  0  0
  -33.2750  -26.2750   21.4840 S   0  0  0  0  0  0  0  0  0  0  0  0
  -35.2860  -25.3190   19.7420 C   0  0  0  0  0  2  0  0  0  0  0  0
  -35.8110  -23.8750   19.8200 C   0  0  0  0  0  2  0  0  0  0  0  0
  -34.9530  -22.8630   19.0430 C   0  0  0  0  0  2  0  0  0  0  0  0
  -35.4400  -21.4110   19.1890 C   0  0  0  0  0  2  0  0  0  0  0  0
  -34.4360  -20.3990   18.6090 C   0  0  0  0  0  2  0  0  0  0  0  0
  -33.2620  -20.1130   19.5610 C   0  0  0  0  0  2  0  0  0  0  0  0
  -32.2090  -19.1760   18.9520 C   0  0  0  0  0  2  0  0  0  0  0  0
  -31.2620  -18.5770   20.0050 C   0  0  0  0  0  2  0  0  0  0  0  0
  -30.1900  -17.6550   19.3880 C   0  0  0  0  0  2  0  0  0  0  0  0
  -29.8810  -16.3800   20.2140 C   0  0  0  0  0  2  0  0  0  0  0  0
  -30.7790  -15.1560   19.9120 C   0  0  0  0  0  0  0  0  0  0  0  0
  -30.8110  -12.7370   19.4220 C   0  0  0  0  0  2  0  0  0  0  0  0
  -29.8940  -12.4450   18.2130 C   0  0  0  0  0  2  0  0  0  0  0  0
  -28.4300  -12.2640   18.6590 C   0  0  0  0  0  2  0  0  0  0  0  0
  -27.9450  -13.3950   19.6040 C   0  0  0  0  0  3  0  0  0  0  0  0
  -28.9700  -13.6310   20.7360 C   0  0  0  0  0  2  0  0  0  0  0  0
  -30.2740  -13.9140   20.1180 N   0  0  0  0  0  0  0  0  0  0  0  0
  -31.8820  -15.3390   19.3850 O   0  0  0  0  0  0  0  0  0  0  0  0
  -25.5750  -13.9960   20.4070 C   0  0  0  0  0  0  0  0  0  0  0  0
  -24.5220  -13.2170   20.8060 C   0  0  0  0  0  0  0  0  0  0  0  0
  -24.9810  -11.8660   20.7360 C   0  0  0  0  0  0  0  0  0  0  0  0
  -26.6100  -13.1170   20.1250 N   0  0  0  0  0  0  0  0  0  0  0  0
  -26.2580  -11.8310   20.3770 N   0  0  0  0  0  0  0  0  0  0  0  0
  -24.2650  -10.5990   20.9340 C   0  0  0  0  0  0  0  0  0  0  0  0
  -24.6570   -9.6770   21.9280 C   0  0  0  0  0  3  0  0  0  0  0  0
  -23.9400   -8.4740   22.1100 C   0  0  0  0  0  3  0  0  0  0  0  0
  -22.8180   -8.1870   21.2980 C   0  0  0  0  0  0  0  0  0  0  0  0
  -22.4460   -9.1010   20.2950 C   0  0  0  0  0  3  0  0  0  0  0  0
  -23.1640  -10.2940   20.1110 C   0  0  0  0  0  3  0  0  0  0  0  0
  -22.0800   -7.0320   21.3830 O   0  0  0  0  0  0  0  0  0  0  0  0
  -21.8920   -6.3860   22.5780 C   0  0  0  0  0  0  0  0  0  0  0  0
  -21.2720   -7.0190   23.6780 C   0  0  0  0  0  3  0  0  0  0  0  0
  -21.0360   -6.2970   24.8640 C   0  0  0  0  0  3  0  0  0  0  0  0
  -21.4100   -4.9430   24.9520 C   0  0  0  0  0  0  0  0  0  0  0  0
  -22.0230   -4.3100   23.8560 C   0  0  0  0  0  3  0  0  0  0  0  0
  -22.2600   -5.0290   22.6710 C   0  0  0  0  0  0  0  0  0  0  0  0
  -22.8320   -4.4080   21.6120 F   0  0  0  0  0  0  0  0  0  0  0  0
  -21.1760   -4.2460   26.0890 F   0  0  0  0  0  0  0  0  0  0  0  0
  -23.1360  -13.6880   21.1400 C   0  0  0  0  0  0  0  0  0  0  0  0
  -22.4550  -12.9910   22.0420 N   0  0  0  0  0  0  0  0  0  0  0  0
  -22.6660  -14.7080   20.6360 O   0  0  0  0  0  0  0  0  0  0  0  0
  -22.8490  -12.1610   22.4620 H   0  0  0  0  0  0  0  0  0  0  0  0
  -21.5300  -13.2880   22.3190 H   0  0  0  0  0  0  0  0  0  0  0  0
  -25.7330  -15.3680   20.2460 N   0  0  0  0  0  0  0  0  0  0  0  0
  -24.9730  -16.0200   20.4020 H   0  0  0  0  0  0  0  0  0  0  0  0
  -26.5790  -15.8130   19.9110 H   0  0  0  0  0  0  0  0  0  0  0  0
  -28.9540  -27.4530   20.3600 O   0  0  0  0  0  0  0  0  0  0  0  0
  -24.6270  -32.1420   23.4610 C   0  0  0  0  0  0  0  0  0  0  0  0
  -27.7090  -28.0340   20.3600 C   0  0  0  0  0  0  0  0  0  0  0  0
  -23.5660  -30.6240   21.8190 C   0  0  0  0  0  3  0  0  0  0  0  0
  -25.1670  -29.2580   20.3820 C   0  0  0  0  0  0  0  0  0  0  0  0
  -26.0350  -31.2580   21.6080 C   0  0  0  0  0  2  0  0  0  0  0  0
  -26.2630  -29.9070   20.9640 C   0  0  0  0  0  0  0  0  0  0  0  0
  -27.5380  -29.3030   20.9480 C   0  0  0  0  0  3  0  0  0  0  0  0
  -26.6000  -27.3950   19.7610 C   0  0  0  0  0  3  0  0  0  0  0  0
  -25.3300  -27.9990   19.7760 C   0  0  0  0  0  3  0  0  0  0  0  0
  -23.8380  -29.9740   20.4360 C   0  0  0  0  0  2  0  0  0  0  0  0
  -24.7590  -31.3560   22.3540 N   0  0  0  0  0  0  0  0  0  0  0  0
  -23.5250  -32.2960   24.0080 O   0  0  0  0  0  0  0  0  0  0  0  0
  -23.0350  -29.5370   22.7780 C   0  0  0  0  0  0  0  0  0  0  0  0
  -21.7970  -29.0770   22.5330 N   0  0  0  0  0  0  0  0  0  0  0  0
  -23.7360  -29.1070   23.6980 O   0  0  0  0  0  0  0  0  0  0  0  0
  -21.2860  -29.4850   21.7620 H   0  0  0  0  0  0  0  0  0  0  0  0
  -18.7800  -27.0950   22.6450 C   0  0  0  0  0  0  0  0  0  0  0  0
  -21.1050  -28.0290   23.2800 C   0  0  0  0  0  3  0  0  0  0  0  0
  -21.6530  -26.6300   22.9130 C   0  0  0  0  0  2  0  0  0  0  0  0
  -20.8680  -25.9490   21.7890 C   0  0  0  0  0  2  0  0  0  0  0  0
  -19.3970  -25.7850   22.1840 C   0  0  0  0  0  2  0  0  0  0  0  0
  -19.5840  -28.1540   23.1450 C   0  0  0  0  0  0  0  0  0  0  0  0
  -18.9620  -29.3630   23.5260 C   0  0  0  0  0  3  0  0  0  0  0  0
  -17.5680  -29.5220   23.4190 C   0  0  0  0  0  3  0  0  0  0  0  0
  -16.7760  -28.4650   22.9400 C   0  0  0  0  0  3  0  0  0  0  0  0
  -17.3810  -27.2540   22.5570 C   0  0  0  0  0  3  0  0  0  0  0  0
  -25.8430  -32.9020   24.0770 C   0  0  0  0  0  3  0  0  0  0  0  0
  -26.4240  -32.2040   25.3690 C   0  0  1  0  0  0  0  0  0  0  0  0
  -25.3460  -31.8490   26.4190 C   0  0  0  0  0  1  0  0  0  0  0  0
  -27.1680  -30.9010   24.9950 C   0  0  0  0  0  1  0  0  0  0  0  0
  -27.4630  -33.1300   26.0420 C   0  0  0  0  0  1  0  0  0  0  0  0
  -25.4020  -34.2700   24.3780 N   0  0  0  0  0  0  0  0  0  0  0  0
  -25.6920  -35.3430   23.6300 C   0  0  0  0  0  0  0  0  0  0  0  0
  -26.4270  -35.2920   22.6410 O   0  0  0  0  0  0  0  0  0  0  0  0
  -24.7520  -34.3780   25.1430 H   0  0  0  0  0  0  0  0  0  0  0  0
  -23.8560  -36.9910   23.1430 C   0  0  0  0  0  1  0  0  0  0  0  0
  -25.0630  -36.6870   24.0440 C   0  0  0  0  0  3  0  0  0  0  0  0
  -27.0620  -37.7310   25.0130 C   0  0  0  0  0  1  0  0  0  0  0  0
  -26.0140  -37.8190   24.0000 N   0  0  0  0  0  0  0  0  0  0  0  0
  -25.5270  -38.7030   24.1250 H   0  0  0  0  0  0  0  0  0  0  0  0
  1  2  1  0
  1  4  2  0
  2  3  2  0
  3  9  1  0
  3  6  1  0
  4  9  1  0
  5  2  1  0
  5  7  1  0
  7  8  1  0
  8 56  1  0
  8  6  1  0
 10 11  1  0
 10  4  1  0
 12 13  1  0
 12 11  1  0
 14 13  1  0
 14 15  1  0
 16 15  1  0
 16 17  1  0
 18 17  1  0
 18 19  1  0
 20 26  1  0
 20 19  1  0
 21 26  1  0
 22 23  1  0
 22 21  1  0
 24 23  1  0
 24 31  1  0
 24 25  1  0
 26 25  1  0
 27 20  2  0
 28 29  2  0
 29 48  1  0
 30 29  1  0
 30 33  1  0
 31 32  1  0
 31 28  1  0
 32 30  2  0
 33 34  1  0
 34 35  2  0
 36 39  1  0
 36 35  1  0
 37 36  2  0
 38 37  1  0
 38 33  2  0
 39 40  1  0
 40 45  2  0
 40 41  1  0
 41 42  2  0
 42 43  1  0
 43 47  1  0
 44 43  2  0
 45 44  1  0
 46 45  1  0
 48 49  1  0
 49 52  1  0
 49 51  1  0
 50 48  2  0
 53 54  1  0
 53 28  1  0
 55 53  1  0
 56 58  1  0
 57 68  2  0
 58 63  1  0
 59 67  1  0
 59 69  1  0
 60 66  1  0
 60 62  1  0
 61 67  1  0
 62 61  1  0
 63 62  2  0
 64 65  1  0
 64 58  2  0
 65 60  2  0
 66 59  1  0
 67 57  1  0
 69 71  2  0
 70 69  1  0
 72 70  1  0
 73 78  1  0
 74 70  1  0
 75 74  1  0
 76 77  1  0
 76 75  1  0
 77 73  1  0
 78 74  1  0
 78 79  2  0
 80 79  1  0
 81 80  2  0
 82 73  2  0
 82 81  1  0
 83 57  1  0
 83 88  1  0
 83 84  1  0
 84 87  1  1
 84 85  1  0
 86 84  1  0
 88 91  1  0
 89 93  1  0
 89 88  1  0
 90 89  2  0
 93 92  1  0
 95 93  1  0
 95 96  1  0
 95 94  1  0
M  ISO  4   8 101  19 100  20 100  56 101
M  END
>  <TORSDO>  (38) 
F 26

>  <SCORE>  (38) 
-9.816

>  <name>  (38) 
38

>  <ligand_id>  (38) 
38

>  <original_smiles>  (38) 
[H]c1c([H])c([H])c2c(c1[H])C([H])([H])C([H])([H])C([H])([H])C2([H])N([H])C(=O)C1([H])N(C(=O)C([H])(N([H])C(=O)C([H])(N([H])C([H])([H])[H])C([H])([H])[H])C(C([H])([H])[H])(C([H])([H])[H])C([H])([H])[H])C([H])([H])c2c([H])c(OC3([H])C([H])([H])c4sc(C([H])([H])C([H])([H])C([H])([H])C([H])([H])C([H])([H])C([H])([H])C([H])([H])C([H])([H])C([H])([H])C([H])([H])C(=O)N5C([H])([H])C([H])([H])C([H])([H])C([H])(n6nc(-c7c([H])c([H])c(Oc8c([H])c([H])c(F)c([H])c8F)c([H])c7[H])c(C(=O)N([H])[H])c6N([H])[H])C5([H])[H])c([H])c4C([H])([H])C3([H])[H])c([H])c([H])c2C1([H])[H]

>  <smiles>  (38) 
[H]c1c([H])c([H])c2c(c1[H])C([H])([H])C([H])([H])C([H])([H])C2([H])N([H])C(=O)C1([H])N(C(=O)C([H])(N([H])C(=O)C([H])(N([H])C([H])([H])[H])C([H])([H])[H])C(C([H])([H])[H])(C([H])([H])[H])C([H])([H])[H])C([H])([H])c2c([H])c(OC3([H])C([H])([H])c4sc(C([H])([H])C([H])([H])C([H])([H])C([H])([H])C([H])([H])C([H])([H])C([H])([H])C([H])([H])C([H])([H])C([H])([H])C(=O)N5C([H])([H])C([H])([H])C([H])([H])C([H])(n6nc(-c7c([H])c([H])c(Oc8c([H])c([H])c(F)c([H])c8F)c([H])c7[H])c(C(=O)N([H])[H])c6N([H])[H])C5([H])[H])c([H])c4C([H])([H])C3([H])[H])c([H])c([H])c2C1([H])[H]

$$$$
39:0:0
     RDKit          3D

 93 94  0  0  1  0  0  0  0  0999 V2000
  -22.6250  -27.5540   23.8980 C   0  0  0  0  0  3  0  0  0  0  0  0
  -23.0720  -25.0380   22.6690 C   0  0  0  0  0  2  0  0  0  0  0  0
  -23.2620  -25.9980   23.8910 C   0  0  0  0  0  3  0  0  0  0  0  0
  -22.3040  -28.5770   22.5220 C   0  0  0  0  0  0  0  0  0  0  0  0
  -22.9840  -25.4530   21.1570 C   0  0  0  0  0  1  0  0  0  0  0  0
  -22.3880  -27.7920   20.9730 C   0  0  0  0  0  2  0  0  0  0  0  0
  -22.2680  -29.0810   19.7410 Cl  0  0  0  0  0  0  0  0  0  0  0  0
  -22.8520  -31.1450   22.3060 C   0  0  0  0  0  1  0  0  0  0  0  0
  -21.8700  -30.0420   22.7180 C   0  0  0  0  0  2  0  0  0  0  0  0
  -24.9060  -25.5370   24.3970 C   0  0  0  0  0  2  0  0  0  0  0  0
  -26.6390  -25.4200   23.7750 C   0  0  0  0  0  2  0  0  0  0  0  0
  -27.8140  -24.6150   22.9450 O   0  0  0  0  0  0  0  0  0  0  0  0
  -28.1270  -30.4800   23.6530 C   0  0  0  0  0  0  0  0  0  0  0  0
  -29.1480  -24.8910   23.2110 C   0  0  0  0  0  0  0  0  0  0  0  0
  -29.3220  -29.3600   21.8150 C   0  0  0  0  0  3  0  0  0  0  0  0
  -30.3610  -27.0830   22.1640 C   0  0  0  0  0  0  0  0  0  0  0  0
  -29.6390  -28.5070   24.1350 C   0  0  0  0  0  2  0  0  0  0  0  0
  -29.8630  -27.1420   23.4760 C   0  0  0  0  0  0  0  0  0  0  0  0
  -29.3840  -25.9710   24.0770 C   0  0  0  0  0  3  0  0  0  0  0  0
  -29.9310  -24.7010   22.0640 C   0  0  0  0  0  3  0  0  0  0  0  0
  -30.4590  -25.8560   21.4690 C   0  0  0  0  0  3  0  0  0  0  0  0
  -30.5610  -28.4420   21.5200 C   0  0  0  0  0  2  0  0  0  0  0  0
  -29.0420  -29.5340   23.2520 N   0  0  0  0  0  0  0  0  0  0  0  0
  -27.6060  -31.2750   22.8480 O   0  0  0  0  0  0  0  0  0  0  0  0
  -28.1490  -28.5740   21.3660 C   0  0  0  0  0  0  0  0  0  0  0  0
  -28.3990  -27.7070   20.4180 N   0  0  0  0  0  0  0  0  0  0  0  0
  -27.0520  -28.6950   21.8810 O   0  0  0  0  0  0  0  0  0  0  0  0
  -29.3740  -27.6670   20.1720 H   0  0  0  0  0  0  0  0  0  0  0  0
  -27.6960  -27.0340   15.4710 C   0  0  0  0  0  3  0  0  0  0  0  0
  -27.5370  -26.9170   19.5050 C   0  0  0  0  0  2  0  0  0  0  0  0
  -28.2180  -25.1050   19.2220 C   0  0  0  0  0  2  0  0  0  0  0  0
  -28.3250  -24.4240   17.3830 C   0  0  0  0  0  3  0  0  0  0  0  0
  -27.9750  -25.3470   15.7600 C   0  0  0  0  0  3  0  0  0  0  0  0
  -26.9410  -27.8360   16.6400 C   0  0  0  0  0  2  0  0  0  0  0  0
  -27.3180  -29.2750   16.0610 C   0  0  0  0  0  2  0  0  0  0  0  0
  -28.4020  -29.8160   15.2250 C   0  0  0  0  0  2  0  0  0  0  0  0
  -29.1460  -28.9550   14.4300 C   0  0  0  0  0  2  0  0  0  0  0  0
  -28.7220  -27.6050   14.5400 C   0  0  0  0  0  2  0  0  0  0  0  0
  -27.6970  -30.5720   25.1370 C   0  0  0  0  0  3  0  0  0  0  0  0
  -27.6900  -31.9980   25.4470 N   0  0  0  0  0  0  0  0  0  0  0  0
  -28.7940  -32.6830   25.7530 C   0  0  0  0  0  0  0  0  0  0  0  0
  -29.8990  -32.1490   25.8900 O   0  0  0  0  0  0  0  0  0  0  0  0
  -26.8290  -32.5000   25.2850 H   0  0  0  0  0  0  0  0  0  0  0  0
  -28.9830  -34.9270   24.6420 C   0  0  0  0  0  1  0  0  0  0  0  0
  -28.6400  -34.1980   25.9500 C   0  0  0  0  0  3  0  0  0  0  0  0
  -29.0680  -34.2200   28.3650 C   0  0  0  0  0  1  0  0  0  0  0  0
  -29.4660  -34.7250   27.0540 N   0  0  0  0  0  0  0  0  0  0  0  0
  -29.4240  -35.7410   27.0820 H   0  0  0  0  0  0  0  0  0  0  0  0
  -26.3050  -29.9170   25.4920 C   0  0  1  0  0  0  0  0  0  0  0  0
  -25.1310  -30.4030   24.6150 C   0  0  0  0  0  1  0  0  0  0  0  0
  -26.3730  -28.3800   25.3810 C   0  0  0  0  0  1  0  0  0  0  0  0
  -25.9650  -30.2160   26.9700 C   0  0  0  0  0  1  0  0  0  0  0  0
  -24.5340  -23.7700   20.3290 C   0  0  0  0  0 15  0  0  0  0  0  0
  -26.5980  -22.2100   19.9430 C   0  0  0  0  0 15  0  0  0  0  0  0
  -28.1630  -20.1950   19.3910 C   0  0  0  0  0 15  0  0  0  0  0  0
  -31.2540  -17.4650   18.6630 C   0  0  0  0  0  2  0  0  0  0  0  0
  -33.9100  -16.0180   18.3080 C   0  0  0  0  0  2  0  0  0  0  0  0
  -35.4140  -16.4770   18.6630 C   0  0  0  0  0  2  0  0  0  0  0  0
  -35.8610  -17.6730   17.8250 C   0  0  0  0  0  2  0  0  0  0  0  0
  -34.5760  -18.4440   17.5400 C   0  0  0  0  0  3  0  0  0  0  0  0
  -33.4260  -17.6560   16.9030 C   0  0  0  0  0  2  0  0  0  0  0  0
  -32.7280  -17.1510   18.0880 N   0  0  0  0  0  0  0  0  0  0  0  0
  -31.2100  -16.1840   18.9440 O   0  0  0  0  0  1  0  0  0  0  0  0
  -30.0480  -18.9270   18.9800 N   0  0  0  0  0  1  0  0  0  0  0  0
  -30.6820  -19.6520   18.6560 H   0  0  0  0  0  0  0  0  0  0  0  0
  -34.0730  -20.8200   17.2840 C   0  0  0  0  0  0  0  0  0  0  0  0
  -34.3970  -21.7240   16.3320 C   0  0  0  0  0  0  0  0  0  0  0  0
  -35.1570  -21.0140   15.3490 C   0  0  0  0  0  0  0  0  0  0  0  0
  -34.6600  -19.6560   16.8500 N   0  0  0  0  0  0  0  0  0  0  0  0
  -35.2450  -19.7290   15.6440 N   0  0  0  0  0  0  0  0  0  0  0  0
  -35.8820  -21.5010   14.1870 C   0  0  0  0  0  0  0  0  0  0  0  0
  -35.5760  -21.0540   12.8850 C   0  0  0  0  0  3  0  0  0  0  0  0
  -36.2870  -21.5630   11.7800 C   0  0  0  0  0  3  0  0  0  0  0  0
  -37.3070  -22.5240   11.9790 C   0  0  0  0  0  0  0  0  0  0  0  0
  -37.6230  -22.9390   13.2840 C   0  0  0  0  0  3  0  0  0  0  0  0
  -36.9200  -22.4270   14.3830 C   0  0  0  0  0  3  0  0  0  0  0  0
  -38.0610  -23.0640   10.9700 O   0  0  0  0  0  0  0  0  0  0  0  0
  -37.5450  -23.2520    9.7140 C   0  0  0  0  0  0  0  0  0  0  0  0
  -36.4240  -24.0800    9.4840 C   0  0  0  0  0  3  0  0  0  0  0  0
  -35.9740  -24.3010    8.1670 C   0  0  0  0  0  3  0  0  0  0  0  0
  -36.6460  -23.7030    7.0850 C   0  0  0  0  0  0  0  0  0  0  0  0
  -37.7620  -22.8800    7.3130 C   0  0  0  0  0  3  0  0  0  0  0  0
  -38.2120  -22.6570    8.6260 C   0  0  0  0  0  0  0  0  0  0  0  0
  -39.3020  -21.8820    8.8420 F   0  0  0  0  0  0  0  0  0  0  0  0
  -36.2180  -23.9210    5.8200 F   0  0  0  0  0  0  0  0  0  0  0  0
  -34.1170  -23.1870   16.4140 C   0  0  0  0  0  0  0  0  0  0  0  0
  -33.9050  -23.8290   15.2740 N   0  0  0  0  0  0  0  0  0  0  0  0
  -34.0320  -23.7540   17.5030 O   0  0  0  0  0  0  0  0  0  0  0  0
  -33.9540  -23.3500   14.3880 H   0  0  0  0  0  0  0  0  0  0  0  0
  -33.6900  -24.8170   15.2870 H   0  0  0  0  0  0  0  0  0  0  0  0
  -33.3650  -20.8870   18.4890 N   0  0  0  0  0  0  0  0  0  0  0  0
  -33.2160  -21.8340   18.8230 H   0  0  0  0  0  0  0  0  0  0  0  0
  -33.7100  -20.2860   19.2270 H   0  0  0  0  0  0  0  0  0  0  0  0
  3  2  1  0
  3  1  1  0
  3 10  1  0
  4  9  1  0
  4  1  2  0
  5  2  1  0
  6  4  1  0
  7  6  1  0
  8  9  1  0
 11 10  1  0
 12 14  1  0
 12 11  1  0
 14 19  1  0
 15 25  1  0
 15 23  1  0
 16 18  1  0
 18 19  2  0
 18 17  1  0
 20 14  2  0
 21 20  1  0
 21 16  2  0
 22 15  1  0
 22 16  1  0
 23 13  1  0
 23 17  1  0
 24 13  2  0
 25 27  2  0
 26 25  1  0
 28 26  1  0
 29 33  1  0
 29 34  1  0
 30 26  1  0
 31 30  1  0
 32 31  1  0
 33 32  2  0
 35 34  1  0
 36 35  1  0
 37 38  1  0
 37 36  1  0
 38 29  1  0
 39 13  1  0
 39 40  1  0
 39 49  1  0
 40 41  1  0
 41 42  2  0
 41 45  1  0
 43 40  1  0
 45 44  1  0
 45 47  1  0
 47 48  1  0
 47 46  1  0
 49 52  1  1
 50 49  1  0
 51 49  1  0
 56 63  1  0
 57 58  1  0
 59 58  1  0
 60 69  1  0
 60 59  1  0
 61 60  1  0
 61 62  1  0
 62 57  1  0
 62 56  1  0
 65 64  1  0
 66 91  1  0
 67 86  1  0
 67 66  2  0
 68 70  2  0
 68 67  1  0
 69 66  1  0
 70 69  1  0
 71 76  1  0
 71 68  1  0
 72 71  2  0
 73 74  2  0
 73 72  1  0
 74 75  1  0
 75 76  2  0
 77 74  1  0
 78 77  1  0
 79 78  1  0
 80 79  2  0
 81 82  2  0
 81 80  1  0
 82 83  1  0
 83 84  1  0
 83 78  2  0
 85 81  1  0
 86 88  2  0
 87 90  1  0
 87 86  1  0
 89 87  1  0
 91 92  1  0
 91 93  1  0
M  ISO  4  11 101  12 101  56 100  64 100
M  END
>  <TORSDO>  (39) 
F 22

>  <SCORE>  (39) 
-3.519

>  <name>  (39) 
39

>  <ligand_id>  (39) 
39

>  <original_smiles>  (39) 
[H]c1c([H])c([H])c2c(c1[H])C([H])([H])C([H])([H])C([H])([H])C2([H])N([H])C(=O)C1([H])N(C(=O)C([H])(N([H])C(=O)C([H])(N([H])C([H])([H])[H])C([H])([H])[H])C(C([H])([H])[H])(C([H])([H])[H])C([H])([H])[H])C([H])([H])c2c([H])c(OC([H])([H])C([H])([H])c3c([H])c(C([H])([H])C([H])([H])[H])c(Cl)c(C([H])([H])C([H])([H])C([H])([H])N([H])C(=O)N4C([H])([H])C([H])([H])C([H])([H])C([H])(n5nc(-c6c([H])c([H])c(Oc7c([H])c([H])c(F)c([H])c7F)c([H])c6[H])c(C(=O)N([H])[H])c5N([H])[H])C4([H])[H])c3[H])c([H])c([H])c2C1([H])[H]

>  <smiles>  (39) 
[H]c1c([H])c([H])c2c(c1[H])C([H])([H])C([H])([H])C([H])([H])C2([H])N([H])C(=O)C1([H])N(C(=O)C([H])(N([H])C(=O)C([H])(N([H])C([H])([H])[H])C([H])([H])[H])C(C([H])([H])[H])(C([H])([H])[H])C([H])([H])[H])C([H])([H])c2c([H])c(OC([H])([H])C([H])([H])c3c([H])c(C([H])([H])C([H])([H])[H])c(Cl)c(C([H])([H])C([H])([H])C([H])([H])N([H])C(=O)N4C([H])([H])C([H])([H])C([H])([H])C([H])(n5nc(-c6c([H])c([H])c(Oc7c([H])c([H])c(F)c([H])c7F)c([H])c6[H])c(C(=O)N([H])[H])c5N([H])[H])C4([H])[H])c3[H])c([H])c([H])c2C1([H])[H]

$$$$
40:0:0
     RDKit          3D

 94102  0  0  1  0  0  0  0  0999 V2000
  -29.1110  -24.2040   21.7940 C   0  0  0  0  0  0  0  0  0  0  0  0
  -29.2290  -24.5180   20.4570 C   0  0  0  0  0  0  0  0  0  0  0  0
  -30.7870  -22.7540   21.2170 C   0  0  0  0  0  0  0  0  0  0  0  0
  -30.0190  -23.2180   22.2090 N   0  0  0  0  0  0  0  0  0  0  0  0
  -30.5040  -23.5910   19.6940 S   0  0  0  0  0  0  0  0  0  0  0  0
  -28.0570  -24.6910   22.7650 C   0  0  0  0  0  2  0  0  0  0  0  0
  -27.5500  -26.2190   24.7180 C   0  0  0  0  0  1  0  0  0  0  0  0
  -29.6410  -26.6940   23.3320 C   0  0  0  0  0  1  0  0  0  0  0  0
  -28.2050  -26.1300   23.3270 C   0  0  0  0  0  3  0  0  0  0  0  0
  -28.2940  -25.3450   19.6380 C   0  0  0  0  0  2  0  0  0  0  0  0
  -28.3690  -26.7220   20.0390 O   0  0  0  0  0  0  0  0  0  0  0  0
  -24.5510  -31.8470   23.1830 C   0  0  0  0  0  0  0  0  0  0  0  0
  -27.1970  -27.4610   20.0110 C   0  0  0  0  0  0  0  0  0  0  0  0
  -23.3450  -30.4570   21.5340 C   0  0  0  0  0  3  0  0  0  0  0  0
  -24.7980  -28.9690   20.0700 C   0  0  0  0  0  0  0  0  0  0  0  0
  -25.8660  -30.8340   21.3280 C   0  0  0  0  0  2  0  0  0  0  0  0
  -25.9540  -29.4750   20.6680 C   0  0  0  0  0  0  0  0  0  0  0  0
  -27.1580  -28.7240   20.6450 C   0  0  0  0  0  3  0  0  0  0  0  0
  -26.0170  -26.9890   19.3830 C   0  0  0  0  0  3  0  0  0  0  0  0
  -24.8230  -27.7220   19.4290 C   0  0  0  0  0  3  0  0  0  0  0  0
  -23.5480  -29.8120   20.1400 C   0  0  0  0  0  2  0  0  0  0  0  0
  -24.6050  -31.0600   22.0750 N   0  0  0  0  0  0  0  0  0  0  0  0
  -23.4720  -32.1050   23.7370 O   0  0  0  0  0  0  0  0  0  0  0  0
  -22.7130  -29.4130   22.4810 C   0  0  0  0  0  0  0  0  0  0  0  0
  -21.3890  -29.2210   22.3670 N   0  0  0  0  0  0  0  0  0  0  0  0
  -23.4110  -28.7820   23.2810 O   0  0  0  0  0  0  0  0  0  0  0  0
  -20.8840  -29.7840   21.6950 H   0  0  0  0  0  0  0  0  0  0  0  0
  -18.0330  -27.9920   22.8880 C   0  0  0  0  0  0  0  0  0  0  0  0
  -20.5910  -28.2660   23.1340 C   0  0  0  0  0  3  0  0  0  0  0  0
  -20.7010  -26.8450   22.5410 C   0  0  0  0  0  2  0  0  0  0  0  0
  -19.5920  -26.5260   21.5310 C   0  0  0  0  0  2  0  0  0  0  0  0
  -18.2140  -26.6540   22.1900 C   0  0  0  0  0  2  0  0  0  0  0  0
  -19.1500  -28.7570   23.3160 C   0  0  0  0  0  0  0  0  0  0  0  0
  -18.9300  -30.0100   23.9280 C   0  0  0  0  0  3  0  0  0  0  0  0
  -17.6240  -30.5030   24.1090 C   0  0  0  0  0  3  0  0  0  0  0  0
  -16.5210  -29.7360   23.6980 C   0  0  0  0  0  3  0  0  0  0  0  0
  -16.7260  -28.4800   23.0970 C   0  0  0  0  0  3  0  0  0  0  0  0
  -25.8380  -32.4850   23.7950 C   0  0  0  0  0  3  0  0  0  0  0  0
  -25.5180  -33.8700   24.1570 N   0  0  0  0  0  0  0  0  0  0  0  0
  -25.8320  -34.9410   23.4170 C   0  0  0  0  0  0  0  0  0  0  0  0
  -26.4980  -34.8680   22.3800 O   0  0  0  0  0  0  0  0  0  0  0  0
  -24.9240  -34.0010   24.9630 H   0  0  0  0  0  0  0  0  0  0  0  0
  -24.0950  -36.7300   23.0830 C   0  0  0  0  0  1  0  0  0  0  0  0
  -25.3270  -36.3140   23.9010 C   0  0  0  0  0  3  0  0  0  0  0  0
  -27.4420  -37.1930   24.7890 C   0  0  0  0  0  1  0  0  0  0  0  0
  -26.3540  -37.3760   23.8320 N   0  0  0  0  0  0  0  0  0  0  0  0
  -25.9360  -38.2870   23.9990 H   0  0  0  0  0  0  0  0  0  0  0  0
  -26.3920  -31.6960   25.0450 C   0  0  1  0  0  0  0  0  0  0  0  0
  -25.3220  -31.4160   26.1230 C   0  0  0  0  0  1  0  0  0  0  0  0
  -26.9950  -30.3380   24.6150 C   0  0  0  0  0  1  0  0  0  0  0  0
  -27.5410  -32.4960   25.7040 C   0  0  0  0  0  1  0  0  0  0  0  0
  -31.7600  -21.6230   21.3680 C   0  0  0  0  0  2  0  0  0  0  0  0
  -31.2670  -20.2480   20.8390 C   0  0  0  0  0  2  0  0  0  0  0  0
  -30.2020  -19.5030   21.6890 C   0  0  0  0  0  2  0  0  0  0  0  0
  -30.4770  -17.9880   21.9400 C   0  0  0  0  0  2  0  0  0  0  0  0
  -30.6370  -17.0860   20.6810 C   0  0  0  0  0  2  0  0  0  0  0  0
  -30.9370  -14.6180   20.3140 C   0  0  0  0  0  0  0  0  0  0  0  0
  -30.5700  -12.4760   19.1450 C   0  0  0  0  0  2  0  0  0  0  0  0
  -29.6240  -12.7090   17.9490 C   0  0  0  0  0  2  0  0  0  0  0  0
  -28.1560  -12.5590   18.3890 C   0  0  0  0  0  2  0  0  0  0  0  0
  -27.8380  -13.3780   19.6690 C   0  0  0  0  0  3  0  0  0  0  0  0
  -28.9070  -13.1700   20.7720 C   0  0  0  0  0  2  0  0  0  0  0  0
  -30.2270  -13.4620   20.1850 N   0  0  0  0  0  0  0  0  0  0  0  0
  -32.0380  -14.7740   19.7840 O   0  0  0  0  0  0  0  0  0  0  0  0
  -30.3140  -15.6570   20.9070 N   0  0  0  0  0  0  0  0  0  0  0  0
  -29.4210  -15.4520   21.3280 H   0  0  0  0  0  0  0  0  0  0  0  0
  -25.4460  -13.9900   20.3920 C   0  0  0  0  0  0  0  0  0  0  0  0
  -24.3800  -13.2170   20.7730 C   0  0  0  0  0  0  0  0  0  0  0  0
  -24.8400  -11.8650   20.7500 C   0  0  0  0  0  0  0  0  0  0  0  0
  -26.4890  -13.1060   20.1580 N   0  0  0  0  0  0  0  0  0  0  0  0
  -26.1290  -11.8260   20.4330 N   0  0  0  0  0  0  0  0  0  0  0  0
  -24.1130  -10.6060   20.9500 C   0  0  0  0  0  0  0  0  0  0  0  0
  -24.5380   -9.6530   21.8990 C   0  0  0  0  0  3  0  0  0  0  0  0
  -23.8090   -8.4580   22.0850 C   0  0  0  0  0  3  0  0  0  0  0  0
  -22.6440   -8.2130   21.3200 C   0  0  0  0  0  0  0  0  0  0  0  0
  -22.2400   -9.1560   20.3590 C   0  0  0  0  0  3  0  0  0  0  0  0
  -22.9690  -10.3400   20.1720 C   0  0  0  0  0  3  0  0  0  0  0  0
  -21.8850   -7.0700   21.4140 O   0  0  0  0  0  0  0  0  0  0  0  0
  -21.8050   -6.3540   22.5810 C   0  0  0  0  0  0  0  0  0  0  0  0
  -21.3380   -6.9310   23.7820 C   0  0  0  0  0  3  0  0  0  0  0  0
  -21.2040   -6.1400   24.9410 C   0  0  0  0  0  3  0  0  0  0  0  0
  -21.5330   -4.7700   24.9010 C   0  0  0  0  0  0  0  0  0  0  0  0
  -21.9960   -4.1940   23.7050 C   0  0  0  0  0  3  0  0  0  0  0  0
  -22.1270   -4.9830   22.5480 C   0  0  0  0  0  0  0  0  0  0  0  0
  -22.5530   -4.4170   21.3930 F   0  0  0  0  0  0  0  0  0  0  0  0
  -21.3990   -4.0070   26.0100 F   0  0  0  0  0  0  0  0  0  0  0  0
  -22.9860  -13.7010   21.0520 C   0  0  0  0  0  0  0  0  0  0  0  0
  -22.2640  -13.0100   21.9260 N   0  0  0  0  0  0  0  0  0  0  0  0
  -22.5450  -14.7250   20.5360 O   0  0  0  0  0  0  0  0  0  0  0  0
  -22.6480  -12.1890   22.3690 H   0  0  0  0  0  0  0  0  0  0  0  0
  -21.3260  -13.3110   22.1520 H   0  0  0  0  0  0  0  0  0  0  0  0
  -25.6020  -15.3610   20.2160 N   0  0  0  0  0  0  0  0  0  0  0  0
  -24.8170  -15.9940   20.3390 H   0  0  0  0  0  0  0  0  0  0  0  0
  -26.4470  -15.8280   19.9070 H   0  0  0  0  0  0  0  0  0  0  0  0
  1  4  1  0
  1  6  1  0
  2  1  2  0
  3 52  1  0
  3  4  2  0
  5  2  1  0
  5  3  1  0
  6  9  1  0
  9  8  1  0
  9  7  1  0
 10 11  1  0
 10  2  1  0
 12 23  2  0
 13 11  1  0
 13 18  1  0
 14 22  1  0
 14 24  1  0
 15 21  1  0
 15 17  1  0
 16 22  1  0
 17 16  1  0
 18 17  2  0
 19 20  1  0
 19 13  2  0
 20 15  2  0
 21 14  1  0
 22 12  1  0
 24 26  2  0
 25 24  1  0
 27 25  1  0
 28 37  2  0
 28 33  1  0
 29 25  1  0
 29 33  1  0
 30 29  1  0
 31 32  1  0
 31 30  1  0
 32 28  1  0
 33 34  2  0
 34 35  1  0
 36 35  2  0
 37 36  1  0
 38 12  1  0
 38 39  1  0
 38 48  1  0
 39 42  1  0
 40 44  1  0
 40 39  1  0
 41 40  2  0
 44 43  1  0
 46 44  1  0
 46 47  1  0
 46 45  1  0
 48 51  1  1
 48 49  1  0
 50 48  1  0
 53 52  1  0
 53 54  1  0
 54 55  1  0
 56 65  1  0
 56 55  1  0
 57 65  1  0
 58 63  1  0
 59 60  1  0
 59 58  1  0
 61 60  1  0
 61 70  1  0
 61 62  1  0
 63 57  1  0
 63 62  1  0
 64 57  2  0
 65 66  1  0
 67 68  2  0
 68 87  1  0
 69 68  1  0
 69 72  1  0
 70 67  1  0
 70 71  1  0
 71 69  2  0
 72 73  1  0
 73 74  2  0
 75 78  1  0
 75 74  1  0
 76 75  2  0
 77 76  1  0
 77 72  2  0
 78 79  1  0
 79 80  1  0
 80 81  2  0
 82 81  1  0
 82 86  1  0
 83 82  2  0
 84 79  2  0
 84 83  1  0
 85 84  1  0
 87 88  1  0
 88 91  1  0
 88 90  1  0
 89 87  2  0
 92 93  1  0
 92 67  1  0
 94 92  1  0
M  ISO  4  10 101  11 101  57 100  65 100
M  END
>  <TORSDO>  (40) 
F 24

>  <SCORE>  (40) 
-12.232

>  <name>  (40) 
40

>  <ligand_id>  (40) 
40

>  <original_smiles>  (40) 
[H]c1c([H])c([H])c2c(c1[H])C([H])([H])C([H])([H])C([H])([H])C2([H])N([H])C(=O)C1([H])N(C(=O)C([H])(N([H])C(=O)C([H])(N([H])C([H])([H])[H])C([H])([H])[H])C(C([H])([H])[H])(C([H])([H])[H])C([H])([H])[H])C([H])([H])c2c([H])c(OC([H])([H])c3sc(C([H])([H])C([H])([H])C([H])([H])C([H])([H])C([H])([H])N([H])C(=O)N4C([H])([H])C([H])([H])C([H])([H])C([H])(n5nc(-c6c([H])c([H])c(Oc7c([H])c([H])c(F)c([H])c7F)c([H])c6[H])c(C(=O)N([H])[H])c5N([H])[H])C4([H])[H])nc3C([H])([H])C([H])(C([H])([H])[H])C([H])([H])[H])c([H])c([H])c2C1([H])[H]

>  <smiles>  (40) 
[H]c1c([H])c([H])c2c(c1[H])C([H])([H])C([H])([H])C([H])([H])C2([H])N([H])C(=O)C1([H])N(C(=O)C([H])(N([H])C(=O)C([H])(N([H])C([H])([H])[H])C([H])([H])[H])C(C([H])([H])[H])(C([H])([H])[H])C([H])([H])[H])C([H])([H])c2c([H])c(OC([H])([H])c3sc(C([H])([H])C([H])([H])C([H])([H])C([H])([H])C([H])([H])N([H])C(=O)N4C([H])([H])C([H])([H])C([H])([H])C([H])(n5nc(-c6c([H])c([H])c(Oc7c([H])c([H])c(F)c([H])c7F)c([H])c6[H])c(C(=O)N([H])[H])c5N([H])[H])C4([H])[H])nc3C([H])([H])C([H])(C([H])([H])[H])C([H])([H])[H])c([H])c([H])c2C1([H])[H]

$$$$
41:0:0
     RDKit          3D

 93101  0  0  1  0  0  0  0  0999 V2000
  -28.7500  -23.3150   21.6480 C   0  0  0  0  0  3  0  0  0  0  0  0
  -28.1980  -21.7000   19.9110 C   0  0  0  0  0  3  0  0  0  0  0  0
  -28.1760  -23.0450   20.3920 C   0  0  0  0  0  0  0  0  0  0  0  0
  -29.3240  -22.2770   22.4240 C   0  0  0  0  0  0  0  0  0  0  0  0
  -28.7570  -20.6350   20.6800 C   0  0  0  0  0  0  0  0  0  0  0  0
  -29.3150  -20.9480   21.9390 C   0  0  0  0  0  0  0  0  0  0  0  0
  -29.7990  -19.9470   22.7160 F   0  0  0  0  0  0  0  0  0  0  0  0
  -30.5520  -23.9210   23.9950 C   0  0  0  0  0  1  0  0  0  0  0  0
  -29.8720  -22.5570   23.8230 C   0  0  0  0  0  2  0  0  0  0  0  0
  -27.3750  -24.1470   19.6570 C   0  0  0  0  0  2  0  0  0  0  0  0
  -28.0690  -25.4800   19.1570 C   0  0  0  0  0  2  0  0  0  0  0  0
  -28.0150  -26.7310   19.9030 O   0  0  0  0  0  0  0  0  0  0  0  0
  -24.4940  -31.9750   23.2410 C   0  0  0  0  0  0  0  0  0  0  0  0
  -26.8880  -27.5470   19.8870 C   0  0  0  0  0  0  0  0  0  0  0  0
  -23.1840  -30.6510   21.6180 C   0  0  0  0  0  3  0  0  0  0  0  0
  -24.5350  -29.1470   20.0590 C   0  0  0  0  0  0  0  0  0  0  0  0
  -25.7070  -30.9620   21.3060 C   0  0  0  0  0  2  0  0  0  0  0  0
  -25.7320  -29.6090   20.6190 C   0  0  0  0  0  0  0  0  0  0  0  0
  -26.9030  -28.8090   20.5440 C   0  0  0  0  0  3  0  0  0  0  0  0
  -25.6800  -27.1480   19.2730 C   0  0  0  0  0  3  0  0  0  0  0  0
  -24.5100  -27.9190   19.3840 C   0  0  0  0  0  3  0  0  0  0  0  0
  -23.3090  -30.0190   20.2050 C   0  0  0  0  0  2  0  0  0  0  0  0
  -24.4840  -31.2100   22.1120 N   0  0  0  0  0  0  0  0  0  0  0  0
  -23.4450  -32.2430   23.8440 O   0  0  0  0  0  0  0  0  0  0  0  0
  -22.5650  -29.6060   22.5730 C   0  0  0  0  0  0  0  0  0  0  0  0
  -21.2500  -29.3660   22.4300 N   0  0  0  0  0  0  0  0  0  0  0  0
  -23.2670  -29.0090   23.3960 O   0  0  0  0  0  0  0  0  0  0  0  0
  -20.7430  -29.9010   21.7370 H   0  0  0  0  0  0  0  0  0  0  0  0
  -17.9540  -27.9310   22.8020 C   0  0  0  0  0  0  0  0  0  0  0  0
  -20.4670  -28.3970   23.1960 C   0  0  0  0  0  3  0  0  0  0  0  0
  -20.7080  -26.9580   22.6830 C   0  0  0  0  0  2  0  0  0  0  0  0
  -19.6920  -26.5160   21.6250 C   0  0  0  0  0  2  0  0  0  0  0  0
  -18.2690  -26.5770   22.1880 C   0  0  0  0  0  2  0  0  0  0  0  0
  -18.9870  -28.7910   23.2580 C   0  0  0  0  0  0  0  0  0  0  0  0
  -18.6420  -30.0530   23.7890 C   0  0  0  0  0  3  0  0  0  0  0  0
  -17.2960  -30.4620   23.8620 C   0  0  0  0  0  3  0  0  0  0  0  0
  -16.2770  -29.6020   23.4180 C   0  0  0  0  0  3  0  0  0  0  0  0
  -16.6070  -28.3370   22.8970 C   0  0  0  0  0  3  0  0  0  0  0  0
  -25.8190  -32.5650   23.8140 C   0  0  0  0  0  3  0  0  0  0  0  0
  -25.5570  -33.9670   24.1750 N   0  0  0  0  0  0  0  0  0  0  0  0
  -25.8960  -35.0220   23.4220 C   0  0  0  0  0  0  0  0  0  0  0  0
  -26.5260  -34.9180   22.3680 O   0  0  0  0  0  0  0  0  0  0  0  0
  -24.9850  -34.1200   24.9920 H   0  0  0  0  0  0  0  0  0  0  0  0
  -24.1980  -36.8600   23.1610 C   0  0  0  0  0  1  0  0  0  0  0  0
  -25.4610  -36.4170   23.9170 C   0  0  0  0  0  3  0  0  0  0  0  0
  -27.6490  -37.2380   24.6670 C   0  0  0  0  0  1  0  0  0  0  0  0
  -26.5160  -37.4450   23.7720 N   0  0  0  0  0  0  0  0  0  0  0  0
  -26.1420  -38.3730   23.9430 H   0  0  0  0  0  0  0  0  0  0  0  0
  -26.3660  -31.7620   25.0580 C   0  0  1  0  0  0  0  0  0  0  0  0
  -25.3070  -31.5300   26.1610 C   0  0  0  0  0  1  0  0  0  0  0  0
  -26.9020  -30.3810   24.6210 C   0  0  0  0  0  1  0  0  0  0  0  0
  -27.5600  -32.5180   25.6860 C   0  0  0  0  0  1  0  0  0  0  0  0
  -28.6050  -19.1480   20.2570 C   0  0  0  0  0  2  0  0  0  0  0  0
  -29.8530  -18.2090   20.3530 C   0  0  0  0  0  2  0  0  0  0  0  0
  -29.5450  -16.6720   20.4910 C   0  0  0  0  0  2  0  0  0  0  0  0
  -31.2270  -14.6800   20.2350 C   0  0  0  0  0  0  0  0  0  0  0  0
  -30.8640  -12.4230   19.3200 C   0  0  0  0  0  2  0  0  0  0  0  0
  -29.9470  -12.5080   18.0840 C   0  0  0  0  0  2  0  0  0  0  0  0
  -28.4710  -12.4120   18.5130 C   0  0  0  0  0  2  0  0  0  0  0  0
  -28.1220  -13.3730   19.6820 C   0  0  0  0  0  3  0  0  0  0  0  0
  -29.1740  -13.3100   20.8140 C   0  0  0  0  0  2  0  0  0  0  0  0
  -30.4840  -13.5400   20.2030 N   0  0  0  0  0  0  0  0  0  0  0  0
  -32.4270  -14.6740   19.9740 O   0  0  0  0  0  0  0  0  0  0  0  0
  -30.6220  -15.8460   19.9150 N   0  0  0  0  0  0  0  0  0  0  0  0
  -31.2920  -16.4290   19.4360 H   0  0  0  0  0  0  0  0  0  0  0  0
  -25.7670  -14.0680   20.4290 C   0  0  0  0  0  0  0  0  0  0  0  0
  -24.6710  -13.3360   20.8010 C   0  0  0  0  0  0  0  0  0  0  0  0
  -25.0770  -11.9700   20.7590 C   0  0  0  0  0  0  0  0  0  0  0  0
  -26.7710  -13.1470   20.1820 N   0  0  0  0  0  0  0  0  0  0  0  0
  -26.3620  -11.8770   20.4450 N   0  0  0  0  0  0  0  0  0  0  0  0
  -24.3000  -10.7380   20.9450 C   0  0  0  0  0  0  0  0  0  0  0  0
  -24.6710   -9.7670   21.9020 C   0  0  0  0  0  3  0  0  0  0  0  0
  -23.8970   -8.6000   22.0740 C   0  0  0  0  0  3  0  0  0  0  0  0
  -22.7370   -8.3940   21.2890 C   0  0  0  0  0  0  0  0  0  0  0  0
  -22.3850   -9.3540   20.3230 C   0  0  0  0  0  3  0  0  0  0  0  0
  -23.1590  -10.5120   20.1500 C   0  0  0  0  0  3  0  0  0  0  0  0
  -21.9380   -7.2790   21.3710 O   0  0  0  0  0  0  0  0  0  0  0  0
  -21.7870   -6.5870   22.5450 C   0  0  0  0  0  0  0  0  0  0  0  0
  -21.3060   -7.2050   23.7190 C   0  0  0  0  0  3  0  0  0  0  0  0
  -21.1000   -6.4390   24.8830 C   0  0  0  0  0  3  0  0  0  0  0  0
  -21.3630   -5.0570   24.8740 C   0  0  0  0  0  0  0  0  0  0  0  0
  -21.8380   -4.4380   23.7050 C   0  0  0  0  0  3  0  0  0  0  0  0
  -22.0460   -5.2010   22.5420 C   0  0  0  0  0  0  0  0  0  0  0  0
  -22.4830   -4.5950   21.4120 F   0  0  0  0  0  0  0  0  0  0  0  0
  -21.1570   -4.3200   25.9920 F   0  0  0  0  0  0  0  0  0  0  0  0
  -23.2980  -13.8720   21.0800 C   0  0  0  0  0  0  0  0  0  0  0  0
  -22.5500  -13.2110   21.9570 N   0  0  0  0  0  0  0  0  0  0  0  0
  -22.8960  -14.9100   20.5570 O   0  0  0  0  0  0  0  0  0  0  0  0
  -22.8880  -12.3700   22.4020 H   0  0  0  0  0  0  0  0  0  0  0  0
  -21.6280  -13.5540   22.1890 H   0  0  0  0  0  0  0  0  0  0  0  0
  -25.9810  -15.4320   20.2540 N   0  0  0  0  0  0  0  0  0  0  0  0
  -25.2330  -16.1070   20.3620 H   0  0  0  0  0  0  0  0  0  0  0  0
  -26.8280  -15.8360   19.8790 H   0  0  0  0  0  0  0  0  0  0  0  0
  1  4  1  0
  2  3  1  0
  2  5  2  0
  3  1  2  0
  4  9  1  0
  5  6  1  0
  6  4  2  0
  6  7  1  0
  9  8  1  0
 10  3  1  0
 11 10  1  0
 11 12  1  0
 13 24  2  0
 14 12  1  0
 14 19  1  0
 15 23  1  0
 15 25  1  0
 16 22  1  0
 16 18  1  0
 17 23  1  0
 18 17  1  0
 19 18  2  0
 20 21  1  0
 20 14  2  0
 21 16  2  0
 22 15  1  0
 23 13  1  0
 25 27  2  0
 26 25  1  0
 28 26  1  0
 29 38  2  0
 29 34  1  0
 30 26  1  0
 30 34  1  0
 31 30  1  0
 32 33  1  0
 32 31  1  0
 33 29  1  0
 34 35  2  0
 35 36  1  0
 37 36  2  0
 38 37  1  0
 39 13  1  0
 39 40  1  0
 39 49  1  0
 40 43  1  0
 41 45  1  0
 41 40  1  0
 42 41  2  0
 45 44  1  0
 47 45  1  0
 47 48  1  0
 47 46  1  0
 49 52  1  1
 49 50  1  0
 51 49  1  0
 53 54  1  0
 53  5  1  0
 54 55  1  0
 57 62  1  0
 58 59  1  0
 58 57  1  0
 60 59  1  0
 60 69  1  0
 60 61  1  0
 62 56  1  0
 62 61  1  0
 63 56  2  0
 64 56  1  0
 64 55  1  0
 65 64  1  0
 66 67  2  0
 67 86  1  0
 68 67  1  0
 68 71  1  0
 69 66  1  0
 69 70  1  0
 70 68  2  0
 71 72  1  0
 72 73  2  0
 74 77  1  0
 74 73  1  0
 75 74  2  0
 76 75  1  0
 76 71  2  0
 77 78  1  0
 78 79  1  0
 79 80  2  0
 81 80  1  0
 81 85  1  0
 82 81  2  0
 83 78  2  0
 83 82  1  0
 84 83  1  0
 86 87  1  0
 87 90  1  0
 87 89  1  0
 88 86  2  0
 91 92  1  0
 91 66  1  0
 93 91  1  0
M  ISO  4  11 101  12 101  56 100  64 100
M  END
>  <TORSDO>  (41) 
F 22

>  <SCORE>  (41) 
-11.320

>  <name>  (41) 
41

>  <ligand_id>  (41) 
41

>  <original_smiles>  (41) 
[H]c1c([H])c([H])c2c(c1[H])C([H])([H])C([H])([H])C([H])([H])C2([H])N([H])C(=O)C1([H])N(C(=O)C([H])(N([H])C(=O)C([H])(N([H])C([H])([H])[H])C([H])([H])[H])C(C([H])([H])[H])(C([H])([H])[H])C([H])([H])[H])C([H])([H])c2c([H])c(OC([H])([H])C([H])([H])c3c([H])c(C([H])([H])C([H])([H])[H])c(F)c(C([H])([H])C([H])([H])C([H])([H])N([H])C(=O)N4C([H])([H])C([H])([H])C([H])([H])C([H])(n5nc(-c6c([H])c([H])c(Oc7c([H])c([H])c(F)c([H])c7F)c([H])c6[H])c(C(=O)N([H])[H])c5N([H])[H])C4([H])[H])c3[H])c([H])c([H])c2C1([H])[H]

>  <smiles>  (41) 
[H]c1c([H])c([H])c2c(c1[H])C([H])([H])C([H])([H])C([H])([H])C2([H])N([H])C(=O)C1([H])N(C(=O)C([H])(N([H])C(=O)C([H])(N([H])C([H])([H])[H])C([H])([H])[H])C(C([H])([H])[H])(C([H])([H])[H])C([H])([H])[H])C([H])([H])c2c([H])c(OC([H])([H])C([H])([H])c3c([H])c(C([H])([H])C([H])([H])[H])c(F)c(C([H])([H])C([H])([H])C([H])([H])N([H])C(=O)N4C([H])([H])C([H])([H])C([H])([H])C([H])(n5nc(-c6c([H])c([H])c(Oc7c([H])c([H])c(F)c([H])c7F)c([H])c6[H])c(C(=O)N([H])[H])c5N([H])[H])C4([H])[H])c3[H])c([H])c([H])c2C1([H])[H]

$$$$
42:0:0
     RDKit          3D

 91 99  0  0  1  0  0  0  0  0999 V2000
  -29.5170  -24.1400   19.8070 C   0  0  0  0  0  0  0  0  0  0  0  0
  -29.8840  -22.7600   19.7680 C   0  0  0  0  0  0  0  0  0  0  0  0
  -30.6950  -24.7800   19.3160 C   0  0  0  0  0  0  0  0  0  0  0  0
  -32.0680  -21.6870   18.7770 C   0  0  0  0  0  1  0  0  0  0  0  0
  -31.6650  -23.9840   18.9720 N   0  0  0  0  0  0  0  0  0  0  0  0
  -31.1770  -22.7570   19.2030 N   0  0  0  0  0  0  0  0  0  0  0  0
  -30.9460  -26.4720   19.0730 Cl  0  0  0  0  0  0  0  0  0  0  0  0
  -28.2250  -24.9670   20.1650 C   0  0  0  0  0  2  0  0  0  0  0  0
  -28.3260  -26.4640   20.1470 O   0  0  0  0  0  0  0  0  0  0  0  0
  -24.6200  -31.8780   23.2380 C   0  0  0  0  0  0  0  0  0  0  0  0
  -27.1890  -27.2990   20.1450 C   0  0  0  0  0  0  0  0  0  0  0  0
  -23.3970  -30.4870   21.6070 C   0  0  0  0  0  3  0  0  0  0  0  0
  -24.8290  -28.9330   20.1660 C   0  0  0  0  0  0  0  0  0  0  0  0
  -25.9380  -30.7940   21.3990 C   0  0  0  0  0  2  0  0  0  0  0  0
  -26.0070  -29.4140   20.7500 C   0  0  0  0  0  0  0  0  0  0  0  0
  -27.1890  -28.6110   20.7230 C   0  0  0  0  0  3  0  0  0  0  0  0
  -25.9820  -26.8750   19.5430 C   0  0  0  0  0  3  0  0  0  0  0  0
  -24.8200  -27.6700   19.5540 C   0  0  0  0  0  3  0  0  0  0  0  0
  -23.5970  -29.8120   20.2250 C   0  0  0  0  0  2  0  0  0  0  0  0
  -24.6720  -31.0710   22.1380 N   0  0  0  0  0  0  0  0  0  0  0  0
  -23.5430  -32.1560   23.7850 O   0  0  0  0  0  0  0  0  0  0  0  0
  -22.7410  -29.4710   22.5720 C   0  0  0  0  0  0  0  0  0  0  0  0
  -21.4140  -29.2920   22.4530 N   0  0  0  0  0  0  0  0  0  0  0  0
  -23.4240  -28.8450   23.3860 O   0  0  0  0  0  0  0  0  0  0  0  0
  -20.9210  -29.8480   21.7680 H   0  0  0  0  0  0  0  0  0  0  0  0
  -18.0420  -28.0840   22.9660 C   0  0  0  0  0  0  0  0  0  0  0  0
  -20.6010  -28.3550   23.2310 C   0  0  0  0  0  3  0  0  0  0  0  0
  -20.7070  -26.9210   22.6610 C   0  0  0  0  0  2  0  0  0  0  0  0
  -19.6040  -26.5890   21.6510 C   0  0  0  0  0  2  0  0  0  0  0  0
  -18.2230  -26.7320   22.2970 C   0  0  0  0  0  2  0  0  0  0  0  0
  -19.1590  -28.8530   23.3920 C   0  0  0  0  0  0  0  0  0  0  0  0
  -18.9360  -30.1170   23.9780 C   0  0  0  0  0  3  0  0  0  0  0  0
  -17.6280  -30.6120   24.1450 C   0  0  0  0  0  3  0  0  0  0  0  0
  -16.5260  -29.8410   23.7360 C   0  0  0  0  0  3  0  0  0  0  0  0
  -16.7350  -28.5780   23.1520 C   0  0  0  0  0  3  0  0  0  0  0  0
  -25.9100  -32.5060   23.8500 C   0  0  0  0  0  3  0  0  0  0  0  0
  -25.6020  -33.9000   24.1990 N   0  0  0  0  0  0  0  0  0  0  0  0
  -25.9100  -34.9610   23.4410 C   0  0  0  0  0  0  0  0  0  0  0  0
  -26.5530  -34.8690   22.3910 O   0  0  0  0  0  0  0  0  0  0  0  0
  -25.0280  -34.0460   25.0160 H   0  0  0  0  0  0  0  0  0  0  0  0
  -24.1610  -36.7480   23.1560 C   0  0  0  0  0  1  0  0  0  0  0  0
  -25.4300  -36.3440   23.9240 C   0  0  0  0  0  3  0  0  0  0  0  0
  -27.5870  -37.2360   24.6890 C   0  0  0  0  0  1  0  0  0  0  0  0
  -26.4520  -37.4040   23.7840 N   0  0  0  0  0  0  0  0  0  0  0  0
  -26.0460  -38.3200   23.9510 H   0  0  0  0  0  0  0  0  0  0  0  0
  -26.4450  -31.7240   25.1120 C   0  0  1  0  0  0  0  0  0  0  0  0
  -25.3670  -31.4760   26.1940 C   0  0  0  0  0  1  0  0  0  0  0  0
  -27.0210  -30.3490   24.7010 C   0  0  0  0  0  1  0  0  0  0  0  0
  -27.6050  -32.5120   25.7640 C   0  0  0  0  0  1  0  0  0  0  0  0
  -29.1700  -21.3890   20.1290 C   0  0  0  0  0  3  0  0  0  0  0  0
  -29.9770  -19.9780   20.1600 C   0  0  0  0  0  3  0  0  0  0  0  0
  -29.3400  -18.5380   20.4900 C   0  0  0  0  0  3  0  0  0  0  0  0
  -30.3470  -17.2830   20.3980 C   0  0  0  0  0  3  0  0  0  0  0  0
  -30.6050  -14.7080   20.3740 C   0  0  0  0  0  0  0  0  0  0  0  0
  -30.3770  -12.4490   19.3560 C   0  0  0  0  0  2  0  0  0  0  0  0
  -29.4460  -12.5430   18.1290 C   0  0  0  0  0  2  0  0  0  0  0  0
  -27.9730  -12.3840   18.5530 C   0  0  0  0  0  2  0  0  0  0  0  0
  -27.6010  -13.2600   19.7810 C   0  0  0  0  0  3  0  0  0  0  0  0
  -28.6600  -13.1620   20.9020 C   0  0  0  0  0  2  0  0  0  0  0  0
  -29.9590  -13.4990   20.3100 N   0  0  0  0  0  0  0  0  0  0  0  0
  -31.7880  -14.8000   20.0380 O   0  0  0  0  0  0  0  0  0  0  0  0
  -29.8630  -15.8520   20.5880 N   0  0  0  0  0  0  0  0  0  0  0  0
  -28.8890  -15.7220   20.8180 H   0  0  0  0  0  0  0  0  0  0  0  0
  -25.2070  -13.8430   20.4990 C   0  0  0  0  0  0  0  0  0  0  0  0
  -24.1440  -13.0660   20.8680 C   0  0  0  0  0  0  0  0  0  0  0  0
  -24.6130  -11.7170   20.8420 C   0  0  0  0  0  0  0  0  0  0  0  0
  -26.2570  -12.9690   20.2680 N   0  0  0  0  0  0  0  0  0  0  0  0
  -25.9050  -11.6840   20.5370 N   0  0  0  0  0  0  0  0  0  0  0  0
  -23.8910  -10.4520   21.0330 C   0  0  0  0  0  0  0  0  0  0  0  0
  -24.3230   -9.4880   21.9700 C   0  0  0  0  0  3  0  0  0  0  0  0
  -23.6020   -8.2880   22.1480 C   0  0  0  0  0  3  0  0  0  0  0  0
  -22.4330   -8.0430   21.3890 C   0  0  0  0  0  0  0  0  0  0  0  0
  -22.0190   -8.9960   20.4410 C   0  0  0  0  0  3  0  0  0  0  0  0
  -22.7420  -10.1860   20.2610 C   0  0  0  0  0  3  0  0  0  0  0  0
  -21.6820   -6.8950   21.4790 O   0  0  0  0  0  0  0  0  0  0  0  0
  -21.6300   -6.1560   22.6320 C   0  0  0  0  0  0  0  0  0  0  0  0
  -21.1930   -6.7120   23.8550 C   0  0  0  0  0  3  0  0  0  0  0  0
  -21.0880   -5.8990   25.0010 C   0  0  0  0  0  3  0  0  0  0  0  0
  -21.4110   -4.5300   24.9270 C   0  0  0  0  0  0  0  0  0  0  0  0
  -21.8410   -3.9730   23.7090 C   0  0  0  0  0  3  0  0  0  0  0  0
  -21.9480   -4.7840   22.5660 C   0  0  0  0  0  0  0  0  0  0  0  0
  -22.3420   -4.2380   21.3900 F   0  0  0  0  0  0  0  0  0  0  0  0
  -21.3040   -3.7470   26.0250 F   0  0  0  0  0  0  0  0  0  0  0  0
  -22.7420  -13.5370   21.1310 C   0  0  0  0  0  0  0  0  0  0  0  0
  -22.0150  -12.8440   22.0000 N   0  0  0  0  0  0  0  0  0  0  0  0
  -22.3030  -14.5570   20.6020 O   0  0  0  0  0  0  0  0  0  0  0  0
  -22.3840  -12.0210   22.4520 H   0  0  0  0  0  0  0  0  0  0  0  0
  -21.0740  -13.1420   22.2160 H   0  0  0  0  0  0  0  0  0  0  0  0
  -25.3670  -15.2140   20.3160 N   0  0  0  0  0  0  0  0  0  0  0  0
  -24.5970  -15.8650   20.4220 H   0  0  0  0  0  0  0  0  0  0  0  0
  -26.2080  -15.6500   19.9600 H   0  0  0  0  0  0  0  0  0  0  0  0
  1  8  1  0
  2  1  2  0
  2 50  1  0
  3  1  1  0
  4  6  1  0
  5  6  1  0
  5  3  2  0
  6  2  1  0
  7  3  1  0
  9  8  1  0
 10 21  2  0
 11  9  1  0
 11 16  1  0
 12 20  1  0
 12 22  1  0
 13 19  1  0
 13 15  1  0
 14 20  1  0
 15 14  1  0
 16 15  2  0
 17 18  1  0
 17 11  2  0
 18 13  2  0
 19 12  1  0
 20 10  1  0
 22 24  2  0
 23 22  1  0
 25 23  1  0
 26 35  2  0
 26 31  1  0
 27 23  1  0
 27 31  1  0
 28 27  1  0
 29 30  1  0
 29 28  1  0
 30 26  1  0
 31 32  2  0
 32 33  1  0
 34 33  2  0
 35 34  1  0
 36 10  1  0
 36 37  1  0
 36 46  1  0
 37 40  1  0
 38 42  1  0
 38 37  1  0
 39 38  2  0
 42 41  1  0
 44 42  1  0
 44 45  1  0
 44 43  1  0
 46 49  1  1
 46 47  1  0
 48 46  1  0
 50 51  2  0
 51 52  1  0
 53 52  2  0
 53 62  1  0
 54 62  1  0
 55 60  1  0
 56 57  1  0
 56 55  1  0
 58 57  1  0
 58 67  1  0
 58 59  1  0
 60 54  1  0
 60 59  1  0
 61 54  2  0
 62 63  1  0
 64 65  2  0
 65 84  1  0
 66 65  1  0
 66 69  1  0
 67 64  1  0
 67 68  1  0
 68 66  2  0
 69 70  1  0
 70 71  2  0
 72 75  1  0
 72 71  1  0
 73 72  2  0
 74 73  1  0
 74 69  2  0
 75 76  1  0
 76 77  1  0
 77 78  2  0
 79 78  1  0
 79 83  1  0
 80 79  2  0
 81 76  2  0
 81 80  1  0
 82 81  1  0
 84 85  1  0
 85 88  1  0
 85 87  1  0
 86 84  2  0
 89 90  1  0
 89 64  1  0
 91 89  1  0
M  ISO  4   8 101   9 101  54 100  62 100
M  END
>  <TORSDO>  (42) 
F 21

>  <SCORE>  (42) 
-13.271

>  <name>  (42) 
42

>  <ligand_id>  (42) 
42

>  <original_smiles>  (42) 
[H]c1c([H])c([H])c2c(c1[H])C([H])([H])C([H])([H])C([H])([H])C2([H])N([H])C(=O)C1([H])N(C(=O)C([H])(N([H])C(=O)C([H])(N([H])C([H])([H])[H])C([H])([H])[H])C(C([H])([H])[H])(C([H])([H])[H])C([H])([H])[H])C([H])([H])c2c([H])c(OC([H])([H])c3c(Cl)nn(C([H])([H])[H])c3C([H])([H])C([H])([H])C([H])([H])C([H])([H])N([H])C(=O)N3C([H])([H])C([H])([H])C([H])([H])C([H])(n4nc(-c5c([H])c([H])c(Oc6c([H])c([H])c(F)c([H])c6F)c([H])c5[H])c(C(=O)N([H])[H])c4N([H])[H])C3([H])[H])c([H])c([H])c2C1([H])[H]

>  <smiles>  (42) 
[H]c1c([H])c([H])c2c(c1[H])C([H])([H])C([H])([H])C([H])([H])C2([H])N([H])C(=O)C1([H])N(C(=O)C([H])(N([H])C(=O)C([H])(N([H])C([H])([H])[H])C([H])([H])[H])C(C([H])([H])[H])(C([H])([H])[H])C([H])([H])[H])C([H])([H])c2c([H])c(OC([H])([H])c3c(Cl)nn(C([H])([H])[H])c3C([H])([H])C([H])([H])C([H])([H])C([H])([H])N([H])C(=O)N3C([H])([H])C([H])([H])C([H])([H])C([H])(n4nc(-c5c([H])c([H])c(Oc6c([H])c([H])c(F)c([H])c6F)c([H])c5[H])c(C(=O)N([H])[H])c4N([H])[H])C3([H])[H])c([H])c([H])c2C1([H])[H]

$$$$
43:0:0
     RDKit          3D

 90 98  0  0  1  0  0  0  0  0999 V2000
  -30.5400  -21.0330   20.9580 C   0  0  0  0  0  3  0  0  0  0  0  0
  -28.4380  -20.0340   20.4130 C   0  0  0  0  0  3  0  0  0  0  0  0
  -29.1740  -21.2160   20.6690 C   0  0  0  0  0  0  0  0  0  0  0  0
  -31.0830  -19.7180   21.0260 C   0  0  0  0  0  0  0  0  0  0  0  0
  -30.2540  -18.5860   20.7630 C   0  0  0  0  0  0  0  0  0  0  0  0
  -32.5370  -19.5710   21.4520 C   0  0  0  0  0  1  0  0  0  0  0  0
  -28.9480  -18.7740   20.4610 N   0  0  0  0  0  0  0  0  0  0  0  0
  -30.5690  -16.7650   22.5040 C   0  0  0  0  0  1  0  0  0  0  0  0
  -30.7230  -17.1100   21.0090 C   0  0  0  0  0  3  0  0  0  0  0  0
  -30.0640  -15.9840   20.1270 C   0  0  0  0  0  2  0  0  0  0  0  0
  -30.8640  -14.6420   19.9270 C   0  0  0  0  0  0  0  0  0  0  0  0
  -30.5640  -12.3980   18.9300 C   0  0  0  0  0  2  0  0  0  0  0  0
  -29.5660  -12.5500   17.7600 C   0  0  0  0  0  2  0  0  0  0  0  0
  -28.1120  -12.4240   18.2590 C   0  0  0  0  0  2  0  0  0  0  0  0
  -27.8320  -13.2970   19.5110 C   0  0  0  0  0  3  0  0  0  0  0  0
  -28.9450  -13.1360   20.5700 C   0  0  0  0  0  2  0  0  0  0  0  0
  -30.2310  -13.4300   19.9280 N   0  0  0  0  0  0  0  0  0  0  0  0
  -32.0260  -14.7430   19.5220 O   0  0  0  0  0  0  0  0  0  0  0  0
  -25.5070  -13.9360   20.4020 C   0  0  0  0  0  0  0  0  0  0  0  0
  -24.4460  -13.1810   20.8230 C   0  0  0  0  0  0  0  0  0  0  0  0
  -24.8690  -11.8180   20.7280 C   0  0  0  0  0  0  0  0  0  0  0  0
  -26.5100  -13.0360   20.0760 N   0  0  0  0  0  0  0  0  0  0  0  0
  -26.1340  -11.7560   20.3300 N   0  0  0  0  0  0  0  0  0  0  0  0
  -24.1240  -10.5710   20.9340 C   0  0  0  0  0  0  0  0  0  0  0  0
  -24.5590   -9.5940   21.8570 C   0  0  0  0  0  3  0  0  0  0  0  0
  -23.8150   -8.4110   22.0500 C   0  0  0  0  0  3  0  0  0  0  0  0
  -22.6210   -8.1970   21.3200 C   0  0  0  0  0  0  0  0  0  0  0  0
  -22.2040   -9.1620   20.3870 C   0  0  0  0  0  3  0  0  0  0  0  0
  -22.9500  -10.3370   20.1920 C   0  0  0  0  0  3  0  0  0  0  0  0
  -21.8450   -7.0670   21.4250 O   0  0  0  0  0  0  0  0  0  0  0  0
  -21.7720   -6.3500   22.5920 C   0  0  0  0  0  0  0  0  0  0  0  0
  -21.3190   -6.9330   23.7950 C   0  0  0  0  0  3  0  0  0  0  0  0
  -21.1910   -6.1410   24.9550 C   0  0  0  0  0  3  0  0  0  0  0  0
  -21.5040   -4.7710   24.9120 C   0  0  0  0  0  0  0  0  0  0  0  0
  -21.9510   -4.1880   23.7120 C   0  0  0  0  0  3  0  0  0  0  0  0
  -22.0810   -4.9760   22.5550 C   0  0  0  0  0  0  0  0  0  0  0  0
  -22.4900   -4.4050   21.3970 F   0  0  0  0  0  0  0  0  0  0  0  0
  -21.3760   -4.0080   26.0240 F   0  0  0  0  0  0  0  0  0  0  0  0
  -23.0830  -13.6870   21.1980 C   0  0  0  0  0  0  0  0  0  0  0  0
  -22.3950  -12.9930   22.0980 N   0  0  0  0  0  0  0  0  0  0  0  0
  -22.6380  -14.7320   20.7260 O   0  0  0  0  0  0  0  0  0  0  0  0
  -22.7660  -12.1470   22.5060 H   0  0  0  0  0  0  0  0  0  0  0  0
  -21.4840  -13.3170   22.3880 H   0  0  0  0  0  0  0  0  0  0  0  0
  -25.6940  -15.3070   20.2490 N   0  0  0  0  0  0  0  0  0  0  0  0
  -24.9510  -15.9720   20.4310 H   0  0  0  0  0  0  0  0  0  0  0  0
  -26.5350  -15.7430   19.8940 H   0  0  0  0  0  0  0  0  0  0  0  0
  -28.4320  -22.5860   20.7750 C   0  0  0  0  0  2  0  0  0  0  0  0
  -29.0970  -23.9620   20.3760 C   0  0  0  0  0  2  0  0  0  0  0  0
  -28.1060  -25.1690   20.6200 C   0  0  0  0  0  2  0  0  0  0  0  0
  -28.4260  -26.5370   20.1870 O   0  0  0  0  0  0  0  0  0  0  0  0
  -24.7010  -31.8590   23.2600 C   0  0  0  0  0  0  0  0  0  0  0  0
  -27.3220  -27.3890   20.1360 C   0  0  0  0  0  0  0  0  0  0  0  0
  -23.4940  -30.4720   21.6110 C   0  0  0  0  0  3  0  0  0  0  0  0
  -24.9480  -28.9590   20.1510 C   0  0  0  0  0  0  0  0  0  0  0  0
  -26.0240  -30.8210   21.4140 C   0  0  0  0  0  2  0  0  0  0  0  0
  -26.1110  -29.4530   20.7540 C   0  0  0  0  0  0  0  0  0  0  0  0
  -27.3030  -28.6770   20.7450 C   0  0  0  0  0  3  0  0  0  0  0  0
  -26.1500  -26.9560   19.4800 C   0  0  0  0  0  3  0  0  0  0  0  0
  -24.9670  -27.7150   19.5020 C   0  0  0  0  0  3  0  0  0  0  0  0
  -23.7040  -29.8180   20.2180 C   0  0  0  0  0  2  0  0  0  0  0  0
  -24.7580  -31.0670   22.1520 N   0  0  0  0  0  0  0  0  0  0  0  0
  -23.6200  -32.1230   23.8070 O   0  0  0  0  0  0  0  0  0  0  0  0
  -22.8510  -29.4340   22.5620 C   0  0  0  0  0  0  0  0  0  0  0  0
  -21.5260  -29.2470   22.4410 N   0  0  0  0  0  0  0  0  0  0  0  0
  -23.5420  -28.8060   23.3690 O   0  0  0  0  0  0  0  0  0  0  0  0
  -21.0320  -29.8170   21.7690 H   0  0  0  0  0  0  0  0  0  0  0  0
  -18.1630  -28.0110   22.9300 C   0  0  0  0  0  0  0  0  0  0  0  0
  -20.7180  -28.2940   23.2030 C   0  0  0  0  0  3  0  0  0  0  0  0
  -20.8340  -26.8670   22.6210 C   0  0  0  0  0  2  0  0  0  0  0  0
  -19.7360  -26.5390   21.6030 C   0  0  0  0  0  2  0  0  0  0  0  0
  -18.3510  -26.6690   22.2440 C   0  0  0  0  0  2  0  0  0  0  0  0
  -19.2730  -28.7810   23.3680 C   0  0  0  0  0  0  0  0  0  0  0  0
  -19.0410  -30.0380   23.9680 C   0  0  0  0  0  3  0  0  0  0  0  0
  -17.7320  -30.5250   24.1360 C   0  0  0  0  0  3  0  0  0  0  0  0
  -16.6350  -29.7540   23.7130 C   0  0  0  0  0  3  0  0  0  0  0  0
  -16.8510  -28.4970   23.1160 C   0  0  0  0  0  3  0  0  0  0  0  0
  -25.9870  -32.4890   23.8790 C   0  0  0  0  0  3  0  0  0  0  0  0
  -25.6840  -33.8900   24.1960 N   0  0  0  0  0  0  0  0  0  0  0  0
  -26.0290  -34.9360   23.4310 C   0  0  0  0  0  0  0  0  0  0  0  0
  -26.7050  -34.8210   22.4060 O   0  0  0  0  0  0  0  0  0  0  0  0
  -25.0840  -34.0550   24.9920 H   0  0  0  0  0  0  0  0  0  0  0  0
  -24.3160  -36.7380   23.0430 C   0  0  0  0  0  1  0  0  0  0  0  0
  -25.5440  -36.3300   23.8730 C   0  0  0  0  0  3  0  0  0  0  0  0
  -27.6740  -37.2090   24.7230 C   0  0  0  0  0  1  0  0  0  0  0  0
  -26.5860  -37.3750   23.7640 N   0  0  0  0  0  0  0  0  0  0  0  0
  -26.1840  -38.2990   23.8960 H   0  0  0  0  0  0  0  0  0  0  0  0
  -26.4970  -31.7250   25.1630 C   0  0  1  0  0  0  0  0  0  0  0  0
  -25.3970  -31.4980   26.2270 C   0  0  0  0  0  1  0  0  0  0  0  0
  -27.0800  -30.3430   24.7830 C   0  0  0  0  0  1  0  0  0  0  0  0
  -27.6450  -32.5230   25.8240 C   0  0  0  0  0  1  0  0  0  0  0  0
  1  4  1  0
  2  7  2  0
  2  3  1  0
  3 47  1  0
  3  1  2  0
  4  6  1  0
  5  9  1  0
  5  4  2  0
  7  5  1  0
  9  8  1  0
 10  9  1  0
 11 17  1  0
 11 10  1  0
 12 17  1  0
 13 14  1  0
 13 12  1  0
 15 14  1  0
 15 22  1  0
 15 16  1  0
 17 16  1  0
 18 11  2  0
 19 20  2  0
 20 39  1  0
 21 20  1  0
 21 24  1  0
 22 23  1  0
 22 19  1  0
 23 21  2  0
 24 25  1  0
 25 26  2  0
 27 30  1  0
 27 26  1  0
 28 27  2  0
 29 28  1  0
 29 24  2  0
 30 31  1  0
 31 32  1  0
 32 33  2  0
 34 33  1  0
 34 38  1  0
 35 34  2  0
 36 31  2  0
 36 35  1  0
 37 36  1  0
 39 40  1  0
 40 43  1  0
 40 42  1  0
 41 39  2  0
 44 19  1  0
 44 45  1  0
 46 44  1  0
 48 49  1  0
 48 47  1  0
 50 49  1  0
 51 62  2  0
 52 50  1  0
 52 57  1  0
 53 61  1  0
 53 63  1  0
 54 60  1  0
 54 56  1  0
 55 61  1  0
 56 55  1  0
 57 56  2  0
 58 59  1  0
 58 52  2  0
 59 54  2  0
 60 53  1  0
 61 51  1  0
 63 65  2  0
 64 63  1  0
 66 64  1  0
 67 76  2  0
 67 72  1  0
 68 64  1  0
 68 72  1  0
 69 68  1  0
 70 71  1  0
 70 69  1  0
 71 67  1  0
 72 73  2  0
 73 74  1  0
 75 74  2  0
 76 75  1  0
 77 51  1  0
 77 78  1  0
 77 87  1  0
 78 81  1  0
 79 83  1  0
 79 78  1  0
 80 79  2  0
 83 82  1  0
 85 83  1  0
 85 86  1  0
 85 84  1  0
 87 90  1  1
 87 88  1  0
 89 87  1  0
M  ISO  4  10 100  11 100  49 101  50 101
M  END
>  <TORSDO>  (43) 
F 21

>  <SCORE>  (43) 
-13.523

>  <name>  (43) 
43

>  <ligand_id>  (43) 
43

>  <original_smiles>  (43) 
[H]c1nc(C([H])(C([H])([H])[H])C([H])([H])C(=O)N2C([H])([H])C([H])([H])C([H])([H])C([H])(n3nc(-c4c([H])c([H])c(Oc5c([H])c([H])c(F)c([H])c5F)c([H])c4[H])c(C(=O)N([H])[H])c3N([H])[H])C2([H])[H])c(C([H])([H])[H])c([H])c1C([H])([H])C([H])([H])C([H])([H])Oc1c([H])c([H])c2c(c1[H])C([H])([H])N(C(=O)C([H])(N([H])C(=O)C([H])(N([H])C([H])([H])[H])C([H])([H])[H])C(C([H])([H])[H])(C([H])([H])[H])C([H])([H])[H])C([H])(C(=O)N([H])C1([H])c3c([H])c([H])c([H])c([H])c3C([H])([H])C([H])([H])C1([H])[H])C2([H])[H]

>  <smiles>  (43) 
[H]c1nc(C([H])(C([H])([H])[H])C([H])([H])C(=O)N2C([H])([H])C([H])([H])C([H])([H])C([H])(n3nc(-c4c([H])c([H])c(Oc5c([H])c([H])c(F)c([H])c5F)c([H])c4[H])c(C(=O)N([H])[H])c3N([H])[H])C2([H])[H])c(C([H])([H])[H])c([H])c1C([H])([H])C([H])([H])C([H])([H])Oc1c([H])c([H])c2c(c1[H])C([H])([H])N(C(=O)C([H])(N([H])C(=O)C([H])(N([H])C([H])([H])[H])C([H])([H])[H])C(C([H])([H])[H])(C([H])([H])[H])C([H])([H])[H])C([H])(C(=O)N([H])C1([H])c3c([H])c([H])c([H])c([H])c3C([H])([H])C([H])([H])C1([H])[H])C2([H])[H]

$$$$
44:0:0
     RDKit          3D

 93101  0  0  1  0  0  0  0  0999 V2000
  -30.3980  -21.1410   18.3570 C   0  0  0  0  0  3  0  0  0  0  0  0
  -30.0150  -22.4890   18.2200 C   0  0  0  0  0  3  0  0  0  0  0  0
  -28.2300  -20.6190   19.3130 C   0  0  0  0  0  3  0  0  0  0  0  0
  -29.5150  -20.1930   18.9100 C   0  0  0  0  0  0  0  0  0  0  0  0
  -28.7400  -22.9230   18.6460 C   0  0  0  0  0  0  0  0  0  0  0  0
  -27.8480  -21.9720   19.2070 C   0  0  0  0  0  0  0  0  0  0  0  0
  -26.2820  -22.4300   19.7850 Cl  0  0  0  0  0  0  0  0  0  0  0  0
  -27.4290  -24.5410   17.2250 C   0  0  0  0  0  1  0  0  0  0  0  0
  -28.3170  -24.3840   18.4750 C   0  0  0  0  0  3  0  0  0  0  0  0
  -29.4930  -25.3920   18.4780 C   0  0  0  0  0  2  0  0  0  0  0  0
  -29.0700  -26.8310   18.7960 C   0  0  0  0  0  2  0  0  0  0  0  0
  -28.5390  -26.9030   20.1200 O   0  0  0  0  0  0  0  0  0  0  0  0
  -24.5910  -31.9220   23.2290 C   0  0  0  0  0  0  0  0  0  0  0  0
  -27.3390  -27.5590   20.1870 C   0  0  0  0  0  0  0  0  0  0  0  0
  -23.4250  -30.5150   21.5620 C   0  0  0  0  0  3  0  0  0  0  0  0
  -24.9170  -28.9900   20.1780 C   0  0  0  0  0  0  0  0  0  0  0  0
  -25.9440  -30.9120   21.4020 C   0  0  0  0  0  2  0  0  0  0  0  0
  -26.0560  -29.5400   20.7800 C   0  0  0  0  0  0  0  0  0  0  0  0
  -27.2710  -28.8260   20.7980 C   0  0  0  0  0  3  0  0  0  0  0  0
  -26.1770  -26.9960   19.6150 C   0  0  0  0  0  3  0  0  0  0  0  0
  -24.9640  -27.7070   19.6060 C   0  0  0  0  0  3  0  0  0  0  0  0
  -23.6680  -29.8390   20.1870 C   0  0  0  0  0  2  0  0  0  0  0  0
  -24.6710  -31.1290   22.1270 N   0  0  0  0  0  0  0  0  0  0  0  0
  -23.4980  -32.1810   23.7520 O   0  0  0  0  0  0  0  0  0  0  0  0
  -22.7690  -29.4810   22.5070 C   0  0  0  0  0  0  0  0  0  0  0  0
  -21.4450  -29.3030   22.3680 N   0  0  0  0  0  0  0  0  0  0  0  0
  -23.4470  -28.8460   23.3190 O   0  0  0  0  0  0  0  0  0  0  0  0
  -20.9600  -29.8720   21.6870 H   0  0  0  0  0  0  0  0  0  0  0  0
  -18.0590  -28.1440   22.8540 C   0  0  0  0  0  0  0  0  0  0  0  0
  -20.6200  -28.3620   23.1230 C   0  0  0  0  0  3  0  0  0  0  0  0
  -20.7030  -26.9400   22.5220 C   0  0  0  0  0  2  0  0  0  0  0  0
  -19.5960  -26.6490   21.5060 C   0  0  0  0  0  2  0  0  0  0  0  0
  -18.2160  -26.8030   22.1540 C   0  0  0  0  0  2  0  0  0  0  0  0
  -19.1890  -28.8820   23.2940 C   0  0  0  0  0  0  0  0  0  0  0  0
  -18.9910  -30.1390   23.9060 C   0  0  0  0  0  3  0  0  0  0  0  0
  -17.6950  -30.6580   24.0790 C   0  0  0  0  0  3  0  0  0  0  0  0
  -16.5780  -29.9180   23.6540 C   0  0  0  0  0  3  0  0  0  0  0  0
  -16.7600  -28.6620   23.0470 C   0  0  0  0  0  3  0  0  0  0  0  0
  -25.8620  -32.5640   23.8690 C   0  0  0  0  0  3  0  0  0  0  0  0
  -25.5350  -33.9600   24.1860 N   0  0  0  0  0  0  0  0  0  0  0  0
  -25.8730  -35.0110   23.4230 C   0  0  0  0  0  0  0  0  0  0  0  0
  -26.5620  -34.9050   22.4060 O   0  0  0  0  0  0  0  0  0  0  0  0
  -24.9340  -34.1160   24.9800 H   0  0  0  0  0  0  0  0  0  0  0  0
  -24.1410  -36.7880   23.0210 C   0  0  0  0  0  1  0  0  0  0  0  0
  -25.3650  -36.3970   23.8640 C   0  0  0  0  0  3  0  0  0  0  0  0
  -27.4740  -37.3000   24.7390 C   0  0  0  0  0  1  0  0  0  0  0  0
  -26.3910  -37.4580   23.7720 N   0  0  0  0  0  0  0  0  0  0  0  0
  -25.9740  -38.3740   23.9090 H   0  0  0  0  0  0  0  0  0  0  0  0
  -26.3620  -31.8000   25.1550 C   0  0  1  0  0  0  0  0  0  0  0  0
  -25.2550  -31.5520   26.2030 C   0  0  0  0  0  1  0  0  0  0  0  0
  -26.9630  -30.4270   24.7670 C   0  0  0  0  0  1  0  0  0  0  0  0
  -27.4880  -32.6080   25.8430 C   0  0  0  0  0  1  0  0  0  0  0  0
  -29.9810  -18.7430   19.0490 C   0  0  0  0  0  2  0  0  0  0  0  0
  -29.3970  -17.9540   20.2520 C   0  0  0  0  0  2  0  0  0  0  0  0
  -30.3960  -17.0250   20.9970 C   0  0  0  0  0  2  0  0  0  0  0  0
  -30.6760  -14.5760   20.4970 C   0  0  0  0  0  0  0  0  0  0  0  0
  -30.3730  -12.4100   19.3560 C   0  0  0  0  0  2  0  0  0  0  0  0
  -29.4410  -12.6090   18.1450 C   0  0  0  0  0  2  0  0  0  0  0  0
  -27.9660  -12.4730   18.5700 C   0  0  0  0  0  2  0  0  0  0  0  0
  -27.6200  -13.3010   19.8370 C   0  0  0  0  0  3  0  0  0  0  0  0
  -28.6760  -13.1000   20.9480 C   0  0  0  0  0  2  0  0  0  0  0  0
  -29.9980  -13.4010   20.3770 N   0  0  0  0  0  0  0  0  0  0  0  0
  -31.8070  -14.7420   20.0350 O   0  0  0  0  0  0  0  0  0  0  0  0
  -29.9770  -15.6110   20.9960 N   0  0  0  0  0  0  0  0  0  0  0  0
  -29.0530  -15.4090   21.3460 H   0  0  0  0  0  0  0  0  0  0  0  0
  -25.2130  -13.8840   20.5340 C   0  0  0  0  0  0  0  0  0  0  0  0
  -24.1490  -13.1020   20.8970 C   0  0  0  0  0  0  0  0  0  0  0  0
  -24.6210  -11.7540   20.8690 C   0  0  0  0  0  0  0  0  0  0  0  0
  -26.2670  -13.0110   20.3110 N   0  0  0  0  0  0  0  0  0  0  0  0
  -25.9130  -11.7250   20.5730 N   0  0  0  0  0  0  0  0  0  0  0  0
  -23.9060  -10.4840   21.0540 C   0  0  0  0  0  0  0  0  0  0  0  0
  -24.3350   -9.5280   22.0020 C   0  0  0  0  0  3  0  0  0  0  0  0
  -23.6220   -8.3220   22.1770 C   0  0  0  0  0  3  0  0  0  0  0  0
  -22.4640   -8.0640   21.4030 C   0  0  0  0  0  0  0  0  0  0  0  0
  -22.0540   -9.0100   20.4480 C   0  0  0  0  0  3  0  0  0  0  0  0
  -22.7650  -10.2090   20.2720 C   0  0  0  0  0  3  0  0  0  0  0  0
  -21.7210   -6.9100   21.4830 O   0  0  0  0  0  0  0  0  0  0  0  0
  -21.6560   -6.1750   22.6400 C   0  0  0  0  0  0  0  0  0  0  0  0
  -21.1800   -6.7290   23.8480 C   0  0  0  0  0  3  0  0  0  0  0  0
  -21.0720   -5.9210   24.9980 C   0  0  0  0  0  3  0  0  0  0  0  0
  -21.4200   -4.5580   24.9360 C   0  0  0  0  0  0  0  0  0  0  0  0
  -21.8830   -4.0010   23.7300 C   0  0  0  0  0  3  0  0  0  0  0  0
  -21.9980   -4.8090   22.5840 C   0  0  0  0  0  0  0  0  0  0  0  0
  -22.4250   -4.2650   21.4180 F   0  0  0  0  0  0  0  0  0  0  0  0
  -21.3060   -3.7780   26.0350 F   0  0  0  0  0  0  0  0  0  0  0  0
  -22.7440  -13.5640   21.1570 C   0  0  0  0  0  0  0  0  0  0  0  0
  -22.0150  -12.8580   22.0140 N   0  0  0  0  0  0  0  0  0  0  0  0
  -22.3000  -14.5850   20.6340 O   0  0  0  0  0  0  0  0  0  0  0  0
  -22.3820  -12.0300   22.4570 H   0  0  0  0  0  0  0  0  0  0  0  0
  -21.0700  -13.1480   22.2260 H   0  0  0  0  0  0  0  0  0  0  0  0
  -25.3700  -15.2540   20.3500 N   0  0  0  0  0  0  0  0  0  0  0  0
  -24.6010  -15.9100   20.4360 H   0  0  0  0  0  0  0  0  0  0  0  0
  -26.2150  -15.6830   19.9940 H   0  0  0  0  0  0  0  0  0  0  0  0
  1  4  1  0
  2  1  2  0
  2  5  1  0
  4 53  1  0
  4  3  2  0
  5  6  2  0
  6  3  1  0
  6  7  1  0
  9  8  1  0
  9 10  1  0
  9  5  1  0
 10 11  1  0
 11 12  1  0
 12 14  1  0
 13 24  2  0
 14 19  1  0
 15 23  1  0
 15 25  1  0
 16 22  1  0
 16 18  1  0
 17 23  1  0
 18 19  2  0
 18 17  1  0
 20 14  2  0
 21 20  1  0
 21 16  2  0
 22 15  1  0
 23 13  1  0
 25 27  2  0
 26 25  1  0
 28 26  1  0
 29 38  2  0
 29 34  1  0
 30 26  1  0
 30 34  1  0
 31 30  1  0
 32 33  1  0
 32 31  1  0
 33 29  1  0
 34 35  2  0
 35 36  1  0
 37 36  2  0
 38 37  1  0
 39 13  1  0
 39 40  1  0
 39 49  1  0
 40 43  1  0
 41 45  1  0
 41 40  1  0
 42 41  2  0
 45 44  1  0
 47 45  1  0
 47 48  1  0
 47 46  1  0
 49 52  1  1
 49 50  1  0
 51 49  1  0
 53 54  1  0
 54 55  1  0
 56 64  1  0
 57 62  1  0
 58 59  1  0
 58 57  1  0
 60 59  1  0
 60 69  1  0
 60 61  1  0
 62 56  1  0
 62 61  1  0
 63 56  2  0
 64 55  1  0
 64 65  1  0
 66 67  2  0
 67 86  1  0
 68 67  1  0
 68 71  1  0
 69 66  1  0
 69 70  1  0
 70 68  2  0
 71 72  1  0
 72 73  2  0
 74 77  1  0
 74 73  1  0
 75 74  2  0
 76 75  1  0
 76 71  2  0
 77 78  1  0
 78 79  1  0
 79 80  2  0
 81 80  1  0
 81 85  1  0
 82 81  2  0
 83 78  2  0
 83 82  1  0
 84 83  1  0
 86 87  1  0
 87 90  1  0
 87 89  1  0
 88 86  2  0
 91 92  1  0
 91 66  1  0
 93 91  1  0
M  ISO  4  11 101  12 101  56 100  64 100
M  END
>  <TORSDO>  (44) 
F 22

>  <SCORE>  (44) 
-13.139

>  <name>  (44) 
44

>  <ligand_id>  (44) 
44

>  <original_smiles>  (44) 
[H]c1c([H])c([H])c2c(c1[H])C([H])([H])C([H])([H])C([H])([H])C2([H])N([H])C(=O)C1([H])N(C(=O)C([H])(N([H])C(=O)C([H])(N([H])C([H])([H])[H])C([H])([H])[H])C(C([H])([H])[H])(C([H])([H])[H])C([H])([H])[H])C([H])([H])c2c([H])c(OC([H])([H])C([H])([H])C([H])(c3c([H])c([H])c(C([H])([H])C([H])([H])C([H])([H])N([H])C(=O)N4C([H])([H])C([H])([H])C([H])([H])C([H])(n5nc(-c6c([H])c([H])c(Oc7c([H])c([H])c(F)c([H])c7F)c([H])c6[H])c(C(=O)N([H])[H])c5N([H])[H])C4([H])[H])c([H])c3Cl)C([H])([H])[H])c([H])c([H])c2C1([H])[H]

>  <smiles>  (44) 
[H]c1c([H])c([H])c2c(c1[H])C([H])([H])C([H])([H])C([H])([H])C2([H])N([H])C(=O)C1([H])N(C(=O)C([H])(N([H])C(=O)C([H])(N([H])C([H])([H])[H])C([H])([H])[H])C(C([H])([H])[H])(C([H])([H])[H])C([H])([H])[H])C([H])([H])c2c([H])c(OC([H])([H])C([H])([H])C([H])(c3c([H])c([H])c(C([H])([H])C([H])([H])C([H])([H])N([H])C(=O)N4C([H])([H])C([H])([H])C([H])([H])C([H])(n5nc(-c6c([H])c([H])c(Oc7c([H])c([H])c(F)c([H])c7F)c([H])c6[H])c(C(=O)N([H])[H])c5N([H])[H])C4([H])[H])c([H])c3Cl)C([H])([H])[H])c([H])c([H])c2C1([H])[H]

$$$$
45:0:0
     RDKit          3D

 92100  0  0  1  0  0  0  0  0999 V2000
  -28.6270  -22.4260   20.6680 C   0  0  0  0  0  3  0  0  0  0  0  0
  -29.3840  -21.2760   20.2160 C   0  0  0  0  0  0  0  0  0  0  0  0
  -28.9440  -23.7890   20.2870 C   0  0  0  0  0  0  0  0  0  0  0  0
  -30.4740  -21.5980   19.3680 C   0  0  0  0  0  0  0  0  0  0  0  0
  -30.1010  -23.9240   19.4920 C   0  0  0  0  0  0  0  0  0  0  0  0
  -30.6660  -25.2570   19.0370 C   0  0  0  0  0  1  0  0  0  0  0  0
  -30.8230  -22.8680   19.0650 N   0  0  0  0  0  0  0  0  0  0  0  0
  -31.3120  -20.5740   18.6210 C   0  0  0  0  0  2  0  0  0  0  0  0
  -30.9110  -20.5630   16.8780 Cl  0  0  0  0  0  0  0  0  0  0  0  0
  -28.8990  -19.7740   20.4550 C   0  0  0  0  0  2  0  0  0  0  0  0
  -29.8250  -18.5260   20.9300 C   0  0  0  0  0  2  0  0  0  0  0  0
  -29.8540  -17.1680   20.0560 C   0  0  0  0  0  2  0  0  0  0  0  0
  -30.6130  -14.6910   20.3670 C   0  0  0  0  0  0  0  0  0  0  0  0
  -30.3750  -12.4300   19.3360 C   0  0  0  0  0  2  0  0  0  0  0  0
  -29.4530  -12.5780   18.1040 C   0  0  0  0  0  2  0  0  0  0  0  0
  -27.9810  -12.4120   18.5220 C   0  0  0  0  0  2  0  0  0  0  0  0
  -27.6220  -13.2810   19.7550 C   0  0  0  0  0  3  0  0  0  0  0  0
  -28.6680  -13.1440   20.8870 C   0  0  0  0  0  2  0  0  0  0  0  0
  -29.9850  -13.4680   20.3210 N   0  0  0  0  0  0  0  0  0  0  0  0
  -31.7580  -14.8280   19.9300 O   0  0  0  0  0  0  0  0  0  0  0  0
  -29.8520  -15.7890   20.7010 N   0  0  0  0  0  0  0  0  0  0  0  0
  -28.9900  -15.5480   21.1700 H   0  0  0  0  0  0  0  0  0  0  0  0
  -25.2200  -13.8870   20.4240 C   0  0  0  0  0  0  0  0  0  0  0  0
  -24.1490  -13.1190   20.7850 C   0  0  0  0  0  0  0  0  0  0  0  0
  -24.6130  -11.7650   20.7840 C   0  0  0  0  0  0  0  0  0  0  0  0
  -26.2680  -13.0040   20.2250 N   0  0  0  0  0  0  0  0  0  0  0  0
  -25.9070  -11.7240   20.4980 N   0  0  0  0  0  0  0  0  0  0  0  0
  -23.8840  -10.5060   20.9790 C   0  0  0  0  0  0  0  0  0  0  0  0
  -24.2990   -9.5540   21.9370 C   0  0  0  0  0  3  0  0  0  0  0  0
  -23.5690   -8.3580   22.1210 C   0  0  0  0  0  3  0  0  0  0  0  0
  -22.4130   -8.1080   21.3450 C   0  0  0  0  0  0  0  0  0  0  0  0
  -22.0170   -9.0490   20.3780 C   0  0  0  0  0  3  0  0  0  0  0  0
  -22.7460  -10.2330   20.1930 C   0  0  0  0  0  3  0  0  0  0  0  0
  -21.6590   -6.9630   21.4360 O   0  0  0  0  0  0  0  0  0  0  0  0
  -21.5870   -6.2400   22.5990 C   0  0  0  0  0  0  0  0  0  0  0  0
  -21.1190   -6.8100   23.8030 C   0  0  0  0  0  3  0  0  0  0  0  0
  -20.9950   -6.0130   24.9580 C   0  0  0  0  0  3  0  0  0  0  0  0
  -21.3280   -4.6460   24.9100 C   0  0  0  0  0  0  0  0  0  0  0  0
  -21.7920   -4.0760   23.7110 C   0  0  0  0  0  3  0  0  0  0  0  0
  -21.9170   -4.8700   22.5580 C   0  0  0  0  0  0  0  0  0  0  0  0
  -22.3430   -4.3110   21.4000 F   0  0  0  0  0  0  0  0  0  0  0  0
  -21.2030   -3.8790   26.0180 F   0  0  0  0  0  0  0  0  0  0  0  0
  -22.7480  -13.5980   21.0330 C   0  0  0  0  0  0  0  0  0  0  0  0
  -22.0160  -12.9090   21.8990 N   0  0  0  0  0  0  0  0  0  0  0  0
  -22.3170  -14.6180   20.4970 O   0  0  0  0  0  0  0  0  0  0  0  0
  -22.3830  -12.0840   22.3500 H   0  0  0  0  0  0  0  0  0  0  0  0
  -21.0750  -13.2110   22.1170 H   0  0  0  0  0  0  0  0  0  0  0  0
  -25.3910  -15.2550   20.2290 N   0  0  0  0  0  0  0  0  0  0  0  0
  -24.6240  -15.9130   20.3010 H   0  0  0  0  0  0  0  0  0  0  0  0
  -26.2520  -15.6830   19.9150 H   0  0  0  0  0  0  0  0  0  0  0  0
  -28.0030  -25.0020   20.6920 C   0  0  0  0  0  2  0  0  0  0  0  0
  -28.2850  -26.4150   20.2770 O   0  0  0  0  0  0  0  0  0  0  0  0
  -24.5900  -31.8940   23.2340 C   0  0  0  0  0  0  0  0  0  0  0  0
  -27.1960  -27.3020   20.2200 C   0  0  0  0  0  0  0  0  0  0  0  0
  -23.3930  -30.4930   21.5890 C   0  0  0  0  0  3  0  0  0  0  0  0
  -24.8500  -28.9350   20.1790 C   0  0  0  0  0  0  0  0  0  0  0  0
  -25.9380  -30.7970   21.4310 C   0  0  0  0  0  2  0  0  0  0  0  0
  -26.0160  -29.4180   20.7870 C   0  0  0  0  0  0  0  0  0  0  0  0
  -27.1940  -28.6100   20.8020 C   0  0  0  0  0  3  0  0  0  0  0  0
  -26.0140  -26.8900   19.5620 C   0  0  0  0  0  3  0  0  0  0  0  0
  -24.8500  -27.6770   19.5610 C   0  0  0  0  0  3  0  0  0  0  0  0
  -23.6150  -29.8070   20.2160 C   0  0  0  0  0  2  0  0  0  0  0  0
  -24.6580  -31.0840   22.1380 N   0  0  0  0  0  0  0  0  0  0  0  0
  -23.5040  -32.1740   23.7620 O   0  0  0  0  0  0  0  0  0  0  0  0
  -22.7310  -29.4770   22.5520 C   0  0  0  0  0  0  0  0  0  0  0  0
  -21.4060  -29.2970   22.4240 N   0  0  0  0  0  0  0  0  0  0  0  0
  -23.4090  -28.8540   23.3710 O   0  0  0  0  0  0  0  0  0  0  0  0
  -20.9200  -29.8450   21.7300 H   0  0  0  0  0  0  0  0  0  0  0  0
  -18.0320  -28.1010   22.9280 C   0  0  0  0  0  0  0  0  0  0  0  0
  -20.5890  -28.3600   23.1950 C   0  0  0  0  0  3  0  0  0  0  0  0
  -20.6910  -26.9290   22.6200 C   0  0  0  0  0  2  0  0  0  0  0  0
  -19.5900  -26.6040   21.6050 C   0  0  0  0  0  2  0  0  0  0  0  0
  -18.2100  -26.7500   22.2520 C   0  0  0  0  0  2  0  0  0  0  0  0
  -19.1510  -28.8630   23.3570 C   0  0  0  0  0  0  0  0  0  0  0  0
  -18.9360  -30.1250   23.9520 C   0  0  0  0  0  3  0  0  0  0  0  0
  -17.6330  -30.6260   24.1270 C   0  0  0  0  0  3  0  0  0  0  0  0
  -16.5260  -29.8600   23.7180 C   0  0  0  0  0  3  0  0  0  0  0  0
  -16.7280  -28.6010   23.1230 C   0  0  0  0  0  3  0  0  0  0  0  0
  -25.8680  -32.5330   23.8620 C   0  0  0  0  0  3  0  0  0  0  0  0
  -25.5580  -33.9350   24.1770 N   0  0  0  0  0  0  0  0  0  0  0  0
  -25.9050  -34.9800   23.4140 C   0  0  0  0  0  0  0  0  0  0  0  0
  -26.5850  -34.8660   22.3920 O   0  0  0  0  0  0  0  0  0  0  0  0
  -24.9550  -34.1010   24.9690 H   0  0  0  0  0  0  0  0  0  0  0  0
  -24.1940  -36.7880   23.0340 C   0  0  0  0  0  1  0  0  0  0  0  0
  -25.4180  -36.3710   23.8630 C   0  0  0  0  0  3  0  0  0  0  0  0
  -27.5420  -37.2540   24.7300 C   0  0  0  0  0  1  0  0  0  0  0  0
  -26.4580  -37.4190   23.7660 N   0  0  0  0  0  0  0  0  0  0  0  0
  -26.0500  -38.3400   23.9040 H   0  0  0  0  0  0  0  0  0  0  0  0
  -26.3810  -31.7750   25.1500 C   0  0  1  0  0  0  0  0  0  0  0  0
  -25.2810  -31.5470   26.2140 C   0  0  0  0  0  1  0  0  0  0  0  0
  -26.9670  -30.3920   24.7810 C   0  0  0  0  0  1  0  0  0  0  0  0
  -27.5270  -32.5840   25.8080 C   0  0  0  0  0  1  0  0  0  0  0  0
  2 10  1  0
  2  1  2  0
  3  1  1  0
  3 51  1  0
  4  2  1  0
  5  3  2  0
  6  5  1  0
  7  4  2  0
  7  5  1  0
  8  4  1  0
  9  8  1  0
 10 11  1  0
 12 21  1  0
 12 11  1  0
 13 21  1  0
 14 19  1  0
 15 16  1  0
 15 14  1  0
 17 16  1  0
 17 26  1  0
 17 18  1  0
 19 13  1  0
 19 18  1  0
 20 13  2  0
 21 22  1  0
 23 24  2  0
 24 43  1  0
 25 24  1  0
 25 28  1  0
 26 23  1  0
 26 27  1  0
 27 25  2  0
 28 29  1  0
 29 30  2  0
 31 34  1  0
 31 30  1  0
 32 31  2  0
 33 32  1  0
 33 28  2  0
 34 35  1  0
 35 36  1  0
 36 37  2  0
 38 37  1  0
 38 42  1  0
 39 38  2  0
 40 35  2  0
 40 39  1  0
 41 40  1  0
 43 44  1  0
 44 47  1  0
 44 46  1  0
 45 43  2  0
 48 49  1  0
 48 23  1  0
 50 48  1  0
 52 51  1  0
 53 64  2  0
 54 52  1  0
 54 59  1  0
 55 63  1  0
 55 65  1  0
 56 62  1  0
 56 58  1  0
 57 63  1  0
 58 59  2  0
 58 57  1  0
 60 54  2  0
 61 60  1  0
 61 56  2  0
 62 55  1  0
 63 53  1  0
 65 67  2  0
 66 65  1  0
 68 66  1  0
 69 78  2  0
 69 74  1  0
 70 66  1  0
 70 74  1  0
 71 70  1  0
 72 73  1  0
 72 71  1  0
 73 69  1  0
 74 75  2  0
 75 76  1  0
 77 76  2  0
 78 77  1  0
 79 53  1  0
 79 80  1  0
 79 89  1  0
 80 83  1  0
 81 85  1  0
 81 80  1  0
 82 81  2  0
 85 84  1  0
 87 85  1  0
 87 88  1  0
 87 86  1  0
 89 92  1  1
 89 90  1  0
 91 89  1  0
M  ISO  4  13 100  21 100  51 101  52 101
M  END
>  <TORSDO>  (45) 
F 21

>  <SCORE>  (45) 
-13.392

>  <name>  (45) 
45

>  <ligand_id>  (45) 
45

>  <original_smiles>  (45) 
[H]c1c([H])c([H])c2c(c1[H])C([H])([H])C([H])([H])C([H])([H])C2([H])N([H])C(=O)C1([H])N(C(=O)C([H])(N([H])C(=O)C([H])(N([H])C([H])([H])[H])C([H])([H])[H])C(C([H])([H])[H])(C([H])([H])[H])C([H])([H])[H])C([H])([H])c2c([H])c(OC([H])([H])c3c(C([H])([H])[H])nc(C([H])([H])Cl)c(C([H])([H])C([H])([H])C([H])([H])N([H])C(=O)N4C([H])([H])C([H])([H])C([H])([H])C([H])(n5nc(-c6c([H])c([H])c(Oc7c([H])c([H])c(F)c([H])c7F)c([H])c6[H])c(C(=O)N([H])[H])c5N([H])[H])C4([H])[H])c3[H])c([H])c([H])c2C1([H])[H]

>  <smiles>  (45) 
[H]c1c([H])c([H])c2c(c1[H])C([H])([H])C([H])([H])C([H])([H])C2([H])N([H])C(=O)C1([H])N(C(=O)C([H])(N([H])C(=O)C([H])(N([H])C([H])([H])[H])C([H])([H])[H])C(C([H])([H])[H])(C([H])([H])[H])C([H])([H])[H])C([H])([H])c2c([H])c(OC([H])([H])c3c(C([H])([H])[H])nc(C([H])([H])Cl)c(C([H])([H])C([H])([H])C([H])([H])N([H])C(=O)N4C([H])([H])C([H])([H])C([H])([H])C([H])(n5nc(-c6c([H])c([H])c(Oc7c([H])c([H])c(F)c([H])c7F)c([H])c6[H])c(C(=O)N([H])[H])c5N([H])[H])C4([H])[H])c3[H])c([H])c([H])c2C1([H])[H]

$$$$
46:0:0
     RDKit          3D

 91 99  0  0  1  0  0  0  0  0999 V2000
  -28.2270  -18.2820   19.6000 C   0  0  0  0  0  2  0  0  0  0  0  0
  -27.1750  -19.3920   19.5000 C   0  0  0  0  0  2  0  0  0  0  0  0
  -29.7960  -20.0380   20.5790 C   0  0  0  0  0  2  0  0  0  0  0  0
  -29.2690  -18.5360   20.7030 C   0  0  0  0  0  3  0  0  0  0  0  0
  -27.8300  -20.7460   19.1530 C   0  0  0  0  0  3  0  0  0  0  0  0
  -28.7100  -21.1920   20.3580 C   0  0  0  0  0  3  0  0  0  0  0  0
  -25.7530  -21.2870   17.6820 C   0  0  0  0  0  1  0  0  0  0  0  0
  -26.8150  -21.8040   18.6570 C   0  0  0  0  0  2  0  0  0  0  0  0
  -30.3540  -17.3640   20.6660 C   0  0  0  0  0  2  0  0  0  0  0  0
  -29.8910  -15.8780   21.0260 C   0  0  0  0  0  2  0  0  0  0  0  0
  -30.6600  -14.6400   20.4030 C   0  0  0  0  0  0  0  0  0  0  0  0
  -30.4310  -12.4540   19.2200 C   0  0  0  0  0  2  0  0  0  0  0  0
  -29.4790  -12.6390   18.0140 C   0  0  0  0  0  2  0  0  0  0  0  0
  -28.0040  -12.4810   18.4390 C   0  0  0  0  0  2  0  0  0  0  0  0
  -27.6610  -13.3000   19.7100 C   0  0  0  0  0  3  0  0  0  0  0  0
  -28.7200  -13.0860   20.8130 C   0  0  0  0  0  2  0  0  0  0  0  0
  -30.0350  -13.4300   20.2550 N   0  0  0  0  0  0  0  0  0  0  0  0
  -31.7980  -14.8160   19.9530 O   0  0  0  0  0  0  0  0  0  0  0  0
  -25.2690  -13.9070   20.4320 C   0  0  0  0  0  0  0  0  0  0  0  0
  -24.1990  -13.1350   20.8030 C   0  0  0  0  0  0  0  0  0  0  0  0
  -24.6640  -11.7860   20.7850 C   0  0  0  0  0  0  0  0  0  0  0  0
  -26.3110  -13.0230   20.1970 N   0  0  0  0  0  0  0  0  0  0  0  0
  -25.9530  -11.7440   20.4710 N   0  0  0  0  0  0  0  0  0  0  0  0
  -23.9370  -10.5250   20.9880 C   0  0  0  0  0  0  0  0  0  0  0  0
  -24.3700   -9.5640   21.9290 C   0  0  0  0  0  3  0  0  0  0  0  0
  -23.6460   -8.3650   22.1170 C   0  0  0  0  0  3  0  0  0  0  0  0
  -22.4750   -8.1200   21.3620 C   0  0  0  0  0  0  0  0  0  0  0  0
  -22.0630   -9.0670   20.4060 C   0  0  0  0  0  3  0  0  0  0  0  0
  -22.7870  -10.2570   20.2190 C   0  0  0  0  0  3  0  0  0  0  0  0
  -21.7230   -6.9750   21.4580 O   0  0  0  0  0  0  0  0  0  0  0  0
  -21.6700   -6.2440   22.6160 C   0  0  0  0  0  0  0  0  0  0  0  0
  -21.2320   -6.8110   23.8320 C   0  0  0  0  0  3  0  0  0  0  0  0
  -21.1270   -6.0080   24.9860 C   0  0  0  0  0  3  0  0  0  0  0  0
  -21.4450   -4.6380   24.9190 C   0  0  0  0  0  0  0  0  0  0  0  0
  -21.8750   -4.0690   23.7060 C   0  0  0  0  0  3  0  0  0  0  0  0
  -21.9830   -4.8710   22.5580 C   0  0  0  0  0  0  0  0  0  0  0  0
  -22.3790   -4.3150   21.3890 F   0  0  0  0  0  0  0  0  0  0  0  0
  -21.3340   -3.8640   26.0240 F   0  0  0  0  0  0  0  0  0  0  0  0
  -22.8030  -13.6150   21.0710 C   0  0  0  0  0  0  0  0  0  0  0  0
  -22.0760  -12.9230   21.9420 N   0  0  0  0  0  0  0  0  0  0  0  0
  -22.3620  -14.6370   20.5470 O   0  0  0  0  0  0  0  0  0  0  0  0
  -22.4470  -12.1000   22.3920 H   0  0  0  0  0  0  0  0  0  0  0  0
  -21.1370  -13.2260   22.1600 H   0  0  0  0  0  0  0  0  0  0  0  0
  -25.4390  -15.2760   20.2520 N   0  0  0  0  0  0  0  0  0  0  0  0
  -24.6850  -15.9450   20.3590 H   0  0  0  0  0  0  0  0  0  0  0  0
  -26.2970  -15.7090   19.9420 H   0  0  0  0  0  0  0  0  0  0  0  0
  -29.2720  -22.6770   20.1930 C   0  0  0  0  0  2  0  0  0  0  0  0
  -28.5960  -24.2510   22.1180 C   0  0  0  0  0  1  0  0  0  0  0  0
  -28.3950  -23.9470   20.6290 C   0  0  0  0  0  3  0  0  0  0  0  0
  -28.5980  -25.2480   19.7360 C   0  0  0  0  0  2  0  0  0  0  0  0
  -28.4040  -26.5990   20.2780 O   0  0  0  0  0  0  0  0  0  0  0  0
  -24.5890  -31.8580   23.2230 C   0  0  0  0  0  0  0  0  0  0  0  0
  -27.2310  -27.3450   20.1790 C   0  0  0  0  0  0  0  0  0  0  0  0
  -23.3830  -30.4570   21.5780 C   0  0  0  0  0  3  0  0  0  0  0  0
  -24.8400  -28.9050   20.1540 C   0  0  0  0  0  0  0  0  0  0  0  0
  -25.9140  -30.8000   21.3840 C   0  0  0  0  0  2  0  0  0  0  0  0
  -25.9980  -29.4220   20.7450 C   0  0  0  0  0  0  0  0  0  0  0  0
  -27.1900  -28.6490   20.7510 C   0  0  0  0  0  3  0  0  0  0  0  0
  -26.0520  -26.8630   19.5680 C   0  0  0  0  0  3  0  0  0  0  0  0
  -24.8680  -27.6320   19.5580 C   0  0  0  0  0  3  0  0  0  0  0  0
  -23.5980  -29.7740   20.1980 C   0  0  0  0  0  2  0  0  0  0  0  0
  -24.6470  -31.0580   22.1180 N   0  0  0  0  0  0  0  0  0  0  0  0
  -23.5080  -32.1310   23.7640 O   0  0  0  0  0  0  0  0  0  0  0  0
  -22.7280  -29.4410   22.5400 C   0  0  0  0  0  0  0  0  0  0  0  0
  -21.4000  -29.2710   22.4250 N   0  0  0  0  0  0  0  0  0  0  0  0
  -23.4120  -28.8060   23.3480 O   0  0  0  0  0  0  0  0  0  0  0  0
  -20.9050  -29.8350   21.7480 H   0  0  0  0  0  0  0  0  0  0  0  0
  -18.0250  -28.0850   22.9430 C   0  0  0  0  0  0  0  0  0  0  0  0
  -20.5850  -28.3330   23.1970 C   0  0  0  0  0  3  0  0  0  0  0  0
  -20.6770  -26.9040   22.6110 C   0  0  0  0  0  2  0  0  0  0  0  0
  -19.5660  -26.5920   21.6030 C   0  0  0  0  0  2  0  0  0  0  0  0
  -18.1890  -26.7410   22.2560 C   0  0  0  0  0  2  0  0  0  0  0  0
  -19.1490  -28.8410   23.3690 C   0  0  0  0  0  0  0  0  0  0  0  0
  -18.9410  -30.1030   23.9670 C   0  0  0  0  0  3  0  0  0  0  0  0
  -17.6390  -30.6080   24.1470 C   0  0  0  0  0  3  0  0  0  0  0  0
  -16.5300  -29.8500   23.7370 C   0  0  0  0  0  3  0  0  0  0  0  0
  -16.7230  -28.5920   23.1410 C   0  0  0  0  0  3  0  0  0  0  0  0
  -25.8740  -32.4910   23.8420 C   0  0  0  0  0  3  0  0  0  0  0  0
  -25.5690  -33.8880   24.1760 N   0  0  0  0  0  0  0  0  0  0  0  0
  -25.8960  -34.9430   23.4180 C   0  0  0  0  0  0  0  0  0  0  0  0
  -26.5630  -34.8430   22.3840 O   0  0  0  0  0  0  0  0  0  0  0  0
  -24.9860  -34.0410   24.9860 H   0  0  0  0  0  0  0  0  0  0  0  0
  -24.1650  -36.7370   23.0700 C   0  0  0  0  0  1  0  0  0  0  0  0
  -25.4080  -36.3300   23.8800 C   0  0  0  0  0  3  0  0  0  0  0  0
  -27.5500  -37.2090   24.7010 C   0  0  0  0  0  1  0  0  0  0  0  0
  -26.4360  -37.3880   23.7730 N   0  0  0  0  0  0  0  0  0  0  0  0
  -26.0260  -38.3020   23.9500 H   0  0  0  0  0  0  0  0  0  0  0  0
  -26.3970  -31.7160   25.1150 C   0  0  1  0  0  0  0  0  0  0  0  0
  -25.3110  -31.4780   26.1890 C   0  0  0  0  0  1  0  0  0  0  0  0
  -26.9770  -30.3370   24.7190 C   0  0  0  0  0  1  0  0  0  0  0  0
  -27.5530  -32.5060   25.7770 C   0  0  0  0  0  1  0  0  0  0  0  0
  1  4  1  0
  2  1  1  0
  3  4  1  0
  4  9  1  0
  5  8  1  0
  5  2  1  0
  5  6  1  0
  6 47  1  0
  6  3  1  0
  7  8  1  0
  9 10  1  0
 11 10  1  0
 12 17  1  0
 13 14  1  0
 13 12  1  0
 15 14  1  0
 15 22  1  0
 15 16  1  0
 17 11  1  0
 17 16  1  0
 18 11  2  0
 19 20  2  0
 20 39  1  0
 21 20  1  0
 21 24  1  0
 22 19  1  0
 22 23  1  0
 23 21  2  0
 24 25  1  0
 25 26  2  0
 27 30  1  0
 27 26  1  0
 28 27  2  0
 29 28  1  0
 29 24  2  0
 30 31  1  0
 31 32  1  0
 32 33  2  0
 34 33  1  0
 34 38  1  0
 35 34  2  0
 36 31  2  0
 36 35  1  0
 37 36  1  0
 39 40  1  0
 40 43  1  0
 40 42  1  0
 41 39  2  0
 44 45  1  0
 44 19  1  0
 46 44  1  0
 47 49  1  0
 49 48  1  0
 50 51  1  0
 50 49  1  0
 52 63  2  0
 53 51  1  0
 53 58  1  0
 54 62  1  0
 54 64  1  0
 55 61  1  0
 55 57  1  0
 56 62  1  0
 57 58  2  0
 57 56  1  0
 59 53  2  0
 60 59  1  0
 60 55  2  0
 61 54  1  0
 62 52  1  0
 64 66  2  0
 65 64  1  0
 67 65  1  0
 68 77  2  0
 68 73  1  0
 69 65  1  0
 69 73  1  0
 70 69  1  0
 71 72  1  0
 71 70  1  0
 72 68  1  0
 73 74  2  0
 74 75  1  0
 76 75  2  0
 77 76  1  0
 78 52  1  0
 78 79  1  0
 78 88  1  0
 79 82  1  0
 80 84  1  0
 80 79  1  0
 81 80  2  0
 84 83  1  0
 86 84  1  0
 86 87  1  0
 86 85  1  0
 88 91  1  1
 88 89  1  0
 90 88  1  0
M  ISO  4  10 100  11 100  50 101  51 101
M  END
>  <TORSDO>  (46) 
F 22

>  <SCORE>  (46) 
-13.320

>  <name>  (46) 
46

>  <ligand_id>  (46) 
46

>  <original_smiles>  (46) 
[H]c1c([H])c([H])c2c(c1[H])C([H])([H])C([H])([H])C([H])([H])C2([H])N([H])C(=O)C1([H])N(C(=O)C([H])(N([H])C(=O)C([H])(N([H])C([H])([H])[H])C([H])([H])[H])C(C([H])([H])[H])(C([H])([H])[H])C([H])([H])[H])C([H])([H])c2c([H])c(OC([H])([H])C([H])(C([H])([H])[H])C([H])([H])C3([H])C([H])([H])C([H])(C([H])([H])C([H])([H])C(=O)N4C([H])([H])C([H])([H])C([H])([H])C([H])(n5nc(-c6c([H])c([H])c(Oc7c([H])c([H])c(F)c([H])c7F)c([H])c6[H])c(C(=O)N([H])[H])c5N([H])[H])C4([H])[H])C([H])([H])C([H])([H])C3([H])C([H])([H])C([H])([H])[H])c([H])c([H])c2C1([H])[H]

>  <smiles>  (46) 
[H]c1c([H])c([H])c2c(c1[H])C([H])([H])C([H])([H])C([H])([H])C2([H])N([H])C(=O)C1([H])N(C(=O)C([H])(N([H])C(=O)C([H])(N([H])C([H])([H])[H])C([H])([H])[H])C(C([H])([H])[H])(C([H])([H])[H])C([H])([H])[H])C([H])([H])c2c([H])c(OC([H])([H])C([H])(C([H])([H])[H])C([H])([H])C3([H])C([H])([H])C([H])(C([H])([H])C([H])([H])C(=O)N4C([H])([H])C([H])([H])C([H])([H])C([H])(n5nc(-c6c([H])c([H])c(Oc7c([H])c([H])c(F)c([H])c7F)c([H])c6[H])c(C(=O)N([H])[H])c5N([H])[H])C4([H])[H])C([H])([H])C([H])([H])C3([H])C([H])([H])C([H])([H])[H])c([H])c([H])c2C1([H])[H]

$$$$
47:0:0
     RDKit          3D

 95103  0  0  1  0  0  0  0  0999 V2000
  -29.4250  -24.1130   18.5980 C   0  0  0  0  0  0  0  0  0  0  0  0
  -30.7560  -23.6650   18.3720 C   0  0  0  0  0  0  0  0  0  0  0  0
  -29.5000  -24.8060   19.7760 C   0  0  0  0  0  0  0  0  0  0  0  0
  -28.2130  -23.8520   17.7440 C   0  0  0  0  0  1  0  0  0  0  0  0
  -31.5910  -24.0690   19.3170 N   0  0  0  0  0  0  0  0  0  0  0  0
  -30.8240  -24.7650   20.1850 N   0  0  0  0  0  0  0  0  0  0  0  0
  -31.8190  -26.8270   21.1010 C   0  0  0  0  0  1  0  0  0  0  0  0
  -31.4540  -25.3590   21.3510 C   0  0  0  0  0  2  0  0  0  0  0  0
  -31.2430  -22.7470   17.2850 C   0  0  0  0  0  2  0  0  0  0  0  0
  -31.3430  -21.3090   17.8110 C   0  0  0  0  0  2  0  0  0  0  0  0
  -30.9190  -20.2350   16.7990 C   0  0  0  0  0  2  0  0  0  0  0  0
  -31.0500  -18.8040   17.3490 C   0  0  0  0  0  2  0  0  0  0  0  0
  -30.3860  -18.6050   18.7240 C   0  0  0  0  0  2  0  0  0  0  0  0
  -30.2880  -17.1340   19.1290 C   0  0  0  0  0  2  0  0  0  0  0  0
  -30.1270  -16.9370   20.6540 C   0  0  0  0  0  2  0  0  0  0  0  0
  -30.6420  -14.5060   20.7050 C   0  0  0  0  0  0  0  0  0  0  0  0
  -30.3940  -12.3320   19.6020 C   0  0  0  0  0  2  0  0  0  0  0  0
  -29.5150  -12.5450   18.3510 C   0  0  0  0  0  2  0  0  0  0  0  0
  -28.0200  -12.4250   18.7100 C   0  0  0  0  0  2  0  0  0  0  0  0
  -27.6290  -13.2750   19.9470 C   0  0  0  0  0  3  0  0  0  0  0  0
  -28.6290  -13.0560   21.1070 C   0  0  0  0  0  2  0  0  0  0  0  0
  -29.9840  -13.3270   20.5990 N   0  0  0  0  0  0  0  0  0  0  0  0
  -31.8070  -14.6740   20.3390 O   0  0  0  0  0  0  0  0  0  0  0  0
  -29.8480  -15.5450   20.9930 N   0  0  0  0  0  0  0  0  0  0  0  0
  -28.9070  -15.3230   21.2810 H   0  0  0  0  0  0  0  0  0  0  0  0
  -25.1970  -13.9000   20.5180 C   0  0  0  0  0  0  0  0  0  0  0  0
  -24.1130  -13.1360   20.8540 C   0  0  0  0  0  0  0  0  0  0  0  0
  -24.5750  -11.7850   20.8790 C   0  0  0  0  0  0  0  0  0  0  0  0
  -26.2520  -13.0150   20.3620 N   0  0  0  0  0  0  0  0  0  0  0  0
  -25.8780  -11.7390   20.6350 N   0  0  0  0  0  0  0  0  0  0  0  0
  -23.8420  -10.5260   21.0650 C   0  0  0  0  0  0  0  0  0  0  0  0
  -24.2490   -9.5690   22.0210 C   0  0  0  0  0  3  0  0  0  0  0  0
  -23.5200   -8.3730   22.1920 C   0  0  0  0  0  3  0  0  0  0  0  0
  -22.3680   -8.1260   21.4070 C   0  0  0  0  0  0  0  0  0  0  0  0
  -21.9800   -9.0710   20.4410 C   0  0  0  0  0  3  0  0  0  0  0  0
  -22.7100  -10.2590   20.2700 C   0  0  0  0  0  3  0  0  0  0  0  0
  -21.6120   -6.9820   21.4880 O   0  0  0  0  0  0  0  0  0  0  0  0
  -21.5480   -6.2410   22.6400 C   0  0  0  0  0  0  0  0  0  0  0  0
  -21.1300   -6.8020   23.8670 C   0  0  0  0  0  3  0  0  0  0  0  0
  -21.0160   -5.9890   25.0110 C   0  0  0  0  0  3  0  0  0  0  0  0
  -21.3070   -4.6130   24.9290 C   0  0  0  0  0  0  0  0  0  0  0  0
  -21.7130   -4.0500   23.7060 C   0  0  0  0  0  3  0  0  0  0  0  0
  -21.8300   -4.8620   22.5650 C   0  0  0  0  0  0  0  0  0  0  0  0
  -22.2050   -4.3110   21.3850 F   0  0  0  0  0  0  0  0  0  0  0  0
  -21.1860   -3.8290   26.0240 F   0  0  0  0  0  0  0  0  0  0  0  0
  -22.7020  -13.6140   21.0470 C   0  0  0  0  0  0  0  0  0  0  0  0
  -21.9370  -12.9370   21.8980 N   0  0  0  0  0  0  0  0  0  0  0  0
  -22.2870  -14.6240   20.4810 O   0  0  0  0  0  0  0  0  0  0  0  0
  -22.2840  -12.1210   22.3780 H   0  0  0  0  0  0  0  0  0  0  0  0
  -20.9910  -13.2430   22.0720 H   0  0  0  0  0  0  0  0  0  0  0  0
  -25.3700  -15.2670   20.3120 N   0  0  0  0  0  0  0  0  0  0  0  0
  -24.5980  -15.9230   20.3610 H   0  0  0  0  0  0  0  0  0  0  0  0
  -26.2290  -15.6940   19.9860 H   0  0  0  0  0  0  0  0  0  0  0  0
  -28.4160  -25.5120   20.5280 C   0  0  0  0  0  2  0  0  0  0  0  0
  -28.3870  -26.8350   20.0060 O   0  0  0  0  0  0  0  0  0  0  0  0
  -24.5620  -31.8860   23.1950 C   0  0  0  0  0  0  0  0  0  0  0  0
  -27.1880  -27.4940   20.0740 C   0  0  0  0  0  0  0  0  0  0  0  0
  -23.3380  -30.4830   21.5640 C   0  0  0  0  0  3  0  0  0  0  0  0
  -24.7780  -28.9540   20.1240 C   0  0  0  0  0  0  0  0  0  0  0  0
  -25.8540  -30.8650   21.3270 C   0  0  0  0  0  2  0  0  0  0  0  0
  -25.9380  -29.4960   20.6900 C   0  0  0  0  0  0  0  0  0  0  0  0
  -27.1480  -28.7740   20.6580 C   0  0  0  0  0  3  0  0  0  0  0  0
  -26.0120  -26.9520   19.5100 C   0  0  0  0  0  3  0  0  0  0  0  0
  -24.8070  -27.6780   19.5340 C   0  0  0  0  0  3  0  0  0  0  0  0
  -23.5310  -29.8030   20.1820 C   0  0  0  0  0  2  0  0  0  0  0  0
  -24.6040  -31.0920   22.0880 N   0  0  0  0  0  0  0  0  0  0  0  0
  -23.4880  -32.1530   23.7510 O   0  0  0  0  0  0  0  0  0  0  0  0
  -22.7060  -29.4570   22.5310 C   0  0  0  0  0  0  0  0  0  0  0  0
  -21.3800  -29.2740   22.4220 N   0  0  0  0  0  0  0  0  0  0  0  0
  -23.4040  -28.8280   23.3310 O   0  0  0  0  0  0  0  0  0  0  0  0
  -20.8800  -29.8340   21.7460 H   0  0  0  0  0  0  0  0  0  0  0  0
  -18.0160  -28.0710   22.9500 C   0  0  0  0  0  0  0  0  0  0  0  0
  -20.5750  -28.3330   23.1990 C   0  0  0  0  0  3  0  0  0  0  0  0
  -20.6750  -26.9030   22.6180 C   0  0  0  0  0  2  0  0  0  0  0  0
  -19.5640  -26.5810   21.6140 C   0  0  0  0  0  2  0  0  0  0  0  0
  -18.1880  -26.7220   22.2730 C   0  0  0  0  0  2  0  0  0  0  0  0
  -19.1370  -28.8350   23.3710 C   0  0  0  0  0  0  0  0  0  0  0  0
  -18.9230  -30.0970   23.9640 C   0  0  0  0  0  3  0  0  0  0  0  0
  -17.6200  -30.5980   24.1420 C   0  0  0  0  0  3  0  0  0  0  0  0
  -16.5130  -29.8310   23.7380 C   0  0  0  0  0  3  0  0  0  0  0  0
  -16.7110  -28.5700   23.1490 C   0  0  0  0  0  3  0  0  0  0  0  0
  -25.8560  -32.5180   23.7970 C   0  0  0  0  0  3  0  0  0  0  0  0
  -26.4080  -31.7300   25.0480 C   0  0  1  0  0  0  0  0  0  0  0  0
  -25.3430  -31.4650   26.1370 C   0  0  0  0  0  1  0  0  0  0  0  0
  -26.9920  -30.3640   24.6150 C   0  0  0  0  0  1  0  0  0  0  0  0
  -27.5690  -32.5210   25.6960 C   0  0  0  0  0  1  0  0  0  0  0  0
  -25.5430  -33.9080   24.1540 N   0  0  0  0  0  0  0  0  0  0  0  0
  -25.8570  -34.9730   23.4050 C   0  0  0  0  0  0  0  0  0  0  0  0
  -26.5140  -34.8890   22.3640 O   0  0  0  0  0  0  0  0  0  0  0  0
  -24.9590  -34.0470   24.9660 H   0  0  0  0  0  0  0  0  0  0  0  0
  -24.1100  -36.7560   23.0990 C   0  0  0  0  0  1  0  0  0  0  0  0
  -25.3660  -36.3510   23.8880 C   0  0  0  0  0  3  0  0  0  0  0  0
  -27.5080  -37.2340   24.6980 C   0  0  0  0  0  1  0  0  0  0  0  0
  -26.3880  -37.4120   23.7770 N   0  0  0  0  0  0  0  0  0  0  0  0
  -25.9790  -38.3260   23.9500 H   0  0  0  0  0  0  0  0  0  0  0  0
  1  3  2  0
  2  1  1  0
  2  5  2  0
  3  6  1  0
  3 54  1  0
  4  1  1  0
  5  6  1  0
  6  8  1  0
  7  8  1  0
  9 10  1  0
  9  2  1  0
 11 12  1  0
 11 10  1  0
 12 13  1  0
 13 14  1  0
 14 15  1  0
 15 24  1  0
 16 24  1  0
 17 22  1  0
 18 19  1  0
 18 17  1  0
 20 19  1  0
 20 29  1  0
 20 21  1  0
 22 16  1  0
 22 21  1  0
 23 16  2  0
 24 25  1  0
 26 27  2  0
 27 28  1  0
 27 46  1  0
 28 31  1  0
 29 26  1  0
 29 30  1  0
 30 28  2  0
 31 32  1  0
 32 33  2  0
 34 37  1  0
 34 33  1  0
 35 34  2  0
 36 35  1  0
 36 31  2  0
 37 38  1  0
 38 39  1  0
 39 40  2  0
 41 40  1  0
 41 45  1  0
 42 41  2  0
 43 38  2  0
 43 42  1  0
 44 43  1  0
 46 47  1  0
 47 50  1  0
 47 49  1  0
 48 46  2  0
 51 52  1  0
 51 26  1  0
 53 51  1  0
 55 57  1  0
 55 54  1  0
 56 67  2  0
 57 62  1  0
 58 66  1  0
 58 68  1  0
 59 65  1  0
 59 61  1  0
 60 66  1  0
 61 60  1  0
 62 61  2  0
 63 64  1  0
 63 57  2  0
 64 59  2  0
 65 58  1  0
 66 56  1  0
 68 70  2  0
 69 68  1  0
 71 69  1  0
 72 81  2  0
 72 77  1  0
 73 69  1  0
 73 77  1  0
 74 73  1  0
 75 76  1  0
 75 74  1  0
 76 72  1  0
 77 78  2  0
 78 79  1  0
 80 79  2  0
 81 80  1  0
 82 56  1  0
 82 87  1  0
 82 83  1  0
 83 86  1  1
 83 84  1  0
 85 83  1  0
 87 90  1  0
 88 92  1  0
 88 87  1  0
 89 88  2  0
 92 91  1  0
 94 92  1  0
 94 95  1  0
 94 93  1  0
M  ISO  4  16 100  24 100  54 101  55 101
M  END
>  <TORSDO>  (47) 
F 25

>  <SCORE>  (47) 
-11.882

>  <name>  (47) 
47

>  <ligand_id>  (47) 
47

>  <original_smiles>  (47) 
[H]c1c([H])c([H])c2c(c1[H])C([H])([H])C([H])([H])C([H])([H])C2([H])N([H])C(=O)C1([H])N(C(=O)C([H])(N([H])C(=O)C([H])(N([H])C([H])([H])[H])C([H])([H])[H])C(C([H])([H])[H])(C([H])([H])[H])C([H])([H])[H])C([H])([H])c2c([H])c(OC([H])([H])c3c(C([H])([H])[H])c(C([H])([H])C([H])([H])C([H])([H])C([H])([H])C([H])([H])C([H])([H])C([H])([H])N([H])C(=O)N4C([H])([H])C([H])([H])C([H])([H])C([H])(n5nc(-c6c([H])c([H])c(Oc7c([H])c([H])c(F)c([H])c7F)c([H])c6[H])c(C(=O)N([H])[H])c5N([H])[H])C4([H])[H])nn3C([H])([H])C([H])([H])[H])c([H])c([H])c2C1([H])[H]

>  <smiles>  (47) 
[H]c1c([H])c([H])c2c(c1[H])C([H])([H])C([H])([H])C([H])([H])C2([H])N([H])C(=O)C1([H])N(C(=O)C([H])(N([H])C(=O)C([H])(N([H])C([H])([H])[H])C([H])([H])[H])C(C([H])([H])[H])(C([H])([H])[H])C([H])([H])[H])C([H])([H])c2c([H])c(OC([H])([H])c3c(C([H])([H])[H])c(C([H])([H])C([H])([H])C([H])([H])C([H])([H])C([H])([H])C([H])([H])C([H])([H])N([H])C(=O)N4C([H])([H])C([H])([H])C([H])([H])C([H])(n5nc(-c6c([H])c([H])c(Oc7c([H])c([H])c(F)c([H])c7F)c([H])c6[H])c(C(=O)N([H])[H])c5N([H])[H])C4([H])[H])nn3C([H])([H])C([H])([H])[H])c([H])c([H])c2C1([H])[H]

$$$$
48:0:0
     RDKit          3D

 93101  0  0  1  0  0  0  0  0999 V2000
  -27.6410  -20.7350   19.1260 C   0  0  0  0  0  3  0  0  0  0  0  0
  -26.8980  -22.7910   20.1590 C   0  0  0  0  0  3  0  0  0  0  0  0
  -26.6700  -21.7460   19.2460 C   0  0  0  0  0  0  0  0  0  0  0  0
  -28.8100  -20.8100   19.9130 C   0  0  0  0  0  0  0  0  0  0  0  0
  -28.0920  -22.7940   20.8990 C   0  0  0  0  0  0  0  0  0  0  0  0
  -25.4050  -21.7120   18.4170 C   0  0  0  0  0  1  0  0  0  0  0  0
  -29.0310  -21.8330   20.7680 N   0  0  0  0  0  0  0  0  0  0  0  0
  -29.9430  -19.7900   19.8370 C   0  0  0  0  0  2  0  0  0  0  0  0
  -29.6600  -18.4500   19.1230 C   0  0  0  0  0  2  0  0  0  0  0  0
  -29.0980  -17.3030   19.9880 C   0  0  0  0  0  2  0  0  0  0  0  0
  -30.0800  -16.7490   21.0460 C   0  0  0  0  0  2  0  0  0  0  0  0
  -30.6040  -14.3490   20.6410 C   0  0  0  0  0  0  0  0  0  0  0  0
  -30.2970  -12.2920   19.3330 C   0  0  0  0  0  2  0  0  0  0  0  0
  -29.3270  -12.6040   18.1740 C   0  0  0  0  0  2  0  0  0  0  0  0
  -27.8610  -12.4350   18.6230 C   0  0  0  0  0  2  0  0  0  0  0  0
  -27.5550  -13.1530   19.9650 C   0  0  0  0  0  3  0  0  0  0  0  0
  -28.6350  -12.8260   21.0230 C   0  0  0  0  0  2  0  0  0  0  0  0
  -29.9480  -13.1750   20.4550 N   0  0  0  0  0  0  0  0  0  0  0  0
  -31.7070  -14.5940   20.1450 O   0  0  0  0  0  0  0  0  0  0  0  0
  -29.8740  -15.3100   21.2300 N   0  0  0  0  0  0  0  0  0  0  0  0
  -28.9960  -15.0190   21.6340 H   0  0  0  0  0  0  0  0  0  0  0  0
  -25.1500  -13.6880   20.7120 C   0  0  0  0  0  0  0  0  0  0  0  0
  -24.1030  -12.8810   21.0690 C   0  0  0  0  0  0  0  0  0  0  0  0
  -24.5920  -11.5420   20.9900 C   0  0  0  0  0  0  0  0  0  0  0  0
  -26.2120  -12.8360   20.4450 N   0  0  0  0  0  0  0  0  0  0  0  0
  -25.8790  -11.5380   20.6660 N   0  0  0  0  0  0  0  0  0  0  0  0
  -23.8950  -10.2590   21.1470 C   0  0  0  0  0  0  0  0  0  0  0  0
  -24.3230   -9.2960   22.0870 C   0  0  0  0  0  3  0  0  0  0  0  0
  -23.6270   -8.0770   22.2320 C   0  0  0  0  0  3  0  0  0  0  0  0
  -22.4880   -7.8110   21.4350 C   0  0  0  0  0  0  0  0  0  0  0  0
  -22.0790   -8.7630   20.4850 C   0  0  0  0  0  3  0  0  0  0  0  0
  -22.7760   -9.9740   20.3380 C   0  0  0  0  0  3  0  0  0  0  0  0
  -21.7640   -6.6450   21.4890 O   0  0  0  0  0  0  0  0  0  0  0  0
  -21.6680   -5.9100   22.6440 C   0  0  0  0  0  0  0  0  0  0  0  0
  -21.0910   -6.4390   23.8180 C   0  0  0  0  0  3  0  0  0  0  0  0
  -20.9500   -5.6260   24.9610 C   0  0  0  0  0  3  0  0  0  0  0  0
  -21.3760   -4.2850   24.9280 C   0  0  0  0  0  0  0  0  0  0  0  0
  -21.9460   -3.7550   23.7580 C   0  0  0  0  0  3  0  0  0  0  0  0
  -22.0880   -4.5650   22.6180 C   0  0  0  0  0  0  0  0  0  0  0  0
  -22.6190   -4.0430   21.4850 F   0  0  0  0  0  0  0  0  0  0  0  0
  -21.2340   -3.5010   26.0230 F   0  0  0  0  0  0  0  0  0  0  0  0
  -22.6990  -13.3200   21.3750 C   0  0  0  0  0  0  0  0  0  0  0  0
  -21.9950  -12.5780   22.2220 N   0  0  0  0  0  0  0  0  0  0  0  0
  -22.2330  -14.3540   20.8980 O   0  0  0  0  0  0  0  0  0  0  0  0
  -22.3810  -11.7410   22.6330 H   0  0  0  0  0  0  0  0  0  0  0  0
  -21.0540  -12.8540   22.4660 H   0  0  0  0  0  0  0  0  0  0  0  0
  -25.2850  -15.0660   20.5770 N   0  0  0  0  0  0  0  0  0  0  0  0
  -24.5090  -15.7030   20.7170 H   0  0  0  0  0  0  0  0  0  0  0  0
  -26.1250  -15.5300   20.2530 H   0  0  0  0  0  0  0  0  0  0  0  0
  -28.3880  -23.8990   21.8980 C   0  0  0  0  0  2  0  0  0  0  0  0
  -28.0940  -25.3210   21.3850 C   0  0  0  0  0  2  0  0  0  0  0  0
  -28.7960  -25.7060   20.0640 C   0  0  0  0  0  2  0  0  0  0  0  0
  -28.7640  -27.1200   19.8450 O   0  0  0  0  0  0  0  0  0  0  0  0
  -24.6770  -31.7710   23.2960 C   0  0  0  0  0  0  0  0  0  0  0  0
  -27.5420  -27.7550   19.8750 C   0  0  0  0  0  0  0  0  0  0  0  0
  -23.5470  -30.4690   21.5220 C   0  0  0  0  0  3  0  0  0  0  0  0
  -25.0760  -29.1250   19.9890 C   0  0  0  0  0  0  0  0  0  0  0  0
  -26.0500  -30.9630   21.3820 C   0  0  0  0  0  2  0  0  0  0  0  0
  -26.2020  -29.6590   20.6280 C   0  0  0  0  0  0  0  0  0  0  0  0
  -27.4390  -28.9820   20.5630 C   0  0  0  0  0  3  0  0  0  0  0  0
  -26.3970  -27.2270   19.2370 C   0  0  0  0  0  3  0  0  0  0  0  0
  -25.1670  -27.9090   19.2930 C   0  0  0  0  0  3  0  0  0  0  0  0
  -23.7940  -29.9190   20.0920 C   0  0  0  0  0  2  0  0  0  0  0  0
  -24.7750  -31.0760   22.1280 N   0  0  0  0  0  0  0  0  0  0  0  0
  -23.5800  -31.9480   23.8460 O   0  0  0  0  0  0  0  0  0  0  0  0
  -22.9320  -29.3410   22.3820 C   0  0  0  0  0  0  0  0  0  0  0  0
  -21.6210  -29.1080   22.2110 N   0  0  0  0  0  0  0  0  0  0  0  0
  -23.6320  -28.6810   23.1550 O   0  0  0  0  0  0  0  0  0  0  0  0
  -21.1140  -29.6990   21.5680 H   0  0  0  0  0  0  0  0  0  0  0  0
  -18.2970  -27.7400   22.5600 C   0  0  0  0  0  0  0  0  0  0  0  0
  -20.8390  -28.0720   22.8840 C   0  0  0  0  0  3  0  0  0  0  0  0
  -21.0040  -26.7040   22.1810 C   0  0  0  0  0  2  0  0  0  0  0  0
  -19.9250  -26.4340   21.1280 C   0  0  0  0  0  2  0  0  0  0  0  0
  -18.5330  -26.4660   21.7660 C   0  0  0  0  0  2  0  0  0  0  0  0
  -19.3800  -28.5020   23.0710 C   0  0  0  0  0  0  0  0  0  0  0  0
  -19.1070  -29.6970   23.7690 C   0  0  0  0  0  3  0  0  0  0  0  0
  -17.7810  -30.1320   23.9620 C   0  0  0  0  0  3  0  0  0  0  0  0
  -16.7120  -29.3640   23.4690 C   0  0  0  0  0  3  0  0  0  0  0  0
  -16.9710  -28.1700   22.7720 C   0  0  0  0  0  3  0  0  0  0  0  0
  -25.9290  -32.3980   23.9850 C   0  0  0  0  0  3  0  0  0  0  0  0
  -25.5940  -33.7840   24.3360 N   0  0  0  0  0  0  0  0  0  0  0  0
  -25.9650  -34.8580   23.6270 C   0  0  0  0  0  0  0  0  0  0  0  0
  -26.6950  -34.7870   22.6350 O   0  0  0  0  0  0  0  0  0  0  0  0
  -24.9510  -33.9140   25.1040 H   0  0  0  0  0  0  0  0  0  0  0  0
  -24.2650  -36.6600   23.2040 C   0  0  0  0  0  1  0  0  0  0  0  0
  -25.4430  -36.2310   24.0930 C   0  0  0  0  0  3  0  0  0  0  0  0
  -27.5030  -37.0920   25.1150 C   0  0  0  0  0  1  0  0  0  0  0  0
  -26.4810  -37.2850   24.0900 N   0  0  0  0  0  0  0  0  0  0  0  0
  -26.0620  -38.2020   24.2290 H   0  0  0  0  0  0  0  0  0  0  0  0
  -26.4070  -31.5960   25.2580 C   0  0  1  0  0  0  0  0  0  0  0  0
  -25.2750  -31.3150   26.2740 C   0  0  0  0  0  1  0  0  0  0  0  0
  -27.0200  -30.2370   24.8460 C   0  0  0  0  0  1  0  0  0  0  0  0
  -27.5220  -32.3820   25.9860 C   0  0  0  0  0  1  0  0  0  0  0  0
  1  3  2  0
  1  4  1  0
  2  5  2  0
  3  2  1  0
  4  7  2  0
  5 50  1  0
  6  3  1  0
  7  5  1  0
  8  4  1  0
  9  8  1  0
  9 10  1  0
 10 11  1  0
 11 20  1  0
 12 20  1  0
 13 18  1  0
 14 15  1  0
 14 13  1  0
 16 15  1  0
 16 25  1  0
 16 17  1  0
 18 12  1  0
 18 17  1  0
 19 12  2  0
 20 21  1  0
 22 23  2  0
 23 42  1  0
 24 23  1  0
 24 27  1  0
 25 26  1  0
 25 22  1  0
 26 24  2  0
 27 28  1  0
 28 29  2  0
 30 33  1  0
 30 29  1  0
 31 30  2  0
 32 31  1  0
 32 27  2  0
 33 34  1  0
 34 35  1  0
 35 36  2  0
 37 36  1  0
 37 41  1  0
 38 37  2  0
 39 34  2  0
 39 38  1  0
 40 39  1  0
 42 43  1  0
 43 46  1  0
 43 45  1  0
 44 42  2  0
 47 22  1  0
 47 48  1  0
 49 47  1  0
 51 50  1  0
 52 51  1  0
 53 55  1  0
 53 52  1  0
 54 65  2  0
 55 60  1  0
 56 64  1  0
 56 66  1  0
 57 63  1  0
 57 59  1  0
 58 64  1  0
 59 58  1  0
 60 59  2  0
 61 62  1  0
 61 55  2  0
 62 57  2  0
 63 56  1  0
 64 54  1  0
 66 68  2  0
 67 66  1  0
 69 67  1  0
 70 79  2  0
 70 75  1  0
 71 67  1  0
 71 75  1  0
 72 71  1  0
 73 74  1  0
 73 72  1  0
 74 70  1  0
 75 76  2  0
 76 77  1  0
 78 77  2  0
 79 78  1  0
 80 54  1  0
 80 81  1  0
 80 90  1  0
 81 84  1  0
 82 86  1  0
 82 81  1  0
 83 82  2  0
 86 85  1  0
 88 86  1  0
 88 89  1  0
 88 87  1  0
 90 93  1  1
 90 91  1  0
 92 90  1  0
M  ISO  4  12 100  20 100  52 101  53 101
M  END
>  <TORSDO>  (48) 
F 23

>  <SCORE>  (48) 
-12.277

>  <name>  (48) 
48

>  <ligand_id>  (48) 
48

>  <original_smiles>  (48) 
[H]c1c([H])c([H])c2c(c1[H])C([H])([H])C([H])([H])C([H])([H])C2([H])N([H])C(=O)C1([H])N(C(=O)C([H])(N([H])C(=O)C([H])(N([H])C([H])([H])[H])C([H])([H])[H])C(C([H])([H])[H])(C([H])([H])[H])C([H])([H])[H])C([H])([H])c2c([H])c(OC([H])([H])C([H])([H])C([H])([H])c3nc(C([H])([H])C([H])([H])C([H])([H])C([H])([H])N([H])C(=O)N4C([H])([H])C([H])([H])C([H])([H])C([H])(n5nc(-c6c([H])c([H])c(Oc7c([H])c([H])c(F)c([H])c7F)c([H])c6[H])c(C(=O)N([H])[H])c5N([H])[H])C4([H])[H])c([H])c(C([H])([H])[H])c3[H])c([H])c([H])c2C1([H])[H]

>  <smiles>  (48) 
[H]c1c([H])c([H])c2c(c1[H])C([H])([H])C([H])([H])C([H])([H])C2([H])N([H])C(=O)C1([H])N(C(=O)C([H])(N([H])C(=O)C([H])(N([H])C([H])([H])[H])C([H])([H])[H])C(C([H])([H])[H])(C([H])([H])[H])C([H])([H])[H])C([H])([H])c2c([H])c(OC([H])([H])C([H])([H])C([H])([H])c3nc(C([H])([H])C([H])([H])C([H])([H])C([H])([H])N([H])C(=O)N4C([H])([H])C([H])([H])C([H])([H])C([H])(n5nc(-c6c([H])c([H])c(Oc7c([H])c([H])c(F)c([H])c7F)c([H])c6[H])c(C(=O)N([H])[H])c5N([H])[H])C4([H])[H])c([H])c(C([H])([H])[H])c3[H])c([H])c([H])c2C1([H])[H]

$$$$
49:0:0
     RDKit          3D

 96104  0  0  1  0  0  0  0  0999 V2000
  -27.0950  -22.2790   20.4080 C   0  0  0  0  0  0  0  0  0  0  0  0
  -26.5640  -23.3560   19.6660 C   0  0  0  0  0  0  0  0  0  0  0  0
  -28.1600  -22.6020   21.2780 C   0  0  0  0  0  0  0  0  0  0  0  0
  -28.0000  -24.8200   20.7010 C   0  0  0  0  0  0  0  0  0  0  0  0
  -25.4120  -23.2130   18.6880 C   0  0  0  0  0  1  0  0  0  0  0  0
  -28.8430  -21.5920   22.1810 C   0  0  0  0  0  1  0  0  0  0  0  0
  -27.0160  -24.6100   19.8350 N   0  0  0  0  0  0  0  0  0  0  0  0
  -28.6060  -23.8680   21.4040 N   0  0  0  0  0  0  0  0  0  0  0  0
  -26.4730  -20.8780   20.3450 C   0  0  0  0  0  2  0  0  0  0  0  0
  -27.4140  -19.7220   19.9530 C   0  0  0  0  0  2  0  0  0  0  0  0
  -28.2880  -19.9700   18.7090 C   0  0  0  0  0  2  0  0  0  0  0  0
  -29.8040  -19.8700   18.9570 C   0  0  0  0  0  2  0  0  0  0  0  0
  -30.2390  -18.5490   19.6180 C   0  0  0  0  0  2  0  0  0  0  0  0
  -31.7670  -18.3690   19.6370 C   0  0  0  0  0  2  0  0  0  0  0  0
  -32.2580  -17.3360   20.6700 C   0  0  0  0  0  2  0  0  0  0  0  0
  -32.0390  -15.0420   19.6950 C   0  0  0  0  0  0  0  0  0  0  0  0
  -31.6010  -12.7430   18.9100 C   0  0  0  0  0  2  0  0  0  0  0  0
  -30.6210  -12.7300   17.7230 C   0  0  0  0  0  2  0  0  0  0  0  0
  -29.1600  -12.7300   18.2140 C   0  0  0  0  0  2  0  0  0  0  0  0
  -28.8910  -13.8200   19.2840 C   0  0  0  0  0  3  0  0  0  0  0  0
  -29.9690  -13.7770   20.3880 C   0  0  0  0  0  2  0  0  0  0  0  0
  -31.2940  -13.9090   19.7510 N   0  0  0  0  0  0  0  0  0  0  0  0
  -33.0390  -15.1660   18.9790 O   0  0  0  0  0  0  0  0  0  0  0  0
  -31.6290  -16.0270   20.5040 N   0  0  0  0  0  0  0  0  0  0  0  0
  -30.8170  -15.8330   21.0710 H   0  0  0  0  0  0  0  0  0  0  0  0
  -26.6420  -14.6960   20.1840 C   0  0  0  0  0  0  0  0  0  0  0  0
  -25.5050  -14.0510   20.5900 C   0  0  0  0  0  0  0  0  0  0  0  0
  -25.7750  -12.6540   20.4560 C   0  0  0  0  0  0  0  0  0  0  0  0
  -27.5440  -13.7010   19.8380 N   0  0  0  0  0  0  0  0  0  0  0  0
  -27.0250  -12.4640   20.0520 N   0  0  0  0  0  0  0  0  0  0  0  0
  -24.8990  -11.4890   20.6350 C   0  0  0  0  0  0  0  0  0  0  0  0
  -25.2240  -10.4510   21.5350 C   0  0  0  0  0  3  0  0  0  0  0  0
  -24.3570   -9.3500   21.7030 C   0  0  0  0  0  3  0  0  0  0  0  0
  -23.1490   -9.2790   20.9690 C   0  0  0  0  0  0  0  0  0  0  0  0
  -22.8400  -10.3050   20.0580 C   0  0  0  0  0  3  0  0  0  0  0  0
  -23.7060  -11.3980   19.8880 C   0  0  0  0  0  3  0  0  0  0  0  0
  -22.2580   -8.2360   21.0470 O   0  0  0  0  0  0  0  0  0  0  0  0
  -22.0590   -7.5460   22.2150 C   0  0  0  0  0  0  0  0  0  0  0  0
  -21.6280   -8.1880   23.3950 C   0  0  0  0  0  3  0  0  0  0  0  0
  -21.3690   -7.4300   24.5550 C   0  0  0  0  0  3  0  0  0  0  0  0
  -21.5310   -6.0310   24.5340 C   0  0  0  0  0  0  0  0  0  0  0  0
  -21.9550   -5.3890   23.3560 C   0  0  0  0  0  3  0  0  0  0  0  0
  -22.2150   -6.1450   22.2000 C   0  0  0  0  0  0  0  0  0  0  0  0
  -22.6040   -5.5190   21.0630 F   0  0  0  0  0  0  0  0  0  0  0  0
  -21.2750   -5.3020   25.6450 F   0  0  0  0  0  0  0  0  0  0  0  0
  -24.2070  -14.6900   20.9900 C   0  0  0  0  0  0  0  0  0  0  0  0
  -23.4620  -14.0550   21.8880 N   0  0  0  0  0  0  0  0  0  0  0  0
  -23.8690  -15.7840   20.5420 O   0  0  0  0  0  0  0  0  0  0  0  0
  -23.7500  -13.1670   22.2720 H   0  0  0  0  0  0  0  0  0  0  0  0
  -22.5900  -14.4620   22.1970 H   0  0  0  0  0  0  0  0  0  0  0  0
  -26.9790  -16.0410   20.0660 N   0  0  0  0  0  0  0  0  0  0  0  0
  -26.3140  -16.7820   20.2550 H   0  0  0  0  0  0  0  0  0  0  0  0
  -27.8660  -16.3810   19.7170 H   0  0  0  0  0  0  0  0  0  0  0  0
  -28.3300  -26.2660   21.0730 C   0  0  0  0  0  2  0  0  0  0  0  0
  -29.0450  -27.1210   19.9950 C   0  0  0  0  0  2  0  0  0  0  0  0
  -28.2300  -27.4690   18.8700 O   0  0  0  0  0  0  0  0  0  0  0  0
  -24.6740  -31.8610   23.2350 C   0  0  0  0  0  0  0  0  0  0  0  0
  -27.0850  -28.1720   19.1540 C   0  0  0  0  0  0  0  0  0  0  0  0
  -23.3320  -30.7060   21.5060 C   0  0  0  0  0  3  0  0  0  0  0  0
  -24.6630  -29.5150   19.6850 C   0  0  0  0  0  0  0  0  0  0  0  0
  -25.8050  -31.2170   21.1140 C   0  0  0  0  0  2  0  0  0  0  0  0
  -25.8600  -29.9830   20.2420 C   0  0  0  0  0  0  0  0  0  0  0  0
  -27.0760  -29.3130   19.9870 C   0  0  0  0  0  3  0  0  0  0  0  0
  -25.8770  -27.7260   18.5820 C   0  0  0  0  0  3  0  0  0  0  0  0
  -24.6630  -28.3800   18.8560 C   0  0  0  0  0  3  0  0  0  0  0  0
  -23.4050  -30.2870   20.0130 C   0  0  0  0  0  2  0  0  0  0  0  0
  -24.6270  -31.2650   22.0110 N   0  0  0  0  0  0  0  0  0  0  0  0
  -23.6530  -31.9880   23.9250 O   0  0  0  0  0  0  0  0  0  0  0  0
  -22.8210  -29.5060   22.3320 C   0  0  0  0  0  0  0  0  0  0  0  0
  -21.5140  -29.2190   22.2210 N   0  0  0  0  0  0  0  0  0  0  0  0
  -23.5930  -28.8430   23.0290 O   0  0  0  0  0  0  0  0  0  0  0  0
  -20.9480  -29.8170   21.6350 H   0  0  0  0  0  0  0  0  0  0  0  0
  -18.3170  -27.5640   22.5190 C   0  0  0  0  0  0  0  0  0  0  0  0
  -20.8170  -28.1140   22.8760 C   0  0  0  0  0  3  0  0  0  0  0  0
  -21.1090  -26.7720   22.1660 C   0  0  0  0  0  2  0  0  0  0  0  0
  -20.0690  -26.4160   21.0980 C   0  0  0  0  0  2  0  0  0  0  0  0
  -18.6720  -26.3230   21.7190 C   0  0  0  0  0  2  0  0  0  0  0  0
  -19.3230  -28.4140   23.0480 C   0  0  0  0  0  0  0  0  0  0  0  0
  -18.9400  -29.5750   23.7540 C   0  0  0  0  0  3  0  0  0  0  0  0
  -17.5800  -29.8940   23.9310 C   0  0  0  0  0  3  0  0  0  0  0  0
  -16.5860  -29.0390   23.4210 C   0  0  0  0  0  3  0  0  0  0  0  0
  -16.9560  -27.8740   22.7230 C   0  0  0  0  0  3  0  0  0  0  0  0
  -26.0070  -32.4330   23.8140 C   0  0  0  0  0  3  0  0  0  0  0  0
  -26.6200  -31.5410   24.9600 C   0  0  1  0  0  0  0  0  0  0  0  0
  -25.6120  -31.1950   26.0800 C   0  0  0  0  0  1  0  0  0  0  0  0
  -27.1610  -30.2110   24.3850 C   0  0  0  0  0  1  0  0  0  0  0  0
  -27.8230  -32.2680   25.6060 C   0  0  0  0  0  1  0  0  0  0  0  0
  -25.7300  -33.7910   24.3010 N   0  0  0  0  0  0  0  0  0  0  0  0
  -26.0450  -34.9130   23.6390 C   0  0  0  0  0  0  0  0  0  0  0  0
  -26.6740  -34.9110   22.5770 O   0  0  0  0  0  0  0  0  0  0  0  0
  -25.1730  -33.8670   25.1390 H   0  0  0  0  0  0  0  0  0  0  0  0
  -24.3340  -36.7490   23.5270 C   0  0  0  0  0  1  0  0  0  0  0  0
  -25.5920  -36.2490   24.2540 C   0  0  0  0  0  3  0  0  0  0  0  0
  -27.7600  -37.0140   25.1140 C   0  0  0  0  0  1  0  0  0  0  0  0
  -26.6360  -37.2960   24.2250 N   0  0  0  0  0  0  0  0  0  0  0  0
  -26.2480  -38.1990   24.4850 H   0  0  0  0  0  0  0  0  0  0  0  0
  1  3  1  0
  2  7  1  0
  2  1  2  0
  3  8  2  0
  3  6  1  0
  4 54  1  0
  4  8  1  0
  5  2  1  0
  7  4  2  0
  9  1  1  0
 10  9  1  0
 11 12  1  0
 11 10  1  0
 12 13  1  0
 13 14  1  0
 14 15  1  0
 16 22  1  0
 16 24  1  0
 17 22  1  0
 18 19  1  0
 18 17  1  0
 20 19  1  0
 20 29  1  0
 20 21  1  0
 22 21  1  0
 23 16  2  0
 24 15  1  0
 24 25  1  0
 26 27  2  0
 27 46  1  0
 28 27  1  0
 28 31  1  0
 29 30  1  0
 29 26  1  0
 30 28  2  0
 31 32  1  0
 32 33  2  0
 34 37  1  0
 34 33  1  0
 35 34  2  0
 36 35  1  0
 36 31  2  0
 37 38  1  0
 38 39  1  0
 39 40  2  0
 41 40  1  0
 41 45  1  0
 42 41  2  0
 43 38  2  0
 43 42  1  0
 44 43  1  0
 46 47  1  0
 47 50  1  0
 47 49  1  0
 48 46  2  0
 51 26  1  0
 51 52  1  0
 53 51  1  0
 55 54  1  0
 56 58  1  0
 56 55  1  0
 57 68  2  0
 58 63  1  0
 59 67  1  0
 59 69  1  0
 60 66  1  0
 60 62  1  0
 61 67  1  0
 62 61  1  0
 63 62  2  0
 64 65  1  0
 64 58  2  0
 65 60  2  0
 66 59  1  0
 67 57  1  0
 69 71  2  0
 70 69  1  0
 72 70  1  0
 73 82  2  0
 73 78  1  0
 74 70  1  0
 74 78  1  0
 75 74  1  0
 76 77  1  0
 76 75  1  0
 77 73  1  0
 78 79  2  0
 79 80  1  0
 81 80  2  0
 82 81  1  0
 83 57  1  0
 83 88  1  0
 83 84  1  0
 84 87  1  1
 84 85  1  0
 86 84  1  0
 88 91  1  0
 89 93  1  0
 89 88  1  0
 90 89  2  0
 93 92  1  0
 95 93  1  0
 95 96  1  0
 95 94  1  0
M  ISO  4  16 100  24 100  55 101  56 101
M  END
>  <TORSDO>  (49) 
F 25

>  <SCORE>  (49) 
-7.733

>  <name>  (49) 
49

>  <ligand_id>  (49) 
49

>  <original_smiles>  (49) 
[H]c1c([H])c([H])c2c(c1[H])C([H])([H])C([H])([H])C([H])([H])C2([H])N([H])C(=O)C1([H])N(C(=O)C([H])(N([H])C(=O)C([H])(N([H])C([H])([H])[H])C([H])([H])[H])C(C([H])([H])[H])(C([H])([H])[H])C([H])([H])[H])C([H])([H])c2c([H])c(OC([H])([H])C([H])([H])c3nc(C([H])([H])[H])c(C([H])([H])C([H])([H])C([H])([H])C([H])([H])C([H])([H])C([H])([H])C([H])([H])N([H])C(=O)N4C([H])([H])C([H])([H])C([H])([H])C([H])(n5nc(-c6c([H])c([H])c(Oc7c([H])c([H])c(F)c([H])c7F)c([H])c6[H])c(C(=O)N([H])[H])c5N([H])[H])C4([H])[H])c(C([H])([H])[H])n3)c([H])c([H])c2C1([H])[H]

>  <smiles>  (49) 
[H]c1c([H])c([H])c2c(c1[H])C([H])([H])C([H])([H])C([H])([H])C2([H])N([H])C(=O)C1([H])N(C(=O)C([H])(N([H])C(=O)C([H])(N([H])C([H])([H])[H])C([H])([H])[H])C(C([H])([H])[H])(C([H])([H])[H])C([H])([H])[H])C([H])([H])c2c([H])c(OC([H])([H])C([H])([H])c3nc(C([H])([H])[H])c(C([H])([H])C([H])([H])C([H])([H])C([H])([H])C([H])([H])C([H])([H])C([H])([H])N([H])C(=O)N4C([H])([H])C([H])([H])C([H])([H])C([H])(n5nc(-c6c([H])c([H])c(Oc7c([H])c([H])c(F)c([H])c7F)c([H])c6[H])c(C(=O)N([H])[H])c5N([H])[H])C4([H])[H])c(C([H])([H])[H])n3)c([H])c([H])c2C1([H])[H]

$$$$
50:0:0
     RDKit          3D

 93101  0  0  1  0  0  0  0  0999 V2000
  -29.8080  -22.9730   19.3020 C   0  0  0  0  0  3  0  0  0  0  0  0
  -30.9140  -23.7690   19.7070 C   0  0  0  0  0  0  0  0  0  0  0  0
  -30.3600  -21.8780   18.7040 C   0  0  0  0  0  0  0  0  0  0  0  0
  -32.8080  -21.2060   18.2660 C   0  0  0  0  0  1  0  0  0  0  0  0
  -32.0660  -23.1830   19.4250 N   0  0  0  0  0  0  0  0  0  0  0  0
  -31.7360  -22.0400   18.7790 N   0  0  0  0  0  0  0  0  0  0  0  0
  -30.8950  -25.1480   20.3100 C   0  0  0  0  0  2  0  0  0  0  0  0
  -29.8750  -25.3060   21.4540 C   0  0  0  0  0  2  0  0  0  0  0  0
  -29.1070  -26.6300   21.3780 C   0  0  0  0  0  2  0  0  0  0  0  0
  -28.3700  -26.6560   20.1580 O   0  0  0  0  0  0  0  0  0  0  0  0
  -24.6140  -31.8560   23.2330 C   0  0  0  0  0  0  0  0  0  0  0  0
  -27.2350  -27.4280   20.1680 C   0  0  0  0  0  0  0  0  0  0  0  0
  -23.3950  -30.4560   21.5940 C   0  0  0  0  0  3  0  0  0  0  0  0
  -24.8400  -28.9110   20.1700 C   0  0  0  0  0  0  0  0  0  0  0  0
  -25.9170  -30.8180   21.3850 C   0  0  0  0  0  2  0  0  0  0  0  0
  -25.9950  -29.4440   20.7580 C   0  0  0  0  0  0  0  0  0  0  0  0
  -27.1960  -28.7080   20.7610 C   0  0  0  0  0  3  0  0  0  0  0  0
  -26.0750  -26.9070   19.5630 C   0  0  0  0  0  3  0  0  0  0  0  0
  -24.8730  -27.6400   19.5690 C   0  0  0  0  0  3  0  0  0  0  0  0
  -23.5950  -29.7660   20.2170 C   0  0  0  0  0  2  0  0  0  0  0  0
  -24.6590  -31.0590   22.1290 N   0  0  0  0  0  0  0  0  0  0  0  0
  -23.5370  -32.1290   23.7800 O   0  0  0  0  0  0  0  0  0  0  0  0
  -22.7470  -29.4370   22.5600 C   0  0  0  0  0  0  0  0  0  0  0  0
  -21.4220  -29.2590   22.4370 N   0  0  0  0  0  0  0  0  0  0  0  0
  -23.4320  -28.8110   23.3740 O   0  0  0  0  0  0  0  0  0  0  0  0
  -20.9320  -29.8150   21.7500 H   0  0  0  0  0  0  0  0  0  0  0  0
  -18.0470  -28.0810   22.9470 C   0  0  0  0  0  0  0  0  0  0  0  0
  -20.6060  -28.3270   23.2130 C   0  0  0  0  0  3  0  0  0  0  0  0
  -20.7010  -26.8940   22.6390 C   0  0  0  0  0  2  0  0  0  0  0  0
  -19.5950  -26.5750   21.6280 C   0  0  0  0  0  2  0  0  0  0  0  0
  -18.2150  -26.7290   22.2740 C   0  0  0  0  0  2  0  0  0  0  0  0
  -19.1700  -28.8370   23.3750 C   0  0  0  0  0  0  0  0  0  0  0  0
  -18.9590  -30.1020   23.9650 C   0  0  0  0  0  3  0  0  0  0  0  0
  -17.6590  -30.6130   24.1250 C   0  0  0  0  0  3  0  0  0  0  0  0
  -16.5490  -29.8540   23.7130 C   0  0  0  0  0  3  0  0  0  0  0  0
  -16.7440  -28.5880   23.1320 C   0  0  0  0  0  3  0  0  0  0  0  0
  -25.9050  -32.4830   23.8480 C   0  0  0  0  0  3  0  0  0  0  0  0
  -25.6030  -33.8820   24.1750 N   0  0  0  0  0  0  0  0  0  0  0  0
  -25.9430  -34.9310   23.4140 C   0  0  0  0  0  0  0  0  0  0  0  0
  -26.6150  -34.8210   22.3850 O   0  0  0  0  0  0  0  0  0  0  0  0
  -25.0040  -34.0410   24.9720 H   0  0  0  0  0  0  0  0  0  0  0  0
  -24.2210  -36.7260   23.0540 C   0  0  0  0  0  1  0  0  0  0  0  0
  -25.4610  -36.3220   23.8680 C   0  0  0  0  0  3  0  0  0  0  0  0
  -27.6000  -37.1940   24.7000 C   0  0  0  0  0  1  0  0  0  0  0  0
  -26.4990  -37.3720   23.7550 N   0  0  0  0  0  0  0  0  0  0  0  0
  -26.0970  -38.2930   23.9070 H   0  0  0  0  0  0  0  0  0  0  0  0
  -26.4260  -31.7110   25.1210 C   0  0  1  0  0  0  0  0  0  0  0  0
  -25.3390  -31.4800   26.1960 C   0  0  0  0  0  1  0  0  0  0  0  0
  -27.0000  -30.3310   24.7270 C   0  0  0  0  0  1  0  0  0  0  0  0
  -27.5840  -32.5040   25.7750 C   0  0  0  0  0  1  0  0  0  0  0  0
  -29.6430  -20.7690   17.9890 C   0  0  0  0  0  2  0  0  0  0  0  0
  -30.0680  -19.3180   18.2780 C   0  0  0  0  0  2  0  0  0  0  0  0
  -30.0520  -18.8860   19.7570 C   0  0  0  0  0  2  0  0  0  0  0  0
  -30.1050  -17.3540   19.8320 C   0  0  0  0  0  2  0  0  0  0  0  0
  -30.2760  -16.7480   21.2380 C   0  0  0  0  0  2  0  0  0  0  0  0
  -30.6450  -14.3850   20.5120 C   0  0  0  0  0  0  0  0  0  0  0  0
  -30.3150  -12.2890   19.2560 C   0  0  0  0  0  2  0  0  0  0  0  0
  -29.3660  -12.5360   18.0660 C   0  0  0  0  0  2  0  0  0  0  0  0
  -27.8910  -12.4240   18.5010 C   0  0  0  0  0  2  0  0  0  0  0  0
  -27.5760  -13.2350   19.7860 C   0  0  0  0  0  3  0  0  0  0  0  0
  -28.6240  -12.9290   20.8790 C   0  0  0  0  0  2  0  0  0  0  0  0
  -29.9570  -13.2290   20.3270 N   0  0  0  0  0  0  0  0  0  0  0  0
  -31.7350  -14.6220   19.9820 O   0  0  0  0  0  0  0  0  0  0  0  0
  -29.9800  -15.3160   21.2080 N   0  0  0  0  0  0  0  0  0  0  0  0
  -29.0980  -15.0230   21.6020 H   0  0  0  0  0  0  0  0  0  0  0  0
  -25.1730  -13.8710   20.4700 C   0  0  0  0  0  0  0  0  0  0  0  0
  -24.0970  -13.1080   20.8430 C   0  0  0  0  0  0  0  0  0  0  0  0
  -24.5500  -11.7530   20.8260 C   0  0  0  0  0  0  0  0  0  0  0  0
  -26.2150  -12.9820   20.2570 N   0  0  0  0  0  0  0  0  0  0  0  0
  -25.8420  -11.7040   20.5250 N   0  0  0  0  0  0  0  0  0  0  0  0
  -23.8170  -10.4970   21.0260 C   0  0  0  0  0  0  0  0  0  0  0  0
  -24.2540   -9.5300   21.9580 C   0  0  0  0  0  3  0  0  0  0  0  0
  -23.5230   -8.3360   22.1460 C   0  0  0  0  0  3  0  0  0  0  0  0
  -22.3440   -8.1010   21.4000 C   0  0  0  0  0  0  0  0  0  0  0  0
  -21.9270   -9.0570   20.4570 C   0  0  0  0  0  3  0  0  0  0  0  0
  -22.6570  -10.2420   20.2670 C   0  0  0  0  0  3  0  0  0  0  0  0
  -21.5850   -6.9590   21.4950 O   0  0  0  0  0  0  0  0  0  0  0  0
  -21.5540   -6.2090   22.6430 C   0  0  0  0  0  0  0  0  0  0  0  0
  -21.1630   -6.7630   23.8830 C   0  0  0  0  0  3  0  0  0  0  0  0
  -21.0770   -5.9410   25.0240 C   0  0  0  0  0  3  0  0  0  0  0  0
  -21.3740   -4.5690   24.9290 C   0  0  0  0  0  0  0  0  0  0  0  0
  -21.7570   -4.0150   23.6940 C   0  0  0  0  0  3  0  0  0  0  0  0
  -21.8450   -4.8330   22.5560 C   0  0  0  0  0  0  0  0  0  0  0  0
  -22.1950   -4.2920   21.3630 F   0  0  0  0  0  0  0  0  0  0  0  0
  -21.2850   -3.7780   26.0230 F   0  0  0  0  0  0  0  0  0  0  0  0
  -22.7000  -13.5940   21.1060 C   0  0  0  0  0  0  0  0  0  0  0  0
  -21.9670  -12.9090   21.9780 N   0  0  0  0  0  0  0  0  0  0  0  0
  -22.2680  -14.6170   20.5750 O   0  0  0  0  0  0  0  0  0  0  0  0
  -22.3310  -12.0820   22.4280 H   0  0  0  0  0  0  0  0  0  0  0  0
  -21.0310  -13.2180   22.1980 H   0  0  0  0  0  0  0  0  0  0  0  0
  -25.3470  -15.2380   20.2790 N   0  0  0  0  0  0  0  0  0  0  0  0
  -24.5860  -15.9010   20.3810 H   0  0  0  0  0  0  0  0  0  0  0  0
  -26.2060  -15.6660   19.9550 H   0  0  0  0  0  0  0  0  0  0  0  0
  1  2  1  0
  2  7  1  0
  3  6  1  0
  3  1  2  0
  4  6  1  0
  5  2  2  0
  6  5  1  0
  7  8  1  0
  9  8  1  0
 10 12  1  0
 10  9  1  0
 11 22  2  0
 12 17  1  0
 13 21  1  0
 13 23  1  0
 14 20  1  0
 14 16  1  0
 15 21  1  0
 16 17  2  0
 16 15  1  0
 18 19  1  0
 18 12  2  0
 19 14  2  0
 20 13  1  0
 21 11  1  0
 23 25  2  0
 24 23  1  0
 26 24  1  0
 27 36  2  0
 27 32  1  0
 28 24  1  0
 28 32  1  0
 29 28  1  0
 30 31  1  0
 30 29  1  0
 31 27  1  0
 32 33  2  0
 33 34  1  0
 35 34  2  0
 36 35  1  0
 37 11  1  0
 37 38  1  0
 37 47  1  0
 38 41  1  0
 39 43  1  0
 39 38  1  0
 40 39  2  0
 43 42  1  0
 45 43  1  0
 45 46  1  0
 45 44  1  0
 47 50  1  1
 47 48  1  0
 49 47  1  0
 51 52  1  0
 51  3  1  0
 52 53  1  0
 53 54  1  0
 54 55  1  0
 56 64  1  0
 57 62  1  0
 58 59  1  0
 58 57  1  0
 60 59  1  0
 60 69  1  0
 60 61  1  0
 62 56  1  0
 62 61  1  0
 63 56  2  0
 64 55  1  0
 64 65  1  0
 66 67  2  0
 67 86  1  0
 68 67  1  0
 68 71  1  0
 69 66  1  0
 69 70  1  0
 70 68  2  0
 71 72  1  0
 72 73  2  0
 74 77  1  0
 74 73  1  0
 75 74  2  0
 76 75  1  0
 76 71  2  0
 77 78  1  0
 78 79  1  0
 79 80  2  0
 81 80  1  0
 81 85  1  0
 82 81  2  0
 83 78  2  0
 83 82  1  0
 84 83  1  0
 86 87  1  0
 87 90  1  0
 87 89  1  0
 88 86  2  0
 91 92  1  0
 91 66  1  0
 93 91  1  0
M  ISO  4   9 101  10 101  56 100  64 100
M  END
>  <TORSDO>  (50) 
F 24

>  <SCORE>  (50) 
-12.424

>  <name>  (50) 
50

>  <ligand_id>  (50) 
50

>  <original_smiles>  (50) 
[H]c1c([H])c([H])c2c(c1[H])C([H])([H])C([H])([H])C([H])([H])C2([H])N([H])C(=O)C1([H])N(C(=O)C([H])(N([H])C(=O)C([H])(N([H])C([H])([H])[H])C([H])([H])[H])C(C([H])([H])[H])(C([H])([H])[H])C([H])([H])[H])C([H])([H])c2c([H])c(OC([H])([H])C([H])([H])C([H])([H])c3nn(C([H])([H])[H])c(C([H])([H])C([H])([H])C([H])([H])C([H])([H])C([H])([H])N([H])C(=O)N4C([H])([H])C([H])([H])C([H])([H])C([H])(n5nc(-c6c([H])c([H])c(Oc7c([H])c([H])c(F)c([H])c7F)c([H])c6[H])c(C(=O)N([H])[H])c5N([H])[H])C4([H])[H])c3[H])c([H])c([H])c2C1([H])[H]

>  <smiles>  (50) 
[H]c1c([H])c([H])c2c(c1[H])C([H])([H])C([H])([H])C([H])([H])C2([H])N([H])C(=O)C1([H])N(C(=O)C([H])(N([H])C(=O)C([H])(N([H])C([H])([H])[H])C([H])([H])[H])C(C([H])([H])[H])(C([H])([H])[H])C([H])([H])[H])C([H])([H])c2c([H])c(OC([H])([H])C([H])([H])C([H])([H])c3nn(C([H])([H])[H])c(C([H])([H])C([H])([H])C([H])([H])C([H])([H])C([H])([H])N([H])C(=O)N4C([H])([H])C([H])([H])C([H])([H])C([H])(n5nc(-c6c([H])c([H])c(Oc7c([H])c([H])c(F)c([H])c7F)c([H])c6[H])c(C(=O)N([H])[H])c5N([H])[H])C4([H])[H])c3[H])c([H])c([H])c2C1([H])[H]

$$$$
51:0:0
     RDKit          3D

 93101  0  0  1  0  0  0  0  0999 V2000
  -31.6590  -23.4760   21.2200 C   0  0  0  0  0  3  0  0  0  0  0  0
  -29.8320  -23.1510   22.7950 C   0  0  0  0  0  3  0  0  0  0  0  0
  -30.5070  -23.9650   21.8690 C   0  0  0  0  0  0  0  0  0  0  0  0
  -32.1200  -22.1680   21.4690 C   0  0  0  0  0  0  0  0  0  0  0  0
  -30.2780  -21.8390   23.0530 C   0  0  0  0  0  0  0  0  0  0  0  0
  -31.4200  -21.3320   22.3780 C   0  0  0  0  0  0  0  0  0  0  0  0
  -33.3650  -21.6880   20.7370 C   0  0  0  0  0  1  0  0  0  0  0  0
  -29.5000  -21.0000   24.0540 C   0  0  0  0  0  1  0  0  0  0  0  0
  -30.0070  -25.3670   21.5810 C   0  0  0  0  0  2  0  0  0  0  0  0
  -28.6940  -25.4090   20.7800 C   0  0  0  0  0  2  0  0  0  0  0  0
  -28.6060  -26.7250   20.2630 O   0  0  0  0  0  0  0  0  0  0  0  0
  -24.5940  -31.7580   23.2380 C   0  0  0  0  0  0  0  0  0  0  0  0
  -27.3820  -27.3410   20.2910 C   0  0  0  0  0  0  0  0  0  0  0  0
  -23.4400  -30.3070   21.5940 C   0  0  0  0  0  3  0  0  0  0  0  0
  -24.9470  -28.7590   20.2390 C   0  0  0  0  0  0  0  0  0  0  0  0
  -25.9580  -30.7120   21.4380 C   0  0  0  0  0  2  0  0  0  0  0  0
  -26.0790  -29.3320   20.8320 C   0  0  0  0  0  0  0  0  0  0  0  0
  -27.2980  -28.6300   20.8500 C   0  0  0  0  0  3  0  0  0  0  0  0
  -26.2350  -26.7580   19.7100 C   0  0  0  0  0  3  0  0  0  0  0  0
  -25.0170  -27.4670   19.6820 C   0  0  0  0  0  3  0  0  0  0  0  0
  -23.6890  -29.5950   20.2360 C   0  0  0  0  0  2  0  0  0  0  0  0
  -24.6800  -30.9410   22.1510 N   0  0  0  0  0  0  0  0  0  0  0  0
  -23.4980  -32.0260   23.7520 O   0  0  0  0  0  0  0  0  0  0  0  0
  -22.7850  -29.2960   22.5620 C   0  0  0  0  0  0  0  0  0  0  0  0
  -21.4760  -29.0600   22.3780 N   0  0  0  0  0  0  0  0  0  0  0  0
  -23.4510  -28.7240   23.4280 O   0  0  0  0  0  0  0  0  0  0  0  0
  -21.0010  -29.5750   21.6500 H   0  0  0  0  0  0  0  0  0  0  0  0
  -18.1380  -27.7270   22.7210 C   0  0  0  0  0  0  0  0  0  0  0  0
  -20.6570  -28.1190   23.1400 C   0  0  0  0  0  3  0  0  0  0  0  0
  -20.8620  -26.6700   22.6390 C   0  0  0  0  0  2  0  0  0  0  0  0
  -19.8450  -26.2510   21.5740 C   0  0  0  0  0  2  0  0  0  0  0  0
  -18.4190  -26.3570   22.1230 C   0  0  0  0  0  2  0  0  0  0  0  0
  -19.1910  -28.5590   23.1840 C   0  0  0  0  0  0  0  0  0  0  0  0
  -18.8810  -29.8360   23.6990 C   0  0  0  0  0  3  0  0  0  0  0  0
  -17.5490  -30.2850   23.7580 C   0  0  0  0  0  3  0  0  0  0  0  0
  -16.5070  -29.4500   23.3150 C   0  0  0  0  0  3  0  0  0  0  0  0
  -16.8020  -28.1740   22.8030 C   0  0  0  0  0  3  0  0  0  0  0  0
  -25.8610  -32.4130   23.8710 C   0  0  0  0  0  3  0  0  0  0  0  0
  -25.5290  -33.8080   24.1850 N   0  0  0  0  0  0  0  0  0  0  0  0
  -25.8670  -34.8600   23.4280 C   0  0  0  0  0  0  0  0  0  0  0  0
  -26.5670  -34.7600   22.4150 O   0  0  0  0  0  0  0  0  0  0  0  0
  -24.9110  -33.9570   24.9700 H   0  0  0  0  0  0  0  0  0  0  0  0
  -24.1290  -36.6250   23.0040 C   0  0  0  0  0  1  0  0  0  0  0  0
  -25.3470  -36.2440   23.8600 C   0  0  0  0  0  3  0  0  0  0  0  0
  -27.4360  -37.1650   24.7620 C   0  0  0  0  0  1  0  0  0  0  0  0
  -26.3700  -37.3090   23.7760 N   0  0  0  0  0  0  0  0  0  0  0  0
  -25.9460  -38.2250   23.9010 H   0  0  0  0  0  0  0  0  0  0  0  0
  -26.3770  -31.6600   25.1600 C   0  0  1  0  0  0  0  0  0  0  0  0
  -25.2710  -31.4000   26.2100 C   0  0  0  0  0  1  0  0  0  0  0  0
  -27.0000  -30.2960   24.7790 C   0  0  0  0  0  1  0  0  0  0  0  0
  -27.4940  -32.4840   25.8410 C   0  0  0  0  0  1  0  0  0  0  0  0
  -31.8370  -19.8740   22.5620 C   0  0  0  0  0  2  0  0  0  0  0  0
  -31.1690  -19.0100   21.4850 C   0  0  0  0  0  2  0  0  0  0  0  0
  -31.3240  -17.5000   21.6880 C   0  0  0  0  0  2  0  0  0  0  0  0
  -30.6330  -16.7600   20.5390 C   0  0  0  0  0  2  0  0  0  0  0  0
  -31.1390  -14.3770   20.0990 C   0  0  0  0  0  0  0  0  0  0  0  0
  -30.7180  -12.2720   18.8990 C   0  0  0  0  0  2  0  0  0  0  0  0
  -29.7390  -12.5670   17.7440 C   0  0  0  0  0  2  0  0  0  0  0  0
  -28.2750  -12.4930   18.2240 C   0  0  0  0  0  2  0  0  0  0  0  0
  -28.0290  -13.3070   19.5230 C   0  0  0  0  0  3  0  0  0  0  0  0
  -29.1070  -12.9720   20.5790 C   0  0  0  0  0  2  0  0  0  0  0  0
  -30.4320  -13.2250   19.9800 N   0  0  0  0  0  0  0  0  0  0  0  0
  -32.2030  -14.5940   19.5100 O   0  0  0  0  0  0  0  0  0  0  0  0
  -30.5010  -15.3320   20.7810 N   0  0  0  0  0  0  0  0  0  0  0  0
  -29.6600  -15.0350   21.2540 H   0  0  0  0  0  0  0  0  0  0  0  0
  -25.6790  -14.0150   20.3140 C   0  0  0  0  0  0  0  0  0  0  0  0
  -24.5960  -13.2850   20.7220 C   0  0  0  0  0  0  0  0  0  0  0  0
  -25.0000  -11.9160   20.6680 C   0  0  0  0  0  0  0  0  0  0  0  0
  -26.6800  -13.0930   20.0430 N   0  0  0  0  0  0  0  0  0  0  0  0
  -26.2730  -11.8240   20.3080 N   0  0  0  0  0  0  0  0  0  0  0  0
  -24.2320  -10.6820   20.8820 C   0  0  0  0  0  0  0  0  0  0  0  0
  -24.6280   -9.7250   21.8420 C   0  0  0  0  0  3  0  0  0  0  0  0
  -23.8650   -8.5540   22.0410 C   0  0  0  0  0  3  0  0  0  0  0  0
  -22.6910   -8.3350   21.2820 C   0  0  0  0  0  0  0  0  0  0  0  0
  -22.3140   -9.2810   20.3120 C   0  0  0  0  0  3  0  0  0  0  0  0
  -23.0780  -10.4430   20.1120 C   0  0  0  0  0  3  0  0  0  0  0  0
  -21.9010   -7.2160   21.3890 O   0  0  0  0  0  0  0  0  0  0  0  0
  -21.7740   -6.5360   22.5730 C   0  0  0  0  0  0  0  0  0  0  0  0
  -21.2660   -7.1540   23.7380 C   0  0  0  0  0  3  0  0  0  0  0  0
  -21.0870   -6.3990   24.9140 C   0  0  0  0  0  3  0  0  0  0  0  0
  -21.4050   -5.0280   24.9270 C   0  0  0  0  0  0  0  0  0  0  0  0
  -21.9060   -4.4090   23.7680 C   0  0  0  0  0  3  0  0  0  0  0  0
  -22.0860   -5.1620   22.5940 C   0  0  0  0  0  0  0  0  0  0  0  0
  -22.5490   -4.5560   21.4730 F   0  0  0  0  0  0  0  0  0  0  0  0
  -21.2270   -4.3000   26.0550 F   0  0  0  0  0  0  0  0  0  0  0  0
  -23.2310  -13.8160   21.0550 C   0  0  0  0  0  0  0  0  0  0  0  0
  -22.5130  -13.1470   21.9490 N   0  0  0  0  0  0  0  0  0  0  0  0
  -22.8120  -14.8590   20.5540 O   0  0  0  0  0  0  0  0  0  0  0  0
  -22.8670  -12.3030   22.3770 H   0  0  0  0  0  0  0  0  0  0  0  0
  -21.5980  -13.4830   22.2130 H   0  0  0  0  0  0  0  0  0  0  0  0
  -25.8910  -15.3790   20.1370 N   0  0  0  0  0  0  0  0  0  0  0  0
  -25.1540  -16.0610   20.2780 H   0  0  0  0  0  0  0  0  0  0  0  0
  -26.7470  -15.7880   19.7830 H   0  0  0  0  0  0  0  0  0  0  0  0
  1  4  2  0
  1  3  1  0
  2  5  1  0
  3  2  2  0
  4  6  1  0
  5  8  1  0
  6 52  1  0
  6  5  2  0
  7  4  1  0
  9  3  1  0
 10  9  1  0
 11 13  1  0
 11 10  1  0
 12 23  2  0
 13 18  1  0
 14 22  1  0
 14 24  1  0
 15 17  1  0
 16 22  1  0
 17 18  2  0
 17 16  1  0
 19 13  2  0
 20 19  1  0
 20 15  2  0
 21 15  1  0
 21 14  1  0
 22 12  1  0
 24 26  2  0
 25 24  1  0
 27 25  1  0
 28 37  2  0
 28 33  1  0
 29 25  1  0
 29 33  1  0
 30 29  1  0
 31 32  1  0
 31 30  1  0
 32 28  1  0
 33 34  2  0
 34 35  1  0
 36 35  2  0
 37 36  1  0
 38 12  1  0
 38 39  1  0
 38 48  1  0
 39 42  1  0
 40 44  1  0
 40 39  1  0
 41 40  2  0
 44 43  1  0
 46 44  1  0
 46 47  1  0
 46 45  1  0
 48 51  1  1
 48 49  1  0
 50 48  1  0
 53 54  1  0
 53 52  1  0
 55 64  1  0
 55 54  1  0
 56 64  1  0
 57 62  1  0
 58 59  1  0
 58 57  1  0
 60 59  1  0
 60 69  1  0
 60 61  1  0
 62 56  1  0
 62 61  1  0
 63 56  2  0
 64 65  1  0
 66 67  2  0
 67 86  1  0
 68 67  1  0
 68 71  1  0
 69 70  1  0
 69 66  1  0
 70 68  2  0
 71 72  1  0
 72 73  2  0
 74 77  1  0
 74 73  1  0
 75 74  2  0
 76 75  1  0
 76 71  2  0
 77 78  1  0
 78 83  2  0
 78 79  1  0
 79 80  2  0
 80 81  1  0
 81 85  1  0
 82 81  2  0
 83 82  1  0
 84 83  1  0
 86 87  1  0
 87 90  1  0
 87 89  1  0
 88 86  2  0
 91 92  1  0
 91 66  1  0
 93 91  1  0
M  ISO  4  10 101  11 101  56 100  64 100
M  END
>  <TORSDO>  (51) 
F 22

>  <SCORE>  (51) 
-11.756

>  <name>  (51) 
51

>  <ligand_id>  (51) 
51

>  <original_smiles>  (51) 
[H]c1c([H])c([H])c2c(c1[H])C([H])([H])C([H])([H])C([H])([H])C2([H])N([H])C(=O)C1([H])N(C(=O)C([H])(N([H])C(=O)C([H])(N([H])C([H])([H])[H])C([H])([H])[H])C(C([H])([H])[H])(C([H])([H])[H])C([H])([H])[H])C([H])([H])c2c([H])c(OC([H])([H])C([H])([H])c3c([H])c(C([H])([H])[H])c(C([H])([H])C([H])([H])C([H])([H])C([H])([H])N([H])C(=O)N4C([H])([H])C([H])([H])C([H])([H])C([H])(n5nc(-c6c([H])c([H])c(Oc7c([H])c([H])c(F)c([H])c7F)c([H])c6[H])c(C(=O)N([H])[H])c5N([H])[H])C4([H])[H])c(C([H])([H])[H])c3[H])c([H])c([H])c2C1([H])[H]

>  <smiles>  (51) 
[H]c1c([H])c([H])c2c(c1[H])C([H])([H])C([H])([H])C([H])([H])C2([H])N([H])C(=O)C1([H])N(C(=O)C([H])(N([H])C(=O)C([H])(N([H])C([H])([H])[H])C([H])([H])[H])C(C([H])([H])[H])(C([H])([H])[H])C([H])([H])[H])C([H])([H])c2c([H])c(OC([H])([H])C([H])([H])c3c([H])c(C([H])([H])[H])c(C([H])([H])C([H])([H])C([H])([H])C([H])([H])N([H])C(=O)N4C([H])([H])C([H])([H])C([H])([H])C([H])(n5nc(-c6c([H])c([H])c(Oc7c([H])c([H])c(F)c([H])c7F)c([H])c6[H])c(C(=O)N([H])[H])c5N([H])[H])C4([H])[H])c(C([H])([H])[H])c3[H])c([H])c([H])c2C1([H])[H]

$$$$
52:0:0
     RDKit          3D

 92100  0  0  1  0  0  0  0  0999 V2000
  -28.8210  -22.7600   17.0240 C   0  0  0  0  0  3  0  0  0  0  0  0
  -28.3770  -24.0950   17.0080 C   0  0  0  0  0  0  0  0  0  0  0  0
  -28.9740  -22.8140   19.3450 C   0  0  0  0  0  0  0  0  0  0  0  0
  -28.5330  -24.2050   19.3250 C   0  0  0  0  0  0  0  0  0  0  0  0
  -28.0370  -24.7930   15.7100 C   0  0  0  0  0  1  0  0  0  0  0  0
  -29.1230  -22.1330   18.1800 N   0  0  0  0  0  0  0  0  0  0  0  0
  -28.2350  -24.8090   18.1440 N   0  0  0  0  0  0  0  0  0  0  0  0
  -29.4950  -21.9860   20.5540 C   0  0  0  0  0  2  0  0  0  0  0  0
  -28.9330  -20.5190   20.8240 C   0  0  0  0  0  2  0  0  0  0  0  0
  -29.2480  -19.2750   19.8900 C   0  0  0  0  0  2  0  0  0  0  0  0
  -30.3890  -18.2340   20.2360 C   0  0  0  0  0  2  0  0  0  0  0  0
  -30.1570  -17.0480   21.2570 C   0  0  0  0  0  2  0  0  0  0  0  0
  -30.5800  -14.6290   20.3940 C   0  0  0  0  0  0  0  0  0  0  0  0
  -30.3500  -12.4380   19.2440 C   0  0  0  0  0  2  0  0  0  0  0  0
  -29.3920  -12.5930   18.0440 C   0  0  0  0  0  2  0  0  0  0  0  0
  -27.9240  -12.4230   18.4870 C   0  0  0  0  0  2  0  0  0  0  0  0
  -27.5750  -13.2550   19.7490 C   0  0  0  0  0  3  0  0  0  0  0  0
  -28.6450  -13.0730   20.8480 C   0  0  0  0  0  2  0  0  0  0  0  0
  -29.9450  -13.4280   20.2590 N   0  0  0  0  0  0  0  0  0  0  0  0
  -31.7530  -14.7900   20.0480 O   0  0  0  0  0  0  0  0  0  0  0  0
  -29.7920  -15.6800   20.7660 N   0  0  0  0  0  0  0  0  0  0  0  0
  -28.8230  -15.4340   20.8970 H   0  0  0  0  0  0  0  0  0  0  0  0
  -25.1780  -13.8380   20.4690 C   0  0  0  0  0  0  0  0  0  0  0  0
  -24.1200  -13.0570   20.8470 C   0  0  0  0  0  0  0  0  0  0  0  0
  -24.5950  -11.7100   20.8220 C   0  0  0  0  0  0  0  0  0  0  0  0
  -26.2300  -12.9660   20.2400 N   0  0  0  0  0  0  0  0  0  0  0  0
  -25.8850  -11.6820   20.5130 N   0  0  0  0  0  0  0  0  0  0  0  0
  -23.8820  -10.4420   21.0230 C   0  0  0  0  0  0  0  0  0  0  0  0
  -24.3250   -9.4870   21.9640 C   0  0  0  0  0  3  0  0  0  0  0  0
  -23.6120   -8.2830   22.1490 C   0  0  0  0  0  3  0  0  0  0  0  0
  -22.4430   -8.0260   21.3940 C   0  0  0  0  0  0  0  0  0  0  0  0
  -22.0200   -8.9700   20.4440 C   0  0  0  0  0  3  0  0  0  0  0  0
  -22.7330  -10.1650   20.2550 C   0  0  0  0  0  3  0  0  0  0  0  0
  -21.7020   -6.8730   21.4900 O   0  0  0  0  0  0  0  0  0  0  0  0
  -21.6610   -6.1360   22.6470 C   0  0  0  0  0  0  0  0  0  0  0  0
  -21.2210   -6.6910   23.8680 C   0  0  0  0  0  3  0  0  0  0  0  0
  -21.1300   -5.8810   25.0180 C   0  0  0  0  0  3  0  0  0  0  0  0
  -21.4690   -4.5160   24.9460 C   0  0  0  0  0  0  0  0  0  0  0  0
  -21.9000   -3.9610   23.7290 C   0  0  0  0  0  3  0  0  0  0  0  0
  -21.9930   -4.7680   22.5820 C   0  0  0  0  0  0  0  0  0  0  0  0
  -22.3910   -4.2230   21.4070 F   0  0  0  0  0  0  0  0  0  0  0  0
  -21.3730   -3.7350   26.0470 F   0  0  0  0  0  0  0  0  0  0  0  0
  -22.7180  -13.5230   21.1160 C   0  0  0  0  0  0  0  0  0  0  0  0
  -21.9950  -12.8220   21.9850 N   0  0  0  0  0  0  0  0  0  0  0  0
  -22.2690  -14.5400   20.5910 O   0  0  0  0  0  0  0  0  0  0  0  0
  -22.3710  -12.0010   22.4350 H   0  0  0  0  0  0  0  0  0  0  0  0
  -21.0540  -13.1140   22.2050 H   0  0  0  0  0  0  0  0  0  0  0  0
  -25.3290  -15.2100   20.2840 N   0  0  0  0  0  0  0  0  0  0  0  0
  -24.5560  -15.8560   20.4000 H   0  0  0  0  0  0  0  0  0  0  0  0
  -26.1720  -15.6600   19.9500 H   0  0  0  0  0  0  0  0  0  0  0  0
  -28.3440  -25.1650   20.5340 C   0  0  0  0  0  2  0  0  0  0  0  0
  -28.4040  -26.6110   20.2510 O   0  0  0  0  0  0  0  0  0  0  0  0
  -24.5950  -31.8980   23.2640 C   0  0  0  0  0  0  0  0  0  0  0  0
  -27.2370  -27.3730   20.2390 C   0  0  0  0  0  0  0  0  0  0  0  0
  -23.3960  -30.4910   21.6250 C   0  0  0  0  0  3  0  0  0  0  0  0
  -24.8500  -28.9310   20.2180 C   0  0  0  0  0  0  0  0  0  0  0  0
  -25.9280  -30.8280   21.4370 C   0  0  0  0  0  2  0  0  0  0  0  0
  -26.0130  -29.4480   20.8030 C   0  0  0  0  0  0  0  0  0  0  0  0
  -27.2100  -28.6820   20.7970 C   0  0  0  0  0  3  0  0  0  0  0  0
  -26.0500  -26.8830   19.6520 C   0  0  0  0  0  3  0  0  0  0  0  0
  -24.8680  -27.6510   19.6370 C   0  0  0  0  0  3  0  0  0  0  0  0
  -23.6130  -29.8030   20.2520 C   0  0  0  0  0  2  0  0  0  0  0  0
  -24.6590  -31.0890   22.1670 N   0  0  0  0  0  0  0  0  0  0  0  0
  -23.5110  -32.1750   23.7980 O   0  0  0  0  0  0  0  0  0  0  0  0
  -22.7360  -29.4760   22.5900 C   0  0  0  0  0  0  0  0  0  0  0  0
  -21.4120  -29.2880   22.4530 N   0  0  0  0  0  0  0  0  0  0  0  0
  -23.4130  -28.8620   23.4190 O   0  0  0  0  0  0  0  0  0  0  0  0
  -20.9260  -29.8360   21.7580 H   0  0  0  0  0  0  0  0  0  0  0  0
  -18.0420  -28.0720   22.9270 C   0  0  0  0  0  0  0  0  0  0  0  0
  -20.5940  -28.3530   23.2250 C   0  0  0  0  0  3  0  0  0  0  0  0
  -20.7120  -26.9150   22.6660 C   0  0  0  0  0  2  0  0  0  0  0  0
  -19.6240  -26.5730   21.6430 C   0  0  0  0  0  2  0  0  0  0  0  0
  -18.2350  -26.7160   22.2700 C   0  0  0  0  0  2  0  0  0  0  0  0
  -19.1490  -28.8470   23.3610 C   0  0  0  0  0  0  0  0  0  0  0  0
  -18.9150  -30.1140   23.9370 C   0  0  0  0  0  3  0  0  0  0  0  0
  -17.6050  -30.6080   24.0820 C   0  0  0  0  0  3  0  0  0  0  0  0
  -16.5110  -29.8310   23.6620 C   0  0  0  0  0  3  0  0  0  0  0  0
  -16.7300  -28.5640   23.0920 C   0  0  0  0  0  3  0  0  0  0  0  0
  -25.8770  -32.5340   23.8870 C   0  0  0  0  0  3  0  0  0  0  0  0
  -25.5690  -33.9370   24.1980 N   0  0  0  0  0  0  0  0  0  0  0  0
  -25.9110  -34.9790   23.4280 C   0  0  0  0  0  0  0  0  0  0  0  0
  -26.5880  -34.8600   22.4030 O   0  0  0  0  0  0  0  0  0  0  0  0
  -24.9710  -34.1030   24.9930 H   0  0  0  0  0  0  0  0  0  0  0  0
  -24.1930  -36.7730   23.0380 C   0  0  0  0  0  1  0  0  0  0  0  0
  -25.4250  -36.3750   23.8650 C   0  0  0  0  0  3  0  0  0  0  0  0
  -27.5560  -37.2610   24.7060 C   0  0  0  0  0  1  0  0  0  0  0  0
  -26.4640  -37.4220   23.7490 N   0  0  0  0  0  0  0  0  0  0  0  0
  -26.0610  -38.3460   23.8790 H   0  0  0  0  0  0  0  0  0  0  0  0
  -26.3830  -31.7770   25.1760 C   0  0  1  0  0  0  0  0  0  0  0  0
  -25.2830  -31.5540   26.2410 C   0  0  0  0  0  1  0  0  0  0  0  0
  -26.9640  -30.3950   24.8010 C   0  0  0  0  0  1  0  0  0  0  0  0
  -27.5340  -32.5760   25.8330 C   0  0  0  0  0  1  0  0  0  0  0  0
  1  6  1  0
  2  1  2  0
  2  7  1  0
  3  8  1  0
  4  3  1  0
  4 51  1  0
  5  2  1  0
  6  3  2  0
  7  4  2  0
  8  9  1  0
 10 11  1  0
 10  9  1  0
 11 12  1  0
 13 21  1  0
 14 19  1  0
 15 16  1  0
 15 14  1  0
 17 16  1  0
 17 26  1  0
 17 18  1  0
 19 13  1  0
 19 18  1  0
 20 13  2  0
 21 22  1  0
 21 12  1  0
 23 24  2  0
 24 43  1  0
 25 24  1  0
 25 28  1  0
 26 23  1  0
 26 27  1  0
 27 25  2  0
 28 29  1  0
 29 30  2  0
 31 34  1  0
 31 30  1  0
 32 31  2  0
 33 32  1  0
 33 28  2  0
 34 35  1  0
 35 36  1  0
 36 37  2  0
 38 37  1  0
 38 42  1  0
 39 38  2  0
 40 35  2  0
 40 39  1  0
 41 40  1  0
 43 44  1  0
 44 47  1  0
 44 46  1  0
 45 43  2  0
 48 49  1  0
 48 23  1  0
 50 48  1  0
 52 51  1  0
 53 64  2  0
 54 52  1  0
 54 59  1  0
 55 63  1  0
 55 65  1  0
 56 62  1  0
 56 58  1  0
 57 63  1  0
 58 57  1  0
 59 58  2  0
 60 54  2  0
 61 60  1  0
 61 56  2  0
 62 55  1  0
 63 53  1  0
 65 67  2  0
 66 65  1  0
 68 66  1  0
 69 78  2  0
 69 74  1  0
 70 66  1  0
 70 74  1  0
 71 70  1  0
 72 73  1  0
 72 71  1  0
 73 69  1  0
 74 75  2  0
 75 76  1  0
 77 76  2  0
 78 77  1  0
 79 53  1  0
 79 80  1  0
 79 89  1  0
 80 83  1  0
 81 85  1  0
 81 80  1  0
 82 81  2  0
 85 84  1  0
 87 85  1  0
 87 88  1  0
 87 86  1  0
 89 92  1  1
 89 90  1  0
 91 89  1  0
M  ISO  4  13 100  21 100  51 101  52 101
M  END
>  <TORSDO>  (52) 
F 22

>  <SCORE>  (52) 
-12.766

>  <name>  (52) 
52

>  <ligand_id>  (52) 
52

>  <original_smiles>  (52) 
[H]c1nc(C([H])([H])C([H])([H])C([H])([H])C([H])([H])C([H])([H])N([H])C(=O)N2C([H])([H])C([H])([H])C([H])([H])C([H])(n3nc(-c4c([H])c([H])c(Oc5c([H])c([H])c(F)c([H])c5F)c([H])c4[H])c(C(=O)N([H])[H])c3N([H])[H])C2([H])[H])c(C([H])([H])Oc2c([H])c([H])c3c(c2[H])C([H])([H])N(C(=O)C([H])(N([H])C(=O)C([H])(N([H])C([H])([H])[H])C([H])([H])[H])C(C([H])([H])[H])(C([H])([H])[H])C([H])([H])[H])C([H])(C(=O)N([H])C2([H])c4c([H])c([H])c([H])c([H])c4C([H])([H])C([H])([H])C2([H])[H])C3([H])[H])nc1C([H])([H])[H]

>  <smiles>  (52) 
[H]c1nc(C([H])([H])C([H])([H])C([H])([H])C([H])([H])C([H])([H])N([H])C(=O)N2C([H])([H])C([H])([H])C([H])([H])C([H])(n3nc(-c4c([H])c([H])c(Oc5c([H])c([H])c(F)c([H])c5F)c([H])c4[H])c(C(=O)N([H])[H])c3N([H])[H])C2([H])[H])c(C([H])([H])Oc2c([H])c([H])c3c(c2[H])C([H])([H])N(C(=O)C([H])(N([H])C(=O)C([H])(N([H])C([H])([H])[H])C([H])([H])[H])C(C([H])([H])[H])(C([H])([H])[H])C([H])([H])[H])C([H])(C(=O)N([H])C2([H])c4c([H])c([H])c([H])c([H])c4C([H])([H])C([H])([H])C2([H])[H])C3([H])[H])nc1C([H])([H])[H]

$$$$
53:0:0
     RDKit          3D

 95104  0  0  1  0  0  0  0  0999 V2000
  -30.6410  -18.6700   19.4120 C   0  0  0  0  0  3  0  0  0  0  0  0
  -30.5130  -20.0730   19.1050 C   0  0  0  0  0  0  0  0  0  0  0  0
  -29.7820  -20.7930   20.0350 C   0  0  0  0  0  0  0  0  0  0  0  0
  -30.0930  -18.2880   20.6080 C   0  0  0  0  0  0  0  0  0  0  0  0
  -29.2320  -19.6770   21.2950 S   0  0  0  0  0  0  0  0  0  0  0  0
  -29.3400  -23.0210   21.3960 C   0  0  0  0  0  2  0  0  0  0  0  0
  -28.3810  -22.8280   19.1080 C   0  0  0  0  0  2  0  0  0  0  0  0
  -29.3080  -24.5820   21.2820 C   0  0  0  0  0  2  0  0  0  0  0  0
  -28.3780  -24.3860   18.9600 C   0  0  0  0  0  2  0  0  0  0  0  0
  -29.5230  -22.3210   20.0250 C   0  0  0  0  0  3  0  0  0  0  0  0
  -28.2290  -25.1410   20.3110 C   0  0  0  0  0  3  0  0  0  0  0  0
  -28.3470  -26.6010   20.1970 O   0  0  0  0  0  0  0  0  0  0  0  0
  -24.5420  -31.8750   23.2440 C   0  0  0  0  0  0  0  0  0  0  0  0
  -27.1930  -27.3850   20.1670 C   0  0  0  0  0  0  0  0  0  0  0  0
  -23.3500  -30.4870   21.5830 C   0  0  0  0  0  3  0  0  0  0  0  0
  -24.8120  -28.9520   20.1580 C   0  0  0  0  0  0  0  0  0  0  0  0
  -25.8840  -30.8270   21.4120 C   0  0  0  0  0  2  0  0  0  0  0  0
  -25.9730  -29.4570   20.7570 C   0  0  0  0  0  0  0  0  0  0  0  0
  -27.1680  -28.6860   20.7480 C   0  0  0  0  0  3  0  0  0  0  0  0
  -26.0090  -26.9170   19.5580 C   0  0  0  0  0  3  0  0  0  0  0  0
  -24.8300  -27.6870   19.5500 C   0  0  0  0  0  3  0  0  0  0  0  0
  -23.5710  -29.8190   20.2010 C   0  0  0  0  0  2  0  0  0  0  0  0
  -24.6100  -31.0790   22.1370 N   0  0  0  0  0  0  0  0  0  0  0  0
  -23.4550  -32.1450   23.7760 O   0  0  0  0  0  0  0  0  0  0  0  0
  -22.6850  -29.4620   22.5310 C   0  0  0  0  0  0  0  0  0  0  0  0
  -21.3600  -29.2860   22.3970 N   0  0  0  0  0  0  0  0  0  0  0  0
  -23.3610  -28.8270   23.3450 O   0  0  0  0  0  0  0  0  0  0  0  0
  -20.8740  -29.8500   21.7130 H   0  0  0  0  0  0  0  0  0  0  0  0
  -17.9730  -28.1260   22.9020 C   0  0  0  0  0  0  0  0  0  0  0  0
  -20.5370  -28.3440   23.1550 C   0  0  0  0  0  3  0  0  0  0  0  0
  -20.6130  -26.9240   22.5470 C   0  0  0  0  0  2  0  0  0  0  0  0
  -19.4980  -26.6390   21.5360 C   0  0  0  0  0  2  0  0  0  0  0  0
  -18.1240  -26.7900   22.1960 C   0  0  0  0  0  2  0  0  0  0  0  0
  -19.1060  -28.8630   23.3380 C   0  0  0  0  0  0  0  0  0  0  0  0
  -18.9110  -30.1160   23.9570 C   0  0  0  0  0  3  0  0  0  0  0  0
  -17.6150  -30.6330   24.1450 C   0  0  0  0  0  3  0  0  0  0  0  0
  -16.4960  -29.8930   23.7260 C   0  0  0  0  0  3  0  0  0  0  0  0
  -16.6760  -28.6410   23.1090 C   0  0  0  0  0  3  0  0  0  0  0  0
  -25.8210  -32.5020   23.8790 C   0  0  0  0  0  3  0  0  0  0  0  0
  -26.3140  -31.7370   25.1690 C   0  0  1  0  0  0  0  0  0  0  0  0
  -25.2030  -31.5090   26.2190 C   0  0  0  0  0  1  0  0  0  0  0  0
  -26.8980  -30.3540   24.7960 C   0  0  0  0  0  1  0  0  0  0  0  0
  -27.4570  -32.5310   25.8450 C   0  0  0  0  0  1  0  0  0  0  0  0
  -25.5180  -33.9050   24.1940 N   0  0  0  0  0  0  0  0  0  0  0  0
  -25.8660  -34.9490   23.4300 C   0  0  0  0  0  0  0  0  0  0  0  0
  -26.5470  -34.8330   22.4070 O   0  0  0  0  0  0  0  0  0  0  0  0
  -24.9100  -34.0700   24.9830 H   0  0  0  0  0  0  0  0  0  0  0  0
  -24.1650  -36.7590   23.0280 C   0  0  0  0  0  1  0  0  0  0  0  0
  -25.3830  -36.3440   23.8690 C   0  0  0  0  0  3  0  0  0  0  0  0
  -27.4990  -37.2200   24.7560 C   0  0  0  0  0  1  0  0  0  0  0  0
  -26.4290  -37.3860   23.7760 N   0  0  0  0  0  0  0  0  0  0  0  0
  -26.0270  -38.3120   23.9000 H   0  0  0  0  0  0  0  0  0  0  0  0
  -31.1900  -20.6740   17.9020 C   0  0  0  0  0  2  0  0  0  0  0  0
  -33.5430  -20.2740   18.8770 C   0  0  0  0  0  1  0  0  0  0  0  0
  -33.2190  -21.8730   16.9480 C   0  0  0  0  0  1  0  0  0  0  0  0
  -32.5820  -21.2760   18.2110 C   0  0  0  0  0  3  0  0  0  0  0  0
  -30.3260  -16.9780   21.3770 C   0  0  0  0  0  2  0  0  0  0  0  0
  -30.6270  -14.6330   20.3620 C   0  0  0  0  0  0  0  0  0  0  0  0
  -30.3600  -12.4470   19.2150 C   0  0  0  0  0  2  0  0  0  0  0  0
  -29.3780  -12.6060   18.0350 C   0  0  0  0  0  2  0  0  0  0  0  0
  -27.9190  -12.4420   18.5080 C   0  0  0  0  0  2  0  0  0  0  0  0
  -27.6010  -13.2810   19.7740 C   0  0  0  0  0  3  0  0  0  0  0  0
  -28.6900  -13.0910   20.8510 C   0  0  0  0  0  2  0  0  0  0  0  0
  -29.9800  -13.4370   20.2370 N   0  0  0  0  0  0  0  0  0  0  0  0
  -31.7820  -14.7970   19.9620 O   0  0  0  0  0  0  0  0  0  0  0  0
  -29.8750  -15.6730   20.8170 N   0  0  0  0  0  0  0  0  0  0  0  0
  -28.9130  -15.4380   21.0090 H   0  0  0  0  0  0  0  0  0  0  0  0
  -25.2270  -13.8720   20.5640 C   0  0  0  0  0  0  0  0  0  0  0  0
  -24.1710  -13.0940   20.9520 C   0  0  0  0  0  0  0  0  0  0  0  0
  -24.6330  -11.7440   20.8930 C   0  0  0  0  0  0  0  0  0  0  0  0
  -26.2650  -12.9960   20.2910 N   0  0  0  0  0  0  0  0  0  0  0  0
  -25.9140  -11.7090   20.5490 N   0  0  0  0  0  0  0  0  0  0  0  0
  -23.9140  -10.4780   21.0870 C   0  0  0  0  0  0  0  0  0  0  0  0
  -24.3630   -9.5060   22.0070 C   0  0  0  0  0  3  0  0  0  0  0  0
  -23.6440   -8.3040   22.1880 C   0  0  0  0  0  3  0  0  0  0  0  0
  -22.4610   -8.0680   21.4490 C   0  0  0  0  0  0  0  0  0  0  0  0
  -22.0310   -9.0290   20.5170 C   0  0  0  0  0  3  0  0  0  0  0  0
  -22.7510  -10.2210   20.3340 C   0  0  0  0  0  3  0  0  0  0  0  0
  -21.7110   -6.9200   21.5400 O   0  0  0  0  0  0  0  0  0  0  0  0
  -21.6690   -6.1780   22.6930 C   0  0  0  0  0  0  0  0  0  0  0  0
  -21.1930   -6.7170   23.9090 C   0  0  0  0  0  3  0  0  0  0  0  0
  -21.1010   -5.9000   25.0530 C   0  0  0  0  0  3  0  0  0  0  0  0
  -21.4750   -4.5440   24.9820 C   0  0  0  0  0  0  0  0  0  0  0  0
  -21.9450   -4.0050   23.7720 C   0  0  0  0  0  3  0  0  0  0  0  0
  -22.0380   -4.8200   22.6300 C   0  0  0  0  0  0  0  0  0  0  0  0
  -22.4720   -4.2890   21.4600 F   0  0  0  0  0  0  0  0  0  0  0  0
  -21.3790   -3.7560   26.0790 F   0  0  0  0  0  0  0  0  0  0  0  0
  -22.7810  -13.5660   21.2670 C   0  0  0  0  0  0  0  0  0  0  0  0
  -22.0730  -12.8520   22.1350 N   0  0  0  0  0  0  0  0  0  0  0  0
  -22.3320  -14.6020   20.7780 O   0  0  0  0  0  0  0  0  0  0  0  0
  -22.4480  -12.0130   22.5510 H   0  0  0  0  0  0  0  0  0  0  0  0
  -21.1410  -13.1500   22.3880 H   0  0  0  0  0  0  0  0  0  0  0  0
  -25.3850  -15.2460   20.3980 N   0  0  0  0  0  0  0  0  0  0  0  0
  -24.6200  -15.8960   20.5340 H   0  0  0  0  0  0  0  0  0  0  0  0
  -26.2190  -15.6880   20.0300 H   0  0  0  0  0  0  0  0  0  0  0  0
  1  4  2  0
  2  1  1  0
  2  3  2  0
  3  5  1  0
  4  5  1  0
  4 57  1  0
  7 10  1  0
  8  6  1  0
  9  7  1  0
  9 11  1  0
 10  3  1  0
 10  6  1  0
 11 12  1  0
 11  8  1  0
 13 24  2  0
 14 12  1  0
 14 19  1  0
 15 23  1  0
 15 25  1  0
 16 22  1  0
 16 18  1  0
 17 23  1  0
 18 17  1  0
 19 18  2  0
 20 14  2  0
 21 20  1  0
 21 16  2  0
 22 15  1  0
 23 13  1  0
 25 27  2  0
 26 25  1  0
 28 26  1  0
 29 38  2  0
 29 34  1  0
 30 26  1  0
 30 34  1  0
 31 30  1  0
 32 33  1  0
 32 31  1  0
 33 29  1  0
 34 35  2  0
 35 36  1  0
 37 36  2  0
 38 37  1  0
 39 13  1  0
 39 44  1  0
 39 40  1  0
 40 43  1  1
 40 41  1  0
 42 40  1  0
 44 47  1  0
 45 49  1  0
 45 44  1  0
 46 45  2  0
 49 48  1  0
 51 49  1  0
 51 52  1  0
 51 50  1  0
 53 56  1  0
 53  2  1  0
 55 56  1  0
 56 54  1  0
 58 66  1  0
 59 64  1  0
 60 61  1  0
 60 59  1  0
 62 61  1  0
 62 71  1  0
 62 63  1  0
 64 58  1  0
 64 63  1  0
 65 58  2  0
 66 67  1  0
 66 57  1  0
 68 69  2  0
 69 88  1  0
 70 69  1  0
 70 73  1  0
 71 72  1  0
 71 68  1  0
 72 70  2  0
 73 74  1  0
 74 75  2  0
 76 79  1  0
 76 75  1  0
 77 76  2  0
 78 77  1  0
 78 73  2  0
 79 80  1  0
 80 81  1  0
 81 82  2  0
 83 82  1  0
 83 87  1  0
 84 83  2  0
 85 80  2  0
 85 84  1  0
 86 85  1  0
 88 89  1  0
 89 92  1  0
 89 91  1  0
 90 88  2  0
 93 94  1  0
 93 68  1  0
 95 93  1  0
M  ISO  4  11 101  12 101  58 100  66 100
M  END
>  <TORSDO>  (53) 
F 20

>  <SCORE>  (53) 
-13.670

>  <name>  (53) 
53

>  <ligand_id>  (53) 
53

>  <original_smiles>  (53) 
[H]c1c([H])c([H])c2c(c1[H])C([H])([H])C([H])([H])C([H])([H])C2([H])N([H])C(=O)C1([H])N(C(=O)C([H])(N([H])C(=O)C([H])(N([H])C([H])([H])[H])C([H])([H])[H])C(C([H])([H])[H])(C([H])([H])[H])C([H])([H])[H])C([H])([H])c2c([H])c(OC3([H])C([H])([H])C([H])([H])C([H])(c4sc(C([H])([H])N([H])C(=O)N5C([H])([H])C([H])([H])C([H])([H])C([H])(n6nc(-c7c([H])c([H])c(Oc8c([H])c([H])c(F)c([H])c8F)c([H])c7[H])c(C(=O)N([H])[H])c6N([H])[H])C5([H])[H])c([H])c4C([H])([H])C([H])(C([H])([H])[H])C([H])([H])[H])C([H])([H])C3([H])[H])c([H])c([H])c2C1([H])[H]

>  <smiles>  (53) 
[H]c1c([H])c([H])c2c(c1[H])C([H])([H])C([H])([H])C([H])([H])C2([H])N([H])C(=O)C1([H])N(C(=O)C([H])(N([H])C(=O)C([H])(N([H])C([H])([H])[H])C([H])([H])[H])C(C([H])([H])[H])(C([H])([H])[H])C([H])([H])[H])C([H])([H])c2c([H])c(OC3([H])C([H])([H])C([H])([H])C([H])(c4sc(C([H])([H])N([H])C(=O)N5C([H])([H])C([H])([H])C([H])([H])C([H])(n6nc(-c7c([H])c([H])c(Oc8c([H])c([H])c(F)c([H])c8F)c([H])c7[H])c(C(=O)N([H])[H])c6N([H])[H])C5([H])[H])c([H])c4C([H])([H])C([H])(C([H])([H])[H])C([H])([H])[H])C([H])([H])C3([H])[H])c([H])c([H])c2C1([H])[H]

$$$$
54:0:0
     RDKit          3D

 91 99  0  0  1  0  0  0  0  0999 V2000
  -27.7660  -23.7530   20.6260 C   0  0  0  0  0  3  0  0  0  0  0  0
  -29.9920  -23.8130   21.5380 C   0  0  0  0  0  3  0  0  0  0  0  0
  -28.8400  -24.5120   21.1280 C   0  0  0  0  0  0  0  0  0  0  0  0
  -27.8760  -22.3430   20.5790 C   0  0  0  0  0  0  0  0  0  0  0  0
  -29.0600  -21.7310   21.0560 C   0  0  0  0  0  0  0  0  0  0  0  0
  -26.7140  -21.5190   20.0460 C   0  0  0  0  0  1  0  0  0  0  0  0
  -30.1030  -22.4630   21.5020 N   0  0  0  0  0  0  0  0  0  0  0  0
  -28.7340  -26.0290   21.3170 C   0  0  0  0  0  2  0  0  0  0  0  0
  -28.4110  -26.7460   20.1210 O   0  0  0  0  0  0  0  0  0  0  0  0
  -24.5960  -31.9360   23.2380 C   0  0  0  0  0  0  0  0  0  0  0  0
  -27.2620  -27.4990   20.1720 C   0  0  0  0  0  0  0  0  0  0  0  0
  -23.3990  -30.5310   21.5920 C   0  0  0  0  0  3  0  0  0  0  0  0
  -24.8640  -28.9920   20.1760 C   0  0  0  0  0  0  0  0  0  0  0  0
  -25.9240  -30.8940   21.4060 C   0  0  0  0  0  2  0  0  0  0  0  0
  -26.0160  -29.5190   20.7750 C   0  0  0  0  0  0  0  0  0  0  0  0
  -27.2200  -28.7760   20.7810 C   0  0  0  0  0  3  0  0  0  0  0  0
  -26.1000  -26.9890   19.5630 C   0  0  0  0  0  3  0  0  0  0  0  0
  -24.8980  -27.7230   19.5720 C   0  0  0  0  0  3  0  0  0  0  0  0
  -23.6180  -29.8480   20.2150 C   0  0  0  0  0  2  0  0  0  0  0  0
  -24.6580  -31.1340   22.1360 N   0  0  0  0  0  0  0  0  0  0  0  0
  -23.5130  -32.2050   23.7750 O   0  0  0  0  0  0  0  0  0  0  0  0
  -22.7470  -29.5060   22.5500 C   0  0  0  0  0  0  0  0  0  0  0  0
  -21.4240  -29.3240   22.4200 N   0  0  0  0  0  0  0  0  0  0  0  0
  -23.4290  -28.8790   23.3640 O   0  0  0  0  0  0  0  0  0  0  0  0
  -20.9330  -29.8840   21.7370 H   0  0  0  0  0  0  0  0  0  0  0  0
  -18.0470  -28.1330   22.9110 C   0  0  0  0  0  0  0  0  0  0  0  0
  -20.6050  -28.3840   23.1860 C   0  0  0  0  0  3  0  0  0  0  0  0
  -20.7040  -26.9550   22.6040 C   0  0  0  0  0  2  0  0  0  0  0  0
  -19.6010  -26.6380   21.5880 C   0  0  0  0  0  2  0  0  0  0  0  0
  -18.2200  -26.7850   22.2310 C   0  0  0  0  0  2  0  0  0  0  0  0
  -19.1670  -28.8910   23.3450 C   0  0  0  0  0  0  0  0  0  0  0  0
  -18.9510  -30.1550   23.9380 C   0  0  0  0  0  3  0  0  0  0  0  0
  -17.6470  -30.6580   24.1030 C   0  0  0  0  0  3  0  0  0  0  0  0
  -16.5420  -29.8970   23.6850 C   0  0  0  0  0  3  0  0  0  0  0  0
  -16.7430  -28.6370   23.0950 C   0  0  0  0  0  3  0  0  0  0  0  0
  -25.8800  -32.5690   23.8640 C   0  0  0  0  0  3  0  0  0  0  0  0
  -25.5760  -33.9720   24.1740 N   0  0  0  0  0  0  0  0  0  0  0  0
  -25.9280  -35.0130   23.4070 C   0  0  0  0  0  0  0  0  0  0  0  0
  -26.6130  -34.8930   22.3890 O   0  0  0  0  0  0  0  0  0  0  0  0
  -24.9760  -34.1390   24.9690 H   0  0  0  0  0  0  0  0  0  0  0  0
  -24.2220  -36.8120   22.9910 C   0  0  0  0  0  1  0  0  0  0  0  0
  -25.4380  -36.4080   23.8390 C   0  0  0  0  0  3  0  0  0  0  0  0
  -27.5590  -37.2830   24.7160 C   0  0  0  0  0  1  0  0  0  0  0  0
  -26.4810  -37.4530   23.7440 N   0  0  0  0  0  0  0  0  0  0  0  0
  -26.0800  -38.3770   23.8740 H   0  0  0  0  0  0  0  0  0  0  0  0
  -26.3830  -31.8090   25.1520 C   0  0  1  0  0  0  0  0  0  0  0  0
  -25.2800  -31.5880   26.2130 C   0  0  0  0  0  1  0  0  0  0  0  0
  -26.9640  -30.4250   24.7770 C   0  0  0  0  0  1  0  0  0  0  0  0
  -27.5310  -32.6050   25.8150 C   0  0  0  0  0  1  0  0  0  0  0  0
  -29.2200  -20.2060   21.1620 C   0  0  0  0  0  2  0  0  0  0  0  0
  -29.9400  -19.5420   19.9680 C   0  0  0  0  0  2  0  0  0  0  0  0
  -29.7730  -18.0000   19.8730 C   0  0  0  0  0  2  0  0  0  0  0  0
  -30.6080  -17.1530   20.8680 C   0  0  0  0  0  2  0  0  0  0  0  0
  -30.9040  -14.6640   20.4010 C   0  0  0  0  0  0  0  0  0  0  0  0
  -30.5730  -12.4550   19.3430 C   0  0  0  0  0  2  0  0  0  0  0  0
  -29.6900  -12.5910   18.0780 C   0  0  0  0  0  2  0  0  0  0  0  0
  -28.2090  -12.9310   18.3790 C   0  0  0  0  0  2  0  0  0  0  0  0
  -27.8760  -12.8420   19.8670 C   0  0  0  0  0  3  0  0  0  0  0  0
  -28.8800  -13.2910   20.9280 C   0  0  0  0  0  2  0  0  0  0  0  0
  -30.1970  -13.5090   20.3030 N   0  0  0  0  0  0  0  0  0  0  0  0
  -32.0490  -14.7830   19.9630 O   0  0  0  0  0  0  0  0  0  0  0  0
  -30.2140  -15.7320   20.8500 N   0  0  0  0  0  0  0  0  0  0  0  0
  -29.2780  -15.5290   21.1680 H   0  0  0  0  0  0  0  0  0  0  0  0
  -25.4760  -13.8590   20.4060 C   0  0  0  0  0  0  0  0  0  0  0  0
  -24.3530  -13.1570   20.7790 C   0  0  0  0  0  0  0  0  0  0  0  0
  -24.7400  -11.7860   20.7960 C   0  0  0  0  0  0  0  0  0  0  0  0
  -26.4710  -12.8880   20.2440 N   0  0  0  0  0  0  0  0  0  0  0  0
  -26.0040  -11.6620   20.5120 N   0  0  0  0  0  0  0  0  0  0  0  0
  -24.0110  -10.5450   20.9960 C   0  0  0  0  0  0  0  0  0  0  0  0
  -24.4610   -9.5860   21.9300 C   0  0  0  0  0  3  0  0  0  0  0  0
  -23.7510   -8.3830   22.1060 C   0  0  0  0  0  3  0  0  0  0  0  0
  -22.5840   -8.1380   21.3430 C   0  0  0  0  0  0  0  0  0  0  0  0
  -22.1650   -9.0840   20.3910 C   0  0  0  0  0  3  0  0  0  0  0  0
  -22.8750  -10.2800   20.2150 C   0  0  0  0  0  3  0  0  0  0  0  0
  -21.8350   -6.9940   21.4370 O   0  0  0  0  0  0  0  0  0  0  0  0
  -21.7850   -6.2660   22.5950 C   0  0  0  0  0  0  0  0  0  0  0  0
  -21.3520   -6.8320   23.8150 C   0  0  0  0  0  3  0  0  0  0  0  0
  -21.2500   -6.0250   24.9650 C   0  0  0  0  0  3  0  0  0  0  0  0
  -21.5670   -4.6550   24.8940 C   0  0  0  0  0  0  0  0  0  0  0  0
  -21.9950   -4.0920   23.6790 C   0  0  0  0  0  3  0  0  0  0  0  0
  -22.1020   -4.8940   22.5320 C   0  0  0  0  0  0  0  0  0  0  0  0
  -22.4910   -4.3450   21.3570 F   0  0  0  0  0  0  0  0  0  0  0  0
  -21.4590   -3.8760   25.9960 F   0  0  0  0  0  0  0  0  0  0  0  0
  -22.9680  -13.6790   21.0320 C   0  0  0  0  0  0  0  0  0  0  0  0
  -22.2140  -13.0090   21.8990 N   0  0  0  0  0  0  0  0  0  0  0  0
  -22.5570  -14.7030   20.4890 O   0  0  0  0  0  0  0  0  0  0  0  0
  -22.5520  -12.1740   22.3570 H   0  0  0  0  0  0  0  0  0  0  0  0
  -21.2820  -13.3370   22.1130 H   0  0  0  0  0  0  0  0  0  0  0  0
  -25.7150  -15.2140   20.1900 N   0  0  0  0  0  0  0  0  0  0  0  0
  -26.5900  -15.5810   19.8390 H   0  0  0  0  0  0  0  0  0  0  0  0
  -24.9780  -15.9080   20.2410 H   0  0  0  0  0  0  0  0  0  0  0  0
  1  3  1  0
  3  8  1  0
  3  2  2  0
  4  1  2  0
  4  5  1  0
  5 50  1  0
  5  7  2  0
  6  4  1  0
  7  2  1  0
  9 11  1  0
  9  8  1  0
 10 21  2  0
 11 16  1  0
 12 20  1  0
 12 22  1  0
 13 19  1  0
 13 15  1  0
 14 20  1  0
 15 16  2  0
 15 14  1  0
 17 18  1  0
 17 11  2  0
 18 13  2  0
 19 12  1  0
 20 10  1  0
 22 24  2  0
 23 22  1  0
 25 23  1  0
 26 35  2  0
 26 31  1  0
 27 23  1  0
 27 31  1  0
 28 27  1  0
 29 30  1  0
 29 28  1  0
 30 26  1  0
 31 32  2  0
 32 33  1  0
 34 33  2  0
 35 34  1  0
 36 10  1  0
 36 37  1  0
 36 46  1  0
 37 40  1  0
 38 42  1  0
 38 37  1  0
 39 38  2  0
 42 41  1  0
 44 42  1  0
 44 45  1  0
 44 43  1  0
 46 49  1  1
 46 47  1  0
 48 46  1  0
 51 50  1  0
 52 51  1  0
 52 53  1  0
 54 62  1  0
 55 60  1  0
 56 57  1  0
 56 55  1  0
 58 57  1  0
 58 67  1  0
 58 59  1  0
 60 54  1  0
 60 59  1  0
 61 54  2  0
 62 53  1  0
 62 63  1  0
 64 65  2  0
 65 66  1  0
 65 84  1  0
 66 69  1  0
 67 64  1  0
 67 68  1  0
 68 66  2  0
 69 70  1  0
 70 71  2  0
 72 75  1  0
 72 71  1  0
 73 72  2  0
 74 73  1  0
 74 69  2  0
 75 76  1  0
 76 77  1  0
 77 78  2  0
 79 78  1  0
 79 83  1  0
 80 79  2  0
 81 76  2  0
 81 80  1  0
 82 81  1  0
 84 85  1  0
 85 88  1  0
 85 87  1  0
 86 84  2  0
 89 91  1  0
 89 64  1  0
 90 89  1  0
M  ISO  4   8 101   9 101  54 100  62 100
M  END
>  <TORSDO>  (54) 
F 21

>  <SCORE>  (54) 
-12.991

>  <name>  (54) 
54

>  <ligand_id>  (54) 
54

>  <original_smiles>  (54) 
[H]c1nc(C([H])([H])C([H])([H])C([H])([H])C([H])([H])N([H])C(=O)N2C([H])([H])C([H])([H])C([H])([H])C([H])(n3nc(-c4c([H])c([H])c(Oc5c([H])c([H])c(F)c([H])c5F)c([H])c4[H])c(C(=O)N([H])[H])c3N([H])[H])C2([H])[H])c(C([H])([H])[H])c([H])c1C([H])([H])Oc1c([H])c([H])c2c(c1[H])C([H])([H])N(C(=O)C([H])(N([H])C(=O)C([H])(N([H])C([H])([H])[H])C([H])([H])[H])C(C([H])([H])[H])(C([H])([H])[H])C([H])([H])[H])C([H])(C(=O)N([H])C1([H])c3c([H])c([H])c([H])c([H])c3C([H])([H])C([H])([H])C1([H])[H])C2([H])[H]

>  <smiles>  (54) 
[H]c1nc(C([H])([H])C([H])([H])C([H])([H])C([H])([H])N([H])C(=O)N2C([H])([H])C([H])([H])C([H])([H])C([H])(n3nc(-c4c([H])c([H])c(Oc5c([H])c([H])c(F)c([H])c5F)c([H])c4[H])c(C(=O)N([H])[H])c3N([H])[H])C2([H])[H])c(C([H])([H])[H])c([H])c1C([H])([H])Oc1c([H])c([H])c2c(c1[H])C([H])([H])N(C(=O)C([H])(N([H])C(=O)C([H])(N([H])C([H])([H])[H])C([H])([H])[H])C(C([H])([H])[H])(C([H])([H])[H])C([H])([H])[H])C([H])(C(=O)N([H])C1([H])c3c([H])c([H])c([H])c([H])c3C([H])([H])C([H])([H])C1([H])[H])C2([H])[H]

$$$$
55:0:0
     RDKit          3D

 96106  0  0  1  0  0  0  0  0999 V2000
  -28.6460  -23.3570   18.4700 C   0  0  0  0  0  0  0  0  0  0  0  0
  -28.9700  -22.1160   17.8780 C   0  0  0  0  0  0  0  0  0  0  0  0
  -28.5260  -23.4140   19.8820 C   0  0  0  0  0  0  0  0  0  0  0  0
  -29.0600  -21.0030   19.9030 C   0  0  0  0  0  0  0  0  0  0  0  0
  -28.4220  -24.5590   17.5560 C   0  0  0  0  0  2  0  0  0  0  0  0
  -29.1470  -21.9670   16.3740 C   0  0  0  0  0  2  0  0  0  0  0  0
  -30.3530  -22.7570   15.8410 C   0  0  0  0  0  2  0  0  0  0  0  0
  -30.0640  -24.2510   15.6090 C   0  0  0  0  0  2  0  0  0  0  0  0
  -29.7200  -25.0500   16.8830 C   0  0  0  0  0  3  0  0  0  0  0  0
  -29.6130  -26.5470   16.5540 C   0  0  0  0  0  1  0  0  0  0  0  0
  -29.1770  -20.9900   18.5850 N   0  0  0  0  0  0  0  0  0  0  0  0
  -28.7410  -22.1860   20.5630 N   0  0  0  0  0  0  0  0  0  0  0  0
  -30.6880  -14.9280   20.3600 C   0  0  0  0  0  0  0  0  0  0  0  0
  -30.4230  -12.6140   19.3830 C   0  0  0  0  0  2  0  0  0  0  0  0
  -29.5080  -12.5750   18.1430 C   0  0  0  0  0  2  0  0  0  0  0  0
  -28.0480  -12.3650   18.5740 C   0  0  0  0  0  2  0  0  0  0  0  0
  -27.6370  -13.3000   19.7400 C   0  0  0  0  0  3  0  0  0  0  0  0
  -28.6900  -13.3580   20.8710 C   0  0  0  0  0  2  0  0  0  0  0  0
  -29.9630  -13.7430   20.2480 N   0  0  0  0  0  0  0  0  0  0  0  0
  -31.8980  -14.8240   20.1250 O   0  0  0  0  0  0  0  0  0  0  0  0
  -28.4160  -18.3050   20.2120 C   0  0  0  0  0  2  0  0  0  0  0  0
  -30.7480  -18.8800   20.2180 C   0  0  0  0  0  2  0  0  0  0  0  0
  -28.7720  -16.8010   20.7190 C   0  0  0  0  0  2  0  0  0  0  0  0
  -31.0810  -17.4240   20.7950 C   0  0  0  0  0  2  0  0  0  0  0  0
  -29.3640  -19.5310   20.5690 C   0  0  0  0  0  3  0  0  0  0  0  0
  -30.1590  -16.2550   20.5230 N   0  0  0  0  0  0  0  0  0  0  0  0
  -25.2550  -13.8800   20.4670 C   0  0  0  0  0  0  0  0  0  0  0  0
  -24.1910  -13.1050   20.8320 C   0  0  0  0  0  0  0  0  0  0  0  0
  -24.6600  -11.7550   20.8150 C   0  0  0  0  0  0  0  0  0  0  0  0
  -26.3020  -13.0030   20.2400 N   0  0  0  0  0  0  0  0  0  0  0  0
  -25.9540  -11.7200   20.5190 N   0  0  0  0  0  0  0  0  0  0  0  0
  -23.9360  -10.4920   21.0030 C   0  0  0  0  0  0  0  0  0  0  0  0
  -24.3520   -9.5360   21.9550 C   0  0  0  0  0  3  0  0  0  0  0  0
  -23.6260   -8.3390   22.1310 C   0  0  0  0  0  3  0  0  0  0  0  0
  -22.4690   -8.0900   21.3550 C   0  0  0  0  0  0  0  0  0  0  0  0
  -22.0730   -9.0340   20.3910 C   0  0  0  0  0  3  0  0  0  0  0  0
  -22.8000  -10.2220   20.2130 C   0  0  0  0  0  3  0  0  0  0  0  0
  -21.7150   -6.9430   21.4400 O   0  0  0  0  0  0  0  0  0  0  0  0
  -21.6330   -6.2210   22.6030 C   0  0  0  0  0  0  0  0  0  0  0  0
  -21.1460   -6.7900   23.8010 C   0  0  0  0  0  3  0  0  0  0  0  0
  -21.0140   -5.9930   24.9550 C   0  0  0  0  0  3  0  0  0  0  0  0
  -21.3580   -4.6280   24.9120 C   0  0  0  0  0  0  0  0  0  0  0  0
  -21.8370   -4.0580   23.7200 C   0  0  0  0  0  3  0  0  0  0  0  0
  -21.9710   -4.8530   22.5680 C   0  0  0  0  0  0  0  0  0  0  0  0
  -22.4130   -4.2950   21.4150 F   0  0  0  0  0  0  0  0  0  0  0  0
  -21.2240   -3.8610   26.0190 F   0  0  0  0  0  0  0  0  0  0  0  0
  -22.7900  -13.5810   21.0830 C   0  0  0  0  0  0  0  0  0  0  0  0
  -22.0550  -12.8890   21.9470 N   0  0  0  0  0  0  0  0  0  0  0  0
  -22.3570  -14.6010   20.5490 O   0  0  0  0  0  0  0  0  0  0  0  0
  -22.4190  -12.0650   22.4000 H   0  0  0  0  0  0  0  0  0  0  0  0
  -21.1130  -13.1890   22.1590 H   0  0  0  0  0  0  0  0  0  0  0  0
  -25.4120  -15.2490   20.2780 N   0  0  0  0  0  0  0  0  0  0  0  0
  -24.6390  -15.8960   20.3770 H   0  0  0  0  0  0  0  0  0  0  0  0
  -26.2550  -15.6880   19.9340 H   0  0  0  0  0  0  0  0  0  0  0  0
  -27.9860  -24.7670   20.6440 C   0  0  0  0  0  2  0  0  0  0  0  0
  -28.2530  -26.2390   20.2520 O   0  0  0  0  0  0  0  0  0  0  0  0
  -24.5820  -31.8660   23.2480 C   0  0  0  0  0  0  0  0  0  0  0  0
  -27.1840  -27.1920   20.2340 C   0  0  0  0  0  0  0  0  0  0  0  0
  -23.3940  -30.4710   21.5990 C   0  0  0  0  0  3  0  0  0  0  0  0
  -24.8520  -28.9040   20.1850 C   0  0  0  0  0  0  0  0  0  0  0  0
  -25.9460  -30.7520   21.4460 C   0  0  0  0  0  2  0  0  0  0  0  0
  -26.0260  -29.3640   20.7970 C   0  0  0  0  0  0  0  0  0  0  0  0
  -27.1990  -28.5250   20.7990 C   0  0  0  0  0  3  0  0  0  0  0  0
  -25.9830  -26.8200   19.5950 C   0  0  0  0  0  3  0  0  0  0  0  0
  -24.8410  -27.6450   19.5680 C   0  0  0  0  0  3  0  0  0  0  0  0
  -23.6220  -29.7960   20.2220 C   0  0  0  0  0  2  0  0  0  0  0  0
  -24.6610  -31.0510   22.1530 N   0  0  0  0  0  0  0  0  0  0  0  0
  -23.4940  -32.1460   23.7720 O   0  0  0  0  0  0  0  0  0  0  0  0
  -22.7130  -29.4600   22.5550 C   0  0  0  0  0  0  0  0  0  0  0  0
  -21.3860  -29.2890   22.4190 N   0  0  0  0  0  0  0  0  0  0  0  0
  -23.3800  -28.8330   23.3820 O   0  0  0  0  0  0  0  0  0  0  0  0
  -20.9050  -29.8440   21.7250 H   0  0  0  0  0  0  0  0  0  0  0  0
  -18.0010  -28.0970   22.9030 C   0  0  0  0  0  0  0  0  0  0  0  0
  -20.5580  -28.3520   23.1830 C   0  0  0  0  0  3  0  0  0  0  0  0
  -20.6600  -26.9220   22.6050 C   0  0  0  0  0  2  0  0  0  0  0  0
  -19.5620  -26.6030   21.5850 C   0  0  0  0  0  2  0  0  0  0  0  0
  -18.1780  -26.7490   22.2220 C   0  0  0  0  0  2  0  0  0  0  0  0
  -19.1190  -28.8570   23.3390 C   0  0  0  0  0  0  0  0  0  0  0  0
  -18.8990  -30.1160   23.9370 C   0  0  0  0  0  3  0  0  0  0  0  0
  -17.5940  -30.6180   24.1000 C   0  0  0  0  0  3  0  0  0  0  0  0
  -16.4900  -29.8570   23.6770 C   0  0  0  0  0  3  0  0  0  0  0  0
  -16.6940  -28.5980   23.0860 C   0  0  0  0  0  3  0  0  0  0  0  0
  -25.8560  -32.5000   23.8850 C   0  0  0  0  0  3  0  0  0  0  0  0
  -25.5490  -33.9060   24.1930 N   0  0  0  0  0  0  0  0  0  0  0  0
  -25.9030  -34.9500   23.4310 C   0  0  0  0  0  0  0  0  0  0  0  0
  -26.5900  -34.8320   22.4130 O   0  0  0  0  0  0  0  0  0  0  0  0
  -24.9420  -34.0710   24.9820 H   0  0  0  0  0  0  0  0  0  0  0  0
  -24.2070  -36.7640   23.0200 C   0  0  0  0  0  1  0  0  0  0  0  0
  -25.4210  -36.3470   23.8670 C   0  0  0  0  0  3  0  0  0  0  0  0
  -27.5410  -37.2160   24.7530 C   0  0  0  0  0  1  0  0  0  0  0  0
  -26.4680  -37.3880   23.7760 N   0  0  0  0  0  0  0  0  0  0  0  0
  -26.0690  -38.3150   23.9020 H   0  0  0  0  0  0  0  0  0  0  0  0
  -26.3420  -31.7460   25.1840 C   0  0  1  0  0  0  0  0  0  0  0  0
  -25.2270  -31.5340   26.2350 C   0  0  0  0  0  1  0  0  0  0  0  0
  -26.9220  -30.3580   24.8280 C   0  0  0  0  0  1  0  0  0  0  0  0
  -27.4860  -32.5430   25.8540 C   0  0  0  0  0  1  0  0  0  0  0  0
  1  3  1  0
  2  1  2  0
  2 11  1  0
  3 12  2  0
  3 55  1  0
  4 12  1  0
  5  1  1  0
  6  2  1  0
  7  6  1  0
  8  7  1  0
  8  9  1  0
  9 10  1  0
  9  5  1  0
 11  4  2  0
 13 26  1  0
 14 19  1  0
 15 16  1  0
 15 14  1  0
 17 16  1  0
 17 30  1  0
 17 18  1  0
 19 13  1  0
 19 18  1  0
 20 13  2  0
 21 25  1  0
 21 23  1  0
 22 25  1  0
 22 24  1  0
 25  4  1  0
 26 23  1  0
 26 24  1  0
 27 28  2  0
 28 47  1  0
 29 28  1  0
 29 32  1  0
 30 27  1  0
 30 31  1  0
 31 29  2  0
 32 33  1  0
 33 34  2  0
 35 38  1  0
 35 34  1  0
 36 35  2  0
 37 36  1  0
 37 32  2  0
 38 39  1  0
 39 40  1  0
 40 41  2  0
 42 41  1  0
 42 46  1  0
 43 42  2  0
 44 39  2  0
 44 43  1  0
 45 44  1  0
 47 48  1  0
 48 51  1  0
 48 50  1  0
 49 47  2  0
 52 53  1  0
 52 27  1  0
 54 52  1  0
 56 55  1  0
 57 68  2  0
 58 56  1  0
 58 63  1  0
 59 67  1  0
 59 69  1  0
 60 66  1  0
 60 62  1  0
 61 67  1  0
 62 63  2  0
 62 61  1  0
 64 58  2  0
 65 64  1  0
 65 60  2  0
 66 59  1  0
 67 57  1  0
 69 71  2  0
 70 69  1  0
 72 70  1  0
 73 82  2  0
 73 78  1  0
 74 70  1  0
 74 78  1  0
 75 74  1  0
 76 77  1  0
 76 75  1  0
 77 73  1  0
 78 79  2  0
 79 80  1  0
 81 80  2  0
 82 81  1  0
 83 57  1  0
 83 84  1  0
 83 93  1  0
 84 87  1  0
 85 89  1  0
 85 84  1  0
 86 85  2  0
 89 88  1  0
 91 89  1  0
 91 92  1  0
 91 90  1  0
 93 96  1  1
 93 94  1  0
 95 93  1  0
M  ISO  4  13 100  26 100  55 101  56 101
M  END
>  <TORSDO>  (55) 
F 17

>  <SCORE>  (55) 
-15.167

>  <name>  (55) 
55

>  <ligand_id>  (55) 
55

>  <original_smiles>  (55) 
[H]c1c([H])c([H])c2c(c1[H])C([H])([H])C([H])([H])C([H])([H])C2([H])N([H])C(=O)C1([H])N(C(=O)C([H])(N([H])C(=O)C([H])(N([H])C([H])([H])[H])C([H])([H])[H])C(C([H])([H])[H])(C([H])([H])[H])C([H])([H])[H])C([H])([H])c2c([H])c(OC([H])([H])c3nc(C4([H])C([H])([H])C([H])([H])N(C(=O)N5C([H])([H])C([H])([H])C([H])([H])C([H])(n6nc(-c7c([H])c([H])c(Oc8c([H])c([H])c(F)c([H])c8F)c([H])c7[H])c(C(=O)N([H])[H])c6N([H])[H])C5([H])[H])C([H])([H])C4([H])[H])nc4c3C([H])([H])C([H])(C([H])([H])[H])C([H])([H])C([H])([H])C4([H])[H])c([H])c([H])c2C1([H])[H]

>  <smiles>  (55) 
[H]c1c([H])c([H])c2c(c1[H])C([H])([H])C([H])([H])C([H])([H])C2([H])N([H])C(=O)C1([H])N(C(=O)C([H])(N([H])C(=O)C([H])(N([H])C([H])([H])[H])C([H])([H])[H])C(C([H])([H])[H])(C([H])([H])[H])C([H])([H])[H])C([H])([H])c2c([H])c(OC([H])([H])c3nc(C4([H])C([H])([H])C([H])([H])N(C(=O)N5C([H])([H])C([H])([H])C([H])([H])C([H])(n6nc(-c7c([H])c([H])c(Oc8c([H])c([H])c(F)c([H])c8F)c([H])c7[H])c(C(=O)N([H])[H])c6N([H])[H])C5([H])[H])C([H])([H])C4([H])[H])nc4c3C([H])([H])C([H])(C([H])([H])[H])C([H])([H])C([H])([H])C4([H])[H])c([H])c([H])c2C1([H])[H]

$$$$
56:0:0
     RDKit          3D

 95103  0  0  1  0  0  0  0  0999 V2000
  -30.4850  -24.6620   19.6700 C   0  0  0  0  0  3  0  0  0  0  0  0
  -29.1420  -23.9320   17.7910 C   0  0  0  0  0  3  0  0  0  0  0  0
  -29.4600  -24.9160   18.7440 C   0  0  0  0  0  0  0  0  0  0  0  0
  -31.2350  -23.4670   19.6010 C   0  0  0  0  0  0  0  0  0  0  0  0
  -29.8750  -22.7290   17.6900 C   0  0  0  0  0  0  0  0  0  0  0  0
  -30.9750  -22.5180   18.5690 C   0  0  0  0  0  0  0  0  0  0  0  0
  -31.8890  -21.3110   18.3810 C   0  0  0  0  0  1  0  0  0  0  0  0
  -32.0570  -21.9990   21.5090 C   0  0  0  0  0  1  0  0  0  0  0  0
  -32.3170  -23.2490   20.6550 C   0  0  0  0  0  2  0  0  0  0  0  0
  -29.4910  -21.7990   16.5290 C   0  0  0  0  0  2  0  0  0  0  0  0
  -29.4600  -20.2610   16.7090 C   0  0  0  0  0  2  0  0  0  0  0  0
  -28.8560  -19.6990   18.0120 C   0  0  0  0  0  2  0  0  0  0  0  0
  -28.7090  -18.1680   17.9260 C   0  0  0  0  0  2  0  0  0  0  0  0
  -28.3960  -17.4520   19.2520 C   0  0  0  0  0  2  0  0  0  0  0  0
  -29.6280  -17.1240   20.1380 C   0  0  0  0  0  2  0  0  0  0  0  0
  -30.3090  -14.7400   19.9430 C   0  0  0  0  0  0  0  0  0  0  0  0
  -30.0510  -12.5270   18.8910 C   0  0  0  0  0  2  0  0  0  0  0  0
  -29.0250  -12.6630   17.7450 C   0  0  0  0  0  2  0  0  0  0  0  0
  -27.5940  -12.4640   18.2760 C   0  0  0  0  0  2  0  0  0  0  0  0
  -27.2990  -13.3180   19.5400 C   0  0  0  0  0  3  0  0  0  0  0  0
  -28.4370  -13.1760   20.5790 C   0  0  0  0  0  2  0  0  0  0  0  0
  -29.7090  -13.5240   19.9180 N   0  0  0  0  0  0  0  0  0  0  0  0
  -31.3500  -14.9950   19.3260 O   0  0  0  0  0  0  0  0  0  0  0  0
  -29.6020  -15.7110   20.5380 N   0  0  0  0  0  0  0  0  0  0  0  0
  -28.8160  -15.4070   21.0940 H   0  0  0  0  0  0  0  0  0  0  0  0
  -24.9300  -13.8210   20.4180 C   0  0  0  0  0  0  0  0  0  0  0  0
  -23.9290  -13.0000   20.8570 C   0  0  0  0  0  0  0  0  0  0  0  0
  -24.4450  -11.6720   20.7830 C   0  0  0  0  0  0  0  0  0  0  0  0
  -25.9970  -12.9880   20.1120 N   0  0  0  0  0  0  0  0  0  0  0  0
  -25.7090  -11.6900   20.3820 N   0  0  0  0  0  0  0  0  0  0  0  0
  -23.7920  -10.3770   21.0170 C   0  0  0  0  0  0  0  0  0  0  0  0
  -24.2740   -9.4710   21.9880 C   0  0  0  0  0  3  0  0  0  0  0  0
  -23.6150   -8.2410   22.2110 C   0  0  0  0  0  3  0  0  0  0  0  0
  -22.4640   -7.9070   21.4590 C   0  0  0  0  0  0  0  0  0  0  0  0
  -22.0070   -8.8000   20.4730 C   0  0  0  0  0  3  0  0  0  0  0  0
  -22.6650  -10.0200   20.2490 C   0  0  0  0  0  3  0  0  0  0  0  0
  -21.7740   -6.7250   21.5850 O   0  0  0  0  0  0  0  0  0  0  0  0
  -21.6960   -6.0660   22.7860 C   0  0  0  0  0  0  0  0  0  0  0  0
  -21.1010   -6.6550   23.9220 C   0  0  0  0  0  3  0  0  0  0  0  0
  -20.9750   -5.9150   25.1150 C   0  0  0  0  0  3  0  0  0  0  0  0
  -21.4350   -4.5860   25.1700 C   0  0  0  0  0  0  0  0  0  0  0  0
  -22.0280   -3.9960   24.0390 C   0  0  0  0  0  3  0  0  0  0  0  0
  -22.1540   -4.7340   22.8480 C   0  0  0  0  0  0  0  0  0  0  0  0
  -22.7010   -4.1550   21.7520 F   0  0  0  0  0  0  0  0  0  0  0  0
  -21.3110   -3.8700   26.3130 F   0  0  0  0  0  0  0  0  0  0  0  0
  -22.5360  -13.4090   21.2380 C   0  0  0  0  0  0  0  0  0  0  0  0
  -21.9140  -12.6670   22.1480 N   0  0  0  0  0  0  0  0  0  0  0  0
  -22.0110  -14.4160   20.7670 O   0  0  0  0  0  0  0  0  0  0  0  0
  -22.3640  -11.8580   22.5500 H   0  0  0  0  0  0  0  0  0  0  0  0
  -20.9780  -12.9060   22.4460 H   0  0  0  0  0  0  0  0  0  0  0  0
  -25.0110  -15.1990   20.2400 N   0  0  0  0  0  0  0  0  0  0  0  0
  -24.2130  -15.8060   20.4050 H   0  0  0  0  0  0  0  0  0  0  0  0
  -25.8050  -15.6900   19.8540 H   0  0  0  0  0  0  0  0  0  0  0  0
  -28.7430  -26.2590   18.6840 C   0  0  0  0  0  2  0  0  0  0  0  0
  -28.3870  -26.8050   19.9590 O   0  0  0  0  0  0  0  0  0  0  0  0
  -24.6090  -31.8340   23.3000 C   0  0  0  0  0  0  0  0  0  0  0  0
  -27.1990  -27.5050   20.0220 C   0  0  0  0  0  0  0  0  0  0  0  0
  -23.3620  -30.4460   21.6790 C   0  0  0  0  0  3  0  0  0  0  0  0
  -24.7810  -28.9640   20.1710 C   0  0  0  0  0  0  0  0  0  0  0  0
  -25.8740  -30.8470   21.3960 C   0  0  0  0  0  2  0  0  0  0  0  0
  -25.9540  -29.4940   20.7230 C   0  0  0  0  0  0  0  0  0  0  0  0
  -27.1630  -28.7660   20.6560 C   0  0  0  0  0  3  0  0  0  0  0  0
  -25.9940  -26.9730   19.5030 C   0  0  0  0  0  3  0  0  0  0  0  0
  -24.7940  -27.6980   19.5640 C   0  0  0  0  0  3  0  0  0  0  0  0
  -23.5260  -29.7980   20.2800 C   0  0  0  0  0  2  0  0  0  0  0  0
  -24.6350  -31.0560   22.1810 N   0  0  0  0  0  0  0  0  0  0  0  0
  -23.5440  -32.0790   23.8860 O   0  0  0  0  0  0  0  0  0  0  0  0
  -22.7650  -29.3950   22.6400 C   0  0  0  0  0  0  0  0  0  0  0  0
  -21.4660  -29.1030   22.4720 N   0  0  0  0  0  0  0  0  0  0  0  0
  -23.4690  -28.8420   23.4900 O   0  0  0  0  0  0  0  0  0  0  0  0
  -20.9580  -29.6010   21.7540 H   0  0  0  0  0  0  0  0  0  0  0  0
  -18.2200  -27.5470   22.7820 C   0  0  0  0  0  0  0  0  0  0  0  0
  -20.6980  -28.1210   23.2370 C   0  0  0  0  0  3  0  0  0  0  0  0
  -21.0140  -26.6830   22.7640 C   0  0  0  0  0  2  0  0  0  0  0  0
  -20.0460  -26.1750   21.6920 C   0  0  0  0  0  2  0  0  0  0  0  0
  -18.6070  -26.1920   22.2140 C   0  0  0  0  0  2  0  0  0  0  0  0
  -19.2040  -28.4590   23.2480 C   0  0  0  0  0  0  0  0  0  0  0  0
  -18.7950  -29.7210   23.7310 C   0  0  0  0  0  3  0  0  0  0  0  0
  -17.4330  -30.0730   23.7600 C   0  0  0  0  0  3  0  0  0  0  0  0
  -16.4610  -29.1610   23.3140 C   0  0  0  0  0  3  0  0  0  0  0  0
  -16.8550  -27.9000   22.8310 C   0  0  0  0  0  3  0  0  0  0  0  0
  -25.9080  -32.4700   23.8840 C   0  0  0  0  0  3  0  0  0  0  0  0
  -25.6170  -33.8800   24.1740 N   0  0  0  0  0  0  0  0  0  0  0  0
  -25.8940  -34.8990   23.3500 C   0  0  0  0  0  0  0  0  0  0  0  0
  -26.4960  -34.7530   22.2830 O   0  0  0  0  0  0  0  0  0  0  0  0
  -25.0760  -34.0680   25.0050 H   0  0  0  0  0  0  0  0  0  0  0  0
  -24.1170  -36.6530   23.0560 C   0  0  0  0  0  1  0  0  0  0  0  0
  -25.4280  -36.3040   23.7780 C   0  0  0  0  0  3  0  0  0  0  0  0
  -27.6050  -37.2580   24.3910 C   0  0  0  0  0  1  0  0  0  0  0  0
  -26.4320  -37.3590   23.5260 N   0  0  0  0  0  0  0  0  0  0  0  0
  -26.0260  -38.2820   23.6510 H   0  0  0  0  0  0  0  0  0  0  0  0
  -26.4380  -31.7320   25.1740 C   0  0  1  0  0  0  0  0  0  0  0  0
  -25.3560  -31.5270   26.2590 C   0  0  0  0  0  1  0  0  0  0  0  0
  -27.0100  -30.3420   24.8100 C   0  0  0  0  0  1  0  0  0  0  0  0
  -27.5980  -32.5410   25.8000 C   0  0  0  0  0  1  0  0  0  0  0  0
  2  3  1  0
  3  1  2  0
  4  1  1  0
  4  9  1  0
  5  2  2  0
  5  6  1  0
  6  4  2  0
  7  6  1  0
  9  8  1  0
 10 11  1  0
 10  5  1  0
 11 12  1  0
 13 12  1  0
 13 14  1  0
 14 15  1  0
 15 24  1  0
 16 24  1  0
 17 22  1  0
 18 19  1  0
 18 17  1  0
 20 19  1  0
 20 29  1  0
 20 21  1  0
 22 16  1  0
 22 21  1  0
 23 16  2  0
 24 25  1  0
 26 27  2  0
 27 46  1  0
 28 27  1  0
 28 31  1  0
 29 30  1  0
 29 26  1  0
 30 28  2  0
 31 32  1  0
 32 33  2  0
 34 37  1  0
 34 33  1  0
 35 34  2  0
 36 35  1  0
 36 31  2  0
 37 38  1  0
 38 43  2  0
 38 39  1  0
 39 40  2  0
 40 41  1  0
 41 45  1  0
 42 41  2  0
 43 42  1  0
 44 43  1  0
 46 47  1  0
 47 50  1  0
 47 49  1  0
 48 46  2  0
 51 52  1  0
 51 26  1  0
 53 51  1  0
 54  3  1  0
 54 55  1  0
 55 57  1  0
 56 67  2  0
 57 62  1  0
 58 66  1  0
 58 68  1  0
 59 65  1  0
 59 61  1  0
 60 66  1  0
 61 60  1  0
 62 61  2  0
 63 64  1  0
 63 57  2  0
 64 59  2  0
 65 58  1  0
 66 56  1  0
 68 70  2  0
 69 68  1  0
 71 69  1  0
 72 81  2  0
 72 77  1  0
 73 69  1  0
 73 77  1  0
 74 73  1  0
 75 76  1  0
 75 74  1  0
 76 72  1  0
 77 78  2  0
 78 79  1  0
 80 79  2  0
 81 80  1  0
 82 56  1  0
 82 83  1  0
 82 92  1  0
 83 86  1  0
 84 88  1  0
 84 83  1  0
 85 84  2  0
 88 87  1  0
 90 91  1  0
 90 88  1  0
 90 89  1  0
 92 95  1  1
 92 93  1  0
 94 92  1  0
M  ISO  4  16 100  24 100  54 101  55 101
M  END
>  <TORSDO>  (56) 
F 24

>  <SCORE>  (56) 
-11.510

>  <name>  (56) 
56

>  <ligand_id>  (56) 
56

>  <original_smiles>  (56) 
[H]c1c([H])c([H])c2c(c1[H])C([H])([H])C([H])([H])C([H])([H])C2([H])N([H])C(=O)C1([H])N(C(=O)C([H])(N([H])C(=O)C([H])(N([H])C([H])([H])[H])C([H])([H])[H])C(C([H])([H])[H])(C([H])([H])[H])C([H])([H])[H])C([H])([H])c2c([H])c(OC([H])([H])c3c([H])c(C([H])([H])C([H])([H])[H])c(C([H])([H])[H])c(C([H])([H])C([H])([H])C([H])([H])C([H])([H])C([H])([H])C([H])([H])N([H])C(=O)N4C([H])([H])C([H])([H])C([H])([H])C([H])(n5nc(-c6c([H])c([H])c(Oc7c([H])c([H])c(F)c([H])c7F)c([H])c6[H])c(C(=O)N([H])[H])c5N([H])[H])C4([H])[H])c3[H])c([H])c([H])c2C1([H])[H]

>  <smiles>  (56) 
[H]c1c([H])c([H])c2c(c1[H])C([H])([H])C([H])([H])C([H])([H])C2([H])N([H])C(=O)C1([H])N(C(=O)C([H])(N([H])C(=O)C([H])(N([H])C([H])([H])[H])C([H])([H])[H])C(C([H])([H])[H])(C([H])([H])[H])C([H])([H])[H])C([H])([H])c2c([H])c(OC([H])([H])c3c([H])c(C([H])([H])C([H])([H])[H])c(C([H])([H])[H])c(C([H])([H])C([H])([H])C([H])([H])C([H])([H])C([H])([H])C([H])([H])N([H])C(=O)N4C([H])([H])C([H])([H])C([H])([H])C([H])(n5nc(-c6c([H])c([H])c(Oc7c([H])c([H])c(F)c([H])c7F)c([H])c6[H])c(C(=O)N([H])[H])c5N([H])[H])C4([H])[H])c3[H])c([H])c([H])c2C1([H])[H]

$$$$
57:0:0
     RDKit          3D

 91 99  0  0  1  0  0  0  0  0999 V2000
  -29.8000  -22.0250   20.1790 C   0  0  0  0  0  3  0  0  0  0  0  0
  -27.5560  -22.8440   20.5080 C   0  0  0  0  0  3  0  0  0  0  0  0
  -28.9250  -23.1200   20.3840 C   0  0  0  0  0  0  0  0  0  0  0  0
  -29.2720  -20.7100   20.0370 C   0  0  0  0  0  0  0  0  0  0  0  0
  -27.8610  -20.5800   20.0700 C   0  0  0  0  0  0  0  0  0  0  0  0
  -27.1200  -19.2920   19.7560 C   0  0  0  0  0  1  0  0  0  0  0  0
  -27.0370  -21.6160   20.3380 N   0  0  0  0  0  0  0  0  0  0  0  0
  -29.3960  -24.5810   20.4630 C   0  0  0  0  0  2  0  0  0  0  0  0
  -28.6240  -25.5110   19.4910 C   0  0  0  0  0  2  0  0  0  0  0  0
  -28.7100  -26.9180   19.8190 O   0  0  0  0  0  0  0  0  0  0  0  0
  -24.5460  -31.6920   23.0960 C   0  0  0  0  0  0  0  0  0  0  0  0
  -27.5180  -27.6260   19.7850 C   0  0  0  0  0  0  0  0  0  0  0  0
  -23.4700  -30.3550   21.3180 C   0  0  0  0  0  3  0  0  0  0  0  0
  -25.0480  -29.0190   19.8270 C   0  0  0  0  0  0  0  0  0  0  0  0
  -25.9800  -30.8600   21.2320 C   0  0  0  0  0  2  0  0  0  0  0  0
  -26.1620  -29.5510   20.4890 C   0  0  0  0  0  0  0  0  0  0  0  0
  -27.4010  -28.8650   20.4600 C   0  0  0  0  0  3  0  0  0  0  0  0
  -26.3830  -27.1270   19.0990 C   0  0  0  0  0  3  0  0  0  0  0  0
  -25.1540  -27.8080   19.1280 C   0  0  0  0  0  3  0  0  0  0  0  0
  -23.7570  -29.8020   19.8990 C   0  0  0  0  0  2  0  0  0  0  0  0
  -24.6810  -30.9790   21.9420 N   0  0  0  0  0  0  0  0  0  0  0  0
  -23.4340  -31.8640   23.6170 O   0  0  0  0  0  0  0  0  0  0  0  0
  -22.8470  -29.2300   22.1760 C   0  0  0  0  0  0  0  0  0  0  0  0
  -21.5290  -29.0200   22.0260 N   0  0  0  0  0  0  0  0  0  0  0  0
  -23.5460  -28.5540   22.9350 O   0  0  0  0  0  0  0  0  0  0  0  0
  -21.0220  -29.6200   21.3910 H   0  0  0  0  0  0  0  0  0  0  0  0
  -18.1730  -27.7550   22.4720 C   0  0  0  0  0  0  0  0  0  0  0  0
  -20.7370  -27.9910   22.7010 C   0  0  0  0  0  3  0  0  0  0  0  0
  -20.8260  -26.6410   21.9500 C   0  0  0  0  0  2  0  0  0  0  0  0
  -19.6960  -26.4390   20.9360 C   0  0  0  0  0  2  0  0  0  0  0  0
  -18.3330  -26.4980   21.6340 C   0  0  0  0  0  2  0  0  0  0  0  0
  -19.3020  -28.4660   22.9590 C   0  0  0  0  0  0  0  0  0  0  0  0
  -19.0990  -29.6500   23.7010 C   0  0  0  0  0  3  0  0  0  0  0  0
  -17.7990  -30.1210   23.9620 C   0  0  0  0  0  3  0  0  0  0  0  0
  -16.6840  -29.4040   23.4940 C   0  0  0  0  0  3  0  0  0  0  0  0
  -16.8720  -28.2230   22.7540 C   0  0  0  0  0  3  0  0  0  0  0  0
  -25.7750  -32.3420   23.8040 C   0  0  0  0  0  3  0  0  0  0  0  0
  -25.4130  -33.7270   24.1350 N   0  0  0  0  0  0  0  0  0  0  0  0
  -25.7530  -34.7960   23.4040 C   0  0  0  0  0  0  0  0  0  0  0  0
  -26.4750  -34.7240   22.4050 O   0  0  0  0  0  0  0  0  0  0  0  0
  -24.7810  -33.8560   24.9110 H   0  0  0  0  0  0  0  0  0  0  0  0
  -23.9890  -36.5380   22.9920 C   0  0  0  0  0  1  0  0  0  0  0  0
  -25.2070  -36.1660   23.8510 C   0  0  0  0  0  3  0  0  0  0  0  0
  -27.2750  -37.1060   24.7810 C   0  0  0  0  0  1  0  0  0  0  0  0
  -26.2110  -37.2490   23.7910 N   0  0  0  0  0  0  0  0  0  0  0  0
  -25.7710  -38.1560   23.9260 H   0  0  0  0  0  0  0  0  0  0  0  0
  -26.2320  -31.5610   25.0960 C   0  0  1  0  0  0  0  0  0  0  0  0
  -25.0840  -31.2740   26.0940 C   0  0  0  0  0  1  0  0  0  0  0  0
  -26.8710  -30.2060   24.7140 C   0  0  0  0  0  1  0  0  0  0  0  0
  -27.3190  -32.3700   25.8420 C   0  0  0  0  0  1  0  0  0  0  0  0
  -30.2440  -19.5410   19.7500 C   0  0  0  0  0  2  0  0  0  0  0  0
  -30.2140  -18.2710   20.6580 C   0  0  0  0  0  2  0  0  0  0  0  0
  -31.1200  -17.1350   20.1070 C   0  0  0  0  0  2  0  0  0  0  0  0
  -31.3650  -14.6810   20.0150 C   0  0  0  0  0  0  0  0  0  0  0  0
  -30.9670  -12.4730   19.0080 C   0  0  0  0  0  2  0  0  0  0  0  0
  -30.0190  -12.6660   17.8080 C   0  0  0  0  0  2  0  0  0  0  0  0
  -28.5490  -12.5780   18.2620 C   0  0  0  0  0  2  0  0  0  0  0  0
  -28.2520  -13.4770   19.4930 C   0  0  0  0  0  3  0  0  0  0  0  0
  -29.3250  -13.3070   20.5960 C   0  0  0  0  0  2  0  0  0  0  0  0
  -30.6500  -13.5250   19.9900 N   0  0  0  0  0  0  0  0  0  0  0  0
  -32.4610  -14.8020   19.4630 O   0  0  0  0  0  0  0  0  0  0  0  0
  -30.7420  -15.7660   20.5090 N   0  0  0  0  0  0  0  0  0  0  0  0
  -29.8490  -15.6180   20.9530 H   0  0  0  0  0  0  0  0  0  0  0  0
  -25.8980  -14.1680   20.2920 C   0  0  0  0  0  0  0  0  0  0  0  0
  -24.8120  -13.4330   20.6870 C   0  0  0  0  0  0  0  0  0  0  0  0
  -25.2160  -12.0640   20.6170 C   0  0  0  0  0  0  0  0  0  0  0  0
  -26.9000  -13.2500   20.0100 N   0  0  0  0  0  0  0  0  0  0  0  0
  -26.4920  -11.9780   20.2600 N   0  0  0  0  0  0  0  0  0  0  0  0
  -24.4470  -10.8280   20.8080 C   0  0  0  0  0  0  0  0  0  0  0  0
  -24.8270   -9.8600   21.7660 C   0  0  0  0  0  3  0  0  0  0  0  0
  -24.0580   -8.6900   21.9450 C   0  0  0  0  0  3  0  0  0  0  0  0
  -22.8970   -8.4780   21.1640 C   0  0  0  0  0  0  0  0  0  0  0  0
  -22.5370   -9.4330   20.1970 C   0  0  0  0  0  3  0  0  0  0  0  0
  -23.3070  -10.5940   20.0150 C   0  0  0  0  0  3  0  0  0  0  0  0
  -22.1030   -7.3580   21.2520 O   0  0  0  0  0  0  0  0  0  0  0  0
  -21.9350   -6.6830   22.4350 C   0  0  0  0  0  0  0  0  0  0  0  0
  -21.4160   -7.3170   23.5860 C   0  0  0  0  0  3  0  0  0  0  0  0
  -21.1930   -6.5720   24.7620 C   0  0  0  0  0  3  0  0  0  0  0  0
  -21.4800   -5.1930   24.7870 C   0  0  0  0  0  0  0  0  0  0  0  0
  -21.9920   -4.5590   23.6400 C   0  0  0  0  0  3  0  0  0  0  0  0
  -22.2160   -5.3020   22.4690 C   0  0  0  0  0  0  0  0  0  0  0  0
  -22.6910   -4.6810   21.3610 F   0  0  0  0  0  0  0  0  0  0  0  0
  -21.2610   -4.4760   25.9130 F   0  0  0  0  0  0  0  0  0  0  0  0
  -23.4440  -13.9630   21.0160 C   0  0  0  0  0  0  0  0  0  0  0  0
  -22.7200  -13.2940   21.9060 N   0  0  0  0  0  0  0  0  0  0  0  0
  -23.0290  -15.0110   20.5210 O   0  0  0  0  0  0  0  0  0  0  0  0
  -23.0640  -12.4450   22.3310 H   0  0  0  0  0  0  0  0  0  0  0  0
  -21.8090  -13.6410   22.1720 H   0  0  0  0  0  0  0  0  0  0  0  0
  -26.1090  -15.5350   20.1310 N   0  0  0  0  0  0  0  0  0  0  0  0
  -25.3720  -16.2130   20.2820 H   0  0  0  0  0  0  0  0  0  0  0  0
  -26.9480  -15.9450   19.7420 H   0  0  0  0  0  0  0  0  0  0  0  0
  1  3  1  0
  3  8  1  0
  3  2  2  0
  4  5  1  0
  4  1  2  0
  5  7  2  0
  6  5  1  0
  7  2  1  0
  9 10  1  0
  9  8  1  0
 11 22  2  0
 12 10  1  0
 12 17  1  0
 13 21  1  0
 13 23  1  0
 14 20  1  0
 14 16  1  0
 15 21  1  0
 16 15  1  0
 17 16  2  0
 18 19  1  0
 18 12  2  0
 19 14  2  0
 20 13  1  0
 21 11  1  0
 23 25  2  0
 24 23  1  0
 26 24  1  0
 27 36  2  0
 27 32  1  0
 28 24  1  0
 28 32  1  0
 29 28  1  0
 30 31  1  0
 30 29  1  0
 31 27  1  0
 32 33  2  0
 33 34  1  0
 35 34  2  0
 36 35  1  0
 37 11  1  0
 37 38  1  0
 37 47  1  0
 38 41  1  0
 39 43  1  0
 39 38  1  0
 40 39  2  0
 43 42  1  0
 45 43  1  0
 45 46  1  0
 45 44  1  0
 47 50  1  1
 47 48  1  0
 49 47  1  0
 51  4  1  0
 51 52  1  0
 53 62  1  0
 53 52  1  0
 54 62  1  0
 55 60  1  0
 56 57  1  0
 56 55  1  0
 58 57  1  0
 58 67  1  0
 58 59  1  0
 60 54  1  0
 60 59  1  0
 61 54  2  0
 62 63  1  0
 64 65  2  0
 65 84  1  0
 66 65  1  0
 66 69  1  0
 67 68  1  0
 67 64  1  0
 68 66  2  0
 69 70  1  0
 70 71  2  0
 72 75  1  0
 72 71  1  0
 73 72  2  0
 74 73  1  0
 74 69  2  0
 75 76  1  0
 76 81  2  0
 76 77  1  0
 77 78  2  0
 78 79  1  0
 79 83  1  0
 80 79  2  0
 81 80  1  0
 82 81  1  0
 84 85  1  0
 85 88  1  0
 85 87  1  0
 86 84  2  0
 89 90  1  0
 89 64  1  0
 91 89  1  0
M  ISO  4   9 101  10 101  54 100  62 100
M  END
>  <TORSDO>  (57) 
F 21

>  <SCORE>  (57) 
-11.930

>  <name>  (57) 
57

>  <ligand_id>  (57) 
57

>  <original_smiles>  (57) 
[H]c1nc(C([H])([H])[H])c(C([H])([H])C([H])([H])C([H])([H])N([H])C(=O)N2C([H])([H])C([H])([H])C([H])([H])C([H])(n3nc(-c4c([H])c([H])c(Oc5c([H])c([H])c(F)c([H])c5F)c([H])c4[H])c(C(=O)N([H])[H])c3N([H])[H])C2([H])[H])c([H])c1C([H])([H])C([H])([H])Oc1c([H])c([H])c2c(c1[H])C([H])([H])N(C(=O)C([H])(N([H])C(=O)C([H])(N([H])C([H])([H])[H])C([H])([H])[H])C(C([H])([H])[H])(C([H])([H])[H])C([H])([H])[H])C([H])(C(=O)N([H])C1([H])c3c([H])c([H])c([H])c([H])c3C([H])([H])C([H])([H])C1([H])[H])C2([H])[H]

>  <smiles>  (57) 
[H]c1nc(C([H])([H])[H])c(C([H])([H])C([H])([H])C([H])([H])N([H])C(=O)N2C([H])([H])C([H])([H])C([H])([H])C([H])(n3nc(-c4c([H])c([H])c(Oc5c([H])c([H])c(F)c([H])c5F)c([H])c4[H])c(C(=O)N([H])[H])c3N([H])[H])C2([H])[H])c([H])c1C([H])([H])C([H])([H])Oc1c([H])c([H])c2c(c1[H])C([H])([H])N(C(=O)C([H])(N([H])C(=O)C([H])(N([H])C([H])([H])[H])C([H])([H])[H])C(C([H])([H])[H])(C([H])([H])[H])C([H])([H])[H])C([H])(C(=O)N([H])C1([H])c3c([H])c([H])c([H])c([H])c3C([H])([H])C([H])([H])C1([H])[H])C2([H])[H]

$$$$
58:0:0
     RDKit          3D

 95103  0  0  1  0  0  0  0  0999 V2000
  -30.8810  -23.1330   22.5900 C   0  0  0  0  0  3  0  0  0  0  0  0
  -30.1280  -23.7980   19.9770 C   0  0  0  0  0  3  0  0  0  0  0  0
  -31.5860  -22.5750   21.5050 C   0  0  0  0  0  0  0  0  0  0  0  0
  -29.7830  -23.9900   22.3820 C   0  0  0  0  0  0  0  0  0  0  0  0
  -31.2000  -22.9050   20.1810 C   0  0  0  0  0  0  0  0  0  0  0  0
  -29.3820  -24.3180   21.0630 C   0  0  0  0  0  0  0  0  0  0  0  0
  -32.7330  -21.6240   21.8000 C   0  0  0  0  0  1  0  0  0  0  0  0
  -29.0440  -24.5270   23.6000 C   0  0  0  0  0  1  0  0  0  0  0  0
  -31.8870  -22.3060   18.9560 C   0  0  0  0  0  2  0  0  0  0  0  0
  -31.2210  -20.9990   18.4830 C   0  0  0  0  0  2  0  0  0  0  0  0
  -31.4380  -19.8040   19.4310 C   0  0  0  0  0  2  0  0  0  0  0  0
  -30.6220  -18.5780   19.0040 C   0  0  0  0  0  2  0  0  0  0  0  0
  -30.8790  -17.3220   19.8550 C   0  0  0  0  0  2  0  0  0  0  0  0
  -29.9780  -16.1710   19.3780 C   0  0  0  0  0  2  0  0  0  0  0  0
  -30.8740  -13.9030   19.7300 C   0  0  0  0  0  0  0  0  0  0  0  0
  -30.5410  -11.6490   18.8240 C   0  0  0  0  0  2  0  0  0  0  0  0
  -29.4980  -11.7740   17.6930 C   0  0  0  0  0  2  0  0  0  0  0  0
  -28.0640  -11.6690   18.2480 C   0  0  0  0  0  2  0  0  0  0  0  0
  -27.8250  -12.5910   19.4720 C   0  0  0  0  0  3  0  0  0  0  0  0
  -28.9730  -12.4500   20.5020 C   0  0  0  0  0  2  0  0  0  0  0  0
  -30.2500  -12.7000   19.8080 N   0  0  0  0  0  0  0  0  0  0  0  0
  -31.9320  -14.0890   19.1230 O   0  0  0  0  0  0  0  0  0  0  0  0
  -30.1150  -14.9280   20.1330 N   0  0  0  0  0  0  0  0  0  0  0  0
  -29.3130  -14.6680   20.6880 H   0  0  0  0  0  0  0  0  0  0  0  0
  -25.5180  -13.2480   20.4100 C   0  0  0  0  0  0  0  0  0  0  0  0
  -24.4790  -12.4940   20.8900 C   0  0  0  0  0  0  0  0  0  0  0  0
  -24.9120  -11.1340   20.8180 C   0  0  0  0  0  0  0  0  0  0  0  0
  -26.5210  -12.3460   20.0840 N   0  0  0  0  0  0  0  0  0  0  0  0
  -26.1650  -11.0710   20.3820 N   0  0  0  0  0  0  0  0  0  0  0  0
  -24.1890   -9.8830   21.0840 C   0  0  0  0  0  0  0  0  0  0  0  0
  -24.6320   -8.9690   22.0670 C   0  0  0  0  0  3  0  0  0  0  0  0
  -23.9080   -7.7850   22.3180 C   0  0  0  0  0  3  0  0  0  0  0  0
  -22.7300   -7.5060   21.5880 C   0  0  0  0  0  0  0  0  0  0  0  0
  -22.3060   -8.4080   20.5980 C   0  0  0  0  0  3  0  0  0  0  0  0
  -23.0290   -9.5850   20.3430 C   0  0  0  0  0  3  0  0  0  0  0  0
  -21.9770   -6.3680   21.7450 O   0  0  0  0  0  0  0  0  0  0  0  0
  -21.8850   -5.7270   22.9540 C   0  0  0  0  0  0  0  0  0  0  0  0
  -21.3180   -6.3510   24.0860 C   0  0  0  0  0  3  0  0  0  0  0  0
  -21.1750   -5.6340   25.2910 C   0  0  0  0  0  3  0  0  0  0  0  0
  -21.5930   -4.2920   25.3660 C   0  0  0  0  0  0  0  0  0  0  0  0
  -22.1560   -3.6670   24.2390 C   0  0  0  0  0  3  0  0  0  0  0  0
  -22.2970   -4.3810   23.0360 C   0  0  0  0  0  0  0  0  0  0  0  0
  -22.8180   -3.7650   21.9470 F   0  0  0  0  0  0  0  0  0  0  0  0
  -21.4530   -3.6010   26.5220 F   0  0  0  0  0  0  0  0  0  0  0  0
  -23.1250  -12.9950   21.3040 C   0  0  0  0  0  0  0  0  0  0  0  0
  -22.4680  -12.2970   22.2240 N   0  0  0  0  0  0  0  0  0  0  0  0
  -22.6610  -14.0390   20.8500 O   0  0  0  0  0  0  0  0  0  0  0  0
  -22.8540  -11.4470   22.6090 H   0  0  0  0  0  0  0  0  0  0  0  0
  -21.5670  -12.6180   22.5490 H   0  0  0  0  0  0  0  0  0  0  0  0
  -25.6820  -14.6150   20.2030 N   0  0  0  0  0  0  0  0  0  0  0  0
  -24.9420  -15.2840   20.3810 H   0  0  0  0  0  0  0  0  0  0  0  0
  -26.5030  -15.0420   19.7920 H   0  0  0  0  0  0  0  0  0  0  0  0
  -28.1570  -25.2130   20.8550 C   0  0  0  0  0  2  0  0  0  0  0  0
  -27.5020  -25.2300   19.4590 C   0  0  0  0  0  2  0  0  0  0  0  0
  -27.5890  -26.5580   18.9450 O   0  0  0  0  0  0  0  0  0  0  0  0
  -24.7270  -31.2810   23.4330 C   0  0  0  0  0  0  0  0  0  0  0  0
  -26.5140  -27.3470   19.2630 C   0  0  0  0  0  0  0  0  0  0  0  0
  -23.1950  -30.3210   21.7430 C   0  0  0  0  0  3  0  0  0  0  0  0
  -24.3020  -28.9700   19.8880 C   0  0  0  0  0  0  0  0  0  0  0  0
  -25.7000  -30.5170   21.2710 C   0  0  0  0  0  2  0  0  0  0  0  0
  -25.5690  -29.2910   20.3910 C   0  0  0  0  0  0  0  0  0  0  0  0
  -26.6840  -28.4850   20.0770 C   0  0  0  0  0  3  0  0  0  0  0  0
  -25.2360  -27.0300   18.7630 C   0  0  0  0  0  3  0  0  0  0  0  0
  -24.1250  -27.8350   19.0780 C   0  0  0  0  0  3  0  0  0  0  0  0
  -23.1660  -29.8980   20.2510 C   0  0  0  0  0  2  0  0  0  0  0  0
  -24.5670  -30.7070   22.2060 N   0  0  0  0  0  0  0  0  0  0  0  0
  -23.7500  -31.5280   24.1530 O   0  0  0  0  0  0  0  0  0  0  0  0
  -22.5580  -29.1910   22.5830 C   0  0  0  0  0  0  0  0  0  0  0  0
  -21.2250  -29.0630   22.4970 N   0  0  0  0  0  0  0  0  0  0  0  0
  -23.2590  -28.4390   23.2670 O   0  0  0  0  0  0  0  0  0  0  0  0
  -20.7220  -29.7250   21.9210 H   0  0  0  0  0  0  0  0  0  0  0  0
  -17.8560  -27.8190   22.8830 C   0  0  0  0  0  0  0  0  0  0  0  0
  -20.4150  -28.0460   23.1670 C   0  0  0  0  0  3  0  0  0  0  0  0
  -20.5140  -26.6850   22.4410 C   0  0  0  0  0  2  0  0  0  0  0  0
  -19.4070  -26.4720   21.4040 C   0  0  0  0  0  2  0  0  0  0  0  0
  -18.0290  -26.5480   22.0680 C   0  0  0  0  0  2  0  0  0  0  0  0
  -18.9790  -28.5300   23.3860 C   0  0  0  0  0  0  0  0  0  0  0  0
  -18.7640  -29.7240   24.1060 C   0  0  0  0  0  3  0  0  0  0  0  0
  -17.4620  -30.2090   24.3280 C   0  0  0  0  0  3  0  0  0  0  0  0
  -16.3540  -29.4920   23.8420 C   0  0  0  0  0  3  0  0  0  0  0  0
  -16.5530  -28.2980   23.1250 C   0  0  0  0  0  3  0  0  0  0  0  0
  -26.1360  -31.6750   23.9760 C   0  0  0  0  0  3  0  0  0  0  0  0
  -26.0130  -32.9970   24.5990 N   0  0  0  0  0  0  0  0  0  0  0  0
  -26.3770  -34.1470   24.0150 C   0  0  0  0  0  0  0  0  0  0  0  0
  -26.9220  -34.1940   22.9090 O   0  0  0  0  0  0  0  0  0  0  0  0
  -25.5210  -33.0390   25.4790 H   0  0  0  0  0  0  0  0  0  0  0  0
  -24.8220  -36.1160   24.2120 C   0  0  0  0  0  1  0  0  0  0  0  0
  -26.0870  -35.4530   24.7820 C   0  0  0  0  0  3  0  0  0  0  0  0
  -28.3700  -35.9770   25.5220 C   0  0  0  0  0  1  0  0  0  0  0  0
  -27.2110  -36.4150   24.7480 N   0  0  0  0  0  0  0  0  0  0  0  0
  -26.9190  -37.3230   25.0970 H   0  0  0  0  0  0  0  0  0  0  0  0
  -26.7210  -30.6270   25.0000 C   0  0  1  0  0  0  0  0  0  0  0  0
  -25.7400  -30.2510   26.1340 C   0  0  0  0  0  1  0  0  0  0  0  0
  -27.1260  -29.3220   24.2740 C   0  0  0  0  0  1  0  0  0  0  0  0
  -28.0070  -31.1900   25.6480 C   0  0  0  0  0  1  0  0  0  0  0  0
  2  5  2  0
  2  6  1  0
  3  7  1  0
  3  1  2  0
  4  1  1  0
  4  8  1  0
  5  3  1  0
  6  4  2  0
  9  5  1  0
 10  9  1  0
 10 11  1  0
 12 11  1  0
 12 13  1  0
 14 13  1  0
 14 23  1  0
 15 21  1  0
 15 23  1  0
 16 21  1  0
 17 18  1  0
 17 16  1  0
 19 18  1  0
 19 28  1  0
 19 20  1  0
 21 20  1  0
 22 15  2  0
 23 24  1  0
 25 26  2  0
 26 45  1  0
 27 26  1  0
 27 30  1  0
 28 29  1  0
 28 25  1  0
 29 27  2  0
 30 31  1  0
 31 32  2  0
 33 36  1  0
 33 32  1  0
 34 33  2  0
 35 34  1  0
 35 30  2  0
 36 37  1  0
 37 42  2  0
 37 38  1  0
 38 39  2  0
 39 40  1  0
 40 44  1  0
 41 40  2  0
 42 41  1  0
 43 42  1  0
 45 46  1  0
 46 49  1  0
 46 48  1  0
 47 45  2  0
 50 51  1  0
 50 25  1  0
 52 50  1  0
 53  6  1  0
 54 53  1  0
 55 57  1  0
 55 54  1  0
 56 67  2  0
 57 62  1  0
 58 66  1  0
 58 68  1  0
 59 65  1  0
 59 61  1  0
 60 66  1  0
 61 60  1  0
 62 61  2  0
 63 64  1  0
 63 57  2  0
 64 59  2  0
 65 58  1  0
 66 56  1  0
 68 70  2  0
 69 68  1  0
 71 69  1  0
 72 81  2  0
 72 77  1  0
 73 69  1  0
 73 77  1  0
 74 73  1  0
 75 76  1  0
 75 74  1  0
 76 72  1  0
 77 78  2  0
 78 79  1  0
 80 79  2  0
 81 80  1  0
 82 56  1  0
 82 83  1  0
 82 92  1  0
 83 86  1  0
 84 83  1  0
 84 88  1  0
 85 84  2  0
 88 87  1  0
 90 88  1  0
 90 91  1  0
 90 89  1  0
 92 95  1  1
 92 93  1  0
 94 92  1  0
M  ISO  4  15 100  23 100  54 101  55 101
M  END
>  <TORSDO>  (58) 
F 24

>  <SCORE>  (58) 
-8.771

>  <name>  (58) 
58

>  <ligand_id>  (58) 
58

>  <original_smiles>  (58) 
[H]c1c([H])c([H])c2c(c1[H])C([H])([H])C([H])([H])C([H])([H])C2([H])N([H])C(=O)C1([H])N(C(=O)C([H])(N([H])C(=O)C([H])(N([H])C([H])([H])[H])C([H])([H])[H])C(C([H])([H])[H])(C([H])([H])[H])C([H])([H])[H])C([H])([H])c2c([H])c(OC([H])([H])C([H])([H])c3c([H])c(C([H])([H])C([H])([H])C([H])([H])C([H])([H])C([H])([H])C([H])([H])N([H])C(=O)N4C([H])([H])C([H])([H])C([H])([H])C([H])(n5nc(-c6c([H])c([H])c(Oc7c([H])c([H])c(F)c([H])c7F)c([H])c6[H])c(C(=O)N([H])[H])c5N([H])[H])C4([H])[H])c(C([H])([H])[H])c([H])c3C([H])([H])[H])c([H])c([H])c2C1([H])[H]

>  <smiles>  (58) 
[H]c1c([H])c([H])c2c(c1[H])C([H])([H])C([H])([H])C([H])([H])C2([H])N([H])C(=O)C1([H])N(C(=O)C([H])(N([H])C(=O)C([H])(N([H])C([H])([H])[H])C([H])([H])[H])C(C([H])([H])[H])(C([H])([H])[H])C([H])([H])[H])C([H])([H])c2c([H])c(OC([H])([H])C([H])([H])c3c([H])c(C([H])([H])C([H])([H])C([H])([H])C([H])([H])C([H])([H])C([H])([H])N([H])C(=O)N4C([H])([H])C([H])([H])C([H])([H])C([H])(n5nc(-c6c([H])c([H])c(Oc7c([H])c([H])c(F)c([H])c7F)c([H])c6[H])c(C(=O)N([H])[H])c5N([H])[H])C4([H])[H])c(C([H])([H])[H])c([H])c3C([H])([H])[H])c([H])c([H])c2C1([H])[H]

$$$$
59:0:0
     RDKit          3D

 96104  0  0  1  0  0  0  0  0999 V2000
  -28.3980  -22.1770   20.8580 C   0  0  0  0  0  3  0  0  0  0  0  0
  -28.8540  -20.9660   21.4170 C   0  0  0  0  0  0  0  0  0  0  0  0
  -28.8900  -19.8050   20.6020 C   0  0  0  0  0  0  0  0  0  0  0  0
  -28.0100  -22.2100   19.5090 C   0  0  0  0  0  0  0  0  0  0  0  0
  -28.5250  -19.9490   19.2380 C   0  0  0  0  0  0  0  0  0  0  0  0
  -29.2570  -20.9380   22.8810 C   0  0  0  0  0  1  0  0  0  0  0  0
  -28.1010  -21.1220   18.7130 N   0  0  0  0  0  0  0  0  0  0  0  0
  -29.2450  -18.4320   21.2000 C   0  0  0  0  0  2  0  0  0  0  0  0
  -30.7190  -18.0170   21.0280 C   0  0  0  0  0  2  0  0  0  0  0  0
  -31.1610  -16.8520   21.9440 C   0  0  0  0  0  2  0  0  0  0  0  0
  -31.2090  -14.6130   20.8110 C   0  0  0  0  0  0  0  0  0  0  0  0
  -31.0150  -12.3520   19.8350 C   0  0  0  0  0  2  0  0  0  0  0  0
  -30.1050  -12.3660   18.5920 C   0  0  0  0  0  2  0  0  0  0  0  0
  -28.6270  -12.2010   18.9940 C   0  0  0  0  0  2  0  0  0  0  0  0
  -28.2090  -13.1670   20.1330 C   0  0  0  0  0  3  0  0  0  0  0  0
  -29.2280  -13.1200   21.2920 C   0  0  0  0  0  2  0  0  0  0  0  0
  -30.5640  -13.4180   20.7430 N   0  0  0  0  0  0  0  0  0  0  0  0
  -32.2670  -14.8470   20.2220 O   0  0  0  0  0  0  0  0  0  0  0  0
  -30.6140  -15.5410   21.5760 N   0  0  0  0  0  0  0  0  0  0  0  0
  -29.7540  -15.2620   22.0230 H   0  0  0  0  0  0  0  0  0  0  0  0
  -25.8170  -13.7700   20.8750 C   0  0  0  0  0  0  0  0  0  0  0  0
  -24.7390  -12.9930   21.2060 C   0  0  0  0  0  0  0  0  0  0  0  0
  -25.1820  -11.6390   21.1030 C   0  0  0  0  0  0  0  0  0  0  0  0
  -26.8500  -12.8880   20.5980 N   0  0  0  0  0  0  0  0  0  0  0  0
  -26.4700  -11.5980   20.7900 N   0  0  0  0  0  0  0  0  0  0  0  0
  -24.4390  -10.3780   21.2310 C   0  0  0  0  0  0  0  0  0  0  0  0
  -24.8140   -9.3910   22.1690 C   0  0  0  0  0  3  0  0  0  0  0  0
  -24.0730   -8.1950   22.2840 C   0  0  0  0  0  3  0  0  0  0  0  0
  -22.9420   -7.9780   21.4610 C   0  0  0  0  0  0  0  0  0  0  0  0
  -22.5870   -8.9540   20.5140 C   0  0  0  0  0  3  0  0  0  0  0  0
  -23.3280  -10.1420   20.3970 C   0  0  0  0  0  3  0  0  0  0  0  0
  -22.1790   -6.8370   21.4860 O   0  0  0  0  0  0  0  0  0  0  0  0
  -21.9120   -6.1730   22.6570 C   0  0  0  0  0  0  0  0  0  0  0  0
  -21.2520   -6.8020   23.7350 C   0  0  0  0  0  3  0  0  0  0  0  0
  -20.9360   -6.0640   24.8930 C   0  0  0  0  0  3  0  0  0  0  0  0
  -21.2700   -4.6990   24.9710 C   0  0  0  0  0  0  0  0  0  0  0  0
  -21.9220   -4.0700   23.8960 C   0  0  0  0  0  3  0  0  0  0  0  0
  -22.2390   -4.8050   22.7410 C   0  0  0  0  0  0  0  0  0  0  0  0
  -22.8490   -4.1900   21.7000 F   0  0  0  0  0  0  0  0  0  0  0  0
  -20.9590   -3.9870   26.0810 F   0  0  0  0  0  0  0  0  0  0  0  0
  -23.3500  -13.4750   21.5070 C   0  0  0  0  0  0  0  0  0  0  0  0
  -22.6270  -12.7610   22.3630 N   0  0  0  0  0  0  0  0  0  0  0  0
  -22.9140  -14.5180   21.0210 O   0  0  0  0  0  0  0  0  0  0  0  0
  -22.9910  -11.9160   22.7780 H   0  0  0  0  0  0  0  0  0  0  0  0
  -21.6940  -13.0640   22.6080 H   0  0  0  0  0  0  0  0  0  0  0  0
  -26.0020  -15.1450   20.7700 N   0  0  0  0  0  0  0  0  0  0  0  0
  -25.2450  -15.8030   20.9110 H   0  0  0  0  0  0  0  0  0  0  0  0
  -26.8600  -15.5850   20.4670 H   0  0  0  0  0  0  0  0  0  0  0  0
  -27.3700  -23.4530   18.8950 C   0  0  0  0  0  2  0  0  0  0  0  0
  -28.2160  -24.7490   18.9080 C   0  0  0  0  0  2  0  0  0  0  0  0
  -28.1780  -25.5290   20.2400 C   0  0  0  0  0  2  0  0  0  0  0  0
  -28.3130  -26.9500   20.0640 O   0  0  0  0  0  0  0  0  0  0  0  0
  -24.5580  -31.9820   23.4220 C   0  0  0  0  0  0  0  0  0  0  0  0
  -27.1510  -27.6970   20.0840 C   0  0  0  0  0  0  0  0  0  0  0  0
  -23.3440  -30.7190   21.6770 C   0  0  0  0  0  3  0  0  0  0  0  0
  -24.7840  -29.2480   20.1710 C   0  0  0  0  0  0  0  0  0  0  0  0
  -25.8800  -31.0370   21.5310 C   0  0  0  0  0  2  0  0  0  0  0  0
  -25.9470  -29.7110   20.8010 C   0  0  0  0  0  0  0  0  0  0  0  0
  -27.1350  -28.9460   20.7470 C   0  0  0  0  0  3  0  0  0  0  0  0
  -25.9670  -27.2500   19.4540 C   0  0  0  0  0  3  0  0  0  0  0  0
  -24.7890  -28.0180   19.4950 C   0  0  0  0  0  3  0  0  0  0  0  0
  -23.5580  -30.1280   20.2580 C   0  0  0  0  0  2  0  0  0  0  0  0
  -24.6120  -31.2560   22.2700 N   0  0  0  0  0  0  0  0  0  0  0  0
  -23.4750  -32.2410   23.9660 O   0  0  0  0  0  0  0  0  0  0  0  0
  -22.6600  -29.6500   22.5600 C   0  0  0  0  0  0  0  0  0  0  0  0
  -21.3280  -29.5320   22.4310 N   0  0  0  0  0  0  0  0  0  0  0  0
  -23.3230  -28.9330   23.3140 O   0  0  0  0  0  0  0  0  0  0  0  0
  -20.8560  -30.1620   21.7980 H   0  0  0  0  0  0  0  0  0  0  0  0
  -17.9100  -28.4480   22.8710 C   0  0  0  0  0  0  0  0  0  0  0  0
  -20.4780  -28.5700   23.1320 C   0  0  0  0  0  3  0  0  0  0  0  0
  -20.5130  -27.1880   22.4390 C   0  0  0  0  0  2  0  0  0  0  0  0
  -19.3890  -26.9990   21.4150 C   0  0  0  0  0  2  0  0  0  0  0  0
  -18.0200  -27.1510   22.0850 C   0  0  0  0  0  2  0  0  0  0  0  0
  -19.0650  -29.1220   23.3480 C   0  0  0  0  0  0  0  0  0  0  0  0
  -18.9080  -30.3400   24.0420 C   0  0  0  0  0  3  0  0  0  0  0  0
  -17.6290  -30.8840   24.2640 C   0  0  0  0  0  3  0  0  0  0  0  0
  -16.4880  -30.2050   23.8030 C   0  0  0  0  0  3  0  0  0  0  0  0
  -16.6300  -28.9880   23.1120 C   0  0  0  0  0  3  0  0  0  0  0  0
  -25.8480  -32.5430   24.0980 C   0  0  0  0  0  3  0  0  0  0  0  0
  -26.3170  -31.6940   25.3430 C   0  0  1  0  0  0  0  0  0  0  0  0
  -25.2030  -31.4540   26.3870 C   0  0  0  0  0  1  0  0  0  0  0  0
  -26.8490  -30.3130   24.8930 C   0  0  0  0  0  1  0  0  0  0  0  0
  -27.4900  -32.4100   26.0530 C   0  0  0  0  0  1  0  0  0  0  0  0
  -25.5740  -33.9320   24.4870 N   0  0  0  0  0  0  0  0  0  0  0  0
  -25.9510  -35.0070   23.7830 C   0  0  0  0  0  0  0  0  0  0  0  0
  -26.6380  -34.9320   22.7600 O   0  0  0  0  0  0  0  0  0  0  0  0
  -24.9680  -34.0670   25.2840 H   0  0  0  0  0  0  0  0  0  0  0  0
  -24.2770  -36.8610   23.4880 C   0  0  0  0  0  1  0  0  0  0  0  0
  -25.4950  -36.3870   24.2960 C   0  0  0  0  0  3  0  0  0  0  0  0
  -27.6330  -37.1830   25.2050 C   0  0  0  0  0  1  0  0  0  0  0  0
  -26.5570  -37.4150   24.2450 N   0  0  0  0  0  0  0  0  0  0  0  0
  -26.1720  -38.3390   24.4180 H   0  0  0  0  0  0  0  0  0  0  0  0
  -28.5320  -18.7780   18.2630 C   0  0  0  0  0  2  0  0  0  0  0  0
  -27.5500  -17.6590   18.6550 C   0  0  0  0  0  2  0  0  0  0  0  0
  -27.2640  -15.1350   18.9340 C   0  0  0  0  0  1  0  0  0  0  0  0
  -28.0750  -16.2620   18.2860 C   0  0  0  0  0  2  0  0  0  0  0  0
  1  2  1  0
  2  6  1  0
  3  8  1  0
  3  2  2  0
  4  1  2  0
  5  3  1  0
  7  5  2  0
  7  4  1  0
  9  8  1  0
  9 10  1  0
 11 19  1  0
 12 17  1  0
 13 14  1  0
 13 12  1  0
 15 14  1  0
 15 24  1  0
 15 16  1  0
 17 11  1  0
 17 16  1  0
 18 11  2  0
 19 10  1  0
 19 20  1  0
 21 22  2  0
 22 41  1  0
 23 22  1  0
 23 26  1  0
 24 25  1  0
 24 21  1  0
 25 23  2  0
 26 27  1  0
 27 28  2  0
 29 32  1  0
 29 28  1  0
 30 29  2  0
 31 30  1  0
 31 26  2  0
 32 33  1  0
 33 38  2  0
 33 34  1  0
 34 35  2  0
 35 36  1  0
 36 40  1  0
 37 36  2  0
 38 37  1  0
 39 38  1  0
 41 42  1  0
 42 45  1  0
 42 44  1  0
 43 41  2  0
 46 21  1  0
 46 47  1  0
 48 46  1  0
 49 50  1  0
 49  4  1  0
 50 51  1  0
 52 54  1  0
 52 51  1  0
 53 64  2  0
 54 59  1  0
 55 63  1  0
 55 65  1  0
 56 62  1  0
 56 58  1  0
 57 63  1  0
 58 57  1  0
 59 58  2  0
 60 61  1  0
 60 54  2  0
 61 56  2  0
 62 55  1  0
 63 53  1  0
 65 67  2  0
 66 65  1  0
 68 66  1  0
 69 78  2  0
 69 74  1  0
 70 66  1  0
 70 74  1  0
 71 70  1  0
 72 73  1  0
 72 71  1  0
 73 69  1  0
 74 75  2  0
 75 76  1  0
 77 76  2  0
 78 77  1  0
 79 53  1  0
 79 84  1  0
 79 80  1  0
 80 83  1  1
 80 81  1  0
 82 80  1  0
 84 87  1  0
 85 89  1  0
 85 84  1  0
 86 85  2  0
 89 88  1  0
 91 89  1  0
 91 92  1  0
 91 90  1  0
 93 94  1  0
 93  5  1  0
 96 94  1  0
 96 95  1  0
M  ISO  4  11 100  19 100  51 101  52 101
M  END
>  <TORSDO>  (59) 
F 25

>  <SCORE>  (59) 
-9.565

>  <name>  (59) 
59

>  <ligand_id>  (59) 
59

>  <original_smiles>  (59) 
[H]c1c([H])c([H])c2c(c1[H])C([H])([H])C([H])([H])C([H])([H])C2([H])N([H])C(=O)C1([H])N(C(=O)C([H])(N([H])C(=O)C([H])(N([H])C([H])([H])[H])C([H])([H])[H])C(C([H])([H])[H])(C([H])([H])[H])C([H])([H])[H])C([H])([H])c2c([H])c(OC([H])([H])C([H])([H])C([H])([H])c3nc(C([H])([H])C([H])([H])C([H])([H])C([H])([H])[H])c(C([H])([H])C([H])([H])C([H])([H])N([H])C(=O)N4C([H])([H])C([H])([H])C([H])([H])C([H])(n5nc(-c6c([H])c([H])c(Oc7c([H])c([H])c(F)c([H])c7F)c([H])c6[H])c(C(=O)N([H])[H])c5N([H])[H])C4([H])[H])c(C([H])([H])[H])c3[H])c([H])c([H])c2C1([H])[H]

>  <smiles>  (59) 
[H]c1c([H])c([H])c2c(c1[H])C([H])([H])C([H])([H])C([H])([H])C2([H])N([H])C(=O)C1([H])N(C(=O)C([H])(N([H])C(=O)C([H])(N([H])C([H])([H])[H])C([H])([H])[H])C(C([H])([H])[H])(C([H])([H])[H])C([H])([H])[H])C([H])([H])c2c([H])c(OC([H])([H])C([H])([H])C([H])([H])c3nc(C([H])([H])C([H])([H])C([H])([H])C([H])([H])[H])c(C([H])([H])C([H])([H])C([H])([H])N([H])C(=O)N4C([H])([H])C([H])([H])C([H])([H])C([H])(n5nc(-c6c([H])c([H])c(Oc7c([H])c([H])c(F)c([H])c7F)c([H])c6[H])c(C(=O)N([H])[H])c5N([H])[H])C4([H])[H])c(C([H])([H])[H])c3[H])c([H])c([H])c2C1([H])[H]

$$$$
60:0:0
     RDKit          3D

 90 99  0  0  1  0  0  0  0  0999 V2000
  -28.1410  -21.1460   19.4310 C   0  0  0  0  0  2  0  0  0  0  0  0
  -30.0960  -21.3780   20.9310 C   0  0  0  0  0  2  0  0  0  0  0  0
  -27.6830  -22.6220   19.7940 C   0  0  0  0  0  2  0  0  0  0  0  0
  -29.6360  -22.8440   21.3120 C   0  0  0  0  0  2  0  0  0  0  0  0
  -28.9370  -20.4070   20.5530 C   0  0  0  0  0  3  0  0  0  0  0  0
  -28.7870  -23.6430   20.2560 C   0  0  0  0  0  3  0  0  0  0  0  0
  -30.4840  -17.2020   19.2000 C   0  0  0  0  0  3  0  0  0  0  0  0
  -29.2260  -16.6230   21.0790 C   0  0  0  0  0  3  0  0  0  0  0  0
  -30.0830  -16.1460   20.0580 C   0  0  0  0  0  0  0  0  0  0  0  0
  -29.3100  -18.8650   20.3350 C   0  0  0  0  0  0  0  0  0  0  0  0
  -30.1110  -18.5160   19.3270 N   0  0  0  0  0  0  0  0  0  0  0  0
  -28.8560  -17.9440   21.2030 N   0  0  0  0  0  0  0  0  0  0  0  0
  -30.7120  -14.7250   19.9170 C   0  0  0  0  0  0  0  0  0  0  0  0
  -30.3750  -12.4680   18.9400 C   0  0  0  0  0  2  0  0  0  0  0  0
  -29.3710  -12.5770   17.7720 C   0  0  0  0  0  2  0  0  0  0  0  0
  -27.9280  -12.4200   18.2860 C   0  0  0  0  0  2  0  0  0  0  0  0
  -27.6420  -13.2900   19.5400 C   0  0  0  0  0  3  0  0  0  0  0  0
  -28.7700  -13.1940   20.5880 C   0  0  0  0  0  2  0  0  0  0  0  0
  -30.0310  -13.5280   19.9200 N   0  0  0  0  0  0  0  0  0  0  0  0
  -31.8830  -14.7270   19.5320 O   0  0  0  0  0  0  0  0  0  0  0  0
  -25.3230  -13.8650   20.4690 C   0  0  0  0  0  0  0  0  0  0  0  0
  -24.2820  -13.0850   20.8900 C   0  0  0  0  0  0  0  0  0  0  0  0
  -24.7280  -11.7320   20.7790 C   0  0  0  0  0  0  0  0  0  0  0  0
  -26.3370  -12.9880   20.1220 N   0  0  0  0  0  0  0  0  0  0  0  0
  -25.9940  -11.6980   20.3740 N   0  0  0  0  0  0  0  0  0  0  0  0
  -24.0050  -10.4690   20.9770 C   0  0  0  0  0  0  0  0  0  0  0  0
  -24.4640   -9.4890   21.8860 C   0  0  0  0  0  3  0  0  0  0  0  0
  -23.7400   -8.2920   22.0740 C   0  0  0  0  0  3  0  0  0  0  0  0
  -22.5430   -8.0650   21.3540 C   0  0  0  0  0  0  0  0  0  0  0  0
  -22.1040   -9.0330   20.4340 C   0  0  0  0  0  3  0  0  0  0  0  0
  -22.8270  -10.2220   20.2440 C   0  0  0  0  0  3  0  0  0  0  0  0
  -21.7890   -6.9210   21.4530 O   0  0  0  0  0  0  0  0  0  0  0  0
  -21.7350   -6.1920   22.6140 C   0  0  0  0  0  0  0  0  0  0  0  0
  -21.2840   -6.7560   23.8280 C   0  0  0  0  0  3  0  0  0  0  0  0
  -21.1800   -5.9530   24.9810 C   0  0  0  0  0  3  0  0  0  0  0  0
  -21.5140   -4.5860   24.9200 C   0  0  0  0  0  0  0  0  0  0  0  0
  -21.9560   -4.0220   23.7110 C   0  0  0  0  0  3  0  0  0  0  0  0
  -22.0640   -4.8220   22.5620 C   0  0  0  0  0  0  0  0  0  0  0  0
  -22.4700   -4.2690   21.3930 F   0  0  0  0  0  0  0  0  0  0  0  0
  -21.4060   -3.8120   26.0260 F   0  0  0  0  0  0  0  0  0  0  0  0
  -22.9120  -13.5610   21.2750 C   0  0  0  0  0  0  0  0  0  0  0  0
  -22.2420  -12.8430   22.1670 N   0  0  0  0  0  0  0  0  0  0  0  0
  -22.4480  -14.6060   20.8200 O   0  0  0  0  0  0  0  0  0  0  0  0
  -22.6320  -11.9950   22.5550 H   0  0  0  0  0  0  0  0  0  0  0  0
  -21.3260  -13.1430   22.4680 H   0  0  0  0  0  0  0  0  0  0  0  0
  -25.4840  -15.2400   20.3260 N   0  0  0  0  0  0  0  0  0  0  0  0
  -24.7260  -15.8880   20.5110 H   0  0  0  0  0  0  0  0  0  0  0  0
  -26.2880  -15.6820   19.8980 H   0  0  0  0  0  0  0  0  0  0  0  0
  -28.2040  -25.0510   20.8220 C   0  0  0  0  0  2  0  0  0  0  0  0
  -28.4610  -26.4070   20.2450 O   0  0  0  0  0  0  0  0  0  0  0  0
  -24.6200  -31.8270   23.1680 C   0  0  0  0  0  0  0  0  0  0  0  0
  -27.3640  -27.2870   20.1860 C   0  0  0  0  0  0  0  0  0  0  0  0
  -23.4780  -30.4070   21.5050 C   0  0  0  0  0  3  0  0  0  0  0  0
  -24.9860  -28.8790   20.1100 C   0  0  0  0  0  0  0  0  0  0  0  0
  -26.0170  -30.7650   21.3740 C   0  0  0  0  0  2  0  0  0  0  0  0
  -26.1350  -29.3840   20.7320 C   0  0  0  0  0  0  0  0  0  0  0  0
  -27.3330  -28.6020   20.7550 C   0  0  0  0  0  3  0  0  0  0  0  0
  -26.1980  -26.8440   19.5300 C   0  0  0  0  0  3  0  0  0  0  0  0
  -25.0200  -27.6160   19.4970 C   0  0  0  0  0  3  0  0  0  0  0  0
  -23.7330  -29.7340   20.1310 C   0  0  0  0  0  2  0  0  0  0  0  0
  -24.7230  -31.0180   22.0730 N   0  0  0  0  0  0  0  0  0  0  0  0
  -23.5200  -32.0880   23.6750 O   0  0  0  0  0  0  0  0  0  0  0  0
  -22.8100  -29.3810   22.4520 C   0  0  0  0  0  0  0  0  0  0  0  0
  -21.4870  -29.1910   22.3010 N   0  0  0  0  0  0  0  0  0  0  0  0
  -23.4800  -28.7600   23.2810 O   0  0  0  0  0  0  0  0  0  0  0  0
  -21.0060  -29.7440   21.6050 H   0  0  0  0  0  0  0  0  0  0  0  0
  -18.1140  -27.9640   22.7500 C   0  0  0  0  0  0  0  0  0  0  0  0
  -20.6660  -28.2440   23.0550 C   0  0  0  0  0  3  0  0  0  0  0  0
  -20.7870  -26.8160   22.4730 C   0  0  0  0  0  2  0  0  0  0  0  0
  -19.6990  -26.4900   21.4420 C   0  0  0  0  0  2  0  0  0  0  0  0
  -18.3080  -26.6210   22.0680 C   0  0  0  0  0  2  0  0  0  0  0  0
  -19.2200  -28.7330   23.1990 C   0  0  0  0  0  0  0  0  0  0  0  0
  -18.9820  -29.9900   23.7960 C   0  0  0  0  0  3  0  0  0  0  0  0
  -17.6700  -30.4790   23.9480 C   0  0  0  0  0  3  0  0  0  0  0  0
  -16.5780  -29.7060   23.5140 C   0  0  0  0  0  3  0  0  0  0  0  0
  -16.8010  -28.4510   22.9210 C   0  0  0  0  0  3  0  0  0  0  0  0
  -25.8780  -32.4810   23.8220 C   0  0  0  0  0  3  0  0  0  0  0  0
  -25.5340  -33.8710   24.1500 N   0  0  0  0  0  0  0  0  0  0  0  0
  -25.8590  -34.9350   23.4010 C   0  0  0  0  0  0  0  0  0  0  0  0
  -26.5490  -34.8490   22.3830 O   0  0  0  0  0  0  0  0  0  0  0  0
  -24.9200  -34.0100   24.9390 H   0  0  0  0  0  0  0  0  0  0  0  0
  -24.1010  -36.6970   23.0280 C   0  0  0  0  0  1  0  0  0  0  0  0
  -25.3360  -36.3100   23.8570 C   0  0  0  0  0  3  0  0  0  0  0  0
  -27.4380  -37.2330   24.7300 C   0  0  0  0  0  1  0  0  0  0  0  0
  -26.3500  -37.3840   23.7690 N   0  0  0  0  0  0  0  0  0  0  0  0
  -25.9220  -38.2940   23.9160 H   0  0  0  0  0  0  0  0  0  0  0  0
  -26.3820  -31.7150   25.1070 C   0  0  1  0  0  0  0  0  0  0  0  0
  -25.2690  -31.4490   26.1490 C   0  0  0  0  0  1  0  0  0  0  0  0
  -27.0030  -30.3520   24.7240 C   0  0  0  0  0  1  0  0  0  0  0  0
  -27.5020  -32.5310   25.7950 C   0  0  0  0  0  1  0  0  0  0  0  0
  1  3  1  0
  1  5  1  0
  2  4  1  0
  3  6  1  0
  5 10  1  0
  5  2  1  0
  6 49  1  0
  6  4  1  0
  7 11  1  0
  7  9  2  0
  8 12  2  0
  9  8  1  0
 10 12  1  0
 11 10  2  0
 13 19  1  0
 13  9  1  0
 14 19  1  0
 15 16  1  0
 15 14  1  0
 17 16  1  0
 17 24  1  0
 17 18  1  0
 19 18  1  0
 20 13  2  0
 21 22  2  0
 22 41  1  0
 23 22  1  0
 23 26  1  0
 24 25  1  0
 24 21  1  0
 25 23  2  0
 26 27  1  0
 27 28  2  0
 29 32  1  0
 29 28  1  0
 30 29  2  0
 31 30  1  0
 31 26  2  0
 32 33  1  0
 33 34  1  0
 34 35  2  0
 36 35  1  0
 36 40  1  0
 37 36  2  0
 38 33  2  0
 38 37  1  0
 39 38  1  0
 41 42  1  0
 42 45  1  0
 42 44  1  0
 43 41  2  0
 46 21  1  0
 46 47  1  0
 48 46  1  0
 50 49  1  0
 51 62  2  0
 52 50  1  0
 52 57  1  0
 53 61  1  0
 53 63  1  0
 54 60  1  0
 54 56  1  0
 55 61  1  0
 56 57  2  0
 56 55  1  0
 58 52  2  0
 59 58  1  0
 59 54  2  0
 60 53  1  0
 61 51  1  0
 63 65  2  0
 64 63  1  0
 66 64  1  0
 67 76  2  0
 67 72  1  0
 68 64  1  0
 68 72  1  0
 69 68  1  0
 70 71  1  0
 70 69  1  0
 71 67  1  0
 72 73  2  0
 73 74  1  0
 75 74  2  0
 76 75  1  0
 77 51  1  0
 77 78  1  0
 77 87  1  0
 78 81  1  0
 79 83  1  0
 79 78  1  0
 80 79  2  0
 83 82  1  0
 85 83  1  0
 85 86  1  0
 85 84  1  0
 87 90  1  1
 87 88  1  0
 89 87  1  0
M  ISO  4   9 100  13 100  49 101  50 101
M  END
>  <TORSDO>  (60) 
F 18

>  <SCORE>  (60) 
-14.471

>  <name>  (60) 
60

>  <ligand_id>  (60) 
60

>  <original_smiles>  (60) 
[H]c1nc(C2([H])C([H])([H])C([H])([H])C([H])(C([H])([H])Oc3c([H])c([H])c4c(c3[H])C([H])([H])N(C(=O)C([H])(N([H])C(=O)C([H])(N([H])C([H])([H])[H])C([H])([H])[H])C(C([H])([H])[H])(C([H])([H])[H])C([H])([H])[H])C([H])(C(=O)N([H])C3([H])c5c([H])c([H])c([H])c([H])c5C([H])([H])C([H])([H])C3([H])[H])C4([H])[H])C([H])([H])C2([H])[H])nc([H])c1C(=O)N1C([H])([H])C([H])([H])C([H])([H])C([H])(n2nc(-c3c([H])c([H])c(Oc4c([H])c([H])c(F)c([H])c4F)c([H])c3[H])c(C(=O)N([H])[H])c2N([H])[H])C1([H])[H]

>  <smiles>  (60) 
[H]c1nc(C2([H])C([H])([H])C([H])([H])C([H])(C([H])([H])Oc3c([H])c([H])c4c(c3[H])C([H])([H])N(C(=O)C([H])(N([H])C(=O)C([H])(N([H])C([H])([H])[H])C([H])([H])[H])C(C([H])([H])[H])(C([H])([H])[H])C([H])([H])[H])C([H])(C(=O)N([H])C3([H])c5c([H])c([H])c([H])c([H])c5C([H])([H])C([H])([H])C3([H])[H])C4([H])[H])C([H])([H])C2([H])[H])nc([H])c1C(=O)N1C([H])([H])C([H])([H])C([H])([H])C([H])(n2nc(-c3c([H])c([H])c(Oc4c([H])c([H])c(F)c([H])c4F)c([H])c3[H])c(C(=O)N([H])[H])c2N([H])[H])C1([H])[H]

$$$$
61:0:0
     RDKit          3D

 94102  0  0  1  0  0  0  0  0999 V2000
  -30.8860  -19.2320   20.8730 C   0  0  0  0  0  0  0  0  0  0  0  0
  -30.0900  -18.5700   19.8950 C   0  0  0  0  0  0  0  0  0  0  0  0
  -30.3950  -20.4270   21.1230 N   0  0  0  0  0  0  0  0  0  0  0  0
  -29.0890  -19.3750   19.5760 N   0  0  0  0  0  0  0  0  0  0  0  0
  -29.3010  -20.5050   20.3260 N   0  0  0  0  0  0  0  0  0  0  0  0
  -32.1430  -18.7430   21.5300 C   0  0  0  0  0  2  0  0  0  0  0  0
  -31.9180  -18.1460   22.9330 C   0  0  0  0  0  2  0  0  0  0  0  0
  -31.4530  -16.6770   22.9730 C   0  0  0  0  0  2  0  0  0  0  0  0
  -29.6790  -14.9360   22.3840 C   0  0  0  0  0  1  0  0  0  0  0  0
  -30.0770  -16.4160   22.3360 C   0  0  0  0  0  2  0  0  0  0  0  0
  -30.3540  -17.2380   19.1830 C   0  0  0  0  0  2  0  0  0  0  0  0
  -31.0080  -14.8680   19.6760 C   0  0  0  0  0  0  0  0  0  0  0  0
  -30.6250  -12.6780   18.6210 C   0  0  0  0  0  2  0  0  0  0  0  0
  -29.5830  -12.8940   17.5040 C   0  0  0  0  0  2  0  0  0  0  0  0
  -28.1500  -12.7700   18.0580 C   0  0  0  0  0  2  0  0  0  0  0  0
  -27.9360  -13.5920   19.3580 C   0  0  0  0  0  3  0  0  0  0  0  0
  -29.0890  -13.3780   20.3650 C   0  0  0  0  0  2  0  0  0  0  0  0
  -30.3510  -13.6720   19.6710 N   0  0  0  0  0  0  0  0  0  0  0  0
  -32.1380  -14.9930   19.1980 O   0  0  0  0  0  0  0  0  0  0  0  0
  -30.2430  -15.9580   19.9360 N   0  0  0  0  0  0  0  0  0  0  0  0
  -29.3450  -15.7750   20.3540 H   0  0  0  0  0  0  0  0  0  0  0  0
  -25.6610  -14.2120   20.3840 C   0  0  0  0  0  0  0  0  0  0  0  0
  -24.6060  -13.4480   20.8040 C   0  0  0  0  0  0  0  0  0  0  0  0
  -25.0000  -12.0890   20.6050 C   0  0  0  0  0  0  0  0  0  0  0  0
  -26.6330  -13.3200   19.9610 N   0  0  0  0  0  0  0  0  0  0  0  0
  -26.2470  -12.0320   20.1520 N   0  0  0  0  0  0  0  0  0  0  0  0
  -24.2410  -10.8420   20.7640 C   0  0  0  0  0  0  0  0  0  0  0  0
  -24.6990   -9.8010   21.6010 C   0  0  0  0  0  3  0  0  0  0  0  0
  -23.9420   -8.6180   21.7520 C   0  0  0  0  0  3  0  0  0  0  0  0
  -22.7130   -8.4690   21.0670 C   0  0  0  0  0  0  0  0  0  0  0  0
  -22.2730   -9.4990   20.2170 C   0  0  0  0  0  3  0  0  0  0  0  0
  -23.0310  -10.6730   20.0630 C   0  0  0  0  0  3  0  0  0  0  0  0
  -21.9230   -7.3470   21.1340 O   0  0  0  0  0  0  0  0  0  0  0  0
  -21.8760   -6.5660   22.2610 C   0  0  0  0  0  0  0  0  0  0  0  0
  -21.4740   -7.0860   23.5120 C   0  0  0  0  0  3  0  0  0  0  0  0
  -21.3720   -6.2320   24.6290 C   0  0  0  0  0  3  0  0  0  0  0  0
  -21.6610   -4.8620   24.4970 C   0  0  0  0  0  0  0  0  0  0  0  0
  -22.0560   -4.3410   23.2520 C   0  0  0  0  0  3  0  0  0  0  0  0
  -22.1590   -5.1920   22.1370 C   0  0  0  0  0  0  0  0  0  0  0  0
  -22.5190   -4.6810   20.9340 F   0  0  0  0  0  0  0  0  0  0  0  0
  -21.5580   -4.0410   25.5690 F   0  0  0  0  0  0  0  0  0  0  0  0
  -23.2690  -13.9480   21.2720 C   0  0  0  0  0  0  0  0  0  0  0  0
  -22.6160  -13.2140   22.1660 N   0  0  0  0  0  0  0  0  0  0  0  0
  -22.8150  -15.0220   20.8790 O   0  0  0  0  0  0  0  0  0  0  0  0
  -22.9980  -12.3430   22.5070 H   0  0  0  0  0  0  0  0  0  0  0  0
  -21.7230  -13.5270   22.5200 H   0  0  0  0  0  0  0  0  0  0  0  0
  -25.8660  -15.5850   20.3060 N   0  0  0  0  0  0  0  0  0  0  0  0
  -25.1480  -16.2530   20.5620 H   0  0  0  0  0  0  0  0  0  0  0  0
  -26.6890  -16.0270   19.9130 H   0  0  0  0  0  0  0  0  0  0  0  0
  -28.3610  -21.6480   20.4020 C   0  0  0  0  0  3  0  0  0  0  0  0
  -28.7940  -22.9640   19.6710 C   0  0  0  0  0  3  0  0  0  0  0  0
  -28.0110  -24.2680   20.0790 C   0  0  0  0  0  2  0  0  0  0  0  0
  -28.2740  -25.5280   19.1840 C   0  0  0  0  0  2  0  0  0  0  0  0
  -28.1650  -26.8290   19.8180 O   0  0  0  0  0  0  0  0  0  0  0  0
  -24.4840  -31.9470   23.1690 C   0  0  0  0  0  0  0  0  0  0  0  0
  -26.9810  -27.5560   19.8470 C   0  0  0  0  0  0  0  0  0  0  0  0
  -23.2080  -30.6040   21.5330 C   0  0  0  0  0  3  0  0  0  0  0  0
  -24.5960  -29.1000   19.9990 C   0  0  0  0  0  0  0  0  0  0  0  0
  -25.7300  -30.9460   21.2490 C   0  0  0  0  0  2  0  0  0  0  0  0
  -25.7800  -29.5920   20.5610 C   0  0  0  0  0  0  0  0  0  0  0  0
  -26.9690  -28.8260   20.4830 C   0  0  0  0  0  3  0  0  0  0  0  0
  -25.7740  -27.0870   19.2820 C   0  0  0  0  0  3  0  0  0  0  0  0
  -24.5910  -27.8490   19.3560 C   0  0  0  0  0  3  0  0  0  0  0  0
  -23.3590  -29.9640   20.1260 C   0  0  0  0  0  2  0  0  0  0  0  0
  -24.4960  -31.1820   22.0410 N   0  0  0  0  0  0  0  0  0  0  0  0
  -23.4270  -32.2070   23.7600 O   0  0  0  0  0  0  0  0  0  0  0  0
  -22.5890  -29.5560   22.4870 C   0  0  0  0  0  0  0  0  0  0  0  0
  -21.2750  -29.3190   22.3450 N   0  0  0  0  0  0  0  0  0  0  0  0
  -23.2890  -28.9590   23.3080 O   0  0  0  0  0  0  0  0  0  0  0  0
  -20.7690  -29.8540   21.6540 H   0  0  0  0  0  0  0  0  0  0  0  0
  -17.9630  -27.9330   22.7550 C   0  0  0  0  0  0  0  0  0  0  0  0
  -20.4910  -28.3460   23.1040 C   0  0  0  0  0  3  0  0  0  0  0  0
  -20.6950  -26.9150   22.5510 C   0  0  0  0  0  2  0  0  0  0  0  0
  -19.6460  -26.5140   21.5090 C   0  0  0  0  0  2  0  0  0  0  0  0
  -18.2390  -26.5870   22.1070 C   0  0  0  0  0  2  0  0  0  0  0  0
  -19.0200  -28.7660   23.2090 C   0  0  0  0  0  0  0  0  0  0  0  0
  -18.7090  -30.0230   23.7700 C   0  0  0  0  0  3  0  0  0  0  0  0
  -17.3730  -30.4490   23.8880 C   0  0  0  0  0  3  0  0  0  0  0  0
  -16.3290  -29.6140   23.4530 C   0  0  0  0  0  3  0  0  0  0  0  0
  -16.6240  -28.3590   22.8920 C   0  0  0  0  0  3  0  0  0  0  0  0
  -25.7960  -32.5540   23.7580 C   0  0  0  0  0  3  0  0  0  0  0  0
  -26.3400  -31.7630   25.0110 C   0  0  1  0  0  0  0  0  0  0  0  0
  -25.2710  -31.5110   26.1000 C   0  0  0  0  0  1  0  0  0  0  0  0
  -26.9120  -30.3910   24.5850 C   0  0  0  0  0  1  0  0  0  0  0  0
  -27.5040  -32.5460   25.6610 C   0  0  0  0  0  1  0  0  0  0  0  0
  -25.5170  -33.9530   24.1110 N   0  0  0  0  0  0  0  0  0  0  0  0
  -25.8470  -35.0090   23.3560 C   0  0  0  0  0  0  0  0  0  0  0  0
  -26.4900  -34.9070   22.3070 O   0  0  0  0  0  0  0  0  0  0  0  0
  -24.9470  -34.1060   24.9300 H   0  0  0  0  0  0  0  0  0  0  0  0
  -24.1330  -36.8280   23.0710 C   0  0  0  0  0  1  0  0  0  0  0  0
  -25.3920  -36.3990   23.8410 C   0  0  0  0  0  3  0  0  0  0  0  0
  -27.5610  -37.2530   24.6180 C   0  0  0  0  0  1  0  0  0  0  0  0
  -26.4350  -37.4400   23.7060 N   0  0  0  0  0  0  0  0  0  0  0  0
  -26.0450  -38.3650   23.8660 H   0  0  0  0  0  0  0  0  0  0  0  0
  1  3  2  0
  1  6  1  0
  2  1  1  0
  4  2  2  0
  4  5  1  0
  5 50  1  0
  5  3  1  0
  6  7  1  0
  7  8  1  0
 10  9  1  0
 10  8  1  0
 11  2  1  0
 11 20  1  0
 12 20  1  0
 13 18  1  0
 14 15  1  0
 14 13  1  0
 16 15  1  0
 16 25  1  0
 16 17  1  0
 18 12  1  0
 18 17  1  0
 19 12  2  0
 20 21  1  0
 22 23  2  0
 23 42  1  0
 24 27  1  0
 24 23  1  0
 25 26  1  0
 25 22  1  0
 26 24  2  0
 27 28  1  0
 28 29  2  0
 30 33  1  0
 30 29  1  0
 31 30  2  0
 32 31  1  0
 32 27  2  0
 33 34  1  0
 34 35  1  0
 35 36  2  0
 37 36  1  0
 37 41  1  0
 38 37  2  0
 39 34  2  0
 39 38  1  0
 40 39  1  0
 42 43  1  0
 43 45  1  0
 43 46  1  0
 44 42  2  0
 47 22  1  0
 47 48  1  0
 49 47  1  0
 51 52  1  0
 51 50  2  0
 53 54  1  0
 53 52  1  0
 54 56  1  0
 55 66  2  0
 56 61  1  0
 57 65  1  0
 57 67  1  0
 58 64  1  0
 58 60  1  0
 59 65  1  0
 60 59  1  0
 61 60  2  0
 62 63  1  0
 62 56  2  0
 63 58  2  0
 64 57  1  0
 65 55  1  0
 67 69  2  0
 68 67  1  0
 70 68  1  0
 71 80  2  0
 71 76  1  0
 72 68  1  0
 72 76  1  0
 73 72  1  0
 74 75  1  0
 74 73  1  0
 75 71  1  0
 76 77  2  0
 77 78  1  0
 79 78  2  0
 80 79  1  0
 81 55  1  0
 81 86  1  0
 81 82  1  0
 82 85  1  1
 82 83  1  0
 84 82  1  0
 86 89  1  0
 87 91  1  0
 87 86  1  0
 88 87  2  0
 91 90  1  0
 93 91  1  0
 93 94  1  0
 93 92  1  0
M  ISO  4  12 100  20 100  53 101  54 101
M  END
>  <TORSDO>  (61) 
F 25

>  <SCORE>  (61) 
-7.899

>  <name>  (61) 
61

>  <ligand_id>  (61) 
61

>  <original_smiles>  (61) 
[H]c1c([H])c([H])c2c(c1[H])C([H])([H])C([H])([H])C([H])([H])C2([H])N([H])C(=O)C1([H])N(C(=O)C([H])(N([H])C(=O)C([H])(N([H])C([H])([H])[H])C([H])([H])[H])C(C([H])([H])[H])(C([H])([H])[H])C([H])([H])[H])C([H])([H])c2c([H])c(OC([H])([H])C([H])([H])C([H])([H])C([H])([H])n3nc(C([H])([H])N([H])C(=O)N4C([H])([H])C([H])([H])C([H])([H])C([H])(n5nc(-c6c([H])c([H])c(Oc7c([H])c([H])c(F)c([H])c7F)c([H])c6[H])c(C(=O)N([H])[H])c5N([H])[H])C4([H])[H])c(C([H])([H])C([H])([H])C([H])([H])C([H])([H])C([H])([H])[H])n3)c([H])c([H])c2C1([H])[H]

>  <smiles>  (61) 
[H]c1c([H])c([H])c2c(c1[H])C([H])([H])C([H])([H])C([H])([H])C2([H])N([H])C(=O)C1([H])N(C(=O)C([H])(N([H])C(=O)C([H])(N([H])C([H])([H])[H])C([H])([H])[H])C(C([H])([H])[H])(C([H])([H])[H])C([H])([H])[H])C([H])([H])c2c([H])c(OC([H])([H])C([H])([H])C([H])([H])C([H])([H])n3nc(C([H])([H])N([H])C(=O)N4C([H])([H])C([H])([H])C([H])([H])C([H])(n5nc(-c6c([H])c([H])c(Oc7c([H])c([H])c(F)c([H])c7F)c([H])c6[H])c(C(=O)N([H])[H])c5N([H])[H])C4([H])[H])c(C([H])([H])C([H])([H])C([H])([H])C([H])([H])C([H])([H])[H])n3)c([H])c([H])c2C1([H])[H]

$$$$
62:0:0
     RDKit          3D

 93101  0  0  1  0  0  0  0  0999 V2000
  -30.6230  -22.7180   20.8880 C   0  0  0  0  0  3  0  0  0  0  0  0
  -28.9550  -23.6600   18.8440 C   0  0  0  0  0  3  0  0  0  0  0  0
  -30.8770  -23.9760   20.3020 C   0  0  0  0  0  0  0  0  0  0  0  0
  -28.7650  -22.3610   19.3600 C   0  0  0  0  0  0  0  0  0  0  0  0
  -29.5430  -21.9230   20.4580 C   0  0  0  0  0  0  0  0  0  0  0  0
  -29.9950  -24.4900   19.3120 C   0  0  0  0  0  0  0  0  0  0  0  0
  -32.1070  -24.7450   20.7440 C   0  0  0  0  0  1  0  0  0  0  0  0
  -27.7550  -21.4470   18.6790 C   0  0  0  0  0  1  0  0  0  0  0  0
  -29.2470  -20.6220   21.1990 C   0  0  0  0  0  2  0  0  0  0  0  0
  -30.2540  -19.5000   20.9060 C   0  0  0  0  0  2  0  0  0  0  0  0
  -29.6910  -18.0790   21.1550 C   0  0  0  0  0  2  0  0  0  0  0  0
  -30.7110  -16.9740   20.8080 C   0  0  0  0  0  2  0  0  0  0  0  0
  -30.7940  -14.5800   20.2030 C   0  0  0  0  0  0  0  0  0  0  0  0
  -30.4380  -12.4510   19.0240 C   0  0  0  0  0  2  0  0  0  0  0  0
  -29.4360  -12.6600   17.8700 C   0  0  0  0  0  2  0  0  0  0  0  0
  -27.9790  -12.5180   18.3590 C   0  0  0  0  0  2  0  0  0  0  0  0
  -27.6950  -13.3270   19.6550 C   0  0  0  0  0  3  0  0  0  0  0  0
  -28.8030  -13.1060   20.7120 C   0  0  0  0  0  2  0  0  0  0  0  0
  -30.1010  -13.4140   20.0880 N   0  0  0  0  0  0  0  0  0  0  0  0
  -31.8760  -14.7620   19.6450 O   0  0  0  0  0  0  0  0  0  0  0  0
  -30.1790  -15.5990   20.8350 N   0  0  0  0  0  0  0  0  0  0  0  0
  -29.2860  -15.4300   21.2680 H   0  0  0  0  0  0  0  0  0  0  0  0
  -25.3280  -13.8910   20.4930 C   0  0  0  0  0  0  0  0  0  0  0  0
  -24.2820  -13.1000   20.8960 C   0  0  0  0  0  0  0  0  0  0  0  0
  -24.7530  -11.7540   20.8130 C   0  0  0  0  0  0  0  0  0  0  0  0
  -26.3680  -13.0230   20.1930 N   0  0  0  0  0  0  0  0  0  0  0  0
  -26.0280  -11.7310   20.4450 N   0  0  0  0  0  0  0  0  0  0  0  0
  -24.0460  -10.4780   21.0110 C   0  0  0  0  0  0  0  0  0  0  0  0
  -24.4840   -9.5300   21.9630 C   0  0  0  0  0  3  0  0  0  0  0  0
  -23.7730   -8.3250   22.1500 C   0  0  0  0  0  3  0  0  0  0  0  0
  -22.6120   -8.0590   21.3890 C   0  0  0  0  0  0  0  0  0  0  0  0
  -22.1970   -8.9940   20.4260 C   0  0  0  0  0  3  0  0  0  0  0  0
  -22.9070  -10.1920   20.2370 C   0  0  0  0  0  3  0  0  0  0  0  0
  -21.8770   -6.9040   21.4800 O   0  0  0  0  0  0  0  0  0  0  0  0
  -21.7720   -6.2050   22.6570 C   0  0  0  0  0  0  0  0  0  0  0  0
  -21.1920   -6.7740   23.8120 C   0  0  0  0  0  3  0  0  0  0  0  0
  -21.0460   -6.0030   24.9820 C   0  0  0  0  0  3  0  0  0  0  0  0
  -21.4650   -4.6580   24.9950 C   0  0  0  0  0  0  0  0  0  0  0  0
  -22.0420   -4.0880   23.8470 C   0  0  0  0  0  3  0  0  0  0  0  0
  -22.1910   -4.8600   22.6800 C   0  0  0  0  0  0  0  0  0  0  0  0
  -22.7240   -4.2970   21.5690 F   0  0  0  0  0  0  0  0  0  0  0  0
  -21.3200   -3.9130   26.1160 F   0  0  0  0  0  0  0  0  0  0  0  0
  -22.8970  -13.5570   21.2480 C   0  0  0  0  0  0  0  0  0  0  0  0
  -22.2120  -12.8290   22.1270 N   0  0  0  0  0  0  0  0  0  0  0  0
  -22.4280  -14.5930   20.7820 O   0  0  0  0  0  0  0  0  0  0  0  0
  -22.6100  -11.9940   22.5330 H   0  0  0  0  0  0  0  0  0  0  0  0
  -21.2850  -13.1140   22.4030 H   0  0  0  0  0  0  0  0  0  0  0  0
  -25.4740  -15.2660   20.3400 N   0  0  0  0  0  0  0  0  0  0  0  0
  -24.7010  -15.9090   20.4860 H   0  0  0  0  0  0  0  0  0  0  0  0
  -26.3060  -15.7160   19.9780 H   0  0  0  0  0  0  0  0  0  0  0  0
  -30.1730  -25.8810   18.6880 C   0  0  0  0  0  2  0  0  0  0  0  0
  -28.9080  -26.7760   18.6530 C   0  0  0  0  0  2  0  0  0  0  0  0
  -28.2120  -26.7840   19.8930 O   0  0  0  0  0  0  0  0  0  0  0  0
  -24.4620  -31.8570   23.1310 C   0  0  0  0  0  0  0  0  0  0  0  0
  -27.0490  -27.5140   19.8980 C   0  0  0  0  0  0  0  0  0  0  0  0
  -23.2180  -30.5040   21.4670 C   0  0  0  0  0  3  0  0  0  0  0  0
  -24.6480  -28.9910   19.9840 C   0  0  0  0  0  0  0  0  0  0  0  0
  -25.7380  -30.8560   21.2470 C   0  0  0  0  0  2  0  0  0  0  0  0
  -25.8080  -29.5010   20.5800 C   0  0  0  0  0  0  0  0  0  0  0  0
  -27.0080  -28.7650   20.5460 C   0  0  0  0  0  3  0  0  0  0  0  0
  -25.8810  -27.0070   19.2940 C   0  0  0  0  0  3  0  0  0  0  0  0
  -24.6780  -27.7430   19.3370 C   0  0  0  0  0  3  0  0  0  0  0  0
  -23.4070  -29.8460   20.0690 C   0  0  0  0  0  2  0  0  0  0  0  0
  -24.4880  -31.0920   22.0040 N   0  0  0  0  0  0  0  0  0  0  0  0
  -23.3950  -32.1230   23.6990 O   0  0  0  0  0  0  0  0  0  0  0  0
  -22.5700  -29.4730   22.4180 C   0  0  0  0  0  0  0  0  0  0  0  0
  -21.2410  -29.3110   22.3120 N   0  0  0  0  0  0  0  0  0  0  0  0
  -23.2610  -28.8160   23.2000 O   0  0  0  0  0  0  0  0  0  0  0  0
  -20.7430  -29.8990   21.6580 H   0  0  0  0  0  0  0  0  0  0  0  0
  -17.8600  -28.1530   22.8510 C   0  0  0  0  0  0  0  0  0  0  0  0
  -20.4280  -28.3630   23.0740 C   0  0  0  0  0  3  0  0  0  0  0  0
  -20.4940  -26.9480   22.4530 C   0  0  0  0  0  2  0  0  0  0  0  0
  -19.3660  -26.6730   21.4530 C   0  0  0  0  0  2  0  0  0  0  0  0
  -18.0000  -26.8210   22.1310 C   0  0  0  0  0  2  0  0  0  0  0  0
  -19.0000  -28.8830   23.2800 C   0  0  0  0  0  0  0  0  0  0  0  0
  -18.8150  -30.1300   23.9140 C   0  0  0  0  0  3  0  0  0  0  0  0
  -17.5240  -30.6500   24.1210 C   0  0  0  0  0  3  0  0  0  0  0  0
  -16.3980  -29.9170   23.7070 C   0  0  0  0  0  3  0  0  0  0  0  0
  -16.5670  -28.6690   23.0790 C   0  0  0  0  0  3  0  0  0  0  0  0
  -25.7670  -32.4590   23.7440 C   0  0  0  0  0  3  0  0  0  0  0  0
  -25.4950  -33.8610   24.0860 N   0  0  0  0  0  0  0  0  0  0  0  0
  -25.8610  -34.9090   23.3350 C   0  0  0  0  0  0  0  0  0  0  0  0
  -26.5330  -34.7980   22.3060 O   0  0  0  0  0  0  0  0  0  0  0  0
  -24.9050  -34.0230   24.8880 H   0  0  0  0  0  0  0  0  0  0  0  0
  -24.2100  -36.7660   22.9580 C   0  0  0  0  0  1  0  0  0  0  0  0
  -25.4090  -36.3060   23.8010 C   0  0  0  0  0  3  0  0  0  0  0  0
  -27.5380  -37.1100   24.7240 C   0  0  0  0  0  1  0  0  0  0  0  0
  -26.4820  -37.3230   23.7380 N   0  0  0  0  0  0  0  0  0  0  0  0
  -26.1010  -38.2560   23.8790 H   0  0  0  0  0  0  0  0  0  0  0  0
  -26.2840  -31.6680   25.0070 C   0  0  1  0  0  0  0  0  0  0  0  0
  -25.1980  -31.4380   26.0830 C   0  0  0  0  0  1  0  0  0  0  0  0
  -26.8430  -30.2860   24.5930 C   0  0  0  0  0  1  0  0  0  0  0  0
  -27.4570  -32.4330   25.6650 C   0  0  0  0  0  1  0  0  0  0  0  0
  2  6  2  0
  2  4  1  0
  3  7  1  0
  3  1  2  0
  4  5  2  0
  5  1  1  0
  5  9  1  0
  6  3  1  0
  8  4  1  0
 10 11  1  0
 10  9  1  0
 12 21  1  0
 12 11  1  0
 13 21  1  0
 14 19  1  0
 15 16  1  0
 15 14  1  0
 17 16  1  0
 17 26  1  0
 17 18  1  0
 19 13  1  0
 19 18  1  0
 20 13  2  0
 21 22  1  0
 23 24  2  0
 24 43  1  0
 25 24  1  0
 25 28  1  0
 26 27  1  0
 26 23  1  0
 27 25  2  0
 28 29  1  0
 29 30  2  0
 31 34  1  0
 31 30  1  0
 32 31  2  0
 33 32  1  0
 33 28  2  0
 34 35  1  0
 35 40  2  0
 35 36  1  0
 36 37  2  0
 37 38  1  0
 38 42  1  0
 39 38  2  0
 40 39  1  0
 41 40  1  0
 43 44  1  0
 44 47  1  0
 44 46  1  0
 45 43  2  0
 48 49  1  0
 48 23  1  0
 50 48  1  0
 51  6  1  0
 52 51  1  0
 52 53  1  0
 53 55  1  0
 54 65  2  0
 55 60  1  0
 56 64  1  0
 56 66  1  0
 57 63  1  0
 57 59  1  0
 58 64  1  0
 59 58  1  0
 60 59  2  0
 61 62  1  0
 61 55  2  0
 62 57  2  0
 63 56  1  0
 64 54  1  0
 66 68  2  0
 67 66  1  0
 69 67  1  0
 70 79  2  0
 70 75  1  0
 71 67  1  0
 71 75  1  0
 72 71  1  0
 73 74  1  0
 73 72  1  0
 74 70  1  0
 75 76  2  0
 76 77  1  0
 78 77  2  0
 79 78  1  0
 80 54  1  0
 80 81  1  0
 80 90  1  0
 81 84  1  0
 82 86  1  0
 82 81  1  0
 83 82  2  0
 86 85  1  0
 88 86  1  0
 88 89  1  0
 88 87  1  0
 90 93  1  1
 90 91  1  0
 92 90  1  0
M  ISO  4  13 100  21 100  52 101  53 101
M  END
>  <TORSDO>  (62) 
F 22

>  <SCORE>  (62) 
-12.760

>  <name>  (62) 
62

>  <ligand_id>  (62) 
62

>  <original_smiles>  (62) 
[H]c1c([H])c([H])c2c(c1[H])C([H])([H])C([H])([H])C([H])([H])C2([H])N([H])C(=O)C1([H])N(C(=O)C([H])(N([H])C(=O)C([H])(N([H])C([H])([H])[H])C([H])([H])[H])C(C([H])([H])[H])(C([H])([H])[H])C([H])([H])[H])C([H])([H])c2c([H])c(OC([H])([H])C([H])([H])c3c([H])c(C([H])([H])[H])c(C([H])([H])C([H])([H])C([H])([H])C([H])([H])N([H])C(=O)N4C([H])([H])C([H])([H])C([H])([H])C([H])(n5nc(-c6c([H])c([H])c(Oc7c([H])c([H])c(F)c([H])c7F)c([H])c6[H])c(C(=O)N([H])[H])c5N([H])[H])C4([H])[H])c([H])c3C([H])([H])[H])c([H])c([H])c2C1([H])[H]

>  <smiles>  (62) 
[H]c1c([H])c([H])c2c(c1[H])C([H])([H])C([H])([H])C([H])([H])C2([H])N([H])C(=O)C1([H])N(C(=O)C([H])(N([H])C(=O)C([H])(N([H])C([H])([H])[H])C([H])([H])[H])C(C([H])([H])[H])(C([H])([H])[H])C([H])([H])[H])C([H])([H])c2c([H])c(OC([H])([H])C([H])([H])c3c([H])c(C([H])([H])[H])c(C([H])([H])C([H])([H])C([H])([H])C([H])([H])N([H])C(=O)N4C([H])([H])C([H])([H])C([H])([H])C([H])(n5nc(-c6c([H])c([H])c(Oc7c([H])c([H])c(F)c([H])c7F)c([H])c6[H])c(C(=O)N([H])[H])c5N([H])[H])C4([H])[H])c([H])c3C([H])([H])[H])c([H])c([H])c2C1([H])[H]

$$$$
63:0:0
     RDKit          3D

 95103  0  0  1  0  0  0  0  0999 V2000
  -29.8740  -24.2260   15.1050 C   0  0  0  0  0  3  0  0  0  0  0  0
  -29.8290  -24.9200   16.3240 C   0  0  0  0  0  3  0  0  0  0  0  0
  -30.9640  -22.3640   16.2300 C   0  0  0  0  0  3  0  0  0  0  0  0
  -30.4160  -22.9300   15.0600 C   0  0  0  0  0  0  0  0  0  0  0  0
  -30.3110  -24.3410   17.5210 C   0  0  0  0  0  0  0  0  0  0  0  0
  -30.9460  -23.0670   17.4570 C   0  0  0  0  0  0  0  0  0  0  0  0
  -29.0110  -21.8680   13.2360 C   0  0  0  0  0  1  0  0  0  0  0  0
  -30.4270  -22.1730   13.7430 C   0  0  0  0  0  2  0  0  0  0  0  0
  -30.1020  -25.1240   18.8240 C   0  0  0  0  0  2  0  0  0  0  0  0
  -28.6410  -25.5870   18.9820 C   0  0  0  0  0  2  0  0  0  0  0  0
  -28.4580  -26.5140   20.0530 O   0  0  0  0  0  0  0  0  0  0  0  0
  -24.5420  -31.6300   23.1000 C   0  0  0  0  0  0  0  0  0  0  0  0
  -27.2590  -27.2000   20.0650 C   0  0  0  0  0  0  0  0  0  0  0  0
  -23.3770  -30.2440   21.4150 C   0  0  0  0  0  3  0  0  0  0  0  0
  -24.8610  -28.7030   20.0400 C   0  0  0  0  0  0  0  0  0  0  0  0
  -25.9100  -30.5880   21.3000 C   0  0  0  0  0  2  0  0  0  0  0  0
  -26.0040  -29.2180   20.6630 C   0  0  0  0  0  0  0  0  0  0  0  0
  -27.2020  -28.4690   20.6840 C   0  0  0  0  0  3  0  0  0  0  0  0
  -26.0840  -26.6890   19.4610 C   0  0  0  0  0  3  0  0  0  0  0  0
  -24.8930  -27.4340   19.4420 C   0  0  0  0  0  3  0  0  0  0  0  0
  -23.6270  -29.5710   20.0400 C   0  0  0  0  0  2  0  0  0  0  0  0
  -24.6260  -30.8350   21.9970 N   0  0  0  0  0  0  0  0  0  0  0  0
  -23.4460  -31.9050   23.6090 O   0  0  0  0  0  0  0  0  0  0  0  0
  -22.6910  -29.2190   22.3490 C   0  0  0  0  0  0  0  0  0  0  0  0
  -21.3640  -29.0740   22.2040 N   0  0  0  0  0  0  0  0  0  0  0  0
  -23.3490  -28.5600   23.1590 O   0  0  0  0  0  0  0  0  0  0  0  0
  -20.8960  -29.6570   21.5240 H   0  0  0  0  0  0  0  0  0  0  0  0
  -17.9490  -27.9880   22.6700 C   0  0  0  0  0  0  0  0  0  0  0  0
  -20.5150  -28.1440   22.9480 C   0  0  0  0  0  3  0  0  0  0  0  0
  -20.5650  -26.7280   22.3300 C   0  0  0  0  0  2  0  0  0  0  0  0
  -19.4510  -26.4740   21.3080 C   0  0  0  0  0  2  0  0  0  0  0  0
  -18.0760  -26.6520   21.9580 C   0  0  0  0  0  2  0  0  0  0  0  0
  -19.0950  -28.6970   23.1200 C   0  0  0  0  0  0  0  0  0  0  0  0
  -18.9230  -29.9520   23.7450 C   0  0  0  0  0  3  0  0  0  0  0  0
  -17.6360  -30.4960   23.9260 C   0  0  0  0  0  3  0  0  0  0  0  0
  -16.5050  -29.7830   23.4920 C   0  0  0  0  0  3  0  0  0  0  0  0
  -16.6620  -28.5330   22.8690 C   0  0  0  0  0  3  0  0  0  0  0  0
  -25.8120  -32.2490   23.7610 C   0  0  0  0  0  3  0  0  0  0  0  0
  -26.2880  -31.4660   25.0460 C   0  0  1  0  0  0  0  0  0  0  0  0
  -25.1650  -31.2310   26.0810 C   0  0  0  0  0  1  0  0  0  0  0  0
  -26.8720  -30.0880   24.6600 C   0  0  0  0  0  1  0  0  0  0  0  0
  -27.4250  -32.2490   25.7430 C   0  0  0  0  0  1  0  0  0  0  0  0
  -25.5040  -33.6480   24.0870 N   0  0  0  0  0  0  0  0  0  0  0  0
  -25.8750  -34.6990   23.3430 C   0  0  0  0  0  0  0  0  0  0  0  0
  -26.5850  -34.5930   22.3380 O   0  0  0  0  0  0  0  0  0  0  0  0
  -24.8880  -33.8090   24.8700 H   0  0  0  0  0  0  0  0  0  0  0  0
  -24.1760  -36.5030   22.9240 C   0  0  0  0  0  1  0  0  0  0  0  0
  -25.3800  -36.0890   23.7850 C   0  0  0  0  0  3  0  0  0  0  0  0
  -27.4860  -36.9510   24.7060 C   0  0  0  0  0  1  0  0  0  0  0  0
  -26.4250  -37.1350   23.7200 N   0  0  0  0  0  0  0  0  0  0  0  0
  -26.0190  -38.0570   23.8580 H   0  0  0  0  0  0  0  0  0  0  0  0
  -31.6980  -22.4550   18.6360 C   0  0  0  0  0  2  0  0  0  0  0  0
  -30.9050  -21.4270   19.4690 C   0  0  0  0  0  2  0  0  0  0  0  0
  -31.1210  -19.9490   19.0630 C   0  0  0  0  0  2  0  0  0  0  0  0
  -30.7630  -18.9820   20.2130 C   0  0  0  0  0  2  0  0  0  0  0  0
  -31.0370  -17.4920   19.9360 C   0  0  0  0  0  2  0  0  0  0  0  0
  -30.8320  -16.6300   21.2070 C   0  0  0  0  0  2  0  0  0  0  0  0
  -31.0130  -14.3070   20.2230 C   0  0  0  0  0  0  0  0  0  0  0  0
  -30.5760  -12.2380   18.9540 C   0  0  0  0  0  2  0  0  0  0  0  0
  -29.6160  -12.5640   17.7920 C   0  0  0  0  0  2  0  0  0  0  0  0
  -28.1480  -12.4670   18.2520 C   0  0  0  0  0  2  0  0  0  0  0  0
  -27.8790  -13.2550   19.5610 C   0  0  0  0  0  3  0  0  0  0  0  0
  -28.9470  -12.9120   20.6260 C   0  0  0  0  0  2  0  0  0  0  0  0
  -30.2800  -13.1770   20.0460 N   0  0  0  0  0  0  0  0  0  0  0  0
  -32.1010  -14.5100   19.6800 O   0  0  0  0  0  0  0  0  0  0  0  0
  -30.4060  -15.2530   20.9500 N   0  0  0  0  0  0  0  0  0  0  0  0
  -29.5270  -14.9780   21.3600 H   0  0  0  0  0  0  0  0  0  0  0  0
  -25.5000  -13.9320   20.2770 C   0  0  0  0  0  0  0  0  0  0  0  0
  -24.4160  -13.1860   20.6660 C   0  0  0  0  0  0  0  0  0  0  0  0
  -24.8490  -11.8260   20.6550 C   0  0  0  0  0  0  0  0  0  0  0  0
  -26.5230  -13.0230   20.0560 N   0  0  0  0  0  0  0  0  0  0  0  0
  -26.1340  -11.7530   20.3360 N   0  0  0  0  0  0  0  0  0  0  0  0
  -24.0980  -10.5850   20.8780 C   0  0  0  0  0  0  0  0  0  0  0  0
  -24.5170   -9.6290   21.8280 C   0  0  0  0  0  3  0  0  0  0  0  0
  -23.7700   -8.4510   22.0380 C   0  0  0  0  0  3  0  0  0  0  0  0
  -22.5870   -8.2200   21.2960 C   0  0  0  0  0  0  0  0  0  0  0  0
  -22.1860   -9.1620   20.3330 C   0  0  0  0  0  3  0  0  0  0  0  0
  -22.9350  -10.3330   20.1230 C   0  0  0  0  0  3  0  0  0  0  0  0
  -21.8110   -7.0920   21.4160 O   0  0  0  0  0  0  0  0  0  0  0  0
  -21.7520   -6.3760   22.5840 C   0  0  0  0  0  0  0  0  0  0  0  0
  -21.3430   -6.9650   23.8000 C   0  0  0  0  0  3  0  0  0  0  0  0
  -21.2340   -6.1790   24.9630 C   0  0  0  0  0  3  0  0  0  0  0  0
  -21.5180   -4.8010   24.9100 C   0  0  0  0  0  0  0  0  0  0  0  0
  -21.9190   -4.2090   23.6990 C   0  0  0  0  0  3  0  0  0  0  0  0
  -22.0340   -4.9960   22.5390 C   0  0  0  0  0  0  0  0  0  0  0  0
  -22.4000   -4.4170   21.3690 F   0  0  0  0  0  0  0  0  0  0  0  0
  -21.4040   -4.0410   26.0240 F   0  0  0  0  0  0  0  0  0  0  0  0
  -23.0330  -13.6970   20.9430 C   0  0  0  0  0  0  0  0  0  0  0  0
  -22.3030  -13.0340   21.8330 N   0  0  0  0  0  0  0  0  0  0  0  0
  -22.6080  -14.7190   20.4070 O   0  0  0  0  0  0  0  0  0  0  0  0
  -22.6600  -12.2070   22.2840 H   0  0  0  0  0  0  0  0  0  0  0  0
  -21.3750  -13.3560   22.0660 H   0  0  0  0  0  0  0  0  0  0  0  0
  -25.6910  -15.2930   20.0770 N   0  0  0  0  0  0  0  0  0  0  0  0
  -24.9430  -15.9670   20.1970 H   0  0  0  0  0  0  0  0  0  0  0  0
  -26.5550  -15.7150   19.7570 H   0  0  0  0  0  0  0  0  0  0  0  0
  1  2  1  0
  2  5  2  0
  3  6  2  0
  4  1  2  0
  4  3  1  0
  5  9  1  0
  6  5  1  0
  6 52  1  0
  7  8  1  0
  8  4  1  0
  9 10  1  0
 10 11  1  0
 11 13  1  0
 12 23  2  0
 13 18  1  0
 14 22  1  0
 14 24  1  0
 15 17  1  0
 16 22  1  0
 17 18  2  0
 17 16  1  0
 19 13  2  0
 20 19  1  0
 20 15  2  0
 21 15  1  0
 21 14  1  0
 22 12  1  0
 24 26  2  0
 25 24  1  0
 27 25  1  0
 28 37  2  0
 28 33  1  0
 29 25  1  0
 29 33  1  0
 30 29  1  0
 31 32  1  0
 31 30  1  0
 32 28  1  0
 33 34  2  0
 34 35  1  0
 36 35  2  0
 37 36  1  0
 38 12  1  0
 38 43  1  0
 38 39  1  0
 39 42  1  1
 39 40  1  0
 41 39  1  0
 43 46  1  0
 44 48  1  0
 44 43  1  0
 45 44  2  0
 48 47  1  0
 50 48  1  0
 50 51  1  0
 50 49  1  0
 52 53  1  0
 54 53  1  0
 54 55  1  0
 56 55  1  0
 56 57  1  0
 58 66  1  0
 59 64  1  0
 60 61  1  0
 60 59  1  0
 62 61  1  0
 62 71  1  0
 62 63  1  0
 64 58  1  0
 64 63  1  0
 65 58  2  0
 66 57  1  0
 66 67  1  0
 68 69  2  0
 69 88  1  0
 70 69  1  0
 70 73  1  0
 71 68  1  0
 71 72  1  0
 72 70  2  0
 73 74  1  0
 74 75  2  0
 76 79  1  0
 76 75  1  0
 77 76  2  0
 78 77  1  0
 78 73  2  0
 79 80  1  0
 80 81  1  0
 81 82  2  0
 83 82  1  0
 83 87  1  0
 84 83  2  0
 85 80  2  0
 85 84  1  0
 86 85  1  0
 88 89  1  0
 89 92  1  0
 89 91  1  0
 90 88  2  0
 93 94  1  0
 93 68  1  0
 95 93  1  0
M  ISO  4  10 101  11 101  58 100  66 100
M  END
>  <TORSDO>  (63) 
F 25

>  <SCORE>  (63) 
-10.877

>  <name>  (63) 
63

>  <ligand_id>  (63) 
63

>  <original_smiles>  (63) 
[H]c1c([H])c([H])c2c(c1[H])C([H])([H])C([H])([H])C([H])([H])C2([H])N([H])C(=O)C1([H])N(C(=O)C([H])(N([H])C(=O)C([H])(N([H])C([H])([H])[H])C([H])([H])[H])C(C([H])([H])[H])(C([H])([H])[H])C([H])([H])[H])C([H])([H])c2c([H])c(OC([H])([H])C([H])([H])c3c([H])c([H])c(C([H])([H])C([H])([H])[H])c([H])c3C([H])([H])C([H])([H])C([H])([H])C([H])([H])C([H])([H])C([H])([H])N([H])C(=O)N3C([H])([H])C([H])([H])C([H])([H])C([H])(n4nc(-c5c([H])c([H])c(Oc6c([H])c([H])c(F)c([H])c6F)c([H])c5[H])c(C(=O)N([H])[H])c4N([H])[H])C3([H])[H])c([H])c([H])c2C1([H])[H]

>  <smiles>  (63) 
[H]c1c([H])c([H])c2c(c1[H])C([H])([H])C([H])([H])C([H])([H])C2([H])N([H])C(=O)C1([H])N(C(=O)C([H])(N([H])C(=O)C([H])(N([H])C([H])([H])[H])C([H])([H])[H])C(C([H])([H])[H])(C([H])([H])[H])C([H])([H])[H])C([H])([H])c2c([H])c(OC([H])([H])C([H])([H])c3c([H])c([H])c(C([H])([H])C([H])([H])[H])c([H])c3C([H])([H])C([H])([H])C([H])([H])C([H])([H])C([H])([H])C([H])([H])N([H])C(=O)N3C([H])([H])C([H])([H])C([H])([H])C([H])(n4nc(-c5c([H])c([H])c(Oc6c([H])c([H])c(F)c([H])c6F)c([H])c5[H])c(C(=O)N([H])[H])c4N([H])[H])C3([H])[H])c([H])c([H])c2C1([H])[H]

$$$$
64:0:0
     RDKit          3D

 96104  0  0  1  0  0  0  0  0999 V2000
  -27.3810  -24.7380   21.9770 C   0  0  0  0  0  3  0  0  0  0  0  0
  -29.0490  -23.5320   23.7720 C   0  0  0  0  0  3  0  0  0  0  0  0
  -28.6800  -25.2750   22.1150 C   0  0  0  0  0  0  0  0  0  0  0  0
  -29.5430  -24.6330   23.0480 C   0  0  0  0  0  0  0  0  0  0  0  0
  -26.9970  -23.6110   22.7250 C   0  0  0  0  0  0  0  0  0  0  0  0
  -27.8090  -23.0370   23.6330 N   0  0  0  0  0  0  0  0  0  0  0  0
  -31.9820  -23.9370   23.0200 C   0  0  0  0  0  1  0  0  0  0  0  0
  -30.9820  -25.0640   23.3240 C   0  0  0  0  0  2  0  0  0  0  0  0
  -29.1030  -26.5130   21.3060 C   0  0  0  0  0  2  0  0  0  0  0  0
  -28.3820  -26.7030   20.0760 O   0  0  0  0  0  0  0  0  0  0  0  0
  -24.6070  -31.8760   23.2120 C   0  0  0  0  0  0  0  0  0  0  0  0
  -27.2390  -27.4690   20.1160 C   0  0  0  0  0  0  0  0  0  0  0  0
  -23.3920  -30.4980   21.5560 C   0  0  0  0  0  3  0  0  0  0  0  0
  -24.8430  -28.9680   20.1190 C   0  0  0  0  0  0  0  0  0  0  0  0
  -25.9130  -30.8560   21.3530 C   0  0  0  0  0  2  0  0  0  0  0  0
  -25.9960  -29.4870   20.7170 C   0  0  0  0  0  0  0  0  0  0  0  0
  -27.1960  -28.7450   20.7190 C   0  0  0  0  0  3  0  0  0  0  0  0
  -26.0760  -26.9670   19.4970 C   0  0  0  0  0  3  0  0  0  0  0  0
  -24.8730  -27.7010   19.5100 C   0  0  0  0  0  3  0  0  0  0  0  0
  -23.5980  -29.8290   20.1690 C   0  0  0  0  0  2  0  0  0  0  0  0
  -24.6580  -31.0840   22.1040 N   0  0  0  0  0  0  0  0  0  0  0  0
  -23.5280  -32.1490   23.7550 O   0  0  0  0  0  0  0  0  0  0  0  0
  -22.7330  -29.4700   22.5030 C   0  0  0  0  0  0  0  0  0  0  0  0
  -21.4070  -29.2990   22.3780 N   0  0  0  0  0  0  0  0  0  0  0  0
  -23.4150  -28.8220   23.3010 O   0  0  0  0  0  0  0  0  0  0  0  0
  -20.9180  -29.8650   21.7010 H   0  0  0  0  0  0  0  0  0  0  0  0
  -18.0270  -28.1370   22.8550 C   0  0  0  0  0  0  0  0  0  0  0  0
  -20.5840  -28.3580   23.1370 C   0  0  0  0  0  3  0  0  0  0  0  0
  -20.6670  -26.9320   22.5400 C   0  0  0  0  0  2  0  0  0  0  0  0
  -19.5600  -26.6340   21.5200 C   0  0  0  0  0  2  0  0  0  0  0  0
  -18.1830  -26.7930   22.1640 C   0  0  0  0  0  2  0  0  0  0  0  0
  -19.1530  -28.8800   23.2950 C   0  0  0  0  0  0  0  0  0  0  0  0
  -18.9510  -30.1430   23.8910 C   0  0  0  0  0  3  0  0  0  0  0  0
  -17.6520  -30.6610   24.0550 C   0  0  0  0  0  3  0  0  0  0  0  0
  -16.5390  -29.9120   23.6350 C   0  0  0  0  0  3  0  0  0  0  0  0
  -16.7270  -28.6500   23.0440 C   0  0  0  0  0  3  0  0  0  0  0  0
  -25.8990  -32.4860   23.8430 C   0  0  0  0  0  3  0  0  0  0  0  0
  -26.4450  -31.6600   25.0710 C   0  0  1  0  0  0  0  0  0  0  0  0
  -25.3760  -31.3640   26.1480 C   0  0  0  0  0  1  0  0  0  0  0  0
  -27.0250  -30.3070   24.5980 C   0  0  0  0  0  1  0  0  0  0  0  0
  -27.6040  -32.4310   25.7440 C   0  0  0  0  0  1  0  0  0  0  0  0
  -25.5840  -33.8640   24.2380 N   0  0  0  0  0  0  0  0  0  0  0  0
  -25.9000  -34.9500   23.5180 C   0  0  0  0  0  0  0  0  0  0  0  0
  -26.5610  -34.8950   22.4760 O   0  0  0  0  0  0  0  0  0  0  0  0
  -24.9940  -33.9840   25.0480 H   0  0  0  0  0  0  0  0  0  0  0  0
  -24.1460  -36.7350   23.2650 C   0  0  0  0  0  1  0  0  0  0  0  0
  -25.4080  -36.3150   24.0380 C   0  0  0  0  0  3  0  0  0  0  0  0
  -27.5580  -37.1810   24.8480 C   0  0  0  0  0  1  0  0  0  0  0  0
  -26.4290  -37.3830   23.9430 N   0  0  0  0  0  0  0  0  0  0  0  0
  -26.0200  -38.2930   24.1410 H   0  0  0  0  0  0  0  0  0  0  0  0
  -25.6000  -23.0170   22.6060 C   0  0  0  0  0  2  0  0  0  0  0  0
  -25.6010  -21.4910   22.3870 C   0  0  0  0  0  2  0  0  0  0  0  0
  -26.0530  -21.0820   20.9720 C   0  0  0  0  0  2  0  0  0  0  0  0
  -26.3010  -19.5700   20.8130 C   0  0  0  0  0  2  0  0  0  0  0  0
  -27.4170  -19.0730   21.7430 C   0  0  0  0  0  2  0  0  0  0  0  0
  -28.1630  -17.8330   21.2290 C   0  0  0  0  0  2  0  0  0  0  0  0
  -29.4490  -17.6330   22.0500 C   0  0  0  0  0  2  0  0  0  0  0  0
  -30.5030  -16.7430   21.3880 C   0  0  0  0  0  2  0  0  0  0  0  0
  -30.7100  -14.4100   20.6090 C   0  0  0  0  0  0  0  0  0  0  0  0
  -30.4190  -12.2770   19.4130 C   0  0  0  0  0  2  0  0  0  0  0  0
  -29.4980  -12.4930   18.1960 C   0  0  0  0  0  2  0  0  0  0  0  0
  -28.0150  -12.3660   18.6090 C   0  0  0  0  0  2  0  0  0  0  0  0
  -27.6660  -13.2000   19.8740 C   0  0  0  0  0  3  0  0  0  0  0  0
  -28.6990  -12.9460   20.9960 C   0  0  0  0  0  2  0  0  0  0  0  0
  -30.0340  -13.2450   20.4520 N   0  0  0  0  0  0  0  0  0  0  0  0
  -31.8090  -14.6370   20.0970 O   0  0  0  0  0  0  0  0  0  0  0  0
  -30.0460  -15.3660   21.2720 N   0  0  0  0  0  0  0  0  0  0  0  0
  -29.1420  -15.1360   21.6590 H   0  0  0  0  0  0  0  0  0  0  0  0
  -25.2620  -13.8120   20.5620 C   0  0  0  0  0  0  0  0  0  0  0  0
  -24.1840  -13.0430   20.9180 C   0  0  0  0  0  0  0  0  0  0  0  0
  -24.6380  -11.6910   20.8730 C   0  0  0  0  0  0  0  0  0  0  0  0
  -26.3040  -12.9260   20.3310 N   0  0  0  0  0  0  0  0  0  0  0  0
  -25.9300  -11.6440   20.5750 N   0  0  0  0  0  0  0  0  0  0  0  0
  -23.9020  -10.4300   21.0410 C   0  0  0  0  0  0  0  0  0  0  0  0
  -24.3570   -9.4210   21.9180 C   0  0  0  0  0  3  0  0  0  0  0  0
  -23.6250   -8.2240   22.0750 C   0  0  0  0  0  3  0  0  0  0  0  0
  -22.4240   -8.0270   21.3530 C   0  0  0  0  0  0  0  0  0  0  0  0
  -21.9860   -9.0270   20.4640 C   0  0  0  0  0  3  0  0  0  0  0  0
  -22.7200  -10.2150   20.3050 C   0  0  0  0  0  3  0  0  0  0  0  0
  -21.6610   -6.8860   21.4240 O   0  0  0  0  0  0  0  0  0  0  0  0
  -21.6830   -6.0710   22.5270 C   0  0  0  0  0  0  0  0  0  0  0  0
  -21.4010   -6.5610   23.8210 C   0  0  0  0  0  3  0  0  0  0  0  0
  -21.3660   -5.6770   24.9180 C   0  0  0  0  0  3  0  0  0  0  0  0
  -21.6040   -4.3040   24.7240 C   0  0  0  0  0  0  0  0  0  0  0  0
  -21.8820   -3.8120   23.4360 C   0  0  0  0  0  3  0  0  0  0  0  0
  -21.9190   -4.6930   22.3410 C   0  0  0  0  0  0  0  0  0  0  0  0
  -22.1670   -4.2110   21.0980 F   0  0  0  0  0  0  0  0  0  0  0  0
  -21.5610   -3.4530   25.7750 F   0  0  0  0  0  0  0  0  0  0  0  0
  -22.7900  -13.5320   21.1890 C   0  0  0  0  0  0  0  0  0  0  0  0
  -22.0500  -12.8270   22.0400 N   0  0  0  0  0  0  0  0  0  0  0  0
  -22.3620  -14.5680   20.6850 O   0  0  0  0  0  0  0  0  0  0  0  0
  -22.4030  -11.9910   22.4780 H   0  0  0  0  0  0  0  0  0  0  0  0
  -21.1190  -13.1420   22.2650 H   0  0  0  0  0  0  0  0  0  0  0  0
  -25.4410  -15.1780   20.3930 N   0  0  0  0  0  0  0  0  0  0  0  0
  -24.6900  -15.8540   20.4860 H   0  0  0  0  0  0  0  0  0  0  0  0
  -26.3060  -15.5780   20.0520 H   0  0  0  0  0  0  0  0  0  0  0  0
  1  3  2  0
  1  5  1  0
  3  4  1  0
  4  8  1  0
  4  2  2  0
  5  6  2  0
  6  2  1  0
  7  8  1  0
  9  3  1  0
 10 12  1  0
 10  9  1  0
 11 22  2  0
 12 17  1  0
 13 21  1  0
 13 23  1  0
 14 20  1  0
 14 16  1  0
 15 21  1  0
 16 17  2  0
 16 15  1  0
 18 19  1  0
 18 12  2  0
 19 14  2  0
 20 13  1  0
 21 11  1  0
 23 25  2  0
 24 23  1  0
 26 24  1  0
 27 36  2  0
 27 32  1  0
 28 24  1  0
 28 32  1  0
 29 28  1  0
 30 31  1  0
 30 29  1  0
 31 27  1  0
 32 33  2  0
 33 34  1  0
 35 34  2  0
 36 35  1  0
 37 11  1  0
 37 42  1  0
 37 38  1  0
 38 41  1  1
 38 39  1  0
 40 38  1  0
 42 45  1  0
 43 47  1  0
 43 42  1  0
 44 43  2  0
 47 46  1  0
 49 47  1  0
 49 50  1  0
 49 48  1  0
 51  5  1  0
 52 51  1  0
 53 52  1  0
 54 53  1  0
 54 55  1  0
 56 55  1  0
 56 57  1  0
 58 57  1  0
 59 67  1  0
 60 65  1  0
 61 62  1  0
 61 60  1  0
 63 62  1  0
 63 72  1  0
 63 64  1  0
 65 59  1  0
 65 64  1  0
 66 59  2  0
 67 58  1  0
 67 68  1  0
 69 70  2  0
 70 89  1  0
 71 70  1  0
 71 74  1  0
 72 69  1  0
 72 73  1  0
 73 71  2  0
 74 75  1  0
 75 76  2  0
 77 80  1  0
 77 76  1  0
 78 77  2  0
 79 78  1  0
 79 74  2  0
 80 81  1  0
 81 82  1  0
 82 83  2  0
 84 83  1  0
 84 88  1  0
 85 84  2  0
 86 81  2  0
 86 85  1  0
 87 86  1  0
 89 90  1  0
 90 93  1  0
 90 92  1  0
 91 89  2  0
 94 95  1  0
 94 69  1  0
 96 94  1  0
M  ISO  4   9 101  10 101  59 100  67 100
M  END
>  <TORSDO>  (64) 
F 26

>  <SCORE>  (64) 
12.808

>  <name>  (64) 
64

>  <ligand_id>  (64) 
64

>  <original_smiles>  (64) 
[H]c1nc(C([H])([H])C([H])([H])C([H])([H])C([H])([H])C([H])([H])C([H])([H])C([H])([H])C([H])([H])N([H])C(=O)N2C([H])([H])C([H])([H])C([H])([H])C([H])(n3nc(-c4c([H])c([H])c(Oc5c([H])c([H])c(F)c([H])c5F)c([H])c4[H])c(C(=O)N([H])[H])c3N([H])[H])C2([H])[H])c([H])c(C([H])([H])Oc2c([H])c([H])c3c(c2[H])C([H])([H])N(C(=O)C([H])(N([H])C(=O)C([H])(N([H])C([H])([H])[H])C([H])([H])[H])C(C([H])([H])[H])(C([H])([H])[H])C([H])([H])[H])C([H])(C(=O)N([H])C2([H])c4c([H])c([H])c([H])c([H])c4C([H])([H])C([H])([H])C2([H])[H])C3([H])[H])c1C([H])([H])C([H])([H])[H]

>  <smiles>  (64) 
[H]c1nc(C([H])([H])C([H])([H])C([H])([H])C([H])([H])C([H])([H])C([H])([H])C([H])([H])C([H])([H])N([H])C(=O)N2C([H])([H])C([H])([H])C([H])([H])C([H])(n3nc(-c4c([H])c([H])c(Oc5c([H])c([H])c(F)c([H])c5F)c([H])c4[H])c(C(=O)N([H])[H])c3N([H])[H])C2([H])[H])c([H])c(C([H])([H])Oc2c([H])c([H])c3c(c2[H])C([H])([H])N(C(=O)C([H])(N([H])C(=O)C([H])(N([H])C([H])([H])[H])C([H])([H])[H])C(C([H])([H])[H])(C([H])([H])[H])C([H])([H])[H])C([H])(C(=O)N([H])C2([H])c4c([H])c([H])c([H])c([H])c4C([H])([H])C([H])([H])C2([H])[H])C3([H])[H])c1C([H])([H])C([H])([H])[H]

$$$$
65:0:0
     RDKit          3D

 93101  0  0  1  0  0  0  0  0999 V2000
  -28.8760  -22.7150   21.1960 C   0  0  0  0  0  3  0  0  0  0  0  0
  -29.8370  -22.6470   23.7680 C   0  0  0  0  0  3  0  0  0  0  0  0
  -28.9630  -23.9330   21.9070 C   0  0  0  0  0  0  0  0  0  0  0  0
  -29.4690  -23.8950   23.2300 C   0  0  0  0  0  0  0  0  0  0  0  0
  -29.2830  -21.5220   21.8210 C   0  0  0  0  0  0  0  0  0  0  0  0
  -29.7400  -21.4830   23.0910 N   0  0  0  0  0  0  0  0  0  0  0  0
  -29.6360  -25.3170   24.2030 Cl  0  0  0  0  0  0  0  0  0  0  0  0
  -28.4700  -25.2250   21.2610 C   0  0  0  0  0  2  0  0  0  0  0  0
  -29.3150  -25.7010   20.0670 C   0  0  0  0  0  2  0  0  0  0  0  0
  -28.9050  -27.0990   19.5760 C   0  0  0  0  0  2  0  0  0  0  0  0
  -27.7370  -26.9710   18.7660 O   0  0  0  0  0  0  0  0  0  0  0  0
  -24.4350  -31.7090   22.9910 C   0  0  0  0  0  0  0  0  0  0  0  0
  -26.6190  -27.6980   19.1010 C   0  0  0  0  0  0  0  0  0  0  0  0
  -23.0030  -30.4940   21.3790 C   0  0  0  0  0  3  0  0  0  0  0  0
  -24.2430  -29.1370   19.6140 C   0  0  0  0  0  0  0  0  0  0  0  0
  -25.4740  -30.9080   20.8750 C   0  0  0  0  0  2  0  0  0  0  0  0
  -25.4690  -29.6120   20.0960 C   0  0  0  0  0  0  0  0  0  0  0  0
  -26.6600  -28.8980   19.8480 C   0  0  0  0  0  3  0  0  0  0  0  0
  -25.3790  -27.2350   18.6150 C   0  0  0  0  0  3  0  0  0  0  0  0
  -24.1900  -27.9420   18.8760 C   0  0  0  0  0  3  0  0  0  0  0  0
  -23.0180  -29.9690   19.9190 C   0  0  0  0  0  2  0  0  0  0  0  0
  -24.3300  -31.0470   21.8060 N   0  0  0  0  0  0  0  0  0  0  0  0
  -23.4420  -31.9080   23.7030 O   0  0  0  0  0  0  0  0  0  0  0  0
  -22.4830  -29.3680   22.3010 C   0  0  0  0  0  0  0  0  0  0  0  0
  -21.1660  -29.1080   22.2410 N   0  0  0  0  0  0  0  0  0  0  0  0
  -23.2550  -28.7300   23.0200 O   0  0  0  0  0  0  0  0  0  0  0  0
  -20.5980  -29.6790   21.6310 H   0  0  0  0  0  0  0  0  0  0  0  0
  -17.9480  -27.5330   22.7020 C   0  0  0  0  0  0  0  0  0  0  0  0
  -20.4620  -28.0670   22.9860 C   0  0  0  0  0  3  0  0  0  0  0  0
  -20.7250  -26.6710   22.3740 C   0  0  0  0  0  2  0  0  0  0  0  0
  -19.6650  -26.2550   21.3490 C   0  0  0  0  0  2  0  0  0  0  0  0
  -18.2750  -26.2300   21.9910 C   0  0  0  0  0  2  0  0  0  0  0  0
  -18.9750  -28.4030   23.1550 C   0  0  0  0  0  0  0  0  0  0  0  0
  -18.6170  -29.6210   23.7730 C   0  0  0  0  0  3  0  0  0  0  0  0
  -17.2640  -29.9720   23.9460 C   0  0  0  0  0  3  0  0  0  0  0  0
  -16.2520  -29.0990   23.5110 C   0  0  0  0  0  3  0  0  0  0  0  0
  -16.5950  -27.8830   22.8930 C   0  0  0  0  0  3  0  0  0  0  0  0
  -25.8000  -32.2730   23.4960 C   0  0  0  0  0  3  0  0  0  0  0  0
  -25.5590  -33.6250   24.0160 N   0  0  0  0  0  0  0  0  0  0  0  0
  -25.8520  -34.7560   23.3570 C   0  0  0  0  0  0  0  0  0  0  0  0
  -26.4290  -34.7620   22.2660 O   0  0  0  0  0  0  0  0  0  0  0  0
  -25.0350  -33.6910   24.8780 H   0  0  0  0  0  0  0  0  0  0  0  0
  -24.1580  -36.6130   23.3440 C   0  0  0  0  0  1  0  0  0  0  0  0
  -25.4390  -36.0880   24.0110 C   0  0  0  0  0  3  0  0  0  0  0  0
  -27.6500  -36.8200   24.7860 C   0  0  0  0  0  1  0  0  0  0  0  0
  -26.4930  -37.1230   23.9480 N   0  0  0  0  0  0  0  0  0  0  0  0
  -26.1270  -38.0260   24.2370 H   0  0  0  0  0  0  0  0  0  0  0  0
  -26.4770  -31.3590   24.5910 C   0  0  1  0  0  0  0  0  0  0  0  0
  -25.5370  -30.9950   25.7630 C   0  0  0  0  0  1  0  0  0  0  0  0
  -26.9780  -30.0360   23.9650 C   0  0  0  0  0  1  0  0  0  0  0  0
  -27.7220  -32.0700   25.1710 C   0  0  0  0  0  1  0  0  0  0  0  0
  -29.1640  -20.1780   21.1190 C   0  0  0  0  0  2  0  0  0  0  0  0
  -30.4730  -19.3620   21.1450 C   0  0  0  0  0  2  0  0  0  0  0  0
  -30.2460  -17.8790   20.8150 C   0  0  0  0  0  2  0  0  0  0  0  0
  -31.3520  -16.9610   21.3610 C   0  0  0  0  0  2  0  0  0  0  0  0
  -31.4720  -14.6580   20.3820 C   0  0  0  0  0  0  0  0  0  0  0  0
  -31.1100  -12.4510   19.3440 C   0  0  0  0  0  2  0  0  0  0  0  0
  -30.1990  -12.5760   18.1070 C   0  0  0  0  0  2  0  0  0  0  0  0
  -28.7130  -12.5200   18.5090 C   0  0  0  0  0  2  0  0  0  0  0  0
  -28.3750  -13.4870   19.6750 C   0  0  0  0  0  3  0  0  0  0  0  0
  -29.3860  -13.3140   20.8280 C   0  0  0  0  0  2  0  0  0  0  0  0
  -30.7480  -13.5130   20.2900 N   0  0  0  0  0  0  0  0  0  0  0  0
  -32.5160  -14.8660   19.7540 O   0  0  0  0  0  0  0  0  0  0  0  0
  -30.9510  -15.5690   21.2080 N   0  0  0  0  0  0  0  0  0  0  0  0
  -30.1220  -15.2780   21.7050 H   0  0  0  0  0  0  0  0  0  0  0  0
  -26.0210  -14.2640   20.3820 C   0  0  0  0  0  0  0  0  0  0  0  0
  -24.8920  -13.5680   20.7200 C   0  0  0  0  0  0  0  0  0  0  0  0
  -25.2450  -12.1860   20.6460 C   0  0  0  0  0  0  0  0  0  0  0  0
  -26.9970  -13.3130   20.1310 N   0  0  0  0  0  0  0  0  0  0  0  0
  -26.5300  -12.0550   20.3420 N   0  0  0  0  0  0  0  0  0  0  0  0
  -24.4210  -10.9800   20.7920 C   0  0  0  0  0  0  0  0  0  0  0  0
  -24.7430   -9.9750   21.7320 C   0  0  0  0  0  3  0  0  0  0  0  0
  -23.9260   -8.8310   21.8650 C   0  0  0  0  0  3  0  0  0  0  0  0
  -22.7740   -8.6850   21.0560 C   0  0  0  0  0  0  0  0  0  0  0  0
  -22.4720   -9.6770   20.1060 C   0  0  0  0  0  3  0  0  0  0  0  0
  -23.2890  -10.8120   19.9720 C   0  0  0  0  0  3  0  0  0  0  0  0
  -21.9360   -7.5960   21.0970 O   0  0  0  0  0  0  0  0  0  0  0  0
  -21.7130   -6.9040   22.2590 C   0  0  0  0  0  0  0  0  0  0  0  0
  -21.1950   -7.5320   23.4130 C   0  0  0  0  0  3  0  0  0  0  0  0
  -20.9130   -6.7700   24.5650 C   0  0  0  0  0  3  0  0  0  0  0  0
  -21.1410   -5.3810   24.5630 C   0  0  0  0  0  0  0  0  0  0  0  0
  -21.6530   -4.7530   23.4150 C   0  0  0  0  0  3  0  0  0  0  0  0
  -21.9360   -5.5120   22.2650 C   0  0  0  0  0  0  0  0  0  0  0  0
  -22.4090   -4.8990   21.1530 F   0  0  0  0  0  0  0  0  0  0  0  0
  -20.8640   -4.6460   25.6660 F   0  0  0  0  0  0  0  0  0  0  0  0
  -23.5350  -14.1450   21.0050 C   0  0  0  0  0  0  0  0  0  0  0  0
  -22.7630  -13.4980   21.8720 N   0  0  0  0  0  0  0  0  0  0  0  0
  -23.1680  -15.2030   20.4940 O   0  0  0  0  0  0  0  0  0  0  0  0
  -23.0720  -12.6420   22.3080 H   0  0  0  0  0  0  0  0  0  0  0  0
  -21.8520  -13.8670   22.1040 H   0  0  0  0  0  0  0  0  0  0  0  0
  -26.2950  -15.6240   20.2530 N   0  0  0  0  0  0  0  0  0  0  0  0
  -25.5840  -16.3340   20.3860 H   0  0  0  0  0  0  0  0  0  0  0  0
  -27.1850  -16.0040   19.9590 H   0  0  0  0  0  0  0  0  0  0  0  0
  1  5  2  0
  1  3  1  0
  3  4  2  0
  4  2  1  0
  4  7  1  0
  5  6  1  0
  6  2  2  0
  8  3  1  0
  9  8  1  0
 10  9  1  0
 11 13  1  0
 11 10  1  0
 12 23  2  0
 13 18  1  0
 14 22  1  0
 14 24  1  0
 15 21  1  0
 15 17  1  0
 16 22  1  0
 17 16  1  0
 18 17  2  0
 19 20  1  0
 19 13  2  0
 20 15  2  0
 21 14  1  0
 22 12  1  0
 24 26  2  0
 25 24  1  0
 27 25  1  0
 28 37  2  0
 28 33  1  0
 29 25  1  0
 29 33  1  0
 30 29  1  0
 31 32  1  0
 31 30  1  0
 32 28  1  0
 33 34  2  0
 34 35  1  0
 36 35  2  0
 37 36  1  0
 38 12  1  0
 38 39  1  0
 38 48  1  0
 39 42  1  0
 40 44  1  0
 40 39  1  0
 41 40  2  0
 44 43  1  0
 46 44  1  0
 46 47  1  0
 46 45  1  0
 48 51  1  1
 48 49  1  0
 50 48  1  0
 52 53  1  0
 52  5  1  0
 54 53  1  0
 54 55  1  0
 56 64  1  0
 57 62  1  0
 58 59  1  0
 58 57  1  0
 60 59  1  0
 60 69  1  0
 60 61  1  0
 62 56  1  0
 62 61  1  0
 63 56  2  0
 64 55  1  0
 64 65  1  0
 66 67  2  0
 67 86  1  0
 68 67  1  0
 68 71  1  0
 69 70  1  0
 69 66  1  0
 70 68  2  0
 71 72  1  0
 72 73  2  0
 74 77  1  0
 74 73  1  0
 75 74  2  0
 76 75  1  0
 76 71  2  0
 77 78  1  0
 78 83  2  0
 78 79  1  0
 79 80  2  0
 81 80  1  0
 81 85  1  0
 82 81  2  0
 83 82  1  0
 84 83  1  0
 86 87  1  0
 87 90  1  0
 87 89  1  0
 88 86  2  0
 91 66  1  0
 91 92  1  0
 93 91  1  0
M  ISO  4  10 101  11 101  56 100  64 100
M  END
>  <TORSDO>  (65) 
F 23

>  <SCORE>  (65) 
-10.907

>  <name>  (65) 
65

>  <ligand_id>  (65) 
65

>  <original_smiles>  (65) 
[H]c1nc(C([H])([H])C([H])([H])C([H])([H])C([H])([H])N([H])C(=O)N2C([H])([H])C([H])([H])C([H])([H])C([H])(n3nc(-c4c([H])c([H])c(Oc5c([H])c([H])c(F)c([H])c5F)c([H])c4[H])c(C(=O)N([H])[H])c3N([H])[H])C2([H])[H])c([H])c(C([H])([H])C([H])([H])C([H])([H])Oc2c([H])c([H])c3c(c2[H])C([H])([H])N(C(=O)C([H])(N([H])C(=O)C([H])(N([H])C([H])([H])[H])C([H])([H])[H])C(C([H])([H])[H])(C([H])([H])[H])C([H])([H])[H])C([H])(C(=O)N([H])C2([H])c4c([H])c([H])c([H])c([H])c4C([H])([H])C([H])([H])C2([H])[H])C3([H])[H])c1Cl

>  <smiles>  (65) 
[H]c1nc(C([H])([H])C([H])([H])C([H])([H])C([H])([H])N([H])C(=O)N2C([H])([H])C([H])([H])C([H])([H])C([H])(n3nc(-c4c([H])c([H])c(Oc5c([H])c([H])c(F)c([H])c5F)c([H])c4[H])c(C(=O)N([H])[H])c3N([H])[H])C2([H])[H])c([H])c(C([H])([H])C([H])([H])C([H])([H])Oc2c([H])c([H])c3c(c2[H])C([H])([H])N(C(=O)C([H])(N([H])C(=O)C([H])(N([H])C([H])([H])[H])C([H])([H])[H])C(C([H])([H])[H])(C([H])([H])[H])C([H])([H])[H])C([H])(C(=O)N([H])C2([H])c4c([H])c([H])c([H])c([H])c4C([H])([H])C([H])([H])C2([H])[H])C3([H])[H])c1Cl

$$$$
66:0:0
     RDKit          3D

 97105  0  0  1  0  0  0  0  0999 V2000
  -29.1470  -26.4070   24.4840 C   0  0  0  0  0  3  0  0  0  0  0  0
  -27.3870  -27.9950   24.0390 C   0  0  0  0  0  3  0  0  0  0  0  0
  -28.5000  -27.6110   24.8080 C   0  0  0  0  0  0  0  0  0  0  0  0
  -28.6750  -25.6360   23.4080 C   0  0  0  0  0  0  0  0  0  0  0  0
  -27.5610  -26.1110   22.6800 C   0  0  0  0  0  0  0  0  0  0  0  0
  -29.3800  -24.3280   23.0760 C   0  0  0  0  0  1  0  0  0  0  0  0
  -26.9350  -27.2710   22.9920 N   0  0  0  0  0  0  0  0  0  0  0  0
  -28.9940  -28.4300   25.9960 C   0  0  0  0  0  2  0  0  0  0  0  0
  -29.1360  -29.9510   25.7510 C   0  0  0  0  0  2  0  0  0  0  0  0
  -30.1930  -30.5510   26.5030 O   0  0  0  0  0  0  0  0  0  0  0  0
  -26.9340  -28.2780   32.3800 C   0  0  0  0  0  0  0  0  0  0  0  0
  -29.9180  -30.7870   27.8260 C   0  0  0  0  0  0  0  0  0  0  0  0
  -27.8460  -30.5770   32.4780 C   0  0  0  0  0  3  0  0  0  0  0  0
  -29.3760  -31.2450   30.5500 C   0  0  0  0  0  0  0  0  0  0  0  0
  -28.9070  -28.8170   30.9570 C   0  0  0  0  0  2  0  0  0  0  0  0
  -29.2980  -29.9480   30.0300 C   0  0  0  0  0  0  0  0  0  0  0  0
  -29.5870  -29.7110   28.6720 C   0  0  0  0  0  3  0  0  0  0  0  0
  -29.9910  -32.0940   28.3530 C   0  0  0  0  0  3  0  0  0  0  0  0
  -29.7220  -32.3260   29.7170 C   0  0  0  0  0  3  0  0  0  0  0  0
  -29.0810  -31.4030   32.0240 C   0  0  0  0  0  2  0  0  0  0  0  0
  -27.8500  -29.1800   31.9290 N   0  0  0  0  0  0  0  0  0  0  0  0
  -26.1310  -28.5730   33.2750 O   0  0  0  0  0  0  0  0  0  0  0  0
  -26.5700  -31.3710   32.1270 C   0  0  0  0  0  0  0  0  0  0  0  0
  -25.9350  -31.9620   33.1520 N   0  0  0  0  0  0  0  0  0  0  0  0
  -26.1920  -31.4750   30.9570 O   0  0  0  0  0  0  0  0  0  0  0  0
  -26.3080  -31.8240   34.0820 H   0  0  0  0  0  0  0  0  0  0  0  0
  -23.2750  -33.4640   35.0790 C   0  0  0  0  0  0  0  0  0  0  0  0
  -24.7380  -32.7960   33.0560 C   0  0  0  0  0  3  0  0  0  0  0  0
  -25.1100  -34.2940   32.9620 C   0  0  0  0  0  2  0  0  0  0  0  0
  -25.1420  -34.9960   34.3230 C   0  0  0  0  0  2  0  0  0  0  0  0
  -23.7750  -34.8970   35.0080 C   0  0  0  0  0  2  0  0  0  0  0  0
  -23.7380  -32.4740   34.1710 C   0  0  0  0  0  0  0  0  0  0  0  0
  -23.2670  -31.1500   34.3020 C   0  0  0  0  0  3  0  0  0  0  0  0
  -22.3500  -30.8100   35.3130 C   0  0  0  0  0  3  0  0  0  0  0  0
  -21.8810  -31.7960   36.1990 C   0  0  0  0  0  3  0  0  0  0  0  0
  -22.3400  -33.1190   36.0780 C   0  0  0  0  0  3  0  0  0  0  0  0
  -26.8710  -26.8230   31.8120 C   0  0  0  0  0  3  0  0  0  0  0  0
  -25.9890  -26.0440   32.6890 N   0  0  0  0  0  0  0  0  0  0  0  0
  -26.3970  -25.3770   33.7770 C   0  0  0  0  0  0  0  0  0  0  0  0
  -27.5830  -25.2920   34.1070 O   0  0  0  0  0  0  0  0  0  0  0  0
  -24.9970  -26.1170   32.5170 H   0  0  0  0  0  0  0  0  0  0  0  0
  -24.8970  -25.6340   35.7780 C   0  0  0  0  0  1  0  0  0  0  0  0
  -25.3160  -24.6930   34.6360 C   0  0  0  0  0  3  0  0  0  0  0  0
  -25.8630  -22.3450   34.1820 C   0  0  0  0  0  1  0  0  0  0  0  0
  -25.7410  -23.3920   35.1930 N   0  0  0  0  0  0  0  0  0  0  0  0
  -25.0870  -23.0740   35.9020 H   0  0  0  0  0  0  0  0  0  0  0  0
  -26.3710  -26.7600   30.3170 C   0  0  1  0  0  0  0  0  0  0  0  0
  -25.0170  -27.4720   30.0860 C   0  0  0  0  0  1  0  0  0  0  0  0
  -27.4110  -27.4000   29.3660 C   0  0  0  0  0  1  0  0  0  0  0  0
  -26.2170  -25.2850   29.8770 C   0  0  0  0  0  1  0  0  0  0  0  0
  -26.9910  -25.3740   21.4720 C   0  0  0  0  0  2  0  0  0  0  0  0
  -25.9590  -26.1880   20.8110 N   0  0  0  0  0  4  0  0  0  0  0  0
  -25.5090  -26.6590   21.5810 H   0  0  0  0  0  0  0  0  0  0  0  0
  -25.3050  -25.5750   20.3540 H   0  0  0  0  0  0  0  0  0  0  0  0
  -26.4620  -27.2060   19.8610 C   0  0  0  0  0  2  0  0  0  0  0  0
  -25.6540  -28.5180   19.9210 C   0  0  0  0  0  2  0  0  0  0  0  0
  -25.9110  -29.3630   21.1850 C   0  0  0  0  0  2  0  0  0  0  0  0
  -25.2140  -30.7340   21.1450 C   0  0  0  0  0  2  0  0  0  0  0  0
  -25.5750  -31.6220   22.3500 C   0  0  0  0  0  2  0  0  0  0  0  0
  -25.0520  -33.0610   22.2110 C   0  0  0  0  0  2  0  0  0  0  0  0
  -25.5050  -33.9870   23.3650 C   0  0  0  0  0  2  0  0  0  0  0  0
  -25.2300  -35.4830   23.1170 C   0  0  0  0  0  0  0  0  0  0  0  0
  -25.3380  -37.8390   23.8610 C   0  0  0  0  0  2  0  0  0  0  0  0
  -26.7530  -38.4200   23.6800 C   0  0  0  0  0  2  0  0  0  0  0  0
  -27.6260  -38.1160   24.9120 C   0  0  0  0  0  2  0  0  0  0  0  0
  -27.5760  -36.6200   25.3170 C   0  0  0  0  0  3  0  0  0  0  0  0
  -26.1190  -36.1150   25.3890 C   0  0  0  0  0  2  0  0  0  0  0  0
  -25.4650  -36.3930   24.0990 N   0  0  0  0  0  0  0  0  0  0  0  0
  -24.8230  -35.8200   22.0000 O   0  0  0  0  0  0  0  0  0  0  0  0
  -29.3890  -35.5720   26.8190 C   0  0  0  0  0  0  0  0  0  0  0  0
  -29.7090  -35.7670   28.1360 C   0  0  0  0  0  0  0  0  0  0  0  0
  -28.7670  -36.7200   28.6340 C   0  0  0  0  0  0  0  0  0  0  0  0
  -28.2920  -36.3830   26.5700 N   0  0  0  0  0  0  0  0  0  0  0  0
  -27.8900  -37.0360   27.6910 N   0  0  0  0  0  0  0  0  0  0  0  0
  -28.6860  -37.3910   29.9360 C   0  0  0  0  0  0  0  0  0  0  0  0
  -27.4870  -37.4090   30.6840 C   0  0  0  0  0  3  0  0  0  0  0  0
  -27.4380  -38.0470   31.9420 C   0  0  0  0  0  3  0  0  0  0  0  0
  -28.5930  -38.6740   32.4660 C   0  0  0  0  0  0  0  0  0  0  0  0
  -29.7770  -38.6730   31.7080 C   0  0  0  0  0  3  0  0  0  0  0  0
  -29.8230  -38.0430   30.4530 C   0  0  0  0  0  3  0  0  0  0  0  0
  -28.6330  -39.3400   33.6670 O   0  0  0  0  0  0  0  0  0  0  0  0
  -27.7600  -39.0430   34.6830 C   0  0  0  0  0  0  0  0  0  0  0  0
  -27.6570  -37.7420   35.2210 C   0  0  0  0  0  3  0  0  0  0  0  0
  -26.7990  -37.4970   36.3110 C   0  0  0  0  0  3  0  0  0  0  0  0
  -26.0500  -38.5500   36.8690 C   0  0  0  0  0  0  0  0  0  0  0  0
  -26.1550  -39.8470   36.3390 C   0  0  0  0  0  3  0  0  0  0  0  0
  -27.0100  -40.0930   35.2500 C   0  0  0  0  0  0  0  0  0  0  0  0
  -27.1230  -41.3500   34.7570 F   0  0  0  0  0  0  0  0  0  0  0  0
  -25.2320  -38.3160   37.9230 F   0  0  0  0  0  0  0  0  0  0  0  0
  -30.8790  -35.1790   28.8710 C   0  0  0  0  0  0  0  0  0  0  0  0
  -30.7300  -34.9360   30.1670 N   0  0  0  0  0  0  0  0  0  0  0  0
  -31.9200  -34.8860   28.2840 O   0  0  0  0  0  0  0  0  0  0  0  0
  -29.8680  -35.1570   30.6450 H   0  0  0  0  0  0  0  0  0  0  0  0
  -31.4880  -34.5230   30.6930 H   0  0  0  0  0  0  0  0  0  0  0  0
  -29.9460  -34.7900   25.8120 N   0  0  0  0  0  0  0  0  0  0  0  0
  -30.7790  -34.2290   25.9560 H   0  0  0  0  0  0  0  0  0  0  0  0
  -29.6130  -34.7670   24.8550 H   0  0  0  0  0  0  0  0  0  0  0  0
  1  3  1  0
  2  3  2  0
  3  8  1  0
  4  1  2  0
  5  7  2  0
  5  4  1  0
  6  4  1  0
  7  2  1  0
  9  8  1  0
  9 10  1  0
 10 12  1  0
 11 22  2  0
 12 18  2  0
 12 17  1  0
 13 23  1  0
 14 20  1  0
 15 21  1  0
 16 14  1  0
 16 15  1  0
 17 16  2  0
 18 19  1  0
 19 14  2  0
 20 13  1  0
 21 11  1  0
 21 13  1  0
 23 24  1  0
 24 26  1  0
 25 23  2  0
 27 36  1  0
 28 24  1  0
 28 32  1  0
 29 28  1  0
 29 30  1  0
 30 31  1  0
 31 27  1  0
 32 33  1  0
 32 27  2  0
 33 34  2  0
 34 35  1  0
 36 35  2  0
 37 11  1  0
 37 38  1  0
 38 39  1  0
 39 40  2  0
 39 43  1  0
 41 38  1  0
 43 45  1  0
 43 42  1  0
 44 45  1  0
 45 46  1  0
 47 37  1  0
 47 48  1  1
 49 47  1  0
 50 47  1  0
 51  5  1  0
 52 51  1  0
 52 53  1  0
 54 52  1  0
 55 56  1  0
 55 52  1  0
 56 57  1  0
 58 57  1  0
 58 59  1  0
 60 59  1  0
 60 61  1  0
 62 61  1  0
 62 68  1  0
 63 68  1  0
 64 63  1  0
 64 65  1  0
 66 65  1  0
 66 67  1  0
 66 73  1  0
 68 67  1  0
 69 62  2  0
 70 71  2  0
 71 72  1  0
 71 90  1  0
 72 75  1  0
 73 70  1  0
 73 74  1  0
 74 72  2  0
 75 80  2  0
 75 76  1  0
 76 77  2  0
 77 78  1  0
 78 81  1  0
 79 78  2  0
 80 79  1  0
 81 82  1  0
 82 83  2  0
 82 87  1  0
 83 84  1  0
 84 85  2  0
 85 89  1  0
 86 85  1  0
 87 86  2  0
 88 87  1  0
 90 91  1  0
 91 93  1  0
 91 94  1  0
 92 90  2  0
 95 96  1  0
 95 70  1  0
 97 95  1  0
M  ISO  4   9 101  10 101  61 100  62 100
M  END
>  <TORSDO>  (66) 
F 27

>  <SCORE>  (66) 
-2.493

>  <name>  (66) 
66

>  <ligand_id>  (66) 
66

>  <original_smiles>  (66) 
[H]c1nc(C([H])([H])[N+]([H])([H])C([H])([H])C([H])([H])C([H])([H])C([H])([H])C([H])([H])C([H])([H])C([H])([H])C(=O)N2C([H])([H])C([H])([H])C([H])([H])C([H])(n3nc(-c4c([H])c([H])c(Oc5c([H])c([H])c(F)c([H])c5F)c([H])c4[H])c(C(=O)N([H])[H])c3N([H])[H])C2([H])[H])c(C([H])([H])[H])c([H])c1C([H])([H])C([H])([H])Oc1c([H])c([H])c2c(c1[H])C([H])([H])N(C(=O)C([H])(N([H])C(=O)C([H])(N([H])C([H])([H])[H])C([H])([H])[H])C(C([H])([H])[H])(C([H])([H])[H])C([H])([H])[H])C([H])(C(=O)N([H])C1([H])c3c([H])c([H])c([H])c([H])c3C([H])([H])C([H])([H])C1([H])[H])C2([H])[H]

>  <smiles>  (66) 
[H]c1nc(C([H])([H])[N+]([H])([H])C([H])([H])C([H])([H])C([H])([H])C([H])([H])C([H])([H])C([H])([H])C([H])([H])C(=O)N2C([H])([H])C([H])([H])C([H])([H])C([H])(n3nc(-c4c([H])c([H])c(Oc5c([H])c([H])c(F)c([H])c5F)c([H])c4[H])c(C(=O)N([H])[H])c3N([H])[H])C2([H])[H])c(C([H])([H])[H])c([H])c1C([H])([H])C([H])([H])Oc1c([H])c([H])c2c(c1[H])C([H])([H])N(C(=O)C([H])(N([H])C(=O)C([H])(N([H])C([H])([H])[H])C([H])([H])[H])C(C([H])([H])[H])(C([H])([H])[H])C([H])([H])[H])C([H])(C(=O)N([H])C1([H])c3c([H])c([H])c([H])c([H])c3C([H])([H])C([H])([H])C1([H])[H])C2([H])[H]

$$$$
67:0:0
     RDKit          3D

 91 99  0  0  1  0  0  0  0  0999 V2000
  -29.0210  -18.6020   20.1050 C   0  0  0  0  0  3  0  0  0  0  0  0
  -30.6480  -19.5260   21.6070 C   0  0  0  0  0  3  0  0  0  0  0  0
  -30.0790  -18.3730   21.0110 C   0  0  0  0  0  0  0  0  0  0  0  0
  -29.1180  -21.0880   20.4380 C   0  0  0  0  0  0  0  0  0  0  0  0
  -28.5570  -19.9200   19.8270 C   0  0  0  0  0  0  0  0  0  0  0  0
  -30.1910  -20.8500   21.3460 C   0  0  0  0  0  0  0  0  0  0  0  0
  -27.2380  -20.0630   18.7180 Cl  0  0  0  0  0  0  0  0  0  0  0  0
  -30.9880  -22.1310   22.1840 Cl  0  0  0  0  0  0  0  0  0  0  0  0
  -28.4630  -22.4870   20.1140 C   0  0  0  0  0  2  0  0  0  0  0  0
  -29.0370  -23.9230   20.4810 C   0  0  0  0  0  2  0  0  0  0  0  0
  -28.0530  -25.0730   20.0240 C   0  0  0  0  0  2  0  0  0  0  0  0
  -28.3080  -26.5020   20.2800 O   0  0  0  0  0  0  0  0  0  0  0  0
  -24.5780  -31.9120   23.2320 C   0  0  0  0  0  0  0  0  0  0  0  0
  -27.1960  -27.3570   20.1980 C   0  0  0  0  0  0  0  0  0  0  0  0
  -23.3820  -30.5210   21.5810 C   0  0  0  0  0  3  0  0  0  0  0  0
  -24.8380  -28.9700   20.1680 C   0  0  0  0  0  0  0  0  0  0  0  0
  -25.9240  -30.8290   21.4220 C   0  0  0  0  0  2  0  0  0  0  0  0
  -26.0020  -29.4520   20.7780 C   0  0  0  0  0  0  0  0  0  0  0  0
  -27.1840  -28.6550   20.7900 C   0  0  0  0  0  3  0  0  0  0  0  0
  -26.0090  -26.9340   19.5500 C   0  0  0  0  0  3  0  0  0  0  0  0
  -24.8410  -27.7140   19.5470 C   0  0  0  0  0  3  0  0  0  0  0  0
  -23.6040  -29.8460   20.2030 C   0  0  0  0  0  2  0  0  0  0  0  0
  -24.6460  -31.1040   22.1350 N   0  0  0  0  0  0  0  0  0  0  0  0
  -23.4910  -32.1960   23.7570 O   0  0  0  0  0  0  0  0  0  0  0  0
  -22.7070  -29.5050   22.5340 C   0  0  0  0  0  0  0  0  0  0  0  0
  -21.3800  -29.3400   22.3990 N   0  0  0  0  0  0  0  0  0  0  0  0
  -23.3740  -28.8700   23.3540 O   0  0  0  0  0  0  0  0  0  0  0  0
  -20.8990  -29.9060   21.7140 H   0  0  0  0  0  0  0  0  0  0  0  0
  -17.9840  -28.1960   22.8900 C   0  0  0  0  0  0  0  0  0  0  0  0
  -20.5470  -28.4090   23.1620 C   0  0  0  0  0  3  0  0  0  0  0  0
  -20.6240  -26.9810   22.5750 C   0  0  0  0  0  2  0  0  0  0  0  0
  -19.5170  -26.6840   21.5580 C   0  0  0  0  0  2  0  0  0  0  0  0
  -18.1380  -26.8480   22.2050 C   0  0  0  0  0  2  0  0  0  0  0  0
  -19.1160  -28.9350   23.3250 C   0  0  0  0  0  0  0  0  0  0  0  0
  -18.9200  -30.1970   23.9270 C   0  0  0  0  0  3  0  0  0  0  0  0
  -17.6240  -30.7210   24.0980 C   0  0  0  0  0  3  0  0  0  0  0  0
  -16.5060  -29.9770   23.6780 C   0  0  0  0  0  3  0  0  0  0  0  0
  -16.6870  -28.7170   23.0820 C   0  0  0  0  0  3  0  0  0  0  0  0
  -25.8600  -32.5380   23.8660 C   0  0  0  0  0  3  0  0  0  0  0  0
  -26.3570  -31.7660   25.1480 C   0  0  1  0  0  0  0  0  0  0  0  0
  -25.2510  -31.5340   26.2040 C   0  0  0  0  0  1  0  0  0  0  0  0
  -26.9370  -30.3840   24.7630 C   0  0  0  0  0  1  0  0  0  0  0  0
  -27.5030  -32.5550   25.8230 C   0  0  0  0  0  1  0  0  0  0  0  0
  -25.5540  -33.9390   24.1900 N   0  0  0  0  0  0  0  0  0  0  0  0
  -25.8950  -34.9870   23.4270 C   0  0  0  0  0  0  0  0  0  0  0  0
  -26.5690  -34.8750   22.3990 O   0  0  0  0  0  0  0  0  0  0  0  0
  -24.9550  -34.1000   24.9850 H   0  0  0  0  0  0  0  0  0  0  0  0
  -24.1800  -36.7910   23.0580 C   0  0  0  0  0  1  0  0  0  0  0  0
  -25.4140  -36.3810   23.8770 C   0  0  0  0  0  3  0  0  0  0  0  0
  -27.5460  -37.2570   24.7220 C   0  0  0  0  0  1  0  0  0  0  0  0
  -26.4540  -37.4260   23.7670 N   0  0  0  0  0  0  0  0  0  0  0  0
  -26.0530  -38.3490   23.9040 H   0  0  0  0  0  0  0  0  0  0  0  0
  -30.6640  -16.9710   21.3720 C   0  0  0  0  0  2  0  0  0  0  0  0
  -30.6690  -14.5930   20.4830 C   0  0  0  0  0  0  0  0  0  0  0  0
  -30.3690  -12.3860   19.3850 C   0  0  0  0  0  2  0  0  0  0  0  0
  -29.4440  -12.5360   18.1600 C   0  0  0  0  0  2  0  0  0  0  0  0
  -27.9690  -12.3870   18.5810 C   0  0  0  0  0  2  0  0  0  0  0  0
  -27.6110  -13.2560   19.8170 C   0  0  0  0  0  3  0  0  0  0  0  0
  -28.6620  -13.1120   20.9400 C   0  0  0  0  0  2  0  0  0  0  0  0
  -29.9770  -13.4190   20.3640 N   0  0  0  0  0  0  0  0  0  0  0  0
  -31.8230  -14.6970   20.0610 O   0  0  0  0  0  0  0  0  0  0  0  0
  -30.0130  -15.6850   20.9680 N   0  0  0  0  0  0  0  0  0  0  0  0
  -29.0540  -15.5500   21.2530 H   0  0  0  0  0  0  0  0  0  0  0  0
  -25.2160  -13.8580   20.5210 C   0  0  0  0  0  0  0  0  0  0  0  0
  -24.1460  -13.0880   20.8850 C   0  0  0  0  0  0  0  0  0  0  0  0
  -24.6050  -11.7350   20.8600 C   0  0  0  0  0  0  0  0  0  0  0  0
  -26.2600  -12.9770   20.2960 N   0  0  0  0  0  0  0  0  0  0  0  0
  -25.8990  -11.6940   20.5620 N   0  0  0  0  0  0  0  0  0  0  0  0
  -23.8740  -10.4750   21.0480 C   0  0  0  0  0  0  0  0  0  0  0  0
  -24.2970   -9.5080   21.9860 C   0  0  0  0  0  3  0  0  0  0  0  0
  -23.5660   -8.3120   22.1600 C   0  0  0  0  0  3  0  0  0  0  0  0
  -22.3990   -8.0760   21.3960 C   0  0  0  0  0  0  0  0  0  0  0  0
  -21.9950   -9.0310   20.4470 C   0  0  0  0  0  3  0  0  0  0  0  0
  -22.7250  -10.2190   20.2710 C   0  0  0  0  0  3  0  0  0  0  0  0
  -21.6410   -6.9330   21.4790 O   0  0  0  0  0  0  0  0  0  0  0  0
  -21.5730   -6.1950   22.6340 C   0  0  0  0  0  0  0  0  0  0  0  0
  -21.1130   -6.7540   23.8470 C   0  0  0  0  0  3  0  0  0  0  0  0
  -20.9930   -5.9450   24.9930 C   0  0  0  0  0  3  0  0  0  0  0  0
  -21.3220   -4.5790   24.9290 C   0  0  0  0  0  0  0  0  0  0  0  0
  -21.7730   -4.0190   23.7210 C   0  0  0  0  0  3  0  0  0  0  0  0
  -21.8950   -4.8250   22.5750 C   0  0  0  0  0  0  0  0  0  0  0  0
  -22.3110   -4.2770   21.4080 F   0  0  0  0  0  0  0  0  0  0  0  0
  -21.2000   -3.7980   26.0280 F   0  0  0  0  0  0  0  0  0  0  0  0
  -22.7480  -13.5690   21.1460 C   0  0  0  0  0  0  0  0  0  0  0  0
  -22.0140  -12.8750   22.0090 N   0  0  0  0  0  0  0  0  0  0  0  0
  -22.3150  -14.5930   20.6210 O   0  0  0  0  0  0  0  0  0  0  0  0
  -22.3750  -12.0450   22.4550 H   0  0  0  0  0  0  0  0  0  0  0  0
  -21.0760  -13.1790   22.2290 H   0  0  0  0  0  0  0  0  0  0  0  0
  -25.3840  -15.2280   20.3380 N   0  0  0  0  0  0  0  0  0  0  0  0
  -24.6140  -15.8810   20.4280 H   0  0  0  0  0  0  0  0  0  0  0  0
  -26.2330  -15.6630   20.0020 H   0  0  0  0  0  0  0  0  0  0  0  0
  1  3  1  0
  3 53  1  0
  3  2  2  0
  4  6  2  0
  5  1  2  0
  5  4  1  0
  6  2  1  0
  6  8  1  0
  7  5  1  0
  9  4  1  0
  9 10  1  0
 11 12  1  0
 11 10  1  0
 13 24  2  0
 14 12  1  0
 14 19  1  0
 15 23  1  0
 15 25  1  0
 16 22  1  0
 16 18  1  0
 17 23  1  0
 18 19  2  0
 18 17  1  0
 20 14  2  0
 21 20  1  0
 21 16  2  0
 22 15  1  0
 23 13  1  0
 25 27  2  0
 26 25  1  0
 28 26  1  0
 29 38  2  0
 29 34  1  0
 30 26  1  0
 30 34  1  0
 31 30  1  0
 32 33  1  0
 32 31  1  0
 33 29  1  0
 34 35  2  0
 35 36  1  0
 37 36  2  0
 38 37  1  0
 39 13  1  0
 39 44  1  0
 39 40  1  0
 40 43  1  1
 40 41  1  0
 42 40  1  0
 44 47  1  0
 45 49  1  0
 45 44  1  0
 46 45  2  0
 49 48  1  0
 51 49  1  0
 51 52  1  0
 51 50  1  0
 54 62  1  0
 55 60  1  0
 56 57  1  0
 56 55  1  0
 58 57  1  0
 58 67  1  0
 58 59  1  0
 60 54  1  0
 60 59  1  0
 61 54  2  0
 62 63  1  0
 62 53  1  0
 64 65  2  0
 65 84  1  0
 66 65  1  0
 66 69  1  0
 67 64  1  0
 67 68  1  0
 68 66  2  0
 69 70  1  0
 70 71  2  0
 72 75  1  0
 72 71  1  0
 73 72  2  0
 74 73  1  0
 74 69  2  0
 75 76  1  0
 76 77  1  0
 77 78  2  0
 79 78  1  0
 79 83  1  0
 80 79  2  0
 81 76  2  0
 81 80  1  0
 82 81  1  0
 84 85  1  0
 85 88  1  0
 85 87  1  0
 86 84  2  0
 89 90  1  0
 89 64  1  0
 91 89  1  0
M  ISO  4  11 101  12 101  54 100  62 100
M  END
>  <TORSDO>  (67) 
F 20

>  <SCORE>  (67) 
-14.175

>  <name>  (67) 
67

>  <ligand_id>  (67) 
67

>  <original_smiles>  (67) 
[H]c1c([H])c([H])c2c(c1[H])C([H])([H])C([H])([H])C([H])([H])C2([H])N([H])C(=O)C1([H])N(C(=O)C([H])(N([H])C(=O)C([H])(N([H])C([H])([H])[H])C([H])([H])[H])C(C([H])([H])[H])(C([H])([H])[H])C([H])([H])[H])C([H])([H])c2c([H])c(OC([H])([H])C([H])([H])C([H])([H])c3c(Cl)c([H])c(C([H])([H])N([H])C(=O)N4C([H])([H])C([H])([H])C([H])([H])C([H])(n5nc(-c6c([H])c([H])c(Oc7c([H])c([H])c(F)c([H])c7F)c([H])c6[H])c(C(=O)N([H])[H])c5N([H])[H])C4([H])[H])c([H])c3Cl)c([H])c([H])c2C1([H])[H]

>  <smiles>  (67) 
[H]c1c([H])c([H])c2c(c1[H])C([H])([H])C([H])([H])C([H])([H])C2([H])N([H])C(=O)C1([H])N(C(=O)C([H])(N([H])C(=O)C([H])(N([H])C([H])([H])[H])C([H])([H])[H])C(C([H])([H])[H])(C([H])([H])[H])C([H])([H])[H])C([H])([H])c2c([H])c(OC([H])([H])C([H])([H])C([H])([H])c3c(Cl)c([H])c(C([H])([H])N([H])C(=O)N4C([H])([H])C([H])([H])C([H])([H])C([H])(n5nc(-c6c([H])c([H])c(Oc7c([H])c([H])c(F)c([H])c7F)c([H])c6[H])c(C(=O)N([H])[H])c5N([H])[H])C4([H])[H])c([H])c3Cl)c([H])c([H])c2C1([H])[H]

$$$$
68:0:0
     RDKit          3D

 91 99  0  0  1  0  0  0  0  0999 V2000
  -27.6690  -21.2420   19.6810 C   0  0  0  0  0  3  0  0  0  0  0  0
  -27.1370  -23.6430   19.7660 C   0  0  0  0  0  3  0  0  0  0  0  0
  -29.1680  -22.8040   20.7910 C   0  0  0  0  0  3  0  0  0  0  0  0
  -26.8050  -22.3240   19.3770 C   0  0  0  0  0  0  0  0  0  0  0  0
  -28.8690  -21.4360   20.4020 C   0  0  0  0  0  0  0  0  0  0  0  0
  -28.3100  -23.9370   20.4880 C   0  0  0  0  0  0  0  0  0  0  0  0
  -25.3690  -20.8940   17.7510 C   0  0  0  0  0  1  0  0  0  0  0  0
  -25.4650  -22.1190   18.6730 C   0  0  0  0  0  2  0  0  0  0  0  0
  -29.8030  -20.1860   20.7210 C   0  0  0  0  0  2  0  0  0  0  0  0
  -29.2830  -18.6510   20.6270 C   0  0  0  0  0  3  0  0  0  0  0  0
  -30.3690  -17.4540   20.7080 C   0  0  0  0  0  3  0  0  0  0  0  0
  -30.6830  -14.8780   20.3780 C   0  0  0  0  0  0  0  0  0  0  0  0
  -30.4340  -12.7070   19.1750 C   0  0  0  0  0  2  0  0  0  0  0  0
  -29.4820  -12.9170   17.9770 C   0  0  0  0  0  2  0  0  0  0  0  0
  -28.0150  -12.7350   18.4140 C   0  0  0  0  0  2  0  0  0  0  0  0
  -27.6750  -13.5050   19.7200 C   0  0  0  0  0  3  0  0  0  0  0  0
  -28.7490  -13.2940   20.8080 C   0  0  0  0  0  2  0  0  0  0  0  0
  -30.0400  -13.6730   20.2240 N   0  0  0  0  0  0  0  0  0  0  0  0
  -31.8620  -15.0000   20.0360 O   0  0  0  0  0  0  0  0  0  0  0  0
  -29.9310  -15.9910   20.7120 N   0  0  0  0  0  0  0  0  0  0  0  0
  -28.9620  -15.8130   20.9220 H   0  0  0  0  0  0  0  0  0  0  0  0
  -25.2690  -14.0510   20.4240 C   0  0  0  0  0  0  0  0  0  0  0  0
  -24.2190  -13.2570   20.8020 C   0  0  0  0  0  0  0  0  0  0  0  0
  -24.7140  -11.9170   20.7890 C   0  0  0  0  0  0  0  0  0  0  0  0
  -26.3340  -13.1940   20.2050 N   0  0  0  0  0  0  0  0  0  0  0  0
  -26.0060  -11.9050   20.4850 N   0  0  0  0  0  0  0  0  0  0  0  0
  -24.0150  -10.6410   20.9930 C   0  0  0  0  0  0  0  0  0  0  0  0
  -24.4480   -9.7060   21.9580 C   0  0  0  0  0  3  0  0  0  0  0  0
  -23.7480   -8.4960   22.1470 C   0  0  0  0  0  3  0  0  0  0  0  0
  -22.5990   -8.2130   21.3730 C   0  0  0  0  0  0  0  0  0  0  0  0
  -22.1820   -9.1380   20.4000 C   0  0  0  0  0  3  0  0  0  0  0  0
  -22.8850  -10.3400   20.2090 C   0  0  0  0  0  3  0  0  0  0  0  0
  -21.8700   -7.0510   21.4710 O   0  0  0  0  0  0  0  0  0  0  0  0
  -21.8180   -6.3280   22.6360 C   0  0  0  0  0  0  0  0  0  0  0  0
  -21.3240   -6.8860   23.8350 C   0  0  0  0  0  3  0  0  0  0  0  0
  -21.2260   -6.0900   24.9940 C   0  0  0  0  0  3  0  0  0  0  0  0
  -21.6080   -4.7350   24.9530 C   0  0  0  0  0  0  0  0  0  0  0  0
  -22.0910   -4.1760   23.7580 C   0  0  0  0  0  3  0  0  0  0  0  0
  -22.1940   -4.9700   22.6020 C   0  0  0  0  0  0  0  0  0  0  0  0
  -22.6420   -4.4210   21.4470 F   0  0  0  0  0  0  0  0  0  0  0  0
  -21.5040   -3.9680   26.0620 F   0  0  0  0  0  0  0  0  0  0  0  0
  -22.8100  -13.7090   21.0600 C   0  0  0  0  0  0  0  0  0  0  0  0
  -22.0940  -13.0150   21.9360 N   0  0  0  0  0  0  0  0  0  0  0  0
  -22.3510  -14.7130   20.5160 O   0  0  0  0  0  0  0  0  0  0  0  0
  -22.4720  -12.2060   22.4050 H   0  0  0  0  0  0  0  0  0  0  0  0
  -21.1480  -13.3020   22.1470 H   0  0  0  0  0  0  0  0  0  0  0  0
  -25.3940  -15.4230   20.2280 N   0  0  0  0  0  0  0  0  0  0  0  0
  -24.5950  -16.0410   20.3260 H   0  0  0  0  0  0  0  0  0  0  0  0
  -26.2180  -15.8930   19.8720 H   0  0  0  0  0  0  0  0  0  0  0  0
  -28.4610  -25.3910   21.1190 C   0  0  0  0  0  2  0  0  0  0  0  0
  -28.3780  -26.6580   20.3450 O   0  0  0  0  0  0  0  0  0  0  0  0
  -24.6000  -32.0740   23.4220 C   0  0  0  0  0  0  0  0  0  0  0  0
  -27.2520  -27.4910   20.4210 C   0  0  0  0  0  0  0  0  0  0  0  0
  -23.4190  -30.6670   21.7720 C   0  0  0  0  0  3  0  0  0  0  0  0
  -24.8880  -29.1060   20.3770 C   0  0  0  0  0  0  0  0  0  0  0  0
  -25.9610  -30.9850   21.6180 C   0  0  0  0  0  2  0  0  0  0  0  0
  -26.0520  -29.5980   20.9840 C   0  0  0  0  0  0  0  0  0  0  0  0
  -27.2390  -28.8040   20.9960 C   0  0  0  0  0  3  0  0  0  0  0  0
  -26.0730  -27.0570   19.7870 C   0  0  0  0  0  3  0  0  0  0  0  0
  -24.9020  -27.8400   19.7680 C   0  0  0  0  0  3  0  0  0  0  0  0
  -23.6520  -29.9820   20.4000 C   0  0  0  0  0  2  0  0  0  0  0  0
  -24.6790  -31.2600   22.3270 N   0  0  0  0  0  0  0  0  0  0  0  0
  -23.5090  -32.3520   23.9420 O   0  0  0  0  0  0  0  0  0  0  0  0
  -22.7430  -29.6550   22.7280 C   0  0  0  0  0  0  0  0  0  0  0  0
  -21.4320  -29.4260   22.5420 N   0  0  0  0  0  0  0  0  0  0  0  0
  -23.4020  -29.0760   23.5950 O   0  0  0  0  0  0  0  0  0  0  0  0
  -20.9600  -29.9450   21.8150 H   0  0  0  0  0  0  0  0  0  0  0  0
  -18.0800  -28.1150   22.9030 C   0  0  0  0  0  0  0  0  0  0  0  0
  -20.6090  -28.4800   23.2970 C   0  0  0  0  0  3  0  0  0  0  0  0
  -20.7940  -27.0370   22.7700 C   0  0  0  0  0  2  0  0  0  0  0  0
  -19.7610  -26.6440   21.7120 C   0  0  0  0  0  2  0  0  0  0  0  0
  -18.3420  -26.7540   22.2780 C   0  0  0  0  0  2  0  0  0  0  0  0
  -19.1460  -28.9320   23.3670 C   0  0  0  0  0  0  0  0  0  0  0  0
  -18.8490  -30.2010   23.9070 C   0  0  0  0  0  3  0  0  0  0  0  0
  -17.5200  -30.6560   23.9910 C   0  0  0  0  0  3  0  0  0  0  0  0
  -16.4680  -29.8380   23.5450 C   0  0  0  0  0  3  0  0  0  0  0  0
  -16.7480  -28.5690   23.0060 C   0  0  0  0  0  3  0  0  0  0  0  0
  -25.8740  -32.7120   24.0560 C   0  0  0  0  0  3  0  0  0  0  0  0
  -25.5780  -34.1270   24.3260 N   0  0  0  0  0  0  0  0  0  0  0  0
  -25.9440  -35.1450   23.5370 C   0  0  0  0  0  0  0  0  0  0  0  0
  -26.6340  -34.9930   22.5270 O   0  0  0  0  0  0  0  0  0  0  0  0
  -24.9710  -34.3180   25.1090 H   0  0  0  0  0  0  0  0  0  0  0  0
  -24.2490  -36.9460   23.0770 C   0  0  0  0  0  1  0  0  0  0  0  0
  -25.4660  -36.5570   23.9310 C   0  0  0  0  0  3  0  0  0  0  0  0
  -27.5890  -37.4480   24.7820 C   0  0  0  0  0  1  0  0  0  0  0  0
  -26.5160  -37.5900   23.8020 N   0  0  0  0  0  0  0  0  0  0  0  0
  -26.1200  -38.5220   23.9000 H   0  0  0  0  0  0  0  0  0  0  0  0
  -26.3380  -31.9830   25.3780 C   0  0  1  0  0  0  0  0  0  0  0  0
  -25.1970  -31.7560   26.3970 C   0  0  0  0  0  1  0  0  0  0  0  0
  -26.9590  -30.6040   25.0550 C   0  0  0  0  0  1  0  0  0  0  0  0
  -27.4400  -32.8130   26.0760 C   0  0  0  0  0  1  0  0  0  0  0  0
  1  5  1  0
  2  6  2  0
  4  1  2  0
  4  2  1  0
  5  9  1  0
  5  3  2  0
  6  3  1  0
  6 50  1  0
  7  8  1  0
  8  4  1  0
 10 11  2  0
 10  9  1  0
 11 20  1  0
 12 20  1  0
 13 18  1  0
 14 15  1  0
 14 13  1  0
 16 15  1  0
 16 25  1  0
 16 17  1  0
 18 12  1  0
 18 17  1  0
 19 12  2  0
 20 21  1  0
 22 23  2  0
 23 42  1  0
 24 23  1  0
 24 27  1  0
 25 22  1  0
 25 26  1  0
 26 24  2  0
 27 28  1  0
 28 29  2  0
 30 33  1  0
 30 29  1  0
 31 30  2  0
 32 31  1  0
 32 27  2  0
 33 34  1  0
 34 35  1  0
 35 36  2  0
 37 36  1  0
 37 41  1  0
 38 37  2  0
 39 34  2  0
 39 38  1  0
 40 39  1  0
 42 43  1  0
 43 46  1  0
 43 45  1  0
 44 42  2  0
 47 48  1  0
 47 22  1  0
 49 47  1  0
 51 53  1  0
 51 50  1  0
 52 63  2  0
 53 58  1  0
 54 62  1  0
 54 64  1  0
 55 61  1  0
 55 57  1  0
 56 62  1  0
 57 58  2  0
 57 56  1  0
 59 53  2  0
 60 59  1  0
 60 55  2  0
 61 54  1  0
 62 52  1  0
 64 66  2  0
 65 64  1  0
 67 65  1  0
 68 77  2  0
 68 73  1  0
 69 65  1  0
 69 73  1  0
 70 69  1  0
 71 72  1  0
 71 70  1  0
 72 68  1  0
 73 74  2  0
 74 75  1  0
 76 75  2  0
 77 76  1  0
 78 52  1  0
 78 79  1  0
 78 88  1  0
 79 82  1  0
 80 84  1  0
 80 79  1  0
 81 80  2  0
 84 83  1  0
 86 87  1  0
 86 84  1  0
 86 85  1  0
 88 91  1  1
 88 89  1  0
 90 88  1  0
M  ISO  4  12 100  20 100  50 101  51 101
M  END
>  <TORSDO>  (68) 
F 21

>  <SCORE>  (68) 
-13.399

>  <name>  (68) 
68

>  <ligand_id>  (68) 
68

>  <original_smiles>  (68) 
[H]c1c([H])c([H])c2c(c1[H])C([H])([H])C([H])([H])C([H])([H])C2([H])N([H])C(=O)C1([H])N(C(=O)C([H])(N([H])C(=O)C([H])(N([H])C([H])([H])[H])C([H])([H])[H])C(C([H])([H])[H])(C([H])([H])[H])C([H])([H])[H])C([H])([H])c2c([H])c(OC([H])([H])c3c([H])c(C([H])([H])C([H])([H])[H])c([H])c(C([H])([H])C([H])([H])C([H])([H])N([H])C(=O)N4C([H])([H])C([H])([H])C([H])([H])C([H])(n5nc(-c6c([H])c([H])c(Oc7c([H])c([H])c(F)c([H])c7F)c([H])c6[H])c(C(=O)N([H])[H])c5N([H])[H])C4([H])[H])c3[H])c([H])c([H])c2C1([H])[H]

>  <smiles>  (68) 
[H]c1c([H])c([H])c2c(c1[H])C([H])([H])C([H])([H])C([H])([H])C2([H])N([H])C(=O)C1([H])N(C(=O)C([H])(N([H])C(=O)C([H])(N([H])C([H])([H])[H])C([H])([H])[H])C(C([H])([H])[H])(C([H])([H])[H])C([H])([H])[H])C([H])([H])c2c([H])c(OC([H])([H])c3c([H])c(C([H])([H])C([H])([H])[H])c([H])c(C([H])([H])C([H])([H])C([H])([H])N([H])C(=O)N4C([H])([H])C([H])([H])C([H])([H])C([H])(n5nc(-c6c([H])c([H])c(Oc7c([H])c([H])c(F)c([H])c7F)c([H])c6[H])c(C(=O)N([H])[H])c5N([H])[H])C4([H])[H])c3[H])c([H])c([H])c2C1([H])[H]

$$$$
69:0:0
     RDKit          3D

 93101  0  0  1  0  0  0  0  0999 V2000
  -29.3040  -24.1550   21.7180 C   0  0  0  0  0  3  0  0  0  0  0  0
  -31.0740  -23.6240   20.1690 C   0  0  0  0  0  3  0  0  0  0  0  0
  -30.3380  -24.5940   20.8670 C   0  0  0  0  0  0  0  0  0  0  0  0
  -29.0480  -22.7720   21.8270 C   0  0  0  0  0  0  0  0  0  0  0  0
  -29.8430  -21.8760   21.0730 C   0  0  0  0  0  0  0  0  0  0  0  0
  -27.9440  -22.2900   22.7570 C   0  0  0  0  0  1  0  0  0  0  0  0
  -30.8370  -22.3020   20.2690 N   0  0  0  0  0  0  0  0  0  0  0  0
  -30.7100  -26.0700   20.7040 C   0  0  0  0  0  2  0  0  0  0  0  0
  -29.5780  -27.0880   20.9350 C   0  0  0  0  0  2  0  0  0  0  0  0
  -28.4900  -26.7630   20.0790 O   0  0  0  0  0  0  0  0  0  0  0  0
  -24.6020  -31.8950   23.2160 C   0  0  0  0  0  0  0  0  0  0  0  0
  -27.3470  -27.5300   20.1440 C   0  0  0  0  0  0  0  0  0  0  0  0
  -23.4270  -30.4800   21.5590 C   0  0  0  0  0  3  0  0  0  0  0  0
  -24.9160  -28.9730   20.1390 C   0  0  0  0  0  0  0  0  0  0  0  0
  -25.9420  -30.8880   21.3770 C   0  0  0  0  0  2  0  0  0  0  0  0
  -26.0550  -29.5190   20.7430 C   0  0  0  0  0  0  0  0  0  0  0  0
  -27.2700  -28.8030   20.7570 C   0  0  0  0  0  3  0  0  0  0  0  0
  -26.1940  -26.9940   19.5380 C   0  0  0  0  0  3  0  0  0  0  0  0
  -24.9780  -27.7040   19.5360 C   0  0  0  0  0  3  0  0  0  0  0  0
  -23.6540  -29.8040   20.1800 C   0  0  0  0  0  2  0  0  0  0  0  0
  -24.6740  -31.1020   22.1090 N   0  0  0  0  0  0  0  0  0  0  0  0
  -23.5160  -32.1490   23.7530 O   0  0  0  0  0  0  0  0  0  0  0  0
  -22.7900  -29.4440   22.5140 C   0  0  0  0  0  0  0  0  0  0  0  0
  -21.4670  -29.2550   22.3890 N   0  0  0  0  0  0  0  0  0  0  0  0
  -23.4810  -28.8160   23.3200 O   0  0  0  0  0  0  0  0  0  0  0  0
  -20.9720  -29.8080   21.7030 H   0  0  0  0  0  0  0  0  0  0  0  0
  -18.0970  -28.0640   22.9070 C   0  0  0  0  0  0  0  0  0  0  0  0
  -20.6580  -28.3060   23.1530 C   0  0  0  0  0  3  0  0  0  0  0  0
  -20.7500  -26.8860   22.5460 C   0  0  0  0  0  2  0  0  0  0  0  0
  -19.6340  -26.5880   21.5410 C   0  0  0  0  0  2  0  0  0  0  0  0
  -18.2600  -26.7250   22.2040 C   0  0  0  0  0  2  0  0  0  0  0  0
  -19.2240  -28.8130   23.3360 C   0  0  0  0  0  0  0  0  0  0  0  0
  -19.0170  -30.0670   23.9510 C   0  0  0  0  0  3  0  0  0  0  0  0
  -17.7160  -30.5710   24.1410 C   0  0  0  0  0  3  0  0  0  0  0  0
  -16.6050  -29.8170   23.7290 C   0  0  0  0  0  3  0  0  0  0  0  0
  -16.7950  -28.5660   23.1160 C   0  0  0  0  0  3  0  0  0  0  0  0
  -25.8770  -32.5410   23.8420 C   0  0  0  0  0  3  0  0  0  0  0  0
  -25.5560  -33.9380   24.1620 N   0  0  0  0  0  0  0  0  0  0  0  0
  -25.8990  -34.9880   23.4070 C   0  0  0  0  0  0  0  0  0  0  0  0
  -26.5910  -34.8860   22.3910 O   0  0  0  0  0  0  0  0  0  0  0  0
  -24.9470  -34.0910   24.9530 H   0  0  0  0  0  0  0  0  0  0  0  0
  -24.1780  -36.7720   22.9910 C   0  0  0  0  0  1  0  0  0  0  0  0
  -25.3900  -36.3740   23.8470 C   0  0  0  0  0  3  0  0  0  0  0  0
  -27.4920  -37.2650   24.7520 C   0  0  0  0  0  1  0  0  0  0  0  0
  -26.4220  -37.4310   23.7710 N   0  0  0  0  0  0  0  0  0  0  0  0
  -26.0070  -38.3500   23.9070 H   0  0  0  0  0  0  0  0  0  0  0  0
  -26.3950  -31.7790   25.1220 C   0  0  1  0  0  0  0  0  0  0  0  0
  -25.2980  -31.5270   26.1830 C   0  0  0  0  0  1  0  0  0  0  0  0
  -26.9970  -30.4090   24.7310 C   0  0  0  0  0  1  0  0  0  0  0  0
  -27.5290  -32.5890   25.7920 C   0  0  0  0  0  1  0  0  0  0  0  0
  -29.6740  -20.3580   21.1130 C   0  0  0  0  0  2  0  0  0  0  0  0
  -29.0300  -19.8050   19.8240 C   0  0  0  0  0  2  0  0  0  0  0  0
  -29.0470  -18.2660   19.6920 C   0  0  0  0  0  2  0  0  0  0  0  0
  -30.4670  -17.6610   19.6630 C   0  0  0  0  0  2  0  0  0  0  0  0
  -30.8890  -16.9770   20.9820 C   0  0  0  0  0  2  0  0  0  0  0  0
  -31.0910  -14.5570   20.4780 C   0  0  0  0  0  0  0  0  0  0  0  0
  -30.7750  -12.3680   19.4020 C   0  0  0  0  0  2  0  0  0  0  0  0
  -29.8740  -12.5510   18.1640 C   0  0  0  0  0  2  0  0  0  0  0  0
  -28.3880  -12.4500   18.5580 C   0  0  0  0  0  2  0  0  0  0  0  0
  -28.0270  -13.3420   19.7780 C   0  0  0  0  0  3  0  0  0  0  0  0
  -29.0460  -13.1500   20.9250 C   0  0  0  0  0  2  0  0  0  0  0  0
  -30.3940  -13.3960   20.3810 N   0  0  0  0  0  0  0  0  0  0  0  0
  -32.2070  -14.7180   19.9760 O   0  0  0  0  0  0  0  0  0  0  0  0
  -30.4350  -15.5850   21.0390 N   0  0  0  0  0  0  0  0  0  0  0  0
  -29.5160  -15.4020   21.4140 H   0  0  0  0  0  0  0  0  0  0  0  0
  -25.6250  -14.0110   20.4120 C   0  0  0  0  0  0  0  0  0  0  0  0
  -24.5290  -13.2660   20.7630 C   0  0  0  0  0  0  0  0  0  0  0  0
  -24.9620  -11.9050   20.7580 C   0  0  0  0  0  0  0  0  0  0  0  0
  -26.6560  -13.1050   20.2230 N   0  0  0  0  0  0  0  0  0  0  0  0
  -26.2580  -11.8340   20.4840 N   0  0  0  0  0  0  0  0  0  0  0  0
  -24.2040  -10.6630   20.9490 C   0  0  0  0  0  0  0  0  0  0  0  0
  -24.5770   -9.7110   21.9230 C   0  0  0  0  0  3  0  0  0  0  0  0
  -23.8210   -8.5320   22.0980 C   0  0  0  0  0  3  0  0  0  0  0  0
  -22.6770   -8.2960   21.2980 C   0  0  0  0  0  0  0  0  0  0  0  0
  -22.3250   -9.2350   20.3150 C   0  0  0  0  0  3  0  0  0  0  0  0
  -23.0810  -10.4060   20.1380 C   0  0  0  0  0  3  0  0  0  0  0  0
  -21.8980   -7.1670   21.3780 O   0  0  0  0  0  0  0  0  0  0  0  0
  -21.7600   -6.4700   22.5520 C   0  0  0  0  0  0  0  0  0  0  0  0
  -21.2580   -7.0760   23.7230 C   0  0  0  0  0  3  0  0  0  0  0  0
  -21.0650   -6.3060   24.8870 C   0  0  0  0  0  3  0  0  0  0  0  0
  -21.3680   -4.9310   24.8800 C   0  0  0  0  0  0  0  0  0  0  0  0
  -21.8650   -4.3250   23.7120 C   0  0  0  0  0  3  0  0  0  0  0  0
  -22.0590   -5.0920   22.5520 C   0  0  0  0  0  0  0  0  0  0  0  0
  -22.5160   -4.5000   21.4220 F   0  0  0  0  0  0  0  0  0  0  0  0
  -21.1810   -4.1900   25.9970 F   0  0  0  0  0  0  0  0  0  0  0  0
  -23.1380  -13.7770   20.9980 C   0  0  0  0  0  0  0  0  0  0  0  0
  -22.3840  -13.1130   21.8680 N   0  0  0  0  0  0  0  0  0  0  0  0
  -22.7260  -14.7970   20.4470 O   0  0  0  0  0  0  0  0  0  0  0  0
  -22.7310  -12.2890   22.3370 H   0  0  0  0  0  0  0  0  0  0  0  0
  -21.4470  -13.4320   22.0700 H   0  0  0  0  0  0  0  0  0  0  0  0
  -25.8190  -15.3750   20.2180 N   0  0  0  0  0  0  0  0  0  0  0  0
  -25.0600  -16.0430   20.3010 H   0  0  0  0  0  0  0  0  0  0  0  0
  -26.6860  -15.7970   19.9130 H   0  0  0  0  0  0  0  0  0  0  0  0
  1  4  1  0
  2  7  2  0
  2  3  1  0
  3  1  2  0
  4  6  1  0
  5 51  1  0
  5  4  2  0
  7  5  1  0
  8  3  1  0
  8  9  1  0
 10 12  1  0
 10  9  1  0
 11 22  2  0
 12 17  1  0
 13 21  1  0
 13 23  1  0
 14 20  1  0
 14 16  1  0
 15 21  1  0
 16 17  2  0
 16 15  1  0
 18 12  2  0
 19 18  1  0
 19 14  2  0
 20 13  1  0
 21 11  1  0
 23 25  2  0
 24 23  1  0
 26 24  1  0
 27 36  2  0
 27 32  1  0
 28 24  1  0
 28 32  1  0
 29 28  1  0
 30 31  1  0
 30 29  1  0
 31 27  1  0
 32 33  2  0
 33 34  1  0
 35 34  2  0
 36 35  1  0
 37 11  1  0
 37 38  1  0
 37 47  1  0
 38 41  1  0
 39 43  1  0
 39 38  1  0
 40 39  2  0
 43 42  1  0
 45 43  1  0
 45 46  1  0
 45 44  1  0
 47 50  1  1
 47 48  1  0
 49 47  1  0
 52 51  1  0
 53 52  1  0
 54 53  1  0
 54 55  1  0
 55 64  1  0
 56 64  1  0
 57 62  1  0
 58 59  1  0
 58 57  1  0
 60 59  1  0
 60 69  1  0
 60 61  1  0
 62 56  1  0
 62 61  1  0
 63 56  2  0
 64 65  1  0
 66 67  2  0
 67 86  1  0
 68 67  1  0
 68 71  1  0
 69 66  1  0
 69 70  1  0
 70 68  2  0
 71 72  1  0
 72 73  2  0
 74 77  1  0
 74 73  1  0
 75 74  2  0
 76 75  1  0
 76 71  2  0
 77 78  1  0
 78 83  2  0
 78 79  1  0
 79 80  2  0
 81 80  1  0
 81 85  1  0
 82 81  2  0
 83 82  1  0
 84 83  1  0
 86 87  1  0
 87 90  1  0
 87 89  1  0
 88 86  2  0
 91 92  1  0
 91 66  1  0
 93 91  1  0
M  ISO  4   9 101  10 101  56 100  64 100
M  END
>  <TORSDO>  (69) 
F 23

>  <SCORE>  (69) 
-11.853

>  <name>  (69) 
69

>  <ligand_id>  (69) 
69

>  <original_smiles>  (69) 
[H]c1nc(C([H])([H])C([H])([H])C([H])([H])C([H])([H])C([H])([H])N([H])C(=O)N2C([H])([H])C([H])([H])C([H])([H])C([H])(n3nc(-c4c([H])c([H])c(Oc5c([H])c([H])c(F)c([H])c5F)c([H])c4[H])c(C(=O)N([H])[H])c3N([H])[H])C2([H])[H])c(C([H])([H])[H])c([H])c1C([H])([H])C([H])([H])Oc1c([H])c([H])c2c(c1[H])C([H])([H])N(C(=O)C([H])(N([H])C(=O)C([H])(N([H])C([H])([H])[H])C([H])([H])[H])C(C([H])([H])[H])(C([H])([H])[H])C([H])([H])[H])C([H])(C(=O)N([H])C1([H])c3c([H])c([H])c([H])c([H])c3C([H])([H])C([H])([H])C1([H])[H])C2([H])[H]

>  <smiles>  (69) 
[H]c1nc(C([H])([H])C([H])([H])C([H])([H])C([H])([H])C([H])([H])N([H])C(=O)N2C([H])([H])C([H])([H])C([H])([H])C([H])(n3nc(-c4c([H])c([H])c(Oc5c([H])c([H])c(F)c([H])c5F)c([H])c4[H])c(C(=O)N([H])[H])c3N([H])[H])C2([H])[H])c(C([H])([H])[H])c([H])c1C([H])([H])C([H])([H])Oc1c([H])c([H])c2c(c1[H])C([H])([H])N(C(=O)C([H])(N([H])C(=O)C([H])(N([H])C([H])([H])[H])C([H])([H])[H])C(C([H])([H])[H])(C([H])([H])[H])C([H])([H])[H])C([H])(C(=O)N([H])C1([H])c3c([H])c([H])c([H])c([H])c3C([H])([H])C([H])([H])C1([H])[H])C2([H])[H]

$$$$
70:0:0
     RDKit          3D

 90 98  0  0  1  0  0  0  0  0999 V2000
  -27.6490  -21.6930   21.5070 C   0  0  0  0  0  3  0  0  0  0  0  0
  -28.6350  -21.3760   20.6010 C   0  0  0  0  0  0  0  0  0  0  0  0
  -28.4250  -23.7150   20.8460 C   0  0  0  0  0  3  0  0  0  0  0  0
  -30.1890  -22.9510   19.2760 C   0  0  0  0  0  1  0  0  0  0  0  0
  -29.1050  -22.6750   20.2210 N   0  0  0  0  0  0  0  0  0  0  0  0
  -27.5420  -23.0620   21.6130 N   0  0  0  0  0  0  0  0  0  0  0  0
  -26.8970  -23.5250   22.2410 H   0  0  0  0  0  0  0  0  0  0  0  0
  -28.9220  -19.8990   20.0380 C   0  0  0  0  0  2  0  0  0  0  0  0
  -30.1530  -18.8960   20.4180 C   0  0  0  0  0  2  0  0  0  0  0  0
  -30.0650  -17.4320   21.1730 C   0  0  0  0  0  2  0  0  0  0  0  0
  -30.6390  -14.9060   20.4030 C   0  0  0  0  0  0  0  0  0  0  0  0
  -30.5040  -12.6120   19.3750 C   0  0  0  0  0  2  0  0  0  0  0  0
  -29.5680  -12.6290   18.1460 C   0  0  0  0  0  2  0  0  0  0  0  0
  -28.0980  -12.4350   18.5690 C   0  0  0  0  0  2  0  0  0  0  0  0
  -27.6980  -13.3370   19.7670 C   0  0  0  0  0  3  0  0  0  0  0  0
  -28.7480  -13.2800   20.8940 C   0  0  0  0  0  2  0  0  0  0  0  0
  -30.0330  -13.6680   20.3010 N   0  0  0  0  0  0  0  0  0  0  0  0
  -31.8480  -15.0100   20.1770 O   0  0  0  0  0  0  0  0  0  0  0  0
  -29.8270  -16.0320   20.5660 N   0  0  0  0  0  0  0  0  0  0  0  0
  -28.8490  -15.7830   20.5400 H   0  0  0  0  0  0  0  0  0  0  0  0
  -25.3050  -13.9210   20.4780 C   0  0  0  0  0  0  0  0  0  0  0  0
  -24.2400  -13.1440   20.8420 C   0  0  0  0  0  0  0  0  0  0  0  0
  -24.7080  -11.7950   20.8200 C   0  0  0  0  0  0  0  0  0  0  0  0
  -26.3530  -13.0440   20.2510 N   0  0  0  0  0  0  0  0  0  0  0  0
  -26.0030  -11.7610   20.5230 N   0  0  0  0  0  0  0  0  0  0  0  0
  -23.9850  -10.5310   21.0060 C   0  0  0  0  0  0  0  0  0  0  0  0
  -24.3960   -9.5790   21.9640 C   0  0  0  0  0  3  0  0  0  0  0  0
  -23.6730   -8.3790   22.1370 C   0  0  0  0  0  3  0  0  0  0  0  0
  -22.5230   -8.1240   21.3530 C   0  0  0  0  0  0  0  0  0  0  0  0
  -22.1310   -9.0650   20.3830 C   0  0  0  0  0  3  0  0  0  0  0  0
  -22.8550  -10.2560   20.2090 C   0  0  0  0  0  3  0  0  0  0  0  0
  -21.7720   -6.9760   21.4330 O   0  0  0  0  0  0  0  0  0  0  0  0
  -21.6780   -6.2590   22.5990 C   0  0  0  0  0  0  0  0  0  0  0  0
  -21.1750   -6.8310   23.7880 C   0  0  0  0  0  3  0  0  0  0  0  0
  -21.0310   -6.0390   24.9450 C   0  0  0  0  0  3  0  0  0  0  0  0
  -21.3780   -4.6760   24.9130 C   0  0  0  0  0  0  0  0  0  0  0  0
  -21.8740   -4.1030   23.7280 C   0  0  0  0  0  3  0  0  0  0  0  0
  -22.0200   -4.8920   22.5750 C   0  0  0  0  0  0  0  0  0  0  0  0
  -22.4780   -4.3300   21.4290 F   0  0  0  0  0  0  0  0  0  0  0  0
  -21.2330   -3.9120   26.0210 F   0  0  0  0  0  0  0  0  0  0  0  0
  -22.8370  -13.6170   21.0960 C   0  0  0  0  0  0  0  0  0  0  0  0
  -22.1000  -12.9180   21.9520 N   0  0  0  0  0  0  0  0  0  0  0  0
  -22.4040  -14.6430   20.5710 O   0  0  0  0  0  0  0  0  0  0  0  0
  -22.4640  -12.0900   22.3980 H   0  0  0  0  0  0  0  0  0  0  0  0
  -21.1580  -13.2160   22.1620 H   0  0  0  0  0  0  0  0  0  0  0  0
  -25.4630  -15.2920   20.2940 N   0  0  0  0  0  0  0  0  0  0  0  0
  -24.6840  -15.9350   20.3860 H   0  0  0  0  0  0  0  0  0  0  0  0
  -26.2960  -15.7330   19.9260 H   0  0  0  0  0  0  0  0  0  0  0  0
  -28.6630  -25.2970   21.0430 C   0  0  0  0  0  2  0  0  0  0  0  0
  -28.3770  -26.4320   20.0940 O   0  0  0  0  0  0  0  0  0  0  0  0
  -24.6310  -31.9240   23.2290 C   0  0  0  0  0  0  0  0  0  0  0  0
  -27.2670  -27.3050   20.2150 C   0  0  0  0  0  0  0  0  0  0  0  0
  -23.4410  -30.5130   21.5910 C   0  0  0  0  0  3  0  0  0  0  0  0
  -24.9040  -28.9490   20.1830 C   0  0  0  0  0  0  0  0  0  0  0  0
  -25.9840  -30.8290   21.4140 C   0  0  0  0  0  2  0  0  0  0  0  0
  -26.0740  -29.4360   20.7850 C   0  0  0  0  0  0  0  0  0  0  0  0
  -27.2620  -28.6270   20.7870 C   0  0  0  0  0  3  0  0  0  0  0  0
  -26.0760  -26.8890   19.5930 C   0  0  0  0  0  3  0  0  0  0  0  0
  -24.9090  -27.6830   19.5780 C   0  0  0  0  0  3  0  0  0  0  0  0
  -23.6660  -29.8280   20.2170 C   0  0  0  0  0  2  0  0  0  0  0  0
  -24.7040  -31.1100   22.1330 N   0  0  0  0  0  0  0  0  0  0  0  0
  -23.5440  -32.1960   23.7620 O   0  0  0  0  0  0  0  0  0  0  0  0
  -22.7800  -29.4980   22.5560 C   0  0  0  0  0  0  0  0  0  0  0  0
  -21.4530  -29.3140   22.4320 N   0  0  0  0  0  0  0  0  0  0  0  0
  -23.4610  -28.8770   23.3760 O   0  0  0  0  0  0  0  0  0  0  0  0
  -20.9600  -29.8660   21.7440 H   0  0  0  0  0  0  0  0  0  0  0  0
  -18.0810  -28.1050   22.9500 C   0  0  0  0  0  0  0  0  0  0  0  0
  -20.6410  -28.3710   23.2050 C   0  0  0  0  0  3  0  0  0  0  0  0
  -20.7440  -26.9420   22.6240 C   0  0  0  0  0  2  0  0  0  0  0  0
  -19.6370  -26.6190   21.6150 C   0  0  0  0  0  2  0  0  0  0  0  0
  -18.2590  -26.7590   22.2680 C   0  0  0  0  0  2  0  0  0  0  0  0
  -19.2000  -28.8690   23.3760 C   0  0  0  0  0  0  0  0  0  0  0  0
  -18.9800  -30.1290   23.9730 C   0  0  0  0  0  3  0  0  0  0  0  0
  -17.6750  -30.6250   24.1490 C   0  0  0  0  0  3  0  0  0  0  0  0
  -16.5710  -29.8570   23.7400 C   0  0  0  0  0  3  0  0  0  0  0  0
  -16.7750  -28.5990   23.1450 C   0  0  0  0  0  3  0  0  0  0  0  0
  -25.9060  -32.5700   23.8530 C   0  0  0  0  0  3  0  0  0  0  0  0
  -26.4250  -31.8070   25.1330 C   0  0  1  0  0  0  0  0  0  0  0  0
  -25.3290  -31.5650   26.1980 C   0  0  0  0  0  1  0  0  0  0  0  0
  -27.0200  -30.4340   24.7490 C   0  0  0  0  0  1  0  0  0  0  0  0
  -27.5660  -32.6120   25.7970 C   0  0  0  0  0  1  0  0  0  0  0  0
  -25.5850  -33.9670   24.1800 N   0  0  0  0  0  0  0  0  0  0  0  0
  -25.9130  -35.0230   23.4240 C   0  0  0  0  0  0  0  0  0  0  0  0
  -26.5840  -34.9240   22.3940 O   0  0  0  0  0  0  0  0  0  0  0  0
  -24.9910  -34.1170   24.9830 H   0  0  0  0  0  0  0  0  0  0  0  0
  -24.1820  -36.8110   23.0570 C   0  0  0  0  0  1  0  0  0  0  0  0
  -25.4140  -36.4080   23.8820 C   0  0  0  0  0  3  0  0  0  0  0  0
  -27.5350  -37.3000   24.7400 C   0  0  0  0  0  1  0  0  0  0  0  0
  -26.4430  -37.4650   23.7830 N   0  0  0  0  0  0  0  0  0  0  0  0
  -26.0310  -38.3830   23.9290 H   0  0  0  0  0  0  0  0  0  0  0  0
  1  6  1  0
  2  1  2  0
  3 49  1  0
  3  6  1  0
  4  5  1  0
  5  2  1  0
  5  3  1  0
  6  7  1  0
  8  9  1  0
  8  2  1  0
  9 10  1  0
 11 19  1  0
 12 17  1  0
 13 14  1  0
 13 12  1  0
 15 14  1  0
 15 24  1  0
 15 16  1  0
 17 11  1  0
 17 16  1  0
 18 11  2  0
 19 10  1  0
 20 19  1  0
 21 22  2  0
 22 41  1  0
 23 22  1  0
 23 26  1  0
 24 21  1  0
 24 25  1  0
 25 23  2  0
 26 27  1  0
 27 28  2  0
 29 32  1  0
 29 28  1  0
 30 29  2  0
 31 30  1  0
 31 26  2  0
 32 33  1  0
 33 34  1  0
 34 35  2  0
 36 35  1  0
 36 40  1  0
 37 36  2  0
 38 33  2  0
 38 37  1  0
 39 38  1  0
 41 42  1  0
 42 45  1  0
 42 44  1  0
 43 41  2  0
 46 47  1  0
 46 21  1  0
 48 46  1  0
 50 52  1  0
 50 49  1  0
 51 62  2  0
 52 57  1  0
 53 61  1  0
 53 63  1  0
 54 60  1  0
 54 56  1  0
 55 61  1  0
 56 57  2  0
 56 55  1  0
 58 52  2  0
 59 58  1  0
 59 54  2  0
 60 53  1  0
 61 51  1  0
 63 65  2  0
 64 63  1  0
 66 64  1  0
 67 76  2  0
 67 72  1  0
 68 64  1  0
 68 72  1  0
 69 68  1  0
 70 71  1  0
 70 69  1  0
 71 67  1  0
 72 73  2  0
 73 74  1  0
 75 74  2  0
 76 75  1  0
 77 51  1  0
 77 82  1  0
 77 78  1  0
 78 81  1  1
 78 79  1  0
 80 78  1  0
 82 85  1  0
 83 87  1  0
 83 82  1  0
 84 83  2  0
 87 86  1  0
 89 87  1  0
 89 90  1  0
 89 88  1  0
M  ISO  4  11 100  19 100  49 101  50 101
M  END
>  <TORSDO>  (70) 
F 20

>  <SCORE>  (70) 
-13.686

>  <name>  (70) 
70

>  <ligand_id>  (70) 
70

>  <original_smiles>  (70) 
[H]c1c([H])c([H])c2c(c1[H])C([H])([H])C([H])([H])C([H])([H])C2([H])N([H])C(=O)C1([H])N(C(=O)C([H])(N([H])C(=O)C([H])(N([H])C([H])([H])[H])C([H])([H])[H])C(C([H])([H])[H])(C([H])([H])[H])C([H])([H])[H])C([H])([H])c2c([H])c(OC([H])([H])c3n(C([H])([H])[H])c(C([H])([H])C([H])([H])C([H])([H])N([H])C(=O)N4C([H])([H])C([H])([H])C([H])([H])C([H])(n5nc(-c6c([H])c([H])c(Oc7c([H])c([H])c(F)c([H])c7F)c([H])c6[H])c(C(=O)N([H])[H])c5N([H])[H])C4([H])[H])c([H])[n+]3[H])c([H])c([H])c2C1([H])[H]

>  <smiles>  (70) 
[H]c1c([H])c([H])c2c(c1[H])C([H])([H])C([H])([H])C([H])([H])C2([H])N([H])C(=O)C1([H])N(C(=O)C([H])(N([H])C(=O)C([H])(N([H])C([H])([H])[H])C([H])([H])[H])C(C([H])([H])[H])(C([H])([H])[H])C([H])([H])[H])C([H])([H])c2c([H])c(OC([H])([H])c3n(C([H])([H])[H])c(C([H])([H])C([H])([H])C([H])([H])N([H])C(=O)N4C([H])([H])C([H])([H])C([H])([H])C([H])(n5nc(-c6c([H])c([H])c(Oc7c([H])c([H])c(F)c([H])c7F)c([H])c6[H])c(C(=O)N([H])[H])c5N([H])[H])C4([H])[H])c([H])[n+]3[H])c([H])c([H])c2C1([H])[H]

$$$$
71:0:0
     RDKit          3D

 93102  0  0  1  0  0  0  0  0999 V2000
  -29.2510  -22.0920   22.1050 C   0  0  0  0  0  2  0  0  0  0  0  0
  -29.3170  -22.3430   19.6330 C   0  0  0  0  0  2  0  0  0  0  0  0
  -29.2350  -23.6350   22.2660 C   0  0  0  0  0  2  0  0  0  0  0  0
  -29.3680  -23.8870   19.7670 C   0  0  0  0  0  2  0  0  0  0  0  0
  -30.0010  -21.6370   20.8300 C   0  0  0  0  0  3  0  0  0  0  0  0
  -28.6610  -24.3960   21.0420 C   0  0  0  0  0  3  0  0  0  0  0  0
  -29.9060  -19.1150   21.6090 C   0  0  0  0  0  3  0  0  0  0  0  0
  -30.1870  -20.1220   20.7150 C   0  0  0  0  0  0  0  0  0  0  0  0
  -30.4980  -17.9320   21.0670 C   0  0  0  0  0  0  0  0  0  0  0  0
  -31.4140  -20.0560   18.4520 C   0  0  0  0  0  1  0  0  0  0  0  0
  -30.9960  -18.1620   19.8650 N   0  0  0  0  0  0  0  0  0  0  0  0
  -30.8380  -19.4920   19.6590 N   0  0  0  0  0  0  0  0  0  0  0  0
  -30.7580  -16.6000   21.7550 C   0  0  0  0  0  2  0  0  0  0  0  0
  -30.7280  -14.5080   20.3530 C   0  0  0  0  0  0  0  0  0  0  0  0
  -30.3770  -12.4060   19.0890 C   0  0  0  0  0  2  0  0  0  0  0  0
  -29.4000  -12.6320   17.9170 C   0  0  0  0  0  2  0  0  0  0  0  0
  -27.9370  -12.4920   18.3820 C   0  0  0  0  0  2  0  0  0  0  0  0
  -27.6390  -13.2970   19.6740 C   0  0  0  0  0  3  0  0  0  0  0  0
  -28.7170  -13.0300   20.7460 C   0  0  0  0  0  2  0  0  0  0  0  0
  -30.0280  -13.3560   20.1570 N   0  0  0  0  0  0  0  0  0  0  0  0
  -31.8160  -14.7270   19.8130 O   0  0  0  0  0  0  0  0  0  0  0  0
  -30.1400  -15.4080   21.1600 N   0  0  0  0  0  0  0  0  0  0  0  0
  -29.2310  -15.1590   21.5170 H   0  0  0  0  0  0  0  0  0  0  0  0
  -25.2570  -13.9080   20.4330 C   0  0  0  0  0  0  0  0  0  0  0  0
  -24.1950  -13.1370   20.8210 C   0  0  0  0  0  0  0  0  0  0  0  0
  -24.6520  -11.7840   20.7740 C   0  0  0  0  0  0  0  0  0  0  0  0
  -26.2950  -13.0250   20.1770 N   0  0  0  0  0  0  0  0  0  0  0  0
  -25.9340  -11.7420   20.4370 N   0  0  0  0  0  0  0  0  0  0  0  0
  -23.9260  -10.5230   20.9730 C   0  0  0  0  0  0  0  0  0  0  0  0
  -24.3670   -9.5550   21.9020 C   0  0  0  0  0  3  0  0  0  0  0  0
  -23.6410   -8.3590   22.0880 C   0  0  0  0  0  3  0  0  0  0  0  0
  -22.4600   -8.1220   21.3450 C   0  0  0  0  0  0  0  0  0  0  0  0
  -22.0390   -9.0780   20.4050 C   0  0  0  0  0  3  0  0  0  0  0  0
  -22.7650  -10.2660   20.2170 C   0  0  0  0  0  3  0  0  0  0  0  0
  -21.7050   -6.9780   21.4410 O   0  0  0  0  0  0  0  0  0  0  0  0
  -21.6550   -6.2440   22.5990 C   0  0  0  0  0  0  0  0  0  0  0  0
  -21.2250   -6.8080   23.8210 C   0  0  0  0  0  3  0  0  0  0  0  0
  -21.1200   -6.0010   24.9710 C   0  0  0  0  0  3  0  0  0  0  0  0
  -21.4370   -4.6310   24.9010 C   0  0  0  0  0  0  0  0  0  0  0  0
  -21.8600   -4.0660   23.6850 C   0  0  0  0  0  3  0  0  0  0  0  0
  -21.9660   -4.8710   22.5360 C   0  0  0  0  0  0  0  0  0  0  0  0
  -22.3530   -4.3170   21.3620 F   0  0  0  0  0  0  0  0  0  0  0  0
  -21.3300   -3.8530   26.0050 F   0  0  0  0  0  0  0  0  0  0  0  0
  -22.8050  -13.6160   21.1250 C   0  0  0  0  0  0  0  0  0  0  0  0
  -22.0920  -12.9160   22.0010 N   0  0  0  0  0  0  0  0  0  0  0  0
  -22.3590  -14.6470   20.6220 O   0  0  0  0  0  0  0  0  0  0  0  0
  -22.4650  -12.0820   22.4300 H   0  0  0  0  0  0  0  0  0  0  0  0
  -21.1600  -13.2200   22.2470 H   0  0  0  0  0  0  0  0  0  0  0  0
  -25.4210  -15.2790   20.2570 N   0  0  0  0  0  0  0  0  0  0  0  0
  -24.6590  -15.9360   20.3820 H   0  0  0  0  0  0  0  0  0  0  0  0
  -26.2670  -15.7170   19.9110 H   0  0  0  0  0  0  0  0  0  0  0  0
  -28.7760  -25.9410   21.2450 C   0  0  0  0  0  2  0  0  0  0  0  0
  -28.4270  -26.7200   20.0930 O   0  0  0  0  0  0  0  0  0  0  0  0
  -24.6170  -31.9110   23.2400 C   0  0  0  0  0  0  0  0  0  0  0  0
  -27.2690  -27.4590   20.1740 C   0  0  0  0  0  0  0  0  0  0  0  0
  -23.4110  -30.4950   21.6090 C   0  0  0  0  0  3  0  0  0  0  0  0
  -24.8690  -28.9520   20.1910 C   0  0  0  0  0  0  0  0  0  0  0  0
  -25.9340  -30.8610   21.4020 C   0  0  0  0  0  2  0  0  0  0  0  0
  -26.0270  -29.4840   20.7740 C   0  0  0  0  0  0  0  0  0  0  0  0
  -27.2320  -28.7430   20.7680 C   0  0  0  0  0  3  0  0  0  0  0  0
  -26.0970  -26.9400   19.5900 C   0  0  0  0  0  3  0  0  0  0  0  0
  -24.8970  -27.6750   19.6010 C   0  0  0  0  0  3  0  0  0  0  0  0
  -23.6210  -29.8080   20.2330 C   0  0  0  0  0  2  0  0  0  0  0  0
  -24.6720  -31.1060   22.1410 N   0  0  0  0  0  0  0  0  0  0  0  0
  -23.5370  -32.1800   23.7840 O   0  0  0  0  0  0  0  0  0  0  0  0
  -22.7690  -29.4760   22.5780 C   0  0  0  0  0  0  0  0  0  0  0  0
  -21.4450  -29.2850   22.4550 N   0  0  0  0  0  0  0  0  0  0  0  0
  -23.4590  -28.8590   23.3940 O   0  0  0  0  0  0  0  0  0  0  0  0
  -20.9520  -29.8350   21.7660 H   0  0  0  0  0  0  0  0  0  0  0  0
  -18.0800  -28.0740   22.9700 C   0  0  0  0  0  0  0  0  0  0  0  0
  -20.6370  -28.3460   23.2310 C   0  0  0  0  0  3  0  0  0  0  0  0
  -20.7450  -26.9140   22.6610 C   0  0  0  0  0  2  0  0  0  0  0  0
  -19.6410  -26.5830   21.6500 C   0  0  0  0  0  2  0  0  0  0  0  0
  -18.2600  -26.7230   22.2990 C   0  0  0  0  0  2  0  0  0  0  0  0
  -19.1950  -28.8430   23.3940 C   0  0  0  0  0  0  0  0  0  0  0  0
  -18.9740  -30.1080   23.9810 C   0  0  0  0  0  3  0  0  0  0  0  0
  -17.6680  -30.6040   24.1480 C   0  0  0  0  0  3  0  0  0  0  0  0
  -16.5660  -29.8330   23.7420 C   0  0  0  0  0  3  0  0  0  0  0  0
  -16.7730  -28.5700   23.1600 C   0  0  0  0  0  3  0  0  0  0  0  0
  -25.9030  -32.5500   23.8530 C   0  0  0  0  0  3  0  0  0  0  0  0
  -26.4340  -31.7850   25.1270 C   0  0  1  0  0  0  0  0  0  0  0  0
  -25.3510  -31.5390   26.2030 C   0  0  0  0  0  1  0  0  0  0  0  0
  -27.0280  -30.4130   24.7310 C   0  0  0  0  0  1  0  0  0  0  0  0
  -27.5820  -32.5890   25.7810 C   0  0  0  0  0  1  0  0  0  0  0  0
  -25.5900  -33.9460   24.1810 N   0  0  0  0  0  0  0  0  0  0  0  0
  -25.9190  -34.9990   23.4200 C   0  0  0  0  0  0  0  0  0  0  0  0
  -26.5910  -34.8970   22.3900 O   0  0  0  0  0  0  0  0  0  0  0  0
  -24.9910  -34.1000   24.9790 H   0  0  0  0  0  0  0  0  0  0  0  0
  -24.1890  -36.7870   23.0530 C   0  0  0  0  0  1  0  0  0  0  0  0
  -25.4240  -36.3850   23.8740 C   0  0  0  0  0  3  0  0  0  0  0  0
  -27.5480  -37.2730   24.7250 C   0  0  0  0  0  1  0  0  0  0  0  0
  -26.4550  -37.4400   23.7710 N   0  0  0  0  0  0  0  0  0  0  0  0
  -26.0460  -38.3590   23.9170 H   0  0  0  0  0  0  0  0  0  0  0  0
  1  3  1  0
  2  4  1  0
  2  5  1  0
  4  6  1  0
  5  8  1  0
  5  1  1  0
  6 52  1  0
  6  3  1  0
  8  7  2  0
  9  7  1  0
  9 13  1  0
 10 12  1  0
 11  9  2  0
 12 11  1  0
 12  8  1  0
 14 22  1  0
 15 20  1  0
 16 17  1  0
 16 15  1  0
 18 17  1  0
 18 27  1  0
 18 19  1  0
 20 14  1  0
 20 19  1  0
 21 14  2  0
 22 23  1  0
 22 13  1  0
 24 25  2  0
 25 44  1  0
 26 25  1  0
 26 29  1  0
 27 24  1  0
 27 28  1  0
 28 26  2  0
 29 30  1  0
 30 31  2  0
 32 35  1  0
 32 31  1  0
 33 32  2  0
 34 33  1  0
 34 29  2  0
 35 36  1  0
 36 37  1  0
 37 38  2  0
 39 38  1  0
 39 43  1  0
 40 39  2  0
 41 36  2  0
 41 40  1  0
 42 41  1  0
 44 45  1  0
 45 48  1  0
 45 47  1  0
 46 44  2  0
 49 50  1  0
 49 24  1  0
 51 49  1  0
 53 55  1  0
 53 52  1  0
 54 65  2  0
 55 60  1  0
 56 64  1  0
 56 66  1  0
 57 63  1  0
 57 59  1  0
 58 64  1  0
 59 58  1  0
 60 59  2  0
 61 62  1  0
 61 55  2  0
 62 57  2  0
 63 56  1  0
 64 54  1  0
 66 68  2  0
 67 66  1  0
 69 67  1  0
 70 79  2  0
 70 75  1  0
 71 67  1  0
 71 75  1  0
 72 71  1  0
 73 74  1  0
 73 72  1  0
 74 70  1  0
 75 76  2  0
 76 77  1  0
 78 77  2  0
 79 78  1  0
 80 54  1  0
 80 85  1  0
 80 81  1  0
 81 84  1  1
 81 82  1  0
 83 81  1  0
 85 88  1  0
 86 90  1  0
 86 85  1  0
 87 86  2  0
 90 89  1  0
 92 90  1  0
 92 93  1  0
 92 91  1  0
M  ISO  4  14 100  22 100  52 101  53 101
M  END
>  <TORSDO>  (71) 
F 19

>  <SCORE>  (71) 
-14.352

>  <name>  (71) 
71

>  <ligand_id>  (71) 
71

>  <original_smiles>  (71) 
[H]c1c([H])c([H])c2c(c1[H])C([H])([H])C([H])([H])C([H])([H])C2([H])N([H])C(=O)C1([H])N(C(=O)C([H])(N([H])C(=O)C([H])(N([H])C([H])([H])[H])C([H])([H])[H])C(C([H])([H])[H])(C([H])([H])[H])C([H])([H])[H])C([H])([H])c2c([H])c(OC([H])([H])C3([H])C([H])([H])C([H])([H])C([H])(c4c([H])c(C([H])([H])N([H])C(=O)N5C([H])([H])C([H])([H])C([H])([H])C([H])(n6nc(-c7c([H])c([H])c(Oc8c([H])c([H])c(F)c([H])c8F)c([H])c7[H])c(C(=O)N([H])[H])c6N([H])[H])C5([H])[H])nn4C([H])([H])[H])C([H])([H])C3([H])[H])c([H])c([H])c2C1([H])[H]

>  <smiles>  (71) 
[H]c1c([H])c([H])c2c(c1[H])C([H])([H])C([H])([H])C([H])([H])C2([H])N([H])C(=O)C1([H])N(C(=O)C([H])(N([H])C(=O)C([H])(N([H])C([H])([H])[H])C([H])([H])[H])C(C([H])([H])[H])(C([H])([H])[H])C([H])([H])[H])C([H])([H])c2c([H])c(OC([H])([H])C3([H])C([H])([H])C([H])([H])C([H])(c4c([H])c(C([H])([H])N([H])C(=O)N5C([H])([H])C([H])([H])C([H])([H])C([H])(n6nc(-c7c([H])c([H])c(Oc8c([H])c([H])c(F)c([H])c8F)c([H])c7[H])c(C(=O)N([H])[H])c6N([H])[H])C5([H])[H])nn4C([H])([H])[H])C([H])([H])C3([H])[H])c([H])c([H])c2C1([H])[H]

$$$$
72:0:0
     RDKit          3D

 92100  0  0  1  0  0  0  0  0999 V2000
  -29.6470  -21.6850   19.2640 C   0  0  0  0  0  3  0  0  0  0  0  0
  -29.2220  -22.9800   18.8710 C   0  0  0  0  0  3  0  0  0  0  0  0
  -29.6360  -22.4080   21.5620 C   0  0  0  0  0  3  0  0  0  0  0  0
  -29.8450  -21.3600   20.6240 C   0  0  0  0  0  0  0  0  0  0  0  0
  -28.9690  -24.0190   19.8060 C   0  0  0  0  0  0  0  0  0  0  0  0
  -29.2000  -23.7160   21.1780 C   0  0  0  0  0  0  0  0  0  0  0  0
  -27.4600  -24.8530   22.6510 C   0  0  0  0  0  1  0  0  0  0  0  0
  -28.9400  -24.7600   22.2580 C   0  0  0  0  0  3  0  0  0  0  0  0
  -29.6470  -24.4790   23.3550 F   0  0  0  0  0  0  0  0  0  0  0  0
  -30.4270  -19.9780   21.0590 C   0  0  0  0  0  2  0  0  0  0  0  0
  -29.6420  -18.6250   20.8180 C   0  0  0  0  0  2  0  0  0  0  0  0
  -30.5360  -17.3490   21.1080 C   0  0  0  0  0  2  0  0  0  0  0  0
  -30.6650  -14.8520   20.6620 C   0  0  0  0  0  0  0  0  0  0  0  0
  -30.4260  -12.6430   19.5670 C   0  0  0  0  0  2  0  0  0  0  0  0
  -29.5210  -12.7820   18.3260 C   0  0  0  0  0  2  0  0  0  0  0  0
  -28.0430  -12.6040   18.7210 C   0  0  0  0  0  2  0  0  0  0  0  0
  -27.6440  -13.4680   19.9480 C   0  0  0  0  0  3  0  0  0  0  0  0
  -28.6750  -13.3410   21.0920 C   0  0  0  0  0  2  0  0  0  0  0  0
  -29.9950  -13.6660   20.5400 N   0  0  0  0  0  0  0  0  0  0  0  0
  -31.8440  -14.9580   20.3220 O   0  0  0  0  0  0  0  0  0  0  0  0
  -29.9520  -15.9720   20.9860 N   0  0  0  0  0  0  0  0  0  0  0  0
  -28.9730  -15.8480   21.2010 H   0  0  0  0  0  0  0  0  0  0  0  0
  -25.2240  -14.0300   20.6000 C   0  0  0  0  0  0  0  0  0  0  0  0
  -24.1580  -13.2410   20.9320 C   0  0  0  0  0  0  0  0  0  0  0  0
  -24.6400  -11.8950   20.9100 C   0  0  0  0  0  0  0  0  0  0  0  0
  -26.2880  -13.1660   20.3950 N   0  0  0  0  0  0  0  0  0  0  0  0
  -25.9400  -11.8770   20.6430 N   0  0  0  0  0  0  0  0  0  0  0  0
  -23.9250  -10.6220   21.0710 C   0  0  0  0  0  0  0  0  0  0  0  0
  -24.3480   -9.6490   22.0040 C   0  0  0  0  0  3  0  0  0  0  0  0
  -23.6340   -8.4420   22.1540 C   0  0  0  0  0  3  0  0  0  0  0  0
  -22.4810   -8.1980   21.3700 C   0  0  0  0  0  0  0  0  0  0  0  0
  -22.0770   -9.1590   20.4260 C   0  0  0  0  0  3  0  0  0  0  0  0
  -22.7930  -10.3570   20.2740 C   0  0  0  0  0  3  0  0  0  0  0  0
  -21.7380   -7.0430   21.4290 O   0  0  0  0  0  0  0  0  0  0  0  0
  -21.6750   -6.2850   22.5700 C   0  0  0  0  0  0  0  0  0  0  0  0
  -21.2010   -6.8130   23.7900 C   0  0  0  0  0  3  0  0  0  0  0  0
  -21.0890   -5.9800   24.9220 C   0  0  0  0  0  3  0  0  0  0  0  0
  -21.4420   -4.6210   24.8340 C   0  0  0  0  0  0  0  0  0  0  0  0
  -21.9090   -4.0920   23.6180 C   0  0  0  0  0  3  0  0  0  0  0  0
  -22.0230   -4.9220   22.4900 C   0  0  0  0  0  0  0  0  0  0  0  0
  -22.4540   -4.4030   21.3140 F   0  0  0  0  0  0  0  0  0  0  0  0
  -21.3260   -3.8180   25.9170 F   0  0  0  0  0  0  0  0  0  0  0  0
  -22.7460  -13.6970   21.1630 C   0  0  0  0  0  0  0  0  0  0  0  0
  -22.0040  -12.9890   22.0060 N   0  0  0  0  0  0  0  0  0  0  0  0
  -22.3100  -14.7160   20.6300 O   0  0  0  0  0  0  0  0  0  0  0  0
  -22.3690  -12.1610   22.4560 H   0  0  0  0  0  0  0  0  0  0  0  0
  -21.0570  -13.2770   22.2070 H   0  0  0  0  0  0  0  0  0  0  0  0
  -25.3740  -15.4040   20.4320 N   0  0  0  0  0  0  0  0  0  0  0  0
  -24.5940  -16.0460   20.5150 H   0  0  0  0  0  0  0  0  0  0  0  0
  -26.2250  -15.8560   20.1220 H   0  0  0  0  0  0  0  0  0  0  0  0
  -28.1660  -25.2550   19.3020 C   0  0  0  0  0  2  0  0  0  0  0  0
  -28.4330  -26.6540   19.6820 O   0  0  0  0  0  0  0  0  0  0  0  0
  -24.6100  -31.7610   23.0490 C   0  0  0  0  0  0  0  0  0  0  0  0
  -27.3030  -27.4920   19.6740 C   0  0  0  0  0  0  0  0  0  0  0  0
  -23.4170  -30.4170   21.3590 C   0  0  0  0  0  3  0  0  0  0  0  0
  -24.8870  -29.0210   19.8120 C   0  0  0  0  0  0  0  0  0  0  0  0
  -25.9420  -30.8350   21.1450 C   0  0  0  0  0  2  0  0  0  0  0  0
  -26.0530  -29.5030   20.4200 C   0  0  0  0  0  0  0  0  0  0  0  0
  -27.2610  -28.7480   20.3530 C   0  0  0  0  0  3  0  0  0  0  0  0
  -26.1090  -27.0900   19.0170 C   0  0  0  0  0  3  0  0  0  0  0  0
  -24.9160  -27.8180   19.1020 C   0  0  0  0  0  3  0  0  0  0  0  0
  -23.6220  -29.8400   19.9370 C   0  0  0  0  0  2  0  0  0  0  0  0
  -24.6760  -31.0170   21.9080 N   0  0  0  0  0  0  0  0  0  0  0  0
  -23.5300  -31.9690   23.6200 O   0  0  0  0  0  0  0  0  0  0  0  0
  -22.8140  -29.3190   22.2670 C   0  0  0  0  0  0  0  0  0  0  0  0
  -21.4930  -29.1010   22.1580 N   0  0  0  0  0  0  0  0  0  0  0  0
  -23.5320  -28.6710   23.0340 O   0  0  0  0  0  0  0  0  0  0  0  0
  -20.9710  -29.6810   21.5150 H   0  0  0  0  0  0  0  0  0  0  0  0
  -18.1670  -27.7700   22.6580 C   0  0  0  0  0  0  0  0  0  0  0  0
  -20.7220  -28.0970   22.8900 C   0  0  0  0  0  3  0  0  0  0  0  0
  -20.8560  -26.7030   22.2350 C   0  0  0  0  0  2  0  0  0  0  0  0
  -19.7430  -26.3990   21.2270 C   0  0  0  0  0  2  0  0  0  0  0  0
  -18.3700  -26.4650   21.9050 C   0  0  0  0  0  2  0  0  0  0  0  0
  -19.2700  -28.5440   23.1060 C   0  0  0  0  0  0  0  0  0  0  0  0
  -19.0240  -29.7650   23.7690 C   0  0  0  0  0  3  0  0  0  0  0  0
  -17.7090  -30.2150   23.9900 C   0  0  0  0  0  3  0  0  0  0  0  0
  -16.6200  -29.4360   23.5570 C   0  0  0  0  0  3  0  0  0  0  0  0
  -16.8500  -28.2160   22.8960 C   0  0  0  0  0  3  0  0  0  0  0  0
  -25.8850  -32.4010   23.6770 C   0  0  0  0  0  3  0  0  0  0  0  0
  -25.5330  -33.7660   24.0950 N   0  0  0  0  0  0  0  0  0  0  0  0
  -25.8080  -34.8710   23.3910 C   0  0  0  0  0  0  0  0  0  0  0  0
  -26.4540  -34.8530   22.3400 O   0  0  0  0  0  0  0  0  0  0  0  0
  -24.9580  -33.8530   24.9190 H   0  0  0  0  0  0  0  0  0  0  0  0
  -24.0100  -36.6190   23.1820 C   0  0  0  0  0  1  0  0  0  0  0  0
  -25.2830  -36.2120   23.9410 C   0  0  0  0  0  3  0  0  0  0  0  0
  -27.4010  -37.1250   24.7840 C   0  0  0  0  0  1  0  0  0  0  0  0
  -26.2750  -37.3060   23.8710 N   0  0  0  0  0  0  0  0  0  0  0  0
  -25.8390  -38.2010   24.0810 H   0  0  0  0  0  0  0  0  0  0  0  0
  -26.4580  -31.5770   24.8940 C   0  0  1  0  0  0  0  0  0  0  0  0
  -25.4000  -31.2400   25.9710 C   0  0  0  0  0  1  0  0  0  0  0  0
  -27.0770  -30.2450   24.4090 C   0  0  0  0  0  1  0  0  0  0  0  0
  -27.5960  -32.3730   25.5760 C   0  0  0  0  0  1  0  0  0  0  0  0
  1  4  1  0
  2  1  2  0
  2  5  1  0
  4 10  1  0
  4  3  2  0
  5  6  2  0
  6  3  1  0
  6  8  1  0
  8  7  1  0
  8  9  1  0
 11 10  1  0
 11 12  1  0
 13 21  1  0
 14 19  1  0
 15 16  1  0
 15 14  1  0
 17 16  1  0
 17 26  1  0
 17 18  1  0
 19 13  1  0
 19 18  1  0
 20 13  2  0
 21 12  1  0
 21 22  1  0
 23 24  2  0
 24 43  1  0
 25 24  1  0
 25 28  1  0
 26 23  1  0
 26 27  1  0
 27 25  2  0
 28 29  1  0
 29 30  2  0
 31 34  1  0
 31 30  1  0
 32 31  2  0
 33 32  1  0
 33 28  2  0
 34 35  1  0
 35 36  1  0
 36 37  2  0
 38 37  1  0
 38 42  1  0
 39 38  2  0
 40 35  2  0
 40 39  1  0
 41 40  1  0
 43 44  1  0
 44 47  1  0
 44 46  1  0
 45 43  2  0
 48 49  1  0
 48 23  1  0
 50 48  1  0
 51 52  1  0
 51  5  1  0
 53 64  2  0
 54 52  1  0
 54 59  1  0
 55 63  1  0
 55 65  1  0
 56 62  1  0
 56 58  1  0
 57 63  1  0
 58 57  1  0
 59 58  2  0
 60 61  1  0
 60 54  2  0
 61 56  2  0
 62 55  1  0
 63 53  1  0
 65 67  2  0
 66 65  1  0
 68 66  1  0
 69 78  2  0
 69 74  1  0
 70 66  1  0
 70 74  1  0
 71 70  1  0
 72 73  1  0
 72 71  1  0
 73 69  1  0
 74 75  2  0
 75 76  1  0
 77 76  2  0
 78 77  1  0
 79 53  1  0
 79 80  1  0
 79 89  1  0
 80 83  1  0
 81 85  1  0
 81 80  1  0
 82 81  2  0
 85 84  1  0
 87 85  1  0
 87 88  1  0
 87 86  1  0
 89 92  1  1
 89 90  1  0
 91 89  1  0
M  ISO  4  13 100  21 100  51 101  52 101
M  END
>  <TORSDO>  (72) 
F 21

>  <SCORE>  (72) 
-13.074

>  <name>  (72) 
72

>  <ligand_id>  (72) 
72

>  <original_smiles>  (72) 
[H]c1c([H])c([H])c2c(c1[H])C([H])([H])C([H])([H])C([H])([H])C2([H])N([H])C(=O)C1([H])N(C(=O)C([H])(N([H])C(=O)C([H])(N([H])C([H])([H])[H])C([H])([H])[H])C(C([H])([H])[H])(C([H])([H])[H])C([H])([H])[H])C([H])([H])c2c([H])c(OC([H])([H])c3c([H])c([H])c(C([H])([H])C([H])([H])C([H])([H])N([H])C(=O)N4C([H])([H])C([H])([H])C([H])([H])C([H])(n5nc(-c6c([H])c([H])c(Oc7c([H])c([H])c(F)c([H])c7F)c([H])c6[H])c(C(=O)N([H])[H])c5N([H])[H])C4([H])[H])c([H])c3C([H])(F)C([H])([H])[H])c([H])c([H])c2C1([H])[H]

>  <smiles>  (72) 
[H]c1c([H])c([H])c2c(c1[H])C([H])([H])C([H])([H])C([H])([H])C2([H])N([H])C(=O)C1([H])N(C(=O)C([H])(N([H])C(=O)C([H])(N([H])C([H])([H])[H])C([H])([H])[H])C(C([H])([H])[H])(C([H])([H])[H])C([H])([H])[H])C([H])([H])c2c([H])c(OC([H])([H])c3c([H])c([H])c(C([H])([H])C([H])([H])C([H])([H])N([H])C(=O)N4C([H])([H])C([H])([H])C([H])([H])C([H])(n5nc(-c6c([H])c([H])c(Oc7c([H])c([H])c(F)c([H])c7F)c([H])c6[H])c(C(=O)N([H])[H])c5N([H])[H])C4([H])[H])c([H])c3C([H])(F)C([H])([H])[H])c([H])c([H])c2C1([H])[H]

$$$$
73:0:0
     RDKit          3D

 93101  0  0  1  0  0  0  0  0999 V2000
  -29.6490  -21.0640   18.7090 C   0  0  0  0  0  3  0  0  0  0  0  0
  -29.3030  -22.4280   18.6540 C   0  0  0  0  0  3  0  0  0  0  0  0
  -30.6280  -20.6470   19.6330 C   0  0  0  0  0  0  0  0  0  0  0  0
  -29.9440  -23.3380   19.5150 C   0  0  0  0  0  0  0  0  0  0  0  0
  -31.1760  -21.6190   20.4990 C   0  0  0  0  0  0  0  0  0  0  0  0
  -32.1560  -21.2520   21.5980 C   0  0  0  0  0  1  0  0  0  0  0  0
  -30.8550  -22.9310   20.4270 N   0  0  0  0  0  0  0  0  0  0  0  0
  -31.1280  -19.2040   19.6180 C   0  0  0  0  0  2  0  0  0  0  0  0
  -30.4610  -18.2440   20.6260 C   0  0  0  0  0  2  0  0  0  0  0  0
  -31.5080  -17.3430   21.3200 C   0  0  0  0  0  2  0  0  0  0  0  0
  -30.9480  -16.1560   22.1320 C   0  0  0  0  0  2  0  0  0  0  0  0
  -30.6900  -14.3580   20.3810 C   0  0  0  0  0  0  0  0  0  0  0  0
  -30.2680  -12.3270   19.0350 C   0  0  0  0  0  2  0  0  0  0  0  0
  -29.2910  -12.6180   17.8830 C   0  0  0  0  0  2  0  0  0  0  0  0
  -27.8340  -12.4530   18.3570 C   0  0  0  0  0  2  0  0  0  0  0  0
  -27.5510  -13.2410   19.6630 C   0  0  0  0  0  3  0  0  0  0  0  0
  -28.6300  -12.9390   20.7240 C   0  0  0  0  0  2  0  0  0  0  0  0
  -29.9490  -13.2440   20.1390 N   0  0  0  0  0  0  0  0  0  0  0  0
  -31.7260  -14.6240   19.7660 O   0  0  0  0  0  0  0  0  0  0  0  0
  -30.2250  -15.1350   21.3710 N   0  0  0  0  0  0  0  0  0  0  0  0
  -29.3480  -14.8300   21.7690 H   0  0  0  0  0  0  0  0  0  0  0  0
  -25.1700  -13.8490   20.4300 C   0  0  0  0  0  0  0  0  0  0  0  0
  -24.1120  -13.0760   20.8250 C   0  0  0  0  0  0  0  0  0  0  0  0
  -24.5760  -11.7250   20.7860 C   0  0  0  0  0  0  0  0  0  0  0  0
  -26.2100  -12.9680   20.1730 N   0  0  0  0  0  0  0  0  0  0  0  0
  -25.8560  -11.6870   20.4420 N   0  0  0  0  0  0  0  0  0  0  0  0
  -23.8600  -10.4620   20.9970 C   0  0  0  0  0  0  0  0  0  0  0  0
  -24.3220   -9.4940   21.9160 C   0  0  0  0  0  3  0  0  0  0  0  0
  -23.6050   -8.2940   22.1140 C   0  0  0  0  0  3  0  0  0  0  0  0
  -22.4130   -8.0540   21.3910 C   0  0  0  0  0  0  0  0  0  0  0  0
  -21.9700   -9.0090   20.4590 C   0  0  0  0  0  3  0  0  0  0  0  0
  -22.6870  -10.2000   20.2590 C   0  0  0  0  0  3  0  0  0  0  0  0
  -21.6650   -6.9080   21.4970 O   0  0  0  0  0  0  0  0  0  0  0  0
  -21.6580   -6.1560   22.6450 C   0  0  0  0  0  0  0  0  0  0  0  0
  -21.2830   -6.7030   23.8910 C   0  0  0  0  0  3  0  0  0  0  0  0
  -21.2220   -5.8780   25.0330 C   0  0  0  0  0  3  0  0  0  0  0  0
  -21.5300   -4.5080   24.9280 C   0  0  0  0  0  0  0  0  0  0  0  0
  -21.8990   -3.9610   23.6880 C   0  0  0  0  0  3  0  0  0  0  0  0
  -21.9610   -4.7830   22.5490 C   0  0  0  0  0  0  0  0  0  0  0  0
  -22.2970   -4.2460   21.3500 F   0  0  0  0  0  0  0  0  0  0  0  0
  -21.4650   -3.7140   26.0230 F   0  0  0  0  0  0  0  0  0  0  0  0
  -22.7220  -13.5480   21.1340 C   0  0  0  0  0  0  0  0  0  0  0  0
  -22.0210  -12.8500   22.0190 N   0  0  0  0  0  0  0  0  0  0  0  0
  -22.2670  -14.5730   20.6290 O   0  0  0  0  0  0  0  0  0  0  0  0
  -22.4030  -12.0190   22.4470 H   0  0  0  0  0  0  0  0  0  0  0  0
  -21.0900  -13.1480   22.2740 H   0  0  0  0  0  0  0  0  0  0  0  0
  -25.3240  -15.2220   20.2510 N   0  0  0  0  0  0  0  0  0  0  0  0
  -24.5600  -15.8730   20.3960 H   0  0  0  0  0  0  0  0  0  0  0  0
  -26.1710  -15.6700   19.9220 H   0  0  0  0  0  0  0  0  0  0  0  0
  -29.6800  -24.8440   19.4130 C   0  0  0  0  0  2  0  0  0  0  0  0
  -28.9480  -25.2440   21.8450 C   0  0  0  0  0  1  0  0  0  0  0  0
  -28.5960  -25.4100   20.3600 C   0  0  0  0  0  3  0  0  0  0  0  0
  -28.5180  -26.8200   20.1330 O   0  0  0  0  0  0  0  0  0  0  0  0
  -24.6100  -31.8850   23.2470 C   0  0  0  0  0  0  0  0  0  0  0  0
  -27.2970  -27.4560   20.1950 C   0  0  0  0  0  0  0  0  0  0  0  0
  -23.4130  -30.4700   21.6090 C   0  0  0  0  0  3  0  0  0  0  0  0
  -24.8790  -28.9170   20.2080 C   0  0  0  0  0  0  0  0  0  0  0  0
  -25.9350  -30.8380   21.4130 C   0  0  0  0  0  2  0  0  0  0  0  0
  -26.0290  -29.4620   20.7890 C   0  0  0  0  0  0  0  0  0  0  0  0
  -27.2390  -28.7370   20.7820 C   0  0  0  0  0  3  0  0  0  0  0  0
  -26.1280  -26.9180   19.6080 C   0  0  0  0  0  3  0  0  0  0  0  0
  -24.9180  -27.6380   19.6210 C   0  0  0  0  0  3  0  0  0  0  0  0
  -23.6300  -29.7680   20.2400 C   0  0  0  0  0  2  0  0  0  0  0  0
  -24.6710  -31.0790   22.1490 N   0  0  0  0  0  0  0  0  0  0  0  0
  -23.5270  -32.1590   23.7800 O   0  0  0  0  0  0  0  0  0  0  0  0
  -22.7580  -29.4570   22.5750 C   0  0  0  0  0  0  0  0  0  0  0  0
  -21.4340  -29.2720   22.4400 N   0  0  0  0  0  0  0  0  0  0  0  0
  -23.4390  -28.8350   23.3960 O   0  0  0  0  0  0  0  0  0  0  0  0
  -20.9480  -29.8250   21.7480 H   0  0  0  0  0  0  0  0  0  0  0  0
  -18.0590  -28.0720   22.9160 C   0  0  0  0  0  0  0  0  0  0  0  0
  -20.6140  -28.3360   23.2050 C   0  0  0  0  0  3  0  0  0  0  0  0
  -20.7250  -26.9040   22.6350 C   0  0  0  0  0  2  0  0  0  0  0  0
  -19.6320  -26.5720   21.6140 C   0  0  0  0  0  2  0  0  0  0  0  0
  -18.2440  -26.7200   22.2460 C   0  0  0  0  0  2  0  0  0  0  0  0
  -19.1730  -28.8380   23.3500 C   0  0  0  0  0  0  0  0  0  0  0  0
  -18.9520  -30.1040   23.9340 C   0  0  0  0  0  3  0  0  0  0  0  0
  -17.6460  -30.6070   24.0820 C   0  0  0  0  0  3  0  0  0  0  0  0
  -16.5450  -29.8400   23.6660 C   0  0  0  0  0  3  0  0  0  0  0  0
  -16.7520  -28.5710   23.0920 C   0  0  0  0  0  3  0  0  0  0  0  0
  -25.8910  -32.5190   23.8720 C   0  0  0  0  0  3  0  0  0  0  0  0
  -25.5820  -33.9150   24.2000 N   0  0  0  0  0  0  0  0  0  0  0  0
  -25.9100  -34.9650   23.4360 C   0  0  0  0  0  0  0  0  0  0  0  0
  -26.5800  -34.8610   22.4050 O   0  0  0  0  0  0  0  0  0  0  0  0
  -25.0070  -34.0750   25.0140 H   0  0  0  0  0  0  0  0  0  0  0  0
  -24.1780  -36.7480   23.0640 C   0  0  0  0  0  1  0  0  0  0  0  0
  -25.4160  -36.3530   23.8860 C   0  0  0  0  0  3  0  0  0  0  0  0
  -27.5480  -37.2390   24.7180 C   0  0  0  0  0  1  0  0  0  0  0  0
  -26.4450  -37.4110   23.7760 N   0  0  0  0  0  0  0  0  0  0  0  0
  -26.0350  -38.3270   23.9360 H   0  0  0  0  0  0  0  0  0  0  0  0
  -26.4090  -31.7460   25.1480 C   0  0  1  0  0  0  0  0  0  0  0  0
  -25.3160  -31.5020   26.2160 C   0  0  0  0  0  1  0  0  0  0  0  0
  -26.9950  -30.3710   24.7460 C   0  0  0  0  0  1  0  0  0  0  0  0
  -27.5630  -32.5370   25.8070 C   0  0  0  0  0  1  0  0  0  0  0  0
  1  3  1  0
  2  1  2  0
  2  4  1  0
  3  5  2  0
  4  7  2  0
  5  6  1  0
  7  5  1  0
  8  3  1  0
  8  9  1  0
  9 10  1  0
 10 11  1  0
 12 20  1  0
 13 18  1  0
 14 15  1  0
 14 13  1  0
 16 15  1  0
 16 25  1  0
 16 17  1  0
 18 12  1  0
 18 17  1  0
 19 12  2  0
 20 21  1  0
 20 11  1  0
 22 23  2  0
 23 42  1  0
 24 23  1  0
 24 27  1  0
 25 22  1  0
 25 26  1  0
 26 24  2  0
 27 28  1  0
 28 29  2  0
 30 33  1  0
 30 29  1  0
 31 30  2  0
 32 31  1  0
 32 27  2  0
 33 34  1  0
 34 35  1  0
 35 36  2  0
 37 36  1  0
 37 41  1  0
 38 37  2  0
 39 34  2  0
 39 38  1  0
 40 39  1  0
 42 43  1  0
 43 46  1  0
 43 45  1  0
 44 42  2  0
 47 48  1  0
 47 22  1  0
 49 47  1  0
 50  4  1  0
 50 52  1  0
 52 51  1  0
 53 55  1  0
 53 52  1  0
 54 65  2  0
 55 60  1  0
 56 64  1  0
 56 66  1  0
 57 63  1  0
 57 59  1  0
 58 64  1  0
 59 58  1  0
 60 59  2  0
 61 62  1  0
 61 55  2  0
 62 57  2  0
 63 56  1  0
 64 54  1  0
 66 68  2  0
 67 66  1  0
 69 67  1  0
 70 79  2  0
 70 75  1  0
 71 67  1  0
 71 75  1  0
 72 71  1  0
 73 74  1  0
 73 72  1  0
 74 70  1  0
 75 76  2  0
 76 77  1  0
 78 77  2  0
 79 78  1  0
 80 54  1  0
 80 81  1  0
 80 90  1  0
 81 84  1  0
 82 86  1  0
 82 81  1  0
 83 82  2  0
 86 85  1  0
 88 86  1  0
 88 89  1  0
 88 87  1  0
 90 93  1  1
 90 91  1  0
 92 90  1  0
M  ISO  4  12 100  20 100  52 101  53 101
M  END
>  <TORSDO>  (73) 
F 22

>  <SCORE>  (73) 
-13.140

>  <name>  (73) 
73

>  <ligand_id>  (73) 
73

>  <original_smiles>  (73) 
[H]c1c(C([H])([H])C([H])(Oc2c([H])c([H])c3c(c2[H])C([H])([H])N(C(=O)C([H])(N([H])C(=O)C([H])(N([H])C([H])([H])[H])C([H])([H])[H])C(C([H])([H])[H])(C([H])([H])[H])C([H])([H])[H])C([H])(C(=O)N([H])C2([H])c4c([H])c([H])c([H])c([H])c4C([H])([H])C([H])([H])C2([H])[H])C3([H])[H])C([H])([H])[H])nc(C([H])([H])[H])c(C([H])([H])C([H])([H])C([H])([H])C([H])([H])N([H])C(=O)N2C([H])([H])C([H])([H])C([H])([H])C([H])(n3nc(-c4c([H])c([H])c(Oc5c([H])c([H])c(F)c([H])c5F)c([H])c4[H])c(C(=O)N([H])[H])c3N([H])[H])C2([H])[H])c1[H]

>  <smiles>  (73) 
[H]c1c(C([H])([H])C([H])(Oc2c([H])c([H])c3c(c2[H])C([H])([H])N(C(=O)C([H])(N([H])C(=O)C([H])(N([H])C([H])([H])[H])C([H])([H])[H])C(C([H])([H])[H])(C([H])([H])[H])C([H])([H])[H])C([H])(C(=O)N([H])C2([H])c4c([H])c([H])c([H])c([H])c4C([H])([H])C([H])([H])C2([H])[H])C3([H])[H])C([H])([H])[H])nc(C([H])([H])[H])c(C([H])([H])C([H])([H])C([H])([H])C([H])([H])N([H])C(=O)N2C([H])([H])C([H])([H])C([H])([H])C([H])(n3nc(-c4c([H])c([H])c(Oc5c([H])c([H])c(F)c([H])c5F)c([H])c4[H])c(C(=O)N([H])[H])c3N([H])[H])C2([H])[H])c1[H]

$$$$
74:0:0
     RDKit          3D

 98106  0  0  1  0  0  0  0  0999 V2000
  -27.8440  -22.3280   21.9200 C   0  0  0  0  0  3  0  0  0  0  0  0
  -26.8420  -22.7550   21.0360 C   0  0  0  0  0  3  0  0  0  0  0  0
  -28.3600  -23.1890   22.9130 C   0  0  0  0  0  0  0  0  0  0  0  0
  -26.8650  -24.9570   22.0800 C   0  0  0  0  0  0  0  0  0  0  0  0
  -26.3590  -24.0760   21.0910 C   0  0  0  0  0  0  0  0  0  0  0  0
  -27.8520  -24.5110   22.9990 C   0  0  0  0  0  0  0  0  0  0  0  0
  -28.4330  -25.5800   24.2380 Cl  0  0  0  0  0  0  0  0  0  0  0  0
  -25.0400  -26.4500   22.9910 C   0  0  0  0  0  1  0  0  0  0  0  0
  -26.3210  -26.3780   22.1510 C   0  0  0  0  0  2  0  0  0  0  0  0
  -29.4430  -22.6940   23.8780 C   0  0  0  0  0  2  0  0  0  0  0  0
  -30.8830  -22.7490   23.3240 C   0  0  0  0  0  2  0  0  0  0  0  0
  -31.1410  -21.9280   22.0460 C   0  0  0  0  0  2  0  0  0  0  0  0
  -31.8710  -22.7540   20.9800 C   0  0  0  0  0  2  0  0  0  0  0  0
  -32.0770  -21.9770   19.6790 C   0  0  0  0  0  2  0  0  0  0  0  0
  -32.7140  -22.8400   18.5730 C   0  0  0  0  0  2  0  0  0  0  0  0
  -32.7590  -22.1050   17.2310 C   0  0  0  0  0  2  0  0  0  0  0  0
  -33.8290  -19.9580   16.6230 C   0  0  0  0  0  0  0  0  0  0  0  0
  -34.7250  -17.6960   16.2470 C   0  0  0  0  0  2  0  0  0  0  0  0
  -33.8140  -16.8880   15.3070 C   0  0  0  0  0  2  0  0  0  0  0  0
  -32.6930  -16.1880   16.0960 C   0  0  0  0  0  2  0  0  0  0  0  0
  -31.9430  -17.1540   17.0440 C   0  0  0  0  0  3  0  0  0  0  0  0
  -32.9430  -17.9690   17.8890 C   0  0  0  0  0  2  0  0  0  0  0  0
  -33.8870  -18.6530   16.9800 N   0  0  0  0  0  0  0  0  0  0  0  0
  -34.4380  -20.4470   15.6650 O   0  0  0  0  0  0  0  0  0  0  0  0
  -33.0980  -20.7100   17.4410 N   0  0  0  0  0  0  0  0  0  0  0  0
  -32.6700  -20.2390   18.2230 H   0  0  0  0  0  0  0  0  0  0  0  0
  -29.7830  -16.8720   18.4230 C   0  0  0  0  0  0  0  0  0  0  0  0
  -29.2400  -15.7820   19.0560 C   0  0  0  0  0  0  0  0  0  0  0  0
  -30.1570  -14.7090   18.8490 C   0  0  0  0  0  0  0  0  0  0  0  0
  -30.9820  -16.4340   17.8810 N   0  0  0  0  0  0  0  0  0  0  0  0
  -31.2240  -15.1330   18.1850 N   0  0  0  0  0  0  0  0  0  0  0  0
  -30.0570  -13.2850   19.1980 C   0  0  0  0  0  0  0  0  0  0  0  0
  -30.9390  -12.6860   20.1260 C   0  0  0  0  0  3  0  0  0  0  0  0
  -30.8090  -11.3200   20.4590 C   0  0  0  0  0  3  0  0  0  0  0  0
  -29.7850  -10.5420   19.8680 C   0  0  0  0  0  0  0  0  0  0  0  0
  -28.9240  -11.1360   18.9280 C   0  0  0  0  0  3  0  0  0  0  0  0
  -29.0590  -12.4940   18.5940 C   0  0  0  0  0  3  0  0  0  0  0  0
  -29.6010   -9.2020   20.1120 O   0  0  0  0  0  0  0  0  0  0  0  0
  -29.7460   -8.6720   21.3690 C   0  0  0  0  0  0  0  0  0  0  0  0
  -28.9610   -9.1110   22.4570 C   0  0  0  0  0  3  0  0  0  0  0  0
  -29.0950   -8.4930   23.7170 C   0  0  0  0  0  3  0  0  0  0  0  0
  -30.0010   -7.4290   23.8860 C   0  0  0  0  0  0  0  0  0  0  0  0
  -30.7770   -6.9840   22.8020 C   0  0  0  0  0  3  0  0  0  0  0  0
  -30.6470   -7.6010   21.5450 C   0  0  0  0  0  0  0  0  0  0  0  0
  -31.3830   -7.1550   20.4980 F   0  0  0  0  0  0  0  0  0  0  0  0
  -30.1230   -6.8290   25.0930 F   0  0  0  0  0  0  0  0  0  0  0  0
  -27.9020  -15.7170   19.7340 C   0  0  0  0  0  0  0  0  0  0  0  0
  -27.7790  -14.8880   20.7690 N   0  0  0  0  0  0  0  0  0  0  0  0
  -26.9690  -16.4400   19.3870 O   0  0  0  0  0  0  0  0  0  0  0  0
  -28.5470  -14.3050   21.0640 H   0  0  0  0  0  0  0  0  0  0  0  0
  -26.9040  -14.8320   21.2710 H   0  0  0  0  0  0  0  0  0  0  0  0
  -29.3510  -18.1810   18.2460 N   0  0  0  0  0  0  0  0  0  0  0  0
  -28.4530  -18.5070   18.5860 H   0  0  0  0  0  0  0  0  0  0  0  0
  -29.8600  -18.8860   17.7250 H   0  0  0  0  0  0  0  0  0  0  0  0
  -25.3530  -24.5170   20.2560 O   0  0  0  0  0  0  0  0  0  0  0  0
  -25.5850  -24.5440   18.8440 C   0  0  0  0  0  2  0  0  0  0  0  0
  -26.8020  -25.4240   18.4830 C   0  0  0  0  0  2  0  0  0  0  0  0
  -26.4850  -26.6170   17.7450 O   0  0  0  0  0  0  0  0  0  0  0  0
  -25.1750  -30.7730   23.3740 C   0  0  0  0  0  0  0  0  0  0  0  0
  -25.6250  -27.4980   18.3570 C   0  0  0  0  0  0  0  0  0  0  0  0
  -23.2770  -30.3990   21.8400 C   0  0  0  0  0  3  0  0  0  0  0  0
  -23.8590  -29.3060   19.6140 C   0  0  0  0  0  0  0  0  0  0  0  0
  -25.6900  -30.3030   20.9870 C   0  0  0  0  0  2  0  0  0  0  0  0
  -25.2200  -29.3110   19.9450 C   0  0  0  0  0  0  0  0  0  0  0  0
  -26.1100  -28.4070   19.3230 C   0  0  0  0  0  3  0  0  0  0  0  0
  -24.2600  -27.5350   18.0080 C   0  0  0  0  0  3  0  0  0  0  0  0
  -23.3710  -28.4120   18.6500 C   0  0  0  0  0  3  0  0  0  0  0  0
  -22.9690  -30.2980   20.3240 C   0  0  0  0  0  2  0  0  0  0  0  0
  -24.7470  -30.4800   22.1160 N   0  0  0  0  0  0  0  0  0  0  0  0
  -24.3700  -31.0150   24.2830 O   0  0  0  0  0  0  0  0  0  0  0  0
  -22.5760  -29.2280   22.5670 C   0  0  0  0  0  0  0  0  0  0  0  0
  -21.2340  -29.2040   22.5100 N   0  0  0  0  0  0  0  0  0  0  0  0
  -23.2320  -28.3570   23.1420 O   0  0  0  0  0  0  0  0  0  0  0  0
  -20.7690  -29.9610   22.0320 H   0  0  0  0  0  0  0  0  0  0  0  0
  -17.8250  -28.0150   22.6480 C   0  0  0  0  0  0  0  0  0  0  0  0
  -20.3700  -28.1750   23.0870 C   0  0  0  0  0  3  0  0  0  0  0  0
  -20.4850  -26.8420   22.3060 C   0  0  0  0  0  2  0  0  0  0  0  0
  -19.4290  -26.6970   21.2040 C   0  0  0  0  0  2  0  0  0  0  0  0
  -18.0160  -26.7800   21.7840 C   0  0  0  0  0  2  0  0  0  0  0  0
  -18.9290  -28.6810   23.2440 C   0  0  0  0  0  0  0  0  0  0  0  0
  -18.6920  -29.8520   23.9970 C   0  0  0  0  0  3  0  0  0  0  0  0
  -17.3860  -30.3500   24.1630 C   0  0  0  0  0  3  0  0  0  0  0  0
  -16.2980  -29.6770   23.5830 C   0  0  0  0  0  3  0  0  0  0  0  0
  -16.5170  -28.5090   22.8320 C   0  0  0  0  0  3  0  0  0  0  0  0
  -26.6920  -30.8420   23.7230 C   0  0  0  0  0  3  0  0  0  0  0  0
  -27.2620  -29.4850   24.2970 C   0  0  1  0  0  0  0  0  0  0  0  0
  -26.4180  -28.8990   25.4530 C   0  0  0  0  0  1  0  0  0  0  0  0
  -27.3450  -28.4150   23.1840 C   0  0  0  0  0  1  0  0  0  0  0  0
  -28.7040  -29.7020   24.8150 C   0  0  0  0  0  1  0  0  0  0  0  0
  -26.8690  -31.9340   24.6880 N   0  0  0  0  0  0  0  0  0  0  0  0
  -27.3850  -33.1350   24.3910 C   0  0  0  0  0  0  0  0  0  0  0  0
  -27.8340  -33.4140   23.2750 O   0  0  0  0  0  0  0  0  0  0  0  0
  -26.4730  -31.7960   25.6060 H   0  0  0  0  0  0  0  0  0  0  0  0
  -26.2880  -35.2140   25.2780 C   0  0  0  0  0  1  0  0  0  0  0  0
  -27.4110  -34.1930   25.5100 C   0  0  0  0  0  3  0  0  0  0  0  0
  -29.7880  -34.0410   26.1130 C   0  0  0  0  0  1  0  0  0  0  0  0
  -28.7080  -34.8960   25.6270 N   0  0  0  0  0  0  0  0  0  0  0  0
  -28.6310  -35.6950   26.2500 H   0  0  0  0  0  0  0  0  0  0  0  0
  1  3  1  0
  2  5  1  0
  2  1  2  0
  3  6  2  0
  3 10  1  0
  4  9  1  0
  4  6  1  0
  5  4  2  0
  6  7  1  0
  9  8  1  0
 11 10  1  0
 12 11  1  0
 13 12  1  0
 14 13  1  0
 15 14  1  0
 16 25  1  0
 16 15  1  0
 17 23  1  0
 17 25  1  0
 18 23  1  0
 19 20  1  0
 19 18  1  0
 21 20  1  0
 21 30  1  0
 21 22  1  0
 23 22  1  0
 24 17  2  0
 25 26  1  0
 27 28  2  0
 28 47  1  0
 29 28  1  0
 29 32  1  0
 30 31  1  0
 30 27  1  0
 31 29  2  0
 32 33  1  0
 33 34  2  0
 35 38  1  0
 35 34  1  0
 36 35  2  0
 37 36  1  0
 37 32  2  0
 38 39  1  0
 39 44  2  0
 39 40  1  0
 40 41  2  0
 41 42  1  0
 42 46  1  0
 43 42  2  0
 44 43  1  0
 45 44  1  0
 47 48  1  0
 48 50  1  0
 48 51  1  0
 49 47  2  0
 52 27  1  0
 52 53  1  0
 54 52  1  0
 55  5  1  0
 56 55  1  0
 57 56  1  0
 58 60  1  0
 58 57  1  0
 59 70  2  0
 60 65  1  0
 61 69  1  0
 61 71  1  0
 62 64  1  0
 62 68  1  0
 63 69  1  0
 64 63  1  0
 65 64  2  0
 66 60  2  0
 66 67  1  0
 67 62  2  0
 68 61  1  0
 69 59  1  0
 71 73  2  0
 72 71  1  0
 74 72  1  0
 75 84  2  0
 75 80  1  0
 76 72  1  0
 76 80  1  0
 77 76  1  0
 78 79  1  0
 78 77  1  0
 79 75  1  0
 80 81  2  0
 81 82  1  0
 83 82  2  0
 84 83  1  0
 85 59  1  0
 85 86  1  0
 85 90  1  0
 86 89  1  1
 86 87  1  0
 88 86  1  0
 90 93  1  0
 91 90  1  0
 91 95  1  0
 92 91  2  0
 95 94  1  0
 95 97  1  0
 97 96  1  0
 97 98  1  0
M  ISO  4  17 100  25 100  57 101  58 101
M  END
>  <TORSDO>  (74) 
F 27

>  <SCORE>  (74) 
-3.257

>  <name>  (74) 
74

>  <ligand_id>  (74) 
74

>  <original_smiles>  (74) 
[H]c1c([H])c([H])c2c(c1[H])C([H])([H])C([H])([H])C([H])([H])C2([H])N([H])C(=O)C1([H])N(C(=O)C([H])(N([H])C(=O)C([H])(N([H])C([H])([H])[H])C([H])([H])[H])C(C([H])([H])[H])(C([H])([H])[H])C([H])([H])[H])C([H])([H])c2c([H])c(OC([H])([H])C([H])([H])Oc3c([H])c([H])c(C([H])([H])C([H])([H])C([H])([H])C([H])([H])C([H])([H])C([H])([H])C([H])([H])N([H])C(=O)N4C([H])([H])C([H])([H])C([H])([H])C([H])(n5nc(-c6c([H])c([H])c(Oc7c([H])c([H])c(F)c([H])c7F)c([H])c6[H])c(C(=O)N([H])[H])c5N([H])[H])C4([H])[H])c(Cl)c3C([H])([H])C([H])([H])[H])c([H])c([H])c2C1([H])[H]

>  <smiles>  (74) 
[H]c1c([H])c([H])c2c(c1[H])C([H])([H])C([H])([H])C([H])([H])C2([H])N([H])C(=O)C1([H])N(C(=O)C([H])(N([H])C(=O)C([H])(N([H])C([H])([H])[H])C([H])([H])[H])C(C([H])([H])[H])(C([H])([H])[H])C([H])([H])[H])C([H])([H])c2c([H])c(OC([H])([H])C([H])([H])Oc3c([H])c([H])c(C([H])([H])C([H])([H])C([H])([H])C([H])([H])C([H])([H])C([H])([H])C([H])([H])N([H])C(=O)N4C([H])([H])C([H])([H])C([H])([H])C([H])(n5nc(-c6c([H])c([H])c(Oc7c([H])c([H])c(F)c([H])c7F)c([H])c6[H])c(C(=O)N([H])[H])c5N([H])[H])C4([H])[H])c(Cl)c3C([H])([H])C([H])([H])[H])c([H])c([H])c2C1([H])[H]

$$$$
75:0:0
     RDKit          3D

 92100  0  0  1  0  0  0  0  0999 V2000
  -29.8110  -22.2320   21.4790 C   0  0  0  0  0  3  0  0  0  0  0  0
  -29.8240  -21.2310   20.4740 C   0  0  0  0  0  0  0  0  0  0  0  0
  -29.3320  -21.6840   19.2310 C   0  0  0  0  0  0  0  0  0  0  0  0
  -28.9020  -23.8270   20.0690 C   0  0  0  0  0  0  0  0  0  0  0  0
  -29.3410  -23.4970   21.2860 N   0  0  0  0  0  0  0  0  0  0  0  0
  -28.8920  -22.9520   19.0560 N   0  0  0  0  0  0  0  0  0  0  0  0
  -30.5110  -19.8360   20.6960 C   0  0  0  0  0  2  0  0  0  0  0  0
  -29.7030  -18.4700   20.6960 C   0  0  0  0  0  2  0  0  0  0  0  0
  -30.6360  -17.1870   20.6950 C   0  0  0  0  0  2  0  0  0  0  0  0
  -30.7140  -14.6690   20.4370 C   0  0  0  0  0  0  0  0  0  0  0  0
  -30.4170  -12.4500   19.3800 C   0  0  0  0  0  2  0  0  0  0  0  0
  -29.4870  -12.5830   18.1560 C   0  0  0  0  0  2  0  0  0  0  0  0
  -28.0170  -12.4230   18.5860 C   0  0  0  0  0  2  0  0  0  0  0  0
  -27.6530  -13.3100   19.8070 C   0  0  0  0  0  3  0  0  0  0  0  0
  -28.7060  -13.1980   20.9320 C   0  0  0  0  0  2  0  0  0  0  0  0
  -30.0210  -13.4940   20.3450 N   0  0  0  0  0  0  0  0  0  0  0  0
  -31.8910  -14.7440   20.0780 O   0  0  0  0  0  0  0  0  0  0  0  0
  -30.0270  -15.8150   20.7280 N   0  0  0  0  0  0  0  0  0  0  0  0
  -29.0450  -15.7290   20.9400 H   0  0  0  0  0  0  0  0  0  0  0  0
  -25.2580  -13.9090   20.5140 C   0  0  0  0  0  0  0  0  0  0  0  0
  -24.1880  -13.1360   20.8770 C   0  0  0  0  0  0  0  0  0  0  0  0
  -24.6510  -11.7840   20.8510 C   0  0  0  0  0  0  0  0  0  0  0  0
  -26.3040  -13.0280   20.2890 N   0  0  0  0  0  0  0  0  0  0  0  0
  -25.9440  -11.7450   20.5540 N   0  0  0  0  0  0  0  0  0  0  0  0
  -23.9230  -10.5220   21.0370 C   0  0  0  0  0  0  0  0  0  0  0  0
  -24.3420   -9.5590   21.9800 C   0  0  0  0  0  3  0  0  0  0  0  0
  -23.6150   -8.3620   22.1530 C   0  0  0  0  0  3  0  0  0  0  0  0
  -22.4530   -8.1190   21.3800 C   0  0  0  0  0  0  0  0  0  0  0  0
  -22.0540   -9.0710   20.4260 C   0  0  0  0  0  3  0  0  0  0  0  0
  -22.7820  -10.2590   20.2510 C   0  0  0  0  0  3  0  0  0  0  0  0
  -21.6980   -6.9730   21.4630 O   0  0  0  0  0  0  0  0  0  0  0  0
  -21.6230   -6.2420   22.6210 C   0  0  0  0  0  0  0  0  0  0  0  0
  -21.1530   -6.8020   23.8280 C   0  0  0  0  0  3  0  0  0  0  0  0
  -21.0270   -5.9960   24.9770 C   0  0  0  0  0  3  0  0  0  0  0  0
  -21.3620   -4.6300   24.9190 C   0  0  0  0  0  0  0  0  0  0  0  0
  -21.8270   -4.0690   23.7170 C   0  0  0  0  0  3  0  0  0  0  0  0
  -21.9540   -4.8730   22.5700 C   0  0  0  0  0  0  0  0  0  0  0  0
  -22.3820   -4.3220   21.4080 F   0  0  0  0  0  0  0  0  0  0  0  0
  -21.2340   -3.8520   26.0200 F   0  0  0  0  0  0  0  0  0  0  0  0
  -22.7900  -13.6130   21.1380 C   0  0  0  0  0  0  0  0  0  0  0  0
  -22.0580  -12.9180   22.0020 N   0  0  0  0  0  0  0  0  0  0  0  0
  -22.3540  -14.6360   20.6100 O   0  0  0  0  0  0  0  0  0  0  0  0
  -22.4240  -12.0880   22.4460 H   0  0  0  0  0  0  0  0  0  0  0  0
  -21.1210  -13.2200   22.2260 H   0  0  0  0  0  0  0  0  0  0  0  0
  -25.4230  -15.2800   20.3360 N   0  0  0  0  0  0  0  0  0  0  0  0
  -24.6510  -15.9310   20.4350 H   0  0  0  0  0  0  0  0  0  0  0  0
  -26.2700  -15.7190   20.0010 H   0  0  0  0  0  0  0  0  0  0  0  0
  -29.2280  -20.7900   18.0060 C   0  0  0  0  0  2  0  0  0  0  0  0
  -27.6810  -19.3390   16.5740 C   0  0  0  0  0  1  0  0  0  0  0  0
  -27.7990  -20.2600   17.7960 C   0  0  0  0  0  2  0  0  0  0  0  0
  -28.0080  -25.0930   19.8380 C   0  0  0  0  0  2  0  0  0  0  0  0
  -28.3480  -26.4890   20.2080 O   0  0  0  0  0  0  0  0  0  0  0  0
  -24.6420  -31.8870   23.2820 C   0  0  0  0  0  0  0  0  0  0  0  0
  -27.2530  -27.3790   20.1520 C   0  0  0  0  0  0  0  0  0  0  0  0
  -23.4400  -30.5110   21.6270 C   0  0  0  0  0  3  0  0  0  0  0  0
  -24.8920  -29.0020   20.1760 C   0  0  0  0  0  0  0  0  0  0  0  0
  -25.9830  -30.8360   21.4480 C   0  0  0  0  0  2  0  0  0  0  0  0
  -26.0640  -29.4690   20.7810 C   0  0  0  0  0  0  0  0  0  0  0  0
  -27.2500  -28.6700   20.7660 C   0  0  0  0  0  3  0  0  0  0  0  0
  -26.0510  -26.9880   19.5040 C   0  0  0  0  0  3  0  0  0  0  0  0
  -24.8880  -27.7650   19.5280 C   0  0  0  0  0  3  0  0  0  0  0  0
  -23.6540  -29.8700   20.2360 C   0  0  0  0  0  2  0  0  0  0  0  0
  -24.7080  -31.0930   22.1760 N   0  0  0  0  0  0  0  0  0  0  0  0
  -23.5580  -32.1560   23.8200 O   0  0  0  0  0  0  0  0  0  0  0  0
  -22.7850  -29.4700   22.5680 C   0  0  0  0  0  0  0  0  0  0  0  0
  -21.4590  -29.2900   22.4390 N   0  0  0  0  0  0  0  0  0  0  0  0
  -23.4670  -28.8320   23.3760 O   0  0  0  0  0  0  0  0  0  0  0  0
  -20.9690  -29.8610   21.7640 H   0  0  0  0  0  0  0  0  0  0  0  0
  -18.0820  -28.0860   22.9280 C   0  0  0  0  0  0  0  0  0  0  0  0
  -20.6410  -28.3400   23.1960 C   0  0  0  0  0  3  0  0  0  0  0  0
  -20.7420  -26.9170   22.5990 C   0  0  0  0  0  2  0  0  0  0  0  0
  -19.6360  -26.6080   21.5850 C   0  0  0  0  0  2  0  0  0  0  0  0
  -18.2560  -26.7460   22.2330 C   0  0  0  0  0  2  0  0  0  0  0  0
  -19.2030  -28.8420   23.3640 C   0  0  0  0  0  0  0  0  0  0  0  0
  -18.9860  -30.0970   23.9740 C   0  0  0  0  0  3  0  0  0  0  0  0
  -17.6820  -30.5960   24.1510 C   0  0  0  0  0  3  0  0  0  0  0  0
  -16.5760  -29.8370   23.7300 C   0  0  0  0  0  3  0  0  0  0  0  0
  -16.7770  -28.5840   23.1240 C   0  0  0  0  0  3  0  0  0  0  0  0
  -25.9230  -32.5150   23.9090 C   0  0  0  0  0  3  0  0  0  0  0  0
  -25.6160  -33.9140   24.2390 N   0  0  0  0  0  0  0  0  0  0  0  0
  -25.9260  -34.9640   23.4660 C   0  0  0  0  0  0  0  0  0  0  0  0
  -26.5730  -34.8570   22.4200 O   0  0  0  0  0  0  0  0  0  0  0  0
  -25.0500  -34.0710   25.0600 H   0  0  0  0  0  0  0  0  0  0  0  0
  -24.1730  -36.7390   23.1450 C   0  0  0  0  0  1  0  0  0  0  0  0
  -25.4410  -36.3530   23.9240 C   0  0  0  0  0  3  0  0  0  0  0  0
  -27.5890  -37.2630   24.6870 C   0  0  0  0  0  1  0  0  0  0  0  0
  -26.4620  -37.4120   23.7720 N   0  0  0  0  0  0  0  0  0  0  0  0
  -26.0520  -38.3310   23.9220 H   0  0  0  0  0  0  0  0  0  0  0  0
  -26.4300  -31.7430   25.1880 C   0  0  1  0  0  0  0  0  0  0  0  0
  -25.3300  -31.5010   26.2480 C   0  0  0  0  0  1  0  0  0  0  0  0
  -27.0190  -30.3680   24.7950 C   0  0  0  0  0  1  0  0  0  0  0  0
  -27.5740  -32.5380   25.8600 C   0  0  0  0  0  1  0  0  0  0  0  0
  2  7  1  0
  2  1  2  0
  3  2  1  0
  4  5  2  0
  5  1  1  0
  6  3  2  0
  6  4  1  0
  8  7  1  0
  9  8  1  0
  9 18  1  0
 10 18  1  0
 11 16  1  0
 12 13  1  0
 12 11  1  0
 14 13  1  0
 14 23  1  0
 14 15  1  0
 16 10  1  0
 16 15  1  0
 17 10  2  0
 18 19  1  0
 20 21  2  0
 21 40  1  0
 22 21  1  0
 22 25  1  0
 23 20  1  0
 23 24  1  0
 24 22  2  0
 25 26  1  0
 26 27  2  0
 28 31  1  0
 28 27  1  0
 29 28  2  0
 30 29  1  0
 30 25  2  0
 31 32  1  0
 32 33  1  0
 33 34  2  0
 35 34  1  0
 35 39  1  0
 36 35  2  0
 37 32  2  0
 37 36  1  0
 38 37  1  0
 40 41  1  0
 41 44  1  0
 41 43  1  0
 42 40  2  0
 45 46  1  0
 45 20  1  0
 47 45  1  0
 48  3  1  0
 49 50  1  0
 50 48  1  0
 51  4  1  0
 51 52  1  0
 53 64  2  0
 54 52  1  0
 54 59  1  0
 55 63  1  0
 55 65  1  0
 56 62  1  0
 56 58  1  0
 57 63  1  0
 58 57  1  0
 59 58  2  0
 60 61  1  0
 60 54  2  0
 61 56  2  0
 62 55  1  0
 63 53  1  0
 65 67  2  0
 66 65  1  0
 68 66  1  0
 69 78  2  0
 69 74  1  0
 70 66  1  0
 70 74  1  0
 71 70  1  0
 72 73  1  0
 72 71  1  0
 73 69  1  0
 74 75  2  0
 75 76  1  0
 77 76  2  0
 78 77  1  0
 79 53  1  0
 79 80  1  0
 79 89  1  0
 80 83  1  0
 81 85  1  0
 81 80  1  0
 82 81  2  0
 85 84  1  0
 87 88  1  0
 87 85  1  0
 87 86  1  0
 89 92  1  1
 89 90  1  0
 91 89  1  0
M  ISO  4  10 100  18 100  51 101  52 101
M  END
>  <TORSDO>  (75) 
F 22

>  <SCORE>  (75) 
-13.310

>  <name>  (75) 
75

>  <ligand_id>  (75) 
75

>  <original_smiles>  (75) 
[H]c1nc(C([H])([H])Oc2c([H])c([H])c3c(c2[H])C([H])([H])N(C(=O)C([H])(N([H])C(=O)C([H])(N([H])C([H])([H])[H])C([H])([H])[H])C(C([H])([H])[H])(C([H])([H])[H])C([H])([H])[H])C([H])(C(=O)N([H])C2([H])c4c([H])c([H])c([H])c([H])c4C([H])([H])C([H])([H])C2([H])[H])C3([H])[H])nc(C([H])([H])C([H])([H])C([H])([H])[H])c1C([H])([H])C([H])([H])C([H])([H])N([H])C(=O)N1C([H])([H])C([H])([H])C([H])([H])C([H])(n2nc(-c3c([H])c([H])c(Oc4c([H])c([H])c(F)c([H])c4F)c([H])c3[H])c(C(=O)N([H])[H])c2N([H])[H])C1([H])[H]

>  <smiles>  (75) 
[H]c1nc(C([H])([H])Oc2c([H])c([H])c3c(c2[H])C([H])([H])N(C(=O)C([H])(N([H])C(=O)C([H])(N([H])C([H])([H])[H])C([H])([H])[H])C(C([H])([H])[H])(C([H])([H])[H])C([H])([H])[H])C([H])(C(=O)N([H])C2([H])c4c([H])c([H])c([H])c([H])c4C([H])([H])C([H])([H])C2([H])[H])C3([H])[H])nc(C([H])([H])C([H])([H])C([H])([H])[H])c1C([H])([H])C([H])([H])C([H])([H])N([H])C(=O)N1C([H])([H])C([H])([H])C([H])([H])C([H])(n2nc(-c3c([H])c([H])c(Oc4c([H])c([H])c(F)c([H])c4F)c([H])c3[H])c(C(=O)N([H])[H])c2N([H])[H])C1([H])[H]

$$$$
76:0:0
     RDKit          3D

 92100  0  0  1  0  0  0  0  0999 V2000
  -30.5900  -22.4520   19.5050 C   0  0  0  0  0  3  0  0  0  0  0  0
  -30.9160  -22.2690   20.8580 C   0  0  0  0  0  0  0  0  0  0  0  0
  -30.3230  -23.1760   21.7570 C   0  0  0  0  0  0  0  0  0  0  0  0
  -29.2360  -24.2290   20.0260 C   0  0  0  0  0  0  0  0  0  0  0  0
  -30.5950  -23.1410   23.2470 C   0  0  0  0  0  1  0  0  0  0  0  0
  -29.7550  -23.4260   19.0990 N   0  0  0  0  0  0  0  0  0  0  0  0
  -29.4860  -24.1450   21.3320 N   0  0  0  0  0  0  0  0  0  0  0  0
  -31.9480  -21.2160   21.2770 C   0  0  0  0  0  2  0  0  0  0  0  0
  -31.4100  -19.9330   21.9600 C   0  0  0  0  0  2  0  0  0  0  0  0
  -30.6250  -18.9780   21.0370 C   0  0  0  0  0  2  0  0  0  0  0  0
  -30.6120  -17.5000   21.5050 C   0  0  0  0  0  2  0  0  0  0  0  0
  -29.6890  -16.6390   20.6150 C   0  0  0  0  0  2  0  0  0  0  0  0
  -30.3290  -14.2680   20.2060 C   0  0  0  0  0  0  0  0  0  0  0  0
  -29.9620  -12.1960   18.9230 C   0  0  0  0  0  2  0  0  0  0  0  0
  -28.9330  -12.4860   17.8100 C   0  0  0  0  0  2  0  0  0  0  0  0
  -27.4940  -12.3050   18.3320 C   0  0  0  0  0  2  0  0  0  0  0  0
  -27.2470  -13.0370   19.6790 C   0  0  0  0  0  3  0  0  0  0  0  0
  -28.3830  -12.7310   20.6840 C   0  0  0  0  0  2  0  0  0  0  0  0
  -29.6670  -13.0880   20.0550 N   0  0  0  0  0  0  0  0  0  0  0  0
  -31.3700  -14.5420   19.6020 O   0  0  0  0  0  0  0  0  0  0  0  0
  -29.6730  -15.2000   20.9160 N   0  0  0  0  0  0  0  0  0  0  0  0
  -28.8740  -14.8610   21.4310 H   0  0  0  0  0  0  0  0  0  0  0  0
  -24.8670  -13.5550   20.5190 C   0  0  0  0  0  0  0  0  0  0  0  0
  -23.8510  -12.7440   20.9500 C   0  0  0  0  0  0  0  0  0  0  0  0
  -24.3620  -11.4110   20.8950 C   0  0  0  0  0  0  0  0  0  0  0  0
  -25.9320  -12.7140   20.2330 N   0  0  0  0  0  0  0  0  0  0  0  0
  -25.6330  -11.4200   20.5130 N   0  0  0  0  0  0  0  0  0  0  0  0
  -23.6980  -10.1220   21.1330 C   0  0  0  0  0  0  0  0  0  0  0  0
  -24.2030   -9.1930   22.0690 C   0  0  0  0  0  3  0  0  0  0  0  0
  -23.5360   -7.9680   22.2910 C   0  0  0  0  0  3  0  0  0  0  0  0
  -22.3510   -7.6650   21.5790 C   0  0  0  0  0  0  0  0  0  0  0  0
  -21.8670   -8.5840   20.6310 C   0  0  0  0  0  3  0  0  0  0  0  0
  -22.5350   -9.7990   20.4070 C   0  0  0  0  0  3  0  0  0  0  0  0
  -21.6530   -6.4880   21.7080 O   0  0  0  0  0  0  0  0  0  0  0  0
  -21.6580   -5.7750   22.8810 C   0  0  0  0  0  0  0  0  0  0  0  0
  -21.2190   -6.3390   24.0990 C   0  0  0  0  0  3  0  0  0  0  0  0
  -21.1750   -5.5490   25.2650 C   0  0  0  0  0  3  0  0  0  0  0  0
  -21.5590   -4.1960   25.2150 C   0  0  0  0  0  0  0  0  0  0  0  0
  -21.9920   -3.6310   24.0020 C   0  0  0  0  0  3  0  0  0  0  0  0
  -22.0380   -4.4180   22.8370 C   0  0  0  0  0  0  0  0  0  0  0  0
  -22.4340   -3.8630   21.6670 F   0  0  0  0  0  0  0  0  0  0  0  0
  -21.5100   -3.4350   26.3340 F   0  0  0  0  0  0  0  0  0  0  0  0
  -22.4530  -13.1670   21.3020 C   0  0  0  0  0  0  0  0  0  0  0  0
  -21.8060  -12.4540   22.2160 N   0  0  0  0  0  0  0  0  0  0  0  0
  -21.9430  -14.1690   20.8020 O   0  0  0  0  0  0  0  0  0  0  0  0
  -22.2310  -11.6450   22.6440 H   0  0  0  0  0  0  0  0  0  0  0  0
  -20.8710  -12.7210   22.4900 H   0  0  0  0  0  0  0  0  0  0  0  0
  -24.9690  -14.9300   20.3280 N   0  0  0  0  0  0  0  0  0  0  0  0
  -24.1910  -15.5600   20.4860 H   0  0  0  0  0  0  0  0  0  0  0  0
  -25.7860  -15.3980   19.9580 H   0  0  0  0  0  0  0  0  0  0  0  0
  -28.1560  -25.2080   19.5570 C   0  0  0  0  0  2  0  0  0  0  0  0
  -28.2600  -26.5710   20.0270 O   0  0  0  0  0  0  0  0  0  0  0  0
  -24.5160  -31.7870   23.1410 C   0  0  0  0  0  0  0  0  0  0  0  0
  -27.0980  -27.3280   20.0020 C   0  0  0  0  0  0  0  0  0  0  0  0
  -23.2890  -30.4130   21.4930 C   0  0  0  0  0  3  0  0  0  0  0  0
  -24.7200  -28.8790   20.0450 C   0  0  0  0  0  0  0  0  0  0  0  0
  -25.8220  -30.7390   21.2920 C   0  0  0  0  0  2  0  0  0  0  0  0
  -25.8880  -29.3740   20.6370 C   0  0  0  0  0  0  0  0  0  0  0  0
  -27.0770  -28.6050   20.6160 C   0  0  0  0  0  3  0  0  0  0  0  0
  -25.9040  -26.8650   19.3910 C   0  0  0  0  0  3  0  0  0  0  0  0
  -24.7250  -27.6250   19.4210 C   0  0  0  0  0  3  0  0  0  0  0  0
  -23.4870  -29.7500   20.1060 C   0  0  0  0  0  2  0  0  0  0  0  0
  -24.5620  -30.9930   22.0330 N   0  0  0  0  0  0  0  0  0  0  0  0
  -23.4390  -32.0680   23.6870 O   0  0  0  0  0  0  0  0  0  0  0  0
  -22.6310  -29.3890   22.4450 C   0  0  0  0  0  0  0  0  0  0  0  0
  -21.3010  -29.2400   22.3380 N   0  0  0  0  0  0  0  0  0  0  0  0
  -23.3140  -28.7330   23.2370 O   0  0  0  0  0  0  0  0  0  0  0  0
  -20.8120  -29.8200   21.6710 H   0  0  0  0  0  0  0  0  0  0  0  0
  -17.9040  -28.1390   22.8920 C   0  0  0  0  0  0  0  0  0  0  0  0
  -20.4750  -28.3090   23.1070 C   0  0  0  0  0  3  0  0  0  0  0  0
  -20.5190  -26.8900   22.4940 C   0  0  0  0  0  2  0  0  0  0  0  0
  -19.3820  -26.6270   21.5010 C   0  0  0  0  0  2  0  0  0  0  0  0
  -18.0210  -26.8000   22.1820 C   0  0  0  0  0  2  0  0  0  0  0  0
  -19.0570  -28.8540   23.3130 C   0  0  0  0  0  0  0  0  0  0  0  0
  -18.8940  -30.1090   23.9370 C   0  0  0  0  0  3  0  0  0  0  0  0
  -17.6100  -30.6480   24.1480 C   0  0  0  0  0  3  0  0  0  0  0  0
  -16.4720  -29.9280   23.7450 C   0  0  0  0  0  3  0  0  0  0  0  0
  -16.6200  -28.6750   23.1220 C   0  0  0  0  0  3  0  0  0  0  0  0
  -25.8120  -32.3990   23.7580 C   0  0  0  0  0  3  0  0  0  0  0  0
  -25.5170  -33.7940   24.1110 N   0  0  0  0  0  0  0  0  0  0  0  0
  -25.8730  -34.8570   23.3760 C   0  0  0  0  0  0  0  0  0  0  0  0
  -26.5560  -34.7640   22.3530 O   0  0  0  0  0  0  0  0  0  0  0  0
  -24.9140  -33.9420   24.9080 H   0  0  0  0  0  0  0  0  0  0  0  0
  -24.1700  -36.6750   23.0300 C   0  0  0  0  0  1  0  0  0  0  0  0
  -25.3940  -36.2410   23.8520 C   0  0  0  0  0  3  0  0  0  0  0  0
  -27.5250  -37.0850   24.7320 C   0  0  0  0  0  1  0  0  0  0  0  0
  -26.4410  -37.2840   23.7740 N   0  0  0  0  0  0  0  0  0  0  0  0
  -26.0420  -38.2050   23.9350 H   0  0  0  0  0  0  0  0  0  0  0  0
  -26.3360  -31.6040   25.0160 C   0  0  1  0  0  0  0  0  0  0  0  0
  -25.2520  -31.3550   26.0900 C   0  0  0  0  0  1  0  0  0  0  0  0
  -26.9090  -30.2300   24.5950 C   0  0  0  0  0  1  0  0  0  0  0  0
  -27.4960  -32.3810   25.6820 C   0  0  0  0  0  1  0  0  0  0  0  0
  1  2  2  0
  2  8  1  0
  2  3  1  0
  3  5  1  0
  4  7  1  0
  6  1  1  0
  6  4  2  0
  7  3  2  0
  8  9  1  0
 10 11  1  0
 10  9  1  0
 12 21  1  0
 12 11  1  0
 13 21  1  0
 14 19  1  0
 15 16  1  0
 15 14  1  0
 17 16  1  0
 17 26  1  0
 17 18  1  0
 19 13  1  0
 19 18  1  0
 20 13  2  0
 21 22  1  0
 23 24  2  0
 24 43  1  0
 25 24  1  0
 25 28  1  0
 26 27  1  0
 26 23  1  0
 27 25  2  0
 28 29  1  0
 29 30  2  0
 31 34  1  0
 31 30  1  0
 32 31  2  0
 33 32  1  0
 33 28  2  0
 34 35  1  0
 35 36  1  0
 36 37  2  0
 38 37  1  0
 38 42  1  0
 39 38  2  0
 40 35  2  0
 40 39  1  0
 41 40  1  0
 43 44  1  0
 44 47  1  0
 44 46  1  0
 45 43  2  0
 48 49  1  0
 48 23  1  0
 50 48  1  0
 51  4  1  0
 51 52  1  0
 53 64  2  0
 54 52  1  0
 54 59  1  0
 55 63  1  0
 55 65  1  0
 56 62  1  0
 56 58  1  0
 57 63  1  0
 58 57  1  0
 59 58  2  0
 60 61  1  0
 60 54  2  0
 61 56  2  0
 62 55  1  0
 63 53  1  0
 65 67  2  0
 66 65  1  0
 68 66  1  0
 69 78  2  0
 69 74  1  0
 70 66  1  0
 70 74  1  0
 71 70  1  0
 72 73  1  0
 72 71  1  0
 73 69  1  0
 74 75  2  0
 75 76  1  0
 77 76  2  0
 78 77  1  0
 79 53  1  0
 79 80  1  0
 79 89  1  0
 80 83  1  0
 81 85  1  0
 81 80  1  0
 82 81  2  0
 85 84  1  0
 87 85  1  0
 87 88  1  0
 87 86  1  0
 89 92  1  1
 89 90  1  0
 91 89  1  0
M  ISO  4  13 100  21 100  51 101  52 101
M  END
>  <TORSDO>  (76) 
F 22

>  <SCORE>  (76) 
-12.363

>  <name>  (76) 
76

>  <ligand_id>  (76) 
76

>  <original_smiles>  (76) 
[H]c1nc(C([H])([H])Oc2c([H])c([H])c3c(c2[H])C([H])([H])N(C(=O)C([H])(N([H])C(=O)C([H])(N([H])C([H])([H])[H])C([H])([H])[H])C(C([H])([H])[H])(C([H])([H])[H])C([H])([H])[H])C([H])(C(=O)N([H])C2([H])c4c([H])c([H])c([H])c([H])c4C([H])([H])C([H])([H])C2([H])[H])C3([H])[H])nc(C([H])([H])[H])c1C([H])([H])C([H])([H])C([H])([H])C([H])([H])C([H])([H])N([H])C(=O)N1C([H])([H])C([H])([H])C([H])([H])C([H])(n2nc(-c3c([H])c([H])c(Oc4c([H])c([H])c(F)c([H])c4F)c([H])c3[H])c(C(=O)N([H])[H])c2N([H])[H])C1([H])[H]

>  <smiles>  (76) 
[H]c1nc(C([H])([H])Oc2c([H])c([H])c3c(c2[H])C([H])([H])N(C(=O)C([H])(N([H])C(=O)C([H])(N([H])C([H])([H])[H])C([H])([H])[H])C(C([H])([H])[H])(C([H])([H])[H])C([H])([H])[H])C([H])(C(=O)N([H])C2([H])c4c([H])c([H])c([H])c([H])c4C([H])([H])C([H])([H])C2([H])[H])C3([H])[H])nc(C([H])([H])[H])c1C([H])([H])C([H])([H])C([H])([H])C([H])([H])C([H])([H])N([H])C(=O)N1C([H])([H])C([H])([H])C([H])([H])C([H])(n2nc(-c3c([H])c([H])c(Oc4c([H])c([H])c(F)c([H])c4F)c([H])c3[H])c(C(=O)N([H])[H])c2N([H])[H])C1([H])[H]

$$$$
77:0:0
     RDKit          3D

 96104  0  0  1  0  0  0  0  0999 V2000
  -30.1770  -22.7060   22.8310 C   0  0  0  0  0  0  0  0  0  0  0  0
  -29.3920  -21.6100   22.3960 C   0  0  0  0  0  0  0  0  0  0  0  0
  -28.8210  -22.7820   20.4790 C   0  0  0  0  0  0  0  0  0  0  0  0
  -29.6330  -23.8730   20.9100 C   0  0  0  0  0  0  0  0  0  0  0  0
  -30.9270  -22.7100   24.1500 C   0  0  0  0  0  1  0  0  0  0  0  0
  -30.3030  -23.8250   22.0850 N   0  0  0  0  0  0  0  0  0  0  0  0
  -28.6980  -21.6630   21.2340 N   0  0  0  0  0  0  0  0  0  0  0  0
  -26.7100  -23.4680   19.1800 C   0  0  0  0  0  1  0  0  0  0  0  0
  -28.0650  -22.7420   19.1560 C   0  0  0  0  0  2  0  0  0  0  0  0
  -29.3290  -20.2820   23.1390 C   0  0  0  0  0  2  0  0  0  0  0  0
  -29.6760  -19.0760   22.2420 C   0  0  0  0  0  2  0  0  0  0  0  0
  -31.1190  -19.0630   21.7030 C   0  0  0  0  0  2  0  0  0  0  0  0
  -31.5100  -17.6810   21.1600 C   0  0  0  0  0  2  0  0  0  0  0  0
  -32.8170  -17.6570   20.3530 C   0  0  0  0  0  2  0  0  0  0  0  0
  -33.4040  -16.2370   20.2210 C   0  0  0  0  0  2  0  0  0  0  0  0
  -32.3710  -14.3480   18.9600 C   0  0  0  0  0  0  0  0  0  0  0  0
  -31.7770  -12.0200   18.4310 C   0  0  0  0  0  2  0  0  0  0  0  0
  -30.7280  -11.8860   17.3180 C   0  0  0  0  0  2  0  0  0  0  0  0
  -29.3120  -11.9370   17.9160 C   0  0  0  0  0  2  0  0  0  0  0  0
  -29.1110  -13.1640   18.8380 C   0  0  0  0  0  3  0  0  0  0  0  0
  -30.2630  -13.2990   19.8620 C   0  0  0  0  0  2  0  0  0  0  0  0
  -31.5560  -13.2820   19.1480 N   0  0  0  0  0  0  0  0  0  0  0  0
  -33.1930  -14.4310   18.0440 O   0  0  0  0  0  0  0  0  0  0  0  0
  -32.3880  -15.2090   19.9840 N   0  0  0  0  0  0  0  0  0  0  0  0
  -31.7380  -15.0180   20.7340 H   0  0  0  0  0  0  0  0  0  0  0  0
  -26.9790  -14.1660   19.8850 C   0  0  0  0  0  0  0  0  0  0  0  0
  -25.8450  -13.5850   20.3830 C   0  0  0  0  0  0  0  0  0  0  0  0
  -26.0400  -12.1740   20.2660 C   0  0  0  0  0  0  0  0  0  0  0  0
  -27.8060  -13.1220   19.4970 N   0  0  0  0  0  0  0  0  0  0  0  0
  -27.2470  -11.9160   19.7800 N   0  0  0  0  0  0  0  0  0  0  0  0
  -25.1220  -11.0570   20.5330 C   0  0  0  0  0  0  0  0  0  0  0  0
  -25.4170  -10.0760   21.5040 C   0  0  0  0  0  3  0  0  0  0  0  0
  -24.5110   -9.0240   21.7570 C   0  0  0  0  0  3  0  0  0  0  0  0
  -23.2950   -8.9470   21.0370 C   0  0  0  0  0  0  0  0  0  0  0  0
  -23.0180   -9.9120   20.0530 C   0  0  0  0  0  3  0  0  0  0  0  0
  -23.9240  -10.9560   19.7990 C   0  0  0  0  0  3  0  0  0  0  0  0
  -22.3680   -7.9460   21.1960 O   0  0  0  0  0  0  0  0  0  0  0  0
  -22.1140   -7.3860   22.4240 C   0  0  0  0  0  0  0  0  0  0  0  0
  -21.6960   -8.1660   23.5250 C   0  0  0  0  0  3  0  0  0  0  0  0
  -21.3800   -7.5420   24.7500 C   0  0  0  0  0  3  0  0  0  0  0  0
  -21.4710   -6.1420   24.8720 C   0  0  0  0  0  0  0  0  0  0  0  0
  -21.8800   -5.3650   23.7740 C   0  0  0  0  0  3  0  0  0  0  0  0
  -22.1990   -5.9840   22.5530 C   0  0  0  0  0  0  0  0  0  0  0  0
  -22.5720   -5.2290   21.4920 F   0  0  0  0  0  0  0  0  0  0  0  0
  -21.1600   -5.5420   26.0440 F   0  0  0  0  0  0  0  0  0  0  0  0
  -24.6100  -14.2940   20.8600 C   0  0  0  0  0  0  0  0  0  0  0  0
  -23.9010  -13.7150   21.8240 N   0  0  0  0  0  0  0  0  0  0  0  0
  -24.2910  -15.3950   20.4100 O   0  0  0  0  0  0  0  0  0  0  0  0
  -24.1700  -12.8190   22.2030 H   0  0  0  0  0  0  0  0  0  0  0  0
  -23.0740  -14.1710   22.1820 H   0  0  0  0  0  0  0  0  0  0  0  0
  -27.3710  -15.4920   19.7110 N   0  0  0  0  0  0  0  0  0  0  0  0
  -26.7680  -16.2740   19.9410 H   0  0  0  0  0  0  0  0  0  0  0  0
  -28.2500  -15.7780   19.2990 H   0  0  0  0  0  0  0  0  0  0  0  0
  -29.8590  -25.1510   20.1100 C   0  0  0  0  0  2  0  0  0  0  0  0
  -29.5380  -26.4060   20.9420 C   0  0  0  0  0  2  0  0  0  0  0  0
  -29.5240  -27.5880   20.1380 O   0  0  0  0  0  0  0  0  0  0  0  0
  -24.7670  -31.7530   23.3430 C   0  0  0  0  0  0  0  0  0  0  0  0
  -28.2760  -28.1490   20.0760 C   0  0  0  0  0  0  0  0  0  0  0  0
  -23.9060  -30.3470   21.4970 C   0  0  0  0  0  3  0  0  0  0  0  0
  -25.6740  -29.2180   20.0520 C   0  0  0  0  0  0  0  0  0  0  0  0
  -26.3370  -31.1330   21.5120 C   0  0  0  0  0  2  0  0  0  0  0  0
  -26.6890  -29.8660   20.7660 C   0  0  0  0  0  0  0  0  0  0  0  0
  -27.9960  -29.3330   20.7850 C   0  0  0  0  0  3  0  0  0  0  0  0
  -27.2510  -27.5050   19.3520 C   0  0  0  0  0  3  0  0  0  0  0  0
  -25.9460  -28.0300   19.3470 C   0  0  0  0  0  3  0  0  0  0  0  0
  -24.3050  -29.8530   20.0840 C   0  0  0  0  0  2  0  0  0  0  0  0
  -25.0160  -31.0880   22.1800 N   0  0  0  0  0  0  0  0  0  0  0  0
  -23.6280  -31.7950   23.8220 O   0  0  0  0  0  0  0  0  0  0  0  0
  -23.3850  -29.1400   22.3080 C   0  0  0  0  0  0  0  0  0  0  0  0
  -22.1320  -28.7410   22.0350 N   0  0  0  0  0  0  0  0  0  0  0  0
  -24.1000  -28.5730   23.1350 O   0  0  0  0  0  0  0  0  0  0  0  0
  -21.6120  -29.2640   21.3450 H   0  0  0  0  0  0  0  0  0  0  0  0
  -19.0140  -26.9200   22.0720 C   0  0  0  0  0  0  0  0  0  0  0  0
  -21.4370  -27.6110   22.6490 C   0  0  0  0  0  3  0  0  0  0  0  0
  -21.8670  -26.2790   21.9960 C   0  0  0  0  0  2  0  0  0  0  0  0
  -20.9520  -25.8500   20.8450 C   0  0  0  0  0  2  0  0  0  0  0  0
  -19.5090  -25.6860   21.3370 C   0  0  0  0  0  2  0  0  0  0  0  0
  -19.9210  -27.8320   22.6720 C   0  0  0  0  0  0  0  0  0  0  0  0
  -19.4140  -28.9810   23.3150 C   0  0  0  0  0  3  0  0  0  0  0  0
  -18.0280  -29.2250   23.3660 C   0  0  0  0  0  3  0  0  0  0  0  0
  -17.1310  -28.3100   22.7850 C   0  0  0  0  0  3  0  0  0  0  0  0
  -17.6250  -27.1600   22.1440 C   0  0  0  0  0  3  0  0  0  0  0  0
  -25.8980  -32.5120   24.1100 C   0  0  0  0  0  3  0  0  0  0  0  0
  -26.3580  -31.7770   25.4290 C   0  0  1  0  0  0  0  0  0  0  0  0
  -25.1830  -31.3720   26.3490 C   0  0  0  0  0  1  0  0  0  0  0  0
  -27.1590  -30.4960   25.0940 C   0  0  0  0  0  1  0  0  0  0  0  0
  -27.3070  -32.6900   26.2400 C   0  0  0  0  0  1  0  0  0  0  0  0
  -25.3980  -33.8600   24.4090 N   0  0  0  0  0  0  0  0  0  0  0  0
  -25.7060  -34.9580   23.7030 C   0  0  0  0  0  0  0  0  0  0  0  0
  -26.5110  -34.9500   22.7670 O   0  0  0  0  0  0  0  0  0  0  0  0
  -24.6860  -33.9290   25.1190 H   0  0  0  0  0  0  0  0  0  0  0  0
  -23.8490  -36.5560   23.1330 C   0  0  0  0  0  1  0  0  0  0  0  0
  -25.0110  -36.2740   24.1010 C   0  0  0  0  0  3  0  0  0  0  0  0
  -26.9110  -37.3630   25.2060 C   0  0  0  0  0  1  0  0  0  0  0  0
  -25.9230  -37.4370   24.1320 N   0  0  0  0  0  0  0  0  0  0  0  0
  -25.4010  -38.3030   24.2410 H   0  0  0  0  0  0  0  0  0  0  0  0
  1  5  1  0
  2  1  1  0
  2 10  1  0
  3  4  2  0
  3  7  1  0
  4  6  1  0
  6  1  2  0
  7  2  2  0
  9  8  1  0
  9  3  1  0
 11 10  1  0
 12 11  1  0
 13 12  1  0
 14 13  1  0
 15 14  1  0
 16 22  1  0
 16 24  1  0
 17 22  1  0
 18 19  1  0
 18 17  1  0
 20 19  1  0
 20 29  1  0
 20 21  1  0
 22 21  1  0
 23 16  2  0
 24 15  1  0
 24 25  1  0
 26 27  2  0
 27 46  1  0
 28 27  1  0
 28 31  1  0
 29 30  1  0
 29 26  1  0
 30 28  2  0
 31 32  1  0
 32 33  2  0
 34 37  1  0
 34 33  1  0
 35 34  2  0
 36 35  1  0
 36 31  2  0
 37 38  1  0
 38 43  2  0
 38 39  1  0
 39 40  2  0
 40 41  1  0
 41 45  1  0
 42 41  2  0
 43 42  1  0
 44 43  1  0
 46 47  1  0
 47 50  1  0
 47 49  1  0
 48 46  2  0
 51 26  1  0
 51 52  1  0
 53 51  1  0
 54  4  1  0
 54 55  1  0
 56 55  1  0
 57 68  2  0
 58 56  1  0
 58 63  1  0
 59 67  1  0
 59 69  1  0
 60 66  1  0
 60 62  1  0
 61 67  1  0
 62 63  2  0
 62 61  1  0
 64 58  2  0
 65 64  1  0
 65 60  2  0
 66 59  1  0
 67 57  1  0
 69 71  2  0
 70 69  1  0
 72 70  1  0
 73 82  2  0
 73 78  1  0
 74 70  1  0
 74 78  1  0
 75 74  1  0
 76 77  1  0
 76 75  1  0
 77 73  1  0
 78 79  2  0
 79 80  1  0
 81 80  2  0
 82 81  1  0
 83 57  1  0
 83 88  1  0
 83 84  1  0
 84 87  1  1
 84 85  1  0
 86 84  1  0
 88 91  1  0
 89 93  1  0
 89 88  1  0
 90 89  2  0
 93 92  1  0
 93 95  1  0
 95 96  1  0
 95 94  1  0
M  ISO  4  16 100  24 100  55 101  56 101
M  END
>  <TORSDO>  (77) 
F 25

>  <SCORE>  (77) 
-4.668

>  <name>  (77) 
77

>  <ligand_id>  (77) 
77

>  <original_smiles>  (77) 
[H]c1c([H])c([H])c2c(c1[H])C([H])([H])C([H])([H])C([H])([H])C2([H])N([H])C(=O)C1([H])N(C(=O)C([H])(N([H])C(=O)C([H])(N([H])C([H])([H])[H])C([H])([H])[H])C(C([H])([H])[H])(C([H])([H])[H])C([H])([H])[H])C([H])([H])c2c([H])c(OC([H])([H])C([H])([H])c3nc(C([H])([H])[H])c(C([H])([H])C([H])([H])C([H])([H])C([H])([H])C([H])([H])C([H])([H])N([H])C(=O)N4C([H])([H])C([H])([H])C([H])([H])C([H])(n5nc(-c6c([H])c([H])c(Oc7c([H])c([H])c(F)c([H])c7F)c([H])c6[H])c(C(=O)N([H])[H])c5N([H])[H])C4([H])[H])nc3C([H])([H])C([H])([H])[H])c([H])c([H])c2C1([H])[H]

>  <smiles>  (77) 
[H]c1c([H])c([H])c2c(c1[H])C([H])([H])C([H])([H])C([H])([H])C2([H])N([H])C(=O)C1([H])N(C(=O)C([H])(N([H])C(=O)C([H])(N([H])C([H])([H])[H])C([H])([H])[H])C(C([H])([H])[H])(C([H])([H])[H])C([H])([H])[H])C([H])([H])c2c([H])c(OC([H])([H])C([H])([H])c3nc(C([H])([H])[H])c(C([H])([H])C([H])([H])C([H])([H])C([H])([H])C([H])([H])C([H])([H])N([H])C(=O)N4C([H])([H])C([H])([H])C([H])([H])C([H])(n5nc(-c6c([H])c([H])c(Oc7c([H])c([H])c(F)c([H])c7F)c([H])c6[H])c(C(=O)N([H])[H])c5N([H])[H])C4([H])[H])nc3C([H])([H])C([H])([H])[H])c([H])c([H])c2C1([H])[H]

$$$$
78:0:0
     RDKit          3D

 88 96  0  0  1  0  0  0  0  0999 V2000
  -28.7470  -18.2220   19.6740 C   0  0  0  0  0  3  0  0  0  0  0  0
  -28.4320  -19.6220   19.5860 C   0  0  0  0  0  3  0  0  0  0  0  0
  -29.7380  -17.7190   20.5670 C   0  0  0  0  0  0  0  0  0  0  0  0
  -29.0870  -20.6060   20.3780 C   0  0  0  0  0  0  0  0  0  0  0  0
  -30.4180  -18.7820   21.2490 C   0  0  0  0  0  0  0  0  0  0  0  0
  -31.5240  -18.4630   22.2350 C   0  0  0  0  0  1  0  0  0  0  0  0
  -30.1050  -20.1330   21.1640 N   0  0  0  0  0  0  0  0  0  0  0  0
  -29.7740  -16.1540   21.0240 C   0  0  0  0  0  2  0  0  0  0  0  0
  -30.5870  -14.8870   20.4000 C   0  0  0  0  0  0  0  0  0  0  0  0
  -30.4730  -12.5970   19.3330 C   0  0  0  0  0  2  0  0  0  0  0  0
  -29.5300  -12.6530   18.1090 C   0  0  0  0  0  2  0  0  0  0  0  0
  -28.0570  -12.4620   18.5280 C   0  0  0  0  0  2  0  0  0  0  0  0
  -27.6740  -13.3320   19.7530 C   0  0  0  0  0  3  0  0  0  0  0  0
  -28.7300  -13.2140   20.8750 C   0  0  0  0  0  2  0  0  0  0  0  0
  -30.0230  -13.6240   20.3060 N   0  0  0  0  0  0  0  0  0  0  0  0
  -31.7370  -15.0470   19.9750 O   0  0  0  0  0  0  0  0  0  0  0  0
  -25.2750  -13.9210   20.4480 C   0  0  0  0  0  0  0  0  0  0  0  0
  -24.2090  -13.1470   20.8170 C   0  0  0  0  0  0  0  0  0  0  0  0
  -24.6780  -11.7970   20.8050 C   0  0  0  0  0  0  0  0  0  0  0  0
  -26.3250  -13.0430   20.2310 N   0  0  0  0  0  0  0  0  0  0  0  0
  -25.9710  -11.7620   20.5080 N   0  0  0  0  0  0  0  0  0  0  0  0
  -23.9540  -10.5340   21.0020 C   0  0  0  0  0  0  0  0  0  0  0  0
  -24.3840   -9.5760   21.9450 C   0  0  0  0  0  3  0  0  0  0  0  0
  -23.6600   -8.3790   22.1290 C   0  0  0  0  0  3  0  0  0  0  0  0
  -22.4920   -8.1310   21.3690 C   0  0  0  0  0  0  0  0  0  0  0  0
  -22.0820   -9.0780   20.4140 C   0  0  0  0  0  3  0  0  0  0  0  0
  -22.8070  -10.2670   20.2280 C   0  0  0  0  0  3  0  0  0  0  0  0
  -21.7400   -6.9850   21.4620 O   0  0  0  0  0  0  0  0  0  0  0  0
  -21.6870   -6.2500   22.6190 C   0  0  0  0  0  0  0  0  0  0  0  0
  -21.2510   -6.8110   23.8390 C   0  0  0  0  0  3  0  0  0  0  0  0
  -21.1460   -6.0020   24.9880 C   0  0  0  0  0  3  0  0  0  0  0  0
  -21.4680   -4.6340   24.9190 C   0  0  0  0  0  0  0  0  0  0  0  0
  -21.8960   -4.0720   23.7040 C   0  0  0  0  0  3  0  0  0  0  0  0
  -22.0030   -4.8770   22.5570 C   0  0  0  0  0  0  0  0  0  0  0  0
  -22.3960   -4.3260   21.3820 F   0  0  0  0  0  0  0  0  0  0  0  0
  -21.3590   -3.8550   26.0210 F   0  0  0  0  0  0  0  0  0  0  0  0
  -22.8080  -13.6220   21.0710 C   0  0  0  0  0  0  0  0  0  0  0  0
  -22.0740  -12.9330   21.9380 N   0  0  0  0  0  0  0  0  0  0  0  0
  -22.3700  -14.6400   20.5360 O   0  0  0  0  0  0  0  0  0  0  0  0
  -22.4400  -12.1090   22.3930 H   0  0  0  0  0  0  0  0  0  0  0  0
  -21.1340  -13.2330   22.1510 H   0  0  0  0  0  0  0  0  0  0  0  0
  -25.4350  -15.2900   20.2560 N   0  0  0  0  0  0  0  0  0  0  0  0
  -24.6650  -15.9420   20.3470 H   0  0  0  0  0  0  0  0  0  0  0  0
  -26.2830  -15.7250   19.9180 H   0  0  0  0  0  0  0  0  0  0  0  0
  -28.4400  -22.0720   20.6470 C   0  0  0  0  0  2  0  0  0  0  0  0
  -28.9200  -23.5520   20.1220 C   0  0  0  0  0  3  0  0  0  0  0  0
  -27.9910  -24.8600   20.5040 C   0  0  0  0  0  3  0  0  0  0  0  0
  -28.2640  -26.3290   20.1780 O   0  0  0  0  0  0  0  0  0  0  0  0
  -24.6000  -31.8910   23.2220 C   0  0  0  0  0  0  0  0  0  0  0  0
  -27.1820  -27.2580   20.1570 C   0  0  0  0  0  0  0  0  0  0  0  0
  -23.3900  -30.4960   21.5870 C   0  0  0  0  0  3  0  0  0  0  0  0
  -24.8340  -28.9400   20.1500 C   0  0  0  0  0  0  0  0  0  0  0  0
  -25.9370  -30.7900   21.3990 C   0  0  0  0  0  2  0  0  0  0  0  0
  -26.0130  -29.4050   20.7490 C   0  0  0  0  0  0  0  0  0  0  0  0
  -27.1900  -28.5780   20.7380 C   0  0  0  0  0  3  0  0  0  0  0  0
  -25.9820  -26.8830   19.5110 C   0  0  0  0  0  3  0  0  0  0  0  0
  -24.8270  -27.6890   19.5160 C   0  0  0  0  0  3  0  0  0  0  0  0
  -23.6010  -29.8230   20.2050 C   0  0  0  0  0  2  0  0  0  0  0  0
  -24.6620  -31.0790   22.1240 N   0  0  0  0  0  0  0  0  0  0  0  0
  -23.5170  -32.1710   23.7580 O   0  0  0  0  0  0  0  0  0  0  0  0
  -22.7260  -29.4810   22.5490 C   0  0  0  0  0  0  0  0  0  0  0  0
  -21.4000  -29.3020   22.4250 N   0  0  0  0  0  0  0  0  0  0  0  0
  -23.4060  -28.8560   23.3680 O   0  0  0  0  0  0  0  0  0  0  0  0
  -20.9090  -29.8560   21.7370 H   0  0  0  0  0  0  0  0  0  0  0  0
  -18.0260  -28.0910   22.9360 C   0  0  0  0  0  0  0  0  0  0  0  0
  -20.5850  -28.3620   23.1990 C   0  0  0  0  0  3  0  0  0  0  0  0
  -20.6920  -26.9300   22.6250 C   0  0  0  0  0  2  0  0  0  0  0  0
  -19.5870  -26.6010   21.6150 C   0  0  0  0  0  2  0  0  0  0  0  0
  -18.2070  -26.7420   22.2610 C   0  0  0  0  0  2  0  0  0  0  0  0
  -19.1430  -28.8590   23.3620 C   0  0  0  0  0  0  0  0  0  0  0  0
  -18.9190  -30.1200   23.9550 C   0  0  0  0  0  3  0  0  0  0  0  0
  -17.6120  -30.6150   24.1240 C   0  0  0  0  0  3  0  0  0  0  0  0
  -16.5100  -29.8450   23.7140 C   0  0  0  0  0  3  0  0  0  0  0  0
  -16.7180  -28.5850   23.1260 C   0  0  0  0  0  3  0  0  0  0  0  0
  -25.8830  -32.5250   23.8400 C   0  0  0  0  0  3  0  0  0  0  0  0
  -26.4010  -31.7550   25.1180 C   0  0  1  0  0  0  0  0  0  0  0  0
  -25.3090  -31.5220   26.1880 C   0  0  0  0  0  1  0  0  0  0  0  0
  -26.9810  -30.3750   24.7280 C   0  0  0  0  0  1  0  0  0  0  0  0
  -27.5550  -32.5480   25.7750 C   0  0  0  0  0  1  0  0  0  0  0  0
  -25.5720  -33.9240   24.1740 N   0  0  0  0  0  0  0  0  0  0  0  0
  -25.8980  -34.9790   23.4150 C   0  0  0  0  0  0  0  0  0  0  0  0
  -26.5600  -34.8780   22.3780 O   0  0  0  0  0  0  0  0  0  0  0  0
  -24.9840  -34.0760   24.9800 H   0  0  0  0  0  0  0  0  0  0  0  0
  -24.1720  -36.7770   23.0750 C   0  0  0  0  0  1  0  0  0  0  0  0
  -25.4150  -36.3680   23.8790 C   0  0  0  0  0  3  0  0  0  0  0  0
  -27.5560  -37.2480   24.7040 C   0  0  0  0  0  1  0  0  0  0  0  0
  -26.4500  -37.4190   23.7640 N   0  0  0  0  0  0  0  0  0  0  0  0
  -26.0470  -38.3400   23.9130 H   0  0  0  0  0  0  0  0  0  0  0  0
  1  3  1  0
  2  1  2  0
  2  4  1  0
  3  8  1  0
  3  5  2  0
  4 45  1  0
  4  7  2  0
  5  6  1  0
  7  5  1  0
  9  8  1  0
 10 15  1  0
 11 12  1  0
 11 10  1  0
 13 12  1  0
 13 20  1  0
 13 14  1  0
 15  9  1  0
 15 14  1  0
 16  9  2  0
 17 18  2  0
 18 37  1  0
 19 18  1  0
 19 22  1  0
 20 17  1  0
 20 21  1  0
 21 19  2  0
 22 23  1  0
 23 24  2  0
 25 28  1  0
 25 24  1  0
 26 25  2  0
 27 26  1  0
 27 22  2  0
 28 29  1  0
 29 30  1  0
 30 31  2  0
 32 31  1  0
 32 36  1  0
 33 32  2  0
 34 29  2  0
 34 33  1  0
 35 34  1  0
 37 38  1  0
 38 41  1  0
 38 40  1  0
 39 37  2  0
 42 43  1  0
 42 17  1  0
 44 42  1  0
 46 47  2  0
 46 45  1  0
 48 47  1  0
 49 60  2  0
 50 48  1  0
 50 55  1  0
 51 59  1  0
 51 61  1  0
 52 58  1  0
 52 54  1  0
 53 59  1  0
 54 53  1  0
 55 54  2  0
 56 57  1  0
 56 50  2  0
 57 52  2  0
 58 51  1  0
 59 49  1  0
 61 63  2  0
 62 61  1  0
 64 62  1  0
 65 74  2  0
 65 70  1  0
 66 62  1  0
 66 70  1  0
 67 66  1  0
 68 69  1  0
 68 67  1  0
 69 65  1  0
 70 71  2  0
 71 72  1  0
 73 72  2  0
 74 73  1  0
 75 49  1  0
 75 80  1  0
 75 76  1  0
 76 79  1  1
 76 77  1  0
 78 76  1  0
 80 83  1  0
 81 85  1  0
 81 80  1  0
 82 81  2  0
 85 84  1  0
 87 85  1  0
 87 88  1  0
 87 86  1  0
M  ISO  4   8 100   9 100  47 101  48 101
M  END
>  <TORSDO>  (78) 
F 20

>  <SCORE>  (78) 
-13.881

>  <name>  (78) 
78

>  <ligand_id>  (78) 
78

>  <original_smiles>  (78) 
[H]c1c(C([H])([H])C([H])([H])C([H])([H])Oc2c([H])c([H])c3c(c2[H])C([H])([H])N(C(=O)C([H])(N([H])C(=O)C([H])(N([H])C([H])([H])[H])C([H])([H])[H])C(C([H])([H])[H])(C([H])([H])[H])C([H])([H])[H])C([H])(C(=O)N([H])C2([H])c4c([H])c([H])c([H])c([H])c4C([H])([H])C([H])([H])C2([H])[H])C3([H])[H])nc(C([H])([H])[H])c(C([H])([H])C(=O)N2C([H])([H])C([H])([H])C([H])([H])C([H])(n3nc(-c4c([H])c([H])c(Oc5c([H])c([H])c(F)c([H])c5F)c([H])c4[H])c(C(=O)N([H])[H])c3N([H])[H])C2([H])[H])c1[H]

>  <smiles>  (78) 
[H]c1c(C([H])([H])C([H])([H])C([H])([H])Oc2c([H])c([H])c3c(c2[H])C([H])([H])N(C(=O)C([H])(N([H])C(=O)C([H])(N([H])C([H])([H])[H])C([H])([H])[H])C(C([H])([H])[H])(C([H])([H])[H])C([H])([H])[H])C([H])(C(=O)N([H])C2([H])c4c([H])c([H])c([H])c([H])c4C([H])([H])C([H])([H])C2([H])[H])C3([H])[H])nc(C([H])([H])[H])c(C([H])([H])C(=O)N2C([H])([H])C([H])([H])C([H])([H])C([H])(n3nc(-c4c([H])c([H])c(Oc5c([H])c([H])c(F)c([H])c5F)c([H])c4[H])c(C(=O)N([H])[H])c3N([H])[H])C2([H])[H])c1[H]

$$$$
79:0:0
     RDKit          3D

 96 99  0  0  1  0  0  0  0  0999 V2000
  -24.7400  -29.9170   20.1370 C   0  0  0  0  0  1  0  0  0  0  0  0
  -25.0700  -30.0580   18.6290 C   0  0  0  0  0  3  0  0  0  0  0  0
  -25.2100  -28.1760   21.5350 C   0  0  0  0  0  2  0  0  0  0  0  0
  -25.7790  -29.0130   17.7620 C   0  0  0  0  0  0  0  0  0  0  0  0
  -26.0250  -26.8770   20.7550 C   0  0  0  0  0  2  0  0  0  0  0  0
  -26.3780  -27.6390   18.3170 C   0  0  0  0  0  2  0  0  0  0  0  0
  -25.4530  -27.7850   23.0060 C   0  0  0  0  0  1  0  0  0  0  0  0
  -25.6570  -29.3800   16.2730 C   0  0  0  0  0  2  0  0  0  0  0  0
  -24.3640  -27.5410   14.9670 C   0  0  0  0  0  1  0  0  0  0  0  0
  -24.3110  -28.9170   15.6510 C   0  0  0  0  0  2  0  0  0  0  0  0
  -26.5950  -25.1640   21.5200 C   0  0  0  0  0  1  0  0  0  0  0  0
  -27.0160  -23.3170   20.9130 C   0  0  0  0  0  1  0  0  0  0  0  0
  -28.0100  -21.6750   21.3040 C   0  0  0  0  0  2  0  0  0  0  0  0
  -28.3410  -19.8450   20.6590 C   0  0  0  0  0  3  0  0  0  0  0  0
  -29.4550  -18.2660   21.0050 C   0  0  0  0  0  3  0  0  0  0  0  0
  -30.4870  -15.2180   20.6420 C   0  0  0  0  0  0  0  0  0  0  0  0
  -30.8210  -12.6760   19.8320 C   0  0  0  0  0  2  0  0  0  0  0  0
  -30.0270  -12.1950   18.5780 C   0  0  0  0  0  2  0  0  0  0  0  0
  -28.5880  -11.8140   18.9570 C   0  0  0  0  0  2  0  0  0  0  0  0
  -27.9900  -12.8530   19.9290 C   0  0  0  0  0  3  0  0  0  0  0  0
  -28.9100  -13.1600   21.1220 C   0  0  0  0  0  2  0  0  0  0  0  0
  -30.0870  -13.8220   20.5440 N   0  0  0  0  0  0  0  0  0  0  0  0
  -31.7340  -15.2470   20.5330 O   0  0  0  0  0  0  0  0  0  0  0  0
  -29.5690  -16.4960   20.6990 N   0  0  0  0  0  0  0  0  0  0  0  0
  -28.6210  -16.1460   20.6640 H   0  0  0  0  0  0  0  0  0  0  0  0
  -25.5980  -13.4300   20.5140 C   0  0  0  0  0  0  0  0  0  0  0  0
  -24.5180  -12.6670   20.8520 C   0  0  0  0  0  0  0  0  0  0  0  0
  -24.9860  -11.3160   20.8970 C   0  0  0  0  0  0  0  0  0  0  0  0
  -26.6440  -12.5430   20.3590 N   0  0  0  0  0  0  0  0  0  0  0  0
  -26.2920  -11.2690   20.6600 N   0  0  0  0  0  0  0  0  0  0  0  0
  -24.2500  -10.0620   21.0870 C   0  0  0  0  0  0  0  0  0  0  0  0
  -24.6330   -9.1220   22.0680 C   0  0  0  0  0  3  0  0  0  0  0  0
  -23.8970   -7.9320   22.2410 C   0  0  0  0  0  3  0  0  0  0  0  0
  -22.7660   -7.6730   21.4310 C   0  0  0  0  0  0  0  0  0  0  0  0
  -22.4030   -8.6020   20.4390 C   0  0  0  0  0  3  0  0  0  0  0  0
  -23.1410   -9.7840   20.2640 C   0  0  0  0  0  3  0  0  0  0  0  0
  -22.0040   -6.5320   21.5130 O   0  0  0  0  0  0  0  0  0  0  0  0
  -21.8800   -5.8330   22.6870 C   0  0  0  0  0  0  0  0  0  0  0  0
  -21.3660   -6.4300   23.8580 C   0  0  0  0  0  3  0  0  0  0  0  0
  -21.1910   -5.6570   25.0230 C   0  0  0  0  0  3  0  0  0  0  0  0
  -21.5190   -4.2880   25.0170 C   0  0  0  0  0  0  0  0  0  0  0  0
  -22.0280   -3.6920   23.8490 C   0  0  0  0  0  3  0  0  0  0  0  0
  -22.2050   -4.4620   22.6870 C   0  0  0  0  0  0  0  0  0  0  0  0
  -22.6750   -3.8780   21.5580 F   0  0  0  0  0  0  0  0  0  0  0  0
  -21.3440   -3.5420   26.1330 F   0  0  0  0  0  0  0  0  0  0  0  0
  -23.1100  -13.1540   21.0100 C   0  0  0  0  0  0  0  0  0  0  0  0
  -22.3260  -12.4990   21.8600 N   0  0  0  0  0  0  0  0  0  0  0  0
  -22.7100  -14.1530   20.4140 O   0  0  0  0  0  0  0  0  0  0  0  0
  -22.6600  -11.6920   22.3670 H   0  0  0  0  0  0  0  0  0  0  0  0
  -21.3770  -12.8110   22.0100 H   0  0  0  0  0  0  0  0  0  0  0  0
  -25.7730  -14.7940   20.2920 N   0  0  0  0  0  0  0  0  0  0  0  0
  -24.9860  -15.4330   20.2950 H   0  0  0  0  0  0  0  0  0  0  0  0
  -26.5950  -15.1830   19.8520 H   0  0  0  0  0  0  0  0  0  0  0  0
  -27.3420  -27.0240   17.1640 C   0  0  0  0  0  2  0  0  0  0  0  0
  -28.6160  -26.1720   17.6120 C   0  0  0  0  0  2  0  0  0  0  0  0
  -28.5720  -25.5280   18.8960 O   0  0  0  0  0  0  0  0  0  0  0  0
  -24.9300  -31.4570   23.1900 C   0  0  0  0  0  0  0  0  0  0  0  0
  -27.5090  -26.0530   19.4040 C   0  0  0  0  0  3  0  0  0  0  0  0
  -23.2450  -29.9690   21.6990 C   0  0  0  0  0  2  0  0  0  0  0  0
  -24.3990  -28.0260   19.1600 C   0  0  0  0  0  2  0  0  0  0  0  0
  -26.5560  -30.0410   21.5460 C   0  0  0  0  0  2  0  0  0  0  0  0
  -26.6880  -28.8280   20.1040 C   0  0  0  0  0  2  0  0  0  0  0  0
  -27.8570  -27.6210   20.0840 C   0  0  0  0  0  2  0  0  0  0  0  0
  -25.9350  -25.4770   18.7030 C   0  0  0  0  0  3  0  0  0  0  0  0
  -24.4540  -26.4140   18.6150 C   0  0  0  0  0  3  0  0  0  0  0  0
  -22.9140  -28.7620   20.1000 C   0  0  0  0  0  1  0  0  0  0  0  0
  -24.9290  -30.4800   22.2940 N   0  0  0  0  0  0  0  0  0  0  0  0
  -23.8810  -31.9350   23.6350 O   0  0  0  0  0  0  0  0  0  0  0  0
  -22.4580  -29.3410   22.7540 C   0  0  0  0  0  0  0  0  0  0  0  0
  -21.2250  -29.0640   22.4170 N   0  0  0  0  0  0  0  0  0  0  0  0
  -22.9390  -29.0140   23.8230 O   0  0  0  0  0  0  0  0  0  0  0  0
  -20.8560  -29.3610   21.5240 H   0  0  0  0  0  0  0  0  0  0  0  0
  -17.9490  -27.9910   22.8140 C   0  0  0  0  0  0  0  0  0  0  0  0
  -20.4360  -28.1960   23.2300 C   0  0  0  0  0  3  0  0  0  0  0  0
  -20.5990  -26.7510   22.7250 C   0  0  0  0  0  2  0  0  0  0  0  0
  -19.5570  -26.3920   21.6700 C   0  0  0  0  0  2  0  0  0  0  0  0
  -18.1500  -26.5940   22.2470 C   0  0  0  0  0  2  0  0  0  0  0  0
  -19.0420  -28.7570   23.2640 C   0  0  0  0  0  0  0  0  0  0  0  0
  -18.8470  -30.0750   23.7340 C   0  0  0  0  0  3  0  0  0  0  0  0
  -17.5560  -30.6230   23.7810 C   0  0  0  0  0  3  0  0  0  0  0  0
  -16.4580  -29.8470   23.3680 C   0  0  0  0  0  3  0  0  0  0  0  0
  -16.6550  -28.5370   22.8890 C   0  0  0  0  0  3  0  0  0  0  0  0
  -26.2940  -31.9840   23.6930 C   0  0  0  0  0  3  0  0  0  0  0  0
  -26.8600  -31.1280   24.8920 C   0  0  1  0  0  0  0  0  0  0  0  0
  -25.7780  -30.7790   25.9390 C   0  0  0  0  0  1  0  0  0  0  0  0
  -27.5590  -29.7990   24.5170 C   0  0  0  0  0  1  0  0  0  0  0  0
  -28.0080  -31.9170   25.5540 C   0  0  0  0  0  1  0  0  0  0  0  0
  -26.0830  -33.3850   24.0740 N   0  0  0  0  0  0  0  0  0  0  0  0
  -26.4150  -34.4460   23.3250 C   0  0  0  0  0  0  0  0  0  0  0  0
  -27.0040  -34.3510   22.2420 O   0  0  0  0  0  0  0  0  0  0  0  0
  -25.5550  -33.5510   24.9180 H   0  0  0  0  0  0  0  0  0  0  0  0
  -24.8080  -36.3810   23.1700 C   0  0  0  0  0  1  0  0  0  0  0  0
  -26.0540  -35.8350   23.8840 C   0  0  0  0  0  3  0  0  0  0  0  0
  -28.2940  -36.5080   24.6400 C   0  0  0  0  0  1  0  0  0  0  0  0
  -27.1550  -36.8180   23.7780 N   0  0  0  0  0  0  0  0  0  0  0  0
  -26.8280  -37.7520   24.0060 H   0  0  0  0  0  0  0  0  0  0  0  0
  2  1  1  0
  3  7  1  0
  4  6  1  0
  4  2  2  0
  5 11  1  0
  5  3  1  0
  8  4  1  0
  9 10  1  0
 10  8  1  0
 12 13  1  0
 14 15  2  0
 14 13  1  0
 16 24  1  0
 17 22  1  0
 18 19  1  0
 18 17  1  0
 20 19  1  0
 20 29  1  0
 20 21  1  0
 22 16  1  0
 22 21  1  0
 23 16  2  0
 24 15  1  0
 25 24  1  0
 26 27  2  0
 27 28  1  0
 27 46  1  0
 28 31  1  0
 29 26  1  0
 29 30  1  0
 30 28  2  0
 31 32  1  0
 32 33  2  0
 34 37  1  0
 34 33  1  0
 35 34  2  0
 36 35  1  0
 36 31  2  0
 37 38  1  0
 38 39  1  0
 39 40  2  0
 41 40  1  0
 41 45  1  0
 42 41  2  0
 43 38  2  0
 43 42  1  0
 44 43  1  0
 46 47  1  0
 47 50  1  0
 47 49  1  0
 48 46  2  0
 51 52  1  0
 51 26  1  0
 53 51  1  0
 54 55  1  0
 54  6  1  0
 55 56  1  0
 56 58  1  0
 57 68  2  0
 58 64  1  0
 58 63  1  0
 59 67  1  0
 59 69  1  0
 60 66  1  0
 61 67  1  0
 62 61  1  0
 63 62  1  0
 65 64  2  0
 65 60  1  0
 67 57  1  0
 69 71  2  0
 70 69  1  0
 72 70  1  0
 73 82  2  0
 73 78  1  0
 74 70  1  0
 74 78  1  0
 75 74  1  0
 76 77  1  0
 76 75  1  0
 77 73  1  0
 78 79  2  0
 79 80  1  0
 81 80  2  0
 82 81  1  0
 83 57  1  0
 83 88  1  0
 83 84  1  0
 84 87  1  1
 84 85  1  0
 86 84  1  0
 88 91  1  0
 89 93  1  0
 89 88  1  0
 90 89  2  0
 93 92  1  0
 95 93  1  0
 95 96  1  0
 95 94  1  0
M  ISO  4  16 100  24 100  55 101  56 101
M  END
>  <TORSDO>  (79) 
F 25

>  <SCORE>  (79) 
-11.761

>  <name>  (79) 
79

>  <ligand_id>  (79) 
79

>  <original_smiles>  (79) 
[H]c1c([H])c([H])c2c(c1[H])C([H])([H])C([H])([H])C([H])([H])C2([H])N([H])C(=O)C1([H])N(C(=O)C([H])(N([H])C(=O)C([H])(N([H])C([H])([H])[H])C([H])([H])[H])C(C([H])([H])[H])(C([H])([H])[H])C([H])([H])[H])C([H])([H])c2c([H])c(OC([H])([H])C([H])([H])c3c(C([H])([H])C([H])([H])C([H])([H])[H])c([H])c([H])c(C([H])([H])[H])c3C([H])([H])C([H])([H])C([H])([H])C([H])([H])C([H])([H])N([H])C(=O)N3C([H])([H])C([H])([H])C([H])([H])C([H])(n4nc(-c5c([H])c([H])c(Oc6c([H])c([H])c(F)c([H])c6F)c([H])c5[H])c(C(=O)N([H])[H])c4N([H])[H])C3([H])[H])c([H])c([H])c2C1([H])[H]

>  <smiles>  (79) 
[H]c1c([H])c([H])c2c(c1[H])C([H])([H])C([H])([H])C([H])([H])C2([H])N([H])C(=O)C1([H])N(C(=O)C([H])(N([H])C(=O)C([H])(N([H])C([H])([H])[H])C([H])([H])[H])C(C([H])([H])[H])(C([H])([H])[H])C([H])([H])[H])C([H])([H])c2c([H])c(OC([H])([H])C([H])([H])c3c(C([H])([H])C([H])([H])C([H])([H])[H])c([H])c([H])c(C([H])([H])[H])c3C([H])([H])C([H])([H])C([H])([H])C([H])([H])C([H])([H])N([H])C(=O)N3C([H])([H])C([H])([H])C([H])([H])C([H])(n4nc(-c5c([H])c([H])c(Oc6c([H])c([H])c(F)c([H])c6F)c([H])c5[H])c(C(=O)N([H])[H])c4N([H])[H])C3([H])[H])c([H])c([H])c2C1([H])[H]

$$$$
80:0:0
     RDKit          3D

 94102  0  0  1  0  0  0  0  0999 V2000
  -31.1540  -23.2390   19.6070 C   0  0  0  0  0  3  0  0  0  0  0  0
  -29.5020  -21.7280   20.5120 C   0  0  0  0  0  3  0  0  0  0  0  0
  -29.9290  -23.0620   20.2700 C   0  0  0  0  0  0  0  0  0  0  0  0
  -31.8850  -22.1460   19.0900 C   0  0  0  0  0  0  0  0  0  0  0  0
  -30.2110  -20.5920   20.0090 C   0  0  0  0  0  0  0  0  0  0  0  0
  -31.3470  -20.8220   19.1670 C   0  0  0  0  0  0  0  0  0  0  0  0
  -32.4320  -19.8880   16.9340 C   0  0  0  0  0  1  0  0  0  0  0  0
  -31.9250  -19.6430   18.3640 C   0  0  0  0  0  2  0  0  0  0  0  0
  -34.4100  -21.8920   19.3760 C   0  0  0  0  0  1  0  0  0  0  0  0
  -33.2680  -22.4790   18.5270 C   0  0  0  0  0  2  0  0  0  0  0  0
  -29.1850  -24.3140   20.8100 C   0  0  0  0  0  2  0  0  0  0  0  0
  -28.6010  -25.3050   19.7410 C   0  0  0  0  0  2  0  0  0  0  0  0
  -28.4350  -26.6730   20.2190 O   0  0  0  0  0  0  0  0  0  0  0  0
  -24.5990  -31.8720   23.2460 C   0  0  0  0  0  0  0  0  0  0  0  0
  -27.2380  -27.3860   20.1660 C   0  0  0  0  0  0  0  0  0  0  0  0
  -23.3870  -30.4690   21.6100 C   0  0  0  0  0  3  0  0  0  0  0  0
  -24.8350  -28.9270   20.1780 C   0  0  0  0  0  0  0  0  0  0  0  0
  -25.9130  -30.8200   21.4010 C   0  0  0  0  0  2  0  0  0  0  0  0
  -25.9970  -29.4450   20.7580 C   0  0  0  0  0  0  0  0  0  0  0  0
  -27.1970  -28.6880   20.7390 C   0  0  0  0  0  3  0  0  0  0  0  0
  -26.0470  -26.8950   19.5780 C   0  0  0  0  0  3  0  0  0  0  0  0
  -24.8590  -27.6540   19.5820 C   0  0  0  0  0  3  0  0  0  0  0  0
  -23.5880  -29.7870   20.2310 C   0  0  0  0  0  2  0  0  0  0  0  0
  -24.6520  -31.0690   22.1440 N   0  0  0  0  0  0  0  0  0  0  0  0
  -23.5180  -32.1470   23.7880 O   0  0  0  0  0  0  0  0  0  0  0  0
  -22.7340  -29.4540   22.5760 C   0  0  0  0  0  0  0  0  0  0  0  0
  -21.4080  -29.2740   22.4510 N   0  0  0  0  0  0  0  0  0  0  0  0
  -23.4160  -28.8330   23.3940 O   0  0  0  0  0  0  0  0  0  0  0  0
  -20.9190  -29.8190   21.7550 H   0  0  0  0  0  0  0  0  0  0  0  0
  -18.0360  -28.0760   22.9580 C   0  0  0  0  0  0  0  0  0  0  0  0
  -20.5930  -28.3390   23.2280 C   0  0  0  0  0  3  0  0  0  0  0  0
  -20.6980  -26.9060   22.6560 C   0  0  0  0  0  2  0  0  0  0  0  0
  -19.5950  -26.5770   21.6460 C   0  0  0  0  0  2  0  0  0  0  0  0
  -18.2140  -26.7230   22.2880 C   0  0  0  0  0  2  0  0  0  0  0  0
  -19.1530  -28.8410   23.3850 C   0  0  0  0  0  0  0  0  0  0  0  0
  -18.9330  -30.1060   23.9720 C   0  0  0  0  0  3  0  0  0  0  0  0
  -17.6260  -30.6060   24.1370 C   0  0  0  0  0  3  0  0  0  0  0  0
  -16.5240  -29.8380   23.7250 C   0  0  0  0  0  3  0  0  0  0  0  0
  -16.7280  -28.5740   23.1410 C   0  0  0  0  0  3  0  0  0  0  0  0
  -25.8860  -32.5030   23.8620 C   0  0  0  0  0  3  0  0  0  0  0  0
  -25.5830  -33.9020   24.1920 N   0  0  0  0  0  0  0  0  0  0  0  0
  -25.9140  -34.9520   23.4290 C   0  0  0  0  0  0  0  0  0  0  0  0
  -26.5820  -34.8460   22.3960 O   0  0  0  0  0  0  0  0  0  0  0  0
  -24.9890  -34.0600   24.9930 H   0  0  0  0  0  0  0  0  0  0  0  0
  -24.1920  -36.7480   23.0730 C   0  0  0  0  0  1  0  0  0  0  0  0
  -25.4320  -36.3430   23.8850 C   0  0  0  0  0  3  0  0  0  0  0  0
  -27.5720  -37.2200   24.7110 C   0  0  0  0  0  1  0  0  0  0  0  0
  -26.4680  -37.3920   23.7680 N   0  0  0  0  0  0  0  0  0  0  0  0
  -26.0680  -38.3150   23.9180 H   0  0  0  0  0  0  0  0  0  0  0  0
  -26.4090  -31.7310   25.1340 C   0  0  1  0  0  0  0  0  0  0  0  0
  -25.3220  -31.4930   26.2090 C   0  0  0  0  0  1  0  0  0  0  0  0
  -26.9850  -30.3520   24.7370 C   0  0  0  0  0  1  0  0  0  0  0  0
  -27.5680  -32.5210   25.7860 C   0  0  0  0  0  1  0  0  0  0  0  0
  -29.6970  -19.1630   20.4000 C   0  0  0  0  0  2  0  0  0  0  0  0
  -30.7500  -18.0210   20.6880 C   0  0  0  0  0  2  0  0  0  0  0  0
  -30.3730  -16.8420   21.6510 C   0  0  0  0  0  2  0  0  0  0  0  0
  -30.6610  -14.5590   20.5010 C   0  0  0  0  0  0  0  0  0  0  0  0
  -30.3930  -12.4080   19.2820 C   0  0  0  0  0  2  0  0  0  0  0  0
  -29.4300  -12.5770   18.0870 C   0  0  0  0  0  2  0  0  0  0  0  0
  -27.9590  -12.4340   18.5260 C   0  0  0  0  0  2  0  0  0  0  0  0
  -27.6240  -13.2540   19.8020 C   0  0  0  0  0  3  0  0  0  0  0  0
  -28.6920  -13.0330   20.8950 C   0  0  0  0  0  2  0  0  0  0  0  0
  -29.9990  -13.3800   20.3150 N   0  0  0  0  0  0  0  0  0  0  0  0
  -31.8070  -14.7510   20.0870 O   0  0  0  0  0  0  0  0  0  0  0  0
  -29.9310  -15.5520   21.0640 N   0  0  0  0  0  0  0  0  0  0  0  0
  -28.9770  -15.2930   21.2720 H   0  0  0  0  0  0  0  0  0  0  0  0
  -25.2250  -13.8560   20.5150 C   0  0  0  0  0  0  0  0  0  0  0  0
  -24.1580  -13.0810   20.8890 C   0  0  0  0  0  0  0  0  0  0  0  0
  -24.6240  -11.7310   20.8600 C   0  0  0  0  0  0  0  0  0  0  0  0
  -26.2740  -12.9770   20.2860 N   0  0  0  0  0  0  0  0  0  0  0  0
  -25.9140  -11.6950   20.5520 N   0  0  0  0  0  0  0  0  0  0  0  0
  -23.8990  -10.4660   21.0520 C   0  0  0  0  0  0  0  0  0  0  0  0
  -24.3410   -9.4990   21.9800 C   0  0  0  0  0  3  0  0  0  0  0  0
  -23.6210   -8.2990   22.1610 C   0  0  0  0  0  3  0  0  0  0  0  0
  -22.4420   -8.0580   21.4160 C   0  0  0  0  0  0  0  0  0  0  0  0
  -22.0190   -9.0160   20.4770 C   0  0  0  0  0  3  0  0  0  0  0  0
  -22.7410  -10.2080   20.2940 C   0  0  0  0  0  3  0  0  0  0  0  0
  -21.6920   -6.9090   21.5050 O   0  0  0  0  0  0  0  0  0  0  0  0
  -21.6600   -6.1580   22.6520 C   0  0  0  0  0  0  0  0  0  0  0  0
  -21.2550   -6.7060   23.8890 C   0  0  0  0  0  3  0  0  0  0  0  0
  -21.1710   -5.8830   25.0300 C   0  0  0  0  0  3  0  0  0  0  0  0
  -21.4800   -4.5130   24.9340 C   0  0  0  0  0  0  0  0  0  0  0  0
  -21.8780   -3.9640   23.7010 C   0  0  0  0  0  3  0  0  0  0  0  0
  -21.9650   -4.7850   22.5630 C   0  0  0  0  0  0  0  0  0  0  0  0
  -22.3280   -4.2480   21.3720 F   0  0  0  0  0  0  0  0  0  0  0  0
  -21.3910   -3.7190   26.0260 F   0  0  0  0  0  0  0  0  0  0  0  0
  -22.7590  -13.5560   21.1570 C   0  0  0  0  0  0  0  0  0  0  0  0
  -22.0320  -12.8610   22.0250 N   0  0  0  0  0  0  0  0  0  0  0  0
  -22.3190  -14.5790   20.6340 O   0  0  0  0  0  0  0  0  0  0  0  0
  -22.3960  -12.0330   22.4700 H   0  0  0  0  0  0  0  0  0  0  0  0
  -21.0920  -13.1650   22.2420 H   0  0  0  0  0  0  0  0  0  0  0  0
  -25.3880  -15.2260   20.3290 N   0  0  0  0  0  0  0  0  0  0  0  0
  -24.6260  -15.8840   20.4370 H   0  0  0  0  0  0  0  0  0  0  0  0
  -26.2350  -15.6580   19.9820 H   0  0  0  0  0  0  0  0  0  0  0  0
  1  3  1  0
  3  2  2  0
  3 11  1  0
  4  6  1  0
  4  1  2  0
  5 54  1  0
  5  2  1  0
  6  5  2  0
  7  8  1  0
  8  6  1  0
 10  4  1  0
 10  9  1  0
 12 13  1  0
 12 11  1  0
 14 25  2  0
 15 13  1  0
 15 20  1  0
 16 24  1  0
 16 26  1  0
 17 23  1  0
 17 19  1  0
 18 24  1  0
 19 18  1  0
 20 19  2  0
 21 22  1  0
 21 15  2  0
 22 17  2  0
 23 16  1  0
 24 14  1  0
 26 28  2  0
 27 26  1  0
 29 27  1  0
 30 39  2  0
 30 35  1  0
 31 27  1  0
 31 35  1  0
 32 31  1  0
 33 34  1  0
 33 32  1  0
 34 30  1  0
 35 36  2  0
 36 37  1  0
 38 37  2  0
 39 38  1  0
 40 14  1  0
 40 41  1  0
 40 50  1  0
 41 44  1  0
 42 46  1  0
 42 41  1  0
 43 42  2  0
 46 45  1  0
 48 46  1  0
 48 49  1  0
 48 47  1  0
 50 53  1  1
 50 51  1  0
 52 50  1  0
 54 55  1  0
 55 56  1  0
 57 65  1  0
 58 63  1  0
 59 60  1  0
 59 58  1  0
 61 60  1  0
 61 70  1  0
 61 62  1  0
 63 57  1  0
 63 62  1  0
 64 57  2  0
 65 66  1  0
 65 56  1  0
 67 68  2  0
 68 87  1  0
 69 68  1  0
 69 72  1  0
 70 67  1  0
 70 71  1  0
 71 69  2  0
 72 73  1  0
 73 74  2  0
 75 78  1  0
 75 74  1  0
 76 75  2  0
 77 76  1  0
 77 72  2  0
 78 79  1  0
 79 80  1  0
 80 81  2  0
 82 81  1  0
 82 86  1  0
 83 82  2  0
 84 79  2  0
 84 83  1  0
 85 84  1  0
 87 88  1  0
 88 91  1  0
 88 90  1  0
 89 87  2  0
 92 93  1  0
 92 67  1  0
 94 92  1  0
M  ISO  4  12 101  13 101  57 100  65 100
M  END
>  <TORSDO>  (80) 
F 23

>  <SCORE>  (80) 
-12.928

>  <name>  (80) 
80

>  <ligand_id>  (80) 
80

>  <original_smiles>  (80) 
[H]c1c([H])c([H])c2c(c1[H])C([H])([H])C([H])([H])C([H])([H])C2([H])N([H])C(=O)C1([H])N(C(=O)C([H])(N([H])C(=O)C([H])(N([H])C([H])([H])[H])C([H])([H])[H])C(C([H])([H])[H])(C([H])([H])[H])C([H])([H])[H])C([H])([H])c2c([H])c(OC([H])([H])C([H])([H])c3c([H])c(C([H])([H])C([H])([H])[H])c(C([H])([H])C([H])([H])[H])c(C([H])([H])C([H])([H])C([H])([H])N([H])C(=O)N4C([H])([H])C([H])([H])C([H])([H])C([H])(n5nc(-c6c([H])c([H])c(Oc7c([H])c([H])c(F)c([H])c7F)c([H])c6[H])c(C(=O)N([H])[H])c5N([H])[H])C4([H])[H])c3[H])c([H])c([H])c2C1([H])[H]

>  <smiles>  (80) 
[H]c1c([H])c([H])c2c(c1[H])C([H])([H])C([H])([H])C([H])([H])C2([H])N([H])C(=O)C1([H])N(C(=O)C([H])(N([H])C(=O)C([H])(N([H])C([H])([H])[H])C([H])([H])[H])C(C([H])([H])[H])(C([H])([H])[H])C([H])([H])[H])C([H])([H])c2c([H])c(OC([H])([H])C([H])([H])c3c([H])c(C([H])([H])C([H])([H])[H])c(C([H])([H])C([H])([H])[H])c(C([H])([H])C([H])([H])C([H])([H])N([H])C(=O)N4C([H])([H])C([H])([H])C([H])([H])C([H])(n5nc(-c6c([H])c([H])c(Oc7c([H])c([H])c(F)c([H])c7F)c([H])c6[H])c(C(=O)N([H])[H])c5N([H])[H])C4([H])[H])c3[H])c([H])c([H])c2C1([H])[H]

$$$$
81:0:0
     RDKit          3D

 91 99  0  0  1  0  0  0  0  0999 V2000
  -29.7670  -20.2820   21.7530 C   0  0  0  0  0  3  0  0  0  0  0  0
  -29.3220  -19.5100   20.6670 C   0  0  0  0  0  0  0  0  0  0  0  0
  -28.9970  -20.2330   19.4990 C   0  0  0  0  0  0  0  0  0  0  0  0
  -29.6010  -22.2020   20.5210 C   0  0  0  0  0  0  0  0  0  0  0  0
  -29.9050  -21.6200   21.6760 N   0  0  0  0  0  0  0  0  0  0  0  0
  -29.1350  -21.5760   19.4460 N   0  0  0  0  0  0  0  0  0  0  0  0
  -26.8900  -19.3860   18.3600 C   0  0  0  0  0  1  0  0  0  0  0  0
  -28.4100  -19.5830   18.2570 C   0  0  0  0  0  2  0  0  0  0  0  0
  -29.1340  -17.9980   20.8230 C   0  0  0  0  0  2  0  0  0  0  0  0
  -30.4030  -17.1430   20.5760 C   0  0  0  0  0  2  0  0  0  0  0  0
  -30.2730  -15.7060   21.1600 C   0  0  0  0  0  2  0  0  0  0  0  0
  -30.9440  -14.5710   20.3350 C   0  0  0  0  0  0  0  0  0  0  0  0
  -30.6860  -12.4280   19.1170 C   0  0  0  0  0  2  0  0  0  0  0  0
  -29.7280  -12.6470   17.9260 C   0  0  0  0  0  2  0  0  0  0  0  0
  -28.2510  -12.5210   18.3530 C   0  0  0  0  0  2  0  0  0  0  0  0
  -27.9330  -13.3240   19.6410 C   0  0  0  0  0  3  0  0  0  0  0  0
  -28.9870  -13.0320   20.7300 C   0  0  0  0  0  2  0  0  0  0  0  0
  -30.3040  -13.3780   20.1740 N   0  0  0  0  0  0  0  0  0  0  0  0
  -32.0280  -14.8060   19.7870 O   0  0  0  0  0  0  0  0  0  0  0  0
  -25.5420  -13.9680   20.3430 C   0  0  0  0  0  0  0  0  0  0  0  0
  -24.4640  -13.2090   20.7210 C   0  0  0  0  0  0  0  0  0  0  0  0
  -24.9070  -11.8520   20.6960 C   0  0  0  0  0  0  0  0  0  0  0  0
  -26.5750  -13.0700   20.1160 N   0  0  0  0  0  0  0  0  0  0  0  0
  -26.1950  -11.7930   20.3780 N   0  0  0  0  0  0  0  0  0  0  0  0
  -24.1650  -10.6020   20.9000 C   0  0  0  0  0  0  0  0  0  0  0  0
  -24.5560   -9.6640   21.8800 C   0  0  0  0  0  3  0  0  0  0  0  0
  -23.8180   -8.4760   22.0680 C   0  0  0  0  0  3  0  0  0  0  0  0
  -22.6770   -8.2180   21.2730 C   0  0  0  0  0  0  0  0  0  0  0  0
  -22.3070   -9.1430   20.2810 C   0  0  0  0  0  3  0  0  0  0  0  0
  -23.0450  -10.3230   20.0930 C   0  0  0  0  0  3  0  0  0  0  0  0
  -21.9100   -7.0800   21.3690 O   0  0  0  0  0  0  0  0  0  0  0  0
  -21.7600   -6.4110   22.5560 C   0  0  0  0  0  0  0  0  0  0  0  0
  -21.2110   -7.0340   23.6990 C   0  0  0  0  0  3  0  0  0  0  0  0
  -21.0100   -6.2910   24.8780 C   0  0  0  0  0  3  0  0  0  0  0  0
  -21.3480   -4.9240   24.9160 C   0  0  0  0  0  0  0  0  0  0  0  0
  -21.8880   -4.3000   23.7780 C   0  0  0  0  0  3  0  0  0  0  0  0
  -22.0920   -5.0410   22.6010 C   0  0  0  0  0  0  0  0  0  0  0  0
  -22.5930   -4.4300   21.5000 F   0  0  0  0  0  0  0  0  0  0  0  0
  -21.1450   -4.2080   26.0460 F   0  0  0  0  0  0  0  0  0  0  0  0
  -23.0750  -13.7070   20.9980 C   0  0  0  0  0  0  0  0  0  0  0  0
  -22.3440  -13.0270   21.8760 N   0  0  0  0  0  0  0  0  0  0  0  0
  -22.6460  -14.7330   20.4730 O   0  0  0  0  0  0  0  0  0  0  0  0
  -22.7060  -12.1970   22.3220 H   0  0  0  0  0  0  0  0  0  0  0  0
  -21.4100  -13.3400   22.1010 H   0  0  0  0  0  0  0  0  0  0  0  0
  -25.7290  -15.3340   20.1590 N   0  0  0  0  0  0  0  0  0  0  0  0
  -24.9790  -16.0090   20.2590 H   0  0  0  0  0  0  0  0  0  0  0  0
  -26.5920  -15.7420   19.8240 H   0  0  0  0  0  0  0  0  0  0  0  0
  -29.7320  -23.7230   20.4570 C   0  0  0  0  0  2  0  0  0  0  0  0
  -28.5190  -24.4600   21.0650 C   0  0  0  0  0  2  0  0  0  0  0  0
  -28.7530  -25.9600   21.3530 C   0  0  0  0  0  2  0  0  0  0  0  0
  -28.6080  -26.7880   20.1920 O   0  0  0  0  0  0  0  0  0  0  0  0
  -24.6970  -31.8980   23.2430 C   0  0  0  0  0  0  0  0  0  0  0  0
  -27.4460  -27.5230   20.1820 C   0  0  0  0  0  0  0  0  0  0  0  0
  -23.5310  -30.4810   21.5830 C   0  0  0  0  0  3  0  0  0  0  0  0
  -25.0250  -28.9730   20.1640 C   0  0  0  0  0  0  0  0  0  0  0  0
  -26.0490  -30.8850   21.4140 C   0  0  0  0  0  2  0  0  0  0  0  0
  -26.1640  -29.5170   20.7740 C   0  0  0  0  0  0  0  0  0  0  0  0
  -27.3780  -28.7950   20.7910 C   0  0  0  0  0  3  0  0  0  0  0  0
  -26.3000  -26.9920   19.5590 C   0  0  0  0  0  3  0  0  0  0  0  0
  -25.0880  -27.7070   19.5510 C   0  0  0  0  0  3  0  0  0  0  0  0
  -23.7620  -29.8040   20.2050 C   0  0  0  0  0  2  0  0  0  0  0  0
  -24.7750  -31.1060   22.1390 N   0  0  0  0  0  0  0  0  0  0  0  0
  -23.6060  -32.1530   23.7720 O   0  0  0  0  0  0  0  0  0  0  0  0
  -22.8910  -29.4450   22.5360 C   0  0  0  0  0  0  0  0  0  0  0  0
  -21.5680  -29.2510   22.4080 N   0  0  0  0  0  0  0  0  0  0  0  0
  -23.5790  -28.8210   23.3490 O   0  0  0  0  0  0  0  0  0  0  0  0
  -21.0730  -29.8040   21.7210 H   0  0  0  0  0  0  0  0  0  0  0  0
  -18.2000  -28.0460   22.9150 C   0  0  0  0  0  0  0  0  0  0  0  0
  -20.7600  -28.2980   23.1670 C   0  0  0  0  0  3  0  0  0  0  0  0
  -20.8590  -26.8800   22.5600 C   0  0  0  0  0  2  0  0  0  0  0  0
  -19.7470  -26.5790   21.5510 C   0  0  0  0  0  2  0  0  0  0  0  0
  -18.3700  -26.7110   22.2100 C   0  0  0  0  0  2  0  0  0  0  0  0
  -19.3220  -28.8000   23.3480 C   0  0  0  0  0  0  0  0  0  0  0  0
  -19.1090  -30.0530   23.9640 C   0  0  0  0  0  3  0  0  0  0  0  0
  -17.8060  -30.5510   24.1510 C   0  0  0  0  0  3  0  0  0  0  0  0
  -16.6980  -29.7930   23.7320 C   0  0  0  0  0  3  0  0  0  0  0  0
  -16.8970  -28.5420   23.1220 C   0  0  0  0  0  3  0  0  0  0  0  0
  -25.9670  -32.5480   23.8780 C   0  0  0  0  0  3  0  0  0  0  0  0
  -25.6340  -33.9420   24.2070 N   0  0  0  0  0  0  0  0  0  0  0  0
  -25.9500  -34.9990   23.4460 C   0  0  0  0  0  0  0  0  0  0  0  0
  -26.6280  -34.9070   22.4190 O   0  0  0  0  0  0  0  0  0  0  0  0
  -25.0370  -34.0860   25.0080 H   0  0  0  0  0  0  0  0  0  0  0  0
  -24.1920  -36.7580   23.0780 C   0  0  0  0  0  1  0  0  0  0  0  0
  -25.4360  -36.3790   23.8990 C   0  0  0  0  0  3  0  0  0  0  0  0
  -27.5480  -37.3060   24.7420 C   0  0  0  0  0  1  0  0  0  0  0  0
  -26.4510  -37.4500   23.7870 N   0  0  0  0  0  0  0  0  0  0  0  0
  -26.0270  -38.3640   23.9230 H   0  0  0  0  0  0  0  0  0  0  0  0
  -26.4840  -31.7820   25.1570 C   0  0  1  0  0  0  0  0  0  0  0  0
  -25.3850  -31.5190   26.2110 C   0  0  0  0  0  1  0  0  0  0  0  0
  -27.0980  -30.4180   24.7670 C   0  0  0  0  0  1  0  0  0  0  0  0
  -27.6120  -32.5950   25.8370 C   0  0  0  0  0  1  0  0  0  0  0  0
  2  9  1  0
  2  1  2  0
  3  2  1  0
  4  5  2  0
  5  1  1  0
  6  3  2  0
  6  4  1  0
  8  7  1  0
  8  3  1  0
 10  9  1  0
 10 11  1  0
 12 11  1  0
 13 18  1  0
 14 15  1  0
 14 13  1  0
 16 15  1  0
 16 23  1  0
 16 17  1  0
 18 12  1  0
 18 17  1  0
 19 12  2  0
 20 21  2  0
 21 40  1  0
 22 21  1  0
 22 25  1  0
 23 20  1  0
 23 24  1  0
 24 22  2  0
 25 26  1  0
 26 27  2  0
 28 31  1  0
 28 27  1  0
 29 28  2  0
 30 29  1  0
 30 25  2  0
 31 32  1  0
 32 37  2  0
 32 33  1  0
 33 34  2  0
 34 35  1  0
 35 39  1  0
 36 35  2  0
 37 36  1  0
 38 37  1  0
 40 41  1  0
 41 44  1  0
 41 43  1  0
 42 40  2  0
 45 46  1  0
 45 20  1  0
 47 45  1  0
 48  4  1  0
 48 49  1  0
 49 50  1  0
 51 50  1  0
 52 63  2  0
 53 51  1  0
 53 58  1  0
 54 62  1  0
 54 64  1  0
 55 61  1  0
 55 57  1  0
 56 62  1  0
 57 58  2  0
 57 56  1  0
 59 53  2  0
 60 59  1  0
 60 55  2  0
 61 54  1  0
 62 52  1  0
 64 66  2  0
 65 64  1  0
 67 65  1  0
 68 77  2  0
 68 73  1  0
 69 65  1  0
 69 73  1  0
 70 69  1  0
 71 72  1  0
 71 70  1  0
 72 68  1  0
 73 74  2  0
 74 75  1  0
 76 75  2  0
 77 76  1  0
 78 52  1  0
 78 79  1  0
 78 88  1  0
 79 82  1  0
 80 84  1  0
 80 79  1  0
 81 80  2  0
 84 83  1  0
 86 84  1  0
 86 87  1  0
 86 85  1  0
 88 91  1  1
 88 89  1  0
 90 88  1  0
M  ISO  4  11 100  12 100  50 101  51 101
M  END
>  <TORSDO>  (81) 
F 23

>  <SCORE>  (81) 
-12.522

>  <name>  (81) 
81

>  <ligand_id>  (81) 
81

>  <original_smiles>  (81) 
[H]c1nc(C([H])([H])C([H])([H])C([H])([H])Oc2c([H])c([H])c3c(c2[H])C([H])([H])N(C(=O)C([H])(N([H])C(=O)C([H])(N([H])C([H])([H])[H])C([H])([H])[H])C(C([H])([H])[H])(C([H])([H])[H])C([H])([H])[H])C([H])(C(=O)N([H])C2([H])c4c([H])c([H])c([H])c([H])c4C([H])([H])C([H])([H])C2([H])[H])C3([H])[H])nc(C([H])([H])C([H])([H])[H])c1C([H])([H])C([H])([H])C([H])([H])C(=O)N1C([H])([H])C([H])([H])C([H])([H])C([H])(n2nc(-c3c([H])c([H])c(Oc4c([H])c([H])c(F)c([H])c4F)c([H])c3[H])c(C(=O)N([H])[H])c2N([H])[H])C1([H])[H]

>  <smiles>  (81) 
[H]c1nc(C([H])([H])C([H])([H])C([H])([H])Oc2c([H])c([H])c3c(c2[H])C([H])([H])N(C(=O)C([H])(N([H])C(=O)C([H])(N([H])C([H])([H])[H])C([H])([H])[H])C(C([H])([H])[H])(C([H])([H])[H])C([H])([H])[H])C([H])(C(=O)N([H])C2([H])c4c([H])c([H])c([H])c([H])c4C([H])([H])C([H])([H])C2([H])[H])C3([H])[H])nc(C([H])([H])C([H])([H])[H])c1C([H])([H])C([H])([H])C([H])([H])C(=O)N1C([H])([H])C([H])([H])C([H])([H])C([H])(n2nc(-c3c([H])c([H])c(Oc4c([H])c([H])c(F)c([H])c4F)c([H])c3[H])c(C(=O)N([H])[H])c2N([H])[H])C1([H])[H]

$$$$
82:0:0
     RDKit          3D

 91 99  0  0  1  0  0  0  0  0999 V2000
  -30.6830  -20.6800   20.7020 C   0  0  0  0  0  0  0  0  0  0  0  0
  -30.7400  -21.9130   21.3120 C   0  0  0  0  0  0  0  0  0  0  0  0
  -29.8660  -22.1190   19.3120 C   0  0  0  0  0  0  0  0  0  0  0  0
  -31.2730  -22.2660   22.6670 C   0  0  0  0  0  1  0  0  0  0  0  0
  -29.2350  -22.7290   18.1000 C   0  0  0  0  0  1  0  0  0  0  0  0
  -30.1340  -20.8230   19.4300 N   0  0  0  0  0  0  0  0  0  0  0  0
  -30.2390  -22.8370   20.3910 N   0  0  0  0  0  0  0  0  0  0  0  0
  -31.2350  -19.3660   21.1770 C   0  0  0  0  0  2  0  0  0  0  0  0
  -30.2150  -18.2100   21.2460 C   0  0  0  0  0  2  0  0  0  0  0  0
  -30.9400  -16.8540   21.1390 C   0  0  0  0  0  2  0  0  0  0  0  0
  -30.0440  -15.5860   21.1670 C   0  0  0  0  0  2  0  0  0  0  0  0
  -30.6510  -14.3970   20.3870 C   0  0  0  0  0  0  0  0  0  0  0  0
  -30.2770  -12.2910   19.1600 C   0  0  0  0  0  2  0  0  0  0  0  0
  -29.3240  -12.5550   17.9790 C   0  0  0  0  0  2  0  0  0  0  0  0
  -27.8560  -12.4230   18.4290 C   0  0  0  0  0  2  0  0  0  0  0  0
  -27.5500  -13.2230   19.7240 C   0  0  0  0  0  3  0  0  0  0  0  0
  -28.6240  -12.9700   20.8050 C   0  0  0  0  0  2  0  0  0  0  0  0
  -29.9430  -13.2510   20.2220 N   0  0  0  0  0  0  0  0  0  0  0  0
  -31.7480  -14.5580   19.8440 O   0  0  0  0  0  0  0  0  0  0  0  0
  -25.1560  -13.8090   20.4640 C   0  0  0  0  0  0  0  0  0  0  0  0
  -24.1000  -13.0280   20.8490 C   0  0  0  0  0  0  0  0  0  0  0  0
  -24.5710  -11.6800   20.8090 C   0  0  0  0  0  0  0  0  0  0  0  0
  -26.2050  -12.9370   20.2210 N   0  0  0  0  0  0  0  0  0  0  0  0
  -25.8580  -11.6510   20.4840 N   0  0  0  0  0  0  0  0  0  0  0  0
  -23.8570  -10.4120   21.0100 C   0  0  0  0  0  0  0  0  0  0  0  0
  -24.3110   -9.4490   21.9380 C   0  0  0  0  0  3  0  0  0  0  0  0
  -23.5980   -8.2450   22.1240 C   0  0  0  0  0  3  0  0  0  0  0  0
  -22.4160   -7.9960   21.3860 C   0  0  0  0  0  0  0  0  0  0  0  0
  -21.9830   -8.9480   20.4470 C   0  0  0  0  0  3  0  0  0  0  0  0
  -22.6960  -10.1430   20.2580 C   0  0  0  0  0  3  0  0  0  0  0  0
  -21.6730   -6.8460   21.4850 O   0  0  0  0  0  0  0  0  0  0  0  0
  -21.6490   -6.1000   22.6360 C   0  0  0  0  0  0  0  0  0  0  0  0
  -21.2430   -6.6480   23.8730 C   0  0  0  0  0  3  0  0  0  0  0  0
  -21.1690   -5.8290   25.0160 C   0  0  0  0  0  3  0  0  0  0  0  0
  -21.4870   -4.4610   24.9250 C   0  0  0  0  0  0  0  0  0  0  0  0
  -21.8830   -3.9120   23.6930 C   0  0  0  0  0  3  0  0  0  0  0  0
  -21.9610   -4.7280   22.5520 C   0  0  0  0  0  0  0  0  0  0  0  0
  -22.3250   -4.1890   21.3630 F   0  0  0  0  0  0  0  0  0  0  0  0
  -21.4060   -3.6710   26.0210 F   0  0  0  0  0  0  0  0  0  0  0  0
  -22.7030  -13.4920   21.1440 C   0  0  0  0  0  0  0  0  0  0  0  0
  -21.9940  -12.7900   22.0210 N   0  0  0  0  0  0  0  0  0  0  0  0
  -22.2470  -14.5140   20.6300 O   0  0  0  0  0  0  0  0  0  0  0  0
  -22.3740  -11.9630   22.4600 H   0  0  0  0  0  0  0  0  0  0  0  0
  -21.0570  -13.0820   22.2580 H   0  0  0  0  0  0  0  0  0  0  0  0
  -25.3090  -15.1810   20.2830 N   0  0  0  0  0  0  0  0  0  0  0  0
  -24.5460  -15.8360   20.4030 H   0  0  0  0  0  0  0  0  0  0  0  0
  -26.1610  -15.6230   19.9590 H   0  0  0  0  0  0  0  0  0  0  0  0
  -30.1620  -24.2840   20.5500 C   0  0  0  0  0  2  0  0  0  0  0  0
  -28.9420  -24.7210   21.3760 C   0  0  0  0  0  2  0  0  0  0  0  0
  -28.7900  -26.2480   21.4330 C   0  0  0  0  0  2  0  0  0  0  0  0
  -28.3540  -26.7020   20.1540 O   0  0  0  0  0  0  0  0  0  0  0  0
  -24.5550  -31.8750   23.2360 C   0  0  0  0  0  0  0  0  0  0  0  0
  -27.2040  -27.4430   20.1810 C   0  0  0  0  0  0  0  0  0  0  0  0
  -23.3500  -30.4710   21.5910 C   0  0  0  0  0  3  0  0  0  0  0  0
  -24.8070  -28.9240   20.1790 C   0  0  0  0  0  0  0  0  0  0  0  0
  -25.8720  -30.8300   21.4010 C   0  0  0  0  0  2  0  0  0  0  0  0
  -25.9590  -29.4560   20.7750 C   0  0  0  0  0  0  0  0  0  0  0  0
  -27.1600  -28.7190   20.7820 C   0  0  0  0  0  3  0  0  0  0  0  0
  -26.0450  -26.9190   19.5780 C   0  0  0  0  0  3  0  0  0  0  0  0
  -24.8420  -27.6510   19.5810 C   0  0  0  0  0  3  0  0  0  0  0  0
  -23.5610  -29.7800   20.2170 C   0  0  0  0  0  2  0  0  0  0  0  0
  -24.6110  -31.0720   22.1350 N   0  0  0  0  0  0  0  0  0  0  0  0
  -23.4740  -32.1550   23.7720 O   0  0  0  0  0  0  0  0  0  0  0  0
  -22.6910  -29.4560   22.5520 C   0  0  0  0  0  0  0  0  0  0  0  0
  -21.3650  -29.2880   22.4260 N   0  0  0  0  0  0  0  0  0  0  0  0
  -23.3700  -28.8230   23.3650 O   0  0  0  0  0  0  0  0  0  0  0  0
  -20.8820  -29.8490   21.7390 H   0  0  0  0  0  0  0  0  0  0  0  0
  -17.9770  -28.1500   22.9370 C   0  0  0  0  0  0  0  0  0  0  0  0
  -20.5390  -28.3600   23.1960 C   0  0  0  0  0  3  0  0  0  0  0  0
  -20.6140  -26.9310   22.6100 C   0  0  0  0  0  2  0  0  0  0  0  0
  -19.5010  -26.6340   21.6010 C   0  0  0  0  0  2  0  0  0  0  0  0
  -18.1250  -26.8020   22.2520 C   0  0  0  0  0  2  0  0  0  0  0  0
  -19.1120  -28.8880   23.3650 C   0  0  0  0  0  0  0  0  0  0  0  0
  -18.9200  -30.1530   23.9630 C   0  0  0  0  0  3  0  0  0  0  0  0
  -17.6250  -30.6790   24.1380 C   0  0  0  0  0  3  0  0  0  0  0  0
  -16.5050  -29.9360   23.7260 C   0  0  0  0  0  3  0  0  0  0  0  0
  -16.6820  -28.6730   23.1320 C   0  0  0  0  0  3  0  0  0  0  0  0
  -25.8430  -32.5000   23.8580 C   0  0  0  0  0  3  0  0  0  0  0  0
  -25.5420  -33.8990   24.1840 N   0  0  0  0  0  0  0  0  0  0  0  0
  -25.8890  -34.9480   23.4240 C   0  0  0  0  0  0  0  0  0  0  0  0
  -26.5690  -34.8380   22.4000 O   0  0  0  0  0  0  0  0  0  0  0  0
  -24.9380  -34.0600   24.9770 H   0  0  0  0  0  0  0  0  0  0  0  0
  -24.1780  -36.7500   23.0410 C   0  0  0  0  0  1  0  0  0  0  0  0
  -25.4050  -36.3390   23.8720 C   0  0  0  0  0  3  0  0  0  0  0  0
  -27.5330  -37.2080   24.7320 C   0  0  0  0  0  1  0  0  0  0  0  0
  -26.4460  -37.3850   23.7730 N   0  0  0  0  0  0  0  0  0  0  0  0
  -26.0450  -38.3080   23.9170 H   0  0  0  0  0  0  0  0  0  0  0  0
  -26.3570  -31.7260   25.1330 C   0  0  1  0  0  0  0  0  0  0  0  0
  -25.2620  -31.4920   26.1990 C   0  0  0  0  0  1  0  0  0  0  0  0
  -26.9350  -30.3470   24.7370 C   0  0  0  0  0  1  0  0  0  0  0  0
  -27.5120  -32.5150   25.7960 C   0  0  0  0  0  1  0  0  0  0  0  0
  1  8  1  0
  1  2  2  0
  2  4  1  0
  3  6  2  0
  3  7  1  0
  5  3  1  0
  6  1  1  0
  7 48  1  0
  7  2  1  0
  8  9  1  0
 10 11  1  0
 10  9  1  0
 12 11  1  0
 13 18  1  0
 14 15  1  0
 14 13  1  0
 16 15  1  0
 16 23  1  0
 16 17  1  0
 18 12  1  0
 18 17  1  0
 19 12  2  0
 20 21  2  0
 21 40  1  0
 22 21  1  0
 22 25  1  0
 23 20  1  0
 23 24  1  0
 24 22  2  0
 25 26  1  0
 26 27  2  0
 28 31  1  0
 28 27  1  0
 29 28  2  0
 30 29  1  0
 30 25  2  0
 31 32  1  0
 32 33  1  0
 33 34  2  0
 35 34  1  0
 35 39  1  0
 36 35  2  0
 37 32  2  0
 37 36  1  0
 38 37  1  0
 40 41  1  0
 41 44  1  0
 41 43  1  0
 42 40  2  0
 45 46  1  0
 45 20  1  0
 47 45  1  0
 48 49  1  0
 49 50  1  0
 51 53  1  0
 51 50  1  0
 52 63  2  0
 53 58  1  0
 54 62  1  0
 54 64  1  0
 55 61  1  0
 55 57  1  0
 56 62  1  0
 57 58  2  0
 57 56  1  0
 59 60  1  0
 59 53  2  0
 60 55  2  0
 61 54  1  0
 62 52  1  0
 64 66  2  0
 65 64  1  0
 67 65  1  0
 68 77  2  0
 68 73  1  0
 69 65  1  0
 69 73  1  0
 70 69  1  0
 71 72  1  0
 71 70  1  0
 72 68  1  0
 73 74  2  0
 74 75  1  0
 76 75  2  0
 77 76  1  0
 78 52  1  0
 78 79  1  0
 78 88  1  0
 79 82  1  0
 80 84  1  0
 80 79  1  0
 81 80  2  0
 84 83  1  0
 86 84  1  0
 86 87  1  0
 86 85  1  0
 88 91  1  1
 88 89  1  0
 90 88  1  0
M  ISO  4  11 100  12 100  50 101  51 101
M  END
>  <TORSDO>  (82) 
F 23

>  <SCORE>  (82) 
-12.673

>  <name>  (82) 
82

>  <ligand_id>  (82) 
82

>  <original_smiles>  (82) 
[H]c1c([H])c([H])c2c(c1[H])C([H])([H])C([H])([H])C([H])([H])C2([H])N([H])C(=O)C1([H])N(C(=O)C([H])(N([H])C(=O)C([H])(N([H])C([H])([H])[H])C([H])([H])[H])C(C([H])([H])[H])(C([H])([H])[H])C([H])([H])[H])C([H])([H])c2c([H])c(OC([H])([H])C([H])([H])C([H])([H])n3c(C([H])([H])[H])nc(C([H])([H])C([H])([H])C([H])([H])C([H])([H])C(=O)N4C([H])([H])C([H])([H])C([H])([H])C([H])(n5nc(-c6c([H])c([H])c(Oc7c([H])c([H])c(F)c([H])c7F)c([H])c6[H])c(C(=O)N([H])[H])c5N([H])[H])C4([H])[H])c3C([H])([H])[H])c([H])c([H])c2C1([H])[H]

>  <smiles>  (82) 
[H]c1c([H])c([H])c2c(c1[H])C([H])([H])C([H])([H])C([H])([H])C2([H])N([H])C(=O)C1([H])N(C(=O)C([H])(N([H])C(=O)C([H])(N([H])C([H])([H])[H])C([H])([H])[H])C(C([H])([H])[H])(C([H])([H])[H])C([H])([H])[H])C([H])([H])c2c([H])c(OC([H])([H])C([H])([H])C([H])([H])n3c(C([H])([H])[H])nc(C([H])([H])C([H])([H])C([H])([H])C([H])([H])C(=O)N4C([H])([H])C([H])([H])C([H])([H])C([H])(n5nc(-c6c([H])c([H])c(Oc7c([H])c([H])c(F)c([H])c7F)c([H])c6[H])c(C(=O)N([H])[H])c5N([H])[H])C4([H])[H])c3C([H])([H])[H])c([H])c([H])c2C1([H])[H]

$$$$
83:0:0
     RDKit          3D

 95103  0  0  1  0  0  0  0  0999 V2000
  -30.9950  -21.8840   19.2800 C   0  0  0  0  0  3  0  0  0  0  0  0
  -31.0760  -23.5700   21.5250 C   0  0  0  0  0  3  0  0  0  0  0  0
  -31.7480  -23.0720   19.2250 C   0  0  0  0  0  0  0  0  0  0  0  0
  -30.2930  -21.5280   20.4470 C   0  0  0  0  0  0  0  0  0  0  0  0
  -31.7850  -23.9260   20.3550 C   0  0  0  0  0  0  0  0  0  0  0  0
  -30.3220  -22.3850   21.5730 C   0  0  0  0  0  0  0  0  0  0  0  0
  -32.4930  -23.3940   17.9420 C   0  0  0  0  0  1  0  0  0  0  0  0
  -29.4570  -22.0070   23.0220 Cl  0  0  0  0  0  0  0  0  0  0  0  0
  -29.5880  -20.1890   20.4880 C   0  0  0  0  0  2  0  0  0  0  0  0
  -30.5380  -19.1330   21.0640 C   0  0  0  0  0  2  0  0  0  0  0  0
  -30.1010  -17.7070   20.7680 C   0  0  0  0  0  2  0  0  0  0  0  0
  -30.8580  -16.7020   21.6460 C   0  0  0  0  0  2  0  0  0  0  0  0
  -30.9530  -14.5930   20.3370 C   0  0  0  0  0  0  0  0  0  0  0  0
  -30.6380  -12.4960   19.0740 C   0  0  0  0  0  2  0  0  0  0  0  0
  -29.6570  -12.6950   17.9020 C   0  0  0  0  0  2  0  0  0  0  0  0
  -28.1940  -12.5590   18.3660 C   0  0  0  0  0  2  0  0  0  0  0  0
  -27.8840  -13.3920   19.6370 C   0  0  0  0  0  3  0  0  0  0  0  0
  -28.9550  -13.1110   20.7120 C   0  0  0  0  0  2  0  0  0  0  0  0
  -30.2790  -13.4340   20.1440 N   0  0  0  0  0  0  0  0  0  0  0  0
  -31.9460  -14.9310   19.6840 O   0  0  0  0  0  0  0  0  0  0  0  0
  -30.4460  -15.3510   21.3170 N   0  0  0  0  0  0  0  0  0  0  0  0
  -29.6530  -14.9750   21.8120 H   0  0  0  0  0  0  0  0  0  0  0  0
  -25.5060  -14.0070   20.4230 C   0  0  0  0  0  0  0  0  0  0  0  0
  -24.4430  -13.2360   20.8070 C   0  0  0  0  0  0  0  0  0  0  0  0
  -24.8910  -11.8820   20.7300 C   0  0  0  0  0  0  0  0  0  0  0  0
  -26.5360  -13.1230   20.1430 N   0  0  0  0  0  0  0  0  0  0  0  0
  -26.1710  -11.8400   20.3800 N   0  0  0  0  0  0  0  0  0  0  0  0
  -24.1610  -10.6200   20.9200 C   0  0  0  0  0  0  0  0  0  0  0  0
  -24.5790   -9.6630   21.8700 C   0  0  0  0  0  3  0  0  0  0  0  0
  -23.8550   -8.4620   22.0450 C   0  0  0  0  0  3  0  0  0  0  0  0
  -22.6980   -8.2120   21.2690 C   0  0  0  0  0  0  0  0  0  0  0  0
  -22.2980   -9.1610   20.3130 C   0  0  0  0  0  3  0  0  0  0  0  0
  -23.0210  -10.3540   20.1370 C   0  0  0  0  0  3  0  0  0  0  0  0
  -21.9450   -7.0650   21.3560 O   0  0  0  0  0  0  0  0  0  0  0  0
  -21.8250   -6.3680   22.5310 C   0  0  0  0  0  0  0  0  0  0  0  0
  -21.2660   -6.9520   23.6900 C   0  0  0  0  0  3  0  0  0  0  0  0
  -21.0950   -6.1780   24.8550 C   0  0  0  0  0  3  0  0  0  0  0  0
  -21.4680   -4.8210   24.8620 C   0  0  0  0  0  0  0  0  0  0  0  0
  -22.0150   -4.2350   23.7060 C   0  0  0  0  0  3  0  0  0  0  0  0
  -22.1910   -5.0060   22.5450 C   0  0  0  0  0  0  0  0  0  0  0  0
  -22.6970   -4.4330   21.4270 F   0  0  0  0  0  0  0  0  0  0  0  0
  -21.2980   -4.0750   25.9780 F   0  0  0  0  0  0  0  0  0  0  0  0
  -23.0550  -13.7180   21.1240 C   0  0  0  0  0  0  0  0  0  0  0  0
  -22.3470  -13.0140   22.0030 N   0  0  0  0  0  0  0  0  0  0  0  0
  -22.6090  -14.7470   20.6250 O   0  0  0  0  0  0  0  0  0  0  0  0
  -22.7230  -12.1830   22.4350 H   0  0  0  0  0  0  0  0  0  0  0  0
  -21.4150  -13.3160   22.2490 H   0  0  0  0  0  0  0  0  0  0  0  0
  -25.6840  -15.3780   20.2630 N   0  0  0  0  0  0  0  0  0  0  0  0
  -24.9370  -16.0490   20.3940 H   0  0  0  0  0  0  0  0  0  0  0  0
  -26.5400  -15.7960   19.9220 H   0  0  0  0  0  0  0  0  0  0  0  0
  -32.5030  -25.2740   20.3360 C   0  0  0  0  0  2  0  0  0  0  0  0
  -31.7020  -26.4200   19.6710 C   0  0  0  0  0  2  0  0  0  0  0  0
  -30.1790  -26.2000   19.6990 C   0  0  0  0  0  2  0  0  0  0  0  0
  -29.3090  -27.4450   19.5640 C   0  0  0  0  0  2  0  0  0  0  0  0
  -28.0240  -26.9100   19.2780 O   0  0  0  0  0  0  0  0  0  0  0  0
  -24.4530  -31.7630   23.1070 C   0  0  0  0  0  0  0  0  0  0  0  0
  -26.8970  -27.6620   19.4940 C   0  0  0  0  0  0  0  0  0  0  0  0
  -23.1260  -30.4830   21.4490 C   0  0  0  0  0  3  0  0  0  0  0  0
  -24.4770  -29.0770   19.8090 C   0  0  0  0  0  0  0  0  0  0  0  0
  -25.6160  -30.9060   21.0860 C   0  0  0  0  0  2  0  0  0  0  0  0
  -25.6660  -29.5920   20.3410 C   0  0  0  0  0  0  0  0  0  0  0  0
  -26.8790  -28.8970   20.1850 C   0  0  0  0  0  3  0  0  0  0  0  0
  -25.6910  -27.1450   18.9780 C   0  0  0  0  0  3  0  0  0  0  0  0
  -24.4810  -27.8470   19.1270 C   0  0  0  0  0  3  0  0  0  0  0  0
  -23.2320  -29.9060   20.0110 C   0  0  0  0  0  2  0  0  0  0  0  0
  -24.4200  -31.0590   21.9400 N   0  0  0  0  0  0  0  0  0  0  0  0
  -23.4170  -31.9780   23.7480 O   0  0  0  0  0  0  0  0  0  0  0  0
  -22.5560  -29.3840   22.3730 C   0  0  0  0  0  0  0  0  0  0  0  0
  -21.2360  -29.1600   22.2850 N   0  0  0  0  0  0  0  0  0  0  0  0
  -23.2950  -28.7410   23.1210 O   0  0  0  0  0  0  0  0  0  0  0  0
  -20.7010  -29.7350   21.6500 H   0  0  0  0  0  0  0  0  0  0  0  0
  -17.9350  -27.7850   22.7900 C   0  0  0  0  0  0  0  0  0  0  0  0
  -20.4830  -28.1490   23.0260 C   0  0  0  0  0  3  0  0  0  0  0  0
  -20.6400  -26.7530   22.3790 C   0  0  0  0  0  2  0  0  0  0  0  0
  -19.5320  -26.4270   21.3730 C   0  0  0  0  0  2  0  0  0  0  0  0
  -18.1590  -26.4770   22.0490 C   0  0  0  0  0  2  0  0  0  0  0  0
  -19.0270  -28.5780   23.2340 C   0  0  0  0  0  0  0  0  0  0  0  0
  -18.7630  -29.8020   23.8850 C   0  0  0  0  0  3  0  0  0  0  0  0
  -17.4410  -30.2340   24.0980 C   0  0  0  0  0  3  0  0  0  0  0  0
  -16.3650  -29.4390   23.6710 C   0  0  0  0  0  3  0  0  0  0  0  0
  -16.6130  -28.2150   23.0240 C   0  0  0  0  0  3  0  0  0  0  0  0
  -25.7840  -32.3480   23.6760 C   0  0  0  0  0  3  0  0  0  0  0  0
  -25.5130  -33.7290   24.0970 N   0  0  0  0  0  0  0  0  0  0  0  0
  -25.8490  -34.8160   23.3920 C   0  0  0  0  0  0  0  0  0  0  0  0
  -26.4920  -34.7630   22.3380 O   0  0  0  0  0  0  0  0  0  0  0  0
  -24.9410  -33.8460   24.9200 H   0  0  0  0  0  0  0  0  0  0  0  0
  -24.1630  -36.6690   23.1660 C   0  0  0  0  0  1  0  0  0  0  0  0
  -25.3990  -36.1840   23.9400 C   0  0  0  0  0  3  0  0  0  0  0  0
  -27.5550  -36.9640   24.8170 C   0  0  0  0  0  1  0  0  0  0  0  0
  -26.4550  -37.2160   23.8900 N   0  0  0  0  0  0  0  0  0  0  0  0
  -26.0710  -38.1340   24.0940 H   0  0  0  0  0  0  0  0  0  0  0  0
  -26.3760  -31.5040   24.8700 C   0  0  1  0  0  0  0  0  0  0  0  0
  -25.3530  -31.2130   25.9930 C   0  0  0  0  0  1  0  0  0  0  0  0
  -26.9220  -30.1480   24.3630 C   0  0  0  0  0  1  0  0  0  0  0  0
  -27.5740  -32.2540   25.5010 C   0  0  0  0  0  1  0  0  0  0  0  0
  1  4  1  0
  2  6  1  0
  3  1  2  0
  3  5  1  0
  4  9  1  0
  4  6  2  0
  5  2  2  0
  6  8  1  0
  7  3  1  0
  9 10  1  0
 11 10  1  0
 11 12  1  0
 13 21  1  0
 14 19  1  0
 15 16  1  0
 15 14  1  0
 17 16  1  0
 17 26  1  0
 17 18  1  0
 19 13  1  0
 19 18  1  0
 20 13  2  0
 21 12  1  0
 21 22  1  0
 23 24  2  0
 24 43  1  0
 25 24  1  0
 25 28  1  0
 26 27  1  0
 26 23  1  0
 27 25  2  0
 28 29  1  0
 29 30  2  0
 31 34  1  0
 31 30  1  0
 32 31  2  0
 33 32  1  0
 33 28  2  0
 34 35  1  0
 35 40  2  0
 35 36  1  0
 36 37  2  0
 37 38  1  0
 38 42  1  0
 39 38  2  0
 40 39  1  0
 41 40  1  0
 43 44  1  0
 44 47  1  0
 44 46  1  0
 45 43  2  0
 48 49  1  0
 48 23  1  0
 50 48  1  0
 51  5  1  0
 52 53  1  0
 52 51  1  0
 54 53  1  0
 55 57  1  0
 55 54  1  0
 56 67  2  0
 57 62  1  0
 58 66  1  0
 58 68  1  0
 59 65  1  0
 59 61  1  0
 60 66  1  0
 61 60  1  0
 62 61  2  0
 63 64  1  0
 63 57  2  0
 64 59  2  0
 65 58  1  0
 66 56  1  0
 68 70  2  0
 69 68  1  0
 71 69  1  0
 72 81  2  0
 72 77  1  0
 73 69  1  0
 73 77  1  0
 74 73  1  0
 75 76  1  0
 75 74  1  0
 76 72  1  0
 77 78  2  0
 78 79  1  0
 80 79  2  0
 81 80  1  0
 82 56  1  0
 82 83  1  0
 82 92  1  0
 83 86  1  0
 84 88  1  0
 84 83  1  0
 85 84  2  0
 88 87  1  0
 90 88  1  0
 90 91  1  0
 90 89  1  0
 92 95  1  1
 92 93  1  0
 94 92  1  0
M  ISO  4  13 100  21 100  54 101  55 101
M  END
>  <TORSDO>  (83) 
F 24

>  <SCORE>  (83) 
-12.000

>  <name>  (83) 
83

>  <ligand_id>  (83) 
83

>  <original_smiles>  (83) 
[H]c1c([H])c([H])c2c(c1[H])C([H])([H])C([H])([H])C([H])([H])C2([H])N([H])C(=O)C1([H])N(C(=O)C([H])(N([H])C(=O)C([H])(N([H])C([H])([H])[H])C([H])([H])[H])C(C([H])([H])[H])(C([H])([H])[H])C([H])([H])[H])C([H])([H])c2c([H])c(OC([H])([H])C([H])([H])C([H])([H])C([H])([H])c3c([H])c(Cl)c(C([H])([H])C([H])([H])C([H])([H])C([H])([H])N([H])C(=O)N4C([H])([H])C([H])([H])C([H])([H])C([H])(n5nc(-c6c([H])c([H])c(Oc7c([H])c([H])c(F)c([H])c7F)c([H])c6[H])c(C(=O)N([H])[H])c5N([H])[H])C4([H])[H])c([H])c3C([H])([H])[H])c([H])c([H])c2C1([H])[H]

>  <smiles>  (83) 
[H]c1c([H])c([H])c2c(c1[H])C([H])([H])C([H])([H])C([H])([H])C2([H])N([H])C(=O)C1([H])N(C(=O)C([H])(N([H])C(=O)C([H])(N([H])C([H])([H])[H])C([H])([H])[H])C(C([H])([H])[H])(C([H])([H])[H])C([H])([H])[H])C([H])([H])c2c([H])c(OC([H])([H])C([H])([H])C([H])([H])C([H])([H])c3c([H])c(Cl)c(C([H])([H])C([H])([H])C([H])([H])C([H])([H])N([H])C(=O)N4C([H])([H])C([H])([H])C([H])([H])C([H])(n5nc(-c6c([H])c([H])c(Oc7c([H])c([H])c(F)c([H])c7F)c([H])c6[H])c(C(=O)N([H])[H])c5N([H])[H])C4([H])[H])c([H])c3C([H])([H])[H])c([H])c([H])c2C1([H])[H]

$$$$
84:0:0
     RDKit          3D

 89 97  0  0  1  0  0  0  0  0999 V2000
  -30.1640  -19.3670   19.2240 C   0  0  0  0  0  3  0  0  0  0  0  0
  -29.4710  -20.6630   21.5280 C   0  0  0  0  0  3  0  0  0  0  0  0
  -29.6330  -20.6770   19.1270 C   0  0  0  0  0  0  0  0  0  0  0  0
  -29.2650  -21.3610   20.3120 C   0  0  0  0  0  0  0  0  0  0  0  0
  -30.3290  -18.7490   20.4820 C   0  0  0  0  0  0  0  0  0  0  0  0
  -29.4370  -21.3030   17.7580 C   0  0  0  0  0  1  0  0  0  0  0  0
  -29.9870  -19.4050   21.6170 N   0  0  0  0  0  0  0  0  0  0  0  0
  -28.4750  -22.7030   20.2850 C   0  0  0  0  0  2  0  0  0  0  0  0
  -29.1940  -24.1040   20.2090 C   0  0  0  0  0  2  0  0  0  0  0  0
  -28.1580  -25.2260   19.8410 C   0  0  0  0  0  2  0  0  0  0  0  0
  -28.4100  -26.6560   20.0520 O   0  0  0  0  0  0  0  0  0  0  0  0
  -24.5250  -31.8160   23.2060 C   0  0  0  0  0  0  0  0  0  0  0  0
  -27.2720  -27.4710   20.0050 C   0  0  0  0  0  0  0  0  0  0  0  0
  -23.3670  -30.4490   21.5090 C   0  0  0  0  0  3  0  0  0  0  0  0
  -24.8650  -29.0010   20.0390 C   0  0  0  0  0  0  0  0  0  0  0  0
  -25.8970  -30.8470   21.3550 C   0  0  0  0  0  2  0  0  0  0  0  0
  -26.0160  -29.4990   20.6610 C   0  0  0  0  0  0  0  0  0  0  0  0
  -27.2240  -28.7460   20.6390 C   0  0  0  0  0  3  0  0  0  0  0  0
  -26.0950  -27.0300   19.3490 C   0  0  0  0  0  3  0  0  0  0  0  0
  -24.9040  -27.7690   19.3760 C   0  0  0  0  0  3  0  0  0  0  0  0
  -23.6050  -29.8350   20.1070 C   0  0  0  0  0  2  0  0  0  0  0  0
  -24.6140  -31.0510   22.0810 N   0  0  0  0  0  0  0  0  0  0  0  0
  -23.4320  -32.0470   23.7420 O   0  0  0  0  0  0  0  0  0  0  0  0
  -22.7270  -29.3770   22.4240 C   0  0  0  0  0  0  0  0  0  0  0  0
  -21.4100  -29.1590   22.2670 N   0  0  0  0  0  0  0  0  0  0  0  0
  -23.4130  -28.7490   23.2340 O   0  0  0  0  0  0  0  0  0  0  0  0
  -20.9150  -29.7220   21.5900 H   0  0  0  0  0  0  0  0  0  0  0  0
  -18.0630  -27.8530   22.6760 C   0  0  0  0  0  0  0  0  0  0  0  0
  -20.6090  -28.1750   22.9950 C   0  0  0  0  0  3  0  0  0  0  0  0
  -20.7600  -26.7660   22.3780 C   0  0  0  0  0  2  0  0  0  0  0  0
  -19.6840  -26.4430   21.3370 C   0  0  0  0  0  2  0  0  0  0  0  0
  -18.2890  -26.5300   21.9630 C   0  0  0  0  0  2  0  0  0  0  0  0
  -19.1530  -28.6320   23.1470 C   0  0  0  0  0  0  0  0  0  0  0  0
  -18.8900  -29.8710   23.7710 C   0  0  0  0  0  3  0  0  0  0  0  0
  -17.5690  -30.3300   23.9310 C   0  0  0  0  0  3  0  0  0  0  0  0
  -16.4930  -29.5470   23.4770 C   0  0  0  0  0  3  0  0  0  0  0  0
  -16.7410  -28.3100   22.8550 C   0  0  0  0  0  3  0  0  0  0  0  0
  -25.7890  -32.4550   23.8590 C   0  0  0  0  0  3  0  0  0  0  0  0
  -25.4590  -33.8500   24.1880 N   0  0  0  0  0  0  0  0  0  0  0  0
  -25.7750  -34.9060   23.4280 C   0  0  0  0  0  0  0  0  0  0  0  0
  -26.4460  -34.8110   22.3960 O   0  0  0  0  0  0  0  0  0  0  0  0
  -24.8630  -33.9950   24.9900 H   0  0  0  0  0  0  0  0  0  0  0  0
  -24.0160  -36.6690   23.0770 C   0  0  0  0  0  1  0  0  0  0  0  0
  -25.2670  -36.2870   23.8840 C   0  0  0  0  0  3  0  0  0  0  0  0
  -27.3830  -37.2150   24.7130 C   0  0  0  0  0  1  0  0  0  0  0  0
  -26.2820  -37.3560   23.7640 N   0  0  0  0  0  0  0  0  0  0  0  0
  -25.8600  -38.2710   23.9020 H   0  0  0  0  0  0  0  0  0  0  0  0
  -26.2840  -31.6820   25.1420 C   0  0  1  0  0  0  0  0  0  0  0  0
  -25.1690  -31.4250   26.1820 C   0  0  0  0  0  1  0  0  0  0  0  0
  -26.8910  -30.3140   24.7550 C   0  0  0  0  0  1  0  0  0  0  0  0
  -27.4100  -32.4850   25.8350 C   0  0  0  0  0  1  0  0  0  0  0  0
  -31.0460  -17.3800   20.5990 C   0  0  0  0  0  2  0  0  0  0  0  0
  -30.2010  -16.0730   20.8370 C   0  0  0  0  0  2  0  0  0  0  0  0
  -30.9230  -14.7480   20.4120 C   0  0  0  0  0  0  0  0  0  0  0  0
  -30.6080  -12.5800   19.2610 C   0  0  0  0  0  2  0  0  0  0  0  0
  -29.6830  -12.8080   18.0470 C   0  0  0  0  0  2  0  0  0  0  0  0
  -28.2040  -12.6770   18.4600 C   0  0  0  0  0  2  0  0  0  0  0  0
  -27.8630  -13.5020   19.7300 C   0  0  0  0  0  3  0  0  0  0  0  0
  -28.9100  -13.2900   20.8440 C   0  0  0  0  0  2  0  0  0  0  0  0
  -30.2390  -13.5720   20.2880 N   0  0  0  0  0  0  0  0  0  0  0  0
  -32.0910  -14.8370   20.0250 O   0  0  0  0  0  0  0  0  0  0  0  0
  -25.4650  -14.1200   20.4210 C   0  0  0  0  0  0  0  0  0  0  0  0
  -24.3890  -13.3540   20.7790 C   0  0  0  0  0  0  0  0  0  0  0  0
  -24.8420  -12.0000   20.7560 C   0  0  0  0  0  0  0  0  0  0  0  0
  -26.5070  -13.2310   20.2000 N   0  0  0  0  0  0  0  0  0  0  0  0
  -26.1360  -11.9510   20.4630 N   0  0  0  0  0  0  0  0  0  0  0  0
  -24.1050  -10.7420   20.9400 C   0  0  0  0  0  0  0  0  0  0  0  0
  -24.4970   -9.7910   21.9070 C   0  0  0  0  0  3  0  0  0  0  0  0
  -23.7610   -8.5980   22.0780 C   0  0  0  0  0  3  0  0  0  0  0  0
  -22.6190   -8.3500   21.2800 C   0  0  0  0  0  0  0  0  0  0  0  0
  -22.2460   -9.2900   20.3030 C   0  0  0  0  0  3  0  0  0  0  0  0
  -22.9830  -10.4740   20.1310 C   0  0  0  0  0  3  0  0  0  0  0  0
  -21.8570   -7.2080   21.3580 O   0  0  0  0  0  0  0  0  0  0  0  0
  -21.7250   -6.5110   22.5320 C   0  0  0  0  0  0  0  0  0  0  0  0
  -21.1660   -7.0980   23.6880 C   0  0  0  0  0  3  0  0  0  0  0  0
  -20.9830   -6.3240   24.8530 C   0  0  0  0  0  3  0  0  0  0  0  0
  -21.3480   -4.9650   24.8600 C   0  0  0  0  0  0  0  0  0  0  0  0
  -21.9000   -4.3780   23.7080 C   0  0  0  0  0  3  0  0  0  0  0  0
  -22.0840   -5.1480   22.5460 C   0  0  0  0  0  0  0  0  0  0  0  0
  -22.5960   -4.5710   21.4320 F   0  0  0  0  0  0  0  0  0  0  0  0
  -21.1660   -4.2200   25.9750 F   0  0  0  0  0  0  0  0  0  0  0  0
  -22.9910  -13.8410   21.0340 C   0  0  0  0  0  0  0  0  0  0  0  0
  -22.2530  -13.1580   21.9010 N   0  0  0  0  0  0  0  0  0  0  0  0
  -22.5620  -14.8620   20.4980 O   0  0  0  0  0  0  0  0  0  0  0  0
  -22.6130  -12.3330   22.3580 H   0  0  0  0  0  0  0  0  0  0  0  0
  -21.3160  -13.4660   22.1160 H   0  0  0  0  0  0  0  0  0  0  0  0
  -25.6420  -15.4890   20.2440 N   0  0  0  0  0  0  0  0  0  0  0  0
  -24.8830  -16.1530   20.3500 H   0  0  0  0  0  0  0  0  0  0  0  0
  -26.5050  -15.9220   19.9400 H   0  0  0  0  0  0  0  0  0  0  0  0
  1  5  1  0
  2  7  1  0
  3  1  2  0
  3  4  1  0
  4  2  2  0
  5 52  1  0
  5  7  2  0
  6  3  1  0
  8  4  1  0
  9  8  1  0
 10 11  1  0
 10  9  1  0
 12 23  2  0
 13 11  1  0
 13 18  1  0
 14 22  1  0
 14 24  1  0
 15 21  1  0
 15 17  1  0
 16 22  1  0
 17 16  1  0
 18 17  2  0
 19 20  1  0
 19 13  2  0
 20 15  2  0
 21 14  1  0
 22 12  1  0
 24 26  2  0
 25 24  1  0
 27 25  1  0
 28 37  2  0
 28 33  1  0
 29 25  1  0
 29 33  1  0
 30 29  1  0
 31 32  1  0
 31 30  1  0
 32 28  1  0
 33 34  2  0
 34 35  1  0
 36 35  2  0
 37 36  1  0
 38 12  1  0
 38 39  1  0
 38 48  1  0
 39 42  1  0
 40 44  1  0
 40 39  1  0
 41 40  2  0
 44 43  1  0
 46 44  1  0
 46 47  1  0
 46 45  1  0
 48 51  1  1
 48 49  1  0
 50 48  1  0
 52 53  1  0
 54 53  1  0
 55 60  1  0
 56 57  1  0
 56 55  1  0
 58 57  1  0
 58 65  1  0
 58 59  1  0
 60 54  1  0
 60 59  1  0
 61 54  2  0
 62 63  2  0
 63 82  1  0
 64 63  1  0
 64 67  1  0
 65 62  1  0
 65 66  1  0
 66 64  2  0
 67 68  1  0
 68 69  2  0
 70 73  1  0
 70 69  1  0
 71 70  2  0
 72 71  1  0
 72 67  2  0
 73 74  1  0
 74 79  2  0
 74 75  1  0
 75 76  2  0
 76 77  1  0
 77 81  1  0
 78 77  2  0
 79 78  1  0
 80 79  1  0
 82 83  1  0
 83 86  1  0
 83 85  1  0
 84 82  2  0
 87 88  1  0
 87 62  1  0
 89 87  1  0
M  ISO  4  10 101  11 101  53 100  54 100
M  END
>  <TORSDO>  (84) 
F 21

>  <SCORE>  (84) 
-13.079

>  <name>  (84) 
84

>  <ligand_id>  (84) 
84

>  <original_smiles>  (84) 
[H]c1nc(C([H])([H])C([H])([H])C(=O)N2C([H])([H])C([H])([H])C([H])([H])C([H])(n3nc(-c4c([H])c([H])c(Oc5c([H])c([H])c(F)c([H])c5F)c([H])c4[H])c(C(=O)N([H])[H])c3N([H])[H])C2([H])[H])c([H])c(C([H])([H])[H])c1C([H])([H])C([H])([H])C([H])([H])Oc1c([H])c([H])c2c(c1[H])C([H])([H])N(C(=O)C([H])(N([H])C(=O)C([H])(N([H])C([H])([H])[H])C([H])([H])[H])C(C([H])([H])[H])(C([H])([H])[H])C([H])([H])[H])C([H])(C(=O)N([H])C1([H])c3c([H])c([H])c([H])c([H])c3C([H])([H])C([H])([H])C1([H])[H])C2([H])[H]

>  <smiles>  (84) 
[H]c1nc(C([H])([H])C([H])([H])C(=O)N2C([H])([H])C([H])([H])C([H])([H])C([H])(n3nc(-c4c([H])c([H])c(Oc5c([H])c([H])c(F)c([H])c5F)c([H])c4[H])c(C(=O)N([H])[H])c3N([H])[H])C2([H])[H])c([H])c(C([H])([H])[H])c1C([H])([H])C([H])([H])C([H])([H])Oc1c([H])c([H])c2c(c1[H])C([H])([H])N(C(=O)C([H])(N([H])C(=O)C([H])(N([H])C([H])([H])[H])C([H])([H])[H])C(C([H])([H])[H])(C([H])([H])[H])C([H])([H])[H])C([H])(C(=O)N([H])C1([H])c3c([H])c([H])c([H])c([H])c3C([H])([H])C([H])([H])C1([H])[H])C2([H])[H]

$$$$
85:0:0
     RDKit          3D

 90 98  0  0  1  0  0  0  0  0999 V2000
  -30.6590  -21.0230   21.3450 C   0  0  0  0  0  3  0  0  0  0  0  0
  -29.5470  -21.0690   20.4620 C   0  0  0  0  0  0  0  0  0  0  0  0
  -31.1270  -19.7270   21.3210 C   0  0  0  0  0  0  0  0  0  0  0  0
  -32.3390  -19.1890   22.0100 C   0  0  0  0  0  1  0  0  0  0  0  0
  -29.3490  -19.8150   19.9700 N   0  0  0  0  0  0  0  0  0  0  0  0
  -30.3120  -18.9580   20.4910 N   0  0  0  0  0  0  0  0  0  0  0  0
  -28.6430  -22.3000   20.0710 C   0  0  0  0  0  2  0  0  0  0  0  0
  -29.0480  -23.8170   20.4450 C   0  0  0  0  0  3  0  0  0  0  0  0
  -28.0240  -24.9790   20.0050 C   0  0  0  0  0  3  0  0  0  0  0  0
  -28.2600  -26.4380   20.2470 O   0  0  0  0  0  0  0  0  0  0  0  0
  -24.5690  -31.9060   23.2420 C   0  0  0  0  0  0  0  0  0  0  0  0
  -27.1560  -27.3190   20.1790 C   0  0  0  0  0  0  0  0  0  0  0  0
  -23.3540  -30.5050   21.6130 C   0  0  0  0  0  3  0  0  0  0  0  0
  -24.7950  -28.9540   20.1790 C   0  0  0  0  0  0  0  0  0  0  0  0
  -25.8960  -30.8160   21.4160 C   0  0  0  0  0  2  0  0  0  0  0  0
  -25.9710  -29.4360   20.7690 C   0  0  0  0  0  0  0  0  0  0  0  0
  -27.1530  -28.6300   20.7580 C   0  0  0  0  0  3  0  0  0  0  0  0
  -25.9570  -26.9070   19.5500 C   0  0  0  0  0  3  0  0  0  0  0  0
  -24.7920  -27.6970   19.5590 C   0  0  0  0  0  3  0  0  0  0  0  0
  -23.5590  -29.8300   20.2330 C   0  0  0  0  0  2  0  0  0  0  0  0
  -24.6260  -31.0940   22.1470 N   0  0  0  0  0  0  0  0  0  0  0  0
  -23.4890  -32.1860   23.7820 O   0  0  0  0  0  0  0  0  0  0  0  0
  -22.6960  -29.4910   22.5790 C   0  0  0  0  0  0  0  0  0  0  0  0
  -21.3680  -29.3110   22.4570 N   0  0  0  0  0  0  0  0  0  0  0  0
  -23.3780  -28.8700   23.3970 O   0  0  0  0  0  0  0  0  0  0  0  0
  -20.8770  -29.8670   21.7710 H   0  0  0  0  0  0  0  0  0  0  0  0
  -17.9960  -28.1080   22.9740 C   0  0  0  0  0  0  0  0  0  0  0  0
  -20.5540  -28.3750   23.2350 C   0  0  0  0  0  3  0  0  0  0  0  0
  -20.6580  -26.9410   22.6680 C   0  0  0  0  0  2  0  0  0  0  0  0
  -19.5550  -26.6090   21.6580 C   0  0  0  0  0  2  0  0  0  0  0  0
  -18.1740  -26.7550   22.3040 C   0  0  0  0  0  2  0  0  0  0  0  0
  -19.1140  -28.8750   23.3970 C   0  0  0  0  0  0  0  0  0  0  0  0
  -18.8930  -30.1400   23.9820 C   0  0  0  0  0  3  0  0  0  0  0  0
  -17.5870  -30.6400   24.1490 C   0  0  0  0  0  3  0  0  0  0  0  0
  -16.4840  -29.8690   23.7430 C   0  0  0  0  0  3  0  0  0  0  0  0
  -16.6900  -28.6060   23.1610 C   0  0  0  0  0  3  0  0  0  0  0  0
  -25.8540  -32.5410   23.8550 C   0  0  0  0  0  3  0  0  0  0  0  0
  -25.5440  -33.9370   24.1940 N   0  0  0  0  0  0  0  0  0  0  0  0
  -25.8620  -34.9940   23.4350 C   0  0  0  0  0  0  0  0  0  0  0  0
  -26.5180  -34.8960   22.3950 O   0  0  0  0  0  0  0  0  0  0  0  0
  -24.9590  -34.0850   25.0020 H   0  0  0  0  0  0  0  0  0  0  0  0
  -24.1210  -36.7820   23.1170 C   0  0  0  0  0  1  0  0  0  0  0  0
  -25.3770  -36.3790   23.9050 C   0  0  0  0  0  3  0  0  0  0  0  0
  -27.5240  -37.2700   24.7000 C   0  0  0  0  0  1  0  0  0  0  0  0
  -26.4040  -37.4380   23.7770 N   0  0  0  0  0  0  0  0  0  0  0  0
  -25.9970  -38.3550   23.9350 H   0  0  0  0  0  0  0  0  0  0  0  0
  -26.3830  -31.7670   25.1250 C   0  0  1  0  0  0  0  0  0  0  0  0
  -25.2990  -31.5250   26.2020 C   0  0  0  0  0  1  0  0  0  0  0  0
  -26.9660  -30.3910   24.7280 C   0  0  0  0  0  1  0  0  0  0  0  0
  -27.5370  -32.5630   25.7800 C   0  0  0  0  0  1  0  0  0  0  0  0
  -30.5310  -17.5280   19.9900 C   0  0  0  0  0  2  0  0  0  0  0  0
  -30.6230  -16.2850   22.2630 C   0  0  0  0  0  1  0  0  0  0  0  0
  -28.5400  -16.3660   20.9150 C   0  0  0  0  0  1  0  0  0  0  0  0
  -30.0720  -16.2110   20.8230 C   0  0  1  0  0  0  0  0  0  0  0  0
  -30.6340  -14.8060   20.2100 C   0  0  0  0  0  0  0  0  0  0  0  0
  -30.3790  -12.5720   19.0900 C   0  0  0  0  0  2  0  0  0  0  0  0
  -29.3930  -12.6720   17.9030 C   0  0  0  0  0  2  0  0  0  0  0  0
  -27.9370  -12.4760   18.3740 C   0  0  0  0  0  2  0  0  0  0  0  0
  -27.6130  -13.3160   19.6360 C   0  0  0  0  0  3  0  0  0  0  0  0
  -28.7170  -13.1540   20.7090 C   0  0  0  0  0  2  0  0  0  0  0  0
  -29.9840  -13.5860   20.1040 N   0  0  0  0  0  0  0  0  0  0  0  0
  -31.7720  -14.8710   19.7330 O   0  0  0  0  0  0  0  0  0  0  0  0
  -25.2370  -13.9050   20.4190 C   0  0  0  0  0  0  0  0  0  0  0  0
  -24.1850  -13.1270   20.8170 C   0  0  0  0  0  0  0  0  0  0  0  0
  -24.6550  -11.7790   20.7720 C   0  0  0  0  0  0  0  0  0  0  0  0
  -26.2820  -13.0300   20.1600 N   0  0  0  0  0  0  0  0  0  0  0  0
  -25.9370  -11.7470   20.4310 N   0  0  0  0  0  0  0  0  0  0  0  0
  -23.9400  -10.5120   20.9740 C   0  0  0  0  0  0  0  0  0  0  0  0
  -24.3960   -9.5480   21.8980 C   0  0  0  0  0  3  0  0  0  0  0  0
  -23.6810   -8.3470   22.0900 C   0  0  0  0  0  3  0  0  0  0  0  0
  -22.4950   -8.1030   21.3570 C   0  0  0  0  0  0  0  0  0  0  0  0
  -22.0580   -9.0560   20.4200 C   0  0  0  0  0  3  0  0  0  0  0  0
  -22.7750  -10.2490   20.2270 C   0  0  0  0  0  3  0  0  0  0  0  0
  -21.7500   -6.9530   21.4580 O   0  0  0  0  0  0  0  0  0  0  0  0
  -21.7170   -6.2170   22.6150 C   0  0  0  0  0  0  0  0  0  0  0  0
  -21.3100   -6.7790   23.8440 C   0  0  0  0  0  3  0  0  0  0  0  0
  -21.2240   -5.9690   24.9940 C   0  0  0  0  0  3  0  0  0  0  0  0
  -21.5350   -4.5990   24.9160 C   0  0  0  0  0  0  0  0  0  0  0  0
  -21.9350   -4.0350   23.6910 C   0  0  0  0  0  3  0  0  0  0  0  0
  -22.0230   -4.8430   22.5430 C   0  0  0  0  0  0  0  0  0  0  0  0
  -22.3890   -4.2920   21.3610 F   0  0  0  0  0  0  0  0  0  0  0  0
  -21.4460   -3.8180   26.0180 F   0  0  0  0  0  0  0  0  0  0  0  0
  -22.7930  -13.5970   21.1250 C   0  0  0  0  0  0  0  0  0  0  0  0
  -22.0930  -12.8970   22.0110 N   0  0  0  0  0  0  0  0  0  0  0  0
  -22.3350  -14.6200   20.6180 O   0  0  0  0  0  0  0  0  0  0  0  0
  -22.4760  -12.0700   22.4460 H   0  0  0  0  0  0  0  0  0  0  0  0
  -21.1600  -13.1920   22.2610 H   0  0  0  0  0  0  0  0  0  0  0  0
  -25.3820  -15.2770   20.2380 N   0  0  0  0  0  0  0  0  0  0  0  0
  -24.6120  -15.9210   20.3790 H   0  0  0  0  0  0  0  0  0  0  0  0
  -26.2270  -15.7310   19.9190 H   0  0  0  0  0  0  0  0  0  0  0  0
  2  1  1  0
  3  1  2  0
  3  4  1  0
  5  2  2  0
  5  6  1  0
  6  3  1  0
  7  8  1  0
  7  2  1  0
  9 10  1  0
  9  8  2  0
 11 22  2  0
 12 10  1  0
 12 17  1  0
 13 21  1  0
 13 23  1  0
 14 20  1  0
 14 16  1  0
 15 21  1  0
 16 15  1  0
 17 16  2  0
 18 19  1  0
 18 12  2  0
 19 14  2  0
 20 13  1  0
 21 11  1  0
 23 25  2  0
 24 23  1  0
 26 24  1  0
 27 36  2  0
 27 32  1  0
 28 24  1  0
 28 32  1  0
 29 28  1  0
 30 31  1  0
 30 29  1  0
 31 27  1  0
 32 33  2  0
 33 34  1  0
 35 34  2  0
 36 35  1  0
 37 11  1  0
 37 38  1  0
 37 47  1  0
 38 41  1  0
 39 43  1  0
 39 38  1  0
 40 39  2  0
 43 42  1  0
 45 43  1  0
 45 46  1  0
 45 44  1  0
 47 50  1  1
 47 48  1  0
 49 47  1  0
 51  6  1  0
 51 54  1  0
 54 53  1  1
 54 52  1  0
 55 54  1  0
 56 61  1  0
 57 58  1  0
 57 56  1  0
 59 58  1  0
 59 66  1  0
 59 60  1  0
 61 55  1  0
 61 60  1  0
 62 55  2  0
 63 64  2  0
 64 83  1  0
 65 64  1  0
 65 68  1  0
 66 63  1  0
 66 67  1  0
 67 65  2  0
 68 69  1  0
 69 70  2  0
 71 74  1  0
 71 70  1  0
 72 71  2  0
 73 72  1  0
 73 68  2  0
 74 75  1  0
 75 76  1  0
 76 77  2  0
 78 77  1  0
 78 82  1  0
 79 78  2  0
 80 75  2  0
 80 79  1  0
 81 80  1  0
 83 84  1  0
 84 87  1  0
 84 86  1  0
 85 83  2  0
 88 89  1  0
 88 63  1  0
 90 88  1  0
M  ISO  4   9 101  10 101  54 100  55 100
M  END
>  <TORSDO>  (85) 
F 21

>  <SCORE>  (85) 
-13.403

>  <name>  (85) 
85

>  <ligand_id>  (85) 
85

>  <original_smiles>  (85) 
[H]c1c([H])c([H])c2c(c1[H])C([H])([H])C([H])([H])C([H])([H])C2([H])N([H])C(=O)C1([H])N(C(=O)C([H])(N([H])C(=O)C([H])(N([H])C([H])([H])[H])C([H])([H])[H])C(C([H])([H])[H])(C([H])([H])[H])C([H])([H])[H])C([H])([H])c2c([H])c(OC([H])([H])C([H])([H])C([H])([H])c3nn(C([H])([H])C(C(=O)N4C([H])([H])C([H])([H])C([H])([H])C([H])(n5nc(-c6c([H])c([H])c(Oc7c([H])c([H])c(F)c([H])c7F)c([H])c6[H])c(C(=O)N([H])[H])c5N([H])[H])C4([H])[H])(C([H])([H])[H])C([H])([H])[H])c(C([H])([H])[H])c3[H])c([H])c([H])c2C1([H])[H]

>  <smiles>  (85) 
[H]c1c([H])c([H])c2c(c1[H])C([H])([H])C([H])([H])C([H])([H])C2([H])N([H])C(=O)C1([H])N(C(=O)C([H])(N([H])C(=O)C([H])(N([H])C([H])([H])[H])C([H])([H])[H])C(C([H])([H])[H])(C([H])([H])[H])C([H])([H])[H])C([H])([H])c2c([H])c(OC([H])([H])C([H])([H])C([H])([H])c3nn(C([H])([H])C(C(=O)N4C([H])([H])C([H])([H])C([H])([H])C([H])(n5nc(-c6c([H])c([H])c(Oc7c([H])c([H])c(F)c([H])c7F)c([H])c6[H])c(C(=O)N([H])[H])c5N([H])[H])C4([H])[H])(C([H])([H])[H])C([H])([H])[H])c(C([H])([H])[H])c3[H])c([H])c([H])c2C1([H])[H]

$$$$
86:0:0
     RDKit          3D

 98106  0  0  1  0  0  0  0  0999 V2000
  -29.9930  -22.9620   22.6700 C   0  0  0  0  0  3  0  0  0  0  0  0
  -30.7850  -23.4460   20.4320 C   0  0  0  0  0  3  0  0  0  0  0  0
  -29.8890  -23.7090   21.4810 C   0  0  0  0  0  0  0  0  0  0  0  0
  -30.9660  -21.9470   22.8040 C   0  0  0  0  0  0  0  0  0  0  0  0
  -31.7550  -22.4230   20.5340 C   0  0  0  0  0  0  0  0  0  0  0  0
  -31.8470  -21.6530   21.7290 C   0  0  0  0  0  0  0  0  0  0  0  0
  -31.0370  -21.1960   24.1260 C   0  0  0  0  0  1  0  0  0  0  0  0
  -32.8840  -20.5350   21.8570 C   0  0  0  0  0  1  0  0  0  0  0  0
  -32.6940  -22.2350   19.3440 C   0  0  0  0  0  2  0  0  0  0  0  0
  -32.0030  -21.7480   18.0520 C   0  0  0  0  0  2  0  0  0  0  0  0
  -31.7520  -20.2300   17.9320 C   0  0  0  0  0  2  0  0  0  0  0  0
  -30.6080  -19.6840   18.8270 C   0  0  0  0  0  2  0  0  0  0  0  0
  -29.1570  -18.6250   17.1470 C   0  0  0  0  0  1  0  0  0  0  0  0
  -30.0570  -18.3970   18.3090 N   0  0  2  0  0  4  0  0  0  0  0  0
  -30.8430  -17.8960   17.9240 H   0  0  0  0  0  0  0  0  0  0  0  0
  -28.2160  -18.0020   20.0240 C   0  0  0  0  0  1  0  0  0  0  0  0
  -29.4770  -17.4510   19.3180 C   0  0  0  0  0  3  0  0  0  0  0  0
  -30.5190  -16.9460   20.3540 C   0  0  0  0  0  2  0  0  0  0  0  0
  -30.1980  -15.5380   20.9490 C   0  0  0  0  0  2  0  0  0  0  0  0
  -30.7100  -14.3410   20.1120 C   0  0  0  0  0  0  0  0  0  0  0  0
  -30.3710  -12.1220   19.0890 C   0  0  0  0  0  2  0  0  0  0  0  0
  -29.3810  -12.2300   17.9120 C   0  0  0  0  0  2  0  0  0  0  0  0
  -27.9250  -12.1170   18.4070 C   0  0  0  0  0  2  0  0  0  0  0  0
  -27.6340  -13.0500   19.6140 C   0  0  0  0  0  3  0  0  0  0  0  0
  -28.7230  -12.8950   20.6960 C   0  0  0  0  0  2  0  0  0  0  0  0
  -30.0260  -13.1650   20.0680 N   0  0  0  0  0  0  0  0  0  0  0  0
  -31.7520  -14.5050   19.4680 O   0  0  0  0  0  0  0  0  0  0  0  0
  -25.3030  -13.7350   20.4600 C   0  0  0  0  0  0  0  0  0  0  0  0
  -24.2230  -12.9970   20.8730 C   0  0  0  0  0  0  0  0  0  0  0  0
  -24.6250  -11.6290   20.7860 C   0  0  0  0  0  0  0  0  0  0  0  0
  -26.2970  -12.8190   20.1570 N   0  0  0  0  0  0  0  0  0  0  0  0
  -25.8940  -11.5450   20.4040 N   0  0  0  0  0  0  0  0  0  0  0  0
  -23.8630  -10.3910   20.9940 C   0  0  0  0  0  0  0  0  0  0  0  0
  -24.2790   -9.4120   21.9220 C   0  0  0  0  0  3  0  0  0  0  0  0
  -23.5200   -8.2370   22.1110 C   0  0  0  0  0  3  0  0  0  0  0  0
  -22.3280   -8.0350   21.3760 C   0  0  0  0  0  0  0  0  0  0  0  0
  -21.9280   -9.0070   20.4400 C   0  0  0  0  0  3  0  0  0  0  0  0
  -22.6890  -10.1710   20.2480 C   0  0  0  0  0  3  0  0  0  0  0  0
  -21.5410   -6.9120   21.4750 O   0  0  0  0  0  0  0  0  0  0  0  0
  -21.4680   -6.1830   22.6350 C   0  0  0  0  0  0  0  0  0  0  0  0
  -21.0130   -6.7520   23.8460 C   0  0  0  0  0  3  0  0  0  0  0  0
  -20.8900   -5.9490   24.9970 C   0  0  0  0  0  3  0  0  0  0  0  0
  -21.2120   -4.5790   24.9390 C   0  0  0  0  0  0  0  0  0  0  0  0
  -21.6610   -4.0110   23.7330 C   0  0  0  0  0  3  0  0  0  0  0  0
  -21.7850   -4.8110   22.5830 C   0  0  0  0  0  0  0  0  0  0  0  0
  -22.1970   -4.2530   21.4190 F   0  0  0  0  0  0  0  0  0  0  0  0
  -21.0860   -3.8070   26.0430 F   0  0  0  0  0  0  0  0  0  0  0  0
  -22.8660  -13.5290   21.2380 C   0  0  0  0  0  0  0  0  0  0  0  0
  -22.1520  -12.8380   22.1220 N   0  0  0  0  0  0  0  0  0  0  0  0
  -22.4440  -14.5840   20.7700 O   0  0  0  0  0  0  0  0  0  0  0  0
  -22.5000  -11.9840   22.5320 H   0  0  0  0  0  0  0  0  0  0  0  0
  -21.2440  -13.1810   22.4010 H   0  0  0  0  0  0  0  0  0  0  0  0
  -25.5090  -15.0990   20.3000 N   0  0  0  0  0  0  0  0  0  0  0  0
  -24.7800  -15.7810   20.4700 H   0  0  0  0  0  0  0  0  0  0  0  0
  -26.3630  -15.5120   19.9530 H   0  0  0  0  0  0  0  0  0  0  0  0
  -28.7780  -24.7430   21.2890 C   0  0  0  0  0  2  0  0  0  0  0  0
  -29.2090  -26.2240   21.3890 C   0  0  0  0  0  2  0  0  0  0  0  0
  -28.7800  -26.9160   20.2140 O   0  0  0  0  0  0  0  0  0  0  0  0
  -24.5780  -31.7910   23.3230 C   0  0  0  0  0  0  0  0  0  0  0  0
  -27.5730  -27.5740   20.2720 C   0  0  0  0  0  0  0  0  0  0  0  0
  -23.5130  -30.3760   21.5910 C   0  0  0  0  0  3  0  0  0  0  0  0
  -25.1000  -28.9370   20.2080 C   0  0  0  0  0  0  0  0  0  0  0  0
  -26.0210  -30.8610   21.5170 C   0  0  0  0  0  2  0  0  0  0  0  0
  -26.2010  -29.5090   20.8620 C   0  0  0  0  0  0  0  0  0  0  0  0
  -27.4400  -28.8340   20.8940 C   0  0  0  0  0  3  0  0  0  0  0  0
  -26.4640  -27.0110   19.6130 C   0  0  0  0  0  3  0  0  0  0  0  0
  -25.2260  -27.6850   19.5790 C   0  0  0  0  0  3  0  0  0  0  0  0
  -23.8150  -29.7330   20.2090 C   0  0  0  0  0  2  0  0  0  0  0  0
  -24.7190  -31.0240   22.2030 N   0  0  0  0  0  0  0  0  0  0  0  0
  -23.4640  -31.9990   23.8230 O   0  0  0  0  0  0  0  0  0  0  0  0
  -22.8670  -29.3070   22.5020 C   0  0  0  0  0  0  0  0  0  0  0  0
  -21.5580  -29.0720   22.3120 N   0  0  0  0  0  0  0  0  0  0  0  0
  -23.5430  -28.6910   23.3310 O   0  0  0  0  0  0  0  0  0  0  0  0
  -21.0790  -29.6210   21.6130 H   0  0  0  0  0  0  0  0  0  0  0  0
  -18.2120  -27.7530   22.6600 C   0  0  0  0  0  0  0  0  0  0  0  0
  -20.7500  -28.0840   23.0260 C   0  0  0  0  0  3  0  0  0  0  0  0
  -20.9180  -26.6790   22.4040 C   0  0  0  0  0  2  0  0  0  0  0  0
  -19.8590  -26.3540   21.3460 C   0  0  0  0  0  2  0  0  0  0  0  0
  -18.4540  -26.4330   21.9490 C   0  0  0  0  0  2  0  0  0  0  0  0
  -19.2900  -28.5360   23.1540 C   0  0  0  0  0  0  0  0  0  0  0  0
  -19.0090  -29.7690   23.7790 C   0  0  0  0  0  3  0  0  0  0  0  0
  -17.6840  -30.2220   23.9190 C   0  0  0  0  0  3  0  0  0  0  0  0
  -16.6200  -29.4370   23.4400 C   0  0  0  0  0  3  0  0  0  0  0  0
  -16.8850  -28.2040   22.8170 C   0  0  0  0  0  3  0  0  0  0  0  0
  -25.8070  -32.4610   24.0120 C   0  0  0  0  0  3  0  0  0  0  0  0
  -26.2510  -31.7290   25.3380 C   0  0  1  0  0  0  0  0  0  0  0  0
  -25.0900  -31.4790   26.3290 C   0  0  0  0  0  1  0  0  0  0  0  0
  -26.8960  -30.3610   25.0150 C   0  0  0  0  0  1  0  0  0  0  0  0
  -27.3250  -32.5750   26.0640 C   0  0  0  0  0  1  0  0  0  0  0  0
  -25.4510  -33.8590   24.2850 N   0  0  0  0  0  0  0  0  0  0  0  0
  -25.7890  -34.8940   23.5060 C   0  0  0  0  0  0  0  0  0  0  0  0
  -26.5040  -34.7760   22.5060 O   0  0  0  0  0  0  0  0  0  0  0  0
  -24.8260  -34.0210   25.0590 H   0  0  0  0  0  0  0  0  0  0  0  0
  -24.0250  -36.6180   23.0280 C   0  0  0  0  0  1  0  0  0  0  0  0
  -25.2490  -36.2820   23.8950 C   0  0  0  0  0  3  0  0  0  0  0  0
  -27.3240  -37.2640   24.7710 C   0  0  0  0  0  1  0  0  0  0  0  0
  -26.2570  -37.3610   23.7780 N   0  0  0  0  0  0  0  0  0  0  0  0
  -25.8180  -38.2750   23.8690 H   0  0  0  0  0  0  0  0  0  0  0  0
  1  4  1  0
  2  5  2  0
  2  3  1  0
  3  1  2  0
  4  7  1  0
  5  6  1  0
  6  8  1  0
  6  4  2  0
  9  5  1  0
 10  9  1  0
 11 10  1  0
 11 12  1  0
 13 14  1  0
 14 12  1  0
 14 17  1  0
 14 15  1  6
 17 16  1  0
 17 18  1  0
 18 19  1  0
 20 19  1  0
 21 26  1  0
 22 23  1  0
 22 21  1  0
 24 23  1  0
 24 31  1  0
 24 25  1  0
 26 20  1  0
 26 25  1  0
 27 20  2  0
 28 29  2  0
 29 48  1  0
 30 29  1  0
 30 33  1  0
 31 32  1  0
 31 28  1  0
 32 30  2  0
 33 34  1  0
 34 35  2  0
 36 39  1  0
 36 35  1  0
 37 36  2  0
 38 37  1  0
 38 33  2  0
 39 40  1  0
 40 41  1  0
 41 42  2  0
 43 42  1  0
 43 47  1  0
 44 43  2  0
 45 40  2  0
 45 44  1  0
 46 45  1  0
 48 49  1  0
 49 52  1  0
 49 51  1  0
 50 48  2  0
 53 28  1  0
 53 54  1  0
 55 53  1  0
 56 57  1  0
 56  3  1  0
 58 60  1  0
 58 57  1  0
 59 70  2  0
 60 65  1  0
 61 69  1  0
 61 71  1  0
 62 68  1  0
 62 64  1  0
 63 69  1  0
 64 65  2  0
 64 63  1  0
 66 60  2  0
 67 66  1  0
 67 62  2  0
 68 61  1  0
 69 59  1  0
 71 73  2  0
 72 71  1  0
 74 72  1  0
 75 84  2  0
 75 80  1  0
 76 72  1  0
 76 80  1  0
 77 76  1  0
 78 79  1  0
 78 77  1  0
 79 75  1  0
 80 81  2  0
 81 82  1  0
 83 82  2  0
 84 83  1  0
 85 59  1  0
 85 90  1  0
 85 86  1  0
 86 89  1  1
 86 87  1  0
 88 86  1  0
 90 93  1  0
 91 95  1  0
 91 90  1  0
 92 91  2  0
 95 94  1  0
 97 98  1  0
 97 95  1  0
 97 96  1  0
M  ISO  4  19 100  20 100  57 101  58 101
M  END
>  <TORSDO>  (86) 
F 26

>  <SCORE>  (86) 
-12.251

>  <name>  (86) 
86

>  <ligand_id>  (86) 
86

>  <original_smiles>  (86) 
[H]c1c([H])c([H])c2c(c1[H])C([H])([H])C([H])([H])C([H])([H])C2([H])N([H])C(=O)C1([H])N(C(=O)C([H])(N([H])C(=O)C([H])(N([H])C([H])([H])[H])C([H])([H])[H])C(C([H])([H])[H])(C([H])([H])[H])C([H])([H])[H])C([H])([H])c2c([H])c(OC([H])([H])C([H])([H])c3c([H])c(C([H])([H])[H])c(C([H])([H])[H])c(C([H])([H])C([H])([H])C([H])([H])C([H])([H])[N+]([H])(C([H])([H])[H])C([H])(C([H])([H])[H])C([H])([H])C([H])([H])C(=O)N4C([H])([H])C([H])([H])C([H])([H])C([H])(n5nc(-c6c([H])c([H])c(Oc7c([H])c([H])c(F)c([H])c7F)c([H])c6[H])c(C(=O)N([H])[H])c5N([H])[H])C4([H])[H])c3[H])c([H])c([H])c2C1([H])[H]

>  <smiles>  (86) 
[H]c1c([H])c([H])c2c(c1[H])C([H])([H])C([H])([H])C([H])([H])C2([H])N([H])C(=O)C1([H])N(C(=O)C([H])(N([H])C(=O)C([H])(N([H])C([H])([H])[H])C([H])([H])[H])C(C([H])([H])[H])(C([H])([H])[H])C([H])([H])[H])C([H])([H])c2c([H])c(OC([H])([H])C([H])([H])c3c([H])c(C([H])([H])[H])c(C([H])([H])[H])c(C([H])([H])C([H])([H])C([H])([H])C([H])([H])[N+]([H])(C([H])([H])[H])C([H])(C([H])([H])[H])C([H])([H])C([H])([H])C(=O)N4C([H])([H])C([H])([H])C([H])([H])C([H])(n5nc(-c6c([H])c([H])c(Oc7c([H])c([H])c(F)c([H])c7F)c([H])c6[H])c(C(=O)N([H])[H])c5N([H])[H])C4([H])[H])c3[H])c([H])c([H])c2C1([H])[H]

$$$$
87:0:0
     RDKit          3D

 93101  0  0  1  0  0  0  0  0999 V2000
  -27.0950  -21.2420   19.5890 C   0  0  0  0  0  0  0  0  0  0  0  0
  -29.2270  -22.1740   20.9690 C   0  0  0  0  0  0  0  0  0  0  0  0
  -28.1700  -20.3860   19.9430 C   0  0  0  0  0  0  0  0  0  0  0  0
  -28.1420  -23.0240   20.6260 C   0  0  0  0  0  0  0  0  0  0  0  0
  -25.8790  -20.7420   18.8300 C   0  0  0  0  0  1  0  0  0  0  0  0
  -30.4300  -22.6720   21.7450 C   0  0  0  0  0  1  0  0  0  0  0  0
  -29.2410  -20.8620   20.6270 N   0  0  0  0  0  0  0  0  0  0  0  0
  -27.0830  -22.5550   19.9210 N   0  0  0  0  0  0  0  0  0  0  0  0
  -28.1340  -18.8950   19.5900 C   0  0  0  0  0  2  0  0  0  0  0  0
  -29.4340  -18.0730   19.7570 C   0  0  0  0  0  2  0  0  0  0  0  0
  -29.8240  -17.7760   21.2210 C   0  0  0  0  0  2  0  0  0  0  0  0
  -30.9330  -16.7140   21.3690 C   0  0  0  0  0  2  0  0  0  0  0  0
  -30.9950  -14.4590   20.2620 C   0  0  0  0  0  0  0  0  0  0  0  0
  -30.6140  -12.3280   19.0750 C   0  0  0  0  0  2  0  0  0  0  0  0
  -29.6360  -12.5320   17.9010 C   0  0  0  0  0  2  0  0  0  0  0  0
  -28.1750  -12.4200   18.3760 C   0  0  0  0  0  2  0  0  0  0  0  0
  -27.8870  -13.2770   19.6370 C   0  0  0  0  0  3  0  0  0  0  0  0
  -28.9650  -13.0330   20.7150 C   0  0  0  0  0  2  0  0  0  0  0  0
  -30.2850  -13.3100   20.1180 N   0  0  0  0  0  0  0  0  0  0  0  0
  -32.0480  -14.6860   19.6580 O   0  0  0  0  0  0  0  0  0  0  0  0
  -30.4400  -15.3670   21.0760 N   0  0  0  0  0  0  0  0  0  0  0  0
  -29.5800  -15.0870   21.5260 H   0  0  0  0  0  0  0  0  0  0  0  0
  -25.5230  -13.9360   20.4220 C   0  0  0  0  0  0  0  0  0  0  0  0
  -24.4480  -13.1850   20.8190 C   0  0  0  0  0  0  0  0  0  0  0  0
  -24.8750  -11.8240   20.7600 C   0  0  0  0  0  0  0  0  0  0  0  0
  -26.5390  -13.0330   20.1520 N   0  0  0  0  0  0  0  0  0  0  0  0
  -26.1530  -11.7570   20.4100 N   0  0  0  0  0  0  0  0  0  0  0  0
  -24.1260  -10.5770   20.9620 C   0  0  0  0  0  0  0  0  0  0  0  0
  -24.5050   -9.6390   21.9470 C   0  0  0  0  0  3  0  0  0  0  0  0
  -23.7600   -8.4550   22.1340 C   0  0  0  0  0  3  0  0  0  0  0  0
  -22.6220   -8.2010   21.3330 C   0  0  0  0  0  0  0  0  0  0  0  0
  -22.2610   -9.1260   20.3380 C   0  0  0  0  0  3  0  0  0  0  0  0
  -23.0060  -10.3020   20.1510 C   0  0  0  0  0  3  0  0  0  0  0  0
  -21.8520   -7.0660   21.4240 O   0  0  0  0  0  0  0  0  0  0  0  0
  -21.6730   -6.4120   22.6180 C   0  0  0  0  0  0  0  0  0  0  0  0
  -21.0640   -7.0400   23.7260 C   0  0  0  0  0  3  0  0  0  0  0  0
  -20.8380   -6.3100   24.9100 C   0  0  0  0  0  3  0  0  0  0  0  0
  -21.2100   -4.9530   24.9840 C   0  0  0  0  0  0  0  0  0  0  0  0
  -21.8120   -4.3260   23.8790 C   0  0  0  0  0  3  0  0  0  0  0  0
  -22.0400   -5.0540   22.6980 C   0  0  0  0  0  0  0  0  0  0  0  0
  -22.6020   -4.4390   21.6290 F   0  0  0  0  0  0  0  0  0  0  0  0
  -20.9820   -4.2490   26.1170 F   0  0  0  0  0  0  0  0  0  0  0  0
  -23.0720  -13.6930   21.1410 C   0  0  0  0  0  0  0  0  0  0  0  0
  -22.3510  -13.0040   22.0190 N   0  0  0  0  0  0  0  0  0  0  0  0
  -22.6450  -14.7370   20.6500 O   0  0  0  0  0  0  0  0  0  0  0  0
  -22.7060  -12.1580   22.4410 H   0  0  0  0  0  0  0  0  0  0  0  0
  -21.4290  -13.3290   22.2710 H   0  0  0  0  0  0  0  0  0  0  0  0
  -25.7150  -15.3050   20.2520 N   0  0  0  0  0  0  0  0  0  0  0  0
  -24.9700  -15.9770   20.3930 H   0  0  0  0  0  0  0  0  0  0  0  0
  -26.5650  -15.7210   19.8970 H   0  0  0  0  0  0  0  0  0  0  0  0
  -28.0670  -24.4900   21.0390 C   0  0  0  0  0  2  0  0  0  0  0  0
  -28.6620  -25.4590   19.9990 C   0  0  0  0  0  2  0  0  0  0  0  0
  -28.5640  -26.8190   20.4380 O   0  0  0  0  0  0  0  0  0  0  0  0
  -24.5400  -31.9280   23.3000 C   0  0  0  0  0  0  0  0  0  0  0  0
  -27.3540  -27.4810   20.3780 C   0  0  0  0  0  0  0  0  0  0  0  0
  -23.4190  -30.5060   21.6140 C   0  0  0  0  0  3  0  0  0  0  0  0
  -24.9440  -28.9650   20.2750 C   0  0  0  0  0  0  0  0  0  0  0  0
  -25.9500  -30.8780   21.5340 C   0  0  0  0  0  2  0  0  0  0  0  0
  -26.0690  -29.5030   20.9100 C   0  0  0  0  0  0  0  0  0  0  0  0
  -27.2740  -28.7690   20.9570 C   0  0  0  0  0  3  0  0  0  0  0  0
  -26.2010  -26.9490   19.7520 C   0  0  0  0  0  3  0  0  0  0  0  0
  -25.0040  -27.6860   19.6980 C   0  0  0  0  0  3  0  0  0  0  0  0
  -23.6960  -29.8170   20.2520 C   0  0  0  0  0  2  0  0  0  0  0  0
  -24.6520  -31.1200   22.2080 N   0  0  0  0  0  0  0  0  0  0  0  0
  -23.4330  -32.1990   23.7860 O   0  0  0  0  0  0  0  0  0  0  0  0
  -22.7290  -29.4890   22.5510 C   0  0  0  0  0  0  0  0  0  0  0  0
  -21.4030  -29.3410   22.3990 N   0  0  0  0  0  0  0  0  0  0  0  0
  -23.3840  -28.8360   23.3680 O   0  0  0  0  0  0  0  0  0  0  0  0
  -20.9390  -29.9200   21.7130 H   0  0  0  0  0  0  0  0  0  0  0  0
  -17.9800  -28.3020   22.8980 C   0  0  0  0  0  0  0  0  0  0  0  0
  -20.5500  -28.4150   23.1420 C   0  0  0  0  0  3  0  0  0  0  0  0
  -20.5700  -27.0070   22.5030 C   0  0  0  0  0  2  0  0  0  0  0  0
  -19.4390  -26.7850   21.4950 C   0  0  0  0  0  2  0  0  0  0  0  0
  -18.0760  -26.9750   22.1660 C   0  0  0  0  0  2  0  0  0  0  0  0
  -19.1420  -28.9860   23.3430 C   0  0  0  0  0  0  0  0  0  0  0  0
  -19.0000  -30.2340   23.9870 C   0  0  0  0  0  3  0  0  0  0  0  0
  -17.7250  -30.7960   24.1930 C   0  0  0  0  0  3  0  0  0  0  0  0
  -16.5770  -30.1080   23.7660 C   0  0  0  0  0  3  0  0  0  0  0  0
  -16.7050  -28.8630   23.1250 C   0  0  0  0  0  3  0  0  0  0  0  0
  -25.7920  -32.5700   23.9750 C   0  0  0  0  0  3  0  0  0  0  0  0
  -25.4730  -33.9760   24.2540 N   0  0  0  0  0  0  0  0  0  0  0  0
  -25.8580  -35.0080   23.4920 C   0  0  0  0  0  0  0  0  0  0  0  0
  -26.5900  -34.8780   22.5070 O   0  0  0  0  0  0  0  0  0  0  0  0
  -24.8340  -34.1520   25.0150 H   0  0  0  0  0  0  0  0  0  0  0  0
  -24.1810  -36.8070   22.9710 C   0  0  0  0  0  1  0  0  0  0  0  0
  -25.3500  -36.4080   23.8850 C   0  0  0  0  0  3  0  0  0  0  0  0
  -27.4140  -37.2950   24.8760 C   0  0  0  0  0  1  0  0  0  0  0  0
  -26.3980  -37.4500   23.8380 N   0  0  0  0  0  0  0  0  0  0  0  0
  -25.9900  -38.3770   23.9300 H   0  0  0  0  0  0  0  0  0  0  0  0
  -26.2380  -31.8250   25.2930 C   0  0  1  0  0  0  0  0  0  0  0  0
  -25.0850  -31.5990   26.2990 C   0  0  0  0  0  1  0  0  0  0  0  0
  -26.8520  -30.4450   24.9610 C   0  0  0  0  0  1  0  0  0  0  0  0
  -27.3410  -32.6410   26.0080 C   0  0  0  0  0  1  0  0  0  0  0  0
  1  8  2  0
  1  3  1  0
  2  6  1  0
  3  7  2  0
  4  2  2  0
  4 51  1  0
  5  1  1  0
  7  2  1  0
  8  4  1  0
  9 10  1  0
  9  3  1  0
 10 11  1  0
 11 12  1  0
 13 21  1  0
 14 19  1  0
 15 16  1  0
 15 14  1  0
 17 16  1  0
 17 26  1  0
 17 18  1  0
 19 13  1  0
 19 18  1  0
 20 13  2  0
 21 12  1  0
 21 22  1  0
 23 24  2  0
 24 43  1  0
 25 24  1  0
 25 28  1  0
 26 27  1  0
 26 23  1  0
 27 25  2  0
 28 29  1  0
 29 30  2  0
 31 34  1  0
 31 30  1  0
 32 31  2  0
 33 32  1  0
 33 28  2  0
 34 35  1  0
 35 40  2  0
 35 36  1  0
 36 37  2  0
 37 38  1  0
 38 42  1  0
 39 38  2  0
 40 39  1  0
 41 40  1  0
 43 44  1  0
 44 47  1  0
 44 46  1  0
 45 43  2  0
 48 49  1  0
 48 23  1  0
 50 48  1  0
 52 53  1  0
 52 51  1  0
 54 65  2  0
 55 53  1  0
 55 60  1  0
 56 64  1  0
 56 66  1  0
 57 59  1  0
 58 64  1  0
 59 60  2  0
 59 58  1  0
 61 55  2  0
 62 61  1  0
 62 57  2  0
 63 57  1  0
 63 56  1  0
 64 54  1  0
 66 68  2  0
 67 66  1  0
 69 67  1  0
 70 79  2  0
 70 75  1  0
 71 67  1  0
 71 75  1  0
 72 71  1  0
 73 74  1  0
 73 72  1  0
 74 70  1  0
 75 76  2  0
 76 77  1  0
 78 77  2  0
 79 78  1  0
 80 54  1  0
 80 81  1  0
 80 90  1  0
 81 84  1  0
 82 86  1  0
 82 81  1  0
 83 82  2  0
 86 85  1  0
 88 86  1  0
 88 89  1  0
 88 87  1  0
 90 93  1  1
 90 91  1  0
 92 90  1  0
M  ISO  4  13 100  21 100  52 101  53 101
M  END
>  <TORSDO>  (87) 
F 22

>  <SCORE>  (87) 
-12.773

>  <name>  (87) 
87

>  <ligand_id>  (87) 
87

>  <original_smiles>  (87) 
[H]c1c([H])c([H])c2c(c1[H])C([H])([H])C([H])([H])C([H])([H])C2([H])N([H])C(=O)C1([H])N(C(=O)C([H])(N([H])C(=O)C([H])(N([H])C([H])([H])[H])C([H])([H])[H])C(C([H])([H])[H])(C([H])([H])[H])C([H])([H])[H])C([H])([H])c2c([H])c(OC([H])([H])C([H])([H])c3nc(C([H])([H])[H])c(C([H])([H])C([H])([H])C([H])([H])C([H])([H])N([H])C(=O)N4C([H])([H])C([H])([H])C([H])([H])C([H])(n5nc(-c6c([H])c([H])c(Oc7c([H])c([H])c(F)c([H])c7F)c([H])c6[H])c(C(=O)N([H])[H])c5N([H])[H])C4([H])[H])nc3C([H])([H])[H])c([H])c([H])c2C1([H])[H]

>  <smiles>  (87) 
[H]c1c([H])c([H])c2c(c1[H])C([H])([H])C([H])([H])C([H])([H])C2([H])N([H])C(=O)C1([H])N(C(=O)C([H])(N([H])C(=O)C([H])(N([H])C([H])([H])[H])C([H])([H])[H])C(C([H])([H])[H])(C([H])([H])[H])C([H])([H])[H])C([H])([H])c2c([H])c(OC([H])([H])C([H])([H])c3nc(C([H])([H])[H])c(C([H])([H])C([H])([H])C([H])([H])C([H])([H])N([H])C(=O)N4C([H])([H])C([H])([H])C([H])([H])C([H])(n5nc(-c6c([H])c([H])c(Oc7c([H])c([H])c(F)c([H])c7F)c([H])c6[H])c(C(=O)N([H])[H])c5N([H])[H])C4([H])[H])nc3C([H])([H])[H])c([H])c([H])c2C1([H])[H]

$$$$
88:0:0
     RDKit          3D

 94102  0  0  1  0  0  0  0  0999 V2000
  -29.0150  -21.5310   19.8980 C   0  0  0  0  0  3  0  0  0  0  0  0
  -30.3090  -23.3140   20.8600 C   0  0  0  0  0  3  0  0  0  0  0  0
  -29.2090  -22.9590   20.0640 C   0  0  0  0  0  0  0  0  0  0  0  0
  -29.8580  -20.5460   20.5480 C   0  0  0  0  0  0  0  0  0  0  0  0
  -30.8700  -21.0950   21.3840 C   0  0  0  0  0  0  0  0  0  0  0  0
  -31.0990  -22.4250   21.4890 N   0  0  0  0  0  0  0  0  0  0  0  0
  -28.3410  -24.1100   19.3860 C   0  0  0  0  0  2  0  0  0  0  0  0
  -28.1030  -25.5200   20.1390 C   0  0  0  0  0  2  0  0  0  0  0  0
  -28.0570  -26.8100   19.3960 O   0  0  0  0  0  0  0  0  0  0  0  0
  -24.4940  -31.9250   23.0890 C   0  0  0  0  0  0  0  0  0  0  0  0
  -26.9330  -27.6390   19.5410 C   0  0  0  0  0  0  0  0  0  0  0  0
  -23.1940  -30.6470   21.4220 C   0  0  0  0  0  3  0  0  0  0  0  0
  -24.5610  -29.2210   19.7940 C   0  0  0  0  0  0  0  0  0  0  0  0
  -25.7140  -31.0060   21.1010 C   0  0  0  0  0  2  0  0  0  0  0  0
  -25.7620  -29.6800   20.3500 C   0  0  0  0  0  0  0  0  0  0  0  0
  -26.9530  -28.9040   20.2090 C   0  0  0  0  0  3  0  0  0  0  0  0
  -25.7100  -27.2290   18.9720 C   0  0  0  0  0  3  0  0  0  0  0  0
  -24.5370  -28.0020   19.0950 C   0  0  0  0  0  3  0  0  0  0  0  0
  -23.3240  -30.0790   19.9840 C   0  0  0  0  0  2  0  0  0  0  0  0
  -24.4900  -31.2060   21.9280 N   0  0  0  0  0  0  0  0  0  0  0  0
  -23.4450  -32.1480   23.7090 O   0  0  0  0  0  0  0  0  0  0  0  0
  -22.5980  -29.5540   22.3400 C   0  0  0  0  0  0  0  0  0  0  0  0
  -21.2710  -29.3580   22.2650 N   0  0  0  0  0  0  0  0  0  0  0  0
  -23.3270  -28.8870   23.0790 O   0  0  0  0  0  0  0  0  0  0  0  0
  -20.7380  -29.9480   21.6420 H   0  0  0  0  0  0  0  0  0  0  0  0
  -17.9530  -28.0160   22.7900 C   0  0  0  0  0  0  0  0  0  0  0  0
  -20.5080  -28.3510   23.0060 C   0  0  0  0  0  3  0  0  0  0  0  0
  -20.6430  -26.9570   22.3530 C   0  0  0  0  0  2  0  0  0  0  0  0
  -19.5250  -26.6480   21.3530 C   0  0  0  0  0  2  0  0  0  0  0  0
  -18.1570  -26.7120   22.0370 C   0  0  0  0  0  2  0  0  0  0  0  0
  -19.0570  -28.7940   23.2310 C   0  0  0  0  0  0  0  0  0  0  0  0
  -18.8110  -30.0140   23.8970 C   0  0  0  0  0  3  0  0  0  0  0  0
  -17.4960  -30.4590   24.1250 C   0  0  0  0  0  3  0  0  0  0  0  0
  -16.4070  -29.6780   23.6990 C   0  0  0  0  0  3  0  0  0  0  0  0
  -16.6370  -28.4570   23.0380 C   0  0  0  0  0  3  0  0  0  0  0  0
  -25.8100  -32.5180   23.6780 C   0  0  0  0  0  3  0  0  0  0  0  0
  -25.5300  -33.9020   24.0880 N   0  0  0  0  0  0  0  0  0  0  0  0
  -25.8640  -34.9880   23.3780 C   0  0  0  0  0  0  0  0  0  0  0  0
  -26.5100  -34.9290   22.3280 O   0  0  0  0  0  0  0  0  0  0  0  0
  -24.9570  -34.0240   24.9090 H   0  0  0  0  0  0  0  0  0  0  0  0
  -24.1580  -36.8250   23.1610 C   0  0  0  0  0  1  0  0  0  0  0  0
  -25.4110  -36.3590   23.9190 C   0  0  0  0  0  3  0  0  0  0  0  0
  -27.5750  -37.1700   24.7450 C   0  0  0  0  0  1  0  0  0  0  0  0
  -26.4570  -37.4010   23.8350 N   0  0  0  0  0  0  0  0  0  0  0  0
  -26.0690  -38.3180   24.0350 H   0  0  0  0  0  0  0  0  0  0  0  0
  -26.3760  -31.6860   24.8940 C   0  0  1  0  0  0  0  0  0  0  0  0
  -25.3350  -31.4220   26.0070 C   0  0  0  0  0  1  0  0  0  0  0  0
  -26.9120  -30.3170   24.4150 C   0  0  0  0  0  1  0  0  0  0  0  0
  -27.5760  -32.4310   25.5260 C   0  0  0  0  0  1  0  0  0  0  0  0
  -29.5880  -18.9700   20.5200 C   0  0  0  0  0  3  0  0  0  0  0  0
  -30.7730  -17.8720   20.4110 C   0  0  0  0  0  3  0  0  0  0  0  0
  -31.1940  -15.2840   20.1810 C   0  0  0  0  0  0  0  0  0  0  0  0
  -31.0560  -12.9830   19.2240 C   0  0  0  0  0  2  0  0  0  0  0  0
  -30.1550  -13.0090   17.9690 C   0  0  0  0  0  2  0  0  0  0  0  0
  -28.6740  -12.8370   18.3560 C   0  0  0  0  0  2  0  0  0  0  0  0
  -28.2530  -13.7600   19.5300 C   0  0  0  0  0  3  0  0  0  0  0  0
  -29.2730  -13.7080   20.6880 C   0  0  0  0  0  2  0  0  0  0  0  0
  -30.5850  -14.0540   20.1290 N   0  0  0  0  0  0  0  0  0  0  0  0
  -32.3830  -15.4070   19.8710 O   0  0  0  0  0  0  0  0  0  0  0  0
  -30.3990  -16.3940   20.3950 N   0  0  0  0  0  0  0  0  0  0  0  0
  -29.4320  -16.1830   20.5880 H   0  0  0  0  0  0  0  0  0  0  0  0
  -25.8230  -14.3420   20.1140 C   0  0  0  0  0  0  0  0  0  0  0  0
  -24.7610  -13.5700   20.4980 C   0  0  0  0  0  0  0  0  0  0  0  0
  -25.2560  -12.2320   20.5860 C   0  0  0  0  0  0  0  0  0  0  0  0
  -26.8960  -13.4750   19.9850 N   0  0  0  0  0  0  0  0  0  0  0  0
  -26.5580  -12.2060   20.3310 N   0  0  0  0  0  0  0  0  0  0  0  0
  -24.5530  -10.9680   20.8400 C   0  0  0  0  0  0  0  0  0  0  0  0
  -24.9340  -10.1100   21.8950 C   0  0  0  0  0  3  0  0  0  0  0  0
  -24.2280   -8.9100   22.1320 C   0  0  0  0  0  3  0  0  0  0  0  0
  -23.1310   -8.5580   21.3110 C   0  0  0  0  0  0  0  0  0  0  0  0
  -22.7700   -9.4040   20.2480 C   0  0  0  0  0  3  0  0  0  0  0  0
  -23.4760  -10.5970   20.0110 C   0  0  0  0  0  3  0  0  0  0  0  0
  -22.4040   -7.4000   21.4490 O   0  0  0  0  0  0  0  0  0  0  0  0
  -22.2110   -6.8140   22.6740 C   0  0  0  0  0  0  0  0  0  0  0  0
  -21.6110   -7.5110   23.7470 C   0  0  0  0  0  3  0  0  0  0  0  0
  -21.3660   -6.8490   24.9660 C   0  0  0  0  0  3  0  0  0  0  0  0
  -21.7120   -5.4920   25.1140 C   0  0  0  0  0  0  0  0  0  0  0  0
  -22.3050   -4.7960   24.0450 C   0  0  0  0  0  3  0  0  0  0  0  0
  -22.5490   -5.4550   22.8280 C   0  0  0  0  0  0  0  0  0  0  0  0
  -23.1010   -4.7740   21.7940 F   0  0  0  0  0  0  0  0  0  0  0  0
  -21.4710   -4.8540   26.2830 F   0  0  0  0  0  0  0  0  0  0  0  0
  -23.3430  -14.0280   20.6780 C   0  0  0  0  0  0  0  0  0  0  0  0
  -22.6060  -13.3950   21.5840 N   0  0  0  0  0  0  0  0  0  0  0  0
  -22.8960  -14.9850   20.0480 O   0  0  0  0  0  0  0  0  0  0  0  0
  -22.9810  -12.6210   22.1130 H   0  0  0  0  0  0  0  0  0  0  0  0
  -21.6530  -13.6870   21.7510 H   0  0  0  0  0  0  0  0  0  0  0  0
  -25.9600  -15.7000   19.8410 N   0  0  0  0  0  0  0  0  0  0  0  0
  -25.1700  -16.3340   19.8750 H   0  0  0  0  0  0  0  0  0  0  0  0
  -26.7990  -16.1320   19.4780 H   0  0  0  0  0  0  0  0  0  0  0  0
  -31.7520  -20.2530   22.3170 C   0  0  0  0  0  3  0  0  0  0  0  0
  -32.1030  -20.1930   24.8840 C   0  0  0  0  0  1  0  0  0  0  0  0
  -32.1150  -21.0410   23.6020 C   0  0  0  0  0  2  0  0  0  0  0  0
  -33.6000  -18.4290   22.1740 C   0  0  0  0  0  1  0  0  0  0  0  0
  -32.9770  -19.6890   21.5560 C   0  0  0  0  0  2  0  0  0  0  0  0
  1  3  2  0
  1  4  1  0
  2  6  2  0
  3  2  1  0
  4  5  2  0
  5  6  1  0
  5 90  1  0
  7  3  1  0
  7  8  1  0
  9 11  1  0
  9  8  1  0
 10 21  2  0
 11 16  1  0
 12 20  1  0
 12 22  1  0
 13 19  1  0
 13 15  1  0
 14 20  1  0
 15 14  1  0
 16 15  2  0
 17 18  1  0
 17 11  2  0
 18 13  2  0
 19 12  1  0
 20 10  1  0
 22 24  2  0
 23 22  1  0
 25 23  1  0
 26 35  2  0
 26 31  1  0
 27 23  1  0
 27 31  1  0
 28 27  1  0
 29 30  1  0
 29 28  1  0
 30 26  1  0
 31 32  2  0
 32 33  1  0
 34 33  2  0
 35 34  1  0
 36 10  1  0
 36 37  1  0
 36 46  1  0
 37 40  1  0
 38 42  1  0
 38 37  1  0
 39 38  2  0
 42 41  1  0
 44 42  1  0
 44 45  1  0
 44 43  1  0
 46 49  1  1
 46 47  1  0
 48 46  1  0
 50  4  1  0
 51 50  2  0
 52 60  1  0
 53 58  1  0
 54 55  1  0
 54 53  1  0
 56 55  1  0
 56 65  1  0
 56 57  1  0
 58 52  1  0
 58 57  1  0
 59 52  2  0
 60 51  1  0
 60 61  1  0
 62 63  2  0
 63 64  1  0
 63 82  1  0
 64 67  1  0
 65 62  1  0
 65 66  1  0
 66 64  2  0
 67 68  1  0
 68 69  2  0
 70 73  1  0
 70 69  1  0
 71 70  2  0
 72 71  1  0
 72 67  2  0
 73 74  1  0
 74 79  2  0
 74 75  1  0
 75 76  2  0
 76 77  1  0
 77 81  1  0
 78 77  2  0
 79 78  1  0
 80 79  1  0
 82 83  1  0
 83 86  1  0
 83 85  1  0
 84 82  2  0
 87 88  1  0
 87 62  1  0
 89 87  1  0
 90 92  1  0
 92 91  1  0
 94 93  1  0
 94 90  1  0
M  ISO  4   8 101   9 101  52 100  60 100
M  END
>  <TORSDO>  (88) 
F 23

>  <SCORE>  (88) 
-8.080

>  <name>  (88) 
88

>  <ligand_id>  (88) 
88

>  <original_smiles>  (88) 
[H]c1nc(C([H])(C([H])([H])C([H])([H])[H])C([H])([H])C([H])([H])[H])c(C([H])([H])C([H])([H])N([H])C(=O)N2C([H])([H])C([H])([H])C([H])([H])C([H])(n3nc(-c4c([H])c([H])c(Oc5c([H])c([H])c(F)c([H])c5F)c([H])c4[H])c(C(=O)N([H])[H])c3N([H])[H])C2([H])[H])c([H])c1C([H])([H])C([H])([H])Oc1c([H])c([H])c2c(c1[H])C([H])([H])N(C(=O)C([H])(N([H])C(=O)C([H])(N([H])C([H])([H])[H])C([H])([H])[H])C(C([H])([H])[H])(C([H])([H])[H])C([H])([H])[H])C([H])(C(=O)N([H])C1([H])c3c([H])c([H])c([H])c([H])c3C([H])([H])C([H])([H])C1([H])[H])C2([H])[H]

>  <smiles>  (88) 
[H]c1nc(C([H])(C([H])([H])C([H])([H])[H])C([H])([H])C([H])([H])[H])c(C([H])([H])C([H])([H])N([H])C(=O)N2C([H])([H])C([H])([H])C([H])([H])C([H])(n3nc(-c4c([H])c([H])c(Oc5c([H])c([H])c(F)c([H])c5F)c([H])c4[H])c(C(=O)N([H])[H])c3N([H])[H])C2([H])[H])c([H])c1C([H])([H])C([H])([H])Oc1c([H])c([H])c2c(c1[H])C([H])([H])N(C(=O)C([H])(N([H])C(=O)C([H])(N([H])C([H])([H])[H])C([H])([H])[H])C(C([H])([H])[H])(C([H])([H])[H])C([H])([H])[H])C([H])(C(=O)N([H])C1([H])c3c([H])c([H])c([H])c([H])c3C([H])([H])C([H])([H])C1([H])[H])C2([H])[H]

$$$$
89:0:0
     RDKit          3D

 92100  0  0  1  0  0  0  0  0999 V2000
  -29.6300  -21.8270   20.7130 C   0  0  0  0  0  3  0  0  0  0  0  0
  -28.3070  -19.6590   19.7100 C   0  0  0  0  0  3  0  0  0  0  0  0
  -30.2260  -20.5050   20.7720 C   0  0  0  0  0  0  0  0  0  0  0  0
  -29.5700  -19.3100   20.2830 C   0  0  0  0  0  0  0  0  0  0  0  0
  -28.3690  -22.0770   20.1100 C   0  0  0  0  0  0  0  0  0  0  0  0
  -27.7660  -20.9380   19.6150 N   0  0  0  0  0  0  0  0  0  0  0  0
  -26.1700  -23.3140   20.4290 C   0  0  0  0  0  1  0  0  0  0  0  0
  -27.6010  -23.5270   19.8950 C   0  0  0  0  0  3  0  0  0  0  0  0
  -28.0820  -25.0310   20.4410 C   0  0  0  0  0  2  0  0  0  0  0  0
  -27.9330  -26.4380   19.8020 O   0  0  0  0  0  0  0  0  0  0  0  0
  -24.4990  -32.0000   23.2020 C   0  0  0  0  0  0  0  0  0  0  0  0
  -26.8410  -27.3510   19.9390 C   0  0  0  0  0  0  0  0  0  0  0  0
  -23.1900  -30.6570   21.6010 C   0  0  0  0  0  3  0  0  0  0  0  0
  -24.5330  -29.0940   20.0710 C   0  0  0  0  0  0  0  0  0  0  0  0
  -25.7290  -30.9040   21.2970 C   0  0  0  0  0  2  0  0  0  0  0  0
  -25.7470  -29.5250   20.6220 C   0  0  0  0  0  0  0  0  0  0  0  0
  -26.9040  -28.6690   20.5360 C   0  0  0  0  0  3  0  0  0  0  0  0
  -25.6100  -27.0190   19.3430 C   0  0  0  0  0  3  0  0  0  0  0  0
  -24.4740  -27.8520   19.4180 C   0  0  0  0  0  3  0  0  0  0  0  0
  -23.3220  -30.0030   20.2000 C   0  0  0  0  0  2  0  0  0  0  0  0
  -24.4950  -31.2080   22.0880 N   0  0  0  0  0  0  0  0  0  0  0  0
  -23.4500  -32.2840   23.7980 O   0  0  0  0  0  0  0  0  0  0  0  0
  -22.5550  -29.6350   22.5770 C   0  0  0  0  0  0  0  0  0  0  0  0
  -21.2380  -29.4010   22.4450 N   0  0  0  0  0  0  0  0  0  0  0  0
  -23.2510  -29.0540   23.4150 O   0  0  0  0  0  0  0  0  0  0  0  0
  -20.7330  -29.9200   21.7420 H   0  0  0  0  0  0  0  0  0  0  0  0
  -17.9400  -27.9630   22.8560 C   0  0  0  0  0  0  0  0  0  0  0  0
  -20.4540  -28.4400   23.2260 C   0  0  0  0  0  3  0  0  0  0  0  0
  -20.6950  -26.9940   22.7330 C   0  0  0  0  0  2  0  0  0  0  0  0
  -19.6720  -26.5350   21.6890 C   0  0  0  0  0  2  0  0  0  0  0  0
  -18.2530  -26.6000   22.2610 C   0  0  0  0  0  2  0  0  0  0  0  0
  -18.9740  -28.8330   23.2950 C   0  0  0  0  0  0  0  0  0  0  0  0
  -18.6280  -30.1010   23.8110 C   0  0  0  0  0  3  0  0  0  0  0  0
  -17.2810  -30.5020   23.8930 C   0  0  0  0  0  3  0  0  0  0  0  0
  -16.2610  -29.6310   23.4710 C   0  0  0  0  0  3  0  0  0  0  0  0
  -16.5910  -28.3640   22.9590 C   0  0  0  0  0  3  0  0  0  0  0  0
  -25.8210  -32.6030   23.7700 C   0  0  0  0  0  3  0  0  0  0  0  0
  -25.5510  -34.0000   24.1400 N   0  0  0  0  0  0  0  0  0  0  0  0
  -25.8730  -35.0660   23.3930 C   0  0  0  0  0  0  0  0  0  0  0  0
  -26.4970  -34.9720   22.3320 O   0  0  0  0  0  0  0  0  0  0  0  0
  -24.9910  -34.1490   24.9660 H   0  0  0  0  0  0  0  0  0  0  0  0
  -24.1750  -36.9070   23.1500 C   0  0  0  0  0  1  0  0  0  0  0  0
  -25.4360  -36.4540   23.9010 C   0  0  0  0  0  3  0  0  0  0  0  0
  -27.6140  -37.2790   24.6800 C   0  0  0  0  0  1  0  0  0  0  0  0
  -26.4880  -37.4860   23.7730 N   0  0  0  0  0  0  0  0  0  0  0  0
  -26.1070  -38.4130   23.9460 H   0  0  0  0  0  0  0  0  0  0  0  0
  -26.3840  -31.8050   25.0100 C   0  0  1  0  0  0  0  0  0  0  0  0
  -25.3300  -31.5350   26.1090 C   0  0  0  0  0  1  0  0  0  0  0  0
  -26.9630  -30.4400   24.5710 C   0  0  0  0  0  1  0  0  0  0  0  0
  -27.5510  -32.5920   25.6520 C   0  0  0  0  0  1  0  0  0  0  0  0
  -31.6450  -20.4380   21.3240 C   0  0  0  0  0  2  0  0  0  0  0  0
  -33.1100  -20.7020   23.3920 C   0  0  0  0  0  1  0  0  0  0  0  0
  -31.6960  -20.4390   22.8590 C   0  0  0  0  0  2  0  0  0  0  0  0
  -30.3290  -17.8390   20.1860 C   0  0  0  0  0  2  0  0  0  0  0  0
  -30.5890  -15.1840   20.1400 C   0  0  0  0  0  0  0  0  0  0  0  0
  -30.5000  -12.8200   19.2600 C   0  0  0  0  0  2  0  0  0  0  0  0
  -29.5500  -12.7270   18.0450 C   0  0  0  0  0  2  0  0  0  0  0  0
  -28.1020  -12.4840   18.5110 C   0  0  0  0  0  2  0  0  0  0  0  0
  -27.6850  -13.4280   19.6710 C   0  0  0  0  0  3  0  0  0  0  0  0
  -28.7580  -13.5080   20.7770 C   0  0  0  0  0  2  0  0  0  0  0  0
  -30.0090  -13.9230   20.1320 N   0  0  0  0  0  0  0  0  0  0  0  0
  -31.7840  -15.2620   19.8330 O   0  0  0  0  0  0  0  0  0  0  0  0
  -29.8200  -16.3630   20.2780 N   0  0  0  0  0  0  0  0  0  0  0  0
  -28.8400  -16.2300   20.4800 H   0  0  0  0  0  0  0  0  0  0  0  0
  -25.3190  -13.9420   20.4990 C   0  0  0  0  0  0  0  0  0  0  0  0
  -24.2810  -13.1360   20.8800 C   0  0  0  0  0  0  0  0  0  0  0  0
  -24.7700  -11.7960   20.8000 C   0  0  0  0  0  0  0  0  0  0  0  0
  -26.3690  -13.0910   20.2020 N   0  0  0  0  0  0  0  0  0  0  0  0
  -26.0510  -11.7940   20.4490 N   0  0  0  0  0  0  0  0  0  0  0  0
  -24.0730  -10.5150   20.9770 C   0  0  0  0  0  0  0  0  0  0  0  0
  -24.4870   -9.5770   21.9480 C   0  0  0  0  0  3  0  0  0  0  0  0
  -23.7870   -8.3620   22.1130 C   0  0  0  0  0  3  0  0  0  0  0  0
  -22.6600   -8.0770   21.3060 C   0  0  0  0  0  0  0  0  0  0  0  0
  -22.2670   -9.0040   20.3250 C   0  0  0  0  0  3  0  0  0  0  0  0
  -22.9670  -10.2100   20.1580 C   0  0  0  0  0  3  0  0  0  0  0  0
  -21.9350   -6.9110   21.3770 O   0  0  0  0  0  0  0  0  0  0  0  0
  -21.7790   -6.2330   22.5600 C   0  0  0  0  0  0  0  0  0  0  0  0
  -21.1400   -6.8170   23.6760 C   0  0  0  0  0  3  0  0  0  0  0  0
  -20.9380   -6.0610   24.8470 C   0  0  0  0  0  3  0  0  0  0  0  0
  -21.3630   -4.7200   24.9030 C   0  0  0  0  0  0  0  0  0  0  0  0
  -21.9930   -4.1350   23.7910 C   0  0  0  0  0  3  0  0  0  0  0  0
  -22.1980   -4.8890   22.6210 C   0  0  0  0  0  0  0  0  0  0  0  0
  -22.7870   -4.3130   21.5460 F   0  0  0  0  0  0  0  0  0  0  0  0
  -21.1620   -3.9910   26.0250 F   0  0  0  0  0  0  0  0  0  0  0  0
  -22.8840  -13.5790   21.2030 C   0  0  0  0  0  0  0  0  0  0  0  0
  -22.1930  -12.8460   22.0700 N   0  0  0  0  0  0  0  0  0  0  0  0
  -22.4140  -14.6100   20.7240 O   0  0  0  0  0  0  0  0  0  0  0  0
  -22.5860  -12.0130   22.4800 H   0  0  0  0  0  0  0  0  0  0  0  0
  -21.2560  -13.1250   22.3290 H   0  0  0  0  0  0  0  0  0  0  0  0
  -25.4480  -15.3190   20.3510 N   0  0  0  0  0  0  0  0  0  0  0  0
  -24.6670  -15.9500   20.4990 H   0  0  0  0  0  0  0  0  0  0  0  0
  -26.2630  -15.7830   19.9730 H   0  0  0  0  0  0  0  0  0  0  0  0
  1  3  1  0
  2  4  1  0
  3 51  1  0
  4  3  2  0
  5  1  2  0
  6  2  2  0
  6  5  1  0
  8  5  1  0
  8  7  1  0
  8  9  1  0
 10 12  1  0
 10  9  1  0
 11 22  2  0
 12 17  1  0
 13 21  1  0
 13 23  1  0
 14 20  1  0
 14 16  1  0
 15 21  1  0
 16 15  1  0
 17 16  2  0
 18 19  1  0
 18 12  2  0
 19 14  2  0
 20 13  1  0
 21 11  1  0
 23 25  2  0
 24 23  1  0
 26 24  1  0
 27 36  2  0
 27 32  1  0
 28 24  1  0
 28 32  1  0
 29 28  1  0
 30 31  1  0
 30 29  1  0
 31 27  1  0
 32 33  2  0
 33 34  1  0
 35 34  2  0
 36 35  1  0
 37 11  1  0
 37 38  1  0
 37 47  1  0
 38 41  1  0
 39 43  1  0
 39 38  1  0
 40 39  2  0
 43 42  1  0
 45 43  1  0
 45 46  1  0
 45 44  1  0
 47 50  1  1
 47 48  1  0
 49 47  1  0
 51 53  1  0
 53 52  1  0
 54 63  1  0
 54  4  1  0
 55 63  1  0
 56 61  1  0
 57 58  1  0
 57 56  1  0
 59 58  1  0
 59 68  1  0
 59 60  1  0
 61 55  1  0
 61 60  1  0
 62 55  2  0
 63 64  1  0
 65 66  2  0
 66 85  1  0
 67 66  1  0
 67 70  1  0
 68 69  1  0
 68 65  1  0
 69 67  2  0
 70 71  1  0
 71 72  2  0
 73 76  1  0
 73 72  1  0
 74 73  2  0
 75 74  1  0
 75 70  2  0
 76 77  1  0
 77 82  2  0
 77 78  1  0
 78 79  2  0
 79 80  1  0
 80 84  1  0
 81 80  2  0
 82 81  1  0
 83 82  1  0
 85 86  1  0
 86 89  1  0
 86 88  1  0
 87 85  2  0
 90 65  1  0
 90 91  1  0
 92 90  1  0
M  ISO  4   9 101  10 101  55 100  63 100
M  END
>  <TORSDO>  (89) 
F 21

>  <SCORE>  (89) 
-13.569

>  <name>  (89) 
89

>  <ligand_id>  (89) 
89

>  <original_smiles>  (89) 
[H]c1nc(C([H])(C([H])([H])[H])C([H])([H])Oc2c([H])c([H])c3c(c2[H])C([H])([H])N(C(=O)C([H])(N([H])C(=O)C([H])(N([H])C([H])([H])[H])C([H])([H])[H])C(C([H])([H])[H])(C([H])([H])[H])C([H])([H])[H])C([H])(C(=O)N([H])C2([H])c4c([H])c([H])c([H])c([H])c4C([H])([H])C([H])([H])C2([H])[H])C3([H])[H])c([H])c(C([H])([H])C([H])([H])C([H])([H])[H])c1C([H])([H])N([H])C(=O)N1C([H])([H])C([H])([H])C([H])([H])C([H])(n2nc(-c3c([H])c([H])c(Oc4c([H])c([H])c(F)c([H])c4F)c([H])c3[H])c(C(=O)N([H])[H])c2N([H])[H])C1([H])[H]

>  <smiles>  (89) 
[H]c1nc(C([H])(C([H])([H])[H])C([H])([H])Oc2c([H])c([H])c3c(c2[H])C([H])([H])N(C(=O)C([H])(N([H])C(=O)C([H])(N([H])C([H])([H])[H])C([H])([H])[H])C(C([H])([H])[H])(C([H])([H])[H])C([H])([H])[H])C([H])(C(=O)N([H])C2([H])c4c([H])c([H])c([H])c([H])c4C([H])([H])C([H])([H])C2([H])[H])C3([H])[H])c([H])c(C([H])([H])C([H])([H])C([H])([H])[H])c1C([H])([H])N([H])C(=O)N1C([H])([H])C([H])([H])C([H])([H])C([H])(n2nc(-c3c([H])c([H])c(Oc4c([H])c([H])c(F)c([H])c4F)c([H])c3[H])c(C(=O)N([H])[H])c2N([H])[H])C1([H])[H]

$$$$
90:0:0
     RDKit          3D

 91 99  0  0  1  0  0  0  0  0999 V2000
  -29.0240  -21.1050   21.6080 C   0  0  0  0  0  3  0  0  0  0  0  0
  -28.2620  -19.5350   20.3100 C   0  0  0  0  0  3  0  0  0  0  0  0
  -27.9650  -21.5920   20.8700 C   0  0  0  0  0  0  0  0  0  0  0  0
  -27.4930  -20.5820   20.0330 N   0  0  0  0  0  0  0  0  0  0  0  0
  -29.1880  -19.7700   21.2480 N   0  0  0  0  0  0  0  0  0  0  0  0
  -27.2680  -22.9280   20.8910 C   0  0  0  0  0  2  0  0  0  0  0  0
  -28.0700  -24.1190   21.4640 C   0  0  0  0  0  2  0  0  0  0  0  0
  -28.5880  -25.0910   20.3860 C   0  0  0  0  0  2  0  0  0  0  0  0
  -29.1280  -26.4210   20.9590 C   0  0  0  0  0  2  0  0  0  0  0  0
  -29.0440  -27.4910   20.0150 O   0  0  0  0  0  0  0  0  0  0  0  0
  -24.6510  -31.9840   23.3550 C   0  0  0  0  0  0  0  0  0  0  0  0
  -27.8300  -28.1310   20.0240 C   0  0  0  0  0  0  0  0  0  0  0  0
  -23.6510  -30.6330   21.5410 C   0  0  0  0  0  3  0  0  0  0  0  0
  -25.3030  -29.3790   20.0540 C   0  0  0  0  0  0  0  0  0  0  0  0
  -26.1330  -31.2470   21.4970 C   0  0  0  0  0  2  0  0  0  0  0  0
  -26.3770  -29.9560   20.7480 C   0  0  0  0  0  0  0  0  0  0  0  0
  -27.6430  -29.3330   20.7410 C   0  0  0  0  0  3  0  0  0  0  0  0
  -26.7510  -27.5780   19.3050 C   0  0  0  0  0  3  0  0  0  0  0  0
  -25.4830  -28.1860   19.3320 C   0  0  0  0  0  3  0  0  0  0  0  0
  -23.9790  -30.1050   20.1180 C   0  0  0  0  0  2  0  0  0  0  0  0
  -24.8260  -31.2990   22.1910 N   0  0  0  0  0  0  0  0  0  0  0  0
  -23.5290  -32.1060   23.8670 O   0  0  0  0  0  0  0  0  0  0  0  0
  -23.0680  -29.4710   22.3760 C   0  0  0  0  0  0  0  0  0  0  0  0
  -21.7650  -29.2000   22.1930 N   0  0  0  0  0  0  0  0  0  0  0  0
  -23.7830  -28.8210   23.1420 O   0  0  0  0  0  0  0  0  0  0  0  0
  -21.2460  -29.7830   21.5530 H   0  0  0  0  0  0  0  0  0  0  0  0
  -18.4760  -27.7430   22.5190 C   0  0  0  0  0  0  0  0  0  0  0  0
  -21.0100  -28.1290   22.8430 C   0  0  0  0  0  3  0  0  0  0  0  0
  -21.2070  -26.7840   22.1070 C   0  0  0  0  0  2  0  0  0  0  0  0
  -20.1300  -26.5120   21.0520 C   0  0  0  0  0  2  0  0  0  0  0  0
  -18.7410  -26.4950   21.6950 C   0  0  0  0  0  2  0  0  0  0  0  0
  -19.5430  -28.5200   23.0450 C   0  0  0  0  0  0  0  0  0  0  0  0
  -19.2420  -29.6910   23.7750 C   0  0  0  0  0  3  0  0  0  0  0  0
  -17.9080  -30.0870   23.9820 C   0  0  0  0  0  3  0  0  0  0  0  0
  -16.8560  -29.3060   23.4730 C   0  0  0  0  0  3  0  0  0  0  0  0
  -17.1410  -28.1350   22.7490 C   0  0  0  0  0  3  0  0  0  0  0  0
  -25.8470  -32.6720   24.0870 C   0  0  0  0  0  3  0  0  0  0  0  0
  -25.4510  -34.0560   24.3760 N   0  0  0  0  0  0  0  0  0  0  0  0
  -25.7970  -35.1160   23.6340 C   0  0  0  0  0  0  0  0  0  0  0  0
  -26.5520  -35.0350   22.6600 O   0  0  0  0  0  0  0  0  0  0  0  0
  -24.7860  -34.1890   25.1250 H   0  0  0  0  0  0  0  0  0  0  0  0
  -24.0140  -36.8150   23.1300 C   0  0  0  0  0  1  0  0  0  0  0  0
  -25.2100  -36.4820   24.0350 C   0  0  0  0  0  3  0  0  0  0  0  0
  -27.2360  -37.4770   25.0010 C   0  0  0  0  0  1  0  0  0  0  0  0
  -26.1950  -37.5850   23.9830 N   0  0  0  0  0  0  0  0  0  0  0  0
  -25.7350  -38.4850   24.0930 H   0  0  0  0  0  0  0  0  0  0  0  0
  -26.2820  -31.9250   25.4060 C   0  0  1  0  0  0  0  0  0  0  0  0
  -25.1060  -31.6250   26.3650 C   0  0  0  0  0  1  0  0  0  0  0  0
  -26.9730  -30.5830   25.0710 C   0  0  0  0  0  1  0  0  0  0  0  0
  -27.3200  -32.7770   26.1750 C   0  0  0  0  0  1  0  0  0  0  0  0
  -30.1250  -18.8080   21.8010 C   0  0  0  0  0  2  0  0  0  0  0  0
  -30.9610  -18.1010   20.7190 C   0  0  0  0  0  2  0  0  0  0  0  0
  -31.8250  -16.9510   21.2850 C   0  0  0  0  0  2  0  0  0  0  0  0
  -31.6940  -14.7000   20.1910 C   0  0  0  0  0  0  0  0  0  0  0  0
  -31.2110  -12.5540   19.0730 C   0  0  0  0  0  2  0  0  0  0  0  0
  -30.2740  -12.7730   17.8690 C   0  0  0  0  0  2  0  0  0  0  0  0
  -28.8000  -12.7430   18.3130 C   0  0  0  0  0  2  0  0  0  0  0  0
  -28.5300  -13.6590   19.5370 C   0  0  0  0  0  3  0  0  0  0  0  0
  -29.5720  -13.4100   20.6500 C   0  0  0  0  0  2  0  0  0  0  0  0
  -30.9190  -13.5910   20.0740 N   0  0  0  0  0  0  0  0  0  0  0  0
  -32.7490  -14.8590   19.5690 O   0  0  0  0  0  0  0  0  0  0  0  0
  -31.2240  -15.6410   21.0210 N   0  0  0  0  0  0  0  0  0  0  0  0
  -30.3660  -15.4190   21.5020 H   0  0  0  0  0  0  0  0  0  0  0  0
  -26.2090  -14.4660   20.3130 C   0  0  0  0  0  0  0  0  0  0  0  0
  -25.0800  -13.7840   20.6770 C   0  0  0  0  0  0  0  0  0  0  0  0
  -25.4100  -12.3970   20.5910 C   0  0  0  0  0  0  0  0  0  0  0  0
  -27.1630  -13.4990   20.0300 N   0  0  0  0  0  0  0  0  0  0  0  0
  -26.6850  -12.2490   20.2540 N   0  0  0  0  0  0  0  0  0  0  0  0
  -24.5740  -11.2010   20.7560 C   0  0  0  0  0  0  0  0  0  0  0  0
  -24.9310  -10.1670   21.6480 C   0  0  0  0  0  3  0  0  0  0  0  0
  -24.1020   -9.0340   21.8010 C   0  0  0  0  0  3  0  0  0  0  0  0
  -22.9010   -8.9310   21.0620 C   0  0  0  0  0  0  0  0  0  0  0  0
  -22.5600   -9.9520   20.1580 C   0  0  0  0  0  3  0  0  0  0  0  0
  -23.3890  -11.0760   20.0030 C   0  0  0  0  0  3  0  0  0  0  0  0
  -22.0450   -7.8570   21.1270 O   0  0  0  0  0  0  0  0  0  0  0  0
  -21.9210   -7.1060   22.2670 C   0  0  0  0  0  0  0  0  0  0  0  0
  -21.5470   -7.6790   23.5030 C   0  0  0  0  0  3  0  0  0  0  0  0
  -21.3610   -6.8580   24.6320 C   0  0  0  0  0  3  0  0  0  0  0  0
  -21.5410   -5.4650   24.5300 C   0  0  0  0  0  0  0  0  0  0  0  0
  -21.9080   -4.8930   23.2990 C   0  0  0  0  0  3  0  0  0  0  0  0
  -22.0950   -5.7110   22.1710 C   0  0  0  0  0  0  0  0  0  0  0  0
  -22.4290   -5.1510   20.9840 F   0  0  0  0  0  0  0  0  0  0  0  0
  -21.3560   -4.6750   25.6130 F   0  0  0  0  0  0  0  0  0  0  0  0
  -23.7390  -14.3800   20.9960 C   0  0  0  0  0  0  0  0  0  0  0  0
  -22.9700  -13.7330   21.8660 N   0  0  0  0  0  0  0  0  0  0  0  0
  -23.3830  -15.4520   20.5080 O   0  0  0  0  0  0  0  0  0  0  0  0
  -23.2710  -12.8630   22.2780 H   0  0  0  0  0  0  0  0  0  0  0  0
  -22.0710  -14.1140   22.1240 H   0  0  0  0  0  0  0  0  0  0  0  0
  -26.5000  -15.8200   20.1780 N   0  0  0  0  0  0  0  0  0  0  0  0
  -25.7930  -16.5360   20.3130 H   0  0  0  0  0  0  0  0  0  0  0  0
  -27.3760  -16.1870   19.8280 H   0  0  0  0  0  0  0  0  0  0  0  0
  2  5  1  0
  3  6  1  0
  3  1  2  0
  4  2  2  0
  4  3  1  0
  5  1  1  0
  5 51  1  0
  6  7  1  0
  8  9  1  0
  8  7  1  0
 10 12  1  0
 10  9  1  0
 11 22  2  0
 12 17  1  0
 13 21  1  0
 13 23  1  0
 14 20  1  0
 14 16  1  0
 15 21  1  0
 16 15  1  0
 17 16  2  0
 18 19  1  0
 18 12  2  0
 19 14  2  0
 20 13  1  0
 21 11  1  0
 23 25  2  0
 24 23  1  0
 26 24  1  0
 27 36  2  0
 27 32  1  0
 28 24  1  0
 28 32  1  0
 29 28  1  0
 30 31  1  0
 30 29  1  0
 31 27  1  0
 32 33  2  0
 33 34  1  0
 35 34  2  0
 36 35  1  0
 37 11  1  0
 37 38  1  0
 37 47  1  0
 38 41  1  0
 39 43  1  0
 39 38  1  0
 40 39  2  0
 43 42  1  0
 45 43  1  0
 45 46  1  0
 45 44  1  0
 47 50  1  1
 47 48  1  0
 49 47  1  0
 52 53  1  0
 52 51  1  0
 54 62  1  0
 55 60  1  0
 56 57  1  0
 56 55  1  0
 58 57  1  0
 58 67  1  0
 58 59  1  0
 60 54  1  0
 60 59  1  0
 61 54  2  0
 62 53  1  0
 62 63  1  0
 64 65  2  0
 65 84  1  0
 66 65  1  0
 66 69  1  0
 67 68  1  0
 67 64  1  0
 68 66  2  0
 69 70  1  0
 70 71  2  0
 72 75  1  0
 72 71  1  0
 73 72  2  0
 74 73  1  0
 74 69  2  0
 75 76  1  0
 76 77  1  0
 77 78  2  0
 79 78  1  0
 79 83  1  0
 80 79  2  0
 81 76  2  0
 81 80  1  0
 82 81  1  0
 84 85  1  0
 85 88  1  0
 85 87  1  0
 86 84  2  0
 89 90  1  0
 89 64  1  0
 91 89  1  0
M  ISO  4   9 101  10 101  54 100  62 100
M  END
>  <TORSDO>  (90) 
F 23

>  <SCORE>  (90) 
-10.035

>  <name>  (90) 
90

>  <ligand_id>  (90) 
90

>  <original_smiles>  (90) 
[H]c1c([H])c([H])c2c(c1[H])C([H])([H])C([H])([H])C([H])([H])C2([H])N([H])C(=O)C1([H])N(C(=O)C([H])(N([H])C(=O)C([H])(N([H])C([H])([H])[H])C([H])([H])[H])C(C([H])([H])[H])(C([H])([H])[H])C([H])([H])[H])C([H])([H])c2c([H])c(OC([H])([H])C([H])([H])C([H])([H])C([H])([H])c3nc([H])n(C([H])([H])C([H])([H])C([H])([H])N([H])C(=O)N4C([H])([H])C([H])([H])C([H])([H])C([H])(n5nc(-c6c([H])c([H])c(Oc7c([H])c([H])c(F)c([H])c7F)c([H])c6[H])c(C(=O)N([H])[H])c5N([H])[H])C4([H])[H])c3[H])c([H])c([H])c2C1([H])[H]

>  <smiles>  (90) 
[H]c1c([H])c([H])c2c(c1[H])C([H])([H])C([H])([H])C([H])([H])C2([H])N([H])C(=O)C1([H])N(C(=O)C([H])(N([H])C(=O)C([H])(N([H])C([H])([H])[H])C([H])([H])[H])C(C([H])([H])[H])(C([H])([H])[H])C([H])([H])[H])C([H])([H])c2c([H])c(OC([H])([H])C([H])([H])C([H])([H])C([H])([H])c3nc([H])n(C([H])([H])C([H])([H])C([H])([H])N([H])C(=O)N4C([H])([H])C([H])([H])C([H])([H])C([H])(n5nc(-c6c([H])c([H])c(Oc7c([H])c([H])c(F)c([H])c7F)c([H])c6[H])c(C(=O)N([H])[H])c5N([H])[H])C4([H])[H])c3[H])c([H])c([H])c2C1([H])[H]

$$$$
