0:0:0
     RDKit          3D

 90 98  0  0  1  0  0  0  0  0999 V2000
  -28.7660  -18.8400   20.7790 C   0  0  0  0  0  3  0  0  0  0  0  0
  -30.1420  -18.5030   20.7240 C   0  0  0  0  0  0  0  0  0  0  0  0
  -30.5940  -20.7790   20.2680 C   0  0  0  0  0  0  0  0  0  0  0  0
  -29.2120  -21.1190   20.3310 C   0  0  0  0  0  0  0  0  0  0  0  0
  -31.6710  -21.8030   19.9500 C   0  0  0  0  0  1  0  0  0  0  0  0
  -28.3140  -20.1190   20.5850 N   0  0  0  0  0  0  0  0  0  0  0  0
  -31.0420  -19.5000   20.4700 N   0  0  0  0  0  0  0  0  0  0  0  0
  -28.5680  -22.4990   19.9430 C   0  0  0  0  0  2  0  0  0  0  0  0
  -29.0680  -23.9230   20.4410 C   0  0  0  0  0  2  0  0  0  0  0  0
  -28.1010  -25.0840   19.9660 C   0  0  0  0  0  2  0  0  0  0  0  0
  -28.3470  -26.5100   20.2570 O   0  0  0  0  0  0  0  0  0  0  0  0
  -24.6290  -31.8960   23.2550 C   0  0  0  0  0  0  0  0  0  0  0  0
  -27.2380  -27.3670   20.1800 C   0  0  0  0  0  0  0  0  0  0  0  0
  -23.4210  -30.5040   21.6110 C   0  0  0  0  0  3  0  0  0  0  0  0
  -24.8730  -28.9730   20.1720 C   0  0  0  0  0  0  0  0  0  0  0  0
  -25.9620  -30.8300   21.4270 C   0  0  0  0  0  2  0  0  0  0  0  0
  -26.0420  -29.4570   20.7740 C   0  0  0  0  0  0  0  0  0  0  0  0
  -27.2240  -28.6630   20.7750 C   0  0  0  0  0  3  0  0  0  0  0  0
  -26.0470  -26.9460   19.5350 C   0  0  0  0  0  3  0  0  0  0  0  0
  -24.8780  -27.7220   19.5450 C   0  0  0  0  0  3  0  0  0  0  0  0
  -23.6350  -29.8410   20.2260 C   0  0  0  0  0  2  0  0  0  0  0  0
  -24.6890  -31.0920   22.1550 N   0  0  0  0  0  0  0  0  0  0  0  0
  -23.5480  -32.1710   23.7950 O   0  0  0  0  0  0  0  0  0  0  0  0
  -22.7670  -29.4760   22.5660 C   0  0  0  0  0  0  0  0  0  0  0  0
  -21.4420  -29.2920   22.4400 N   0  0  0  0  0  0  0  0  0  0  0  0
  -23.4480  -28.8470   23.3810 O   0  0  0  0  0  0  0  0  0  0  0  0
  -20.9500  -29.8480   21.7550 H   0  0  0  0  0  0  0  0  0  0  0  0
  -18.0660  -28.0960   22.9430 C   0  0  0  0  0  0  0  0  0  0  0  0
  -20.6260  -28.3510   23.2090 C   0  0  0  0  0  3  0  0  0  0  0  0
  -20.7240  -26.9210   22.6260 C   0  0  0  0  0  2  0  0  0  0  0  0
  -19.6180  -26.6050   21.6140 C   0  0  0  0  0  2  0  0  0  0  0  0
  -18.2390  -26.7490   22.2610 C   0  0  0  0  0  2  0  0  0  0  0  0
  -19.1880  -28.8540   23.3750 C   0  0  0  0  0  0  0  0  0  0  0  0
  -18.9720  -30.1170   23.9700 C   0  0  0  0  0  3  0  0  0  0  0  0
  -17.6680  -30.6210   24.1350 C   0  0  0  0  0  3  0  0  0  0  0  0
  -16.5620  -29.8590   23.7200 C   0  0  0  0  0  3  0  0  0  0  0  0
  -16.7620  -28.5970   23.1330 C   0  0  0  0  0  3  0  0  0  0  0  0
  -25.9140  -32.5280   23.8740 C   0  0  0  0  0  3  0  0  0  0  0  0
  -26.4350  -31.7520   25.1450 C   0  0  1  0  0  0  0  0  0  0  0  0
  -25.3420  -31.5040   26.2110 C   0  0  0  0  0  1  0  0  0  0  0  0
  -27.0230  -30.3790   24.7430 C   0  0  0  0  0  1  0  0  0  0  0  0
  -27.5840  -32.5460   25.8050 C   0  0  0  0  0  1  0  0  0  0  0  0
  -25.6020  -33.9240   24.2120 N   0  0  0  0  0  0  0  0  0  0  0  0
  -25.9070  -34.9770   23.4450 C   0  0  0  0  0  0  0  0  0  0  0  0
  -26.5520  -34.8780   22.3980 O   0  0  0  0  0  0  0  0  0  0  0  0
  -25.0210  -34.0730   25.0230 H   0  0  0  0  0  0  0  0  0  0  0  0
  -24.1530  -36.7520   23.1370 C   0  0  0  0  0  1  0  0  0  0  0  0
  -25.4210  -36.3610   23.9140 C   0  0  0  0  0  3  0  0  0  0  0  0
  -27.5660  -37.2710   24.6840 C   0  0  0  0  0  1  0  0  0  0  0  0
  -26.4400  -37.4250   23.7690 N   0  0  0  0  0  0  0  0  0  0  0  0
  -26.0280  -38.3420   23.9250 H   0  0  0  0  0  0  0  0  0  0  0  0
  -30.7440  -17.1020   21.0840 C   0  0  0  0  0  2  0  0  0  0  0  0
  -30.6900  -14.6500   20.4170 C   0  0  0  0  0  0  0  0  0  0  0  0
  -30.3570  -12.4300   19.3580 C   0  0  0  0  0  2  0  0  0  0  0  0
  -29.4050  -12.5250   18.1470 C   0  0  0  0  0  2  0  0  0  0  0  0
  -27.9470  -12.3680   18.6130 C   0  0  0  0  0  2  0  0  0  0  0  0
  -27.5950  -13.2870   19.8140 C   0  0  0  0  0  3  0  0  0  0  0  0
  -28.6650  -13.2030   20.9270 C   0  0  0  0  0  2  0  0  0  0  0  0
  -29.9730  -13.4880   20.3160 N   0  0  0  0  0  0  0  0  0  0  0  0
  -31.8620  -14.6960   20.0370 O   0  0  0  0  0  0  0  0  0  0  0  0
  -30.0530  -15.7970   20.7930 N   0  0  0  0  0  0  0  0  0  0  0  0
  -29.0660  -15.7420   20.9920 H   0  0  0  0  0  0  0  0  0  0  0  0
  -25.2180  -13.9010   20.5740 C   0  0  0  0  0  0  0  0  0  0  0  0
  -24.1470  -13.1350   20.9450 C   0  0  0  0  0  0  0  0  0  0  0  0
  -24.5940  -11.7800   20.8980 C   0  0  0  0  0  0  0  0  0  0  0  0
  -26.2520  -13.0130   20.3200 N   0  0  0  0  0  0  0  0  0  0  0  0
  -25.8800  -11.7330   20.5770 N   0  0  0  0  0  0  0  0  0  0  0  0
  -23.8560  -10.5220   21.0810 C   0  0  0  0  0  0  0  0  0  0  0  0
  -24.2900   -9.5390   21.9970 C   0  0  0  0  0  3  0  0  0  0  0  0
  -23.5530   -8.3490   22.1700 C   0  0  0  0  0  3  0  0  0  0  0  0
  -22.3680   -8.1330   21.4280 C   0  0  0  0  0  0  0  0  0  0  0  0
  -21.9530   -9.1070   20.5010 C   0  0  0  0  0  3  0  0  0  0  0  0
  -22.6920  -10.2890   20.3260 C   0  0  0  0  0  3  0  0  0  0  0  0
  -21.6010   -6.9960   21.5110 O   0  0  0  0  0  0  0  0  0  0  0  0
  -21.5560   -6.2410   22.6540 C   0  0  0  0  0  0  0  0  0  0  0  0
  -21.1310   -6.7810   23.8880 C   0  0  0  0  0  3  0  0  0  0  0  0
  -21.0330   -5.9530   25.0230 C   0  0  0  0  0  3  0  0  0  0  0  0
  -21.3500   -4.5840   24.9270 C   0  0  0  0  0  0  0  0  0  0  0  0
  -21.7690   -4.0420   23.6990 C   0  0  0  0  0  3  0  0  0  0  0  0
  -21.8700   -4.8700   22.5660 C   0  0  0  0  0  0  0  0  0  0  0  0
  -22.2530   -4.3370   21.3800 F   0  0  0  0  0  0  0  0  0  0  0  0
  -21.2490   -3.7860   26.0160 F   0  0  0  0  0  0  0  0  0  0  0  0
  -22.7570  -13.6260   21.2330 C   0  0  0  0  0  0  0  0  0  0  0  0
  -22.0270  -12.9330   22.0990 N   0  0  0  0  0  0  0  0  0  0  0  0
  -22.3300  -14.6640   20.7280 O   0  0  0  0  0  0  0  0  0  0  0  0
  -22.3860  -12.0960   22.5350 H   0  0  0  0  0  0  0  0  0  0  0  0
  -21.0970  -13.2480   22.3340 H   0  0  0  0  0  0  0  0  0  0  0  0
  -25.3940  -15.2720   20.4110 N   0  0  0  0  0  0  0  0  0  0  0  0
  -24.6300  -15.9280   20.5340 H   0  0  0  0  0  0  0  0  0  0  0  0
  -26.2370  -15.7080   20.0580 H   0  0  0  0  0  0  0  0  0  0  0  0
  2  1  1  0
  2 52  1  0
  3  4  2  0
  3  7  1  0
  4  6  1  0
  5  3  1  0
  6  1  2  0
  7  2  2  0
  8  4  1  0
  8  9  1  0
 10 11  1  0
 10  9  1  0
 12 23  2  0
 13 11  1  0
 13 18  1  0
 14 22  1  0
 14 24  1  0
 15 21  1  0
 15 17  1  0
 16 22  1  0
 17 18  2  0
 17 16  1  0
 19 20  1  0
 19 13  2  0
 20 15  2  0
 21 14  1  0
 22 12  1  0
 24 26  2  0
 25 24  1  0
 27 25  1  0
 28 37  2  0
 28 33  1  0
 29 25  1  0
 29 33  1  0
 30 29  1  0
 31 32  1  0
 31 30  1  0
 32 28  1  0
 33 34  2  0
 34 35  1  0
 36 35  2  0
 37 36  1  0
 38 12  1  0
 38 43  1  0
 38 39  1  0
 39 42  1  1
 39 40  1  0
 41 39  1  0
 43 46  1  0
 44 48  1  0
 44 43  1  0
 45 44  2  0
 48 47  1  0
 50 48  1  0
 50 51  1  0
 50 49  1  0
 53 61  1  0
 54 59  1  0
 55 56  1  0
 55 54  1  0
 57 56  1  0
 57 66  1  0
 57 58  1  0
 59 53  1  0
 59 58  1  0
 60 53  2  0
 61 62  1  0
 61 52  1  0
 63 64  2  0
 64 83  1  0
 65 64  1  0
 65 68  1  0
 66 63  1  0
 66 67  1  0
 67 65  2  0
 68 69  1  0
 69 70  2  0
 71 74  1  0
 71 70  1  0
 72 71  2  0
 73 72  1  0
 73 68  2  0
 74 75  1  0
 75 76  1  0
 76 77  2  0
 78 77  1  0
 78 82  1  0
 79 78  2  0
 80 75  2  0
 80 79  1  0
 81 80  1  0
 83 84  1  0
 84 87  1  0
 84 86  1  0
 85 83  2  0
 88 89  1  0
 88 63  1  0
 90 88  1  0
M  ISO  4  10 101  11 101  53 100  61 100
M  END
>  <TORSDO>  (1) 
F 20

>  <SCORE>  (1) 
-13.781

>  <name>  (1) 
0

>  <ligand_id>  (1) 
0

>  <original_smiles>  (1) 
[H]c1nc(C([H])([H])C([H])([H])C([H])([H])Oc2c([H])c([H])c3c(c2[H])C([H])([H])N(C(=O)C([H])(N([H])C(=O)C([H])(N([H])C([H])([H])[H])C([H])([H])[H])C(C([H])([H])[H])(C([H])([H])[H])C([H])([H])[H])C([H])(C(=O)N([H])C2([H])c4c([H])c([H])c([H])c([H])c4C([H])([H])C([H])([H])C2([H])[H])C3([H])[H])c(C([H])([H])[H])nc1C([H])([H])N([H])C(=O)N1C([H])([H])C([H])([H])C([H])([H])C([H])(n2nc(-c3c([H])c([H])c(Oc4c([H])c([H])c(F)c([H])c4F)c([H])c3[H])c(C(=O)N([H])[H])c2N([H])[H])C1([H])[H]

>  <smiles>  (1) 
[H]c1nc(C([H])([H])C([H])([H])C([H])([H])Oc2c([H])c([H])c3c(c2[H])C([H])([H])N(C(=O)C([H])(N([H])C(=O)C([H])(N([H])C([H])([H])[H])C([H])([H])[H])C(C([H])([H])[H])(C([H])([H])[H])C([H])([H])[H])C([H])(C(=O)N([H])C2([H])c4c([H])c([H])c([H])c([H])c4C([H])([H])C([H])([H])C2([H])[H])C3([H])[H])c(C([H])([H])[H])nc1C([H])([H])N([H])C(=O)N1C([H])([H])C([H])([H])C([H])([H])C([H])(n2nc(-c3c([H])c([H])c(Oc4c([H])c([H])c(F)c([H])c4F)c([H])c3[H])c(C(=O)N([H])[H])c2N([H])[H])C1([H])[H]

$$$$
1:0:0
     RDKit          3D

 92100  0  0  1  0  0  0  0  0999 V2000
  -26.6950  -20.8810   20.1410 C   0  0  0  0  0  3  0  0  0  0  0  0
  -27.8910  -20.2710   20.4400 C   0  0  0  0  0  0  0  0  0  0  0  0
  -28.0540  -22.3780   20.9680 C   0  0  0  0  0  0  0  0  0  0  0  0
  -25.7150  -23.1820   20.4810 C   0  0  0  0  0  1  0  0  0  0  0  0
  -28.7600  -21.2420   20.9550 N   0  0  0  0  0  0  0  0  0  0  0  0
  -26.7900  -22.2070   20.5340 N   0  0  0  0  0  0  0  0  0  0  0  0
  -28.1670  -18.7850   20.2620 C   0  0  0  0  0  2  0  0  0  0  0  0
  -30.6120  -18.8810   19.8040 C   0  0  0  0  0  1  0  0  0  0  0  0
  -29.5220  -18.2320   20.5740 N   0  0  2  0  0  4  0  0  0  0  0  0
  -29.6720  -18.4330   21.5510 H   0  0  0  0  0  0  0  0  0  0  0  0
  -29.5290  -16.7430   20.3790 C   0  0  0  0  0  2  0  0  0  0  0  0
  -30.5340  -15.9300   21.2500 C   0  0  0  0  0  2  0  0  0  0  0  0
  -31.1510  -14.7070   20.5210 C   0  0  0  0  0  0  0  0  0  0  0  0
  -30.9010  -12.4570   19.5090 C   0  0  0  0  0  2  0  0  0  0  0  0
  -30.0260  -12.5700   18.2430 C   0  0  0  0  0  2  0  0  0  0  0  0
  -28.5310  -12.4620   18.6070 C   0  0  0  0  0  2  0  0  0  0  0  0
  -28.1370  -13.3850   19.7860 C   0  0  0  0  0  3  0  0  0  0  0  0
  -29.1330  -13.2680   20.9600 C   0  0  0  0  0  2  0  0  0  0  0  0
  -30.4850  -13.5210   20.4410 N   0  0  0  0  0  0  0  0  0  0  0  0
  -32.2520  -14.8690   19.9820 O   0  0  0  0  0  0  0  0  0  0  0  0
  -25.7380  -14.0630   20.4170 C   0  0  0  0  0  0  0  0  0  0  0  0
  -24.6410  -13.3230   20.7760 C   0  0  0  0  0  0  0  0  0  0  0  0
  -25.0680  -11.9610   20.7690 C   0  0  0  0  0  0  0  0  0  0  0  0
  -26.7640  -13.1510   20.2250 N   0  0  0  0  0  0  0  0  0  0  0  0
  -26.3630  -11.8840   20.4920 N   0  0  0  0  0  0  0  0  0  0  0  0
  -24.3050  -10.7190   20.9540 C   0  0  0  0  0  0  0  0  0  0  0  0
  -24.6520   -9.7790   21.9490 C   0  0  0  0  0  3  0  0  0  0  0  0
  -23.8910   -8.6010   22.1180 C   0  0  0  0  0  3  0  0  0  0  0  0
  -22.7690   -8.3570   21.2910 C   0  0  0  0  0  0  0  0  0  0  0  0
  -22.4390   -9.2860   20.2880 C   0  0  0  0  0  3  0  0  0  0  0  0
  -23.2010  -10.4550   20.1180 C   0  0  0  0  0  3  0  0  0  0  0  0
  -21.9890   -7.2280   21.3660 O   0  0  0  0  0  0  0  0  0  0  0  0
  -21.8010   -6.5610   22.5490 C   0  0  0  0  0  0  0  0  0  0  0  0
  -21.2430   -7.1950   23.6810 C   0  0  0  0  0  3  0  0  0  0  0  0
  -21.0020   -6.4540   24.8550 C   0  0  0  0  0  3  0  0  0  0  0  0
  -21.3070   -5.0810   24.8970 C   0  0  0  0  0  0  0  0  0  0  0  0
  -21.8600   -4.4470   23.7710 C   0  0  0  0  0  3  0  0  0  0  0  0
  -22.1010   -5.1840   22.5990 C   0  0  0  0  0  0  0  0  0  0  0  0
  -22.6140   -4.5650   21.5080 F   0  0  0  0  0  0  0  0  0  0  0  0
  -21.0670   -4.3680   26.0210 F   0  0  0  0  0  0  0  0  0  0  0  0
  -23.2510  -13.8410   21.0040 C   0  0  0  0  0  0  0  0  0  0  0  0
  -22.4840  -13.1840   21.8690 N   0  0  0  0  0  0  0  0  0  0  0  0
  -22.8530  -14.8650   20.4510 O   0  0  0  0  0  0  0  0  0  0  0  0
  -22.8160  -12.3560   22.3420 H   0  0  0  0  0  0  0  0  0  0  0  0
  -21.5490  -13.5140   22.0630 H   0  0  0  0  0  0  0  0  0  0  0  0
  -25.9410  -15.4220   20.2110 N   0  0  0  0  0  0  0  0  0  0  0  0
  -25.1290  -16.0270   20.1560 H   0  0  0  0  0  0  0  0  0  0  0  0
  -26.6870  -15.7210   19.5980 H   0  0  0  0  0  0  0  0  0  0  0  0
  -28.5640  -23.7160   21.4300 C   0  0  0  0  0  2  0  0  0  0  0  0
  -28.8710  -24.7240   20.2970 C   0  0  0  0  0  2  0  0  0  0  0  0
  -28.6900  -26.1820   20.7680 C   0  0  0  0  0  2  0  0  0  0  0  0
  -28.5370  -27.0570   19.6510 O   0  0  0  0  0  0  0  0  0  0  0  0
  -24.7020  -31.8660   23.1800 C   0  0  0  0  0  0  0  0  0  0  0  0
  -27.3690  -27.7660   19.7110 C   0  0  0  0  0  0  0  0  0  0  0  0
  -23.4770  -30.5610   21.4660 C   0  0  0  0  0  3  0  0  0  0  0  0
  -24.9300  -29.1530   19.9060 C   0  0  0  0  0  0  0  0  0  0  0  0
  -25.9800  -31.0030   21.2250 C   0  0  0  0  0  2  0  0  0  0  0  0
  -26.0860  -29.6830   20.4940 C   0  0  0  0  0  0  0  0  0  0  0  0
  -27.3110  -28.9940   20.4010 C   0  0  0  0  0  3  0  0  0  0  0  0
  -26.2050  -27.2320   19.1260 C   0  0  0  0  0  3  0  0  0  0  0  0
  -24.9800  -27.9220   19.2220 C   0  0  0  0  0  3  0  0  0  0  0  0
  -23.6650  -29.9650   20.0430 C   0  0  0  0  0  2  0  0  0  0  0  0
  -24.7390  -31.1530   22.0170 N   0  0  0  0  0  0  0  0  0  0  0  0
  -23.6330  -32.0770   23.7680 O   0  0  0  0  0  0  0  0  0  0  0  0
  -22.8690  -29.4690   22.3720 C   0  0  0  0  0  0  0  0  0  0  0  0
  -21.5420  -29.2840   22.2750 N   0  0  0  0  0  0  0  0  0  0  0  0
  -23.5880  -28.7890   23.1100 O   0  0  0  0  0  0  0  0  0  0  0  0
  -21.0240  -29.8910   21.6560 H   0  0  0  0  0  0  0  0  0  0  0  0
  -18.2060  -28.0000   22.7590 C   0  0  0  0  0  0  0  0  0  0  0  0
  -20.7640  -28.2730   22.9850 C   0  0  0  0  0  3  0  0  0  0  0  0
  -20.8760  -26.9020   22.2860 C   0  0  0  0  0  2  0  0  0  0  0  0
  -19.7520  -26.6420   21.2810 C   0  0  0  0  0  2  0  0  0  0  0  0
  -18.3800  -26.7170   21.9610 C   0  0  0  0  0  2  0  0  0  0  0  0
  -19.3240  -28.7410   23.2220 C   0  0  0  0  0  0  0  0  0  0  0  0
  -19.1080  -29.9510   23.9160 C   0  0  0  0  0  3  0  0  0  0  0  0
  -17.8010  -30.4200   24.1570 C   0  0  0  0  0  3  0  0  0  0  0  0
  -16.6970  -29.6730   23.7110 C   0  0  0  0  0  3  0  0  0  0  0  0
  -16.8990  -28.4650   23.0200 C   0  0  0  0  0  3  0  0  0  0  0  0
  -25.9950  -32.4710   23.8150 C   0  0  0  0  0  3  0  0  0  0  0  0
  -25.6840  -33.8420   24.2360 N   0  0  0  0  0  0  0  0  0  0  0  0
  -26.0020  -34.9390   23.5360 C   0  0  0  0  0  0  0  0  0  0  0  0
  -26.6660  -34.9030   22.4960 O   0  0  0  0  0  0  0  0  0  0  0  0
  -25.1060  -33.9410   25.0560 H   0  0  0  0  0  0  0  0  0  0  0  0
  -24.2640  -36.7370   23.2910 C   0  0  0  0  0  1  0  0  0  0  0  0
  -25.5070  -36.2930   24.0790 C   0  0  0  0  0  3  0  0  0  0  0  0
  -27.6360  -37.1360   24.9630 C   0  0  0  0  0  1  0  0  0  0  0  0
  -26.5340  -37.3550   24.0290 N   0  0  0  0  0  0  0  0  0  0  0  0
  -26.1230  -38.2620   24.2300 H   0  0  0  0  0  0  0  0  0  0  0  0
  -26.5480  -31.6280   25.0280 C   0  0  1  0  0  0  0  0  0  0  0  0
  -25.4860  -31.3240   26.1100 C   0  0  0  0  0  1  0  0  0  0  0  0
  -27.1280  -30.2810   24.5350 C   0  0  0  0  0  1  0  0  0  0  0  0
  -27.7150  -32.3870   25.7070 C   0  0  0  0  0  1  0  0  0  0  0  0
  1  2  2  0
  1  6  1  0
  2  5  1  0
  3 49  1  0
  4  6  1  0
  5  3  2  0
  6  3  1  0
  7  2  1  0
  7  9  1  0
  8  9  1  0
  9 10  1  1
 11  9  1  0
 11 12  1  0
 13 12  1  0
 14 19  1  0
 15 16  1  0
 15 14  1  0
 17 16  1  0
 17 24  1  0
 17 18  1  0
 19 13  1  0
 19 18  1  0
 20 13  2  0
 21 22  2  0
 22 41  1  0
 23 22  1  0
 23 26  1  0
 24 21  1  0
 24 25  1  0
 25 23  2  0
 26 27  1  0
 27 28  2  0
 29 32  1  0
 29 28  1  0
 30 29  2  0
 31 30  1  0
 31 26  2  0
 32 33  1  0
 33 38  2  0
 33 34  1  0
 34 35  2  0
 35 36  1  0
 36 40  1  0
 37 36  2  0
 38 37  1  0
 39 38  1  0
 41 42  1  0
 42 45  1  0
 42 44  1  0
 43 41  2  0
 46 21  1  0
 47 46  1  0
 48 46  1  0
 50 51  1  0
 50 49  1  0
 52 54  1  0
 52 51  1  0
 53 64  2  0
 54 59  1  0
 55 63  1  0
 55 65  1  0
 56 62  1  0
 56 58  1  0
 57 63  1  0
 58 57  1  0
 59 58  2  0
 60 61  1  0
 60 54  2  0
 61 56  2  0
 62 55  1  0
 63 53  1  0
 65 67  2  0
 66 65  1  0
 68 66  1  0
 69 78  2  0
 69 74  1  0
 70 66  1  0
 70 74  1  0
 71 70  1  0
 72 73  1  0
 72 71  1  0
 73 69  1  0
 74 75  2  0
 75 76  1  0
 77 76  2  0
 78 77  1  0
 79 53  1  0
 79 80  1  0
 79 89  1  0
 80 83  1  0
 81 85  1  0
 81 80  1  0
 82 81  2  0
 85 84  1  0
 87 85  1  0
 87 88  1  0
 87 86  1  0
 89 92  1  1
 89 90  1  0
 91 89  1  0
M  ISO  4  12 100  13 100  51 101  52 101
M  END
>  <TORSDO>  (2) 
F 23

>  <SCORE>  (2) 
-11.129

>  <name>  (2) 
1

>  <ligand_id>  (2) 
1

>  <original_smiles>  (2) 
[H]c1c([H])c([H])c2c(c1[H])C([H])([H])C([H])([H])C([H])([H])C2([H])N([H])C(=O)C1([H])N(C(=O)C([H])(N([H])C(=O)C([H])(N([H])C([H])([H])[H])C([H])([H])[H])C(C([H])([H])[H])(C([H])([H])[H])C([H])([H])[H])C([H])([H])c2c([H])c(OC([H])([H])C([H])([H])C([H])([H])c3nc(C([H])([H])[N+]([H])(C([H])([H])[H])C([H])([H])C([H])([H])C(=O)N4C([H])([H])C([H])([H])C([H])([H])C([H])(n5nc(-c6c([H])c([H])c(Oc7c([H])c([H])c(F)c([H])c7F)c([H])c6[H])c(C(=O)N([H])[H])c5N([H])[H])C4([H])[H])c([H])n3C([H])([H])[H])c([H])c([H])c2C1([H])[H]

>  <smiles>  (2) 
[H]c1c([H])c([H])c2c(c1[H])C([H])([H])C([H])([H])C([H])([H])C2([H])N([H])C(=O)C1([H])N(C(=O)C([H])(N([H])C(=O)C([H])(N([H])C([H])([H])[H])C([H])([H])[H])C(C([H])([H])[H])(C([H])([H])[H])C([H])([H])[H])C([H])([H])c2c([H])c(OC([H])([H])C([H])([H])C([H])([H])c3nc(C([H])([H])[N+]([H])(C([H])([H])[H])C([H])([H])C([H])([H])C(=O)N4C([H])([H])C([H])([H])C([H])([H])C([H])(n5nc(-c6c([H])c([H])c(Oc7c([H])c([H])c(F)c([H])c7F)c([H])c6[H])c(C(=O)N([H])[H])c5N([H])[H])C4([H])[H])c([H])n3C([H])([H])[H])c([H])c([H])c2C1([H])[H]

$$$$
2:0:0
     RDKit          3D

 94102  0  0  1  0  0  0  0  0999 V2000
  -29.9540  -20.3470   19.3190 C   0  0  0  0  0  0  0  0  0  0  0  0
  -28.7520  -20.8250   19.9200 C   0  0  0  0  0  0  0  0  0  0  0  0
  -28.1940  -18.5830   20.3850 C   0  0  0  0  0  0  0  0  0  0  0  0
  -29.3760  -18.0950   19.7370 C   0  0  0  0  0  0  0  0  0  0  0  0
  -27.9210  -19.9200   20.5090 N   0  0  0  0  0  0  0  0  0  0  0  0
  -30.2660  -19.0110   19.2580 N   0  0  0  0  0  0  0  0  0  0  0  0
  -25.8660  -17.6680   19.9240 C   0  0  0  0  0  1  0  0  0  0  0  0
  -27.0800  -17.6620   20.8670 C   0  0  0  0  0  2  0  0  0  0  0  0
  -32.2130  -21.5030   19.4110 C   0  0  0  0  0  1  0  0  0  0  0  0
  -30.9220  -21.2870   18.6100 C   0  0  0  0  0  2  0  0  0  0  0  0
  -28.1410  -22.2420   19.6380 C   0  0  0  0  0  2  0  0  0  0  0  0
  -28.6340  -23.5960   20.3060 C   0  0  0  0  0  2  0  0  0  0  0  0
  -27.8830  -24.8360   19.6580 C   0  0  0  0  0  2  0  0  0  0  0  0
  -28.1380  -26.2500   20.0110 O   0  0  0  0  0  0  0  0  0  0  0  0
  -24.5660  -31.7080   23.0510 C   0  0  0  0  0  0  0  0  0  0  0  0
  -27.0520  -27.1400   19.9280 C   0  0  0  0  0  0  0  0  0  0  0  0
  -23.3110  -30.3480   21.4110 C   0  0  0  0  0  3  0  0  0  0  0  0
  -24.7190  -28.7990   19.9420 C   0  0  0  0  0  0  0  0  0  0  0  0
  -25.8540  -30.6260   21.2010 C   0  0  0  0  0  2  0  0  0  0  0  0
  -25.9020  -29.2520   20.5430 C   0  0  0  0  0  0  0  0  0  0  0  0
  -27.0680  -28.4320   20.5350 C   0  0  0  0  0  3  0  0  0  0  0  0
  -25.8610  -26.7630   19.2600 C   0  0  0  0  0  3  0  0  0  0  0  0
  -24.7060  -27.5630   19.2820 C   0  0  0  0  0  3  0  0  0  0  0  0
  -23.4920  -29.6840   20.0200 C   0  0  0  0  0  2  0  0  0  0  0  0
  -24.5970  -30.9110   21.9420 N   0  0  0  0  0  0  0  0  0  0  0  0
  -23.4990  -31.9960   23.6080 O   0  0  0  0  0  0  0  0  0  0  0  0
  -22.6480  -29.3330   22.3710 C   0  0  0  0  0  0  0  0  0  0  0  0
  -21.3140  -29.1900   22.2780 N   0  0  0  0  0  0  0  0  0  0  0  0
  -23.3320  -28.6740   23.1580 O   0  0  0  0  0  0  0  0  0  0  0  0
  -20.8220  -29.7750   21.6180 H   0  0  0  0  0  0  0  0  0  0  0  0
  -17.9170  -28.0940   22.8490 C   0  0  0  0  0  0  0  0  0  0  0  0
  -20.4880  -28.2670   23.0570 C   0  0  0  0  0  3  0  0  0  0  0  0
  -20.5300  -26.8400   22.4580 C   0  0  0  0  0  2  0  0  0  0  0  0
  -19.3910  -26.5700   21.4690 C   0  0  0  0  0  2  0  0  0  0  0  0
  -18.0320  -26.7480   22.1520 C   0  0  0  0  0  2  0  0  0  0  0  0
  -19.0700  -28.8140   23.2600 C   0  0  0  0  0  0  0  0  0  0  0  0
  -18.9060  -30.0740   23.8740 C   0  0  0  0  0  3  0  0  0  0  0  0
  -17.6220  -30.6110   24.0850 C   0  0  0  0  0  3  0  0  0  0  0  0
  -16.4840  -29.8880   23.6890 C   0  0  0  0  0  3  0  0  0  0  0  0
  -16.6330  -28.6320   23.0740 C   0  0  0  0  0  3  0  0  0  0  0  0
  -25.8710  -32.3100   23.6540 C   0  0  0  0  0  3  0  0  0  0  0  0
  -25.5780  -33.6940   24.0520 N   0  0  0  0  0  0  0  0  0  0  0  0
  -25.8910  -34.7780   23.3280 C   0  0  0  0  0  0  0  0  0  0  0  0
  -26.5310  -34.7160   22.2750 O   0  0  0  0  0  0  0  0  0  0  0  0
  -25.0120  -33.8190   24.8790 H   0  0  0  0  0  0  0  0  0  0  0  0
  -24.1600  -36.5920   23.1050 C   0  0  0  0  0  1  0  0  0  0  0  0
  -25.4240  -36.1460   23.8590 C   0  0  0  0  0  3  0  0  0  0  0  0
  -27.5860  -36.9920   24.6610 C   0  0  0  0  0  1  0  0  0  0  0  0
  -26.4560  -37.2030   23.7620 N   0  0  0  0  0  0  0  0  0  0  0  0
  -26.0550  -38.1120   23.9730 H   0  0  0  0  0  0  0  0  0  0  0  0
  -26.4260  -31.4840   24.8790 C   0  0  1  0  0  0  0  0  0  0  0  0
  -25.3670  -31.2040   25.9690 C   0  0  0  0  0  1  0  0  0  0  0  0
  -26.9920  -30.1230   24.4120 C   0  0  0  0  0  1  0  0  0  0  0  0
  -27.5960  -32.2490   25.5410 C   0  0  0  0  0  1  0  0  0  0  0  0
  -29.5860  -16.5960   19.2810 C   0  0  0  0  0  2  0  0  0  0  0  0
  -30.9000  -14.4560   19.3230 C   0  0  0  0  0  0  0  0  0  0  0  0
  -30.3710  -12.1970   18.4210 C   0  0  0  0  0  2  0  0  0  0  0  0
  -29.3200  -12.3170   17.3000 C   0  0  0  0  0  2  0  0  0  0  0  0
  -27.8940  -12.2890   17.8890 C   0  0  0  0  0  2  0  0  0  0  0  0
  -27.7270  -13.2130   19.1270 C   0  0  0  0  0  3  0  0  0  0  0  0
  -28.9060  -13.0860   20.1190 C   0  0  0  0  0  2  0  0  0  0  0  0
  -30.1480  -13.3080   19.3680 N   0  0  0  0  0  0  0  0  0  0  0  0
  -31.9630  -14.4780   18.6960 O   0  0  0  0  0  0  0  0  0  0  0  0
  -30.4740  -15.5900   19.9810 N   0  0  0  0  0  0  0  0  0  0  0  0
  -25.5150  -13.9410   20.2100 C   0  0  0  0  0  0  0  0  0  0  0  0
  -24.4540  -13.2330   20.6980 C   0  0  0  0  0  0  0  0  0  0  0  0
  -24.7930  -11.8540   20.5410 C   0  0  0  0  0  0  0  0  0  0  0  0
  -26.4420  -13.0010   19.7900 N   0  0  0  0  0  0  0  0  0  0  0  0
  -26.0210  -11.7360   20.0500 N   0  0  0  0  0  0  0  0  0  0  0  0
  -23.9950  -10.6440   20.7760 C   0  0  0  0  0  0  0  0  0  0  0  0
  -24.4490   -9.6120   21.6280 C   0  0  0  0  0  3  0  0  0  0  0  0
  -23.6550   -8.4680   21.8490 C   0  0  0  0  0  3  0  0  0  0  0  0
  -22.3920   -8.3450   21.2250 C   0  0  0  0  0  0  0  0  0  0  0  0
  -21.9550   -9.3620   20.3580 C   0  0  0  0  0  3  0  0  0  0  0  0
  -22.7500  -10.5000   20.1330 C   0  0  0  0  0  3  0  0  0  0  0  0
  -21.5620   -7.2580   21.3660 O   0  0  0  0  0  0  0  0  0  0  0  0
  -21.5550   -6.5010   22.5100 C   0  0  0  0  0  0  0  0  0  0  0  0
  -21.2850   -7.0650   23.7770 C   0  0  0  0  0  3  0  0  0  0  0  0
  -21.2170   -6.2370   24.9150 C   0  0  0  0  0  3  0  0  0  0  0  0
  -21.4110   -4.8480   24.7900 C   0  0  0  0  0  0  0  0  0  0  0  0
  -21.6700   -4.2850   23.5280 C   0  0  0  0  0  3  0  0  0  0  0  0
  -21.7400   -5.1090   22.3920 C   0  0  0  0  0  0  0  0  0  0  0  0
  -21.9730   -4.5600   21.1760 F   0  0  0  0  0  0  0  0  0  0  0  0
  -21.3370   -4.0510   25.8820 F   0  0  0  0  0  0  0  0  0  0  0  0
  -23.1530  -13.7990   21.1870 C   0  0  0  0  0  0  0  0  0  0  0  0
  -22.5050  -13.1220   22.1270 N   0  0  0  0  0  0  0  0  0  0  0  0
  -22.7310  -14.8780   20.7700 O   0  0  0  0  0  0  0  0  0  0  0  0
  -22.8740  -12.2560   22.4910 H   0  0  0  0  0  0  0  0  0  0  0  0
  -21.6320  -13.4770   22.4880 H   0  0  0  0  0  0  0  0  0  0  0  0
  -25.7560  -15.3020   20.0580 N   0  0  0  0  0  0  0  0  0  0  0  0
  -25.0360  -15.9820   20.2750 H   0  0  0  0  0  0  0  0  0  0  0  0
  -26.5220  -15.6940   19.5300 H   0  0  0  0  0  0  0  0  0  0  0  0
  -31.0120  -15.6790   22.4040 C   0  0  0  0  0  1  0  0  0  0  0  0
  -31.4060  -16.1290   20.9900 C   0  0  0  0  0  2  0  0  0  0  0  0
  1  2  1  0
  2  5  2  0
  3  5  1  0
  3  8  1  0
  4  3  2  0
  6  1  2  0
  6  4  1  0
  7  8  1  0
 10  1  1  0
 10  9  1  0
 11  2  1  0
 11 12  1  0
 13 14  1  0
 13 12  1  0
 15 26  2  0
 16 14  1  0
 16 21  1  0
 17 25  1  0
 17 27  1  0
 18 24  1  0
 18 20  1  0
 19 25  1  0
 20 19  1  0
 21 20  2  0
 22 23  1  0
 22 16  2  0
 23 18  2  0
 24 17  1  0
 25 15  1  0
 27 29  2  0
 28 27  1  0
 30 28  1  0
 31 40  2  0
 31 36  1  0
 32 28  1  0
 32 36  1  0
 33 32  1  0
 34 35  1  0
 34 33  1  0
 35 31  1  0
 36 37  2  0
 37 38  1  0
 39 38  2  0
 40 39  1  0
 41 15  1  0
 41 42  1  0
 41 51  1  0
 42 45  1  0
 43 47  1  0
 43 42  1  0
 44 43  2  0
 47 46  1  0
 49 47  1  0
 49 50  1  0
 49 48  1  0
 51 54  1  1
 51 52  1  0
 53 51  1  0
 55  4  1  0
 55 64  1  0
 56 62  1  0
 56 64  1  0
 57 62  1  0
 58 59  1  0
 58 57  1  0
 60 59  1  0
 60 68  1  0
 60 61  1  0
 62 61  1  0
 63 56  2  0
 64 94  1  0
 65 66  2  0
 66 85  1  0
 67 66  1  0
 67 70  1  0
 68 69  1  0
 68 65  1  0
 69 67  2  0
 70 71  1  0
 71 72  2  0
 73 76  1  0
 73 72  1  0
 74 73  2  0
 75 74  1  0
 75 70  2  0
 76 77  1  0
 77 78  1  0
 78 79  2  0
 80 79  1  0
 80 84  1  0
 81 80  2  0
 82 77  2  0
 82 81  1  0
 83 82  1  0
 85 86  1  0
 86 89  1  0
 86 88  1  0
 87 85  2  0
 90 65  1  0
 90 91  1  0
 92 90  1  0
 94 93  1  0
M  ISO  4  13 101  14 101  56 100  64 100
M  END
>  <TORSDO>  (3) 
F 23

>  <SCORE>  (3) 
-10.866

>  <name>  (3) 
2

>  <ligand_id>  (3) 
2

>  <original_smiles>  (3) 
[H]c1c([H])c([H])c2c(c1[H])C([H])([H])C([H])([H])C([H])([H])C2([H])N([H])C(=O)C1([H])N(C(=O)C([H])(N([H])C(=O)C([H])(N([H])C([H])([H])[H])C([H])([H])[H])C(C([H])([H])[H])(C([H])([H])[H])C([H])([H])[H])C([H])([H])c2c([H])c(OC([H])([H])C([H])([H])C([H])([H])c3nc(C([H])([H])C([H])([H])[H])c(C([H])([H])N(C(=O)N4C([H])([H])C([H])([H])C([H])([H])C([H])(n5nc(-c6c([H])c([H])c(Oc7c([H])c([H])c(F)c([H])c7F)c([H])c6[H])c(C(=O)N([H])[H])c5N([H])[H])C4([H])[H])C([H])([H])C([H])([H])[H])nc3C([H])([H])C([H])([H])[H])c([H])c([H])c2C1([H])[H]

>  <smiles>  (3) 
[H]c1c([H])c([H])c2c(c1[H])C([H])([H])C([H])([H])C([H])([H])C2([H])N([H])C(=O)C1([H])N(C(=O)C([H])(N([H])C(=O)C([H])(N([H])C([H])([H])[H])C([H])([H])[H])C(C([H])([H])[H])(C([H])([H])[H])C([H])([H])[H])C([H])([H])c2c([H])c(OC([H])([H])C([H])([H])C([H])([H])c3nc(C([H])([H])C([H])([H])[H])c(C([H])([H])N(C(=O)N4C([H])([H])C([H])([H])C([H])([H])C([H])(n5nc(-c6c([H])c([H])c(Oc7c([H])c([H])c(F)c([H])c7F)c([H])c6[H])c(C(=O)N([H])[H])c5N([H])[H])C4([H])[H])C([H])([H])C([H])([H])[H])nc3C([H])([H])C([H])([H])[H])c([H])c([H])c2C1([H])[H]

$$$$
3:0:0
     RDKit          3D

 88 96  0  0  1  0  0  0  0  0999 V2000
  -28.9390  -19.1060   20.2560 C   0  0  0  0  0  3  0  0  0  0  0  0
  -31.0250  -18.7130   20.3310 C   0  0  0  0  0  3  0  0  0  0  0  0
  -29.5190  -20.3990   20.2150 C   0  0  0  0  0  0  0  0  0  0  0  0
  -30.8930  -20.0740   20.2500 N   0  0  0  0  0  0  0  0  0  0  0  0
  -29.8800  -17.9940   20.3140 N   0  0  0  0  0  0  0  0  0  0  0  0
  -28.7550  -16.4150   18.9060 C   0  0  0  0  0  1  0  0  0  0  0  0
  -28.5480  -16.3010   21.4820 C   0  0  0  0  0  1  0  0  0  0  0  0
  -29.5050  -16.4450   20.2710 C   0  0  2  0  0  0  0  0  0  0  0  0
  -30.4720  -15.0460   20.2520 C   0  0  0  0  0  0  0  0  0  0  0  0
  -30.4440  -12.6640   19.3380 C   0  0  0  0  0  2  0  0  0  0  0  0
  -29.4750  -12.5770   18.1290 C   0  0  0  0  0  2  0  0  0  0  0  0
  -28.0090  -12.3610   18.5720 C   0  0  0  0  0  2  0  0  0  0  0  0
  -27.6130  -13.2550   19.7740 C   0  0  0  0  0  3  0  0  0  0  0  0
  -28.7070  -13.2230   20.8640 C   0  0  0  0  0  2  0  0  0  0  0  0
  -29.9570  -13.7330   20.2600 N   0  0  0  0  0  0  0  0  0  0  0  0
  -31.6780  -15.1430   19.9970 O   0  0  0  0  0  0  0  0  0  0  0  0
  -25.2360  -13.8640   20.5140 C   0  0  0  0  0  0  0  0  0  0  0  0
  -24.1710  -13.0960   20.8920 C   0  0  0  0  0  0  0  0  0  0  0  0
  -24.6280  -11.7440   20.8500 C   0  0  0  0  0  0  0  0  0  0  0  0
  -26.2770  -12.9760   20.2790 N   0  0  0  0  0  0  0  0  0  0  0  0
  -25.9170  -11.6970   20.5370 N   0  0  0  0  0  0  0  0  0  0  0  0
  -23.8960  -10.4870   21.0310 C   0  0  0  0  0  0  0  0  0  0  0  0
  -24.3240   -9.5150   21.9590 C   0  0  0  0  0  3  0  0  0  0  0  0
  -23.5930   -8.3200   22.1310 C   0  0  0  0  0  3  0  0  0  0  0  0
  -22.4200   -8.0930   21.3720 C   0  0  0  0  0  0  0  0  0  0  0  0
  -22.0130   -9.0550   20.4310 C   0  0  0  0  0  3  0  0  0  0  0  0
  -22.7450  -10.2400   20.2580 C   0  0  0  0  0  3  0  0  0  0  0  0
  -21.6590   -6.9530   21.4550 O   0  0  0  0  0  0  0  0  0  0  0  0
  -21.5880   -6.2190   22.6120 C   0  0  0  0  0  0  0  0  0  0  0  0
  -21.1420   -6.7850   23.8260 C   0  0  0  0  0  3  0  0  0  0  0  0
  -21.0180   -5.9770   24.9740 C   0  0  0  0  0  3  0  0  0  0  0  0
  -21.3310   -4.6070   24.9080 C   0  0  0  0  0  0  0  0  0  0  0  0
  -21.7710   -4.0410   23.6990 C   0  0  0  0  0  3  0  0  0  0  0  0
  -21.8960   -4.8460   22.5530 C   0  0  0  0  0  0  0  0  0  0  0  0
  -22.3020   -4.2920   21.3850 F   0  0  0  0  0  0  0  0  0  0  0  0
  -21.2040   -3.8280   26.0090 F   0  0  0  0  0  0  0  0  0  0  0  0
  -22.7800  -13.5830   21.1760 C   0  0  0  0  0  0  0  0  0  0  0  0
  -22.0580  -12.8910   22.0500 N   0  0  0  0  0  0  0  0  0  0  0  0
  -22.3430  -14.6120   20.6610 O   0  0  0  0  0  0  0  0  0  0  0  0
  -22.4250  -12.0590   22.4870 H   0  0  0  0  0  0  0  0  0  0  0  0
  -21.1250  -13.1970   22.2860 H   0  0  0  0  0  0  0  0  0  0  0  0
  -25.3830  -15.2340   20.3240 N   0  0  0  0  0  0  0  0  0  0  0  0
  -24.6040  -15.8740   20.4300 H   0  0  0  0  0  0  0  0  0  0  0  0
  -26.2190  -15.6810   19.9750 H   0  0  0  0  0  0  0  0  0  0  0  0
  -28.8310  -21.8550   19.8540 C   0  0  0  0  0  2  0  0  0  0  0  0
  -29.0970  -23.4070   20.4430 C   0  0  0  0  0  3  0  0  0  0  0  0
  -28.1190  -24.7180   20.0230 C   0  0  0  0  0  3  0  0  0  0  0  0
  -28.3090  -26.2320   20.3210 O   0  0  0  0  0  0  0  0  0  0  0  0
  -24.6380  -31.8960   23.2530 C   0  0  0  0  0  0  0  0  0  0  0  0
  -27.2320  -27.1910   20.2340 C   0  0  0  0  0  0  0  0  0  0  0  0
  -23.4390  -30.5010   21.6100 C   0  0  0  0  0  3  0  0  0  0  0  0
  -24.8900  -28.9210   20.1920 C   0  0  0  0  0  0  0  0  0  0  0  0
  -25.9920  -30.7660   21.4510 C   0  0  0  0  0  2  0  0  0  0  0  0
  -26.0670  -29.3740   20.8020 C   0  0  0  0  0  0  0  0  0  0  0  0
  -27.2350  -28.5250   20.8060 C   0  0  0  0  0  3  0  0  0  0  0  0
  -26.0280  -26.8350   19.5830 C   0  0  0  0  0  3  0  0  0  0  0  0
  -24.8830  -27.6630   19.5680 C   0  0  0  0  0  3  0  0  0  0  0  0
  -23.6610  -29.8160   20.2350 C   0  0  0  0  0  2  0  0  0  0  0  0
  -24.7090  -31.0760   22.1590 N   0  0  0  0  0  0  0  0  0  0  0  0
  -23.5520  -32.1840   23.7770 O   0  0  0  0  0  0  0  0  0  0  0  0
  -22.7530  -29.4990   22.5730 C   0  0  0  0  0  0  0  0  0  0  0  0
  -21.4250  -29.3340   22.4420 N   0  0  0  0  0  0  0  0  0  0  0  0
  -23.4200  -28.8710   23.3990 O   0  0  0  0  0  0  0  0  0  0  0  0
  -20.9440  -29.8920   21.7520 H   0  0  0  0  0  0  0  0  0  0  0  0
  -18.0350  -28.1530   22.9380 C   0  0  0  0  0  0  0  0  0  0  0  0
  -20.5950  -28.4020   23.2110 C   0  0  0  0  0  3  0  0  0  0  0  0
  -20.6900  -26.9690   22.6370 C   0  0  0  0  0  2  0  0  0  0  0  0
  -19.5890  -26.6520   21.6210 C   0  0  0  0  0  2  0  0  0  0  0  0
  -18.2070  -26.8040   22.2610 C   0  0  0  0  0  2  0  0  0  0  0  0
  -19.1580  -28.9110   23.3690 C   0  0  0  0  0  0  0  0  0  0  0  0
  -18.9430  -30.1730   23.9630 C   0  0  0  0  0  3  0  0  0  0  0  0
  -17.6390  -30.6790   24.1280 C   0  0  0  0  0  3  0  0  0  0  0  0
  -16.5320  -29.9190   23.7110 C   0  0  0  0  0  3  0  0  0  0  0  0
  -16.7320  -28.6580   23.1230 C   0  0  0  0  0  3  0  0  0  0  0  0
  -25.9170  -32.5270   23.8840 C   0  0  0  0  0  3  0  0  0  0  0  0
  -26.4250  -31.7520   25.1620 C   0  0  1  0  0  0  0  0  0  0  0  0
  -25.3260  -31.5160   26.2240 C   0  0  0  0  0  1  0  0  0  0  0  0
  -27.0060  -30.3730   24.7730 C   0  0  0  0  0  1  0  0  0  0  0  0
  -27.5750  -32.5410   25.8300 C   0  0  0  0  0  1  0  0  0  0  0  0
  -25.6060  -33.9240   24.2220 N   0  0  0  0  0  0  0  0  0  0  0  0
  -25.9240  -34.9830   23.4660 C   0  0  0  0  0  0  0  0  0  0  0  0
  -26.5760  -34.8860   22.4220 O   0  0  0  0  0  0  0  0  0  0  0  0
  -25.0250  -34.0740   25.0340 H   0  0  0  0  0  0  0  0  0  0  0  0
  -24.1770  -36.7710   23.1670 C   0  0  0  0  0  1  0  0  0  0  0  0
  -25.4460  -36.3710   23.9390 C   0  0  0  0  0  3  0  0  0  0  0  0
  -27.6000  -37.2670   24.7030 C   0  0  0  0  0  1  0  0  0  0  0  0
  -26.4690  -37.4290   23.7940 N   0  0  0  0  0  0  0  0  0  0  0  0
  -26.0630  -38.3470   23.9520 H   0  0  0  0  0  0  0  0  0  0  0  0
  1  5  1  0
  3  4  1  0
  3  1  2  0
  4  2  2  0
  5  2  1  0
  8  6  1  6
  8  5  1  0
  8  7  1  0
  9 15  1  0
  9  8  1  0
 10 15  1  0
 11 12  1  0
 11 10  1  0
 13 12  1  0
 13 20  1  0
 13 14  1  0
 15 14  1  0
 16  9  2  0
 17 18  2  0
 18 37  1  0
 19 18  1  0
 19 22  1  0
 20 17  1  0
 20 21  1  0
 21 19  2  0
 22 23  1  0
 23 24  2  0
 25 28  1  0
 25 24  1  0
 26 25  2  0
 27 26  1  0
 27 22  2  0
 28 29  1  0
 29 30  1  0
 30 31  2  0
 32 31  1  0
 32 36  1  0
 33 32  2  0
 34 29  2  0
 34 33  1  0
 35 34  1  0
 37 38  1  0
 38 41  1  0
 38 40  1  0
 39 37  2  0
 42 43  1  0
 42 17  1  0
 44 42  1  0
 45  3  1  0
 45 46  1  0
 47 48  1  0
 47 46  2  0
 49 60  2  0
 50 48  1  0
 50 55  1  0
 51 59  1  0
 51 61  1  0
 52 58  1  0
 52 54  1  0
 53 59  1  0
 54 55  2  0
 54 53  1  0
 56 50  2  0
 57 56  1  0
 57 52  2  0
 58 51  1  0
 59 49  1  0
 61 63  2  0
 62 61  1  0
 64 62  1  0
 65 74  2  0
 65 70  1  0
 66 62  1  0
 66 70  1  0
 67 66  1  0
 68 69  1  0
 68 67  1  0
 69 65  1  0
 70 71  2  0
 71 72  1  0
 73 72  2  0
 74 73  1  0
 75 49  1  0
 75 80  1  0
 75 76  1  0
 76 79  1  1
 76 77  1  0
 78 76  1  0
 80 83  1  0
 81 85  1  0
 81 80  1  0
 82 81  2  0
 85 84  1  0
 87 85  1  0
 87 88  1  0
 87 86  1  0
M  ISO  4   8 100   9 100  47 101  48 101
M  END
>  <TORSDO>  (4) 
F 20

>  <SCORE>  (4) 
-13.408

>  <name>  (4) 
3

>  <ligand_id>  (4) 
3

>  <original_smiles>  (4) 
[H]c1c([H])c([H])c2c(c1[H])C([H])([H])C([H])([H])C([H])([H])C2([H])N([H])C(=O)C1([H])N(C(=O)C([H])(N([H])C(=O)C([H])(N([H])C([H])([H])[H])C([H])([H])[H])C(C([H])([H])[H])(C([H])([H])[H])C([H])([H])[H])C([H])([H])c2c([H])c(OC([H])([H])C([H])([H])C([H])([H])c3nc([H])n(C(C(=O)N4C([H])([H])C([H])([H])C([H])([H])C([H])(n5nc(-c6c([H])c([H])c(Oc7c([H])c([H])c(F)c([H])c7F)c([H])c6[H])c(C(=O)N([H])[H])c5N([H])[H])C4([H])[H])(C([H])([H])[H])C([H])([H])[H])c3[H])c([H])c([H])c2C1([H])[H]

>  <smiles>  (4) 
[H]c1c([H])c([H])c2c(c1[H])C([H])([H])C([H])([H])C([H])([H])C2([H])N([H])C(=O)C1([H])N(C(=O)C([H])(N([H])C(=O)C([H])(N([H])C([H])([H])[H])C([H])([H])[H])C(C([H])([H])[H])(C([H])([H])[H])C([H])([H])[H])C([H])([H])c2c([H])c(OC([H])([H])C([H])([H])C([H])([H])c3nc([H])n(C(C(=O)N4C([H])([H])C([H])([H])C([H])([H])C([H])(n5nc(-c6c([H])c([H])c(Oc7c([H])c([H])c(F)c([H])c7F)c([H])c6[H])c(C(=O)N([H])[H])c5N([H])[H])C4([H])[H])(C([H])([H])[H])C([H])([H])[H])c3[H])c([H])c([H])c2C1([H])[H]

$$$$
4:0:0
     RDKit          3D

 89 97  0  0  1  0  0  0  0  0999 V2000
  -30.1210  -20.8700   19.9430 C   0  0  0  0  0  3  0  0  0  0  0  0
  -28.4310  -19.7700   20.5950 C   0  0  0  0  0  3  0  0  0  0  0  0
  -29.1430  -21.8720   20.2370 C   0  0  0  0  0  0  0  0  0  0  0  0
  -28.0680  -21.0790   20.6750 N   0  0  0  0  0  0  0  0  0  0  0  0
  -29.6830  -19.4950   20.1620 N   0  0  0  0  0  0  0  0  0  0  0  0
  -31.3380  -18.1910   18.7660 C   0  0  0  0  0  1  0  0  0  0  0  0
  -30.4740  -18.1060   20.0410 C   0  0  0  0  0  3  0  0  0  0  0  0
  -28.6280  -16.6570   19.1310 C   0  0  0  0  0  1  0  0  0  0  0  0
  -29.2050  -16.5030   21.6210 C   0  0  0  0  0  1  0  0  0  0  0  0
  -29.7700  -16.5600   20.1740 C   0  0  2  0  0  0  0  0  0  0  0  0
  -30.5730  -15.0860   19.9090 C   0  0  0  0  0  0  0  0  0  0  0  0
  -30.4230  -12.7300   18.9430 C   0  0  0  0  0  2  0  0  0  0  0  0
  -29.4070  -12.6780   17.7760 C   0  0  0  0  0  2  0  0  0  0  0  0
  -27.9840  -12.4030   18.3010 C   0  0  0  0  0  2  0  0  0  0  0  0
  -27.6300  -13.3050   19.5060 C   0  0  0  0  0  3  0  0  0  0  0  0
  -28.7620  -13.3510   20.5540 C   0  0  0  0  0  2  0  0  0  0  0  0
  -29.9920  -13.8070   19.8850 N   0  0  0  0  0  0  0  0  0  0  0  0
  -31.7610  -15.1180   19.5680 O   0  0  0  0  0  0  0  0  0  0  0  0
  -25.3080  -13.8540   20.4400 C   0  0  0  0  0  0  0  0  0  0  0  0
  -24.2780  -13.0620   20.8580 C   0  0  0  0  0  0  0  0  0  0  0  0
  -24.7480  -11.7190   20.7520 C   0  0  0  0  0  0  0  0  0  0  0  0
  -26.3360  -12.9910   20.0950 N   0  0  0  0  0  0  0  0  0  0  0  0
  -26.0130  -11.7000   20.3520 N   0  0  0  0  0  0  0  0  0  0  0  0
  -24.0440  -10.4490   20.9490 C   0  0  0  0  0  0  0  0  0  0  0  0
  -24.4890   -9.4990   21.8940 C   0  0  0  0  0  3  0  0  0  0  0  0
  -23.7820   -8.2910   22.0780 C   0  0  0  0  0  3  0  0  0  0  0  0
  -22.6170   -8.0270   21.3180 C   0  0  0  0  0  0  0  0  0  0  0  0
  -22.1930   -8.9680   20.3630 C   0  0  0  0  0  3  0  0  0  0  0  0
  -22.9000  -10.1660   20.1750 C   0  0  0  0  0  3  0  0  0  0  0  0
  -21.8820   -6.8710   21.4130 O   0  0  0  0  0  0  0  0  0  0  0  0
  -21.7590   -6.1930   22.5990 C   0  0  0  0  0  0  0  0  0  0  0  0
  -21.2160   -6.8010   23.7530 C   0  0  0  0  0  3  0  0  0  0  0  0
  -21.0430   -6.0470   24.9300 C   0  0  0  0  0  3  0  0  0  0  0  0
  -21.4030   -4.6850   24.9550 C   0  0  0  0  0  0  0  0  0  0  0  0
  -21.9380   -4.0770   23.8050 C   0  0  0  0  0  3  0  0  0  0  0  0
  -22.1130   -4.8290   22.6300 C   0  0  0  0  0  0  0  0  0  0  0  0
  -22.6090   -4.2330   21.5190 F   0  0  0  0  0  0  0  0  0  0  0  0
  -21.2270   -3.9580   26.0820 F   0  0  0  0  0  0  0  0  0  0  0  0
  -22.9000  -13.5230   21.2370 C   0  0  0  0  0  0  0  0  0  0  0  0
  -22.2380  -12.8010   22.1330 N   0  0  0  0  0  0  0  0  0  0  0  0
  -22.4210  -14.5580   20.7730 O   0  0  0  0  0  0  0  0  0  0  0  0
  -22.6410  -11.9660   22.5310 H   0  0  0  0  0  0  0  0  0  0  0  0
  -21.3170  -13.0910   22.4310 H   0  0  0  0  0  0  0  0  0  0  0  0
  -25.4330  -15.2310   20.2980 N   0  0  0  0  0  0  0  0  0  0  0  0
  -24.6610  -15.8610   20.4830 H   0  0  0  0  0  0  0  0  0  0  0  0
  -26.2420  -15.6940   19.9080 H   0  0  0  0  0  0  0  0  0  0  0  0
  -29.2320  -23.5170   20.4030 C   0  0  0  0  0  3  0  0  0  0  0  0
  -28.1370  -24.7250   19.9790 C   0  0  0  0  0  3  0  0  0  0  0  0
  -28.3230  -26.2520   20.2430 O   0  0  0  0  0  0  0  0  0  0  0  0
  -24.6330  -31.8700   23.2550 C   0  0  0  0  0  0  0  0  0  0  0  0
  -27.2470  -27.2100   20.1790 C   0  0  0  0  0  0  0  0  0  0  0  0
  -23.4450  -30.4930   21.5910 C   0  0  0  0  0  3  0  0  0  0  0  0
  -24.9050  -28.9380   20.1550 C   0  0  0  0  0  0  0  0  0  0  0  0
  -25.9980  -30.7680   21.4430 C   0  0  0  0  0  2  0  0  0  0  0  0
  -26.0790  -29.3850   20.7740 C   0  0  0  0  0  0  0  0  0  0  0  0
  -27.2490  -28.5380   20.7660 C   0  0  0  0  0  3  0  0  0  0  0  0
  -26.0450  -26.8580   19.5260 C   0  0  0  0  0  3  0  0  0  0  0  0
  -24.9000  -27.6870   19.5160 C   0  0  0  0  0  3  0  0  0  0  0  0
  -23.6740  -29.8310   20.2050 C   0  0  0  0  0  2  0  0  0  0  0  0
  -24.7110  -31.0650   22.1520 N   0  0  0  0  0  0  0  0  0  0  0  0
  -23.5440  -32.1460   23.7810 O   0  0  0  0  0  0  0  0  0  0  0  0
  -22.7610  -29.4750   22.5370 C   0  0  0  0  0  0  0  0  0  0  0  0
  -21.4340  -29.3070   22.4010 N   0  0  0  0  0  0  0  0  0  0  0  0
  -23.4270  -28.8390   23.3570 O   0  0  0  0  0  0  0  0  0  0  0  0
  -20.9540  -29.8730   21.7140 H   0  0  0  0  0  0  0  0  0  0  0  0
  -18.0460  -28.1180   22.8840 C   0  0  0  0  0  0  0  0  0  0  0  0
  -20.6070  -28.3610   23.1550 C   0  0  0  0  0  3  0  0  0  0  0  0
  -20.6990  -26.9390   22.5530 C   0  0  0  0  0  2  0  0  0  0  0  0
  -19.5950  -26.6420   21.5340 C   0  0  0  0  0  2  0  0  0  0  0  0
  -18.2140  -26.7820   22.1810 C   0  0  0  0  0  2  0  0  0  0  0  0
  -19.1690  -28.8660   23.3260 C   0  0  0  0  0  0  0  0  0  0  0  0
  -18.9560  -30.1190   23.9450 C   0  0  0  0  0  3  0  0  0  0  0  0
  -17.6540  -30.6210   24.1250 C   0  0  0  0  0  3  0  0  0  0  0  0
  -16.5450  -29.8700   23.6970 C   0  0  0  0  0  3  0  0  0  0  0  0
  -16.7430  -28.6200   23.0820 C   0  0  0  0  0  3  0  0  0  0  0  0
  -25.9070  -32.4990   23.8990 C   0  0  0  0  0  3  0  0  0  0  0  0
  -26.3940  -31.7280   25.1890 C   0  0  1  0  0  0  0  0  0  0  0  0
  -25.2790  -31.5010   26.2370 C   0  0  0  0  0  1  0  0  0  0  0  0
  -26.9750  -30.3450   24.8160 C   0  0  0  0  0  1  0  0  0  0  0  0
  -27.5380  -32.5170   25.8700 C   0  0  0  0  0  1  0  0  0  0  0  0
  -25.5990  -33.8990   24.2270 N   0  0  0  0  0  0  0  0  0  0  0  0
  -25.9230  -34.9520   23.4640 C   0  0  0  0  0  0  0  0  0  0  0  0
  -26.5800  -34.8450   22.4250 O   0  0  0  0  0  0  0  0  0  0  0  0
  -25.0140  -34.0570   25.0350 H   0  0  0  0  0  0  0  0  0  0  0  0
  -24.1800  -36.7410   23.1480 C   0  0  0  0  0  1  0  0  0  0  0  0
  -25.4460  -36.3430   23.9260 C   0  0  0  0  0  3  0  0  0  0  0  0
  -27.5990  -37.2450   24.6920 C   0  0  0  0  0  1  0  0  0  0  0  0
  -26.4720  -37.3990   23.7740 N   0  0  0  0  0  0  0  0  0  0  0  0
  -26.0670  -38.3200   23.9200 H   0  0  0  0  0  0  0  0  0  0  0  0
  1  5  1  0
  1  3  2  0
  2  4  2  0
  3 47  1  0
  3  4  1  0
  5  2  1  0
  7  6  1  0
  7  5  1  0
  7 10  1  0
 10  8  1  6
 10  9  1  0
 11 10  1  0
 12 17  1  0
 13 14  1  0
 13 12  1  0
 15 14  1  0
 15 22  1  0
 15 16  1  0
 17 11  1  0
 17 16  1  0
 18 11  2  0
 19 20  2  0
 20 39  1  0
 21 20  1  0
 21 24  1  0
 22 23  1  0
 22 19  1  0
 23 21  2  0
 24 25  1  0
 25 26  2  0
 27 30  1  0
 27 26  1  0
 28 27  2  0
 29 28  1  0
 29 24  2  0
 30 31  1  0
 31 36  2  0
 31 32  1  0
 32 33  2  0
 33 34  1  0
 34 38  1  0
 35 34  2  0
 36 35  1  0
 37 36  1  0
 39 40  1  0
 40 43  1  0
 40 42  1  0
 41 39  2  0
 44 19  1  0
 44 45  1  0
 46 44  1  0
 48 49  1  0
 48 47  2  0
 50 61  2  0
 51 49  1  0
 51 56  1  0
 52 60  1  0
 52 62  1  0
 53 59  1  0
 53 55  1  0
 54 60  1  0
 55 54  1  0
 56 55  2  0
 57 51  2  0
 58 57  1  0
 58 53  2  0
 59 52  1  0
 60 50  1  0
 62 64  2  0
 63 62  1  0
 65 63  1  0
 66 75  2  0
 66 71  1  0
 67 63  1  0
 67 71  1  0
 68 67  1  0
 69 70  1  0
 69 68  1  0
 70 66  1  0
 71 72  2  0
 72 73  1  0
 74 73  2  0
 75 74  1  0
 76 50  1  0
 76 81  1  0
 76 77  1  0
 77 80  1  1
 77 78  1  0
 79 77  1  0
 81 84  1  0
 82 86  1  0
 82 81  1  0
 83 82  2  0
 86 85  1  0
 88 89  1  0
 88 86  1  0
 88 87  1  0
M  ISO  4  10 100  11 100  48 101  49 101
M  END
>  <TORSDO>  (5) 
F 20

>  <SCORE>  (5) 
-14.134

>  <name>  (5) 
4

>  <ligand_id>  (5) 
4

>  <original_smiles>  (5) 
[H]c1c([H])c([H])c2c(c1[H])C([H])([H])C([H])([H])C([H])([H])C2([H])N([H])C(=O)C1([H])N(C(=O)C([H])(N([H])C(=O)C([H])(N([H])C([H])([H])[H])C([H])([H])[H])C(C([H])([H])[H])(C([H])([H])[H])C([H])([H])[H])C([H])([H])c2c([H])c(OC([H])([H])C([H])([H])c3nc([H])n(C([H])(C([H])([H])[H])C(C(=O)N4C([H])([H])C([H])([H])C([H])([H])C([H])(n5nc(-c6c([H])c([H])c(Oc7c([H])c([H])c(F)c([H])c7F)c([H])c6[H])c(C(=O)N([H])[H])c5N([H])[H])C4([H])[H])(C([H])([H])[H])C([H])([H])[H])c3[H])c([H])c([H])c2C1([H])[H]

>  <smiles>  (5) 
[H]c1c([H])c([H])c2c(c1[H])C([H])([H])C([H])([H])C([H])([H])C2([H])N([H])C(=O)C1([H])N(C(=O)C([H])(N([H])C(=O)C([H])(N([H])C([H])([H])[H])C([H])([H])[H])C(C([H])([H])[H])(C([H])([H])[H])C([H])([H])[H])C([H])([H])c2c([H])c(OC([H])([H])C([H])([H])c3nc([H])n(C([H])(C([H])([H])[H])C(C(=O)N4C([H])([H])C([H])([H])C([H])([H])C([H])(n5nc(-c6c([H])c([H])c(Oc7c([H])c([H])c(F)c([H])c7F)c([H])c6[H])c(C(=O)N([H])[H])c5N([H])[H])C4([H])[H])(C([H])([H])[H])C([H])([H])[H])c3[H])c([H])c([H])c2C1([H])[H]

$$$$
5:0:0
     RDKit          3D

 94102  0  0  1  0  0  0  0  0999 V2000
  -27.6420  -21.8360   21.2550 C   0  0  0  0  0  3  0  0  0  0  0  0
  -28.1370  -23.1440   21.2010 C   0  0  0  0  0  3  0  0  0  0  0  0
  -28.1950  -20.8600   20.4130 C   0  0  0  0  0  0  0  0  0  0  0  0
  -29.1610  -23.4610   20.2850 C   0  0  0  0  0  0  0  0  0  0  0  0
  -29.2720  -21.2270   19.5680 C   0  0  0  0  0  0  0  0  0  0  0  0
  -27.5840  -19.4680   20.4770 C   0  0  0  0  0  1  0  0  0  0  0  0
  -29.7340  -22.5030   19.5110 N   0  0  0  0  0  0  0  0  0  0  0  0
  -29.6400  -24.9070   20.0630 C   0  0  0  0  0  2  0  0  0  0  0  0
  -28.7670  -25.9920   20.7380 C   0  0  0  0  0  2  0  0  0  0  0  0
  -28.9960  -27.3440   20.2920 O   0  0  0  0  0  0  0  0  0  0  0  0
  -24.8790  -31.9900   23.7590 C   0  0  0  0  0  0  0  0  0  0  0  0
  -27.8320  -28.0810   20.2790 C   0  0  0  0  0  0  0  0  0  0  0  0
  -23.7940  -30.7340   21.9250 C   0  0  0  0  0  3  0  0  0  0  0  0
  -25.3670  -29.4530   20.3770 C   0  0  0  0  0  0  0  0  0  0  0  0
  -26.3030  -31.2360   21.8580 C   0  0  0  0  0  2  0  0  0  0  0  0
  -26.4790  -29.9590   21.0630 C   0  0  0  0  0  0  0  0  0  0  0  0
  -27.7180  -29.2800   21.0150 C   0  0  0  0  0  3  0  0  0  0  0  0
  -26.7110  -27.6010   19.5670 C   0  0  0  0  0  3  0  0  0  0  0  0
  -25.4790  -28.2730   19.6230 C   0  0  0  0  0  3  0  0  0  0  0  0
  -24.0770  -30.2360   20.4830 C   0  0  0  0  0  2  0  0  0  0  0  0
  -25.0080  -31.3280   22.5740 N   0  0  0  0  0  0  0  0  0  0  0  0
  -23.7700  -32.1440   24.2890 O   0  0  0  0  0  0  0  0  0  0  0  0
  -23.1710  -29.5760   22.7380 C   0  0  0  0  0  0  0  0  0  0  0  0
  -21.8820  -29.2950   22.4860 N   0  0  0  0  0  0  0  0  0  0  0  0
  -23.8460  -28.9380   23.5500 O   0  0  0  0  0  0  0  0  0  0  0  0
  -21.3940  -29.8720   21.8160 H   0  0  0  0  0  0  0  0  0  0  0  0
  -18.6280  -27.7240   22.5280 C   0  0  0  0  0  0  0  0  0  0  0  0
  -21.0970  -28.2250   23.1030 C   0  0  0  0  0  3  0  0  0  0  0  0
  -21.4180  -26.8550   22.4600 C   0  0  0  0  0  2  0  0  0  0  0  0
  -20.4730  -26.4920   21.3100 C   0  0  0  0  0  2  0  0  0  0  0  0
  -19.0230  -26.4490   21.8000 C   0  0  0  0  0  2  0  0  0  0  0  0
  -19.6030  -28.5650   23.1260 C   0  0  0  0  0  0  0  0  0  0  0  0
  -19.1860  -29.7560   23.7580 C   0  0  0  0  0  3  0  0  0  0  0  0
  -17.8230  -30.1080   23.8020 C   0  0  0  0  0  3  0  0  0  0  0  0
  -16.8600  -29.2640   23.2230 C   0  0  0  0  0  3  0  0  0  0  0  0
  -17.2630  -28.0730   22.5900 C   0  0  0  0  0  3  0  0  0  0  0  0
  -26.1130  -32.6040   24.4900 C   0  0  0  0  0  3  0  0  0  0  0  0
  -25.7820  -33.9940   24.8260 N   0  0  0  0  0  0  0  0  0  0  0  0
  -26.1670  -35.0610   24.1120 C   0  0  0  0  0  0  0  0  0  0  0  0
  -26.9100  -34.9770   23.1300 O   0  0  0  0  0  0  0  0  0  0  0  0
  -25.1340  -34.1340   25.5870 H   0  0  0  0  0  0  0  0  0  0  0  0
  -24.4680  -36.8580   23.6660 C   0  0  0  0  0  1  0  0  0  0  0  0
  -25.6470  -36.4400   24.5590 C   0  0  0  0  0  3  0  0  0  0  0  0
  -27.7160  -37.3070   25.5550 C   0  0  0  0  0  1  0  0  0  0  0  0
  -26.6830  -37.4940   24.5400 N   0  0  0  0  0  0  0  0  0  0  0  0
  -26.2660  -38.4110   24.6760 H   0  0  0  0  0  0  0  0  0  0  0  0
  -26.5330  -31.8030   25.7830 C   0  0  1  0  0  0  0  0  0  0  0  0
  -25.3560  -31.5080   26.7410 C   0  0  0  0  0  1  0  0  0  0  0  0
  -27.1820  -30.4520   25.3990 C   0  0  0  0  0  1  0  0  0  0  0  0
  -27.6000  -32.5980   26.5700 C   0  0  0  0  0  1  0  0  0  0  0  0
  -30.0230  -20.2030   18.7090 C   0  0  0  0  0  2  0  0  0  0  0  0
  -31.3310  -19.7310   19.3810 C   0  0  0  0  0  2  0  0  0  0  0  0
  -31.7000  -18.2230   19.2320 C   0  0  0  0  0  2  0  0  0  0  0  0
  -30.4400  -17.8840   21.3710 C   0  0  0  0  0  1  0  0  0  0  0  0
  -30.9660  -17.2600   20.1270 N   0  0  2  0  0  4  0  0  0  0  0  0
  -30.1520  -16.9650   19.6070 H   0  0  0  0  0  0  0  0  0  0  0  0
  -33.1110  -16.2010   21.0170 C   0  0  0  0  0  1  0  0  0  0  0  0
  -31.6860  -15.9800   20.4540 C   0  0  0  0  0  3  0  0  0  0  0  0
  -31.7280  -14.9480   19.2990 C   0  0  0  0  0  0  0  0  0  0  0  0
  -31.2930  -12.6390   18.5290 C   0  0  0  0  0  2  0  0  0  0  0  0
  -30.2590  -12.5100   17.4030 C   0  0  0  0  0  2  0  0  0  0  0  0
  -28.8390  -12.4200   17.9840 C   0  0  0  0  0  2  0  0  0  0  0  0
  -28.5550  -13.5460   19.0090 C   0  0  0  0  0  3  0  0  0  0  0  0
  -29.6870  -13.6510   20.0590 C   0  0  0  0  0  2  0  0  0  0  0  0
  -30.9700  -13.8180   19.3480 N   0  0  0  0  0  0  0  0  0  0  0  0
  -32.5660  -15.1280   18.4090 O   0  0  0  0  0  0  0  0  0  0  0  0
  -26.3140  -14.3310   20.0070 C   0  0  0  0  0  0  0  0  0  0  0  0
  -25.2350  -13.6380   20.4870 C   0  0  0  0  0  0  0  0  0  0  0  0
  -25.5710  -12.2550   20.3730 C   0  0  0  0  0  0  0  0  0  0  0  0
  -27.2470  -13.3730   19.6380 N   0  0  0  0  0  0  0  0  0  0  0  0
  -26.8090  -12.1180   19.9140 N   0  0  0  0  0  0  0  0  0  0  0  0
  -24.7670  -11.0520   20.6230 C   0  0  0  0  0  0  0  0  0  0  0  0
  -25.1130  -10.1310   21.6370 C   0  0  0  0  0  3  0  0  0  0  0  0
  -24.3130   -8.9910   21.8710 C   0  0  0  0  0  3  0  0  0  0  0  0
  -23.1550   -8.7640   21.0910 C   0  0  0  0  0  0  0  0  0  0  0  0
  -22.8290   -9.6720   20.0670 C   0  0  0  0  0  3  0  0  0  0  0  0
  -23.6270  -10.8030   19.8320 C   0  0  0  0  0  3  0  0  0  0  0  0
  -22.3340   -7.6700   21.2290 O   0  0  0  0  0  0  0  0  0  0  0  0
  -22.0870   -7.1070   22.4540 C   0  0  0  0  0  0  0  0  0  0  0  0
  -21.5060   -7.8440   23.5090 C   0  0  0  0  0  3  0  0  0  0  0  0
  -21.2040   -7.2070   24.7300 C   0  0  0  0  0  3  0  0  0  0  0  0
  -21.4720   -5.8350   24.8940 C   0  0  0  0  0  0  0  0  0  0  0  0
  -22.0460   -5.0980   23.8430 C   0  0  0  0  0  3  0  0  0  0  0  0
  -22.3490   -5.7330   22.6260 C   0  0  0  0  0  0  0  0  0  0  0  0
  -22.8820   -5.0130   21.6090 F   0  0  0  0  0  0  0  0  0  0  0  0
  -21.1750   -5.2210   26.0640 F   0  0  0  0  0  0  0  0  0  0  0  0
  -23.9240  -14.2210   20.9320 C   0  0  0  0  0  0  0  0  0  0  0  0
  -23.2640  -13.5810   21.8930 N   0  0  0  0  0  0  0  0  0  0  0  0
  -23.5010  -15.2770   20.4640 O   0  0  0  0  0  0  0  0  0  0  0  0
  -23.6210  -12.7260   22.2910 H   0  0  0  0  0  0  0  0  0  0  0  0
  -22.3890  -13.9540   22.2330 H   0  0  0  0  0  0  0  0  0  0  0  0
  -26.5740  -15.6880   19.8370 N   0  0  0  0  0  0  0  0  0  0  0  0
  -25.8670  -16.3900   20.0200 H   0  0  0  0  0  0  0  0  0  0  0  0
  -27.3790  -16.0560   19.3490 H   0  0  0  0  0  0  0  0  0  0  0  0
  2  1  1  0
  3  6  1  0
  3  1  2  0
  4  2  2  0
  5  3  1  0
  7  5  2  0
  7  4  1  0
  8  4  1  0
  8  9  1  0
 10  9  1  0
 11 22  2  0
 12 10  1  0
 12 17  1  0
 13 21  1  0
 13 23  1  0
 14 20  1  0
 14 16  1  0
 15 21  1  0
 16 15  1  0
 17 16  2  0
 18 19  1  0
 18 12  2  0
 19 14  2  0
 20 13  1  0
 21 11  1  0
 23 25  2  0
 24 23  1  0
 26 24  1  0
 27 36  2  0
 27 32  1  0
 28 24  1  0
 28 32  1  0
 29 28  1  0
 30 31  1  0
 30 29  1  0
 31 27  1  0
 32 33  2  0
 33 34  1  0
 35 34  2  0
 36 35  1  0
 37 11  1  0
 37 38  1  0
 37 47  1  0
 38 41  1  0
 39 43  1  0
 39 38  1  0
 40 39  2  0
 43 42  1  0
 45 43  1  0
 45 46  1  0
 45 44  1  0
 47 50  1  1
 47 48  1  0
 49 47  1  0
 51 52  1  0
 51  5  1  0
 53 52  1  0
 53 55  1  0
 55 58  1  0
 55 54  1  0
 55 56  1  6
 58 57  1  0
 59 65  1  0
 59 58  1  0
 60 65  1  0
 61 62  1  0
 61 60  1  0
 63 62  1  0
 63 70  1  0
 63 64  1  0
 65 64  1  0
 66 59  2  0
 67 68  2  0
 68 87  1  0
 69 68  1  0
 69 72  1  0
 70 71  1  0
 70 67  1  0
 71 69  2  0
 72 73  1  0
 73 74  2  0
 75 78  1  0
 75 74  1  0
 76 75  2  0
 77 76  1  0
 77 72  2  0
 78 79  1  0
 79 84  2  0
 79 80  1  0
 80 81  2  0
 81 82  1  0
 82 86  1  0
 83 82  2  0
 84 83  1  0
 85 84  1  0
 87 88  1  0
 88 91  1  0
 88 90  1  0
 89 87  2  0
 92 67  1  0
 92 93  1  0
 94 92  1  0
M  ISO  4   9 101  10 101  58 100  59 100
M  END
>  <TORSDO>  (6) 
F 23

>  <SCORE>  (6) 
-8.467

>  <name>  (6) 
5

>  <ligand_id>  (6) 
5

>  <original_smiles>  (6) 
[H]c1c(C([H])([H])C([H])([H])Oc2c([H])c([H])c3c(c2[H])C([H])([H])N(C(=O)C([H])(N([H])C(=O)C([H])(N([H])C([H])([H])[H])C([H])([H])[H])C(C([H])([H])[H])(C([H])([H])[H])C([H])([H])[H])C([H])(C(=O)N([H])C2([H])c4c([H])c([H])c([H])c([H])c4C([H])([H])C([H])([H])C2([H])[H])C3([H])[H])nc(C([H])([H])C([H])([H])C([H])([H])[N+]([H])(C([H])([H])[H])C([H])(C(=O)N2C([H])([H])C([H])([H])C([H])([H])C([H])(n3nc(-c4c([H])c([H])c(Oc5c([H])c([H])c(F)c([H])c5F)c([H])c4[H])c(C(=O)N([H])[H])c3N([H])[H])C2([H])[H])C([H])([H])[H])c(C([H])([H])[H])c1[H]

>  <smiles>  (6) 
[H]c1c(C([H])([H])C([H])([H])Oc2c([H])c([H])c3c(c2[H])C([H])([H])N(C(=O)C([H])(N([H])C(=O)C([H])(N([H])C([H])([H])[H])C([H])([H])[H])C(C([H])([H])[H])(C([H])([H])[H])C([H])([H])[H])C([H])(C(=O)N([H])C2([H])c4c([H])c([H])c([H])c([H])c4C([H])([H])C([H])([H])C2([H])[H])C3([H])[H])nc(C([H])([H])C([H])([H])C([H])([H])[N+]([H])(C([H])([H])[H])C([H])(C(=O)N2C([H])([H])C([H])([H])C([H])([H])C([H])(n3nc(-c4c([H])c([H])c(Oc5c([H])c([H])c(F)c([H])c5F)c([H])c4[H])c(C(=O)N([H])[H])c3N([H])[H])C2([H])[H])C([H])([H])[H])c(C([H])([H])[H])c1[H]

$$$$
6:0:0
     RDKit          3D

 91 99  0  0  1  0  0  0  0  0999 V2000
  -30.3560  -19.3000   21.3270 C   0  0  0  0  0  3  0  0  0  0  0  0
  -31.1210  -18.4040   20.6140 C   0  0  0  0  0  0  0  0  0  0  0  0
  -31.2620  -18.9360   19.3290 N   0  0  0  0  0  0  0  0  0  0  0  0
  -30.5690  -20.0380   19.2190 N   0  0  0  0  0  0  0  0  0  0  0  0
  -29.9610  -20.2730   20.4110 N   0  0  0  0  0  0  0  0  0  0  0  0
  -31.6750  -17.0110   21.0030 C   0  0  0  0  0  2  0  0  0  0  0  0
  -31.4150  -14.5230   20.6480 C   0  0  0  0  0  0  0  0  0  0  0  0
  -31.2290  -12.0560   20.2980 C   0  0  0  0  0  2  0  0  0  0  0  0
  -30.5230  -11.6820   18.9790 C   0  0  0  0  0  2  0  0  0  0  0  0
  -29.0050  -11.5720   19.2060 C   0  0  0  0  0  2  0  0  0  0  0  0
  -28.4420  -12.8170   19.9210 C   0  0  0  0  0  3  0  0  0  0  0  0
  -29.2830  -13.1780   21.1750 C   0  0  0  0  0  2  0  0  0  0  0  0
  -30.6850  -13.3540   20.7680 N   0  0  0  0  0  0  0  0  0  0  0  0
  -32.6340  -14.4340   20.4650 O   0  0  0  0  0  0  0  0  0  0  0  0
  -30.8360  -15.7860   20.7080 N   0  0  0  0  0  0  0  0  0  0  0  0
  -26.0290  -13.6620   20.1580 C   0  0  0  0  0  0  0  0  0  0  0  0
  -24.8600  -13.0130   20.4330 C   0  0  0  0  0  0  0  0  0  0  0  0
  -25.2140  -11.6510   20.6640 C   0  0  0  0  0  0  0  0  0  0  0  0
  -27.0230  -12.6970   20.2180 N   0  0  0  0  0  0  0  0  0  0  0  0
  -26.5280  -11.4920   20.5880 N   0  0  0  0  0  0  0  0  0  0  0  0
  -24.3750  -10.4700   20.8920 C   0  0  0  0  0  0  0  0  0  0  0  0
  -24.6850   -9.5340   21.9000 C   0  0  0  0  0  3  0  0  0  0  0  0
  -23.8530   -8.4140   22.1140 C   0  0  0  0  0  3  0  0  0  0  0  0
  -22.6990   -8.2240   21.3160 C   0  0  0  0  0  0  0  0  0  0  0  0
  -22.4080   -9.1510   20.2990 C   0  0  0  0  0  3  0  0  0  0  0  0
  -23.2400  -10.2620   20.0850 C   0  0  0  0  0  3  0  0  0  0  0  0
  -21.8510   -7.1500   21.4300 O   0  0  0  0  0  0  0  0  0  0  0  0
  -21.7770   -6.4170   22.5870 C   0  0  0  0  0  0  0  0  0  0  0  0
  -21.4620   -7.0120   23.8270 C   0  0  0  0  0  3  0  0  0  0  0  0
  -21.3280   -6.2110   24.9780 C   0  0  0  0  0  3  0  0  0  0  0  0
  -21.5010   -4.8160   24.8910 C   0  0  0  0  0  0  0  0  0  0  0  0
  -21.8110   -4.2210   23.6550 C   0  0  0  0  0  3  0  0  0  0  0  0
  -21.9470   -5.0210   22.5050 C   0  0  0  0  0  0  0  0  0  0  0  0
  -22.2260   -4.4420   21.3140 F   0  0  0  0  0  0  0  0  0  0  0  0
  -21.3670   -4.0450   25.9950 F   0  0  0  0  0  0  0  0  0  0  0  0
  -23.4760  -13.6010   20.3900 C   0  0  0  0  0  0  0  0  0  0  0  0
  -22.5800  -13.1170   21.2460 N   0  0  0  0  0  0  0  0  0  0  0  0
  -23.2000  -14.5310   19.6360 O   0  0  0  0  0  0  0  0  0  0  0  0
  -22.8160  -12.3720   21.8840 H   0  0  0  0  0  0  0  0  0  0  0  0
  -21.6490  -13.5050   21.2710 H   0  0  0  0  0  0  0  0  0  0  0  0
  -26.3200  -14.9810   19.8370 N   0  0  0  0  0  0  0  0  0  0  0  0
  -25.6020  -15.6930   19.8880 H   0  0  0  0  0  0  0  0  0  0  0  0
  -27.2550  -15.3650   19.8060 H   0  0  0  0  0  0  0  0  0  0  0  0
  -29.5730  -16.1750   20.0400 C   0  0  0  0  0  2  0  0  0  0  0  0
  -27.4650  -17.6430   20.2140 C   0  0  0  0  0  1  0  0  0  0  0  0
  -28.5580  -16.8750   20.9770 C   0  0  0  0  0  2  0  0  0  0  0  0
  -28.8590  -21.2690   20.4930 C   0  0  0  0  0  2  0  0  0  0  0  0
  -29.1990  -22.7880   20.6670 C   0  0  0  0  0  2  0  0  0  0  0  0
  -28.0250  -23.7590   20.2410 C   0  0  0  0  0  2  0  0  0  0  0  0
  -28.1390  -25.2520   20.7130 C   0  0  0  0  0  2  0  0  0  0  0  0
  -27.8080  -26.2890   19.7490 O   0  0  0  0  0  0  0  0  0  0  0  0
  -24.4600  -31.6690   23.1580 C   0  0  0  0  0  0  0  0  0  0  0  0
  -26.6810  -27.0780   19.9290 C   0  0  0  0  0  0  0  0  0  0  0  0
  -23.0900  -30.3580   21.5710 C   0  0  0  0  0  3  0  0  0  0  0  0
  -24.3780  -28.7410   20.0680 C   0  0  0  0  0  0  0  0  0  0  0  0
  -25.6190  -30.5680   21.2380 C   0  0  0  0  0  2  0  0  0  0  0  0
  -25.5960  -29.1900   20.5970 C   0  0  0  0  0  0  0  0  0  0  0  0
  -26.7500  -28.3690   20.5170 C   0  0  0  0  0  3  0  0  0  0  0  0
  -25.4460  -26.6490   19.4010 C   0  0  0  0  0  3  0  0  0  0  0  0
  -24.3010  -27.4710   19.4670 C   0  0  0  0  0  3  0  0  0  0  0  0
  -23.1900  -29.6750   20.1790 C   0  0  0  0  0  2  0  0  0  0  0  0
  -24.4130  -30.8790   22.0470 N   0  0  0  0  0  0  0  0  0  0  0  0
  -23.4270  -31.9960   23.7570 O   0  0  0  0  0  0  0  0  0  0  0  0
  -22.4270  -29.3700   22.5590 C   0  0  0  0  0  0  0  0  0  0  0  0
  -21.0950  -29.2280   22.4640 N   0  0  0  0  0  0  0  0  0  0  0  0
  -23.1100  -28.7320   23.3640 O   0  0  0  0  0  0  0  0  0  0  0  0
  -20.6040  -29.7900   21.7830 H   0  0  0  0  0  0  0  0  0  0  0  0
  -17.7080  -28.0860   23.0060 C   0  0  0  0  0  0  0  0  0  0  0  0
  -20.2700  -28.3190   23.2610 C   0  0  0  0  0  3  0  0  0  0  0  0
  -20.3520  -26.8730   22.7210 C   0  0  0  0  0  2  0  0  0  0  0  0
  -19.2430  -26.5400   21.7180 C   0  0  0  0  0  2  0  0  0  0  0  0
  -17.8650  -26.7180   22.3630 C   0  0  0  0  0  2  0  0  0  0  0  0
  -18.8380  -28.8440   23.4130 C   0  0  0  0  0  0  0  0  0  0  0  0
  -18.6380  -30.1240   23.9730 C   0  0  0  0  0  3  0  0  0  0  0  0
  -17.3400  -30.6470   24.1300 C   0  0  0  0  0  3  0  0  0  0  0  0
  -16.2240  -29.8850   23.7390 C   0  0  0  0  0  3  0  0  0  0  0  0
  -16.4100  -28.6070   23.1840 C   0  0  0  0  0  3  0  0  0  0  0  0
  -25.8110  -32.2170   23.7160 C   0  0  0  0  0  3  0  0  0  0  0  0
  -25.6010  -33.6250   24.0880 N   0  0  0  0  0  0  0  0  0  0  0  0
  -26.0000  -34.6720   23.3550 C   0  0  0  0  0  0  0  0  0  0  0  0
  -26.6540  -34.5500   22.3150 O   0  0  0  0  0  0  0  0  0  0  0  0
  -25.0250  -33.7980   24.9000 H   0  0  0  0  0  0  0  0  0  0  0  0
  -24.4070  -36.5930   23.0500 C   0  0  0  0  0  1  0  0  0  0  0  0
  -25.6130  -36.0780   23.8520 C   0  0  0  0  0  3  0  0  0  0  0  0
  -27.7980  -36.7840   24.7210 C   0  0  0  0  0  1  0  0  0  0  0  0
  -26.7200  -37.0550   23.7730 N   0  0  0  0  0  0  0  0  0  0  0  0
  -26.3800  -37.9990   23.9410 H   0  0  0  0  0  0  0  0  0  0  0  0
  -26.3590  -31.3910   24.9440 C   0  0  1  0  0  0  0  0  0  0  0  0
  -25.3210  -31.1950   26.0730 C   0  0  0  0  0  1  0  0  0  0  0  0
  -26.8320  -29.9910   24.4890 C   0  0  0  0  0  1  0  0  0  0  0  0
  -27.5930  -32.1020   25.5460 C   0  0  0  0  0  1  0  0  0  0  0  0
  2  6  1  0
  2  1  2  0
  3  2  1  0
  4  3  2  0
  4  5  1  0
  5 47  1  0
  5  1  1  0
  7 15  1  0
  7 13  1  0
  8 13  1  0
  9 10  1  0
  9  8  1  0
 11 10  1  0
 11 19  1  0
 11 12  1  0
 13 12  1  0
 14  7  2  0
 15  6  1  0
 16 19  1  0
 16 17  2  0
 17 18  1  0
 18 21  1  0
 19 20  1  0
 20 18  2  0
 21 22  1  0
 22 23  2  0
 24 27  1  0
 24 23  1  0
 25 24  2  0
 26 25  1  0
 26 21  2  0
 27 28  1  0
 28 29  1  0
 29 30  2  0
 31 30  1  0
 31 35  1  0
 32 31  2  0
 33 28  2  0
 33 32  1  0
 34 33  1  0
 36 17  1  0
 36 37  1  0
 37 40  1  0
 37 39  1  0
 38 36  2  0
 41 42  1  0
 41 16  1  0
 43 41  1  0
 44 15  1  0
 44 46  1  0
 45 46  1  0
 47 48  1  0
 49 48  1  0
 49 50  1  0
 51 53  1  0
 51 50  1  0
 52 63  2  0
 53 58  1  0
 54 62  1  0
 54 64  1  0
 55 61  1  0
 55 57  1  0
 56 62  1  0
 57 56  1  0
 58 57  2  0
 59 60  1  0
 59 53  2  0
 60 55  2  0
 61 54  1  0
 62 52  1  0
 64 66  2  0
 65 64  1  0
 67 65  1  0
 68 77  2  0
 68 73  1  0
 69 65  1  0
 69 73  1  0
 70 69  1  0
 71 72  1  0
 71 70  1  0
 72 68  1  0
 73 74  2  0
 74 75  1  0
 76 75  2  0
 77 76  1  0
 78 52  1  0
 78 79  1  0
 78 88  1  0
 79 82  1  0
 80 84  1  0
 80 79  1  0
 81 80  2  0
 84 83  1  0
 86 84  1  0
 86 87  1  0
 86 85  1  0
 88 91  1  1
 88 89  1  0
 90 88  1  0
M  ISO  4   7 100  15 100  50 101  51 101
M  END
>  <TORSDO>  (7) 
F 23

>  <SCORE>  (7) 
-11.470

>  <name>  (7) 
6

>  <ligand_id>  (7) 
6

>  <original_smiles>  (7) 
[H]c1c([H])c([H])c2c(c1[H])C([H])([H])C([H])([H])C([H])([H])C2([H])N([H])C(=O)C1([H])N(C(=O)C([H])(N([H])C(=O)C([H])(N([H])C([H])([H])[H])C([H])([H])[H])C(C([H])([H])[H])(C([H])([H])[H])C([H])([H])[H])C([H])([H])c2c([H])c(OC([H])([H])C([H])([H])C([H])([H])C([H])([H])n3nnc(C([H])([H])N(C(=O)N4C([H])([H])C([H])([H])C([H])([H])C([H])(n5nc(-c6c([H])c([H])c(Oc7c([H])c([H])c(F)c([H])c7F)c([H])c6[H])c(C(=O)N([H])[H])c5N([H])[H])C4([H])[H])C([H])([H])C([H])([H])C([H])([H])[H])c3[H])c([H])c([H])c2C1([H])[H]

>  <smiles>  (7) 
[H]c1c([H])c([H])c2c(c1[H])C([H])([H])C([H])([H])C([H])([H])C2([H])N([H])C(=O)C1([H])N(C(=O)C([H])(N([H])C(=O)C([H])(N([H])C([H])([H])[H])C([H])([H])[H])C(C([H])([H])[H])(C([H])([H])[H])C([H])([H])[H])C([H])([H])c2c([H])c(OC([H])([H])C([H])([H])C([H])([H])C([H])([H])n3nnc(C([H])([H])N(C(=O)N4C([H])([H])C([H])([H])C([H])([H])C([H])(n5nc(-c6c([H])c([H])c(Oc7c([H])c([H])c(F)c([H])c7F)c([H])c6[H])c(C(=O)N([H])[H])c5N([H])[H])C4([H])[H])C([H])([H])C([H])([H])C([H])([H])[H])c3[H])c([H])c([H])c2C1([H])[H]

$$$$
7:0:0
     RDKit          3D

 91 99  0  0  1  0  0  0  0  0999 V2000
  -30.1500  -20.0430   20.5600 C   0  0  0  0  0  2  0  0  0  0  0  0
  -28.9410  -19.9550   18.5400 C   0  0  0  0  0  2  0  0  0  0  0  0
  -29.4840  -21.5190   20.9150 C   0  0  0  0  0  2  0  0  0  0  0  0
  -28.2870  -21.4200   18.8720 C   0  0  0  0  0  2  0  0  0  0  0  0
  -29.3790  -18.9180   19.6860 C   0  0  0  0  0  3  0  0  0  0  0  0
  -29.0280  -22.5480   19.7560 C   0  0  0  0  0  3  0  0  0  0  0  0
  -27.0950  -23.7640   21.0890 C   0  0  0  0  0  1  0  0  0  0  0  0
  -28.1520  -24.0500   20.0040 C   0  0  0  0  0  3  0  0  0  0  0  0
  -28.5250  -25.6080   20.1480 O   0  0  0  0  0  0  0  0  0  0  0  0
  -25.0120  -31.4780   23.1210 C   0  0  0  0  0  0  0  0  0  0  0  0
  -27.5420  -26.6950   20.0580 C   0  0  0  0  0  0  0  0  0  0  0  0
  -23.8280  -30.1440   21.4250 C   0  0  0  0  0  3  0  0  0  0  0  0
  -25.2760  -28.5660   19.9960 C   0  0  0  0  0  0  0  0  0  0  0  0
  -26.3940  -30.3320   21.3380 C   0  0  0  0  0  2  0  0  0  0  0  0
  -26.4530  -28.9450   20.6560 C   0  0  0  0  0  0  0  0  0  0  0  0
  -27.5850  -28.0280   20.6710 C   0  0  0  0  0  3  0  0  0  0  0  0
  -26.3500  -26.4610   19.3340 C   0  0  0  0  0  3  0  0  0  0  0  0
  -25.2440  -27.3400   19.3160 C   0  0  0  0  0  3  0  0  0  0  0  0
  -24.0740  -29.4970   20.0370 C   0  0  0  0  0  2  0  0  0  0  0  0
  -25.0990  -30.6730   22.0170 N   0  0  0  0  0  0  0  0  0  0  0  0
  -23.9180  -31.7820   23.6230 O   0  0  0  0  0  0  0  0  0  0  0  0
  -23.0970  -29.1340   22.3450 C   0  0  0  0  0  0  0  0  0  0  0  0
  -21.7630  -29.0210   22.2050 N   0  0  0  0  0  0  0  0  0  0  0  0
  -23.7340  -28.4580   23.1590 O   0  0  0  0  0  0  0  0  0  0  0  0
  -21.3050  -29.6260   21.5380 H   0  0  0  0  0  0  0  0  0  0  0  0
  -18.3170  -28.0260   22.7440 C   0  0  0  0  0  0  0  0  0  0  0  0
  -20.8960  -28.0890   22.9340 C   0  0  0  0  0  3  0  0  0  0  0  0
  -20.8740  -26.6980   22.2570 C   0  0  0  0  0  2  0  0  0  0  0  0
  -19.7210  -26.5300   21.2630 C   0  0  0  0  0  2  0  0  0  0  0  0
  -18.3750  -26.7230   21.9670 C   0  0  0  0  0  2  0  0  0  0  0  0
  -19.5020  -28.6770   23.1830 C   0  0  0  0  0  0  0  0  0  0  0  0
  -19.3920  -29.9040   23.8710 C   0  0  0  0  0  3  0  0  0  0  0  0
  -18.1320  -30.4790   24.1230 C   0  0  0  0  0  3  0  0  0  0  0  0
  -16.9620  -29.8230   23.6990 C   0  0  0  0  0  3  0  0  0  0  0  0
  -17.0560  -28.5990   23.0150 C   0  0  0  0  0  3  0  0  0  0  0  0
  -26.2840  -32.0770   23.7940 C   0  0  0  0  0  3  0  0  0  0  0  0
  -25.9470  -33.4260   24.2790 N   0  0  0  0  0  0  0  0  0  0  0  0
  -26.2750  -34.5650   23.6550 C   0  0  0  0  0  0  0  0  0  0  0  0
  -26.9600  -34.5900   22.6280 O   0  0  0  0  0  0  0  0  0  0  0  0
  -25.3470  -33.4800   25.0890 H   0  0  0  0  0  0  0  0  0  0  0  0
  -24.5530  -36.3910   23.4730 C   0  0  0  0  0  1  0  0  0  0  0  0
  -25.7690  -35.8870   24.2660 C   0  0  0  0  0  3  0  0  0  0  0  0
  -27.8640  -36.6770   25.2790 C   0  0  0  0  0  1  0  0  0  0  0  0
  -26.8010  -36.9480   24.3160 N   0  0  0  0  0  0  0  0  0  0  0  0
  -26.3810  -37.8440   24.5540 H   0  0  0  0  0  0  0  0  0  0  0  0
  -26.8270  -31.1910   24.9830 C   0  0  1  0  0  0  0  0  0  0  0  0
  -25.7380  -30.7730   26.0020 C   0  0  0  0  0  1  0  0  0  0  0  0
  -27.4900  -29.9010   24.4510 C   0  0  0  0  0  1  0  0  0  0  0  0
  -27.9270  -31.9660   25.7500 C   0  0  0  0  0  1  0  0  0  0  0  0
  -30.1510  -17.4300   19.1830 C   0  0  0  0  0  2  0  0  0  0  0  0
  -30.5730  -14.6870   19.1000 C   0  0  0  0  0  0  0  0  0  0  0  0
  -30.1240  -12.4140   17.9960 C   0  0  0  0  0  2  0  0  0  0  0  0
  -28.9430  -12.4710   16.9950 C   0  0  0  0  0  2  0  0  0  0  0  0
  -27.5970  -12.2660   17.7160 C   0  0  0  0  0  2  0  0  0  0  0  0
  -27.5070  -13.0930   19.0260 C   0  0  0  0  0  3  0  0  0  0  0  0
  -28.7820  -12.9620   19.8880 C   0  0  0  0  0  2  0  0  0  0  0  0
  -29.9030  -13.4450   19.0680 N   0  0  0  0  0  0  0  0  0  0  0  0
  -31.6070  -14.7280   18.4190 O   0  0  0  0  0  0  0  0  0  0  0  0
  -30.0600  -15.9040   19.7270 N   0  0  0  0  0  0  0  0  0  0  0  0
  -25.3930  -13.6860   20.3310 C   0  0  0  0  0  0  0  0  0  0  0  0
  -24.3860  -12.9230   20.8560 C   0  0  0  0  0  0  0  0  0  0  0  0
  -24.7390  -11.5650   20.5900 C   0  0  0  0  0  0  0  0  0  0  0  0
  -26.2950  -12.7950   19.7810 N   0  0  0  0  0  0  0  0  0  0  0  0
  -25.9280  -11.5050   19.9940 N   0  0  0  0  0  0  0  0  0  0  0  0
  -23.9850  -10.3240   20.8190 C   0  0  0  0  0  0  0  0  0  0  0  0
  -24.5080   -9.2750   21.6060 C   0  0  0  0  0  3  0  0  0  0  0  0
  -23.7540   -8.1030   21.8300 C   0  0  0  0  0  3  0  0  0  0  0  0
  -22.4610   -7.9710   21.2660 C   0  0  0  0  0  0  0  0  0  0  0  0
  -21.9550   -9.0090   20.4650 C   0  0  0  0  0  3  0  0  0  0  0  0
  -22.7080  -10.1730   20.2390 C   0  0  0  0  0  3  0  0  0  0  0  0
  -21.6680   -6.8570   21.4080 O   0  0  0  0  0  0  0  0  0  0  0  0
  -21.7160   -6.0770   22.5350 C   0  0  0  0  0  0  0  0  0  0  0  0
  -21.4910   -6.6130   23.8240 C   0  0  0  0  0  3  0  0  0  0  0  0
  -21.4790   -5.7620   24.9480 C   0  0  0  0  0  3  0  0  0  0  0  0
  -21.6850   -4.3800   24.7870 C   0  0  0  0  0  0  0  0  0  0  0  0
  -21.9080   -3.8440   23.5070 C   0  0  0  0  0  3  0  0  0  0  0  0
  -21.9200   -4.6910   22.3840 C   0  0  0  0  0  0  0  0  0  0  0  0
  -22.1110   -4.1670   21.1490 F   0  0  0  0  0  0  0  0  0  0  0  0
  -21.6690   -3.5630   25.8670 F   0  0  0  0  0  0  0  0  0  0  0  0
  -23.1220  -13.4350   21.4810 C   0  0  0  0  0  0  0  0  0  0  0  0
  -22.5830  -12.7110   22.4550 N   0  0  0  0  0  0  0  0  0  0  0  0
  -22.6270  -14.5060   21.1340 O   0  0  0  0  0  0  0  0  0  0  0  0
  -22.9990  -11.8420   22.7530 H   0  0  0  0  0  0  0  0  0  0  0  0
  -21.7430  -13.0350   22.9150 H   0  0  0  0  0  0  0  0  0  0  0  0
  -25.6030  -15.0590   20.2510 N   0  0  0  0  0  0  0  0  0  0  0  0
  -24.9250  -15.7300   20.5940 H   0  0  0  0  0  0  0  0  0  0  0  0
  -26.4020  -15.4920   19.8050 H   0  0  0  0  0  0  0  0  0  0  0  0
  -30.2400  -15.8830   21.1980 C   0  0  0  0  0  2  0  0  0  0  0  0
  -29.3750  -14.8550   21.9650 C   0  0  0  0  0  2  0  0  0  0  0  0
  -29.1390  -12.2780   22.2170 C   0  0  0  0  0  1  0  0  0  0  0  0
  -30.0790  -13.4840   22.0780 C   0  0  0  0  0  2  0  0  0  0  0  0
  1  3  1  0
  2  4  1  0
  2  5  1  0
  4  6  1  0
  5 50  1  0
  5  1  1  0
  6  8  1  0
  6  3  1  0
  8  9  1  0
  8  7  1  0
 10 21  2  0
 11  9  1  0
 11 16  1  0
 12 20  1  0
 12 22  1  0
 13 19  1  0
 13 15  1  0
 14 20  1  0
 15 16  2  0
 15 14  1  0
 17 11  2  0
 18 17  1  0
 18 13  2  0
 19 12  1  0
 20 10  1  0
 22 24  2  0
 23 22  1  0
 25 23  1  0
 26 35  2  0
 26 31  1  0
 27 23  1  0
 27 31  1  0
 28 27  1  0
 29 30  1  0
 29 28  1  0
 30 26  1  0
 31 32  2  0
 32 33  1  0
 34 33  2  0
 35 34  1  0
 36 10  1  0
 36 37  1  0
 36 46  1  0
 37 40  1  0
 38 42  1  0
 38 37  1  0
 39 38  2  0
 42 41  1  0
 42 44  1  0
 44 45  1  0
 44 43  1  0
 46 49  1  1
 46 47  1  0
 48 46  1  0
 50 59  1  0
 51 59  1  0
 52 57  1  0
 53 54  1  0
 53 52  1  0
 55 54  1  0
 55 63  1  0
 55 56  1  0
 57 51  1  0
 57 56  1  0
 58 51  2  0
 59 88  1  0
 60 61  2  0
 61 80  1  0
 62 65  1  0
 62 61  1  0
 63 64  1  0
 63 60  1  0
 64 62  2  0
 65 66  1  0
 66 67  2  0
 68 71  1  0
 68 67  1  0
 69 68  2  0
 70 69  1  0
 70 65  2  0
 71 72  1  0
 72 73  1  0
 73 74  2  0
 75 74  1  0
 75 79  1  0
 76 75  2  0
 77 72  2  0
 77 76  1  0
 78 77  1  0
 80 81  1  0
 81 83  1  0
 81 84  1  0
 82 80  2  0
 85 60  1  0
 85 86  1  0
 87 85  1  0
 88 89  1  0
 89 91  1  0
 91 90  1  0
M  ISO  4   8 101   9 101  51 100  59 100
M  END
>  <TORSDO>  (8) 
F 21

>  <SCORE>  (8) 
-9.567

>  <name>  (8) 
7

>  <ligand_id>  (8) 
7

>  <original_smiles>  (8) 
[H]c1c([H])c([H])c2c(c1[H])C([H])([H])C([H])([H])C([H])([H])C2([H])N([H])C(=O)C1([H])N(C(=O)C([H])(N([H])C(=O)C([H])(N([H])C([H])([H])[H])C([H])([H])[H])C(C([H])([H])[H])(C([H])([H])[H])C([H])([H])[H])C([H])([H])c2c([H])c(OC([H])(C([H])([H])[H])C3([H])C([H])([H])C([H])([H])C([H])(C([H])([H])N(C(=O)N4C([H])([H])C([H])([H])C([H])([H])C([H])(n5nc(-c6c([H])c([H])c(Oc7c([H])c([H])c(F)c([H])c7F)c([H])c6[H])c(C(=O)N([H])[H])c5N([H])[H])C4([H])[H])C([H])([H])C([H])([H])C([H])([H])C([H])([H])[H])C([H])([H])C3([H])[H])c([H])c([H])c2C1([H])[H]

>  <smiles>  (8) 
[H]c1c([H])c([H])c2c(c1[H])C([H])([H])C([H])([H])C([H])([H])C2([H])N([H])C(=O)C1([H])N(C(=O)C([H])(N([H])C(=O)C([H])(N([H])C([H])([H])[H])C([H])([H])[H])C(C([H])([H])[H])(C([H])([H])[H])C([H])([H])[H])C([H])([H])c2c([H])c(OC([H])(C([H])([H])[H])C3([H])C([H])([H])C([H])([H])C([H])(C([H])([H])N(C(=O)N4C([H])([H])C([H])([H])C([H])([H])C([H])(n5nc(-c6c([H])c([H])c(Oc7c([H])c([H])c(F)c([H])c7F)c([H])c6[H])c(C(=O)N([H])[H])c5N([H])[H])C4([H])[H])C([H])([H])C([H])([H])C([H])([H])C([H])([H])[H])C([H])([H])C3([H])[H])c([H])c([H])c2C1([H])[H]

$$$$
9:0:0
     RDKit          3D

 88 96  0  0  1  0  0  0  0  0999 V2000
  -28.6190  -21.0900   20.4800 C   0  0  0  0  0  3  0  0  0  0  0  0
  -29.8300  -20.0570   20.6470 C   0  0  0  0  0  3  0  0  0  0  0  0
  -30.1340  -17.4310   21.4920 C   0  0  0  0  0  3  0  0  0  0  0  0
  -29.9990  -16.2280   20.8010 C   0  0  0  0  0  0  0  0  0  0  0  0
  -29.6470  -18.4940   20.6190 C   0  0  0  0  0  0  0  0  0  0  0  0
  -29.3400  -15.8670   18.3170 C   0  0  0  0  0  1  0  0  0  0  0  0
  -29.2200  -17.9470   19.4890 N   0  0  0  0  0  0  0  0  0  0  0  0
  -29.4840  -16.6100   19.5570 N   0  0  0  0  0  0  0  0  0  0  0  0
  -30.7230  -14.8800   21.1100 C   0  0  0  0  0  0  0  0  0  0  0  0
  -30.6870  -12.5090   20.3780 C   0  0  0  0  0  2  0  0  0  0  0  0
  -29.9080  -12.3570   19.0540 C   0  0  0  0  0  2  0  0  0  0  0  0
  -28.4010  -12.1930   19.3310 C   0  0  0  0  0  2  0  0  0  0  0  0
  -27.8400  -13.2180   20.3510 C   0  0  0  0  0  3  0  0  0  0  0  0
  -28.7490  -13.3480   21.5850 C   0  0  0  0  0  2  0  0  0  0  0  0
  -30.1070  -13.6500   21.1180 N   0  0  0  0  0  0  0  0  0  0  0  0
  -31.9570  -14.9200   21.1050 O   0  0  0  0  0  0  0  0  0  0  0  0
  -25.3830  -13.7960   20.7900 C   0  0  0  0  0  0  0  0  0  0  0  0
  -24.2890  -13.0190   21.0480 C   0  0  0  0  0  0  0  0  0  0  0  0
  -24.7680  -11.6730   21.1170 C   0  0  0  0  0  0  0  0  0  0  0  0
  -26.4560  -12.9250   20.7040 N   0  0  0  0  0  0  0  0  0  0  0  0
  -26.0860  -11.6470   20.9700 N   0  0  0  0  0  0  0  0  0  0  0  0
  -24.0400  -10.4050   21.2510 C   0  0  0  0  0  0  0  0  0  0  0  0
  -24.3990   -9.4450   22.2250 C   0  0  0  0  0  3  0  0  0  0  0  0
  -23.6710   -8.2420   22.3460 C   0  0  0  0  0  3  0  0  0  0  0  0
  -22.5720   -7.9880   21.4930 C   0  0  0  0  0  0  0  0  0  0  0  0
  -22.2340   -8.9350   20.5110 C   0  0  0  0  0  3  0  0  0  0  0  0
  -22.9610  -10.1300   20.3880 C   0  0  0  0  0  3  0  0  0  0  0  0
  -21.8230   -6.8370   21.5210 O   0  0  0  0  0  0  0  0  0  0  0  0
  -21.7140   -6.0780   22.6590 C   0  0  0  0  0  0  0  0  0  0  0  0
  -21.2310   -6.6180   23.8710 C   0  0  0  0  0  3  0  0  0  0  0  0
  -21.0680   -5.7860   24.9970 C   0  0  0  0  0  3  0  0  0  0  0  0
  -21.3820   -4.4160   24.9130 C   0  0  0  0  0  0  0  0  0  0  0  0
  -21.8600   -3.8760   23.7060 C   0  0  0  0  0  3  0  0  0  0  0  0
  -22.0230   -4.7050   22.5810 C   0  0  0  0  0  0  0  0  0  0  0  0
  -22.4630   -4.1750   21.4150 F   0  0  0  0  0  0  0  0  0  0  0  0
  -21.2220   -3.6160   25.9930 F   0  0  0  0  0  0  0  0  0  0  0  0
  -22.8620  -13.4790   21.1270 C   0  0  0  0  0  0  0  0  0  0  0  0
  -22.0410  -12.8060   21.9240 N   0  0  0  0  0  0  0  0  0  0  0  0
  -22.4800  -14.4770   20.5140 O   0  0  0  0  0  0  0  0  0  0  0  0
  -22.3540  -11.9970   22.4390 H   0  0  0  0  0  0  0  0  0  0  0  0
  -21.0800  -13.1050   22.0210 H   0  0  0  0  0  0  0  0  0  0  0  0
  -25.5570  -15.1640   20.5900 N   0  0  0  0  0  0  0  0  0  0  0  0
  -24.7840  -15.8210   20.5930 H   0  0  0  0  0  0  0  0  0  0  0  0
  -26.4440  -15.6010   20.3730 H   0  0  0  0  0  0  0  0  0  0  0  0
  -29.0410  -22.6260   20.2650 C   0  0  0  0  0  3  0  0  0  0  0  0
  -27.9850  -23.8340   20.2470 C   0  0  0  0  0  3  0  0  0  0  0  0
  -28.4610  -25.2040   19.5650 C   0  0  0  0  0  2  0  0  0  0  0  0
  -28.3220  -26.5370   20.1800 O   0  0  0  0  0  0  0  0  0  0  0  0
  -24.5750  -31.8590   23.1680 C   0  0  0  0  0  0  0  0  0  0  0  0
  -27.1780  -27.3360   20.0880 C   0  0  0  0  0  0  0  0  0  0  0  0
  -23.3650  -30.4670   21.5280 C   0  0  0  0  0  3  0  0  0  0  0  0
  -24.8070  -28.9310   20.0800 C   0  0  0  0  0  0  0  0  0  0  0  0
  -25.8920  -30.8130   21.3100 C   0  0  0  0  0  2  0  0  0  0  0  0
  -25.9750  -29.4320   20.6690 C   0  0  0  0  0  0  0  0  0  0  0  0
  -27.1570  -28.6420   20.6700 C   0  0  0  0  0  3  0  0  0  0  0  0
  -25.9880  -26.8740   19.4840 C   0  0  0  0  0  3  0  0  0  0  0  0
  -24.8140  -27.6530   19.4870 C   0  0  0  0  0  3  0  0  0  0  0  0
  -23.5670  -29.8030   20.1410 C   0  0  0  0  0  2  0  0  0  0  0  0
  -24.6310  -31.0600   22.0630 N   0  0  0  0  0  0  0  0  0  0  0  0
  -23.4960  -32.1260   23.7160 O   0  0  0  0  0  0  0  0  0  0  0  0
  -22.7140  -29.4380   22.4840 C   0  0  0  0  0  0  0  0  0  0  0  0
  -21.3860  -29.2720   22.3790 N   0  0  0  0  0  0  0  0  0  0  0  0
  -23.4030  -28.7960   23.2800 O   0  0  0  0  0  0  0  0  0  0  0  0
  -20.8870  -29.8480   21.7140 H   0  0  0  0  0  0  0  0  0  0  0  0
  -18.0070  -28.1030   22.9140 C   0  0  0  0  0  0  0  0  0  0  0  0
  -20.5720  -28.3280   23.1460 C   0  0  0  0  0  3  0  0  0  0  0  0
  -20.6500  -26.9060   22.5430 C   0  0  0  0  0  2  0  0  0  0  0  0
  -19.5270  -26.6150   21.5440 C   0  0  0  0  0  2  0  0  0  0  0  0
  -18.1570  -26.7640   22.2120 C   0  0  0  0  0  2  0  0  0  0  0  0
  -19.1420  -28.8440   23.3360 C   0  0  0  0  0  0  0  0  0  0  0  0
  -18.9500  -30.1020   23.9470 C   0  0  0  0  0  3  0  0  0  0  0  0
  -17.6530  -30.6150   24.1460 C   0  0  0  0  0  3  0  0  0  0  0  0
  -16.5320  -29.8690   23.7460 C   0  0  0  0  0  3  0  0  0  0  0  0
  -16.7100  -28.6160   23.1300 C   0  0  0  0  0  3  0  0  0  0  0  0
  -25.8590  -32.4930   23.7850 C   0  0  0  0  0  3  0  0  0  0  0  0
  -25.5410  -33.8810   24.1450 N   0  0  0  0  0  0  0  0  0  0  0  0
  -25.8630  -34.9520   23.4060 C   0  0  0  0  0  0  0  0  0  0  0  0
  -26.5250  -34.8750   22.3700 O   0  0  0  0  0  0  0  0  0  0  0  0
  -24.9520  -34.0160   24.9520 H   0  0  0  0  0  0  0  0  0  0  0  0
  -24.1130  -36.7380   23.1110 C   0  0  0  0  0  1  0  0  0  0  0  0
  -25.3680  -36.3270   23.8970 C   0  0  0  0  0  3  0  0  0  0  0  0
  -27.5060  -37.2090   24.7200 C   0  0  0  0  0  1  0  0  0  0  0  0
  -26.3890  -37.3920   23.7980 N   0  0  0  0  0  0  0  0  0  0  0  0
  -25.9760  -38.3010   23.9820 H   0  0  0  0  0  0  0  0  0  0  0  0
  -26.3960  -31.7050   25.0430 C   0  0  1  0  0  0  0  0  0  0  0  0
  -25.3190  -31.4440   26.1230 C   0  0  0  0  0  1  0  0  0  0  0  0
  -26.9820  -30.3400   24.6130 C   0  0  0  0  0  1  0  0  0  0  0  0
  -27.5480  -32.4980   25.7060 C   0  0  0  0  0  1  0  0  0  0  0  0
  1  2  2  0
  4  9  1  0
  4  3  2  0
  5  2  1  0
  5  3  1  0
  6  8  1  0
  7  8  1  0
  7  5  2  0
  8  4  1  0
  9 15  1  0
 10 15  1  0
 11 12  1  0
 11 10  1  0
 13 12  1  0
 13 20  1  0
 13 14  1  0
 15 14  1  0
 16  9  2  0
 17 18  2  0
 18 19  1  0
 18 37  1  0
 19 22  1  0
 20 17  1  0
 20 21  1  0
 21 19  2  0
 22 23  1  0
 23 24  2  0
 25 28  1  0
 25 24  1  0
 26 25  2  0
 27 26  1  0
 27 22  2  0
 28 29  1  0
 29 30  1  0
 30 31  2  0
 32 31  1  0
 32 36  1  0
 33 32  2  0
 34 29  2  0
 34 33  1  0
 35 34  1  0
 37 38  1  0
 38 41  1  0
 38 40  1  0
 39 37  2  0
 42 43  1  0
 42 17  1  0
 44 42  1  0
 45  1  1  0
 46 45  2  0
 47 48  1  0
 47 46  1  0
 49 60  2  0
 50 48  1  0
 50 55  1  0
 51 59  1  0
 51 61  1  0
 52 58  1  0
 52 54  1  0
 53 59  1  0
 54 55  2  0
 54 53  1  0
 56 57  1  0
 56 50  2  0
 57 52  2  0
 58 51  1  0
 59 49  1  0
 61 63  2  0
 62 61  1  0
 64 62  1  0
 65 74  2  0
 65 70  1  0
 66 62  1  0
 66 70  1  0
 67 66  1  0
 68 69  1  0
 68 67  1  0
 69 65  1  0
 70 71  2  0
 71 72  1  0
 73 72  2  0
 74 73  1  0
 75 49  1  0
 75 76  1  0
 75 85  1  0
 76 79  1  0
 77 81  1  0
 77 76  1  0
 78 77  2  0
 81 80  1  0
 83 81  1  0
 83 84  1  0
 83 82  1  0
 85 88  1  1
 85 86  1  0
 87 85  1  0
M  ISO  4   4 100   9 100  47 101  48 101
M  END
>  <TORSDO>  (9) 
F 21

>  <SCORE>  (9) 
-12.287

>  <name>  (9) 
9

>  <ligand_id>  (9) 
9

>  <original_smiles>  (9) 
[H]c1c([H])c([H])c2c(c1[H])C([H])([H])C([H])([H])C([H])([H])C2([H])N([H])C(=O)C1([H])N(C(=O)C([H])(N([H])C(=O)C([H])(N([H])C([H])([H])[H])C([H])([H])[H])C(C([H])([H])[H])(C([H])([H])[H])C([H])([H])[H])C([H])([H])c2c([H])c(OC([H])([H])C([H])([H])C([H])([H])C([H])([H])C([H])([H])c3nn(C([H])([H])[H])c(C(=O)N4C([H])([H])C([H])([H])C([H])([H])C([H])(n5nc(-c6c([H])c([H])c(Oc7c([H])c([H])c(F)c([H])c7F)c([H])c6[H])c(C(=O)N([H])[H])c5N([H])[H])C4([H])[H])c3[H])c([H])c([H])c2C1([H])[H]

>  <smiles>  (9) 
[H]c1c([H])c([H])c2c(c1[H])C([H])([H])C([H])([H])C([H])([H])C2([H])N([H])C(=O)C1([H])N(C(=O)C([H])(N([H])C(=O)C([H])(N([H])C([H])([H])[H])C([H])([H])[H])C(C([H])([H])[H])(C([H])([H])[H])C([H])([H])[H])C([H])([H])c2c([H])c(OC([H])([H])C([H])([H])C([H])([H])C([H])([H])C([H])([H])c3nn(C([H])([H])[H])c(C(=O)N4C([H])([H])C([H])([H])C([H])([H])C([H])(n5nc(-c6c([H])c([H])c(Oc7c([H])c([H])c(F)c([H])c7F)c([H])c6[H])c(C(=O)N([H])[H])c5N([H])[H])C4([H])[H])c3[H])c([H])c([H])c2C1([H])[H]

$$$$
10:0:0
     RDKit          3D

 93101  0  0  1  0  0  0  0  0999 V2000
  -30.1790  -20.3240   22.2380 C   0  0  0  0  0  3  0  0  0  0  0  0
  -29.8050  -21.4580   21.5000 C   0  0  0  0  0  3  0  0  0  0  0  0
  -30.1830  -19.0440   21.6440 C   0  0  0  0  0  0  0  0  0  0  0  0
  -29.4260  -21.3320   20.1590 C   0  0  0  0  0  0  0  0  0  0  0  0
  -29.8010  -18.8870   20.2860 C   0  0  0  0  0  0  0  0  0  0  0  0
  -30.5400  -17.8600   22.5320 C   0  0  0  0  0  1  0  0  0  0  0  0
  -29.4390  -20.0460   19.5780 N   0  0  0  0  0  0  0  0  0  0  0  0
  -30.5780  -23.3280   19.0420 C   0  0  0  0  0  1  0  0  0  0  0  0
  -28.5870  -22.3150   17.9780 C   0  0  0  0  0  1  0  0  0  0  0  0
  -29.1980  -22.7050   19.3420 C   0  0  1  0  0  0  0  0  0  0  0  0
  -28.2010  -23.8810   19.9400 C   0  0  0  0  0  2  0  0  0  0  0  0
  -28.5980  -25.2880   20.6720 C   0  0  0  0  0  2  0  0  0  0  0  0
  -28.6080  -26.6810   20.0760 O   0  0  0  0  0  0  0  0  0  0  0  0
  -24.6760  -31.8990   23.3160 C   0  0  0  0  0  0  0  0  0  0  0  0
  -27.4680  -27.5130   20.1270 C   0  0  0  0  0  0  0  0  0  0  0  0
  -23.5340  -30.5050   21.6290 C   0  0  0  0  0  3  0  0  0  0  0  0
  -25.0490  -29.0580   20.1530 C   0  0  0  0  0  0  0  0  0  0  0  0
  -26.0550  -30.9340   21.4500 C   0  0  0  0  0  2  0  0  0  0  0  0
  -26.1980  -29.5740   20.7660 C   0  0  0  0  0  0  0  0  0  0  0  0
  -27.4130  -28.8140   20.7390 C   0  0  0  0  0  3  0  0  0  0  0  0
  -26.2960  -27.0630   19.4940 C   0  0  0  0  0  3  0  0  0  0  0  0
  -25.1020  -27.8130   19.5040 C   0  0  0  0  0  3  0  0  0  0  0  0
  -23.7770  -29.8810   20.2280 C   0  0  0  0  0  2  0  0  0  0  0  0
  -24.7740  -31.1300   22.1910 N   0  0  0  0  0  0  0  0  0  0  0  0
  -23.5820  -32.1080   23.8640 O   0  0  0  0  0  0  0  0  0  0  0  0
  -22.9150  -29.4330   22.5580 C   0  0  0  0  0  0  0  0  0  0  0  0
  -21.6120  -29.1510   22.3770 N   0  0  0  0  0  0  0  0  0  0  0  0
  -23.6100  -28.8540   23.3970 O   0  0  0  0  0  0  0  0  0  0  0  0
  -21.1090  -29.6720   21.6750 H   0  0  0  0  0  0  0  0  0  0  0  0
  -18.3410  -27.6410   22.7020 C   0  0  0  0  0  0  0  0  0  0  0  0
  -20.8460  -28.1400   23.1060 C   0  0  0  0  0  3  0  0  0  0  0  0
  -21.1130  -26.7260   22.5400 C   0  0  0  0  0  2  0  0  0  0  0  0
  -20.1020  -26.3040   21.4700 C   0  0  0  0  0  2  0  0  0  0  0  0
  -18.6800  -26.3160   22.0390 C   0  0  0  0  0  2  0  0  0  0  0  0
  -19.3580  -28.5030   23.1880 C   0  0  0  0  0  0  0  0  0  0  0  0
  -18.9910  -29.7370   23.7670 C   0  0  0  0  0  3  0  0  0  0  0  0
  -17.6390  -30.1140   23.8630 C   0  0  0  0  0  3  0  0  0  0  0  0
  -16.6330  -29.2510   23.3920 C   0  0  0  0  0  3  0  0  0  0  0  0
  -16.9850  -28.0160   22.8180 C   0  0  0  0  0  3  0  0  0  0  0  0
  -25.9310  -32.5660   23.9600 C   0  0  0  0  0  3  0  0  0  0  0  0
  -25.5940  -33.9680   24.2500 N   0  0  0  0  0  0  0  0  0  0  0  0
  -25.9360  -35.0090   23.4780 C   0  0  0  0  0  0  0  0  0  0  0  0
  -26.6370  -34.8910   22.4700 O   0  0  0  0  0  0  0  0  0  0  0  0
  -24.9780  -34.1310   25.0340 H   0  0  0  0  0  0  0  0  0  0  0  0
  -24.1910  -36.7670   23.0410 C   0  0  0  0  0  1  0  0  0  0  0  0
  -25.4180  -36.4020   23.8900 C   0  0  0  0  0  3  0  0  0  0  0  0
  -27.5140  -37.3470   24.7540 C   0  0  0  0  0  1  0  0  0  0  0  0
  -26.4390  -37.4670   23.7740 N   0  0  0  0  0  0  0  0  0  0  0  0
  -26.0160  -38.3850   23.8800 H   0  0  0  0  0  0  0  0  0  0  0  0
  -26.4190  -31.8320   25.2690 C   0  0  1  0  0  0  0  0  0  0  0  0
  -25.2910  -31.5820   26.2960 C   0  0  0  0  0  1  0  0  0  0  0  0
  -27.0560  -30.4650   24.9270 C   0  0  0  0  0  1  0  0  0  0  0  0
  -27.5190  -32.6690   25.9610 C   0  0  0  0  0  1  0  0  0  0  0  0
  -29.5650  -17.3800   19.7330 C   0  0  0  0  0  2  0  0  0  0  0  0
  -31.2920  -15.2610   19.7370 C   0  0  0  0  0  0  0  0  0  0  0  0
  -31.0640  -12.8800   18.9710 C   0  0  0  0  0  2  0  0  0  0  0  0
  -30.0940  -12.7390   17.7830 C   0  0  0  0  0  2  0  0  0  0  0  0
  -28.6470  -12.5900   18.2920 C   0  0  0  0  0  2  0  0  0  0  0  0
  -28.2830  -13.6070   19.4100 C   0  0  0  0  0  3  0  0  0  0  0  0
  -29.3830  -13.7380   20.4770 C   0  0  0  0  0  2  0  0  0  0  0  0
  -30.6160  -14.0580   19.7570 N   0  0  0  0  0  0  0  0  0  0  0  0
  -32.5150  -15.1870   19.5730 O   0  0  0  0  0  0  0  0  0  0  0  0
  -30.6690  -16.4320   19.2400 N   0  0  0  0  0  0  0  0  0  0  0  0
  -26.0090  -14.2370   20.3800 C   0  0  0  0  0  0  0  0  0  0  0  0
  -24.9410  -13.4820   20.7830 C   0  0  0  0  0  0  0  0  0  0  0  0
  -25.3420  -12.1180   20.6410 C   0  0  0  0  0  0  0  0  0  0  0  0
  -26.9840  -13.3290   20.0020 N   0  0  0  0  0  0  0  0  0  0  0  0
  -26.6020  -12.0480   20.2300 N   0  0  0  0  0  0  0  0  0  0  0  0
  -24.5780  -10.8750   20.8160 C   0  0  0  0  0  0  0  0  0  0  0  0
  -24.9650   -9.8950   21.7560 C   0  0  0  0  0  3  0  0  0  0  0  0
  -24.2020   -8.7180   21.9200 C   0  0  0  0  0  3  0  0  0  0  0  0
  -23.0370   -8.5180   21.1440 C   0  0  0  0  0  0  0  0  0  0  0  0
  -22.6700   -9.4830   20.1900 C   0  0  0  0  0  3  0  0  0  0  0  0
  -23.4330  -10.6510   20.0260 C   0  0  0  0  0  3  0  0  0  0  0  0
  -22.2510   -7.3940   21.2110 O   0  0  0  0  0  0  0  0  0  0  0  0
  -22.0240   -6.7430   22.3960 C   0  0  0  0  0  0  0  0  0  0  0  0
  -21.4090   -7.3850   23.4910 C   0  0  0  0  0  3  0  0  0  0  0  0
  -21.1330   -6.6610   24.6670 C   0  0  0  0  0  3  0  0  0  0  0  0
  -21.4610   -5.2940   24.7460 C   0  0  0  0  0  0  0  0  0  0  0  0
  -22.0630   -4.6500   23.6500 C   0  0  0  0  0  3  0  0  0  0  0  0
  -22.3430   -5.3730   22.4780 C   0  0  0  0  0  0  0  0  0  0  0  0
  -22.9060   -4.7410   21.4200 F   0  0  0  0  0  0  0  0  0  0  0  0
  -21.1880   -4.5970   25.8700 F   0  0  0  0  0  0  0  0  0  0  0  0
  -23.5910  -13.9980   21.1810 C   0  0  0  0  0  0  0  0  0  0  0  0
  -22.9080  -13.2880   22.0710 N   0  0  0  0  0  0  0  0  0  0  0  0
  -23.1500  -15.0590   20.7370 O   0  0  0  0  0  0  0  0  0  0  0  0
  -23.2890  -12.4310   22.4430 H   0  0  0  0  0  0  0  0  0  0  0  0
  -21.9990  -13.6000   22.3780 H   0  0  0  0  0  0  0  0  0  0  0  0
  -26.2300  -15.6050   20.2720 N   0  0  0  0  0  0  0  0  0  0  0  0
  -25.5130  -16.2930   20.4820 H   0  0  0  0  0  0  0  0  0  0  0  0
  -27.0640  -16.0120   19.8700 H   0  0  0  0  0  0  0  0  0  0  0  0
  -32.3400  -18.0020   18.1690 C   0  0  0  0  0  1  0  0  0  0  0  0
  -31.2140  -16.9660   17.9730 C   0  0  0  0  0  2  0  0  0  0  0  0
  2  1  2  0
  3  1  1  0
  3  6  1  0
  4  2  1  0
  5  3  2  0
  7  4  2  0
  7  5  1  0
 10  8  1  6
  9 10  1  0
 10 11  1  0
 10  4  1  0
 11 12  1  0
 13 15  1  0
 13 12  1  0
 14 25  2  0
 15 20  1  0
 16 24  1  0
 16 26  1  0
 17 23  1  0
 17 19  1  0
 18 24  1  0
 19 18  1  0
 20 19  2  0
 21 22  1  0
 21 15  2  0
 22 17  2  0
 23 16  1  0
 24 14  1  0
 26 28  2  0
 27 26  1  0
 29 27  1  0
 30 39  2  0
 30 35  1  0
 31 27  1  0
 31 35  1  0
 32 31  1  0
 33 34  1  0
 33 32  1  0
 34 30  1  0
 35 36  2  0
 36 37  1  0
 38 37  2  0
 39 38  1  0
 40 14  1  0
 40 41  1  0
 40 50  1  0
 41 44  1  0
 42 46  1  0
 42 41  1  0
 43 42  2  0
 46 45  1  0
 48 49  1  0
 48 46  1  0
 48 47  1  0
 50 53  1  1
 50 51  1  0
 52 50  1  0
 54  5  1  0
 55 61  1  0
 56 61  1  0
 57 58  1  0
 57 56  1  0
 59 58  1  0
 59 67  1  0
 59 60  1  0
 61 60  1  0
 62 55  2  0
 63 54  1  0
 63 55  1  0
 64 65  2  0
 65 84  1  0
 66 65  1  0
 66 69  1  0
 67 68  1  0
 67 64  1  0
 68 66  2  0
 69 70  1  0
 70 71  2  0
 72 75  1  0
 72 71  1  0
 73 72  2  0
 74 73  1  0
 74 69  2  0
 75 76  1  0
 76 81  2  0
 76 77  1  0
 77 78  2  0
 78 79  1  0
 79 83  1  0
 80 79  2  0
 81 80  1  0
 82 81  1  0
 84 85  1  0
 85 88  1  0
 85 87  1  0
 86 84  2  0
 89 64  1  0
 89 90  1  0
 91 89  1  0
 93 92  1  0
 93 63  1  0
M  ISO  4  12 101  13 101  55 100  63 100
M  END
>  <TORSDO>  (10) 
F 21

>  <SCORE>  (10) 
-12.105

>  <name>  (10) 
10

>  <ligand_id>  (10) 
10

>  <original_smiles>  (10) 
[H]c1c(C(C([H])([H])[H])(C([H])([H])[H])C([H])([H])C([H])([H])Oc2c([H])c([H])c3c(c2[H])C([H])([H])N(C(=O)C([H])(N([H])C(=O)C([H])(N([H])C([H])([H])[H])C([H])([H])[H])C(C([H])([H])[H])(C([H])([H])[H])C([H])([H])[H])C([H])(C(=O)N([H])C2([H])c4c([H])c([H])c([H])c([H])c4C([H])([H])C([H])([H])C2([H])[H])C3([H])[H])nc(C([H])([H])N(C(=O)N2C([H])([H])C([H])([H])C([H])([H])C([H])(n3nc(-c4c([H])c([H])c(Oc5c([H])c([H])c(F)c([H])c5F)c([H])c4[H])c(C(=O)N([H])[H])c3N([H])[H])C2([H])[H])C([H])([H])C([H])([H])[H])c(C([H])([H])[H])c1[H]

>  <smiles>  (10) 
[H]c1c(C(C([H])([H])[H])(C([H])([H])[H])C([H])([H])C([H])([H])Oc2c([H])c([H])c3c(c2[H])C([H])([H])N(C(=O)C([H])(N([H])C(=O)C([H])(N([H])C([H])([H])[H])C([H])([H])[H])C(C([H])([H])[H])(C([H])([H])[H])C([H])([H])[H])C([H])(C(=O)N([H])C2([H])c4c([H])c([H])c([H])c([H])c4C([H])([H])C([H])([H])C2([H])[H])C3([H])[H])nc(C([H])([H])N(C(=O)N2C([H])([H])C([H])([H])C([H])([H])C([H])(n3nc(-c4c([H])c([H])c(Oc5c([H])c([H])c(F)c([H])c5F)c([H])c4[H])c(C(=O)N([H])[H])c3N([H])[H])C2([H])[H])C([H])([H])C([H])([H])[H])c(C([H])([H])[H])c1[H]

$$$$
11:0:0
     RDKit          3D

 95103  0  0  1  0  0  0  0  0999 V2000
  -31.6110  -22.2580   21.7540 C   0  0  0  0  0  2  0  0  0  0  0  0
  -32.5540  -24.0350   20.2980 C   0  0  0  0  0  1  0  0  0  0  0  0
  -31.3240  -23.3880   20.8240 N   0  0  2  0  0  4  0  0  0  0  0  0
  -30.8540  -22.9790   20.0310 H   0  0  0  0  0  0  0  0  0  0  0  0
  -30.3670  -24.3810   21.3880 C   0  0  0  0  0  2  0  0  0  0  0  0
  -29.5900  -25.1190   20.2800 C   0  0  0  0  0  2  0  0  0  0  0  0
  -28.5730  -26.1590   20.7860 C   0  0  0  0  0  2  0  0  0  0  0  0
  -27.8680  -26.5920   19.6320 O   0  0  0  0  0  0  0  0  0  0  0  0
  -24.5060  -31.8150   23.1840 C   0  0  0  0  0  0  0  0  0  0  0  0
  -26.7570  -27.3690   19.8340 C   0  0  0  0  0  0  0  0  0  0  0  0
  -23.1450  -30.5350   21.5620 C   0  0  0  0  0  3  0  0  0  0  0  0
  -24.4410  -28.9680   20.0270 C   0  0  0  0  0  0  0  0  0  0  0  0
  -25.6700  -30.7700   21.2480 C   0  0  0  0  0  2  0  0  0  0  0  0
  -25.6510  -29.4140   20.5780 C   0  0  0  0  0  0  0  0  0  0  0  0
  -26.8130  -28.6160   20.4930 C   0  0  0  0  0  3  0  0  0  0  0  0
  -25.5390  -26.9310   19.2800 C   0  0  0  0  0  3  0  0  0  0  0  0
  -24.3760  -27.7190   19.3830 C   0  0  0  0  0  3  0  0  0  0  0  0
  -23.2490  -29.8870   20.1560 C   0  0  0  0  0  2  0  0  0  0  0  0
  -24.4620  -31.0520   22.0570 N   0  0  0  0  0  0  0  0  0  0  0  0
  -23.4710  -32.1270   23.7880 O   0  0  0  0  0  0  0  0  0  0  0  0
  -22.4870  -29.5200   22.5230 C   0  0  0  0  0  0  0  0  0  0  0  0
  -21.1550  -29.3800   22.4240 N   0  0  0  0  0  0  0  0  0  0  0  0
  -23.1700  -28.8600   23.3100 O   0  0  0  0  0  0  0  0  0  0  0  0
  -20.6660  -29.9630   21.7590 H   0  0  0  0  0  0  0  0  0  0  0  0
  -17.7620  -28.2610   22.9580 C   0  0  0  0  0  0  0  0  0  0  0  0
  -20.3280  -28.4560   23.1990 C   0  0  0  0  0  3  0  0  0  0  0  0
  -20.3910  -27.0280   22.6110 C   0  0  0  0  0  2  0  0  0  0  0  0
  -19.2690  -26.7380   21.6100 C   0  0  0  0  0  2  0  0  0  0  0  0
  -17.8990  -26.9120   22.2720 C   0  0  0  0  0  2  0  0  0  0  0  0
  -18.9040  -28.9940   23.3780 C   0  0  0  0  0  0  0  0  0  0  0  0
  -18.7230  -30.2580   23.9790 C   0  0  0  0  0  3  0  0  0  0  0  0
  -17.4320  -30.7900   24.1630 C   0  0  0  0  0  3  0  0  0  0  0  0
  -16.3050  -30.0550   23.7580 C   0  0  0  0  0  3  0  0  0  0  0  0
  -16.4710  -28.7920   23.1610 C   0  0  0  0  0  3  0  0  0  0  0  0
  -25.8570  -32.3530   23.7560 C   0  0  0  0  0  3  0  0  0  0  0  0
  -26.3940  -31.5130   24.9790 C   0  0  1  0  0  0  0  0  0  0  0  0
  -25.3440  -31.3000   26.0950 C   0  0  0  0  0  1  0  0  0  0  0  0
  -26.8770  -30.1200   24.5130 C   0  0  0  0  0  1  0  0  0  0  0  0
  -27.6190  -32.2200   25.6040 C   0  0  0  0  0  1  0  0  0  0  0  0
  -25.6470  -33.7550   24.1390 N   0  0  0  0  0  0  0  0  0  0  0  0
  -26.0180  -34.8090   23.3980 C   0  0  0  0  0  0  0  0  0  0  0  0
  -26.6460  -34.6970   22.3420 O   0  0  0  0  0  0  0  0  0  0  0  0
  -25.0930  -33.9210   24.9660 H   0  0  0  0  0  0  0  0  0  0  0  0
  -24.3990  -36.7160   23.1480 C   0  0  0  0  0  1  0  0  0  0  0  0
  -25.6320  -36.2080   23.9120 C   0  0  0  0  0  3  0  0  0  0  0  0
  -27.8370  -36.9310   24.7170 C   0  0  0  0  0  1  0  0  0  0  0  0
  -26.7280  -37.1960   23.8050 N   0  0  0  0  0  0  0  0  0  0  0  0
  -26.3840  -38.1350   23.9880 H   0  0  0  0  0  0  0  0  0  0  0  0
  -32.4450  -21.1210   21.1120 C   0  0  0  0  0  2  0  0  0  0  0  0
  -32.3090  -19.7660   21.8340 C   0  0  0  0  0  2  0  0  0  0  0  0
  -31.3330  -17.4250   21.6440 C   0  0  0  0  0  3  0  0  0  0  0  0
  -31.3250  -18.7460   21.2770 C   0  0  0  0  0  0  0  0  0  0  0  0
  -30.2250  -18.8230   20.3530 C   0  0  0  0  0  0  0  0  0  0  0  0
  -29.6360  -17.6420   20.1990 N   0  0  0  0  0  0  0  0  0  0  0  0
  -30.3020  -16.7860   20.9970 N   0  0  0  0  0  0  0  0  0  0  0  0
  -28.1770  -20.2440   19.9360 C   0  0  0  0  0  1  0  0  0  0  0  0
  -29.8340  -19.7840   18.0540 C   0  0  0  0  0  1  0  0  0  0  0  0
  -29.6460  -19.9830   19.5660 C   0  0  0  0  0  3  0  0  0  0  0  0
  -29.8260  -15.4170   21.1510 C   0  0  0  0  0  2  0  0  0  0  0  0
  -30.3950  -14.4040   20.1320 C   0  0  0  0  0  0  0  0  0  0  0  0
  -30.1010  -12.2740   18.8990 C   0  0  0  0  0  2  0  0  0  0  0  0
  -29.0620  -12.4440   17.7730 C   0  0  0  0  0  2  0  0  0  0  0  0
  -27.6260  -12.2520   18.3040 C   0  0  0  0  0  2  0  0  0  0  0  0
  -27.3520  -13.0700   19.5940 C   0  0  0  0  0  3  0  0  0  0  0  0
  -28.4860  -12.8380   20.6180 C   0  0  0  0  0  2  0  0  0  0  0  0
  -29.7570  -13.2130   19.9760 N   0  0  0  0  0  0  0  0  0  0  0  0
  -31.4020  -14.6980   19.4760 O   0  0  0  0  0  0  0  0  0  0  0  0
  -24.9790  -13.6100   20.4400 C   0  0  0  0  0  0  0  0  0  0  0  0
  -23.9620  -12.8060   20.8810 C   0  0  0  0  0  0  0  0  0  0  0  0
  -24.4650  -11.4700   20.8290 C   0  0  0  0  0  0  0  0  0  0  0  0
  -26.0380  -12.7610   20.1540 N   0  0  0  0  0  0  0  0  0  0  0  0
  -25.7330  -11.4700   20.4390 N   0  0  0  0  0  0  0  0  0  0  0  0
  -23.7960  -10.1860   21.0740 C   0  0  0  0  0  0  0  0  0  0  0  0
  -24.2830   -9.2720   22.0340 C   0  0  0  0  0  3  0  0  0  0  0  0
  -23.6130   -8.0510   22.2640 C   0  0  0  0  0  3  0  0  0  0  0  0
  -22.4440   -7.7350   21.5340 C   0  0  0  0  0  0  0  0  0  0  0  0
  -21.9760   -8.6380   20.5640 C   0  0  0  0  0  3  0  0  0  0  0  0
  -22.6460   -9.8500   20.3320 C   0  0  0  0  0  3  0  0  0  0  0  0
  -21.7410   -6.5620   21.6730 O   0  0  0  0  0  0  0  0  0  0  0  0
  -21.7040   -5.8820   22.8640 C   0  0  0  0  0  0  0  0  0  0  0  0
  -21.2010   -6.4720   24.0430 C   0  0  0  0  0  3  0  0  0  0  0  0
  -21.1160   -5.7150   25.2290 C   0  0  0  0  0  3  0  0  0  0  0  0
  -21.5230   -4.3680   25.2350 C   0  0  0  0  0  0  0  0  0  0  0  0
  -22.0200   -3.7760   24.0600 C   0  0  0  0  0  3  0  0  0  0  0  0
  -22.1070   -4.5300   22.8770 C   0  0  0  0  0  0  0  0  0  0  0  0
  -22.5650   -3.9500   21.7420 F   0  0  0  0  0  0  0  0  0  0  0  0
  -21.4350   -3.6370   26.3710 F   0  0  0  0  0  0  0  0  0  0  0  0
  -22.5690  -13.2380   21.2420 C   0  0  0  0  0  0  0  0  0  0  0  0
  -21.9230  -12.5240   22.1580 N   0  0  0  0  0  0  0  0  0  0  0  0
  -22.0630  -14.2440   20.7470 O   0  0  0  0  0  0  0  0  0  0  0  0
  -22.3450  -11.7110   22.5800 H   0  0  0  0  0  0  0  0  0  0  0  0
  -20.9920  -12.7970   22.4410 H   0  0  0  0  0  0  0  0  0  0  0  0
  -25.0870  -14.9840   20.2430 N   0  0  0  0  0  0  0  0  0  0  0  0
  -24.3140  -15.6190   20.4020 H   0  0  0  0  0  0  0  0  0  0  0  0
  -25.9120  -15.4460   19.8800 H   0  0  0  0  0  0  0  0  0  0  0  0
  2  3  1  0
  3  5  1  0
  3  1  1  0
  3  4  1  6
  6  7  1  0
  6  5  1  0
  8 10  1  0
  8  7  1  0
  9 20  2  0
 10 15  1  0
 11 19  1  0
 11 21  1  0
 12 18  1  0
 12 14  1  0
 13 19  1  0
 14 13  1  0
 15 14  2  0
 16 17  1  0
 16 10  2  0
 17 12  2  0
 18 11  1  0
 19  9  1  0
 21 23  2  0
 22 21  1  0
 24 22  1  0
 25 34  2  0
 25 30  1  0
 26 22  1  0
 26 30  1  0
 27 26  1  0
 28 29  1  0
 28 27  1  0
 29 25  1  0
 30 31  2  0
 31 32  1  0
 33 32  2  0
 34 33  1  0
 35  9  1  0
 35 40  1  0
 35 36  1  0
 36 39  1  1
 36 37  1  0
 38 36  1  0
 40 43  1  0
 41 45  1  0
 41 40  1  0
 42 41  2  0
 45 44  1  0
 47 45  1  0
 47 48  1  0
 47 46  1  0
 49  1  1  0
 49 50  1  0
 52 51  2  0
 52 50  1  0
 53 52  1  0
 54 53  2  0
 54 55  1  0
 55 59  1  0
 55 51  1  0
 57 58  1  0
 58 56  1  0
 58 53  1  0
 60 59  1  0
 61 66  1  0
 62 63  1  0
 62 61  1  0
 64 63  1  0
 64 71  1  0
 64 65  1  0
 66 60  1  0
 66 65  1  0
 67 60  2  0
 68 69  2  0
 69 88  1  0
 70 69  1  0
 70 73  1  0
 71 72  1  0
 71 68  1  0
 72 70  2  0
 73 74  1  0
 74 75  2  0
 76 79  1  0
 76 75  1  0
 77 76  2  0
 78 77  1  0
 78 73  2  0
 79 80  1  0
 80 85  2  0
 80 81  1  0
 81 82  2  0
 82 83  1  0
 83 87  1  0
 84 83  2  0
 85 84  1  0
 86 85  1  0
 88 89  1  0
 89 92  1  0
 89 91  1  0
 90 88  2  0
 93 94  1  0
 93 68  1  0
 95 93  1  0
M  ISO  4   7 101   8 101  59 100  60 100
M  END
>  <TORSDO>  (11) 
F 25

>  <SCORE>  (11) 
-11.572

>  <name>  (11) 
11

>  <ligand_id>  (11) 
11

>  <original_smiles>  (11) 
[H]c1c([H])c([H])c2c(c1[H])C([H])([H])C([H])([H])C([H])([H])C2([H])N([H])C(=O)C1([H])N(C(=O)C([H])(N([H])C(=O)C([H])(N([H])C([H])([H])[H])C([H])([H])[H])C(C([H])([H])[H])(C([H])([H])[H])C([H])([H])[H])C([H])([H])c2c([H])c(OC([H])([H])C([H])([H])C([H])([H])[N+]([H])(C([H])([H])[H])C([H])([H])C([H])([H])C([H])([H])c3c(C([H])(C([H])([H])[H])C([H])([H])[H])nn(C([H])([H])C(=O)N4C([H])([H])C([H])([H])C([H])([H])C([H])(n5nc(-c6c([H])c([H])c(Oc7c([H])c([H])c(F)c([H])c7F)c([H])c6[H])c(C(=O)N([H])[H])c5N([H])[H])C4([H])[H])c3[H])c([H])c([H])c2C1([H])[H]

>  <smiles>  (11) 
[H]c1c([H])c([H])c2c(c1[H])C([H])([H])C([H])([H])C([H])([H])C2([H])N([H])C(=O)C1([H])N(C(=O)C([H])(N([H])C(=O)C([H])(N([H])C([H])([H])[H])C([H])([H])[H])C(C([H])([H])[H])(C([H])([H])[H])C([H])([H])[H])C([H])([H])c2c([H])c(OC([H])([H])C([H])([H])C([H])([H])[N+]([H])(C([H])([H])[H])C([H])([H])C([H])([H])C([H])([H])c3c(C([H])(C([H])([H])[H])C([H])([H])[H])nn(C([H])([H])C(=O)N4C([H])([H])C([H])([H])C([H])([H])C([H])(n5nc(-c6c([H])c([H])c(Oc7c([H])c([H])c(F)c([H])c7F)c([H])c6[H])c(C(=O)N([H])[H])c5N([H])[H])C4([H])[H])c3[H])c([H])c([H])c2C1([H])[H]

$$$$
12:0:0
     RDKit          3D

 94102  0  0  1  0  0  0  0  0999 V2000
  -30.9440  -19.1530   19.9260 C   0  0  0  0  0  3  0  0  0  0  0  0
  -30.2890  -18.5300   20.9580 C   0  0  0  0  0  0  0  0  0  0  0  0
  -29.8460  -20.8280   20.9840 C   0  0  0  0  0  3  0  0  0  0  0  0
  -30.7010  -20.5180   19.9800 N   0  0  0  0  0  0  0  0  0  0  0  0
  -29.6010  -19.6040   21.5580 N   0  0  0  0  0  0  0  0  0  0  0  0
  -28.9960  -19.4910   22.3650 H   0  0  0  0  0  0  0  0  0  0  0  0
  -30.4350  -17.0550   21.5020 C   0  0  0  0  0  2  0  0  0  0  0  0
  -30.6880  -14.7250   20.3030 C   0  0  0  0  0  0  0  0  0  0  0  0
  -30.3740  -12.6540   18.9350 C   0  0  0  0  0  2  0  0  0  0  0  0
  -29.3590  -12.9230   17.8050 C   0  0  0  0  0  2  0  0  0  0  0  0
  -27.9200  -12.6790   18.3060 C   0  0  0  0  0  2  0  0  0  0  0  0
  -27.6380  -13.3780   19.6640 C   0  0  0  0  0  3  0  0  0  0  0  0
  -28.7680  -13.1110   20.6790 C   0  0  0  0  0  2  0  0  0  0  0  0
  -30.0270  -13.5460   20.0610 N   0  0  0  0  0  0  0  0  0  0  0  0
  -31.8610  -14.8660   19.9410 O   0  0  0  0  0  0  0  0  0  0  0  0
  -29.9600  -15.7950   20.7970 N   0  0  0  0  0  0  0  0  0  0  0  0
  -28.9780  -15.6090   20.9120 H   0  0  0  0  0  0  0  0  0  0  0  0
  -25.2720  -13.8730   20.5210 C   0  0  0  0  0  0  0  0  0  0  0  0
  -24.2440  -13.0570   20.9100 C   0  0  0  0  0  0  0  0  0  0  0  0
  -24.7420  -11.7220   20.8030 C   0  0  0  0  0  0  0  0  0  0  0  0
  -26.3260  -13.0310   20.2020 N   0  0  0  0  0  0  0  0  0  0  0  0
  -26.0180  -11.7300   20.4340 N   0  0  0  0  0  0  0  0  0  0  0  0
  -24.0580  -10.4330   20.9760 C   0  0  0  0  0  0  0  0  0  0  0  0
  -24.4830   -9.5000   21.9460 C   0  0  0  0  0  3  0  0  0  0  0  0
  -23.8020   -8.2740   22.1070 C   0  0  0  0  0  3  0  0  0  0  0  0
  -22.6800   -7.9750   21.3000 C   0  0  0  0  0  0  0  0  0  0  0  0
  -22.2730   -8.9010   20.3240 C   0  0  0  0  0  3  0  0  0  0  0  0
  -22.9540  -10.1170   20.1590 C   0  0  0  0  0  3  0  0  0  0  0  0
  -21.9690   -6.8000   21.3670 O   0  0  0  0  0  0  0  0  0  0  0  0
  -21.8470   -6.0990   22.5400 C   0  0  0  0  0  0  0  0  0  0  0  0
  -21.1950   -6.6440   23.6690 C   0  0  0  0  0  3  0  0  0  0  0  0
  -21.0300   -5.8660   24.8320 C   0  0  0  0  0  3  0  0  0  0  0  0
  -21.5050   -4.5400   24.8650 C   0  0  0  0  0  0  0  0  0  0  0  0
  -22.1430   -3.9910   23.7400 C   0  0  0  0  0  3  0  0  0  0  0  0
  -22.3120   -4.7690   22.5800 C   0  0  0  0  0  0  0  0  0  0  0  0
  -22.9110   -4.2290   21.4910 F   0  0  0  0  0  0  0  0  0  0  0  0
  -21.3370   -3.7890   25.9780 F   0  0  0  0  0  0  0  0  0  0  0  0
  -22.8500  -13.4840   21.2560 C   0  0  0  0  0  0  0  0  0  0  0  0
  -22.1770  -12.7450   22.1300 N   0  0  0  0  0  0  0  0  0  0  0  0
  -22.3640  -14.5100   20.7840 O   0  0  0  0  0  0  0  0  0  0  0  0
  -22.5770  -11.9180   22.5430 H   0  0  0  0  0  0  0  0  0  0  0  0
  -21.2380  -13.0140   22.3910 H   0  0  0  0  0  0  0  0  0  0  0  0
  -25.3970  -15.2530   20.3800 N   0  0  0  0  0  0  0  0  0  0  0  0
  -24.6230  -15.8870   20.5420 H   0  0  0  0  0  0  0  0  0  0  0  0
  -26.2060  -15.7140   19.9850 H   0  0  0  0  0  0  0  0  0  0  0  0
  -29.1490  -22.2040   21.3810 C   0  0  0  0  0  2  0  0  0  0  0  0
  -29.6650  -23.7140   21.0650 C   0  0  0  0  0  3  0  0  0  0  0  0
  -28.6500  -24.9370   21.3720 C   0  0  0  0  0  3  0  0  0  0  0  0
  -28.8960  -26.3590   20.9410 O   0  0  0  0  0  0  0  0  0  0  0  0
  -24.8650  -31.9180   23.3160 C   0  0  0  0  0  0  0  0  0  0  0  0
  -27.7780  -27.2090   20.7710 C   0  0  0  0  0  0  0  0  0  0  0  0
  -23.8050  -30.3780   21.7040 C   0  0  0  0  0  3  0  0  0  0  0  0
  -25.3830  -28.7720   20.4850 C   0  0  0  0  0  0  0  0  0  0  0  0
  -26.3450  -30.7490   21.6590 C   0  0  0  0  0  2  0  0  0  0  0  0
  -26.5020  -29.3290   21.1190 C   0  0  0  0  0  0  0  0  0  0  0  0
  -27.7050  -28.5620   21.2460 C   0  0  0  0  0  3  0  0  0  0  0  0
  -26.6410  -26.7210   20.0880 C   0  0  0  0  0  3  0  0  0  0  0  0
  -25.4590  -27.4730   19.9570 C   0  0  0  0  0  3  0  0  0  0  0  0
  -24.1260  -29.6150   20.3920 C   0  0  0  0  0  2  0  0  0  0  0  0
  -25.0200  -31.0380   22.2830 N   0  0  0  0  0  0  0  0  0  0  0  0
  -23.7410  -32.2030   23.7560 O   0  0  0  0  0  0  0  0  0  0  0  0
  -23.1010  -29.4150   22.6880 C   0  0  0  0  0  0  0  0  0  0  0  0
  -21.7850  -29.2150   22.5020 N   0  0  0  0  0  0  0  0  0  0  0  0
  -23.7410  -28.8490   23.5780 O   0  0  0  0  0  0  0  0  0  0  0  0
  -21.3340  -29.7220   21.7540 H   0  0  0  0  0  0  0  0  0  0  0  0
  -18.3790  -28.0750   22.9470 C   0  0  0  0  0  0  0  0  0  0  0  0
  -20.9330  -28.3160   23.2810 C   0  0  0  0  0  3  0  0  0  0  0  0
  -21.0340  -26.8650   22.7540 C   0  0  0  0  0  2  0  0  0  0  0  0
  -19.9550  -26.5190   21.7220 C   0  0  0  0  0  2  0  0  0  0  0  0
  -18.5590  -26.7020   22.3230 C   0  0  0  0  0  2  0  0  0  0  0  0
  -19.4950  -28.8390   23.3820 C   0  0  0  0  0  0  0  0  0  0  0  0
  -19.2760  -30.1240   23.9230 C   0  0  0  0  0  3  0  0  0  0  0  0
  -17.9730  -30.6430   24.0410 C   0  0  0  0  0  3  0  0  0  0  0  0
  -16.8700  -29.8750   23.6250 C   0  0  0  0  0  3  0  0  0  0  0  0
  -17.0750  -28.5960   23.0810 C   0  0  0  0  0  3  0  0  0  0  0  0
  -26.0860  -32.6250   23.9760 C   0  0  0  0  0  3  0  0  0  0  0  0
  -25.6940  -34.0110   24.2730 N   0  0  0  0  0  0  0  0  0  0  0  0
  -25.9500  -35.0620   23.4830 C   0  0  0  0  0  0  0  0  0  0  0  0
  -26.6110  -34.9720   22.4460 O   0  0  0  0  0  0  0  0  0  0  0  0
  -25.0960  -34.1490   25.0740 H   0  0  0  0  0  0  0  0  0  0  0  0
  -24.1020  -36.7320   23.1200 C   0  0  0  0  0  1  0  0  0  0  0  0
  -25.3840  -36.4300   23.9130 C   0  0  0  0  0  3  0  0  0  0  0  0
  -27.4640  -37.4850   24.6840 C   0  0  0  0  0  1  0  0  0  0  0  0
  -26.3440  -37.5430   23.7480 N   0  0  0  0  0  0  0  0  0  0  0  0
  -25.8790  -38.4400   23.8620 H   0  0  0  0  0  0  0  0  0  0  0  0
  -26.5890  -31.9000   25.2850 C   0  0  1  0  0  0  0  0  0  0  0  0
  -25.4590  -31.5740   26.2890 C   0  0  0  0  0  1  0  0  0  0  0  0
  -27.3060  -30.5750   24.9350 C   0  0  0  0  0  1  0  0  0  0  0  0
  -27.6310  -32.7860   26.0070 C   0  0  0  0  0  1  0  0  0  0  0  0
  -31.3570  -21.4650   19.0660 C   0  0  0  0  0  2  0  0  0  0  0  0
  -31.5270  -21.9160   16.5840 C   0  0  0  0  0  1  0  0  0  0  0  0
  -30.5570  -21.7240   17.7670 C   0  0  0  0  0  3  0  0  0  0  0  0
  -28.5820  -23.0690   16.7650 C   0  0  0  0  0  1  0  0  0  0  0  0
  -29.5810  -22.9130   17.9230 C   0  0  0  0  0  2  0  0  0  0  0  0
  1  4  1  0
  1  2  2  0
  2  7  1  0
  2  5  1  0
  3 46  1  0
  3  5  1  0
  4  3  1  0
  5  6  1  0
  8 16  1  0
  9 14  1  0
 10 11  1  0
 10  9  1  0
 12 11  1  0
 12 21  1  0
 12 13  1  0
 14  8  1  0
 14 13  1  0
 15  8  2  0
 16 17  1  0
 16  7  1  0
 18 19  2  0
 19 38  1  0
 20 19  1  0
 20 23  1  0
 21 22  1  0
 21 18  1  0
 22 20  2  0
 23 24  1  0
 24 25  2  0
 26 29  1  0
 26 25  1  0
 27 26  2  0
 28 27  1  0
 28 23  2  0
 29 30  1  0
 30 35  2  0
 30 31  1  0
 31 32  2  0
 32 33  1  0
 33 37  1  0
 34 33  2  0
 35 34  1  0
 36 35  1  0
 38 39  1  0
 39 42  1  0
 39 41  1  0
 40 38  2  0
 43 18  1  0
 43 44  1  0
 45 43  1  0
 47 48  2  0
 47 46  1  0
 49 48  1  0
 50 61  2  0
 51 49  1  0
 51 56  1  0
 52 60  1  0
 52 62  1  0
 53 55  1  0
 54 60  1  0
 55 56  2  0
 55 54  1  0
 57 51  2  0
 58 57  1  0
 58 53  2  0
 59 53  1  0
 59 52  1  0
 60 50  1  0
 62 64  2  0
 63 62  1  0
 65 63  1  0
 66 75  2  0
 66 71  1  0
 67 63  1  0
 67 71  1  0
 68 67  1  0
 69 70  1  0
 69 68  1  0
 70 66  1  0
 71 72  2  0
 72 73  1  0
 74 73  2  0
 75 74  1  0
 76 50  1  0
 76 77  1  0
 76 86  1  0
 77 80  1  0
 78 82  1  0
 78 77  1  0
 79 78  2  0
 82 81  1  0
 84 85  1  0
 84 82  1  0
 84 83  1  0
 86 89  1  1
 86 87  1  0
 88 86  1  0
 90  4  1  0
 92 91  1  0
 92 94  1  0
 92 90  1  0
 93 94  1  0
M  ISO  4   8 100  16 100  48 101  49 101
M  END
>  <TORSDO>  (12) 
F 23

>  <SCORE>  (12) 
-12.297

>  <name>  (12) 
12

>  <ligand_id>  (12) 
12

>  <original_smiles>  (12) 
[H]c1c([H])c([H])c2c(c1[H])C([H])([H])C([H])([H])C([H])([H])C2([H])N([H])C(=O)C1([H])N(C(=O)C([H])(N([H])C(=O)C([H])(N([H])C([H])([H])[H])C([H])([H])[H])C(C([H])([H])[H])(C([H])([H])[H])C([H])([H])[H])C([H])([H])c2c([H])c(OC([H])([H])C([H])([H])C([H])([H])c3n(C([H])([H])C([H])(C([H])([H])[H])C([H])([H])C([H])([H])[H])c([H])c(C([H])([H])N([H])C(=O)N4C([H])([H])C([H])([H])C([H])([H])C([H])(n5nc(-c6c([H])c([H])c(Oc7c([H])c([H])c(F)c([H])c7F)c([H])c6[H])c(C(=O)N([H])[H])c5N([H])[H])C4([H])[H])[n+]3[H])c([H])c([H])c2C1([H])[H]

>  <smiles>  (12) 
[H]c1c([H])c([H])c2c(c1[H])C([H])([H])C([H])([H])C([H])([H])C2([H])N([H])C(=O)C1([H])N(C(=O)C([H])(N([H])C(=O)C([H])(N([H])C([H])([H])[H])C([H])([H])[H])C(C([H])([H])[H])(C([H])([H])[H])C([H])([H])[H])C([H])([H])c2c([H])c(OC([H])([H])C([H])([H])C([H])([H])c3n(C([H])([H])C([H])(C([H])([H])[H])C([H])([H])C([H])([H])[H])c([H])c(C([H])([H])N([H])C(=O)N4C([H])([H])C([H])([H])C([H])([H])C([H])(n5nc(-c6c([H])c([H])c(Oc7c([H])c([H])c(F)c([H])c7F)c([H])c6[H])c(C(=O)N([H])[H])c5N([H])[H])C4([H])[H])[n+]3[H])c([H])c([H])c2C1([H])[H]

$$$$
13:0:0
     RDKit          3D

 90 98  0  0  1  0  0  0  0  0999 V2000
  -30.4550  -19.6960   19.5460 C   0  0  0  0  0  3  0  0  0  0  0  0
  -28.8730  -20.2900   20.9920 C   0  0  0  0  0  3  0  0  0  0  0  0
  -30.2180  -21.0330   19.3570 C   0  0  0  0  0  0  0  0  0  0  0  0
  -29.1900  -21.4210   20.2760 C   0  0  0  0  0  0  0  0  0  0  0  0
  -30.8740  -21.8770   18.2950 C   0  0  0  0  0  1  0  0  0  0  0  0
  -29.5950  -19.2080   20.5140 N   0  0  0  0  0  0  0  0  0  0  0  0
  -28.4190  -22.7370   20.3470 C   0  0  0  0  0  2  0  0  0  0  0  0
  -29.1430  -24.1180   20.4250 C   0  0  0  0  0  2  0  0  0  0  0  0
  -28.0990  -25.1920   20.0200 C   0  0  0  0  0  2  0  0  0  0  0  0
  -28.3500  -26.6070   20.1970 O   0  0  0  0  0  0  0  0  0  0  0  0
  -24.5860  -31.8850   23.2200 C   0  0  0  0  0  0  0  0  0  0  0  0
  -27.2070  -27.4020   20.1440 C   0  0  0  0  0  0  0  0  0  0  0  0
  -23.3770  -30.4850   21.5840 C   0  0  0  0  0  3  0  0  0  0  0  0
  -24.8230  -28.9530   20.1560 C   0  0  0  0  0  0  0  0  0  0  0  0
  -25.9110  -30.8280   21.3890 C   0  0  0  0  0  2  0  0  0  0  0  0
  -25.9920  -29.4590   20.7410 C   0  0  0  0  0  0  0  0  0  0  0  0
  -27.1860  -28.6950   20.7290 C   0  0  0  0  0  3  0  0  0  0  0  0
  -26.0110  -26.9350   19.5390 C   0  0  0  0  0  3  0  0  0  0  0  0
  -24.8280  -27.6890   19.5550 C   0  0  0  0  0  3  0  0  0  0  0  0
  -23.5860  -29.8160   20.2020 C   0  0  0  0  0  2  0  0  0  0  0  0
  -24.6430  -31.0800   22.1210 N   0  0  0  0  0  0  0  0  0  0  0  0
  -23.5060  -32.1600   23.7590 O   0  0  0  0  0  0  0  0  0  0  0  0
  -22.7240  -29.4630   22.5420 C   0  0  0  0  0  0  0  0  0  0  0  0
  -21.3990  -29.2750   22.4100 N   0  0  0  0  0  0  0  0  0  0  0  0
  -23.4040  -28.8400   23.3610 O   0  0  0  0  0  0  0  0  0  0  0  0
  -20.9090  -29.8310   21.7240 H   0  0  0  0  0  0  0  0  0  0  0  0
  -18.0290  -28.0590   22.8890 C   0  0  0  0  0  0  0  0  0  0  0  0
  -20.5820  -28.3380   23.1800 C   0  0  0  0  0  3  0  0  0  0  0  0
  -20.7000  -26.9020   22.6200 C   0  0  0  0  0  2  0  0  0  0  0  0
  -19.6090  -26.5600   21.5990 C   0  0  0  0  0  2  0  0  0  0  0  0
  -18.2200  -26.7040   22.2280 C   0  0  0  0  0  2  0  0  0  0  0  0
  -19.1380  -28.8330   23.3210 C   0  0  0  0  0  0  0  0  0  0  0  0
  -18.9050  -30.1000   23.8970 C   0  0  0  0  0  3  0  0  0  0  0  0
  -17.5970  -30.5970   24.0440 C   0  0  0  0  0  3  0  0  0  0  0  0
  -16.5010  -29.8180   23.6310 C   0  0  0  0  0  3  0  0  0  0  0  0
  -16.7170  -28.5520   23.0590 C   0  0  0  0  0  3  0  0  0  0  0  0
  -25.8720  -32.5190   23.8360 C   0  0  0  0  0  3  0  0  0  0  0  0
  -25.5610  -33.9130   24.1760 N   0  0  0  0  0  0  0  0  0  0  0  0
  -25.8750  -34.9700   23.4150 C   0  0  0  0  0  0  0  0  0  0  0  0
  -26.5280  -34.8750   22.3720 O   0  0  0  0  0  0  0  0  0  0  0  0
  -24.9940  -34.0630   24.9970 H   0  0  0  0  0  0  0  0  0  0  0  0
  -24.1300  -36.7490   23.0930 C   0  0  0  0  0  1  0  0  0  0  0  0
  -25.3850  -36.3510   23.8860 C   0  0  0  0  0  3  0  0  0  0  0  0
  -27.5250  -37.2450   24.6890 C   0  0  0  0  0  1  0  0  0  0  0  0
  -26.4090  -37.4130   23.7640 N   0  0  0  0  0  0  0  0  0  0  0  0
  -25.9980  -38.3290   23.9240 H   0  0  0  0  0  0  0  0  0  0  0  0
  -26.4020  -31.7420   25.1020 C   0  0  1  0  0  0  0  0  0  0  0  0
  -25.3230  -31.4900   26.1800 C   0  0  0  0  0  1  0  0  0  0  0  0
  -26.9910  -30.3720   24.6940 C   0  0  0  0  0  1  0  0  0  0  0  0
  -27.5500  -32.5410   25.7620 C   0  0  0  0  0  1  0  0  0  0  0  0
  -29.3750  -17.7990   20.8890 C   0  0  0  0  0  2  0  0  0  0  0  0
  -30.5860  -16.8560   20.6610 C   0  0  0  0  0  2  0  0  0  0  0  0
  -30.7650  -14.4530   20.1450 C   0  0  0  0  0  0  0  0  0  0  0  0
  -30.2740  -12.3800   18.8850 C   0  0  0  0  0  2  0  0  0  0  0  0
  -29.2720  -12.6520   17.7460 C   0  0  0  0  0  2  0  0  0  0  0  0
  -27.8300  -12.4890   18.2600 C   0  0  0  0  0  2  0  0  0  0  0  0
  -27.5760  -13.2850   19.5670 C   0  0  0  0  0  3  0  0  0  0  0  0
  -28.6940  -13.0440   20.6050 C   0  0  0  0  0  2  0  0  0  0  0  0
  -29.9970  -13.3320   19.9770 N   0  0  0  0  0  0  0  0  0  0  0  0
  -31.7720  -14.6510   19.4610 O   0  0  0  0  0  0  0  0  0  0  0  0
  -30.4290  -15.1720   22.4300 C   0  0  0  0  0  1  0  0  0  0  0  0
  -30.3190  -15.4260   20.9870 N   0  0  0  0  0  0  0  0  0  0  0  0
  -25.2220  -13.8730   20.4270 C   0  0  0  0  0  0  0  0  0  0  0  0
  -24.1810  -13.0930   20.8540 C   0  0  0  0  0  0  0  0  0  0  0  0
  -24.6450  -11.7450   20.7810 C   0  0  0  0  0  0  0  0  0  0  0  0
  -26.2550  -13.0000   20.1220 N   0  0  0  0  0  0  0  0  0  0  0  0
  -25.9150  -11.7130   20.3950 N   0  0  0  0  0  0  0  0  0  0  0  0
  -23.9340  -10.4770   21.0010 C   0  0  0  0  0  0  0  0  0  0  0  0
  -24.4020   -9.5180   21.9250 C   0  0  0  0  0  3  0  0  0  0  0  0
  -23.6910   -8.3160   22.1340 C   0  0  0  0  0  3  0  0  0  0  0  0
  -22.4970   -8.0650   21.4170 C   0  0  0  0  0  0  0  0  0  0  0  0
  -22.0470   -9.0120   20.4810 C   0  0  0  0  0  3  0  0  0  0  0  0
  -22.7600  -10.2060   20.2710 C   0  0  0  0  0  3  0  0  0  0  0  0
  -21.7560   -6.9130   21.5340 O   0  0  0  0  0  0  0  0  0  0  0  0
  -21.7190   -6.1960   22.7030 C   0  0  0  0  0  0  0  0  0  0  0  0
  -21.3040   -6.7780   23.9210 C   0  0  0  0  0  3  0  0  0  0  0  0
  -21.2140   -5.9870   25.0840 C   0  0  0  0  0  3  0  0  0  0  0  0
  -21.5290   -4.6160   25.0300 C   0  0  0  0  0  0  0  0  0  0  0  0
  -21.9360   -4.0330   23.8170 C   0  0  0  0  0  3  0  0  0  0  0  0
  -22.0270   -4.8210   22.6570 C   0  0  0  0  0  0  0  0  0  0  0  0
  -22.3990   -4.2510   21.4850 F   0  0  0  0  0  0  0  0  0  0  0  0
  -21.4370   -3.8540   26.1450 F   0  0  0  0  0  0  0  0  0  0  0  0
  -22.8010  -13.5630   21.2130 C   0  0  0  0  0  0  0  0  0  0  0  0
  -22.1320  -12.8700   22.1280 N   0  0  0  0  0  0  0  0  0  0  0  0
  -22.3220  -14.5790   20.7140 O   0  0  0  0  0  0  0  0  0  0  0  0
  -22.5330  -12.0480   22.5560 H   0  0  0  0  0  0  0  0  0  0  0  0
  -21.2050  -13.1650   22.4000 H   0  0  0  0  0  0  0  0  0  0  0  0
  -25.3720  -15.2460   20.2530 N   0  0  0  0  0  0  0  0  0  0  0  0
  -24.6130  -15.8980   20.4210 H   0  0  0  0  0  0  0  0  0  0  0  0
  -26.2030  -15.6930   19.8890 H   0  0  0  0  0  0  0  0  0  0  0  0
  1  6  1  0
  3  1  2  0
  3  4  1  0
  4  7  1  0
  4  2  2  0
  5  3  1  0
  6 51  1  0
  6  2  1  0
  7  8  1  0
  9 10  1  0
  9  8  1  0
 11 22  2  0
 12 10  1  0
 12 17  1  0
 13 21  1  0
 13 23  1  0
 14 20  1  0
 14 16  1  0
 15 21  1  0
 16 15  1  0
 17 16  2  0
 18 19  1  0
 18 12  2  0
 19 14  2  0
 20 13  1  0
 21 11  1  0
 23 25  2  0
 24 23  1  0
 26 24  1  0
 27 36  2  0
 27 32  1  0
 28 24  1  0
 28 32  1  0
 29 28  1  0
 30 31  1  0
 30 29  1  0
 31 27  1  0
 32 33  2  0
 33 34  1  0
 35 34  2  0
 36 35  1  0
 37 11  1  0
 37 38  1  0
 37 47  1  0
 38 41  1  0
 39 43  1  0
 39 38  1  0
 40 39  2  0
 43 42  1  0
 45 43  1  0
 45 46  1  0
 45 44  1  0
 47 50  1  1
 47 48  1  0
 49 47  1  0
 52 51  1  0
 52 62  1  0
 53 62  1  0
 54 59  1  0
 55 56  1  0
 55 54  1  0
 57 56  1  0
 57 66  1  0
 57 58  1  0
 59 53  1  0
 59 58  1  0
 60 53  2  0
 62 61  1  0
 63 64  2  0
 64 83  1  0
 65 64  1  0
 65 68  1  0
 66 67  1  0
 66 63  1  0
 67 65  2  0
 68 69  1  0
 69 70  2  0
 71 74  1  0
 71 70  1  0
 72 71  2  0
 73 72  1  0
 73 68  2  0
 74 75  1  0
 75 76  1  0
 76 77  2  0
 78 77  1  0
 78 82  1  0
 79 78  2  0
 80 75  2  0
 80 79  1  0
 81 80  1  0
 83 84  1  0
 84 87  1  0
 84 86  1  0
 85 83  2  0
 88 89  1  0
 88 63  1  0
 90 88  1  0
M  ISO  4   9 101  10 101  53 100  62 100
M  END
>  <TORSDO>  (13) 
F 21

>  <SCORE>  (13) 
-12.330

>  <name>  (13) 
13

>  <ligand_id>  (13) 
13

>  <original_smiles>  (13) 
[H]c1c([H])c([H])c2c(c1[H])C([H])([H])C([H])([H])C([H])([H])C2([H])N([H])C(=O)C1([H])N(C(=O)C([H])(N([H])C(=O)C([H])(N([H])C([H])([H])[H])C([H])([H])[H])C(C([H])([H])[H])(C([H])([H])[H])C([H])([H])[H])C([H])([H])c2c([H])c(OC([H])([H])C([H])([H])C([H])([H])c3c(C([H])([H])[H])c([H])n(C([H])([H])C([H])([H])N(C(=O)N4C([H])([H])C([H])([H])C([H])([H])C([H])(n5nc(-c6c([H])c([H])c(Oc7c([H])c([H])c(F)c([H])c7F)c([H])c6[H])c(C(=O)N([H])[H])c5N([H])[H])C4([H])[H])C([H])([H])[H])c3[H])c([H])c([H])c2C1([H])[H]

>  <smiles>  (13) 
[H]c1c([H])c([H])c2c(c1[H])C([H])([H])C([H])([H])C([H])([H])C2([H])N([H])C(=O)C1([H])N(C(=O)C([H])(N([H])C(=O)C([H])(N([H])C([H])([H])[H])C([H])([H])[H])C(C([H])([H])[H])(C([H])([H])[H])C([H])([H])[H])C([H])([H])c2c([H])c(OC([H])([H])C([H])([H])C([H])([H])c3c(C([H])([H])[H])c([H])n(C([H])([H])C([H])([H])N(C(=O)N4C([H])([H])C([H])([H])C([H])([H])C([H])(n5nc(-c6c([H])c([H])c(Oc7c([H])c([H])c(F)c([H])c7F)c([H])c6[H])c(C(=O)N([H])[H])c5N([H])[H])C4([H])[H])C([H])([H])[H])c3[H])c([H])c([H])c2C1([H])[H]

$$$$
14:0:0
     RDKit          3D

 93 98  0  0  1  0  0  0  0  0999 V2000
  -30.7790  -17.5010   19.4220 C   0  0  0  0  0  3  0  0  0  0  0  0
  -30.4720  -19.1430   19.6430 C   0  0  0  0  0  2  0  0  0  0  0  0
  -30.0370  -16.1390   18.8460 C   0  0  0  0  0  2  0  0  0  0  0  0
  -29.3800  -20.2230   19.1730 C   0  0  0  0  0  3  0  0  0  0  0  0
  -29.2970  -17.4340   18.2600 N   0  0  0  0  0  0  0  0  0  0  0  0
  -28.9350  -18.9600   18.4200 N   0  0  0  0  0  0  0  0  0  0  0  0
  -29.6640  -13.1720   18.2370 C   0  0  0  0  0  3  0  0  0  0  0  0
  -27.4590  -12.0340   16.9980 C   0  0  0  0  0  1  0  0  0  0  0  0
  -27.9170  -12.8970   18.1120 N   0  0  2  0  0  4  0  0  0  0  0  0
  -27.7980  -12.2860   18.9200 H   0  0  0  0  0  0  0  0  0  0  0  0
  -26.8330  -14.2300   18.5290 C   0  0  0  0  0  2  0  0  0  0  0  0
  -27.2600  -15.8060   19.5660 C   0  0  0  0  0  1  0  0  0  0  0  0
  -28.1950  -16.2500   21.2800 C   0  0  0  0  0  1  0  0  0  0  0  0
  -30.8150  -14.6050   21.9370 C   0  0  0  0  0  0  0  0  0  0  0  0
  -31.5880  -13.2690   19.8420 C   0  0  0  0  0  2  0  0  0  0  0  0
  -31.0150  -13.9630   18.1910 C   0  0  0  0  0  2  0  0  0  0  0  0
  -29.0390  -14.4740   18.0380 C   0  0  0  0  0  1  0  0  0  0  0  0
  -28.2690  -13.7960   20.6230 C   0  0  0  0  0  2  0  0  0  0  0  0
  -29.3430  -12.9750   21.5890 C   0  0  0  0  0  2  0  0  0  0  0  0
  -30.6890  -13.4790   21.2030 N   0  0  0  0  0  0  0  0  0  0  0  0
  -32.0310  -14.8380   22.0780 O   0  0  0  0  0  0  0  0  0  0  0  0
  -29.6080  -15.5370   22.1370 N   0  0  0  0  0  0  0  0  0  0  0  0
  -29.8870  -16.2000   22.8490 H   0  0  0  0  0  0  0  0  0  0  0  0
  -25.7310  -13.5760   21.1660 C   0  0  0  0  0  0  0  0  0  0  0  0
  -24.7510  -12.6890   21.0440 C   0  0  0  0  0  0  0  0  0  0  0  0
  -25.3670  -11.4180   21.1280 C   0  0  0  0  0  3  0  0  0  0  0  0
  -26.9570  -12.9680   21.0120 N   0  0  0  0  0  0  0  0  0  0  0  0
  -26.7250  -11.5810   21.0530 N   0  0  0  0  0  2  0  0  0  0  0  0
  -24.6420  -10.1360   21.2600 C   0  0  0  0  0  0  0  0  0  0  0  0
  -24.8740   -9.2570   22.3420 C   0  0  0  0  0  3  0  0  0  0  0  0
  -24.0720   -8.1060   22.5220 C   0  0  0  0  0  3  0  0  0  0  0  0
  -23.0100   -7.8250   21.6290 C   0  0  0  0  0  0  0  0  0  0  0  0
  -22.7800   -8.7010   20.5540 C   0  0  0  0  0  3  0  0  0  0  0  0
  -23.5860   -9.8400   20.3700 C   0  0  0  0  0  3  0  0  0  0  0  0
  -22.2050   -6.7110   21.7030 O   0  0  0  0  0  0  0  0  0  0  0  0
  -22.0090   -6.0320   22.8800 C   0  0  0  0  0  0  0  0  0  0  0  0
  -21.3820   -6.6390   23.9890 C   0  0  0  0  0  3  0  0  0  0  0  0
  -21.1330   -5.8890   25.1560 C   0  0  0  0  0  3  0  0  0  0  0  0
  -21.5010   -4.5310   25.2130 C   0  0  0  0  0  0  0  0  0  0  0  0
  -22.1190   -3.9230   24.1060 C   0  0  0  0  0  3  0  0  0  0  0  0
  -22.3690   -4.6710   22.9420 C   0  0  0  0  0  0  0  0  0  0  0  0
  -22.9450   -4.0720   21.8710 F   0  0  0  0  0  0  0  0  0  0  0  0
  -21.2560   -3.8070   26.3310 F   0  0  0  0  0  0  0  0  0  0  0  0
  -23.3270  -13.1110   20.8880 C   0  0  0  0  0  0  0  0  0  0  0  0
  -22.4370  -12.5270   21.6690 N   0  0  0  0  0  0  0  0  0  0  0  0
  -23.0300  -14.0490   20.1420 O   0  0  0  0  0  0  0  0  0  0  0  0
  -22.7060  -11.7920   22.3060 H   0  0  0  0  0  0  0  0  0  0  0  0
  -21.4690  -12.8130   21.6320 H   0  0  0  0  0  0  0  0  0  0  0  0
  -25.5680  -14.9120   21.3350 N   0  0  0  0  0  0  0  0  0  0  0  0
  -24.6530  -15.3480   21.3590 H   0  0  0  0  0  0  0  0  0  0  0  0
  -26.3220  -15.5830   21.3320 H   0  0  0  0  0  0  0  0  0  0  0  0
  -28.5640  -22.3160   19.3570 C   0  0  0  0  0 15  0  0  0  0  0  0
  -28.5670  -24.4190   19.7050 O   0  0  0  0  0  1  0  0  0  0  0  0
  -24.7850  -31.4300   22.8580 C   0  0  0  0  0  0  0  0  0  0  0  0
  -27.6180  -25.9040   19.8160 C   0  0  0  0  0  0  0  0  0  0  0  0
  -23.7360  -29.9380   21.2300 C   0  0  0  0  0  3  0  0  0  0  0  0
  -25.2900  -28.2370   19.8690 C   0  0  0  0  0  0  0  0  0  0  0  0
  -26.3430  -30.0160   21.2170 C   0  0  0  0  0  2  0  0  0  0  0  0
  -26.4890  -28.5200   20.5300 C   0  0  0  0  0  0  0  0  0  0  0  0
  -27.6020  -27.4000   20.4580 C   0  0  0  0  0  3  0  0  0  0  0  0
  -26.3460  -26.0090   19.1450 C   0  0  0  0  0  3  0  0  0  0  0  0
  -25.2940  -27.0150   19.1640 C   0  0  0  0  0  3  0  0  0  0  0  0
  -24.0630  -29.2040   19.8900 C   0  0  0  0  0  2  0  0  0  0  0  0
  -24.9880  -30.5130   21.8210 N   0  0  0  0  0  0  0  0  0  0  0  0
  -23.6510  -31.6950   23.3050 O   0  0  0  0  0  0  0  0  0  0  0  0
  -22.9950  -28.9840   22.2120 C   0  0  0  0  0  0  0  0  0  0  0  0
  -21.6590  -28.8210   22.0950 N   0  0  0  0  0  0  0  0  0  0  0  0
  -23.6470  -28.3810   23.0660 O   0  0  0  0  0  0  0  0  0  0  0  0
  -21.1720  -29.3610   21.3940 H   0  0  0  0  0  0  0  0  0  0  0  0
  -18.3030  -27.4860   22.6260 C   0  0  0  0  0  0  0  0  0  0  0  0
  -20.8560  -27.8560   22.8660 C   0  0  0  0  0  3  0  0  0  0  0  0
  -21.0010  -26.4290   22.2860 C   0  0  0  0  0  2  0  0  0  0  0  0
  -19.9080  -26.0760   21.2730 C   0  0  0  0  0  2  0  0  0  0  0  0
  -18.5260  -26.1570   21.9260 C   0  0  0  0  0  2  0  0  0  0  0  0
  -19.3930  -28.2930   23.0520 C   0  0  0  0  0  0  0  0  0  0  0  0
  -19.1240  -29.5280   23.6780 C   0  0  0  0  0  3  0  0  0  0  0  0
  -17.7980  -29.9630   23.8740 C   0  0  0  0  0  3  0  0  0  0  0  0
  -16.7240  -29.1580   23.4580 C   0  0  0  0  0  3  0  0  0  0  0  0
  -16.9780  -27.9200   22.8410 C   0  0  0  0  0  3  0  0  0  0  0  0
  -25.9530  -32.2030   23.5480 C   0  0  0  0  0  3  0  0  0  0  0  0
  -25.5130  -33.5910   23.8480 N   0  0  0  0  0  0  0  0  0  0  0  0
  -25.9280  -34.7030   23.2220 C   0  0  0  0  0  0  0  0  0  0  0  0
  -26.7610  -34.6720   22.3150 O   0  0  0  0  0  0  0  0  0  0  0  0
  -24.7830  -33.6840   24.5390 H   0  0  0  0  0  0  0  0  0  0  0  0
  -24.2000  -36.4770   22.7130 C   0  0  0  0  0  1  0  0  0  0  0  0
  -25.3350  -36.0630   23.6650 C   0  0  0  0  0  3  0  0  0  0  0  0
  -27.3050  -36.9940   24.8090 C   0  0  0  0  0  1  0  0  0  0  0  0
  -26.3340  -37.1560   23.7310 N   0  0  0  0  0  0  0  0  0  0  0  0
  -25.8750  -38.0560   23.8510 H   0  0  0  0  0  0  0  0  0  0  0  0
  -26.4280  -31.5220   24.8920 C   0  0  1  0  0  0  0  0  0  0  0  0
  -25.2860  -31.2610   25.9040 C   0  0  0  0  0  1  0  0  0  0  0  0
  -27.1170  -30.1700   24.6180 C   0  0  0  0  0  1  0  0  0  0  0  0
  -27.4860  -32.4130   25.5870 C   0  0  0  0  0  1  0  0  0  0  0  0
  1  3  1  0
  1  2  1  0
  4  2  1  0
  5  6  1  0
  5  3  1  0
  5  1  1  0
  6  4  2  0
  7 17  1  0
  8  9  1  0
  9  7  1  0
  9 11  1  0
  9 10  1  1
 11 12  1  0
 13 22  1  0
 14 21  2  0
 14 22  1  0
 15 20  1  0
 16  7  1  0
 16 15  1  0
 18 27  1  0
 18 19  1  0
 20 19  1  0
 20 14  1  0
 22 23  1  0
 24 49  1  0
 25 26  1  0
 25 24  2  0
 26 29  1  0
 27 28  1  0
 27 24  1  0
 28 26  1  0
 29 30  1  0
 30 31  2  0
 32 35  1  0
 32 31  1  0
 33 32  2  0
 34 33  1  0
 34 29  2  0
 35 36  1  0
 36 41  2  0
 36 37  1  0
 37 38  2  0
 38 39  1  0
 39 43  1  0
 40 39  2  0
 41 40  1  0
 42 41  1  0
 44 25  1  0
 44 45  1  0
 45 47  1  0
 46 44  2  0
 48 45  1  0
 49 50  1  0
 51 49  1  0
 53 55  1  0
 54 65  2  0
 55 60  1  0
 56 64  1  0
 56 66  1  0
 57 63  1  0
 57 59  1  0
 58 64  1  0
 59 58  1  0
 60 59  2  0
 61 62  1  0
 61 55  2  0
 62 57  2  0
 63 56  1  0
 64 54  1  0
 66 68  2  0
 67 66  1  0
 69 67  1  0
 70 79  2  0
 70 75  1  0
 71 67  1  0
 71 75  1  0
 72 71  1  0
 73 74  1  0
 73 72  1  0
 74 70  1  0
 75 76  2  0
 76 77  1  0
 78 77  2  0
 79 78  1  0
 80 54  1  0
 80 81  1  0
 80 90  1  0
 81 84  1  0
 82 86  1  0
 82 81  1  0
 83 82  2  0
 86 85  1  0
 86 88  1  0
 88 89  1  0
 88 87  1  0
 90 93  1  1
 90 91  1  0
 92 90  1  0
M  ISO  4  14 100  22 100  52 101  53 101
M  END
>  <TORSDO>  (14) 
F 22

>  <SCORE>  (14) 
-8.276

>  <name>  (14) 
14

>  <ligand_id>  (14) 
14

>  <original_smiles>  (14) 
[H]c1c(C([H])([H])Oc2c([H])c([H])c3c(c2[H])C([H])([H])N(C(=O)C([H])(N([H])C(=O)C([H])(N([H])C([H])([H])[H])C([H])([H])[H])C(C([H])([H])[H])(C([H])([H])[H])C([H])([H])[H])C([H])(C(=O)N([H])C2([H])c4c([H])c([H])c([H])c([H])c4C([H])([H])C([H])([H])C2([H])[H])C3([H])[H])nnc(C([H])([H])[N+]([H])(C([H])([H])[H])C([H])([H])C([H])([H])C([H])([H])N([H])C(=O)N2C([H])([H])C([H])([H])C([H])([H])C([H])(n3nc(-c4c([H])c([H])c(Oc5c([H])c([H])c(F)c([H])c5F)c([H])c4[H])c(C(=O)N([H])[H])c3N([H])[H])C2([H])[H])c1[H]

>  <smiles>  (14) 
[H]c1c(C([H])([H])Oc2c([H])c([H])c3c(c2[H])C([H])([H])N(C(=O)C([H])(N([H])C(=O)C([H])(N([H])C([H])([H])[H])C([H])([H])[H])C(C([H])([H])[H])(C([H])([H])[H])C([H])([H])[H])C([H])(C(=O)N([H])C2([H])c4c([H])c([H])c([H])c([H])c4C([H])([H])C([H])([H])C2([H])[H])C3([H])[H])nnc(C([H])([H])[N+]([H])(C([H])([H])[H])C([H])([H])C([H])([H])C([H])([H])N([H])C(=O)N2C([H])([H])C([H])([H])C([H])([H])C([H])(n3nc(-c4c([H])c([H])c(Oc5c([H])c([H])c(F)c([H])c5F)c([H])c4[H])c(C(=O)N([H])[H])c3N([H])[H])C2([H])[H])c1[H]

$$$$
15:0:0
     RDKit          3D

 95103  0  0  1  0  0  0  0  0999 V2000
  -27.4160  -21.6510   20.2760 C   0  0  0  0  0  3  0  0  0  0  0  0
  -28.6490  -21.2050   20.7830 C   0  0  0  0  0  0  0  0  0  0  0  0
  -29.7300  -22.0990   20.6420 C   0  0  0  0  0  0  0  0  0  0  0  0
  -28.3470  -23.6490   19.6600 C   0  0  0  0  0  0  0  0  0  0  0  0
  -31.1230  -21.8040   21.1670 C   0  0  0  0  0  1  0  0  0  0  0  0
  -27.2690  -22.8760   19.7390 N   0  0  0  0  0  0  0  0  0  0  0  0
  -29.5670  -23.3060   20.0650 N   0  0  0  0  0  0  0  0  0  0  0  0
  -28.7260  -19.8920   21.5760 C   0  0  0  0  0  2  0  0  0  0  0  0
  -29.9780  -19.1090   21.4490 N   0  0  0  0  0  4  0  0  0  0  0  0
  -30.1080  -18.6340   22.3300 H   0  0  0  0  0  0  0  0  0  0  0  0
  -30.7690  -19.7210   21.3370 H   0  0  0  0  0  0  0  0  0  0  0  0
  -30.0040  -18.0780   20.3890 C   0  0  0  0  0  2  0  0  0  0  0  0
  -30.6500  -16.7730   20.9010 C   0  0  0  0  0  2  0  0  0  0  0  0
  -31.1250  -15.8440   19.7640 C   0  0  0  0  0  2  0  0  0  0  0  0
  -31.9230  -13.6060   19.3530 C   0  0  0  0  0  0  0  0  0  0  0  0
  -31.1890  -11.3990   18.5290 C   0  0  0  0  0  2  0  0  0  0  0  0
  -30.1530  -11.5330   17.3980 C   0  0  0  0  0  2  0  0  0  0  0  0
  -28.7320  -11.6590   17.9770 C   0  0  0  0  0  2  0  0  0  0  0  0
  -28.6350  -12.7370   19.0890 C   0  0  0  0  0  3  0  0  0  0  0  0
  -29.7650  -12.5570   20.1280 C   0  0  0  0  0  2  0  0  0  0  0  0
  -31.0570  -12.5610   19.4200 N   0  0  0  0  0  0  0  0  0  0  0  0
  -32.8880  -13.6390   18.5800 O   0  0  0  0  0  0  0  0  0  0  0  0
  -32.8010  -14.8140   21.2290 C   0  0  0  0  0  1  0  0  0  0  0  0
  -31.7260  -14.5920   20.2550 N   0  0  0  0  0  0  0  0  0  0  0  0
  -26.5070  -13.8010   20.0740 C   0  0  0  0  0  0  0  0  0  0  0  0
  -25.3540  -13.2520   20.5670 C   0  0  0  0  0  0  0  0  0  0  0  0
  -25.5190  -11.8360   20.4740 C   0  0  0  0  0  0  0  0  0  0  0  0
  -27.3160  -12.7320   19.7200 N   0  0  0  0  0  0  0  0  0  0  0  0
  -26.7290  -11.5440   20.0130 N   0  0  0  0  0  0  0  0  0  0  0  0
  -24.5760  -10.7430   20.7420 C   0  0  0  0  0  0  0  0  0  0  0  0
  -24.8770   -9.7210   21.6690 C   0  0  0  0  0  3  0  0  0  0  0  0
  -23.9470   -8.6910   21.9250 C   0  0  0  0  0  3  0  0  0  0  0  0
  -22.7010   -8.6750   21.2530 C   0  0  0  0  0  0  0  0  0  0  0  0
  -22.4160   -9.6820   20.3140 C   0  0  0  0  0  3  0  0  0  0  0  0
  -23.3450  -10.7050   20.0570 C   0  0  0  0  0  3  0  0  0  0  0  0
  -21.7470   -7.7010   21.4180 O   0  0  0  0  0  0  0  0  0  0  0  0
  -21.5790   -7.0530   22.6160 C   0  0  0  0  0  0  0  0  0  0  0  0
  -21.3090   -7.7570   23.8100 C   0  0  0  0  0  3  0  0  0  0  0  0
  -21.0730   -7.0490   25.0070 C   0  0  0  0  0  3  0  0  0  0  0  0
  -21.0980   -5.6420   25.0090 C   0  0  0  0  0  0  0  0  0  0  0  0
  -21.3600   -4.9390   23.8190 C   0  0  0  0  0  3  0  0  0  0  0  0
  -21.5960   -5.6440   22.6260 C   0  0  0  0  0  0  0  0  0  0  0  0
  -21.8280   -4.9630   21.4780 F   0  0  0  0  0  0  0  0  0  0  0  0
  -20.8630   -4.9610   26.1550 F   0  0  0  0  0  0  0  0  0  0  0  0
  -24.1250  -13.9950   21.0070 C   0  0  0  0  0  0  0  0  0  0  0  0
  -23.3950  -13.4530   21.9770 N   0  0  0  0  0  0  0  0  0  0  0  0
  -23.8300  -15.0860   20.5230 O   0  0  0  0  0  0  0  0  0  0  0  0
  -23.6470  -12.5670   22.3890 H   0  0  0  0  0  0  0  0  0  0  0  0
  -22.5720  -13.9330   22.3130 H   0  0  0  0  0  0  0  0  0  0  0  0
  -26.9260  -15.1130   19.8740 N   0  0  0  0  0  0  0  0  0  0  0  0
  -26.2760  -15.8860   19.9770 H   0  0  0  0  0  0  0  0  0  0  0  0
  -27.7370  -15.3500   19.3190 H   0  0  0  0  0  0  0  0  0  0  0  0
  -28.1370  -25.1090   19.2820 C   0  0  0  0  0  2  0  0  0  0  0  0
  -27.6760  -25.3510   17.8250 C   0  0  0  0  0  2  0  0  0  0  0  0
  -27.6210  -26.7450   17.4840 O   0  0  0  0  0  0  0  0  0  0  0  0
  -25.0810  -30.3500   23.0210 C   0  0  0  0  0  0  0  0  0  0  0  0
  -26.5520  -27.4700   17.9640 C   0  0  0  0  0  0  0  0  0  0  0  0
  -23.4350  -29.8120   21.2540 C   0  0  0  0  0  3  0  0  0  0  0  0
  -24.4050  -28.9360   19.0650 C   0  0  0  0  0  0  0  0  0  0  0  0
  -25.9090  -30.1110   20.6830 C   0  0  0  0  0  2  0  0  0  0  0  0
  -25.7040  -29.1260   19.5520 C   0  0  0  0  0  0  0  0  0  0  0  0
  -26.7810  -28.4040   18.9950 C   0  0  0  0  0  3  0  0  0  0  0  0
  -25.2370  -27.2940   17.4750 C   0  0  0  0  0  3  0  0  0  0  0  0
  -24.1660  -28.0240   18.0240 C   0  0  0  0  0  3  0  0  0  0  0  0
  -23.3090  -29.7520   19.7090 C   0  0  0  0  0  2  0  0  0  0  0  0
  -24.8390  -30.0780   21.7070 N   0  0  0  0  0  0  0  0  0  0  0  0
  -24.1550  -30.4260   23.8400 O   0  0  0  0  0  0  0  0  0  0  0  0
  -22.8340  -28.5180   21.8480 C   0  0  0  0  0  0  0  0  0  0  0  0
  -21.4990  -28.3900   21.7730 N   0  0  0  0  0  0  0  0  0  0  0  0
  -23.5620  -27.6480   22.3350 O   0  0  0  0  0  0  0  0  0  0  0  0
  -20.9740  -29.1540   21.3710 H   0  0  0  0  0  0  0  0  0  0  0  0
  -18.1780  -26.9690   21.8340 C   0  0  0  0  0  0  0  0  0  0  0  0
  -20.7170  -27.2440   22.2330 C   0  0  0  0  0  3  0  0  0  0  0  0
  -20.8920  -26.0330   21.2870 C   0  0  0  0  0  2  0  0  0  0  0  0
  -19.8230  -25.9630   20.1930 C   0  0  0  0  0  2  0  0  0  0  0  0
  -18.4260  -25.8670   20.8160 C   0  0  0  0  0  2  0  0  0  0  0  0
  -19.2550  -27.6250   22.4870 C   0  0  0  0  0  0  0  0  0  0  0  0
  -18.9720  -28.6640   23.3990 C   0  0  0  0  0  3  0  0  0  0  0  0
  -17.6440  -29.0460   23.6670 C   0  0  0  0  0  3  0  0  0  0  0  0
  -16.5810  -28.3840   23.0280 C   0  0  0  0  0  3  0  0  0  0  0  0
  -16.8490  -27.3450   22.1170 C   0  0  0  0  0  3  0  0  0  0  0  0
  -26.5270  -30.6050   23.5520 C   0  0  0  0  0  3  0  0  0  0  0  0
  -26.4840  -31.8110   24.3880 N   0  0  0  0  0  0  0  0  0  0  0  0
  -26.9900  -33.0000   24.0330 C   0  0  0  0  0  0  0  0  0  0  0  0
  -27.6110  -33.1770   22.9810 O   0  0  0  0  0  0  0  0  0  0  0  0
  -25.9420  -31.7530   25.2370 H   0  0  0  0  0  0  0  0  0  0  0  0
  -25.6880  -35.1150   24.4340 C   0  0  0  0  0  1  0  0  0  0  0  0
  -26.7700  -34.1820   24.9980 C   0  0  0  0  0  3  0  0  0  0  0  0
  -28.9900  -34.2150   26.0480 C   0  0  0  0  0  1  0  0  0  0  0  0
  -28.0010  -34.9560   25.2690 N   0  0  0  0  0  0  0  0  0  0  0  0
  -27.7840  -35.8160   25.7690 H   0  0  0  0  0  0  0  0  0  0  0  0
  -27.1170  -29.3850   24.3620 C   0  0  1  0  0  0  0  0  0  0  0  0
  -26.1850  -28.8730   25.4850 C   0  0  0  0  0  1  0  0  0  0  0  0
  -27.4140  -28.2000   23.4150 C   0  0  0  0  0  1  0  0  0  0  0  0
  -28.4660  -29.7860   25.0050 C   0  0  0  0  0  1  0  0  0  0  0  0
  1  2  2  0
  2  8  1  0
  3  2  1  0
  3  5  1  0
  4  6  2  0
  4  7  1  0
  6  1  1  0
  7  3  2  0
  9  8  1  0
  9 10  1  0
 11  9  1  0
 12 13  1  0
 12  9  1  0
 14 24  1  0
 14 13  1  0
 15 21  1  0
 15 24  1  0
 16 21  1  0
 17 18  1  0
 17 16  1  0
 19 18  1  0
 19 28  1  0
 19 20  1  0
 21 20  1  0
 22 15  2  0
 24 23  1  0
 25 26  2  0
 26 45  1  0
 27 26  1  0
 27 30  1  0
 28 29  1  0
 28 25  1  0
 29 27  2  0
 30 31  1  0
 31 32  2  0
 33 36  1  0
 33 32  1  0
 34 33  2  0
 35 34  1  0
 35 30  2  0
 36 37  1  0
 37 42  2  0
 37 38  1  0
 38 39  2  0
 39 40  1  0
 40 44  1  0
 41 40  2  0
 42 41  1  0
 43 42  1  0
 45 46  1  0
 46 49  1  0
 46 48  1  0
 47 45  2  0
 50 51  1  0
 50 25  1  0
 52 50  1  0
 53  4  1  0
 54 53  1  0
 55 54  1  0
 55 57  1  0
 56 67  2  0
 57 62  1  0
 58 66  1  0
 58 68  1  0
 59 61  1  0
 59 65  1  0
 60 66  1  0
 61 60  1  0
 62 61  2  0
 63 57  2  0
 63 64  1  0
 64 59  2  0
 65 58  1  0
 66 56  1  0
 68 70  2  0
 69 68  1  0
 71 69  1  0
 72 81  2  0
 72 77  1  0
 73 69  1  0
 73 77  1  0
 74 73  1  0
 75 76  1  0
 75 74  1  0
 76 72  1  0
 77 78  2  0
 78 79  1  0
 80 79  2  0
 81 80  1  0
 82 56  1  0
 82 92  1  0
 82 83  1  0
 83 86  1  0
 84 83  1  0
 84 88  1  0
 85 84  2  0
 88 87  1  0
 88 90  1  0
 90 91  1  0
 90 89  1  0
 92 95  1  1
 92 93  1  0
 94 92  1  0
M  ISO  4  15 100  24 100  54 101  55 101
M  END
>  <TORSDO>  (15) 
F 23

>  <SCORE>  (15) 
-6.908

>  <name>  (15) 
15

>  <ligand_id>  (15) 
15

>  <original_smiles>  (15) 
[H]c1nc(C([H])([H])C([H])([H])Oc2c([H])c([H])c3c(c2[H])C([H])([H])N(C(=O)C([H])(N([H])C(=O)C([H])(N([H])C([H])([H])[H])C([H])([H])[H])C(C([H])([H])[H])(C([H])([H])[H])C([H])([H])[H])C([H])(C(=O)N([H])C2([H])c4c([H])c([H])c([H])c([H])c4C([H])([H])C([H])([H])C2([H])[H])C3([H])[H])nc(C([H])([H])[H])c1C([H])([H])[N+]([H])([H])C([H])([H])C([H])([H])C([H])([H])N(C(=O)N1C([H])([H])C([H])([H])C([H])([H])C([H])(n2nc(-c3c([H])c([H])c(Oc4c([H])c([H])c(F)c([H])c4F)c([H])c3[H])c(C(=O)N([H])[H])c2N([H])[H])C1([H])[H])C([H])([H])[H]

>  <smiles>  (15) 
[H]c1nc(C([H])([H])C([H])([H])Oc2c([H])c([H])c3c(c2[H])C([H])([H])N(C(=O)C([H])(N([H])C(=O)C([H])(N([H])C([H])([H])[H])C([H])([H])[H])C(C([H])([H])[H])(C([H])([H])[H])C([H])([H])[H])C([H])(C(=O)N([H])C2([H])c4c([H])c([H])c([H])c([H])c4C([H])([H])C([H])([H])C2([H])[H])C3([H])[H])nc(C([H])([H])[H])c1C([H])([H])[N+]([H])([H])C([H])([H])C([H])([H])C([H])([H])N(C(=O)N1C([H])([H])C([H])([H])C([H])([H])C([H])(n2nc(-c3c([H])c([H])c(Oc4c([H])c([H])c(F)c([H])c4F)c([H])c3[H])c(C(=O)N([H])[H])c2N([H])[H])C1([H])[H])C([H])([H])[H]

$$$$
16:0:0
     RDKit          3D

 93101  0  0  1  0  0  0  0  0999 V2000
  -31.5320  -20.7970   20.8070 C   0  0  0  0  0  0  0  0  0  0  0  0
  -30.9740  -21.0980   19.5370 C   0  0  0  0  0  0  0  0  0  0  0  0
  -32.4130  -21.6620   21.6510 C   0  0  0  0  0  1  0  0  0  0  0  0
  -31.1650  -19.5920   21.1710 N   0  0  0  0  0  0  0  0  0  0  0  0
  -30.2740  -20.0670   19.1170 N   0  0  0  0  0  0  0  0  0  0  0  0
  -30.4080  -19.1660   20.1280 N   0  0  0  0  0  0  0  0  0  0  0  0
  -31.1350  -22.3730   18.7490 C   0  0  0  0  0  2  0  0  0  0  0  0
  -29.8810  -23.2690   18.7670 C   0  0  0  0  0  2  0  0  0  0  0  0
  -30.0250  -24.6210   19.5070 C   0  0  0  0  0  2  0  0  0  0  0  0
  -28.7480  -25.4510   19.3230 C   0  0  0  0  0  2  0  0  0  0  0  0
  -28.7770  -26.7670   19.8930 O   0  0  0  0  0  0  0  0  0  0  0  0
  -24.7220  -31.5970   23.2320 C   0  0  0  0  0  0  0  0  0  0  0  0
  -27.5680  -27.4440   19.9190 C   0  0  0  0  0  0  0  0  0  0  0  0
  -23.5870  -30.2420   21.5060 C   0  0  0  0  0  3  0  0  0  0  0  0
  -25.1100  -28.8560   20.0100 C   0  0  0  0  0  0  0  0  0  0  0  0
  -26.1000  -30.7140   21.3500 C   0  0  0  0  0  2  0  0  0  0  0  0
  -26.2450  -29.3870   20.6340 C   0  0  0  0  0  0  0  0  0  0  0  0
  -27.4750  -28.6870   20.5880 C   0  0  0  0  0  3  0  0  0  0  0  0
  -26.4000  -26.9320   19.2970 C   0  0  0  0  0  3  0  0  0  0  0  0
  -25.1820  -27.6260   19.3410 C   0  0  0  0  0  3  0  0  0  0  0  0
  -23.8330  -29.6590   20.0910 C   0  0  0  0  0  2  0  0  0  0  0  0
  -24.8210  -30.8630   22.0880 N   0  0  0  0  0  0  0  0  0  0  0  0
  -23.6260  -31.7920   23.7760 O   0  0  0  0  0  0  0  0  0  0  0  0
  -22.9780  -29.1370   22.3990 C   0  0  0  0  0  0  0  0  0  0  0  0
  -21.6700  -28.8860   22.2290 N   0  0  0  0  0  0  0  0  0  0  0  0
  -23.6780  -28.5100   23.2000 O   0  0  0  0  0  0  0  0  0  0  0  0
  -21.1650  -29.4480   21.5580 H   0  0  0  0  0  0  0  0  0  0  0  0
  -18.3620  -27.4720   22.5700 C   0  0  0  0  0  0  0  0  0  0  0  0
  -20.8900  -27.8720   22.9350 C   0  0  0  0  0  3  0  0  0  0  0  0
  -21.0960  -26.4750   22.3070 C   0  0  0  0  0  2  0  0  0  0  0  0
  -20.0450  -26.1280   21.2470 C   0  0  0  0  0  2  0  0  0  0  0  0
  -18.6390  -26.1630   21.8500 C   0  0  0  0  0  2  0  0  0  0  0  0
  -19.4190  -28.2810   23.0660 C   0  0  0  0  0  0  0  0  0  0  0  0
  -19.1060  -29.5040   23.6970 C   0  0  0  0  0  3  0  0  0  0  0  0
  -17.7690  -29.9210   23.8400 C   0  0  0  0  0  3  0  0  0  0  0  0
  -16.7260  -29.1090   23.3590 C   0  0  0  0  0  3  0  0  0  0  0  0
  -17.0230  -27.8870   22.7300 C   0  0  0  0  0  3  0  0  0  0  0  0
  -25.9750  -32.2460   23.8960 C   0  0  0  0  0  3  0  0  0  0  0  0
  -25.6130  -33.6180   24.2750 N   0  0  0  0  0  0  0  0  0  0  0  0
  -25.9230  -34.7100   23.5630 C   0  0  0  0  0  0  0  0  0  0  0  0
  -26.6170  -34.6690   22.5440 O   0  0  0  0  0  0  0  0  0  0  0  0
  -24.9970  -33.7190   25.0680 H   0  0  0  0  0  0  0  0  0  0  0  0
  -24.1450  -36.4570   23.2280 C   0  0  0  0  0  1  0  0  0  0  0  0
  -25.3750  -36.0610   24.0600 C   0  0  0  0  0  3  0  0  0  0  0  0
  -27.4540  -36.9790   24.9900 C   0  0  0  0  0  1  0  0  0  0  0  0
  -26.3750  -37.1510   24.0210 N   0  0  0  0  0  0  0  0  0  0  0  0
  -25.9350  -38.0520   24.1880 H   0  0  0  0  0  0  0  0  0  0  0  0
  -26.5000  -31.4420   25.1480 C   0  0  1  0  0  0  0  0  0  0  0  0
  -25.3960  -31.0930   26.1730 C   0  0  0  0  0  1  0  0  0  0  0  0
  -27.1690  -30.1190   24.7040 C   0  0  0  0  0  1  0  0  0  0  0  0
  -27.5850  -32.2650   25.8800 C   0  0  0  0  0  1  0  0  0  0  0  0
  -29.7950  -17.8400   20.1200 C   0  0  0  0  0  2  0  0  0  0  0  0
  -30.8240  -16.7480   19.7500 C   0  0  0  0  0  2  0  0  0  0  0  0
  -30.8440  -14.3780   19.3190 C   0  0  0  0  0  0  0  0  0  0  0  0
  -30.2410  -12.2810   18.1520 C   0  0  0  0  0  2  0  0  0  0  0  0
  -29.1180  -12.5130   17.1220 C   0  0  0  0  0  2  0  0  0  0  0  0
  -27.7400  -12.3530   17.7880 C   0  0  0  0  0  2  0  0  0  0  0  0
  -27.6210  -13.1700   19.1000 C   0  0  0  0  0  3  0  0  0  0  0  0
  -28.8480  -12.9550   20.0080 C   0  0  0  0  0  2  0  0  0  0  0  0
  -30.0700  -13.2540   19.2480 N   0  0  0  0  0  0  0  0  0  0  0  0
  -31.7520  -14.5700   18.5010 O   0  0  0  0  0  0  0  0  0  0  0  0
  -30.5320  -15.3590   20.2200 N   0  0  0  0  0  0  0  0  0  0  0  0
  -25.4120  -13.7430   20.2890 C   0  0  0  0  0  0  0  0  0  0  0  0
  -24.4130  -12.9550   20.7960 C   0  0  0  0  0  0  0  0  0  0  0  0
  -24.8310  -11.6040   20.5870 C   0  0  0  0  0  0  0  0  0  0  0  0
  -26.3760  -12.8710   19.8050 N   0  0  0  0  0  0  0  0  0  0  0  0
  -26.0400  -11.5770   20.0410 N   0  0  0  0  0  0  0  0  0  0  0  0
  -24.1230  -10.3380   20.8230 C   0  0  0  0  0  0  0  0  0  0  0  0
  -24.6050   -9.3830   21.7450 C   0  0  0  0  0  3  0  0  0  0  0  0
  -23.8980   -8.1830   21.9690 C   0  0  0  0  0  3  0  0  0  0  0  0
  -22.6930   -7.9290   21.2720 C   0  0  0  0  0  0  0  0  0  0  0  0
  -22.2290   -8.8720   20.3390 C   0  0  0  0  0  3  0  0  0  0  0  0
  -22.9370  -10.0650   20.1110 C   0  0  0  0  0  3  0  0  0  0  0  0
  -21.9530   -6.7790   21.4050 O   0  0  0  0  0  0  0  0  0  0  0  0
  -21.8580   -6.1180   22.6030 C   0  0  0  0  0  0  0  0  0  0  0  0
  -21.3910   -6.7570   23.7720 C   0  0  0  0  0  3  0  0  0  0  0  0
  -21.2430   -6.0230   24.9650 C   0  0  0  0  0  3  0  0  0  0  0  0
  -21.5530   -4.6500   24.9910 C   0  0  0  0  0  0  0  0  0  0  0  0
  -22.0130   -4.0100   23.8260 C   0  0  0  0  0  3  0  0  0  0  0  0
  -22.1640   -4.7420   22.6350 C   0  0  0  0  0  0  0  0  0  0  0  0
  -22.5870   -4.1170   21.5100 F   0  0  0  0  0  0  0  0  0  0  0  0
  -21.4050   -3.9410   26.1330 F   0  0  0  0  0  0  0  0  0  0  0  0
  -23.1010  -13.4250   21.3550 C   0  0  0  0  0  0  0  0  0  0  0  0
  -22.5580  -12.7060   22.3320 N   0  0  0  0  0  0  0  0  0  0  0  0
  -22.5730  -14.4620   20.9590 O   0  0  0  0  0  0  0  0  0  0  0  0
  -23.0020  -11.8660   22.6710 H   0  0  0  0  0  0  0  0  0  0  0  0
  -21.6880  -13.0030   22.7500 H   0  0  0  0  0  0  0  0  0  0  0  0
  -25.5680  -15.1210   20.1810 N   0  0  0  0  0  0  0  0  0  0  0  0
  -24.8520  -15.7700   20.4860 H   0  0  0  0  0  0  0  0  0  0  0  0
  -26.3560  -15.5790   19.7410 H   0  0  0  0  0  0  0  0  0  0  0  0
  -29.5410  -15.3560   22.5520 C   0  0  0  0  0  1  0  0  0  0  0  0
  -31.6200  -13.9720   22.0980 C   0  0  0  0  0  1  0  0  0  0  0  0
  -30.8110  -15.2220   21.6830 C   0  0  0  0  0  3  0  0  0  0  0  0
  1  4  2  0
  1  3  1  0
  2  1  1  0
  5  2  2  0
  5  6  1  0
  6  4  1  0
  7  8  1  0
  7  2  1  0
  8  9  1  0
 10  9  1  0
 10 11  1  0
 11 13  1  0
 12 23  2  0
 13 18  1  0
 14 22  1  0
 14 24  1  0
 15 21  1  0
 15 17  1  0
 16 22  1  0
 17 16  1  0
 18 17  2  0
 19 20  1  0
 19 13  2  0
 20 15  2  0
 21 14  1  0
 22 12  1  0
 24 26  2  0
 25 24  1  0
 27 25  1  0
 28 37  2  0
 28 33  1  0
 29 25  1  0
 29 33  1  0
 30 29  1  0
 31 32  1  0
 31 30  1  0
 32 28  1  0
 33 34  2  0
 34 35  1  0
 36 35  2  0
 37 36  1  0
 38 12  1  0
 38 39  1  0
 38 48  1  0
 39 42  1  0
 40 44  1  0
 40 39  1  0
 41 40  2  0
 44 43  1  0
 46 44  1  0
 46 47  1  0
 46 45  1  0
 48 51  1  1
 48 49  1  0
 50 48  1  0
 52  6  1  0
 53 52  1  0
 53 62  1  0
 54 62  1  0
 55 60  1  0
 56 57  1  0
 56 55  1  0
 58 57  1  0
 58 66  1  0
 58 59  1  0
 60 54  1  0
 60 59  1  0
 61 54  2  0
 62 93  1  0
 63 64  2  0
 64 83  1  0
 65 64  1  0
 65 68  1  0
 66 67  1  0
 66 63  1  0
 67 65  2  0
 68 69  1  0
 69 70  2  0
 71 74  1  0
 71 70  1  0
 72 71  2  0
 73 72  1  0
 73 68  2  0
 74 75  1  0
 75 80  2  0
 75 76  1  0
 76 77  2  0
 77 78  1  0
 78 82  1  0
 79 78  2  0
 80 79  1  0
 81 80  1  0
 83 84  1  0
 84 86  1  0
 84 87  1  0
 85 83  2  0
 88 63  1  0
 88 89  1  0
 90 88  1  0
 93 92  1  0
 93 91  1  0
M  ISO  4  10 101  11 101  54 100  62 100
M  END
>  <TORSDO>  (16) 
F 23

>  <SCORE>  (16) 
-8.034

>  <name>  (16) 
16

>  <ligand_id>  (16) 
16

>  <original_smiles>  (16) 
[H]c1c([H])c([H])c2c(c1[H])C([H])([H])C([H])([H])C([H])([H])C2([H])N([H])C(=O)C1([H])N(C(=O)C([H])(N([H])C(=O)C([H])(N([H])C([H])([H])[H])C([H])([H])[H])C(C([H])([H])[H])(C([H])([H])[H])C([H])([H])[H])C([H])([H])c2c([H])c(OC([H])([H])C([H])([H])C([H])([H])C([H])([H])c3nn(C([H])([H])C([H])([H])N(C(=O)N4C([H])([H])C([H])([H])C([H])([H])C([H])(n5nc(-c6c([H])c([H])c(Oc7c([H])c([H])c(F)c([H])c7F)c([H])c6[H])c(C(=O)N([H])[H])c5N([H])[H])C4([H])[H])C([H])(C([H])([H])[H])C([H])([H])[H])nc3C([H])([H])[H])c([H])c([H])c2C1([H])[H]

>  <smiles>  (16) 
[H]c1c([H])c([H])c2c(c1[H])C([H])([H])C([H])([H])C([H])([H])C2([H])N([H])C(=O)C1([H])N(C(=O)C([H])(N([H])C(=O)C([H])(N([H])C([H])([H])[H])C([H])([H])[H])C(C([H])([H])[H])(C([H])([H])[H])C([H])([H])[H])C([H])([H])c2c([H])c(OC([H])([H])C([H])([H])C([H])([H])C([H])([H])c3nn(C([H])([H])C([H])([H])N(C(=O)N4C([H])([H])C([H])([H])C([H])([H])C([H])(n5nc(-c6c([H])c([H])c(Oc7c([H])c([H])c(F)c([H])c7F)c([H])c6[H])c(C(=O)N([H])[H])c5N([H])[H])C4([H])[H])C([H])(C([H])([H])[H])C([H])([H])[H])nc3C([H])([H])[H])c([H])c([H])c2C1([H])[H]

$$$$
17:0:0
     RDKit          3D

 93101  0  0  1  0  0  0  0  0999 V2000
  -25.9520  -23.0890   20.6010 N   0  0  0  0  0  4  0  0  0  0  0  0
  -24.9960  -23.1890   20.9070 H   0  0  0  0  0  0  0  0  0  0  0  0
  -25.9240  -23.0910   19.5940 H   0  0  0  0  0  0  0  0  0  0  0  0
  -26.3940  -21.7740   21.1170 C   0  0  0  0  0  2  0  0  0  0  0  0
  -27.3870  -21.0520   20.1840 C   0  0  0  0  0  2  0  0  0  0  0  0
  -27.8610  -19.6880   20.7230 C   0  0  0  0  0  2  0  0  0  0  0  0
  -28.8120  -18.9810   19.7390 C   0  0  0  0  0  2  0  0  0  0  0  0
  -29.9490  -17.5290   21.5340 C   0  0  0  0  0  3  0  0  0  0  0  0
  -30.5770  -16.3120   21.5060 C   0  0  0  0  0  0  0  0  0  0  0  0
  -30.4290  -15.8910   20.1460 C   0  0  0  0  0  0  0  0  0  0  0  0
  -31.2870  -15.6350   22.6480 C   0  0  0  0  0  1  0  0  0  0  0  0
  -29.7620  -16.7840   19.4210 N   0  0  0  0  0  0  0  0  0  0  0  0
  -29.4560  -17.7860   20.2700 N   0  0  0  0  0  0  0  0  0  0  0  0
  -31.0820  -14.6480   19.5880 C   0  0  0  0  0  0  0  0  0  0  0  0
  -30.6000  -12.5040   18.4950 C   0  0  0  0  0  2  0  0  0  0  0  0
  -29.5590  -12.7630   17.3850 C   0  0  0  0  0  2  0  0  0  0  0  0
  -28.1290  -12.6750   17.9520 C   0  0  0  0  0  2  0  0  0  0  0  0
  -27.9400  -13.5300   19.2330 C   0  0  0  0  0  3  0  0  0  0  0  0
  -29.0830  -13.2690   20.2390 C   0  0  0  0  0  2  0  0  0  0  0  0
  -30.3660  -13.4970   19.5550 N   0  0  0  0  0  0  0  0  0  0  0  0
  -32.1630  -14.7920   19.0050 O   0  0  0  0  0  0  0  0  0  0  0  0
  -25.6620  -14.2140   20.2210 C   0  0  0  0  0  0  0  0  0  0  0  0
  -24.6030  -13.4740   20.6760 C   0  0  0  0  0  0  0  0  0  0  0  0
  -24.9920  -12.1060   20.5430 C   0  0  0  0  0  0  0  0  0  0  0  0
  -26.6310  -13.2970   19.8420 N   0  0  0  0  0  0  0  0  0  0  0  0
  -26.2370  -12.0220   20.0940 N   0  0  0  0  0  0  0  0  0  0  0  0
  -24.2300  -10.8700   20.7620 C   0  0  0  0  0  0  0  0  0  0  0  0
  -24.6540   -9.8960   21.6930 C   0  0  0  0  0  3  0  0  0  0  0  0
  -23.8970   -8.7240   21.8970 C   0  0  0  0  0  3  0  0  0  0  0  0
  -22.6990   -8.5160   21.1730 C   0  0  0  0  0  0  0  0  0  0  0  0
  -22.2920   -9.4790   20.2320 C   0  0  0  0  0  3  0  0  0  0  0  0
  -23.0500  -10.6430   20.0250 C   0  0  0  0  0  3  0  0  0  0  0  0
  -21.9110   -7.3960   21.2900 O   0  0  0  0  0  0  0  0  0  0  0  0
  -21.7980   -6.7140   22.4750 C   0  0  0  0  0  0  0  0  0  0  0  0
  -21.3670   -7.3470   23.6610 C   0  0  0  0  0  3  0  0  0  0  0  0
  -21.2000   -6.5950   24.8410 C   0  0  0  0  0  3  0  0  0  0  0  0
  -21.4530   -5.2100   24.8350 C   0  0  0  0  0  0  0  0  0  0  0  0
  -21.8750   -4.5760   23.6540 C   0  0  0  0  0  3  0  0  0  0  0  0
  -22.0450   -5.3260   22.4770 C   0  0  0  0  0  0  0  0  0  0  0  0
  -22.4340   -4.7070   21.3360 F   0  0  0  0  0  0  0  0  0  0  0  0
  -21.2830   -4.4860   25.9660 F   0  0  0  0  0  0  0  0  0  0  0  0
  -23.2640  -13.9980   21.1140 C   0  0  0  0  0  0  0  0  0  0  0  0
  -22.6240  -13.3270   22.0660 N   0  0  0  0  0  0  0  0  0  0  0  0
  -22.8020  -15.0360   20.6420 O   0  0  0  0  0  0  0  0  0  0  0  0
  -23.0160  -12.4870   22.4660 H   0  0  0  0  0  0  0  0  0  0  0  0
  -21.7270  -13.6510   22.4020 H   0  0  0  0  0  0  0  0  0  0  0  0
  -25.8790  -15.5800   20.0780 N   0  0  0  0  0  0  0  0  0  0  0  0
  -26.7220  -15.9820   19.6840 H   0  0  0  0  0  0  0  0  0  0  0  0
  -25.1970  -16.2760   20.3550 H   0  0  0  0  0  0  0  0  0  0  0  0
  -26.6670  -24.2820   21.1160 C   0  0  0  0  0  2  0  0  0  0  0  0
  -27.9780  -24.5940   20.3600 C   0  0  0  0  0  2  0  0  0  0  0  0
  -28.6220  -25.9420   20.7450 C   0  0  0  0  0  2  0  0  0  0  0  0
  -28.4520  -26.9430   19.7420 O   0  0  0  0  0  0  0  0  0  0  0  0
  -24.6070  -31.8610   23.1490 C   0  0  0  0  0  0  0  0  0  0  0  0
  -27.2770  -27.6390   19.8210 C   0  0  0  0  0  0  0  0  0  0  0  0
  -23.3970  -30.5160   21.4580 C   0  0  0  0  0  3  0  0  0  0  0  0
  -24.8550  -29.0720   19.9460 C   0  0  0  0  0  0  0  0  0  0  0  0
  -25.9150  -30.9300   21.2470 C   0  0  0  0  0  2  0  0  0  0  0  0
  -26.0100  -29.5950   20.5440 C   0  0  0  0  0  0  0  0  0  0  0  0
  -27.2260  -28.8820   20.4850 C   0  0  0  0  0  3  0  0  0  0  0  0
  -26.1160  -27.1340   19.2010 C   0  0  0  0  0  3  0  0  0  0  0  0
  -24.8990  -27.8370   19.2760 C   0  0  0  0  0  3  0  0  0  0  0  0
  -23.5980  -29.9040   20.0460 C   0  0  0  0  0  2  0  0  0  0  0  0
  -24.6570  -31.1160   22.0080 N   0  0  0  0  0  0  0  0  0  0  0  0
  -23.5310  -32.0890   23.7160 O   0  0  0  0  0  0  0  0  0  0  0  0
  -22.7830  -29.4400   22.3790 C   0  0  0  0  0  0  0  0  0  0  0  0
  -21.4590  -29.2460   22.2710 N   0  0  0  0  0  0  0  0  0  0  0  0
  -23.4920  -28.7850   23.1470 O   0  0  0  0  0  0  0  0  0  0  0  0
  -20.9460  -29.8290   21.6260 H   0  0  0  0  0  0  0  0  0  0  0  0
  -18.1150  -27.9860   22.7710 C   0  0  0  0  0  0  0  0  0  0  0  0
  -20.6730  -28.2630   23.0160 C   0  0  0  0  0  3  0  0  0  0  0  0
  -20.7810  -26.8610   22.3750 C   0  0  0  0  0  2  0  0  0  0  0  0
  -19.6750  -26.5830   21.3520 C   0  0  0  0  0  2  0  0  0  0  0  0
  -18.2960  -26.6810   22.0100 C   0  0  0  0  0  2  0  0  0  0  0  0
  -19.2320  -28.7390   23.2230 C   0  0  0  0  0  0  0  0  0  0  0  0
  -19.0080  -29.9700   23.8790 C   0  0  0  0  0  3  0  0  0  0  0  0
  -17.7000  -30.4480   24.0850 C   0  0  0  0  0  3  0  0  0  0  0  0
  -16.5990  -29.6870   23.6550 C   0  0  0  0  0  3  0  0  0  0  0  0
  -16.8080  -28.4570   23.0050 C   0  0  0  0  0  3  0  0  0  0  0  0
  -25.8940  -32.4820   23.7790 C   0  0  0  0  0  3  0  0  0  0  0  0
  -25.5780  -33.8670   24.1510 N   0  0  0  0  0  0  0  0  0  0  0  0
  -25.9020  -34.9440   23.4240 C   0  0  0  0  0  0  0  0  0  0  0  0
  -26.5710  -34.8770   22.3880 O   0  0  0  0  0  0  0  0  0  0  0  0
  -24.9900  -33.9960   24.9610 H   0  0  0  0  0  0  0  0  0  0  0  0
  -24.1640  -36.7340   23.1190 C   0  0  0  0  0  1  0  0  0  0  0  0
  -25.4050  -36.3130   23.9220 C   0  0  0  0  0  3  0  0  0  0  0  0
  -27.5320  -37.1830   24.7850 C   0  0  0  0  0  1  0  0  0  0  0  0
  -26.4310  -37.3740   23.8440 N   0  0  0  0  0  0  0  0  0  0  0  0
  -26.0200  -38.2870   24.0190 H   0  0  0  0  0  0  0  0  0  0  0  0
  -26.4320  -31.6770   25.0250 C   0  0  1  0  0  0  0  0  0  0  0  0
  -25.3530  -31.3990   26.0970 C   0  0  0  0  0  1  0  0  0  0  0  0
  -27.0250  -30.3180   24.5840 C   0  0  0  0  0  1  0  0  0  0  0  0
  -27.5850  -32.4590   25.6990 C   0  0  0  0  0  1  0  0  0  0  0  0
  1  2  1  0
  1 50  1  0
  1  4  1  0
  3  1  1  0
  5  6  1  0
  5  4  1  0
  7 13  1  0
  7  6  1  0
  9  8  2  0
  9 11  1  0
 10  9  1  0
 12 10  2  0
 12 13  1  0
 13  8  1  0
 14 10  1  0
 15 20  1  0
 16 17  1  0
 16 15  1  0
 18 17  1  0
 18 25  1  0
 18 19  1  0
 20 14  1  0
 20 19  1  0
 21 14  2  0
 22 23  2  0
 23 42  1  0
 24 23  1  0
 24 27  1  0
 25 26  1  0
 25 22  1  0
 26 24  2  0
 27 28  1  0
 28 29  2  0
 30 33  1  0
 30 29  1  0
 31 30  2  0
 32 31  1  0
 32 27  2  0
 33 34  1  0
 34 39  2  0
 34 35  1  0
 35 36  2  0
 37 36  1  0
 37 41  1  0
 38 37  2  0
 39 38  1  0
 40 39  1  0
 42 43  1  0
 43 46  1  0
 43 45  1  0
 44 42  2  0
 47 22  1  0
 47 49  1  0
 48 47  1  0
 51 52  1  0
 51 50  1  0
 53 55  1  0
 53 52  1  0
 54 65  2  0
 55 60  1  0
 56 64  1  0
 56 66  1  0
 57 63  1  0
 57 59  1  0
 58 64  1  0
 59 58  1  0
 60 59  2  0
 61 62  1  0
 61 55  2  0
 62 57  2  0
 63 56  1  0
 64 54  1  0
 66 68  2  0
 67 66  1  0
 69 67  1  0
 70 79  2  0
 70 75  1  0
 71 67  1  0
 71 75  1  0
 72 71  1  0
 73 74  1  0
 73 72  1  0
 74 70  1  0
 75 76  2  0
 76 77  1  0
 78 77  2  0
 79 78  1  0
 80 54  1  0
 80 81  1  0
 80 90  1  0
 81 84  1  0
 82 86  1  0
 82 81  1  0
 83 82  2  0
 86 85  1  0
 88 86  1  0
 88 89  1  0
 88 87  1  0
 90 93  1  1
 90 91  1  0
 92 90  1  0
M  ISO  4  10 100  14 100  52 101  53 101
M  END
>  <TORSDO>  (17) 
F 24

>  <SCORE>  (17) 
-8.951

>  <name>  (17) 
17

>  <ligand_id>  (17) 
17

>  <original_smiles>  (17) 
[H]c1c([H])c([H])c2c(c1[H])C([H])([H])C([H])([H])C([H])([H])C2([H])N([H])C(=O)C1([H])N(C(=O)C([H])(N([H])C(=O)C([H])(N([H])C([H])([H])[H])C([H])([H])[H])C(C([H])([H])[H])(C([H])([H])[H])C([H])([H])[H])C([H])([H])c2c([H])c(OC([H])([H])C([H])([H])C([H])([H])[N+]([H])([H])C([H])([H])C([H])([H])C([H])([H])C([H])([H])n3nc(C(=O)N4C([H])([H])C([H])([H])C([H])([H])C([H])(n5nc(-c6c([H])c([H])c(Oc7c([H])c([H])c(F)c([H])c7F)c([H])c6[H])c(C(=O)N([H])[H])c5N([H])[H])C4([H])[H])c(C([H])([H])[H])c3[H])c([H])c([H])c2C1([H])[H]

>  <smiles>  (17) 
[H]c1c([H])c([H])c2c(c1[H])C([H])([H])C([H])([H])C([H])([H])C2([H])N([H])C(=O)C1([H])N(C(=O)C([H])(N([H])C(=O)C([H])(N([H])C([H])([H])[H])C([H])([H])[H])C(C([H])([H])[H])(C([H])([H])[H])C([H])([H])[H])C([H])([H])c2c([H])c(OC([H])([H])C([H])([H])C([H])([H])[N+]([H])([H])C([H])([H])C([H])([H])C([H])([H])C([H])([H])n3nc(C(=O)N4C([H])([H])C([H])([H])C([H])([H])C([H])(n5nc(-c6c([H])c([H])c(Oc7c([H])c([H])c(F)c([H])c7F)c([H])c6[H])c(C(=O)N([H])[H])c5N([H])[H])C4([H])[H])c(C([H])([H])[H])c3[H])c([H])c([H])c2C1([H])[H]

$$$$
18:0:0
     RDKit          3D

 92100  0  0  1  0  0  0  0  0999 V2000
  -28.7560  -20.7470   21.1200 C   0  0  0  0  0  0  0  0  0  0  0  0
  -28.7010  -23.0630   21.0750 C   0  0  0  0  0  0  0  0  0  0  0  0
  -29.3840  -20.7090   19.8450 C   0  0  0  0  0  0  0  0  0  0  0  0
  -29.2910  -23.0810   19.7810 C   0  0  0  0  0  0  0  0  0  0  0  0
  -28.3400  -19.5040   21.8880 C   0  0  0  0  0  1  0  0  0  0  0  0
  -28.2980  -24.3160   21.8340 C   0  0  0  0  0  1  0  0  0  0  0  0
  -28.4380  -21.9100   21.7280 N   0  0  0  0  0  0  0  0  0  0  0  0
  -29.6430  -21.8900   19.1800 N   0  0  0  0  0  0  0  0  0  0  0  0
  -29.6450  -19.3510   19.1220 C   0  0  0  0  0  2  0  0  0  0  0  0
  -30.9700  -18.5470   19.3930 C   0  0  0  0  0  2  0  0  0  0  0  0
  -31.0510  -17.4310   20.5040 C   0  0  0  0  0  2  0  0  0  0  0  0
  -31.2550  -14.9570   19.8630 C   0  0  0  0  0  0  0  0  0  0  0  0
  -30.9410  -12.6670   18.9640 C   0  0  0  0  0  2  0  0  0  0  0  0
  -29.9530  -12.7140   17.7790 C   0  0  0  0  0  2  0  0  0  0  0  0
  -28.4960  -12.6250   18.2760 C   0  0  0  0  0  2  0  0  0  0  0  0
  -28.1990  -13.5990   19.4460 C   0  0  0  0  0  3  0  0  0  0  0  0
  -29.2940  -13.5110   20.5320 C   0  0  0  0  0  2  0  0  0  0  0  0
  -30.5850  -13.7670   19.8760 N   0  0  0  0  0  0  0  0  0  0  0  0
  -32.4030  -15.0560   19.4220 O   0  0  0  0  0  0  0  0  0  0  0  0
  -30.5410  -16.0580   20.2180 N   0  0  0  0  0  0  0  0  0  0  0  0
  -29.5820  -15.8790   20.4790 H   0  0  0  0  0  0  0  0  0  0  0  0
  -25.9010  -14.3210   20.3440 C   0  0  0  0  0  0  0  0  0  0  0  0
  -24.8050  -13.6010   20.7390 C   0  0  0  0  0  0  0  0  0  0  0  0
  -25.1670  -12.2260   20.6090 C   0  0  0  0  0  0  0  0  0  0  0  0
  -26.8650  -13.3850   20.0000 N   0  0  0  0  0  0  0  0  0  0  0  0
  -26.4310  -12.1160   20.2180 N   0  0  0  0  0  0  0  0  0  0  0  0
  -24.3650  -11.0060   20.7760 C   0  0  0  0  0  0  0  0  0  0  0  0
  -24.7480   -9.9900   21.6790 C   0  0  0  0  0  3  0  0  0  0  0  0
  -23.9500   -8.8350   21.8350 C   0  0  0  0  0  3  0  0  0  0  0  0
  -22.7550   -8.6910   21.0900 C   0  0  0  0  0  0  0  0  0  0  0  0
  -22.3920   -9.6960   20.1760 C   0  0  0  0  0  3  0  0  0  0  0  0
  -23.1900  -10.8420   20.0170 C   0  0  0  0  0  3  0  0  0  0  0  0
  -21.9320   -7.5930   21.1580 O   0  0  0  0  0  0  0  0  0  0  0  0
  -21.7950   -6.8670   22.3140 C   0  0  0  0  0  0  0  0  0  0  0  0
  -21.3260   -7.4520   23.5100 C   0  0  0  0  0  3  0  0  0  0  0  0
  -21.1340   -6.6540   24.6560 C   0  0  0  0  0  3  0  0  0  0  0  0
  -21.4000   -5.2730   24.6060 C   0  0  0  0  0  0  0  0  0  0  0  0
  -21.8620   -4.6880   23.4140 C   0  0  0  0  0  3  0  0  0  0  0  0
  -22.0560   -5.4830   22.2700 C   0  0  0  0  0  0  0  0  0  0  0  0
  -22.4800   -4.9100   21.1180 F   0  0  0  0  0  0  0  0  0  0  0  0
  -21.2090   -4.5040   25.7030 F   0  0  0  0  0  0  0  0  0  0  0  0
  -23.4630  -14.1560   21.1210 C   0  0  0  0  0  0  0  0  0  0  0  0
  -22.7440  -13.4680   22.0020 N   0  0  0  0  0  0  0  0  0  0  0  0
  -23.0650  -15.2310   20.6760 O   0  0  0  0  0  0  0  0  0  0  0  0
  -23.0800  -12.5960   22.3830 H   0  0  0  0  0  0  0  0  0  0  0  0
  -21.8450  -13.8200   22.3000 H   0  0  0  0  0  0  0  0  0  0  0  0
  -26.1510  -15.6840   20.2260 N   0  0  0  0  0  0  0  0  0  0  0  0
  -25.4330  -16.3790   20.4010 H   0  0  0  0  0  0  0  0  0  0  0  0
  -26.9960  -16.0790   19.8330 H   0  0  0  0  0  0  0  0  0  0  0  0
  -29.5920  -24.4410   19.0740 C   0  0  0  0  0  2  0  0  0  0  0  0
  -28.3560  -25.3330   18.6790 C   0  0  0  0  0  2  0  0  0  0  0  0
  -28.4740  -26.7930   18.8220 O   0  0  0  0  0  0  0  0  0  0  0  0
  -24.5610  -31.2730   22.8590 C   0  0  0  0  0  0  0  0  0  0  0  0
  -27.2810  -27.5090   18.9720 C   0  0  0  0  0  0  0  0  0  0  0  0
  -23.3440  -30.0250   21.1100 C   0  0  0  0  0  3  0  0  0  0  0  0
  -24.7950  -28.8500   19.3670 C   0  0  0  0  0  0  0  0  0  0  0  0
  -25.8190  -30.6160   20.8010 C   0  0  0  0  0  2  0  0  0  0  0  0
  -25.9610  -29.3620   19.9490 C   0  0  0  0  0  0  0  0  0  0  0  0
  -27.2070  -28.7060   19.7420 C   0  0  0  0  0  3  0  0  0  0  0  0
  -26.0840  -27.0430   18.3780 C   0  0  0  0  0  3  0  0  0  0  0  0
  -24.8560  -27.6970   18.5740 C   0  0  0  0  0  3  0  0  0  0  0  0
  -23.4970  -29.5840   19.6320 C   0  0  0  0  0  2  0  0  0  0  0  0
  -24.5970  -30.6460   21.6480 N   0  0  0  0  0  0  0  0  0  0  0  0
  -23.5080  -31.3640   23.5060 O   0  0  0  0  0  0  0  0  0  0  0  0
  -22.8500  -28.8190   21.9440 C   0  0  0  0  0  0  0  0  0  0  0  0
  -21.5480  -28.5040   21.8350 N   0  0  0  0  0  0  0  0  0  0  0  0
  -23.6330  -28.1750   22.6470 O   0  0  0  0  0  0  0  0  0  0  0  0
  -20.9690  -29.0870   21.2470 H   0  0  0  0  0  0  0  0  0  0  0  0
  -18.3630  -26.8400   22.2360 C   0  0  0  0  0  0  0  0  0  0  0  0
  -20.8770  -27.3870   22.4990 C   0  0  0  0  0  3  0  0  0  0  0  0
  -21.1370  -26.0570   21.7550 C   0  0  0  0  0  2  0  0  0  0  0  0
  -20.0550  -25.7190   20.7250 C   0  0  0  0  0  2  0  0  0  0  0  0
  -18.6850  -25.6120   21.4030 C   0  0  0  0  0  2  0  0  0  0  0  0
  -19.3910  -27.6810   22.7380 C   0  0  0  0  0  0  0  0  0  0  0  0
  -19.0350  -28.8290   23.4800 C   0  0  0  0  0  3  0  0  0  0  0  0
  -17.6840  -29.1390   23.7240 C   0  0  0  0  0  3  0  0  0  0  0  0
  -16.6710  -28.2930   23.2370 C   0  0  0  0  0  3  0  0  0  0  0  0
  -17.0110  -27.1470   22.4980 C   0  0  0  0  0  3  0  0  0  0  0  0
  -25.8350  -31.9240   23.4790 C   0  0  0  0  0  3  0  0  0  0  0  0
  -25.4580  -33.2550   23.9730 N   0  0  0  0  0  0  0  0  0  0  0  0
  -25.6930  -34.4030   23.3260 C   0  0  0  0  0  0  0  0  0  0  0  0
  -26.3230  -34.4570   22.2660 O   0  0  0  0  0  0  0  0  0  0  0  0
  -24.8870  -33.2790   24.8050 H   0  0  0  0  0  0  0  0  0  0  0  0
  -23.8410  -36.1050   23.2440 C   0  0  0  0  0  1  0  0  0  0  0  0
  -25.1430  -35.6990   23.9530 C   0  0  0  0  0  3  0  0  0  0  0  0
  -27.2520  -36.6370   24.7920 C   0  0  0  0  0  1  0  0  0  0  0  0
  -26.1000  -36.8260   23.9130 N   0  0  0  0  0  0  0  0  0  0  0  0
  -25.6440  -37.6960   24.1720 H   0  0  0  0  0  0  0  0  0  0  0  0
  -26.4720  -31.0590   24.6360 C   0  0  1  0  0  0  0  0  0  0  0  0
  -25.4590  -30.6430   25.7280 C   0  0  0  0  0  1  0  0  0  0  0  0
  -27.1100  -29.7710   24.0680 C   0  0  0  0  0  1  0  0  0  0  0  0
  -27.6070  -31.8550   25.3190 C   0  0  0  0  0  1  0  0  0  0  0  0
  1  7  1  0
  1  5  1  0
  2  7  2  0
  2  6  1  0
  3  1  2  0
  4  2  1  0
  8  4  2  0
  8  3  1  0
  9 10  1  0
  9  3  1  0
 10 11  1  0
 12 18  1  0
 12 20  1  0
 13 18  1  0
 14 15  1  0
 14 13  1  0
 16 15  1  0
 16 25  1  0
 16 17  1  0
 18 17  1  0
 19 12  2  0
 20 21  1  0
 20 11  1  0
 22 23  2  0
 23 42  1  0
 24 23  1  0
 24 27  1  0
 25 26  1  0
 25 22  1  0
 26 24  2  0
 27 28  1  0
 28 29  2  0
 30 33  1  0
 30 29  1  0
 31 30  2  0
 32 31  1  0
 32 27  2  0
 33 34  1  0
 34 35  1  0
 35 36  2  0
 37 36  1  0
 37 41  1  0
 38 37  2  0
 39 34  2  0
 39 38  1  0
 40 39  1  0
 42 43  1  0
 43 46  1  0
 43 45  1  0
 44 42  2  0
 47 22  1  0
 47 48  1  0
 49 47  1  0
 50  4  1  0
 51 52  1  0
 51 50  1  0
 52 54  1  0
 53 64  2  0
 54 59  1  0
 55 63  1  0
 55 65  1  0
 56 62  1  0
 56 58  1  0
 57 63  1  0
 58 57  1  0
 59 58  2  0
 60 61  1  0
 60 54  2  0
 61 56  2  0
 62 55  1  0
 63 53  1  0
 65 67  2  0
 66 65  1  0
 68 66  1  0
 69 78  2  0
 69 74  1  0
 70 66  1  0
 70 74  1  0
 71 70  1  0
 72 73  1  0
 72 71  1  0
 73 69  1  0
 74 75  2  0
 75 76  1  0
 77 76  2  0
 78 77  1  0
 79 53  1  0
 79 80  1  0
 79 89  1  0
 80 83  1  0
 81 85  1  0
 81 80  1  0
 82 81  2  0
 85 84  1  0
 87 85  1  0
 87 88  1  0
 87 86  1  0
 89 92  1  1
 89 90  1  0
 91 89  1  0
M  ISO  4  12 100  20 100  51 101  52 101
M  END
>  <TORSDO>  (18) 
F 21

>  <SCORE>  (18) 
-8.802

>  <name>  (18) 
18

>  <ligand_id>  (18) 
18

>  <original_smiles>  (18) 
[H]c1c([H])c([H])c2c(c1[H])C([H])([H])C([H])([H])C([H])([H])C2([H])N([H])C(=O)C1([H])N(C(=O)C([H])(N([H])C(=O)C([H])(N([H])C([H])([H])[H])C([H])([H])[H])C(C([H])([H])[H])(C([H])([H])[H])C([H])([H])[H])C([H])([H])c2c([H])c(OC([H])([H])C([H])([H])c3nc(C([H])([H])C([H])([H])C([H])([H])N([H])C(=O)N4C([H])([H])C([H])([H])C([H])([H])C([H])(n5nc(-c6c([H])c([H])c(Oc7c([H])c([H])c(F)c([H])c7F)c([H])c6[H])c(C(=O)N([H])[H])c5N([H])[H])C4([H])[H])c(C([H])([H])[H])nc3C([H])([H])[H])c([H])c([H])c2C1([H])[H]

>  <smiles>  (18) 
[H]c1c([H])c([H])c2c(c1[H])C([H])([H])C([H])([H])C([H])([H])C2([H])N([H])C(=O)C1([H])N(C(=O)C([H])(N([H])C(=O)C([H])(N([H])C([H])([H])[H])C([H])([H])[H])C(C([H])([H])[H])(C([H])([H])[H])C([H])([H])[H])C([H])([H])c2c([H])c(OC([H])([H])C([H])([H])c3nc(C([H])([H])C([H])([H])C([H])([H])N([H])C(=O)N4C([H])([H])C([H])([H])C([H])([H])C([H])(n5nc(-c6c([H])c([H])c(Oc7c([H])c([H])c(F)c([H])c7F)c([H])c6[H])c(C(=O)N([H])[H])c5N([H])[H])C4([H])[H])c(C([H])([H])[H])nc3C([H])([H])[H])c([H])c([H])c2C1([H])[H]

$$$$
19:0:0
     RDKit          3D

 93101  0  0  1  0  0  0  0  0999 V2000
  -30.3610  -22.6480   19.5930 C   0  0  0  0  0  3  0  0  0  0  0  0
  -29.6720  -23.0290   20.7150 C   0  0  0  0  0  0  0  0  0  0  0  0
  -30.1670  -20.8180   20.8610 C   0  0  0  0  0  3  0  0  0  0  0  0
  -30.6540  -21.3060   19.6980 N   0  0  0  0  0  0  0  0  0  0  0  0
  -29.5660  -21.8690   21.4630 N   0  0  0  0  0  0  0  0  0  0  0  0
  -29.1460  -21.8180   22.3850 H   0  0  0  0  0  0  0  0  0  0  0  0
  -32.9480  -20.4600   19.1660 C   0  0  0  0  0  1  0  0  0  0  0  0
  -31.3400  -21.0750   17.2970 C   0  0  0  0  0  1  0  0  0  0  0  0
  -31.4700  -20.5310   18.7350 C   0  0  0  0  0  3  0  0  0  0  0  0
  -29.2190  -24.4190   21.1550 C   0  0  0  0  0  2  0  0  0  0  0  0
  -28.4220  -25.2140   20.0720 C   0  0  0  0  0  2  0  0  0  0  0  0
  -28.4090  -26.6520   20.2820 O   0  0  0  0  0  0  0  0  0  0  0  0
  -24.5910  -31.8630   23.2360 C   0  0  0  0  0  0  0  0  0  0  0  0
  -27.2300  -27.3820   20.2000 C   0  0  0  0  0  0  0  0  0  0  0  0
  -23.3870  -30.4660   21.5870 C   0  0  0  0  0  3  0  0  0  0  0  0
  -24.8420  -28.9220   20.1710 C   0  0  0  0  0  0  0  0  0  0  0  0
  -25.9150  -30.8160   21.3990 C   0  0  0  0  0  2  0  0  0  0  0  0
  -26.0000  -29.4400   20.7660 C   0  0  0  0  0  0  0  0  0  0  0  0
  -27.1940  -28.6790   20.7720 C   0  0  0  0  0  3  0  0  0  0  0  0
  -26.0580  -26.8970   19.5710 C   0  0  0  0  0  3  0  0  0  0  0  0
  -24.8700  -27.6580   19.5630 C   0  0  0  0  0  3  0  0  0  0  0  0
  -23.6000  -29.7830   20.2090 C   0  0  0  0  0  2  0  0  0  0  0  0
  -24.6480  -31.0660   22.1330 N   0  0  0  0  0  0  0  0  0  0  0  0
  -23.5100  -32.1340   23.7770 O   0  0  0  0  0  0  0  0  0  0  0  0
  -22.7270  -29.4500   22.5500 C   0  0  0  0  0  0  0  0  0  0  0  0
  -21.4010  -29.2790   22.4260 N   0  0  0  0  0  0  0  0  0  0  0  0
  -23.4080  -28.8170   23.3620 O   0  0  0  0  0  0  0  0  0  0  0  0
  -20.9110  -29.8440   21.7470 H   0  0  0  0  0  0  0  0  0  0  0  0
  -18.0210  -28.1060   22.9320 C   0  0  0  0  0  0  0  0  0  0  0  0
  -20.5810  -28.3460   23.1990 C   0  0  0  0  0  3  0  0  0  0  0  0
  -20.6740  -26.9160   22.6190 C   0  0  0  0  0  2  0  0  0  0  0  0
  -19.5690  -26.6030   21.6060 C   0  0  0  0  0  2  0  0  0  0  0  0
  -18.1880  -26.7560   22.2520 C   0  0  0  0  0  2  0  0  0  0  0  0
  -19.1460  -28.8580   23.3630 C   0  0  0  0  0  0  0  0  0  0  0  0
  -18.9370  -30.1220   23.9580 C   0  0  0  0  0  3  0  0  0  0  0  0
  -17.6370  -30.6330   24.1240 C   0  0  0  0  0  3  0  0  0  0  0  0
  -16.5260  -29.8770   23.7090 C   0  0  0  0  0  3  0  0  0  0  0  0
  -16.7200  -28.6160   23.1190 C   0  0  0  0  0  3  0  0  0  0  0  0
  -25.8760  -32.4920   23.8620 C   0  0  0  0  0  3  0  0  0  0  0  0
  -25.5710  -33.8910   24.1930 N   0  0  0  0  0  0  0  0  0  0  0  0
  -25.9090  -34.9430   23.4360 C   0  0  0  0  0  0  0  0  0  0  0  0
  -26.5770  -34.8390   22.4040 O   0  0  0  0  0  0  0  0  0  0  0  0
  -24.9810  -34.0480   24.9970 H   0  0  0  0  0  0  0  0  0  0  0  0
  -24.1810  -36.7340   23.0850 C   0  0  0  0  0  1  0  0  0  0  0  0
  -25.4260  -36.3320   23.8920 C   0  0  0  0  0  3  0  0  0  0  0  0
  -27.5690  -37.2110   24.7090 C   0  0  0  0  0  1  0  0  0  0  0  0
  -26.4600  -37.3840   23.7730 N   0  0  0  0  0  0  0  0  0  0  0  0
  -26.0570  -38.3030   23.9290 H   0  0  0  0  0  0  0  0  0  0  0  0
  -26.3930  -31.7160   25.1350 C   0  0  1  0  0  0  0  0  0  0  0  0
  -25.3010  -31.4820   26.2040 C   0  0  0  0  0  1  0  0  0  0  0  0
  -26.9680  -30.3390   24.7370 C   0  0  0  0  0  1  0  0  0  0  0  0
  -27.5490  -32.5020   25.7980 C   0  0  0  0  0  1  0  0  0  0  0  0
  -30.4100  -19.4440   21.5020 C   0  0  0  0  0  2  0  0  0  0  0  0
  -29.8220  -18.1270   20.8780 C   0  0  0  0  0  2  0  0  0  0  0  0
  -30.5130  -16.8480   21.4690 C   0  0  0  0  0  2  0  0  0  0  0  0
  -30.6620  -14.5090   20.4680 C   0  0  0  0  0  0  0  0  0  0  0  0
  -30.3670  -12.3480   19.2940 C   0  0  0  0  0  2  0  0  0  0  0  0
  -29.4130  -12.5250   18.0940 C   0  0  0  0  0  2  0  0  0  0  0  0
  -27.9400  -12.3880   18.5310 C   0  0  0  0  0  2  0  0  0  0  0  0
  -27.6070  -13.2320   19.7900 C   0  0  0  0  0  3  0  0  0  0  0  0
  -28.6670  -13.0210   20.8930 C   0  0  0  0  0  2  0  0  0  0  0  0
  -29.9840  -13.3350   20.3180 N   0  0  0  0  0  0  0  0  0  0  0  0
  -31.8000  -14.6750   20.0180 O   0  0  0  0  0  0  0  0  0  0  0  0
  -29.9780  -15.5300   21.0410 N   0  0  0  0  0  0  0  0  0  0  0  0
  -29.0320  -15.3120   21.3200 H   0  0  0  0  0  0  0  0  0  0  0  0
  -25.2150  -13.8540   20.5050 C   0  0  0  0  0  0  0  0  0  0  0  0
  -24.1440  -13.0900   20.8790 C   0  0  0  0  0  0  0  0  0  0  0  0
  -24.5950  -11.7340   20.8540 C   0  0  0  0  0  0  0  0  0  0  0  0
  -26.2550  -12.9640   20.2750 N   0  0  0  0  0  0  0  0  0  0  0  0
  -25.8850  -11.6840   20.5450 N   0  0  0  0  0  0  0  0  0  0  0  0
  -23.8610  -10.4770   21.0510 C   0  0  0  0  0  0  0  0  0  0  0  0
  -24.3000   -9.5020   21.9740 C   0  0  0  0  0  3  0  0  0  0  0  0
  -23.5670   -8.3110   22.1590 C   0  0  0  0  0  3  0  0  0  0  0  0
  -22.3820   -8.0850   21.4220 C   0  0  0  0  0  0  0  0  0  0  0  0
  -21.9600   -9.0500   20.4900 C   0  0  0  0  0  3  0  0  0  0  0  0
  -22.6930  -10.2330   20.3030 C   0  0  0  0  0  3  0  0  0  0  0  0
  -21.6190   -6.9470   21.5170 O   0  0  0  0  0  0  0  0  0  0  0  0
  -21.5930   -6.1890   22.6610 C   0  0  0  0  0  0  0  0  0  0  0  0
  -21.2200   -6.7350   23.9080 C   0  0  0  0  0  3  0  0  0  0  0  0
  -21.1420   -5.9050   25.0440 C   0  0  0  0  0  3  0  0  0  0  0  0
  -21.4280   -4.5310   24.9340 C   0  0  0  0  0  0  0  0  0  0  0  0
  -21.7980   -3.9850   23.6920 C   0  0  0  0  0  3  0  0  0  0  0  0
  -21.8770   -4.8120   22.5580 C   0  0  0  0  0  0  0  0  0  0  0  0
  -22.2110   -4.2760   21.3590 F   0  0  0  0  0  0  0  0  0  0  0  0
  -21.3470   -3.7340   26.0250 F   0  0  0  0  0  0  0  0  0  0  0  0
  -22.7500  -13.5770   21.1510 C   0  0  0  0  0  0  0  0  0  0  0  0
  -22.0170  -12.8930   22.0210 N   0  0  0  0  0  0  0  0  0  0  0  0
  -22.3170  -14.5990   20.6200 O   0  0  0  0  0  0  0  0  0  0  0  0
  -22.3790  -12.0670   22.4750 H   0  0  0  0  0  0  0  0  0  0  0  0
  -21.0820  -13.2030   22.2420 H   0  0  0  0  0  0  0  0  0  0  0  0
  -25.3850  -15.2220   20.3150 N   0  0  0  0  0  0  0  0  0  0  0  0
  -24.6100  -15.8710   20.3950 H   0  0  0  0  0  0  0  0  0  0  0  0
  -26.2240  -15.6500   19.9450 H   0  0  0  0  0  0  0  0  0  0  0  0
  1  4  1  0
  1  2  2  0
  2 10  1  0
  2  5  1  0
  3  5  1  0
  3 53  1  0
  4  3  1  0
  5  6  1  0
  8  9  1  0
  9  7  1  0
  9  4  1  0
 11 12  1  0
 11 10  1  0
 13 24  2  0
 14 12  1  0
 14 19  1  0
 15 23  1  0
 15 25  1  0
 16 22  1  0
 16 18  1  0
 17 23  1  0
 18 19  2  0
 18 17  1  0
 20 14  2  0
 21 20  1  0
 21 16  2  0
 22 15  1  0
 23 13  1  0
 25 27  2  0
 26 25  1  0
 28 26  1  0
 29 38  2  0
 29 34  1  0
 30 26  1  0
 30 34  1  0
 31 30  1  0
 32 33  1  0
 32 31  1  0
 33 29  1  0
 34 35  2  0
 35 36  1  0
 37 36  2  0
 38 37  1  0
 39 13  1  0
 39 40  1  0
 39 49  1  0
 40 43  1  0
 41 45  1  0
 41 40  1  0
 42 41  2  0
 45 44  1  0
 47 45  1  0
 47 48  1  0
 47 46  1  0
 49 52  1  1
 49 50  1  0
 51 49  1  0
 54 55  1  0
 54 53  1  0
 56 64  1  0
 57 62  1  0
 58 59  1  0
 58 57  1  0
 60 59  1  0
 60 69  1  0
 60 61  1  0
 62 56  1  0
 62 61  1  0
 63 56  2  0
 64 65  1  0
 64 55  1  0
 66 67  2  0
 67 86  1  0
 68 67  1  0
 68 71  1  0
 69 66  1  0
 69 70  1  0
 70 68  2  0
 71 72  1  0
 72 73  2  0
 74 77  1  0
 74 73  1  0
 75 74  2  0
 76 75  1  0
 76 71  2  0
 77 78  1  0
 78 79  1  0
 79 80  2  0
 81 80  1  0
 81 85  1  0
 82 81  2  0
 83 78  2  0
 83 82  1  0
 84 83  1  0
 86 87  1  0
 87 90  1  0
 87 89  1  0
 88 86  2  0
 91 92  1  0
 91 66  1  0
 93 91  1  0
M  ISO  4  11 101  12 101  56 100  64 100
M  END
>  <TORSDO>  (19) 
F 22

>  <SCORE>  (19) 
-13.157

>  <name>  (19) 
19

>  <ligand_id>  (19) 
19

>  <original_smiles>  (19) 
[H]c1c([H])c([H])c2c(c1[H])C([H])([H])C([H])([H])C([H])([H])C2([H])N([H])C(=O)C1([H])N(C(=O)C([H])(N([H])C(=O)C([H])(N([H])C([H])([H])[H])C([H])([H])[H])C(C([H])([H])[H])(C([H])([H])[H])C([H])([H])[H])C([H])([H])c2c([H])c(OC([H])([H])C([H])([H])c3c([H])n(C([H])(C([H])([H])[H])C([H])([H])[H])c(C([H])([H])C([H])([H])C([H])([H])N([H])C(=O)N4C([H])([H])C([H])([H])C([H])([H])C([H])(n5nc(-c6c([H])c([H])c(Oc7c([H])c([H])c(F)c([H])c7F)c([H])c6[H])c(C(=O)N([H])[H])c5N([H])[H])C4([H])[H])[n+]3[H])c([H])c([H])c2C1([H])[H]

>  <smiles>  (19) 
[H]c1c([H])c([H])c2c(c1[H])C([H])([H])C([H])([H])C([H])([H])C2([H])N([H])C(=O)C1([H])N(C(=O)C([H])(N([H])C(=O)C([H])(N([H])C([H])([H])[H])C([H])([H])[H])C(C([H])([H])[H])(C([H])([H])[H])C([H])([H])[H])C([H])([H])c2c([H])c(OC([H])([H])C([H])([H])c3c([H])n(C([H])(C([H])([H])[H])C([H])([H])[H])c(C([H])([H])C([H])([H])C([H])([H])N([H])C(=O)N4C([H])([H])C([H])([H])C([H])([H])C([H])(n5nc(-c6c([H])c([H])c(Oc7c([H])c([H])c(F)c([H])c7F)c([H])c6[H])c(C(=O)N([H])[H])c5N([H])[H])C4([H])[H])[n+]3[H])c([H])c([H])c2C1([H])[H]

$$$$
20:0:0
     RDKit          3D

 95103  0  0  1  0  0  0  0  0999 V2000
  -30.5010  -24.6470   21.0440 C   0  0  0  0  0  3  0  0  0  0  0  0
  -30.3340  -24.5420   19.6880 C   0  0  0  0  0  0  0  0  0  0  0  0
  -30.3800  -23.1310   19.4440 C   0  0  0  0  0  0  0  0  0  0  0  0
  -30.7840  -22.9650   22.9240 C   0  0  0  0  0  1  0  0  0  0  0  0
  -30.5630  -22.4440   20.5690 N   0  0  0  0  0  0  0  0  0  0  0  0
  -30.6190  -23.3720   21.5460 N   0  0  0  0  0  0  0  0  0  0  0  0
  -30.1530  -25.6670   18.6940 C   0  0  0  0  0  2  0  0  0  0  0  0
  -28.7390  -26.2620   18.7270 C   0  0  0  0  0  2  0  0  0  0  0  0
  -28.4850  -26.9090   19.9800 O   0  0  0  0  0  0  0  0  0  0  0  0
  -24.6410  -31.9540   23.2440 C   0  0  0  0  0  0  0  0  0  0  0  0
  -27.2860  -27.5820   20.0640 C   0  0  0  0  0  0  0  0  0  0  0  0
  -23.4330  -30.5730   21.5870 C   0  0  0  0  0  3  0  0  0  0  0  0
  -24.8800  -29.0600   20.1420 C   0  0  0  0  0  0  0  0  0  0  0  0
  -25.9570  -30.9360   21.3890 C   0  0  0  0  0  2  0  0  0  0  0  0
  -26.0370  -29.5700   20.7460 C   0  0  0  0  0  0  0  0  0  0  0  0
  -27.2370  -28.8280   20.7240 C   0  0  0  0  0  3  0  0  0  0  0  0
  -26.0980  -27.0660   19.4910 C   0  0  0  0  0  3  0  0  0  0  0  0
  -24.9010  -27.7980   19.5310 C   0  0  0  0  0  3  0  0  0  0  0  0
  -23.6370  -29.9160   20.1990 C   0  0  0  0  0  2  0  0  0  0  0  0
  -24.6960  -31.1690   22.1320 N   0  0  0  0  0  0  0  0  0  0  0  0
  -23.5600  -32.2160   23.7910 O   0  0  0  0  0  0  0  0  0  0  0  0
  -22.7920  -29.5320   22.5320 C   0  0  0  0  0  0  0  0  0  0  0  0
  -21.4680  -29.3440   22.3980 N   0  0  0  0  0  0  0  0  0  0  0  0
  -23.4780  -28.8970   23.3370 O   0  0  0  0  0  0  0  0  0  0  0  0
  -20.9780  -29.9070   21.7180 H   0  0  0  0  0  0  0  0  0  0  0  0
  -18.0980  -28.1330   22.8720 C   0  0  0  0  0  0  0  0  0  0  0  0
  -20.6550  -28.3940   23.1550 C   0  0  0  0  0  3  0  0  0  0  0  0
  -20.7640  -26.9720   22.5620 C   0  0  0  0  0  2  0  0  0  0  0  0
  -19.6660  -26.6590   21.5400 C   0  0  0  0  0  2  0  0  0  0  0  0
  -18.2810  -26.7920   22.1800 C   0  0  0  0  0  2  0  0  0  0  0  0
  -19.2140  -28.8920   23.3140 C   0  0  0  0  0  0  0  0  0  0  0  0
  -18.9930  -30.1500   23.9170 C   0  0  0  0  0  3  0  0  0  0  0  0
  -17.6870  -30.6480   24.0840 C   0  0  0  0  0  3  0  0  0  0  0  0
  -16.5840  -29.8860   23.6600 C   0  0  0  0  0  3  0  0  0  0  0  0
  -16.7910  -28.6300   23.0610 C   0  0  0  0  0  3  0  0  0  0  0  0
  -25.9280  -32.5780   23.8690 C   0  0  0  0  0  3  0  0  0  0  0  0
  -25.6210  -33.9740   24.2050 N   0  0  0  0  0  0  0  0  0  0  0  0
  -25.9570  -35.0290   23.4510 C   0  0  0  0  0  0  0  0  0  0  0  0
  -26.6340  -34.9310   22.4230 O   0  0  0  0  0  0  0  0  0  0  0  0
  -25.0300  -34.1250   25.0080 H   0  0  0  0  0  0  0  0  0  0  0  0
  -24.2290  -36.8220   23.0930 C   0  0  0  0  0  1  0  0  0  0  0  0
  -25.4650  -36.4150   23.9130 C   0  0  0  0  0  3  0  0  0  0  0  0
  -27.5940  -37.2920   24.7630 C   0  0  0  0  0  1  0  0  0  0  0  0
  -26.4960  -37.4710   23.8160 N   0  0  0  0  0  0  0  0  0  0  0  0
  -26.0870  -38.3880   23.9760 H   0  0  0  0  0  0  0  0  0  0  0  0
  -26.4460  -31.7950   25.1380 C   0  0  1  0  0  0  0  0  0  0  0  0
  -25.3580  -31.5480   26.2070 C   0  0  0  0  0  1  0  0  0  0  0  0
  -27.0270  -30.4210   24.7280 C   0  0  0  0  0  1  0  0  0  0  0  0
  -27.5950  -32.5840   25.8080 C   0  0  0  0  0  1  0  0  0  0  0  0
  -30.2970  -22.3950   18.1220 C   0  0  0  0  0  2  0  0  0  0  0  0
  -31.7440  -20.6760   17.0580 C   0  0  0  0  0  1  0  0  0  0  0  0
  -30.9210  -21.0520   18.2320 N   0  0  2  0  0  4  0  0  0  0  0  0
  -31.5360  -21.1900   19.0210 H   0  0  0  0  0  0  0  0  0  0  0  0
  -29.9980  -19.9640   18.6450 C   0  0  0  0  0  2  0  0  0  0  0  0
  -30.6320  -19.0610   19.7240 C   0  0  0  0  0  2  0  0  0  0  0  0
  -29.9350  -17.6990   19.8660 C   0  0  0  0  0  2  0  0  0  0  0  0
  -30.5160  -16.8530   21.0220 C   0  0  0  0  0  2  0  0  0  0  0  0
  -30.6760  -14.5030   20.2460 C   0  0  0  0  0  0  0  0  0  0  0  0
  -30.2920  -12.4040   19.0260 C   0  0  0  0  0  2  0  0  0  0  0  0
  -29.3130  -12.6620   17.8630 C   0  0  0  0  0  2  0  0  0  0  0  0
  -27.8520  -12.5410   18.3410 C   0  0  0  0  0  2  0  0  0  0  0  0
  -27.5720  -13.3440   19.6410 C   0  0  0  0  0  3  0  0  0  0  0  0
  -28.6570  -13.0610   20.7040 C   0  0  0  0  0  2  0  0  0  0  0  0
  -29.9710  -13.3520   20.1010 N   0  0  0  0  0  0  0  0  0  0  0  0
  -31.7530  -14.7140   19.6810 O   0  0  0  0  0  0  0  0  0  0  0  0
  -30.0650  -15.4640   20.9520 N   0  0  0  0  0  0  0  0  0  0  0  0
  -29.1890  -15.2270   21.3980 H   0  0  0  0  0  0  0  0  0  0  0  0
  -25.1870  -13.9550   20.4050 C   0  0  0  0  0  0  0  0  0  0  0  0
  -24.1300  -13.1870   20.8050 C   0  0  0  0  0  0  0  0  0  0  0  0
  -24.5910  -11.8350   20.7730 C   0  0  0  0  0  0  0  0  0  0  0  0
  -26.2290  -13.0760   20.1550 N   0  0  0  0  0  0  0  0  0  0  0  0
  -25.8720  -11.7950   20.4280 N   0  0  0  0  0  0  0  0  0  0  0  0
  -23.8720  -10.5720   20.9870 C   0  0  0  0  0  0  0  0  0  0  0  0
  -24.3330   -9.6040   21.9050 C   0  0  0  0  0  3  0  0  0  0  0  0
  -23.6110   -8.4070   22.1100 C   0  0  0  0  0  3  0  0  0  0  0  0
  -22.4130   -8.1690   21.3930 C   0  0  0  0  0  0  0  0  0  0  0  0
  -21.9710   -9.1270   20.4650 C   0  0  0  0  0  3  0  0  0  0  0  0
  -22.6920  -10.3150   20.2600 C   0  0  0  0  0  3  0  0  0  0  0  0
  -21.6590   -7.0250   21.5080 O   0  0  0  0  0  0  0  0  0  0  0  0
  -21.6620   -6.2760   22.6570 C   0  0  0  0  0  0  0  0  0  0  0  0
  -21.3000   -6.8260   23.9060 C   0  0  0  0  0  3  0  0  0  0  0  0
  -21.2460   -6.0020   25.0480 C   0  0  0  0  0  3  0  0  0  0  0  0
  -21.5450   -4.6310   24.9420 C   0  0  0  0  0  0  0  0  0  0  0  0
  -21.9000   -4.0810   23.6980 C   0  0  0  0  0  3  0  0  0  0  0  0
  -21.9570   -4.9010   22.5580 C   0  0  0  0  0  0  0  0  0  0  0  0
  -22.2770   -4.3630   21.3570 F   0  0  0  0  0  0  0  0  0  0  0  0
  -21.4860   -3.8380   26.0370 F   0  0  0  0  0  0  0  0  0  0  0  0
  -22.7390  -13.6640   21.1120 C   0  0  0  0  0  0  0  0  0  0  0  0
  -22.0320  -12.9740   21.9980 N   0  0  0  0  0  0  0  0  0  0  0  0
  -22.2880  -14.6870   20.5970 O   0  0  0  0  0  0  0  0  0  0  0  0
  -22.4060  -12.1440   22.4340 H   0  0  0  0  0  0  0  0  0  0  0  0
  -21.1020  -13.2830   22.2440 H   0  0  0  0  0  0  0  0  0  0  0  0
  -25.3480  -15.3260   20.2190 N   0  0  0  0  0  0  0  0  0  0  0  0
  -24.5820  -15.9780   20.3390 H   0  0  0  0  0  0  0  0  0  0  0  0
  -26.1890  -15.7700   19.8740 H   0  0  0  0  0  0  0  0  0  0  0  0
  1  6  1  0
  2  1  2  0
  3  2  1  0
  3  5  2  0
  5  6  1  0
  6  4  1  0
  7  8  1  0
  7  2  1  0
  8  9  1  0
  9 11  1  0
 10 21  2  0
 11 16  1  0
 12 20  1  0
 12 22  1  0
 13 19  1  0
 13 15  1  0
 14 20  1  0
 15 14  1  0
 16 15  2  0
 17 18  1  0
 17 11  2  0
 18 13  2  0
 19 12  1  0
 20 10  1  0
 22 24  2  0
 23 22  1  0
 25 23  1  0
 26 35  2  0
 26 31  1  0
 27 23  1  0
 27 31  1  0
 28 27  1  0
 29 30  1  0
 29 28  1  0
 30 26  1  0
 31 32  2  0
 32 33  1  0
 34 33  2  0
 35 34  1  0
 36 10  1  0
 36 37  1  0
 36 46  1  0
 37 40  1  0
 38 42  1  0
 38 37  1  0
 39 38  2  0
 42 41  1  0
 44 42  1  0
 44 45  1  0
 44 43  1  0
 46 49  1  1
 46 47  1  0
 48 46  1  0
 50 52  1  0
 50  3  1  0
 51 52  1  0
 52 54  1  0
 52 53  1  1
 54 55  1  0
 55 56  1  0
 56 57  1  0
 58 66  1  0
 59 64  1  0
 60 61  1  0
 60 59  1  0
 62 61  1  0
 62 71  1  0
 62 63  1  0
 64 58  1  0
 64 63  1  0
 65 58  2  0
 66 57  1  0
 66 67  1  0
 68 69  2  0
 69 88  1  0
 70 69  1  0
 70 73  1  0
 71 68  1  0
 71 72  1  0
 72 70  2  0
 73 74  1  0
 74 75  2  0
 76 79  1  0
 76 75  1  0
 77 76  2  0
 78 77  1  0
 78 73  2  0
 79 80  1  0
 80 81  1  0
 81 82  2  0
 83 82  1  0
 83 87  1  0
 84 83  2  0
 85 80  2  0
 85 84  1  0
 86 85  1  0
 88 89  1  0
 89 92  1  0
 89 91  1  0
 90 88  2  0
 93 94  1  0
 93 68  1  0
 95 93  1  0
M  ISO  4   8 101   9 101  58 100  66 100
M  END
>  <TORSDO>  (20) 
F 24

>  <SCORE>  (20) 
-12.111

>  <name>  (20) 
20

>  <ligand_id>  (20) 
20

>  <original_smiles>  (20) 
[H]c1c([H])c([H])c2c(c1[H])C([H])([H])C([H])([H])C([H])([H])C2([H])N([H])C(=O)C1([H])N(C(=O)C([H])(N([H])C(=O)C([H])(N([H])C([H])([H])[H])C([H])([H])[H])C(C([H])([H])[H])(C([H])([H])[H])C([H])([H])[H])C([H])([H])c2c([H])c(OC([H])([H])C([H])([H])c3c(C([H])([H])[N+]([H])(C([H])([H])[H])C([H])([H])C([H])([H])C([H])([H])C([H])([H])N([H])C(=O)N4C([H])([H])C([H])([H])C([H])([H])C([H])(n5nc(-c6c([H])c([H])c(Oc7c([H])c([H])c(F)c([H])c7F)c([H])c6[H])c(C(=O)N([H])[H])c5N([H])[H])C4([H])[H])nn(C([H])([H])[H])c3[H])c([H])c([H])c2C1([H])[H]

>  <smiles>  (20) 
[H]c1c([H])c([H])c2c(c1[H])C([H])([H])C([H])([H])C([H])([H])C2([H])N([H])C(=O)C1([H])N(C(=O)C([H])(N([H])C(=O)C([H])(N([H])C([H])([H])[H])C([H])([H])[H])C(C([H])([H])[H])(C([H])([H])[H])C([H])([H])[H])C([H])([H])c2c([H])c(OC([H])([H])C([H])([H])c3c(C([H])([H])[N+]([H])(C([H])([H])[H])C([H])([H])C([H])([H])C([H])([H])C([H])([H])N([H])C(=O)N4C([H])([H])C([H])([H])C([H])([H])C([H])(n5nc(-c6c([H])c([H])c(Oc7c([H])c([H])c(F)c([H])c7F)c([H])c6[H])c(C(=O)N([H])[H])c5N([H])[H])C4([H])[H])nn(C([H])([H])[H])c3[H])c([H])c([H])c2C1([H])[H]

$$$$
21:0:0
     RDKit          3D

 94102  0  0  1  0  0  0  0  0999 V2000
  -32.2240  -23.2580   19.5990 C   0  0  0  0  0  0  0  0  0  0  0  0
  -31.8480  -24.5990   19.3810 C   0  0  0  0  0  0  0  0  0  0  0  0
  -30.0400  -22.7400   20.3070 C   0  0  0  0  0  0  0  0  0  0  0  0
  -29.6730  -24.1700   20.1590 C   0  0  0  0  0  0  0  0  0  0  0  0
  -31.3280  -22.3710   20.0730 N   0  0  0  0  0  0  0  0  0  0  0  0
  -30.6080  -25.0410   19.6910 N   0  0  0  0  0  0  0  0  0  0  0  0
  -32.2940  -25.8310   17.2280 C   0  0  0  0  0  1  0  0  0  0  0  0
  -32.7450  -25.6060   18.6810 C   0  0  0  0  0  2  0  0  0  0  0  0
  -34.6890  -23.0090   20.3200 C   0  0  0  0  0  1  0  0  0  0  0  0
  -33.6070  -22.6880   19.2750 C   0  0  0  0  0  2  0  0  0  0  0  0
  -29.2210  -21.4370   20.7090 C   0  0  0  0  0  3  0  0  0  0  0  0
  -29.9660  -20.0070   20.4100 C   0  0  0  0  0  3  0  0  0  0  0  0
  -29.3620  -18.5390   20.6790 C   0  0  0  0  0  3  0  0  0  0  0  0
  -30.3260  -17.2830   20.3590 C   0  0  0  0  0  3  0  0  0  0  0  0
  -30.6050  -14.7050   20.4170 C   0  0  0  0  0  0  0  0  0  0  0  0
  -30.3470  -12.4570   19.3830 C   0  0  0  0  0  2  0  0  0  0  0  0
  -29.4180  -12.5810   18.1590 C   0  0  0  0  0  2  0  0  0  0  0  0
  -27.9520  -12.4020   18.5960 C   0  0  0  0  0  2  0  0  0  0  0  0
  -27.5820  -13.2850   19.8190 C   0  0  0  0  0  3  0  0  0  0  0  0
  -28.6350  -13.1930   20.9410 C   0  0  0  0  0  2  0  0  0  0  0  0
  -29.9420  -13.5060   20.3490 N   0  0  0  0  0  0  0  0  0  0  0  0
  -31.7900  -14.7850   20.0850 O   0  0  0  0  0  0  0  0  0  0  0  0
  -29.8730  -15.8570   20.6310 N   0  0  0  0  0  0  0  0  0  0  0  0
  -28.9070  -15.7240   20.8930 H   0  0  0  0  0  0  0  0  0  0  0  0
  -25.1950  -13.8760   20.5320 C   0  0  0  0  0  0  0  0  0  0  0  0
  -24.1280  -13.1020   20.8960 C   0  0  0  0  0  0  0  0  0  0  0  0
  -24.5870  -11.7520   20.8670 C   0  0  0  0  0  0  0  0  0  0  0  0
  -26.2390  -12.9950   20.2990 N   0  0  0  0  0  0  0  0  0  0  0  0
  -25.8800  -11.7100   20.5630 N   0  0  0  0  0  0  0  0  0  0  0  0
  -23.8570  -10.4920   21.0520 C   0  0  0  0  0  0  0  0  0  0  0  0
  -24.2770   -9.5260   21.9920 C   0  0  0  0  0  3  0  0  0  0  0  0
  -23.5470   -8.3310   22.1670 C   0  0  0  0  0  3  0  0  0  0  0  0
  -22.3810   -8.0940   21.4000 C   0  0  0  0  0  0  0  0  0  0  0  0
  -21.9800   -9.0490   20.4480 C   0  0  0  0  0  3  0  0  0  0  0  0
  -22.7110  -10.2350   20.2740 C   0  0  0  0  0  3  0  0  0  0  0  0
  -21.6280   -6.9500   21.4770 O   0  0  0  0  0  0  0  0  0  0  0  0
  -21.5580   -6.2090   22.6320 C   0  0  0  0  0  0  0  0  0  0  0  0
  -21.1130   -6.7700   23.8480 C   0  0  0  0  0  3  0  0  0  0  0  0
  -20.9910   -5.9600   24.9950 C   0  0  0  0  0  3  0  0  0  0  0  0
  -21.3020   -4.5900   24.9230 C   0  0  0  0  0  0  0  0  0  0  0  0
  -21.7360   -4.0270   23.7110 C   0  0  0  0  0  3  0  0  0  0  0  0
  -21.8610   -4.8340   22.5660 C   0  0  0  0  0  0  0  0  0  0  0  0
  -22.2620   -4.2820   21.3970 F   0  0  0  0  0  0  0  0  0  0  0  0
  -21.1750   -3.8080   26.0220 F   0  0  0  0  0  0  0  0  0  0  0  0
  -22.7300  -13.5850   21.1600 C   0  0  0  0  0  0  0  0  0  0  0  0
  -21.9960  -12.8930   22.0220 N   0  0  0  0  0  0  0  0  0  0  0  0
  -22.2980  -14.6100   20.6380 O   0  0  0  0  0  0  0  0  0  0  0  0
  -22.3580  -12.0630   22.4660 H   0  0  0  0  0  0  0  0  0  0  0  0
  -21.0590  -13.2000   22.2440 H   0  0  0  0  0  0  0  0  0  0  0  0
  -25.3570  -15.2470   20.3620 N   0  0  0  0  0  0  0  0  0  0  0  0
  -24.5770  -15.8860   20.4780 H   0  0  0  0  0  0  0  0  0  0  0  0
  -26.1990  -15.6990   20.0300 H   0  0  0  0  0  0  0  0  0  0  0  0
  -28.3280  -24.9670   20.4200 C   0  0  0  0  0  2  0  0  0  0  0  0
  -28.4020  -26.4680   20.2710 O   0  0  0  0  0  0  0  0  0  0  0  0
  -24.6320  -31.9020   23.2580 C   0  0  0  0  0  0  0  0  0  0  0  0
  -27.2550  -27.2920   20.2470 C   0  0  0  0  0  0  0  0  0  0  0  0
  -23.4300  -30.4890   21.6270 C   0  0  0  0  0  3  0  0  0  0  0  0
  -24.8860  -28.9200   20.2170 C   0  0  0  0  0  0  0  0  0  0  0  0
  -25.9710  -30.7970   21.4440 C   0  0  0  0  0  2  0  0  0  0  0  0
  -26.0530  -29.4080   20.8160 C   0  0  0  0  0  0  0  0  0  0  0  0
  -27.2390  -28.6080   20.8160 C   0  0  0  0  0  3  0  0  0  0  0  0
  -26.0640  -26.8630   19.6190 C   0  0  0  0  0  3  0  0  0  0  0  0
  -24.8950  -27.6540   19.6090 C   0  0  0  0  0  3  0  0  0  0  0  0
  -23.6540  -29.8070   20.2490 C   0  0  0  0  0  2  0  0  0  0  0  0
  -24.6970  -31.0800   22.1700 N   0  0  0  0  0  0  0  0  0  0  0  0
  -23.5460  -32.1870   23.7860 O   0  0  0  0  0  0  0  0  0  0  0  0
  -22.7600  -29.4810   22.5940 C   0  0  0  0  0  0  0  0  0  0  0  0
  -21.4320  -29.3030   22.4700 N   0  0  0  0  0  0  0  0  0  0  0  0
  -23.4370  -28.8630   23.4200 O   0  0  0  0  0  0  0  0  0  0  0  0
  -20.9410  -29.8560   21.7800 H   0  0  0  0  0  0  0  0  0  0  0  0
  -18.0580  -28.0960   22.9700 C   0  0  0  0  0  0  0  0  0  0  0  0
  -20.6140  -28.3710   23.2530 C   0  0  0  0  0  3  0  0  0  0  0  0
  -20.7250  -26.9330   22.6990 C   0  0  0  0  0  2  0  0  0  0  0  0
  -19.6300  -26.5900   21.6830 C   0  0  0  0  0  2  0  0  0  0  0  0
  -18.2450  -26.7390   22.3150 C   0  0  0  0  0  2  0  0  0  0  0  0
  -19.1710  -28.8690   23.3970 C   0  0  0  0  0  0  0  0  0  0  0  0
  -18.9430  -30.1400   23.9700 C   0  0  0  0  0  3  0  0  0  0  0  0
  -17.6340  -30.6400   24.1150 C   0  0  0  0  0  3  0  0  0  0  0  0
  -16.5370  -29.8630   23.7050 C   0  0  0  0  0  3  0  0  0  0  0  0
  -16.7490  -28.5940   23.1380 C   0  0  0  0  0  3  0  0  0  0  0  0
  -25.9140  -32.5420   23.8740 C   0  0  0  0  0  3  0  0  0  0  0  0
  -25.6000  -33.9390   24.2130 N   0  0  0  0  0  0  0  0  0  0  0  0
  -25.9070  -34.9930   23.4450 C   0  0  0  0  0  0  0  0  0  0  0  0
  -26.5540  -34.8950   22.3990 O   0  0  0  0  0  0  0  0  0  0  0  0
  -25.0350  -34.0960   25.0340 H   0  0  0  0  0  0  0  0  0  0  0  0
  -24.1550  -36.7660   23.1340 C   0  0  0  0  0  1  0  0  0  0  0  0
  -25.4200  -36.3760   23.9150 C   0  0  0  0  0  3  0  0  0  0  0  0
  -27.5700  -37.2790   24.6850 C   0  0  0  0  0  1  0  0  0  0  0  0
  -26.4400  -37.4390   23.7730 N   0  0  0  0  0  0  0  0  0  0  0  0
  -26.0280  -38.3540   23.9360 H   0  0  0  0  0  0  0  0  0  0  0  0
  -26.4470  -31.7690   25.1410 C   0  0  1  0  0  0  0  0  0  0  0  0
  -25.3640  -31.5290   26.2160 C   0  0  0  0  0  1  0  0  0  0  0  0
  -27.0330  -30.3960   24.7380 C   0  0  0  0  0  1  0  0  0  0  0  0
  -27.6000  -32.5660   25.7990 C   0  0  0  0  0  1  0  0  0  0  0  0
  1  5  1  0
  2  1  2  0
  2  6  1  0
  3 11  1  0
  4  3  1  0
  4 53  1  0
  5  3  2  0
  6  4  2  0
  7  8  1  0
  8  2  1  0
 10  1  1  0
 10  9  1  0
 12 13  1  0
 12 11  2  0
 14 23  1  0
 14 13  2  0
 15 23  1  0
 16 21  1  0
 17 18  1  0
 17 16  1  0
 19 18  1  0
 19 28  1  0
 19 20  1  0
 21 15  1  0
 21 20  1  0
 22 15  2  0
 23 24  1  0
 25 26  2  0
 26 45  1  0
 27 26  1  0
 27 30  1  0
 28 25  1  0
 28 29  1  0
 29 27  2  0
 30 31  1  0
 31 32  2  0
 33 36  1  0
 33 32  1  0
 34 33  2  0
 35 34  1  0
 35 30  2  0
 36 37  1  0
 37 38  1  0
 38 39  2  0
 40 39  1  0
 40 44  1  0
 41 40  2  0
 42 37  2  0
 42 41  1  0
 43 42  1  0
 45 46  1  0
 46 49  1  0
 46 48  1  0
 47 45  2  0
 50 51  1  0
 50 25  1  0
 52 50  1  0
 54 53  1  0
 55 66  2  0
 56 54  1  0
 56 61  1  0
 57 65  1  0
 57 67  1  0
 58 64  1  0
 58 60  1  0
 59 65  1  0
 60 61  2  0
 60 59  1  0
 62 56  2  0
 63 62  1  0
 63 58  2  0
 64 57  1  0
 65 55  1  0
 67 69  2  0
 68 67  1  0
 70 68  1  0
 71 80  2  0
 71 76  1  0
 72 68  1  0
 72 76  1  0
 73 72  1  0
 74 75  1  0
 74 73  1  0
 75 71  1  0
 76 77  2  0
 77 78  1  0
 79 78  2  0
 80 79  1  0
 81 55  1  0
 81 82  1  0
 81 91  1  0
 82 85  1  0
 83 87  1  0
 83 82  1  0
 84 83  2  0
 87 86  1  0
 89 87  1  0
 89 90  1  0
 89 88  1  0
 91 94  1  1
 91 92  1  0
 93 91  1  0
M  ISO  4  15 100  23 100  53 101  54 101
M  END
>  <TORSDO>  (21) 
F 23

>  <SCORE>  (21) 
-12.612

>  <name>  (21) 
21

>  <ligand_id>  (21) 
21

>  <original_smiles>  (21) 
[H]c1c([H])c([H])c2c(c1[H])C([H])([H])C([H])([H])C([H])([H])C2([H])N([H])C(=O)C1([H])N(C(=O)C([H])(N([H])C(=O)C([H])(N([H])C([H])([H])[H])C([H])([H])[H])C(C([H])([H])[H])(C([H])([H])[H])C([H])([H])[H])C([H])([H])c2c([H])c(OC([H])([H])c3nc(C([H])([H])C([H])([H])[H])c(C([H])([H])C([H])([H])[H])nc3C([H])([H])C([H])([H])C([H])([H])C([H])([H])N([H])C(=O)N3C([H])([H])C([H])([H])C([H])([H])C([H])(n4nc(-c5c([H])c([H])c(Oc6c([H])c([H])c(F)c([H])c6F)c([H])c5[H])c(C(=O)N([H])[H])c4N([H])[H])C3([H])[H])c([H])c([H])c2C1([H])[H]

>  <smiles>  (21) 
[H]c1c([H])c([H])c2c(c1[H])C([H])([H])C([H])([H])C([H])([H])C2([H])N([H])C(=O)C1([H])N(C(=O)C([H])(N([H])C(=O)C([H])(N([H])C([H])([H])[H])C([H])([H])[H])C(C([H])([H])[H])(C([H])([H])[H])C([H])([H])[H])C([H])([H])c2c([H])c(OC([H])([H])c3nc(C([H])([H])C([H])([H])[H])c(C([H])([H])C([H])([H])[H])nc3C([H])([H])C([H])([H])C([H])([H])C([H])([H])N([H])C(=O)N3C([H])([H])C([H])([H])C([H])([H])C([H])(n4nc(-c5c([H])c([H])c(Oc6c([H])c([H])c(F)c([H])c6F)c([H])c5[H])c(C(=O)N([H])[H])c4N([H])[H])C3([H])[H])c([H])c([H])c2C1([H])[H]

$$$$
22:0:0
     RDKit          3D

100108  0  0  1  0  0  0  0  0999 V2000
  -30.6020  -19.7740   24.0230 C   0  0  0  0  0  0  0  0  0  0  0  0
  -31.8420  -20.1520   23.5610 C   0  0  0  0  0  0  0  0  0  0  0  0
  -31.2700  -18.2400   22.6470 C   0  0  0  0  0  0  0  0  0  0  0  0
  -32.6430  -21.3870   23.8330 C   0  0  0  0  0  1  0  0  0  0  0  0
  -33.5130  -19.1560   21.9420 C   0  0  0  0  0  1  0  0  0  0  0  0
  -30.2650  -18.5450   23.4640 N   0  0  0  0  0  0  0  0  0  0  0  0
  -32.2620  -19.1550   22.6840 N   0  0  0  0  0  0  0  0  0  0  0  0
  -29.6330  -20.5290   24.8950 C   0  0  0  0  0  2  0  0  0  0  0  0
  -29.3080  -21.9560   24.3960 C   0  0  0  0  0  2  0  0  0  0  0  0
  -29.3990  -22.1670   22.8680 C   0  0  0  0  0  2  0  0  0  0  0  0
  -27.5100  -23.5390   22.0620 C   0  0  0  0  0  1  0  0  0  0  0  0
  -28.9310  -23.5260   22.4950 N   0  0  2  0  0  4  0  0  0  0  0  0
  -28.9730  -24.0530   23.3530 H   0  0  0  0  0  0  0  0  0  0  0  0
  -29.8450  -24.2390   21.5590 C   0  0  0  0  0  2  0  0  0  0  0  0
  -29.6810  -25.7660   21.6570 C   0  0  0  0  0  2  0  0  0  0  0  0
  -30.4790  -26.5270   20.5760 C   0  0  0  0  0  2  0  0  0  0  0  0
  -30.1870  -27.9260   20.6160 O   0  0  0  0  0  0  0  0  0  0  0  0
  -25.0070  -31.4550   23.9430 C   0  0  0  0  0  0  0  0  0  0  0  0
  -28.8650  -28.3120   20.5690 C   0  0  0  0  0  0  0  0  0  0  0  0
  -24.2950  -30.0720   22.0200 C   0  0  0  0  0  3  0  0  0  0  0  0
  -26.1690  -29.1610   20.5530 C   0  0  0  0  0  0  0  0  0  0  0  0
  -26.6590  -31.0490   22.1250 C   0  0  0  0  0  2  0  0  0  0  0  0
  -27.1200  -29.8560   21.3130 C   0  0  0  0  0  0  0  0  0  0  0  0
  -28.4670  -29.4410   21.3150 C   0  0  0  0  0  3  0  0  0  0  0  0
  -27.8950  -27.6230   19.8050 C   0  0  0  0  0  3  0  0  0  0  0  0
  -26.5510  -28.0410   19.7970 C   0  0  0  0  0  3  0  0  0  0  0  0
  -24.7500  -29.6780   20.5890 C   0  0  0  0  0  2  0  0  0  0  0  0
  -25.3290  -30.8700   22.7550 N   0  0  0  0  0  0  0  0  0  0  0  0
  -23.8590  -31.3780   24.4040 O   0  0  0  0  0  0  0  0  0  0  0  0
  -23.8630  -28.7900   22.7700 C   0  0  0  0  0  0  0  0  0  0  0  0
  -22.7050  -28.2290   22.3840 N   0  0  0  0  0  0  0  0  0  0  0  0
  -24.5780  -28.3050   23.6510 O   0  0  0  0  0  0  0  0  0  0  0  0
  -22.1740  -28.6960   21.6630 H   0  0  0  0  0  0  0  0  0  0  0  0
  -19.9720  -25.9020   21.9970 C   0  0  0  0  0  0  0  0  0  0  0  0
  -22.1200  -27.0020   22.9210 C   0  0  0  0  0  3  0  0  0  0  0  0
  -22.8640  -25.7530   22.3910 C   0  0  0  0  0  2  0  0  0  0  0  0
  -22.2300  -25.1620   21.1290 C   0  0  0  0  0  2  0  0  0  0  0  0
  -20.7770  -24.7630   21.3940 C   0  0  0  0  0  2  0  0  0  0  0  0
  -20.6040  -26.9610   22.7000 C   0  0  0  0  0  0  0  0  0  0  0  0
  -19.8130  -28.0150   23.2070 C   0  0  0  0  0  3  0  0  0  0  0  0
  -18.4150  -28.0160   23.0280 C   0  0  0  0  0  3  0  0  0  0  0  0
  -17.7940  -26.9560   22.3470 C   0  0  0  0  0  3  0  0  0  0  0  0
  -18.5700  -25.9010   21.8370 C   0  0  0  0  0  3  0  0  0  0  0  0
  -26.0530  -32.2710   24.7650 C   0  0  0  0  0  3  0  0  0  0  0  0
  -25.5430  -33.6430   24.8880 N   0  0  0  0  0  0  0  0  0  0  0  0
  -25.9230  -34.6700   24.1140 C   0  0  0  0  0  0  0  0  0  0  0  0
  -26.8090  -34.5720   23.2620 O   0  0  0  0  0  0  0  0  0  0  0  0
  -24.7810  -33.7880   25.5350 H   0  0  0  0  0  0  0  0  0  0  0  0
  -24.1460  -36.2130   23.2360 C   0  0  0  0  0  1  0  0  0  0  0  0
  -25.2110  -36.0200   24.3250 C   0  0  0  0  0  3  0  0  0  0  0  0
  -27.0730  -37.1590   25.4490 C   0  0  0  0  0  1  0  0  0  0  0  0
  -26.1340  -37.1770   24.3310 N   0  0  0  0  0  0  0  0  0  0  0  0
  -25.6160  -38.0510   24.3660 H   0  0  0  0  0  0  0  0  0  0  0  0
  -26.3490  -31.6570   26.1880 C   0  0  1  0  0  0  0  0  0  0  0  0
  -25.0760  -31.3180   26.9990 C   0  0  0  0  0  1  0  0  0  0  0  0
  -27.1860  -30.3640   26.0600 C   0  0  0  0  0  1  0  0  0  0  0  0
  -27.1940  -32.6510   27.0210 C   0  0  0  0  0  1  0  0  0  0  0  0
  -31.3220  -17.0090   21.7860 C   0  0  0  0  0  2  0  0  0  0  0  0
  -29.9400  -16.4660   21.3550 C   0  0  0  0  0  2  0  0  0  0  0  0
  -30.6840  -14.7460   19.7660 C   0  0  0  0  0  0  0  0  0  0  0  0
  -30.1290  -12.7240   18.4900 C   0  0  0  0  0  2  0  0  0  0  0  0
  -29.0600  -13.0920   17.4420 C   0  0  0  0  0  2  0  0  0  0  0  0
  -27.6420  -12.9940   18.0420 C   0  0  0  0  0  2  0  0  0  0  0  0
  -27.5100  -13.6900   19.4260 C   0  0  0  0  0  3  0  0  0  0  0  0
  -28.6910  -13.3290   20.3550 C   0  0  0  0  0  2  0  0  0  0  0  0
  -29.9380  -13.6200   19.6370 N   0  0  0  0  0  0  0  0  0  0  0  0
  -31.8090  -14.8650   19.2680 O   0  0  0  0  0  0  0  0  0  0  0  0
  -29.9630  -15.8600   20.0110 N   0  0  0  0  0  0  0  0  0  0  0  0
  -25.2390  -14.2820   20.4800 C   0  0  0  0  0  0  0  0  0  0  0  0
  -24.2040  -13.5000   20.9220 C   0  0  0  0  0  0  0  0  0  0  0  0
  -24.6230  -12.1480   20.7330 C   0  0  0  0  0  0  0  0  0  0  0  0
  -26.2230  -13.4020   20.0540 N   0  0  0  0  0  0  0  0  0  0  0  0
  -25.8640  -12.1100   20.2640 N   0  0  0  0  0  0  0  0  0  0  0  0
  -23.8920  -10.8870   20.9190 C   0  0  0  0  0  0  0  0  0  0  0  0
  -24.3930   -9.8590   21.7470 C   0  0  0  0  0  3  0  0  0  0  0  0
  -23.6640   -8.6630   21.9260 C   0  0  0  0  0  3  0  0  0  0  0  0
  -22.4210   -8.4860   21.2750 C   0  0  0  0  0  0  0  0  0  0  0  0
  -21.9370   -9.5020   20.4330 C   0  0  0  0  0  3  0  0  0  0  0  0
  -22.6660  -10.6890   20.2520 C   0  0  0  0  0  3  0  0  0  0  0  0
  -21.6560   -7.3480   21.3690 O   0  0  0  0  0  0  0  0  0  0  0  0
  -21.6580   -6.5680   22.4970 C   0  0  0  0  0  0  0  0  0  0  0  0
  -21.2960   -7.0840   23.7610 C   0  0  0  0  0  3  0  0  0  0  0  0
  -21.2470   -6.2310   24.8820 C   0  0  0  0  0  3  0  0  0  0  0  0
  -21.5480   -4.8630   24.7390 C   0  0  0  0  0  0  0  0  0  0  0  0
  -21.9030   -4.3460   23.4820 C   0  0  0  0  0  3  0  0  0  0  0  0
  -21.9540   -5.1960   22.3630 C   0  0  0  0  0  0  0  0  0  0  0  0
  -22.2760   -4.6890   21.1470 F   0  0  0  0  0  0  0  0  0  0  0  0
  -21.4920   -4.0420   25.8140 F   0  0  0  0  0  0  0  0  0  0  0  0
  -22.8650  -13.9780   21.4020 C   0  0  0  0  0  0  0  0  0  0  0  0
  -22.2530  -13.2550   22.3330 N   0  0  0  0  0  0  0  0  0  0  0  0
  -22.3710  -15.0250   20.9840 O   0  0  0  0  0  0  0  0  0  0  0  0
  -22.6670  -12.4080   22.6930 H   0  0  0  0  0  0  0  0  0  0  0  0
  -21.3580  -13.5550   22.6940 H   0  0  0  0  0  0  0  0  0  0  0  0
  -25.4170  -15.6600   20.3850 N   0  0  0  0  0  0  0  0  0  0  0  0
  -24.6910  -16.3200   20.6370 H   0  0  0  0  0  0  0  0  0  0  0  0
  -26.2430  -16.1010   20.0010 H   0  0  0  0  0  0  0  0  0  0  0  0
  -29.8000  -16.7740   18.8580 C   0  0  0  0  0  2  0  0  0  0  0  0
  -28.8520  -17.9670   19.0670 C   0  0  0  0  0  2  0  0  0  0  0  0
  -27.6460  -19.9130   17.9560 C   0  0  0  0  0  1  0  0  0  0  0  0
  -28.5980  -18.7300   17.7590 C   0  0  0  0  0  2  0  0  0  0  0  0
  1  8  1  0
  2  4  1  0
  2  1  2  0
  3  7  1  0
  3  6  2  0
  5  7  1  0
  6  1  1  0
  7  2  1  0
  9  8  1  0
 10  9  1  0
 11 12  1  0
 12 10  1  0
 12 13  1  1
 14 15  1  0
 14 12  1  0
 16 17  1  0
 16 15  1  0
 18 29  2  0
 19 17  1  0
 19 24  1  0
 20 28  1  0
 20 30  1  0
 21 27  1  0
 21 23  1  0
 22 28  1  0
 23 24  2  0
 23 22  1  0
 25 19  2  0
 26 25  1  0
 26 21  2  0
 27 20  1  0
 28 18  1  0
 30 32  2  0
 31 30  1  0
 33 31  1  0
 34 39  1  0
 35 31  1  0
 36 35  1  0
 37 38  1  0
 37 36  1  0
 38 34  1  0
 39 35  1  0
 39 40  2  0
 41 40  1  0
 42 41  2  0
 43 34  2  0
 43 42  1  0
 44 18  1  0
 44 45  1  0
 44 54  1  0
 45 48  1  0
 46 50  1  0
 46 45  1  0
 47 46  2  0
 50 49  1  0
 50 52  1  0
 52 53  1  0
 52 51  1  0
 54 55  1  1
 54 57  1  0
 56 54  1  0
 58  3  1  0
 59 58  1  0
 60 68  1  0
 61 66  1  0
 62 63  1  0
 62 61  1  0
 64 63  1  0
 64 72  1  0
 64 65  1  0
 66 60  1  0
 66 65  1  0
 67 60  2  0
 68 59  1  0
 69 70  2  0
 70 89  1  0
 71 74  1  0
 71 70  1  0
 72 73  1  0
 72 69  1  0
 73 71  2  0
 74 75  1  0
 75 76  2  0
 77 80  1  0
 77 76  1  0
 78 77  2  0
 79 78  1  0
 79 74  2  0
 80 81  1  0
 81 82  1  0
 82 83  2  0
 84 83  1  0
 84 88  1  0
 85 84  2  0
 86 81  2  0
 86 85  1  0
 87 86  1  0
 89 90  1  0
 90 92  1  0
 90 93  1  0
 91 89  2  0
 94 69  1  0
 94 95  1  0
 96 94  1  0
 97 98  1  0
 97 68  1  0
100 99  1  0
100 98  1  0
M  ISO  4  16 101  17 101  60 100  68 100
M  END
>  <TORSDO>  (22) 
F 28

>  <SCORE>  (22) 
-5.151

>  <name>  (22) 
22

>  <ligand_id>  (22) 
22

>  <original_smiles>  (22) 
[H]c1c([H])c([H])c2c(c1[H])C([H])([H])C([H])([H])C([H])([H])C2([H])N([H])C(=O)C1([H])N(C(=O)C([H])(N([H])C(=O)C([H])(N([H])C([H])([H])[H])C([H])([H])[H])C(C([H])([H])[H])(C([H])([H])[H])C([H])([H])[H])C([H])([H])c2c([H])c(OC([H])([H])C([H])([H])C([H])([H])[N+]([H])(C([H])([H])[H])C([H])([H])C([H])([H])C([H])([H])c3nc(C([H])([H])C([H])([H])N(C(=O)N4C([H])([H])C([H])([H])C([H])([H])C([H])(n5nc(-c6c([H])c([H])c(Oc7c([H])c([H])c(F)c([H])c7F)c([H])c6[H])c(C(=O)N([H])[H])c5N([H])[H])C4([H])[H])C([H])([H])C([H])([H])C([H])([H])C([H])([H])[H])n(C([H])([H])[H])c3C([H])([H])[H])c([H])c([H])c2C1([H])[H]

>  <smiles>  (22) 
[H]c1c([H])c([H])c2c(c1[H])C([H])([H])C([H])([H])C([H])([H])C2([H])N([H])C(=O)C1([H])N(C(=O)C([H])(N([H])C(=O)C([H])(N([H])C([H])([H])[H])C([H])([H])[H])C(C([H])([H])[H])(C([H])([H])[H])C([H])([H])[H])C([H])([H])c2c([H])c(OC([H])([H])C([H])([H])C([H])([H])[N+]([H])(C([H])([H])[H])C([H])([H])C([H])([H])C([H])([H])c3nc(C([H])([H])C([H])([H])N(C(=O)N4C([H])([H])C([H])([H])C([H])([H])C([H])(n5nc(-c6c([H])c([H])c(Oc7c([H])c([H])c(F)c([H])c7F)c([H])c6[H])c(C(=O)N([H])[H])c5N([H])[H])C4([H])[H])C([H])([H])C([H])([H])C([H])([H])C([H])([H])[H])n(C([H])([H])[H])c3C([H])([H])[H])c([H])c([H])c2C1([H])[H]

$$$$
23:0:0
     RDKit          3D

 95103  0  0  1  0  0  0  0  0999 V2000
  -30.2920  -24.4110   21.4290 C   0  0  0  0  0  3  0  0  0  0  0  0
  -31.3220  -23.4700   21.1780 C   0  0  0  0  0  0  0  0  0  0  0  0
  -30.0810  -25.4550   20.5010 C   0  0  0  0  0  0  0  0  0  0  0  0
  -32.0730  -23.6670   19.9880 C   0  0  0  0  0  0  0  0  0  0  0  0
  -33.2850  -22.8300   19.6200 C   0  0  0  0  0  1  0  0  0  0  0  0
  -30.8120  -25.5450   19.3610 N   0  0  0  0  0  0  0  0  0  0  0  0
  -31.7880  -24.6650   19.1130 N   0  0  0  0  0  0  0  0  0  0  0  0
  -31.6590  -22.4330   22.2590 C   0  0  0  0  0  2  0  0  0  0  0  0
  -32.0630  -20.9710   21.8880 C   0  0  0  0  0  2  0  0  0  0  0  0
  -29.6410  -20.4840   21.4120 C   0  0  0  0  0  1  0  0  0  0  0  0
  -31.0530  -20.0530   21.2640 N   0  0  2  0  0  4  0  0  0  0  0  0
  -31.2470  -20.0640   20.2720 H   0  0  0  0  0  0  0  0  0  0  0  0
  -31.2840  -18.6490   21.7370 C   0  0  0  0  0  2  0  0  0  0  0  0
  -30.5590  -17.5080   20.9730 C   0  0  0  0  0  2  0  0  0  0  0  0
  -30.9470  -16.1300   21.5730 C   0  0  0  0  0  2  0  0  0  0  0  0
  -30.6090  -14.1300   20.0990 C   0  0  0  0  0  0  0  0  0  0  0  0
  -30.1820  -12.0050   18.9120 C   0  0  0  0  0  2  0  0  0  0  0  0
  -29.1550  -12.2010   17.7810 C   0  0  0  0  0  2  0  0  0  0  0  0
  -27.7200  -12.0450   18.3200 C   0  0  0  0  0  2  0  0  0  0  0  0
  -27.4700  -12.8960   19.5940 C   0  0  0  0  0  3  0  0  0  0  0  0
  -28.6000  -12.6890   20.6270 C   0  0  0  0  0  2  0  0  0  0  0  0
  -29.8870  -12.9850   19.9700 N   0  0  0  0  0  0  0  0  0  0  0  0
  -31.6020  -14.3820   19.4120 O   0  0  0  0  0  0  0  0  0  0  0  0
  -30.1920  -14.9810   21.0530 N   0  0  0  0  0  0  0  0  0  0  0  0
  -29.3700  -14.7000   21.5670 H   0  0  0  0  0  0  0  0  0  0  0  0
  -25.1430  -13.5100   20.5100 C   0  0  0  0  0  0  0  0  0  0  0  0
  -24.0980  -12.7400   20.9460 C   0  0  0  0  0  0  0  0  0  0  0  0
  -24.5370  -11.3840   20.8390 C   0  0  0  0  0  0  0  0  0  0  0  0
  -26.1550  -12.6240   20.1710 N   0  0  0  0  0  0  0  0  0  0  0  0
  -25.7970  -11.3390   20.4240 N   0  0  0  0  0  0  0  0  0  0  0  0
  -23.8130  -10.1260   21.0560 C   0  0  0  0  0  0  0  0  0  0  0  0
  -24.2650   -9.1630   21.9850 C   0  0  0  0  0  3  0  0  0  0  0  0
  -23.5390   -7.9690   22.1900 C   0  0  0  0  0  3  0  0  0  0  0  0
  -22.3480   -7.7290   21.4650 C   0  0  0  0  0  0  0  0  0  0  0  0
  -21.9140   -8.6800   20.5250 C   0  0  0  0  0  3  0  0  0  0  0  0
  -22.6400   -9.8660   20.3190 C   0  0  0  0  0  3  0  0  0  0  0  0
  -21.5950   -6.5860   21.5760 O   0  0  0  0  0  0  0  0  0  0  0  0
  -21.5380   -5.8720   22.7450 C   0  0  0  0  0  0  0  0  0  0  0  0
  -21.0610   -6.4440   23.9450 C   0  0  0  0  0  3  0  0  0  0  0  0
  -20.9540   -5.6550   25.1080 C   0  0  0  0  0  3  0  0  0  0  0  0
  -21.3150   -4.2950   25.0710 C   0  0  0  0  0  0  0  0  0  0  0  0
  -21.7870   -3.7230   23.8770 C   0  0  0  0  0  3  0  0  0  0  0  0
  -21.8950   -4.5080   22.7170 C   0  0  0  0  0  0  0  0  0  0  0  0
  -22.3300   -3.9480   21.5630 F   0  0  0  0  0  0  0  0  0  0  0  0
  -21.2050   -3.5350   26.1860 F   0  0  0  0  0  0  0  0  0  0  0  0
  -22.7350  -13.2260   21.3470 C   0  0  0  0  0  0  0  0  0  0  0  0
  -22.0690  -12.5120   22.2470 N   0  0  0  0  0  0  0  0  0  0  0  0
  -22.2720  -14.2740   20.8990 O   0  0  0  0  0  0  0  0  0  0  0  0
  -22.4590  -11.6670   22.6370 H   0  0  0  0  0  0  0  0  0  0  0  0
  -21.1570  -12.8190   22.5530 H   0  0  0  0  0  0  0  0  0  0  0  0
  -25.3130  -14.8830   20.3570 N   0  0  0  0  0  0  0  0  0  0  0  0
  -24.5680  -15.5460   20.5450 H   0  0  0  0  0  0  0  0  0  0  0  0
  -26.1490  -15.3190   19.9890 H   0  0  0  0  0  0  0  0  0  0  0  0
  -29.0630  -26.5700   20.7530 C   0  0  0  0  0  2  0  0  0  0  0  0
  -28.0620  -26.6130   19.7380 O   0  0  0  0  0  0  0  0  0  0  0  0
  -24.5610  -31.8080   23.2560 C   0  0  0  0  0  0  0  0  0  0  0  0
  -26.9630  -27.4260   19.9110 C   0  0  0  0  0  0  0  0  0  0  0  0
  -23.2450  -30.4970   21.6210 C   0  0  0  0  0  3  0  0  0  0  0  0
  -24.6010  -28.9720   20.0870 C   0  0  0  0  0  0  0  0  0  0  0  0
  -25.7660  -30.8010   21.3250 C   0  0  0  0  0  2  0  0  0  0  0  0
  -25.7930  -29.4470   20.6490 C   0  0  0  0  0  0  0  0  0  0  0  0
  -26.9770  -28.6780   20.5740 C   0  0  0  0  0  3  0  0  0  0  0  0
  -25.7570  -26.9700   19.3440 C   0  0  0  0  0  3  0  0  0  0  0  0
  -24.5750  -27.7270   19.4360 C   0  0  0  0  0  3  0  0  0  0  0  0
  -23.3780  -29.8550   20.2140 C   0  0  0  0  0  2  0  0  0  0  0  0
  -24.5450  -31.0470   22.1260 N   0  0  0  0  0  0  0  0  0  0  0  0
  -23.5130  -32.0890   23.8540 O   0  0  0  0  0  0  0  0  0  0  0  0
  -22.6070  -29.4610   22.5750 C   0  0  0  0  0  0  0  0  0  0  0  0
  -21.2900  -29.2430   22.4280 N   0  0  0  0  0  0  0  0  0  0  0  0
  -23.2950  -28.8550   23.4010 O   0  0  0  0  0  0  0  0  0  0  0  0
  -20.7950  -29.7840   21.7320 H   0  0  0  0  0  0  0  0  0  0  0  0
  -17.9700  -27.8630   22.7790 C   0  0  0  0  0  0  0  0  0  0  0  0
  -20.4870  -28.2850   23.1870 C   0  0  0  0  0  3  0  0  0  0  0  0
  -20.7080  -26.8440   22.6760 C   0  0  0  0  0  2  0  0  0  0  0  0
  -19.6910  -26.4180   21.6130 C   0  0  0  0  0  2  0  0  0  0  0  0
  -18.2670  -26.5030   22.1690 C   0  0  0  0  0  2  0  0  0  0  0  0
  -19.0150  -28.7070   23.2420 C   0  0  0  0  0  0  0  0  0  0  0  0
  -18.6880  -29.9760   23.7680 C   0  0  0  0  0  3  0  0  0  0  0  0
  -17.3490  -30.4040   23.8370 C   0  0  0  0  0  3  0  0  0  0  0  0
  -16.3180  -29.5590   23.3920 C   0  0  0  0  0  3  0  0  0  0  0  0
  -16.6300  -28.2890   22.8690 C   0  0  0  0  0  3  0  0  0  0  0  0
  -25.8910  -32.3810   23.8380 C   0  0  0  0  0  3  0  0  0  0  0  0
  -25.6460  -33.7810   24.2100 N   0  0  0  0  0  0  0  0  0  0  0  0
  -25.9510  -34.8350   23.4430 C   0  0  0  0  0  0  0  0  0  0  0  0
  -26.5420  -34.7310   22.3630 O   0  0  0  0  0  0  0  0  0  0  0  0
  -25.1170  -33.9390   25.0550 H   0  0  0  0  0  0  0  0  0  0  0  0
  -24.2400  -36.6670   23.2480 C   0  0  0  0  0  1  0  0  0  0  0  0
  -25.5330  -36.2280   23.9520 C   0  0  0  0  0  3  0  0  0  0  0  0
  -27.7410  -37.0620   24.6240 C   0  0  0  0  0  1  0  0  0  0  0  0
  -26.5760  -37.2600   23.7660 N   0  0  0  0  0  0  0  0  0  0  0  0
  -26.2010  -38.1860   23.9500 H   0  0  0  0  0  0  0  0  0  0  0  0
  -26.4370  -31.5610   25.0710 C   0  0  1  0  0  0  0  0  0  0  0  0
  -25.3800  -31.3230   26.1740 C   0  0  0  0  0  1  0  0  0  0  0  0
  -26.9640  -30.1800   24.6170 C   0  0  0  0  0  1  0  0  0  0  0  0
  -27.6350  -32.3040   25.7060 C   0  0  0  0  0  1  0  0  0  0  0  0
  2  1  1  0
  2  8  1  0
  3 54  1  0
  3  1  2  0
  4  2  2  0
  5  4  1  0
  6  3  1  0
  7  6  2  0
  7  4  1  0
  9  8  1  0
 11 10  1  0
 11 13  1  0
 11  9  1  0
 11 12  1  6
 14 15  1  0
 14 13  1  0
 16 24  1  0
 17 22  1  0
 18 19  1  0
 18 17  1  0
 20 19  1  0
 20 29  1  0
 20 21  1  0
 22 16  1  0
 22 21  1  0
 23 16  2  0
 24 25  1  0
 24 15  1  0
 26 27  2  0
 27 46  1  0
 28 27  1  0
 28 31  1  0
 29 30  1  0
 29 26  1  0
 30 28  2  0
 31 32  1  0
 32 33  2  0
 34 37  1  0
 34 33  1  0
 35 34  2  0
 36 35  1  0
 36 31  2  0
 37 38  1  0
 38 39  1  0
 39 40  2  0
 41 40  1  0
 41 45  1  0
 42 41  2  0
 43 38  2  0
 43 42  1  0
 44 43  1  0
 46 47  1  0
 47 50  1  0
 47 49  1  0
 48 46  2  0
 51 26  1  0
 51 52  1  0
 53 51  1  0
 55 57  1  0
 55 54  1  0
 56 67  2  0
 57 62  1  0
 58 66  1  0
 58 68  1  0
 59 65  1  0
 59 61  1  0
 60 66  1  0
 61 60  1  0
 62 61  2  0
 63 64  1  0
 63 57  2  0
 64 59  2  0
 65 58  1  0
 66 56  1  0
 68 70  2  0
 69 68  1  0
 71 69  1  0
 72 81  2  0
 72 77  1  0
 73 69  1  0
 73 77  1  0
 74 73  1  0
 75 76  1  0
 75 74  1  0
 76 72  1  0
 77 78  2  0
 78 79  1  0
 80 79  2  0
 81 80  1  0
 82 56  1  0
 82 83  1  0
 82 92  1  0
 83 86  1  0
 84 88  1  0
 84 83  1  0
 85 84  2  0
 88 87  1  0
 90 91  1  0
 90 88  1  0
 90 89  1  0
 92 95  1  1
 92 93  1  0
 94 92  1  0
M  ISO  4  16 100  24 100  54 101  55 101
M  END
>  <TORSDO>  (23) 
F 23

>  <SCORE>  (23) 
-11.624

>  <name>  (23) 
23

>  <ligand_id>  (23) 
23

>  <original_smiles>  (23) 
[H]c1c([H])c([H])c2c(c1[H])C([H])([H])C([H])([H])C([H])([H])C2([H])N([H])C(=O)C1([H])N(C(=O)C([H])(N([H])C(=O)C([H])(N([H])C([H])([H])[H])C([H])([H])[H])C(C([H])([H])[H])(C([H])([H])[H])C([H])([H])[H])C([H])([H])c2c([H])c(OC([H])([H])c3nnc(C([H])([H])[H])c(C([H])([H])C([H])([H])[N+]([H])(C([H])([H])[H])C([H])([H])C([H])([H])C([H])([H])N([H])C(=O)N4C([H])([H])C([H])([H])C([H])([H])C([H])(n5nc(-c6c([H])c([H])c(Oc7c([H])c([H])c(F)c([H])c7F)c([H])c6[H])c(C(=O)N([H])[H])c5N([H])[H])C4([H])[H])c3[H])c([H])c([H])c2C1([H])[H]

>  <smiles>  (23) 
[H]c1c([H])c([H])c2c(c1[H])C([H])([H])C([H])([H])C([H])([H])C2([H])N([H])C(=O)C1([H])N(C(=O)C([H])(N([H])C(=O)C([H])(N([H])C([H])([H])[H])C([H])([H])[H])C(C([H])([H])[H])(C([H])([H])[H])C([H])([H])[H])C([H])([H])c2c([H])c(OC([H])([H])c3nnc(C([H])([H])[H])c(C([H])([H])C([H])([H])[N+]([H])(C([H])([H])[H])C([H])([H])C([H])([H])C([H])([H])N([H])C(=O)N4C([H])([H])C([H])([H])C([H])([H])C([H])(n5nc(-c6c([H])c([H])c(Oc7c([H])c([H])c(F)c([H])c7F)c([H])c6[H])c(C(=O)N([H])[H])c5N([H])[H])C4([H])[H])c3[H])c([H])c([H])c2C1([H])[H]

$$$$
24:0:0
     RDKit          3D

 94102  0  0  1  0  0  0  0  0999 V2000
  -29.0160  -22.4720   20.0110 C   0  0  0  0  0  3  0  0  0  0  0  0
  -30.2770  -24.1240   21.2120 C   0  0  0  0  0  3  0  0  0  0  0  0
  -29.1570  -23.8560   20.4050 C   0  0  0  0  0  0  0  0  0  0  0  0
  -29.9830  -21.4810   20.4150 C   0  0  0  0  0  0  0  0  0  0  0  0
  -31.1710  -23.1640   21.5720 N   0  0  0  0  0  0  0  0  0  0  0  0
  -31.0410  -21.8900   21.1660 N   0  0  0  0  0  0  0  0  0  0  0  0
  -31.0960  -20.0450   18.6980 C   0  0  0  0  0  1  0  0  0  0  0  0
  -30.0520  -19.9990   19.8240 C   0  0  0  0  0  3  0  0  0  0  0  0
  -30.6640  -19.0760   22.1650 C   0  0  0  0  0  1  0  0  0  0  0  0
  -28.7760  -18.0550   20.9790 C   0  0  0  0  0  1  0  0  0  0  0  0
  -30.1880  -18.6470   20.7580 C   0  0  1  0  0  0  0  0  0  0  0  0
  -31.2060  -17.4370   20.3140 C   0  0  0  0  0  2  0  0  0  0  0  0
  -31.3940  -14.8940   20.1440 C   0  0  0  0  0  0  0  0  0  0  0  0
  -31.1160  -12.5220   19.4520 C   0  0  0  0  0  2  0  0  0  0  0  0
  -30.2270  -12.4170   18.1970 C   0  0  0  0  0  2  0  0  0  0  0  0
  -28.7390  -12.3610   18.5800 C   0  0  0  0  0  2  0  0  0  0  0  0
  -28.3360  -13.4150   19.6460 C   0  0  0  0  0  3  0  0  0  0  0  0
  -29.3590  -13.5020   20.7970 C   0  0  0  0  0  2  0  0  0  0  0  0
  -30.6780  -13.7210   20.1900 N   0  0  0  0  0  0  0  0  0  0  0  0
  -32.6260  -14.8600   20.1340 O   0  0  0  0  0  0  0  0  0  0  0  0
  -30.7610  -16.0790   19.7660 N   0  0  0  0  0  0  0  0  0  0  0  0
  -25.9630  -14.1330   20.2920 C   0  0  0  0  0  0  0  0  0  0  0  0
  -24.8510  -13.4170   20.6450 C   0  0  0  0  0  0  0  0  0  0  0  0
  -25.2570  -12.0470   20.6720 C   0  0  0  0  0  0  0  0  0  0  0  0
  -26.9740  -13.2030   20.1200 N   0  0  0  0  0  0  0  0  0  0  0  0
  -26.5550  -11.9450   20.4160 N   0  0  0  0  0  0  0  0  0  0  0  0
  -24.4710  -10.8230   20.8700 C   0  0  0  0  0  0  0  0  0  0  0  0
  -24.8230   -9.8710   21.8530 C   0  0  0  0  0  3  0  0  0  0  0  0
  -24.0390   -8.7120   22.0390 C   0  0  0  0  0  3  0  0  0  0  0  0
  -22.8910   -8.4960   21.2410 C   0  0  0  0  0  0  0  0  0  0  0  0
  -22.5590   -9.4330   20.2470 C   0  0  0  0  0  3  0  0  0  0  0  0
  -23.3430  -10.5850   20.0600 C   0  0  0  0  0  3  0  0  0  0  0  0
  -22.0840   -7.3870   21.3340 O   0  0  0  0  0  0  0  0  0  0  0  0
  -21.9200   -6.7140   22.5180 C   0  0  0  0  0  0  0  0  0  0  0  0
  -21.4190   -7.3510   23.6750 C   0  0  0  0  0  3  0  0  0  0  0  0
  -21.2010   -6.6050   24.8500 C   0  0  0  0  0  3  0  0  0  0  0  0
  -21.4740   -5.2240   24.8700 C   0  0  0  0  0  0  0  0  0  0  0  0
  -21.9690   -4.5880   23.7190 C   0  0  0  0  0  3  0  0  0  0  0  0
  -22.1880   -5.3300   22.5460 C   0  0  0  0  0  0  0  0  0  0  0  0
  -22.6450   -4.7080   21.4310 F   0  0  0  0  0  0  0  0  0  0  0  0
  -21.2580   -4.5070   25.9970 F   0  0  0  0  0  0  0  0  0  0  0  0
  -23.4680  -13.9610   20.8480 C   0  0  0  0  0  0  0  0  0  0  0  0
  -22.6910  -13.3410   21.7290 N   0  0  0  0  0  0  0  0  0  0  0  0
  -23.0850  -14.9720   20.2610 O   0  0  0  0  0  0  0  0  0  0  0  0
  -23.0140  -12.5250   22.2270 H   0  0  0  0  0  0  0  0  0  0  0  0
  -21.7600  -13.6890   21.9090 H   0  0  0  0  0  0  0  0  0  0  0  0
  -26.1940  -15.4890   20.0800 N   0  0  0  0  0  0  0  0  0  0  0  0
  -25.4600  -16.1830   20.1560 H   0  0  0  0  0  0  0  0  0  0  0  0
  -27.0870  -15.8820   19.8100 H   0  0  0  0  0  0  0  0  0  0  0  0
  -30.4990  -16.2070   18.3100 C   0  0  0  0  0  2  0  0  0  0  0  0
  -32.4390  -15.2790   16.7940 C   0  0  0  0  0  1  0  0  0  0  0  0
  -31.7430  -16.4930   17.4190 C   0  0  0  0  0  2  0  0  0  0  0  0
  -28.1180  -24.9730   20.0200 C   0  0  0  0  0  2  0  0  0  0  0  0
  -28.3930  -26.4340   20.1850 O   0  0  0  0  0  0  0  0  0  0  0  0
  -24.6430  -31.8500   23.1790 C   0  0  0  0  0  0  0  0  0  0  0  0
  -27.2890  -27.3100   20.1040 C   0  0  0  0  0  0  0  0  0  0  0  0
  -23.4440  -30.4280   21.5580 C   0  0  0  0  0  3  0  0  0  0  0  0
  -24.9050  -28.9070   20.1120 C   0  0  0  0  0  0  0  0  0  0  0  0
  -25.9790  -30.7830   21.3490 C   0  0  0  0  0  2  0  0  0  0  0  0
  -26.0750  -29.4060   20.7000 C   0  0  0  0  0  0  0  0  0  0  0  0
  -27.2680  -28.6180   20.6900 C   0  0  0  0  0  3  0  0  0  0  0  0
  -26.0960  -26.8890   19.4670 C   0  0  0  0  0  3  0  0  0  0  0  0
  -24.9190  -27.6550   19.4850 C   0  0  0  0  0  3  0  0  0  0  0  0
  -23.6540  -29.7590   20.1750 C   0  0  0  0  0  2  0  0  0  0  0  0
  -24.7080  -31.0380   22.0840 N   0  0  0  0  0  0  0  0  0  0  0  0
  -23.5600  -32.1120   23.7240 O   0  0  0  0  0  0  0  0  0  0  0  0
  -22.8110  -29.4010   22.5260 C   0  0  0  0  0  0  0  0  0  0  0  0
  -21.4850  -29.2060   22.4220 N   0  0  0  0  0  0  0  0  0  0  0  0
  -23.5110  -28.7810   23.3310 O   0  0  0  0  0  0  0  0  0  0  0  0
  -20.9780  -29.7580   21.7450 H   0  0  0  0  0  0  0  0  0  0  0  0
  -18.1340  -27.9540   22.9650 C   0  0  0  0  0  0  0  0  0  0  0  0
  -20.6900  -28.2590   23.2070 C   0  0  0  0  0  3  0  0  0  0  0  0
  -20.8110  -26.8260   22.6400 C   0  0  0  0  0  2  0  0  0  0  0  0
  -19.7050  -26.4780   21.6390 C   0  0  0  0  0  2  0  0  0  0  0  0
  -18.3280  -26.6040   22.2960 C   0  0  0  0  0  2  0  0  0  0  0  0
  -19.2440  -28.7380   23.3780 C   0  0  0  0  0  0  0  0  0  0  0  0
  -19.0100  -30.0000   23.9650 C   0  0  0  0  0  3  0  0  0  0  0  0
  -17.6970  -30.4800   24.1420 C   0  0  0  0  0  3  0  0  0  0  0  0
  -16.6030  -29.6930   23.7440 C   0  0  0  0  0  3  0  0  0  0  0  0
  -16.8220  -28.4320   23.1620 C   0  0  0  0  0  3  0  0  0  0  0  0
  -25.9210  -32.5070   23.7830 C   0  0  0  0  0  3  0  0  0  0  0  0
  -25.5830  -33.8950   24.1350 N   0  0  0  0  0  0  0  0  0  0  0  0
  -25.9260  -34.9690   23.4110 C   0  0  0  0  0  0  0  0  0  0  0  0
  -26.6310  -34.8980   22.4010 O   0  0  0  0  0  0  0  0  0  0  0  0
  -24.9620  -34.0240   24.9200 H   0  0  0  0  0  0  0  0  0  0  0  0
  -24.2050  -36.7630   23.0270 C   0  0  0  0  0  1  0  0  0  0  0  0
  -25.4080  -36.3410   23.8860 C   0  0  0  0  0  3  0  0  0  0  0  0
  -27.4940  -37.2110   24.8450 C   0  0  0  0  0  1  0  0  0  0  0  0
  -26.4370  -37.4030   23.8550 N   0  0  0  0  0  0  0  0  0  0  0  0
  -26.0180  -38.3150   24.0120 H   0  0  0  0  0  0  0  0  0  0  0  0
  -26.4800  -31.7360   25.0410 C   0  0  1  0  0  0  0  0  0  0  0  0
  -25.4120  -31.4600   26.1260 C   0  0  0  0  0  1  0  0  0  0  0  0
  -27.0890  -30.3780   24.6260 C   0  0  0  0  0  1  0  0  0  0  0  0
  -27.6220  -32.5520   25.6920 C   0  0  0  0  0  1  0  0  0  0  0  0
  1  3  2  0
  1  4  1  0
  2  5  2  0
  3  2  1  0
  4  6  2  0
  6  5  1  0
  8  7  1  0
  8  4  1  0
  8 11  1  0
 11 10  1  1
 11  9  1  0
 12 11  1  0
 13 19  1  0
 14 19  1  0
 15 16  1  0
 15 14  1  0
 17 16  1  0
 17 25  1  0
 17 18  1  0
 19 18  1  0
 20 13  2  0
 21 13  1  0
 21 12  1  0
 22 23  2  0
 23 24  1  0
 23 42  1  0
 24 27  1  0
 25 22  1  0
 25 26  1  0
 26 24  2  0
 27 28  1  0
 28 29  2  0
 30 33  1  0
 30 29  1  0
 31 30  2  0
 32 31  1  0
 32 27  2  0
 33 34  1  0
 34 39  2  0
 34 35  1  0
 35 36  2  0
 36 37  1  0
 37 41  1  0
 38 37  2  0
 39 38  1  0
 40 39  1  0
 42 43  1  0
 43 46  1  0
 43 45  1  0
 44 42  2  0
 47 48  1  0
 47 22  1  0
 49 47  1  0
 50 21  1  0
 51 52  1  0
 52 50  1  0
 53 54  1  0
 53  3  1  0
 55 66  2  0
 56 54  1  0
 56 61  1  0
 57 65  1  0
 57 67  1  0
 58 64  1  0
 58 60  1  0
 59 65  1  0
 60 59  1  0
 61 60  2  0
 62 63  1  0
 62 56  2  0
 63 58  2  0
 64 57  1  0
 65 55  1  0
 67 69  2  0
 68 67  1  0
 70 68  1  0
 71 80  2  0
 71 76  1  0
 72 68  1  0
 72 76  1  0
 73 72  1  0
 74 75  1  0
 74 73  1  0
 75 71  1  0
 76 77  2  0
 77 78  1  0
 79 78  2  0
 80 79  1  0
 81 55  1  0
 81 82  1  0
 81 91  1  0
 82 85  1  0
 83 87  1  0
 83 82  1  0
 84 83  2  0
 87 86  1  0
 89 87  1  0
 89 90  1  0
 89 88  1  0
 91 94  1  1
 91 92  1  0
 93 91  1  0
M  ISO  4  13 100  21 100  53 101  54 101
M  END
>  <TORSDO>  (24) 
F 22

>  <SCORE>  (24) 
-11.957

>  <name>  (24) 
24

>  <ligand_id>  (24) 
24

>  <original_smiles>  (24) 
[H]c1nnc(C([H])(C([H])([H])[H])C(C([H])([H])[H])(C([H])([H])[H])C([H])([H])N(C(=O)N2C([H])([H])C([H])([H])C([H])([H])C([H])(n3nc(-c4c([H])c([H])c(Oc5c([H])c([H])c(F)c([H])c5F)c([H])c4[H])c(C(=O)N([H])[H])c3N([H])[H])C2([H])[H])C([H])([H])C([H])([H])C([H])([H])[H])c([H])c1C([H])([H])Oc1c([H])c([H])c2c(c1[H])C([H])([H])N(C(=O)C([H])(N([H])C(=O)C([H])(N([H])C([H])([H])[H])C([H])([H])[H])C(C([H])([H])[H])(C([H])([H])[H])C([H])([H])[H])C([H])(C(=O)N([H])C1([H])c3c([H])c([H])c([H])c([H])c3C([H])([H])C([H])([H])C1([H])[H])C2([H])[H]

>  <smiles>  (24) 
[H]c1nnc(C([H])(C([H])([H])[H])C(C([H])([H])[H])(C([H])([H])[H])C([H])([H])N(C(=O)N2C([H])([H])C([H])([H])C([H])([H])C([H])(n3nc(-c4c([H])c([H])c(Oc5c([H])c([H])c(F)c([H])c5F)c([H])c4[H])c(C(=O)N([H])[H])c3N([H])[H])C2([H])[H])C([H])([H])C([H])([H])C([H])([H])[H])c([H])c1C([H])([H])Oc1c([H])c([H])c2c(c1[H])C([H])([H])N(C(=O)C([H])(N([H])C(=O)C([H])(N([H])C([H])([H])[H])C([H])([H])[H])C(C([H])([H])[H])(C([H])([H])[H])C([H])([H])[H])C([H])(C(=O)N([H])C1([H])c3c([H])c([H])c([H])c([H])c3C([H])([H])C([H])([H])C1([H])[H])C2([H])[H]

$$$$
25:0:0
     RDKit          3D

 91 99  0  0  1  0  0  0  0  0999 V2000
  -31.2870  -21.2860   20.4440 C   0  0  0  0  0  0  0  0  0  0  0  0
  -30.1140  -20.4950   20.5740 C   0  0  0  0  0  0  0  0  0  0  0  0
  -32.6670  -20.8460   20.0730 C   0  0  0  0  0  1  0  0  0  0  0  0
  -30.9910  -22.5440   20.6410 N   0  0  0  0  0  0  0  0  0  0  0  0
  -29.1030  -21.2720   20.8860 N   0  0  0  0  0  0  0  0  0  0  0  0
  -29.6600  -22.5160   20.9080 N   0  0  0  0  0  0  0  0  0  0  0  0
  -29.9810  -19.0280   20.2800 C   0  0  0  0  0  2  0  0  0  0  0  0
  -29.8700  -18.0830   21.5060 C   0  0  0  0  0  2  0  0  0  0  0  0
  -30.6090  -16.7060   21.3850 C   0  0  0  0  0  2  0  0  0  0  0  0
  -30.7000  -14.4960   20.3180 C   0  0  0  0  0  0  0  0  0  0  0  0
  -30.3570  -12.3270   19.2030 C   0  0  0  0  0  2  0  0  0  0  0  0
  -29.3810  -12.5050   18.0200 C   0  0  0  0  0  2  0  0  0  0  0  0
  -27.9230  -12.3530   18.4960 C   0  0  0  0  0  2  0  0  0  0  0  0
  -27.6010  -13.2020   19.7560 C   0  0  0  0  0  3  0  0  0  0  0  0
  -28.6940  -13.0400   20.8390 C   0  0  0  0  0  2  0  0  0  0  0  0
  -29.9990  -13.3300   20.2230 N   0  0  0  0  0  0  0  0  0  0  0  0
  -31.8840  -14.5830   19.9810 O   0  0  0  0  0  0  0  0  0  0  0  0
  -29.2800  -16.1690   19.3840 C   0  0  0  0  0  1  0  0  0  0  0  0
  -29.9910  -15.6350   20.5540 N   0  0  0  0  0  0  0  0  0  0  0  0
  -25.2260  -13.8240   20.5030 C   0  0  0  0  0  0  0  0  0  0  0  0
  -24.1590  -13.0570   20.8790 C   0  0  0  0  0  0  0  0  0  0  0  0
  -24.6180  -11.7030   20.8460 C   0  0  0  0  0  0  0  0  0  0  0  0
  -26.2640  -12.9360   20.2640 N   0  0  0  0  0  0  0  0  0  0  0  0
  -25.9050  -11.6580   20.5280 N   0  0  0  0  0  0  0  0  0  0  0  0
  -23.8930  -10.4440   21.0440 C   0  0  0  0  0  0  0  0  0  0  0  0
  -24.3500   -9.4710   21.9610 C   0  0  0  0  0  3  0  0  0  0  0  0
  -23.6300   -8.2720   22.1470 C   0  0  0  0  0  3  0  0  0  0  0  0
  -22.4430   -8.0360   21.4150 C   0  0  0  0  0  0  0  0  0  0  0  0
  -22.0030   -9.0000   20.4900 C   0  0  0  0  0  3  0  0  0  0  0  0
  -22.7240  -10.1900   20.3020 C   0  0  0  0  0  3  0  0  0  0  0  0
  -21.6930   -6.8880   21.5110 O   0  0  0  0  0  0  0  0  0  0  0  0
  -21.6790   -6.1300   22.6540 C   0  0  0  0  0  0  0  0  0  0  0  0
  -21.2980   -6.6710   23.9010 C   0  0  0  0  0  3  0  0  0  0  0  0
  -21.2260   -5.8410   25.0370 C   0  0  0  0  0  3  0  0  0  0  0  0
  -21.5300   -4.4710   24.9280 C   0  0  0  0  0  0  0  0  0  0  0  0
  -21.9050   -3.9280   23.6870 C   0  0  0  0  0  3  0  0  0  0  0  0
  -21.9750   -4.7560   22.5520 C   0  0  0  0  0  0  0  0  0  0  0  0
  -22.3130   -4.2240   21.3520 F   0  0  0  0  0  0  0  0  0  0  0  0
  -21.4550   -3.6710   26.0170 F   0  0  0  0  0  0  0  0  0  0  0  0
  -22.7660  -13.5390   21.1600 C   0  0  0  0  0  0  0  0  0  0  0  0
  -22.0420  -12.8510   22.0370 N   0  0  0  0  0  0  0  0  0  0  0  0
  -22.3260  -14.5620   20.6400 O   0  0  0  0  0  0  0  0  0  0  0  0
  -22.4080  -12.0250   22.4850 H   0  0  0  0  0  0  0  0  0  0  0  0
  -21.1060  -13.1580   22.2620 H   0  0  0  0  0  0  0  0  0  0  0  0
  -25.3880  -15.1970   20.3280 N   0  0  0  0  0  0  0  0  0  0  0  0
  -24.6220  -15.8540   20.4390 H   0  0  0  0  0  0  0  0  0  0  0  0
  -26.2520  -15.6370   20.0400 H   0  0  0  0  0  0  0  0  0  0  0  0
  -28.8630  -23.7220   21.0910 C   0  0  0  0  0  2  0  0  0  0  0  0
  -29.7140  -25.0000   21.2800 C   0  0  0  0  0  2  0  0  0  0  0  0
  -28.8850  -26.2860   21.4290 C   0  0  0  0  0  2  0  0  0  0  0  0
  -28.3730  -26.6560   20.1520 O   0  0  0  0  0  0  0  0  0  0  0  0
  -24.5920  -31.8730   23.2300 C   0  0  0  0  0  0  0  0  0  0  0  0
  -27.2390  -27.4270   20.1830 C   0  0  0  0  0  0  0  0  0  0  0  0
  -23.3880  -30.4630   21.5900 C   0  0  0  0  0  3  0  0  0  0  0  0
  -24.8460  -28.9180   20.1760 C   0  0  0  0  0  0  0  0  0  0  0  0
  -25.9130  -30.8210   21.3980 C   0  0  0  0  0  2  0  0  0  0  0  0
  -25.9990  -29.4460   20.7720 C   0  0  0  0  0  0  0  0  0  0  0  0
  -27.2010  -28.7050   20.7830 C   0  0  0  0  0  3  0  0  0  0  0  0
  -26.0800  -26.9120   19.5710 C   0  0  0  0  0  3  0  0  0  0  0  0
  -24.8810  -27.6480   19.5760 C   0  0  0  0  0  3  0  0  0  0  0  0
  -23.6010  -29.7750   20.2140 C   0  0  0  0  0  2  0  0  0  0  0  0
  -24.6490  -31.0670   22.1300 N   0  0  0  0  0  0  0  0  0  0  0  0
  -23.5120  -32.1460   23.7670 O   0  0  0  0  0  0  0  0  0  0  0  0
  -22.7370  -29.4450   22.5540 C   0  0  0  0  0  0  0  0  0  0  0  0
  -21.4120  -29.2670   22.4290 N   0  0  0  0  0  0  0  0  0  0  0  0
  -23.4190  -28.8200   23.3690 O   0  0  0  0  0  0  0  0  0  0  0  0
  -20.9210  -29.8310   21.7490 H   0  0  0  0  0  0  0  0  0  0  0  0
  -18.0350  -28.0800   22.9240 C   0  0  0  0  0  0  0  0  0  0  0  0
  -20.5920  -28.3320   23.2010 C   0  0  0  0  0  3  0  0  0  0  0  0
  -20.6910  -26.8980   22.6300 C   0  0  0  0  0  2  0  0  0  0  0  0
  -19.5890  -26.5730   21.6170 C   0  0  0  0  0  2  0  0  0  0  0  0
  -18.2070  -26.7260   22.2570 C   0  0  0  0  0  2  0  0  0  0  0  0
  -19.1560  -28.8400   23.3530 C   0  0  0  0  0  0  0  0  0  0  0  0
  -18.9400  -30.1070   23.9380 C   0  0  0  0  0  3  0  0  0  0  0  0
  -17.6370  -30.6140   24.0970 C   0  0  0  0  0  3  0  0  0  0  0  0
  -16.5300  -29.8510   23.6850 C   0  0  0  0  0  3  0  0  0  0  0  0
  -16.7310  -28.5870   23.1040 C   0  0  0  0  0  3  0  0  0  0  0  0
  -25.8790  -32.5040   23.8490 C   0  0  0  0  0  3  0  0  0  0  0  0
  -25.5740  -33.9030   24.1730 N   0  0  0  0  0  0  0  0  0  0  0  0
  -25.9070  -34.9510   23.4100 C   0  0  0  0  0  0  0  0  0  0  0  0
  -26.5780  -34.8440   22.3780 O   0  0  0  0  0  0  0  0  0  0  0  0
  -24.9860  -34.0620   24.9780 H   0  0  0  0  0  0  0  0  0  0  0  0
  -24.1810  -36.7420   23.0420 C   0  0  0  0  0  1  0  0  0  0  0  0
  -25.4190  -36.3410   23.8610 C   0  0  0  0  0  3  0  0  0  0  0  0
  -27.5530  -37.2240   24.6930 C   0  0  0  0  0  1  0  0  0  0  0  0
  -26.4520  -37.3920   23.7470 N   0  0  0  0  0  0  0  0  0  0  0  0
  -26.0470  -38.3130   23.8940 H   0  0  0  0  0  0  0  0  0  0  0  0
  -26.3990  -31.7340   25.1250 C   0  0  1  0  0  0  0  0  0  0  0  0
  -25.3090  -31.5010   26.1980 C   0  0  0  0  0  1  0  0  0  0  0  0
  -26.9830  -30.3580   24.7310 C   0  0  0  0  0  1  0  0  0  0  0  0
  -27.5490  -32.5320   25.7830 C   0  0  0  0  0  1  0  0  0  0  0  0
  1  2  1  0
  1  4  2  0
  2  5  2  0
  3  1  1  0
  4  6  1  0
  5  6  1  0
  6 48  1  0
  7  2  1  0
  7  8  1  0
  9  8  1  0
 10 19  1  0
 11 16  1  0
 12 13  1  0
 12 11  1  0
 14 13  1  0
 14 23  1  0
 14 15  1  0
 16 10  1  0
 16 15  1  0
 17 10  2  0
 18 19  1  0
 19  9  1  0
 20 21  2  0
 21 40  1  0
 22 21  1  0
 22 25  1  0
 23 20  1  0
 23 24  1  0
 24 22  2  0
 25 26  1  0
 26 27  2  0
 28 31  1  0
 28 27  1  0
 29 28  2  0
 30 29  1  0
 30 25  2  0
 31 32  1  0
 32 33  1  0
 33 34  2  0
 35 34  1  0
 35 39  1  0
 36 35  2  0
 37 32  2  0
 37 36  1  0
 38 37  1  0
 40 41  1  0
 41 44  1  0
 41 43  1  0
 42 40  2  0
 45 46  1  0
 45 20  1  0
 47 45  1  0
 48 49  1  0
 49 50  1  0
 51 53  1  0
 51 50  1  0
 52 63  2  0
 53 58  1  0
 54 62  1  0
 54 64  1  0
 55 61  1  0
 55 57  1  0
 56 62  1  0
 57 58  2  0
 57 56  1  0
 59 60  1  0
 59 53  2  0
 60 55  2  0
 61 54  1  0
 62 52  1  0
 64 66  2  0
 65 64  1  0
 67 65  1  0
 68 77  2  0
 68 73  1  0
 69 65  1  0
 69 73  1  0
 70 69  1  0
 71 72  1  0
 71 70  1  0
 72 68  1  0
 73 74  2  0
 74 75  1  0
 76 75  2  0
 77 76  1  0
 78 52  1  0
 78 79  1  0
 78 88  1  0
 79 82  1  0
 80 84  1  0
 80 79  1  0
 81 80  2  0
 84 83  1  0
 86 84  1  0
 86 87  1  0
 86 85  1  0
 88 91  1  1
 88 89  1  0
 90 88  1  0
M  ISO  4  10 100  19 100  50 101  51 101
M  END
>  <TORSDO>  (25) 
F 22

>  <SCORE>  (25) 
-13.148

>  <name>  (25) 
25

>  <ligand_id>  (25) 
25

>  <original_smiles>  (25) 
[H]c1c([H])c([H])c2c(c1[H])C([H])([H])C([H])([H])C([H])([H])C2([H])N([H])C(=O)C1([H])N(C(=O)C([H])(N([H])C(=O)C([H])(N([H])C([H])([H])[H])C([H])([H])[H])C(C([H])([H])[H])(C([H])([H])[H])C([H])([H])[H])C([H])([H])c2c([H])c(OC([H])([H])C([H])([H])C([H])([H])n3nc(C([H])([H])[H])c(C([H])([H])C([H])([H])C([H])([H])N(C(=O)N4C([H])([H])C([H])([H])C([H])([H])C([H])(n5nc(-c6c([H])c([H])c(Oc7c([H])c([H])c(F)c([H])c7F)c([H])c6[H])c(C(=O)N([H])[H])c5N([H])[H])C4([H])[H])C([H])([H])[H])n3)c([H])c([H])c2C1([H])[H]

>  <smiles>  (25) 
[H]c1c([H])c([H])c2c(c1[H])C([H])([H])C([H])([H])C([H])([H])C2([H])N([H])C(=O)C1([H])N(C(=O)C([H])(N([H])C(=O)C([H])(N([H])C([H])([H])[H])C([H])([H])[H])C(C([H])([H])[H])(C([H])([H])[H])C([H])([H])[H])C([H])([H])c2c([H])c(OC([H])([H])C([H])([H])C([H])([H])n3nc(C([H])([H])[H])c(C([H])([H])C([H])([H])C([H])([H])N(C(=O)N4C([H])([H])C([H])([H])C([H])([H])C([H])(n5nc(-c6c([H])c([H])c(Oc7c([H])c([H])c(F)c([H])c7F)c([H])c6[H])c(C(=O)N([H])[H])c5N([H])[H])C4([H])[H])C([H])([H])[H])n3)c([H])c([H])c2C1([H])[H]

$$$$
26:0:0
     RDKit          3D

 89 97  0  0  1  0  0  0  0  0999 V2000
  -27.8520  -22.1180   20.7230 C   0  0  0  0  0  2  0  0  0  0  0  0
  -29.4910  -21.0860   21.9030 C   0  0  0  0  0  3  0  0  0  0  0  0
  -28.6940  -22.1210   19.5990 C   0  0  0  0  0  3  0  0  0  0  0  0
  -29.6510  -20.9660   19.6280 C   0  0  0  0  0  3  0  0  0  0  0  0
  -28.2630  -21.5890   21.8890 N   0  0  0  0  0  0  0  0  0  0  0  0
  -30.2420  -20.8450   20.8330 N   0  0  0  0  0  2  0  0  0  0  0  0
  -28.8780  -23.6470   18.9910 C   0  0  0  0  0  2  0  0  0  0  0  0
  -27.8100  -24.9300   19.2650 C   0  0  0  0  0  2  0  0  0  0  0  0
  -28.0390  -26.4670   19.1600 O   0  0  0  0  0  0  0  0  0  0  0  0
  -24.5370  -31.6740   23.0460 C   0  0  0  0  0  0  0  0  0  0  0  0
  -26.9490  -27.4020   19.3120 C   0  0  0  0  0  0  0  0  0  0  0  0
  -23.2260  -30.4000   21.3940 C   0  0  0  0  0  3  0  0  0  0  0  0
  -24.5740  -29.0420   19.6850 C   0  0  0  0  0  0  0  0  0  0  0  0
  -25.7410  -30.7910   21.0120 C   0  0  0  0  0  2  0  0  0  0  0  0
  -25.7950  -29.4750   20.2180 C   0  0  0  0  0  0  0  0  0  0  0  0
  -26.9810  -28.6750   20.0130 C   0  0  0  0  0  3  0  0  0  0  0  0
  -25.6900  -27.0740   18.7570 C   0  0  0  0  0  3  0  0  0  0  0  0
  -24.5330  -27.8570   18.9400 C   0  0  0  0  0  3  0  0  0  0  0  0
  -23.3300  -29.8770   19.9380 C   0  0  0  0  0  2  0  0  0  0  0  0
  -24.5260  -30.9720   21.8720 N   0  0  0  0  0  0  0  0  0  0  0  0
  -23.5000  -31.8590   23.7010 O   0  0  0  0  0  0  0  0  0  0  0  0
  -22.6780  -29.2720   22.3050 C   0  0  0  0  0  0  0  0  0  0  0  0
  -21.3670  -28.9860   22.2070 N   0  0  0  0  0  0  0  0  0  0  0  0
  -23.4340  -28.6580   23.0620 O   0  0  0  0  0  0  0  0  0  0  0  0
  -20.8060  -29.5400   21.5760 H   0  0  0  0  0  0  0  0  0  0  0  0
  -18.1610  -27.3550   22.6320 C   0  0  0  0  0  0  0  0  0  0  0  0
  -20.6630  -27.9300   22.9400 C   0  0  0  0  0  3  0  0  0  0  0  0
  -20.9510  -26.5390   22.3280 C   0  0  0  0  0  2  0  0  0  0  0  0
  -19.9090  -26.1110   21.2890 C   0  0  0  0  0  2  0  0  0  0  0  0
  -18.5130  -26.0600   21.9180 C   0  0  0  0  0  2  0  0  0  0  0  0
  -19.1690  -28.2410   23.0970 C   0  0  0  0  0  0  0  0  0  0  0  0
  -18.7850  -29.4450   23.7250 C   0  0  0  0  0  3  0  0  0  0  0  0
  -17.4240  -29.7700   23.8890 C   0  0  0  0  0  3  0  0  0  0  0  0
  -16.4310  -28.8840   23.4380 C   0  0  0  0  0  3  0  0  0  0  0  0
  -16.7990  -27.6790   22.8150 C   0  0  0  0  0  3  0  0  0  0  0  0
  -25.8480  -32.2970   23.6110 C   0  0  0  0  0  3  0  0  0  0  0  0
  -26.4660  -31.4680   24.8060 C   0  0  1  0  0  0  0  0  0  0  0  0
  -25.4550  -31.1640   25.9370 C   0  0  0  0  0  1  0  0  0  0  0  0
  -27.0290  -30.1170   24.3070 C   0  0  0  0  0  1  0  0  0  0  0  0
  -27.6550  -32.2440   25.4190 C   0  0  0  0  0  1  0  0  0  0  0  0
  -25.5430  -33.6690   24.0440 N   0  0  0  0  0  0  0  0  0  0  0  0
  -25.8560  -34.7750   23.3550 C   0  0  0  0  0  0  0  0  0  0  0  0
  -26.5010  -34.7450   22.3040 O   0  0  0  0  0  0  0  0  0  0  0  0
  -24.9670  -33.7650   24.8680 H   0  0  0  0  0  0  0  0  0  0  0  0
  -24.1290  -36.5970   23.1670 C   0  0  0  0  0  1  0  0  0  0  0  0
  -25.3830  -36.1280   23.9220 C   0  0  0  0  0  3  0  0  0  0  0  0
  -27.5340  -36.9490   24.7780 C   0  0  0  0  0  1  0  0  0  0  0  0
  -26.4170  -37.1850   23.8680 N   0  0  0  0  0  0  0  0  0  0  0  0
  -26.0160  -38.0920   24.0880 H   0  0  0  0  0  0  0  0  0  0  0  0
  -29.3610  -19.3750   19.2780 C   0  0  0  0  0  3  0  0  0  0  0  0
  -30.4300  -18.0980   19.5990 C   0  0  0  0  0  3  0  0  0  0  0  0
  -30.8800  -15.3710   19.6420 C   0  0  0  0  0  0  0  0  0  0  0  0
  -30.7860  -12.9280   18.9780 C   0  0  0  0  0  2  0  0  0  0  0  0
  -29.8210  -12.7110   17.7900 C   0  0  0  0  0  2  0  0  0  0  0  0
  -28.3740  -12.5260   18.2870 C   0  0  0  0  0  2  0  0  0  0  0  0
  -27.9740  -13.5770   19.3570 C   0  0  0  0  0  3  0  0  0  0  0  0
  -29.0590  -13.7500   20.4400 C   0  0  0  0  0  2  0  0  0  0  0  0
  -30.3000  -14.1090   19.7430 N   0  0  0  0  0  0  0  0  0  0  0  0
  -32.0830  -15.4240   19.3680 O   0  0  0  0  0  0  0  0  0  0  0  0
  -30.0860  -16.5500   19.6400 N   0  0  0  0  0  0  0  0  0  0  0  0
  -29.1040  -16.3560   19.7740 H   0  0  0  0  0  0  0  0  0  0  0  0
  -25.6620  -14.2090   20.2540 C   0  0  0  0  0  0  0  0  0  0  0  0
  -24.5950  -13.4580   20.6660 C   0  0  0  0  0  0  0  0  0  0  0  0
  -25.0120  -12.0950   20.5710 C   0  0  0  0  0  0  0  0  0  0  0  0
  -26.6590  -13.3070   19.9300 N   0  0  0  0  0  0  0  0  0  0  0  0
  -26.2820  -12.0270   20.1850 N   0  0  0  0  0  0  0  0  0  0  0  0
  -24.2540  -10.8520   20.7670 C   0  0  0  0  0  0  0  0  0  0  0  0
  -24.6600   -9.8770   21.7050 C   0  0  0  0  0  3  0  0  0  0  0  0
  -23.9020   -8.7010   21.8890 C   0  0  0  0  0  3  0  0  0  0  0  0
  -22.7230   -8.4910   21.1340 C   0  0  0  0  0  0  0  0  0  0  0  0
  -22.3360   -9.4530   20.1850 C   0  0  0  0  0  3  0  0  0  0  0  0
  -23.0950  -10.6210   19.9990 C   0  0  0  0  0  3  0  0  0  0  0  0
  -21.9380   -7.3680   21.2280 O   0  0  0  0  0  0  0  0  0  0  0  0
  -21.8180   -6.6700   22.4030 C   0  0  0  0  0  0  0  0  0  0  0  0
  -21.3290   -7.2740   23.5820 C   0  0  0  0  0  3  0  0  0  0  0  0
  -21.1560   -6.5030   24.7490 C   0  0  0  0  0  3  0  0  0  0  0  0
  -21.4600   -5.1280   24.7360 C   0  0  0  0  0  0  0  0  0  0  0  0
  -21.9410   -4.5240   23.5610 C   0  0  0  0  0  3  0  0  0  0  0  0
  -22.1170   -5.2920   22.3980 C   0  0  0  0  0  0  0  0  0  0  0  0
  -22.5610   -4.7010   21.2630 F   0  0  0  0  0  0  0  0  0  0  0  0
  -21.2870   -4.3840   25.8550 F   0  0  0  0  0  0  0  0  0  0  0  0
  -23.2320  -13.9730   21.0260 C   0  0  0  0  0  0  0  0  0  0  0  0
  -22.5340  -13.2860   21.9220 N   0  0  0  0  0  0  0  0  0  0  0  0
  -22.7980  -15.0200   20.5480 O   0  0  0  0  0  0  0  0  0  0  0  0
  -22.8980  -12.4380   22.3310 H   0  0  0  0  0  0  0  0  0  0  0  0
  -21.6210  -13.6120   22.2050 H   0  0  0  0  0  0  0  0  0  0  0  0
  -25.8560  -15.5800   20.1040 N   0  0  0  0  0  0  0  0  0  0  0  0
  -25.1090  -16.2450   20.2730 H   0  0  0  0  0  0  0  0  0  0  0  0
  -26.6780  -16.0050   19.6970 H   0  0  0  0  0  0  0  0  0  0  0  0
  1  5  1  0
  3  7  1  0
  3  4  1  0
  3  1  1  0
  4 50  1  0
  4  6  1  0
  5  2  2  0
  6  2  1  0
  7  8  1  0
  9  8  1  0
  9 11  1  0
 10 21  2  0
 11 16  1  0
 12 20  1  0
 12 22  1  0
 13 19  1  0
 13 15  1  0
 14 20  1  0
 15 14  1  0
 16 15  2  0
 17 18  1  0
 17 11  2  0
 18 13  2  0
 19 12  1  0
 20 10  1  0
 22 24  2  0
 23 22  1  0
 25 23  1  0
 26 35  2  0
 26 31  1  0
 27 23  1  0
 27 31  1  0
 28 27  1  0
 29 30  1  0
 29 28  1  0
 30 26  1  0
 31 32  2  0
 32 33  1  0
 34 33  2  0
 35 34  1  0
 36 10  1  0
 36 41  1  0
 36 37  1  0
 37 40  1  1
 37 38  1  0
 39 37  1  0
 41 44  1  0
 42 46  1  0
 42 41  1  0
 43 42  2  0
 46 45  1  0
 48 46  1  0
 48 49  1  0
 48 47  1  0
 50 51  2  0
 51 60  1  0
 52 58  1  0
 53 58  1  0
 54 55  1  0
 54 53  1  0
 56 55  1  0
 56 65  1  0
 56 57  1  0
 58 57  1  0
 59 52  2  0
 60 52  1  0
 60 61  1  0
 62 63  2  0
 63 82  1  0
 64 63  1  0
 64 67  1  0
 65 66  1  0
 65 62  1  0
 66 64  2  0
 67 68  1  0
 68 69  2  0
 70 73  1  0
 70 69  1  0
 71 70  2  0
 72 71  1  0
 72 67  2  0
 73 74  1  0
 74 75  1  0
 75 76  2  0
 77 76  1  0
 77 81  1  0
 78 77  2  0
 79 74  2  0
 79 78  1  0
 80 79  1  0
 82 83  1  0
 83 86  1  0
 83 85  1  0
 84 82  2  0
 87 62  1  0
 87 88  1  0
 89 87  1  0
M  ISO  4   8 101   9 101  52 100  60 100
M  END
>  <TORSDO>  (26) 
F 20

>  <SCORE>  (26) 
-13.276

>  <name>  (26) 
26

>  <ligand_id>  (26) 
26

>  <original_smiles>  (26) 
[H]c1nc([H])c(C([H])([H])C([H])([H])Oc2c([H])c([H])c3c(c2[H])C([H])([H])N(C(=O)C([H])(N([H])C(=O)C([H])(N([H])C([H])([H])[H])C([H])([H])[H])C(C([H])([H])[H])(C([H])([H])[H])C([H])([H])[H])C([H])(C(=O)N([H])C2([H])c4c([H])c([H])c([H])c([H])c4C([H])([H])C([H])([H])C2([H])[H])C3([H])[H])c(C([H])([H])C([H])([H])N([H])C(=O)N2C([H])([H])C([H])([H])C([H])([H])C([H])(n3nc(-c4c([H])c([H])c(Oc5c([H])c([H])c(F)c([H])c5F)c([H])c4[H])c(C(=O)N([H])[H])c3N([H])[H])C2([H])[H])n1

>  <smiles>  (26) 
[H]c1nc([H])c(C([H])([H])C([H])([H])Oc2c([H])c([H])c3c(c2[H])C([H])([H])N(C(=O)C([H])(N([H])C(=O)C([H])(N([H])C([H])([H])[H])C([H])([H])[H])C(C([H])([H])[H])(C([H])([H])[H])C([H])([H])[H])C([H])(C(=O)N([H])C2([H])c4c([H])c([H])c([H])c([H])c4C([H])([H])C([H])([H])C2([H])[H])C3([H])[H])c(C([H])([H])C([H])([H])N([H])C(=O)N2C([H])([H])C([H])([H])C([H])([H])C([H])(n3nc(-c4c([H])c([H])c(Oc5c([H])c([H])c(F)c([H])c5F)c([H])c4[H])c(C(=O)N([H])[H])c3N([H])[H])C2([H])[H])n1

$$$$
27:0:0
     RDKit          3D

 89 97  0  0  1  0  0  0  0  0999 V2000
  -29.8380  -20.8230   19.5040 C   0  0  0  0  0  3  0  0  0  0  0  0
  -27.6300  -20.1900   20.8870 C   0  0  0  0  0  3  0  0  0  0  0  0
  -28.9530  -21.9820   19.7940 C   0  0  0  0  0  0  0  0  0  0  0  0
  -27.8290  -21.5660   20.5710 C   0  0  0  0  0  0  0  0  0  0  0  0
  -29.6030  -19.4120   19.9130 C   0  0  0  0  0  0  0  0  0  0  0  0
  -26.8280  -22.5600   21.1430 C   0  0  0  0  0  1  0  0  0  0  0  0
  -28.4600  -19.1640   20.5800 N   0  0  0  0  0  0  0  0  0  0  0  0
  -29.2620  -23.5910   19.4510 C   0  0  0  0  0  3  0  0  0  0  0  0
  -28.2080  -24.9220   19.2830 C   0  0  0  0  0  3  0  0  0  0  0  0
  -28.5340  -26.4630   19.3320 O   0  0  0  0  0  0  0  0  0  0  0  0
  -24.8890  -31.5650   23.2280 C   0  0  0  0  0  0  0  0  0  0  0  0
  -27.4970  -27.4680   19.4310 C   0  0  0  0  0  0  0  0  0  0  0  0
  -23.7090  -30.4790   21.3610 C   0  0  0  0  0  3  0  0  0  0  0  0
  -25.1740  -29.2040   19.6800 C   0  0  0  0  0  0  0  0  0  0  0  0
  -26.2620  -30.7860   21.2590 C   0  0  0  0  0  2  0  0  0  0  0  0
  -26.3480  -29.5340   20.3680 C   0  0  0  0  0  0  0  0  0  0  0  0
  -27.5160  -28.6880   20.2250 C   0  0  0  0  0  3  0  0  0  0  0  0
  -26.3020  -27.2610   18.7080 C   0  0  0  0  0  3  0  0  0  0  0  0
  -25.1670  -28.0890   18.8310 C   0  0  0  0  0  3  0  0  0  0  0  0
  -23.9390  -30.0690   19.8830 C   0  0  0  0  0  2  0  0  0  0  0  0
  -24.9740  -30.9560   22.0060 N   0  0  0  0  0  0  0  0  0  0  0  0
  -23.7970  -31.7410   23.7910 O   0  0  0  0  0  0  0  0  0  0  0  0
  -23.0350  -29.3050   22.1200 C   0  0  0  0  0  0  0  0  0  0  0  0
  -21.7030  -29.1640   21.9790 N   0  0  0  0  0  0  0  0  0  0  0  0
  -23.7140  -28.5310   22.8020 O   0  0  0  0  0  0  0  0  0  0  0  0
  -21.2130  -29.8490   21.4190 H   0  0  0  0  0  0  0  0  0  0  0  0
  -18.3090  -27.9600   22.3770 C   0  0  0  0  0  0  0  0  0  0  0  0
  -20.8830  -28.1000   22.5670 C   0  0  0  0  0  3  0  0  0  0  0  0
  -20.9140  -26.8240   21.6930 C   0  0  0  0  0  2  0  0  0  0  0  0
  -19.7590  -26.7540   20.6890 C   0  0  0  0  0  2  0  0  0  0  0  0
  -18.4110  -26.7860   21.4160 C   0  0  0  0  0  2  0  0  0  0  0  0
  -19.4690  -28.5870   22.9030 C   0  0  0  0  0  0  0  0  0  0  0  0
  -19.3150  -29.6950   23.7650 C   0  0  0  0  0  3  0  0  0  0  0  0
  -18.0340  -30.1710   24.1050 C   0  0  0  0  0  3  0  0  0  0  0  0
  -16.8910  -29.5360   23.5910 C   0  0  0  0  0  3  0  0  0  0  0  0
  -17.0290  -28.4320   22.7310 C   0  0  0  0  0  3  0  0  0  0  0  0
  -26.1560  -32.0910   23.9660 C   0  0  0  0  0  3  0  0  0  0  0  0
  -26.5950  -31.1720   25.1720 C   0  0  1  0  0  0  0  0  0  0  0  0
  -25.4550  -30.8600   26.1690 C   0  0  0  0  0  1  0  0  0  0  0  0
  -27.1520  -29.8230   24.6620 C   0  0  0  0  0  1  0  0  0  0  0  0
  -27.7450  -31.8480   25.9550 C   0  0  0  0  0  1  0  0  0  0  0  0
  -25.8650  -33.4540   24.4430 N   0  0  0  0  0  0  0  0  0  0  0  0
  -26.2330  -34.5830   23.8180 C   0  0  0  0  0  0  0  0  0  0  0  0
  -26.9220  -34.5820   22.7920 O   0  0  0  0  0  0  0  0  0  0  0  0
  -25.2630  -33.5270   25.2490 H   0  0  0  0  0  0  0  0  0  0  0  0
  -24.5520  -36.4450   23.6420 C   0  0  0  0  0  1  0  0  0  0  0  0
  -25.7680  -35.9220   24.4240 C   0  0  0  0  0  3  0  0  0  0  0  0
  -27.9000  -36.6600   25.3910 C   0  0  0  0  0  1  0  0  0  0  0  0
  -26.8270  -36.9570   24.4460 N   0  0  0  0  0  0  0  0  0  0  0  0
  -26.4370  -37.8650   24.6830 H   0  0  0  0  0  0  0  0  0  0  0  0
  -30.6090  -18.1050   19.7500 C   0  0  0  0  0  2  0  0  0  0  0  0
  -31.1050  -15.4060   19.8470 C   0  0  0  0  0  0  0  0  0  0  0  0
  -31.0110  -13.0260   18.9620 C   0  0  0  0  0  2  0  0  0  0  0  0
  -30.0290  -12.9480   17.7670 C   0  0  0  0  0  2  0  0  0  0  0  0
  -28.5750  -12.7550   18.2440 C   0  0  0  0  0  2  0  0  0  0  0  0
  -28.2190  -13.6570   19.4550 C   0  0  0  0  0  3  0  0  0  0  0  0
  -29.3260  -13.6850   20.5290 C   0  0  0  0  0  2  0  0  0  0  0  0
  -30.5510  -14.1250   19.8630 N   0  0  0  0  0  0  0  0  0  0  0  0
  -32.2750  -15.4930   19.4560 O   0  0  0  0  0  0  0  0  0  0  0  0
  -30.3180  -16.5790   20.0650 N   0  0  0  0  0  0  0  0  0  0  0  0
  -29.3870  -16.4100   20.4160 H   0  0  0  0  0  0  0  0  0  0  0  0
  -25.9160  -14.2130   20.4150 C   0  0  0  0  0  0  0  0  0  0  0  0
  -24.8620  -13.4310   20.8020 C   0  0  0  0  0  0  0  0  0  0  0  0
  -25.2870  -12.0780   20.6240 C   0  0  0  0  0  0  0  0  0  0  0  0
  -26.9120  -13.3390   20.0220 N   0  0  0  0  0  0  0  0  0  0  0  0
  -26.5490  -12.0430   20.2130 N   0  0  0  0  0  0  0  0  0  0  0  0
  -24.5420  -10.8190   20.7670 C   0  0  0  0  0  0  0  0  0  0  0  0
  -24.9610   -9.8070   21.6570 C   0  0  0  0  0  3  0  0  0  0  0  0
  -24.2170   -8.6160   21.7910 C   0  0  0  0  0  3  0  0  0  0  0  0
  -23.0350   -8.4280   21.0370 C   0  0  0  0  0  0  0  0  0  0  0  0
  -22.6350   -9.4290   20.1330 C   0  0  0  0  0  3  0  0  0  0  0  0
  -23.3800  -10.6110   19.9970 C   0  0  0  0  0  3  0  0  0  0  0  0
  -22.2590   -7.2960   21.0850 O   0  0  0  0  0  0  0  0  0  0  0  0
  -22.1050   -6.5760   22.2420 C   0  0  0  0  0  0  0  0  0  0  0  0
  -21.5580   -7.1490   23.4110 C   0  0  0  0  0  3  0  0  0  0  0  0
  -21.3560   -6.3550   24.5560 C   0  0  0  0  0  3  0  0  0  0  0  0
  -21.6880   -4.9880   24.5330 C   0  0  0  0  0  0  0  0  0  0  0  0
  -22.2260   -4.4120   23.3680 C   0  0  0  0  0  3  0  0  0  0  0  0
  -22.4300   -5.2050   22.2260 C   0  0  0  0  0  0  0  0  0  0  0  0
  -22.9290   -4.6390   21.1010 F   0  0  0  0  0  0  0  0  0  0  0  0
  -21.4850   -4.2210   25.6310 F   0  0  0  0  0  0  0  0  0  0  0  0
  -23.5030  -13.9140   21.2160 C   0  0  0  0  0  0  0  0  0  0  0  0
  -22.8250  -13.1730   22.0880 N   0  0  0  0  0  0  0  0  0  0  0  0
  -23.0540  -14.9800   20.8000 O   0  0  0  0  0  0  0  0  0  0  0  0
  -23.2020  -12.3070   22.4480 H   0  0  0  0  0  0  0  0  0  0  0  0
  -21.9110  -13.4720   22.3930 H   0  0  0  0  0  0  0  0  0  0  0  0
  -26.1060  -15.5890   20.3400 N   0  0  0  0  0  0  0  0  0  0  0  0
  -25.3830  -16.2570   20.5910 H   0  0  0  0  0  0  0  0  0  0  0  0
  -26.9390  -16.0320   19.9710 H   0  0  0  0  0  0  0  0  0  0  0  0
  1  3  2  0
  1  5  1  0
  3  4  1  0
  4  2  2  0
  4  6  1  0
  5  7  2  0
  7  2  1  0
  8  3  1  0
  9 10  1  0
  9  8  2  0
 10 12  1  0
 11 22  2  0
 12 17  1  0
 13 21  1  0
 13 23  1  0
 14 20  1  0
 14 16  1  0
 15 21  1  0
 16 15  1  0
 17 16  2  0
 18 19  1  0
 18 12  2  0
 19 14  2  0
 20 13  1  0
 21 11  1  0
 23 25  2  0
 24 23  1  0
 26 24  1  0
 27 36  2  0
 27 32  1  0
 28 24  1  0
 28 32  1  0
 29 28  1  0
 30 31  1  0
 30 29  1  0
 31 27  1  0
 32 33  2  0
 33 34  1  0
 35 34  2  0
 36 35  1  0
 37 11  1  0
 37 42  1  0
 37 38  1  0
 38 41  1  1
 38 39  1  0
 40 38  1  0
 42 45  1  0
 43 47  1  0
 43 42  1  0
 44 43  2  0
 47 46  1  0
 47 49  1  0
 49 50  1  0
 49 48  1  0
 51  5  1  0
 51 60  1  0
 52 58  1  0
 52 60  1  0
 53 58  1  0
 54 55  1  0
 54 53  1  0
 56 55  1  0
 56 65  1  0
 56 57  1  0
 58 57  1  0
 59 52  2  0
 60 61  1  0
 62 63  2  0
 63 82  1  0
 64 67  1  0
 64 63  1  0
 65 66  1  0
 65 62  1  0
 66 64  2  0
 67 68  1  0
 68 69  2  0
 70 73  1  0
 70 69  1  0
 71 70  2  0
 72 71  1  0
 72 67  2  0
 73 74  1  0
 74 75  1  0
 75 76  2  0
 77 76  1  0
 77 81  1  0
 78 77  2  0
 79 74  2  0
 79 78  1  0
 80 79  1  0
 82 83  1  0
 83 86  1  0
 83 85  1  0
 84 82  2  0
 87 62  1  0
 87 88  1  0
 89 87  1  0
M  ISO  4   9 101  10 101  52 100  60 100
M  END
>  <TORSDO>  (27) 
F 19

>  <SCORE>  (27) 
-11.635

>  <name>  (27) 
27

>  <ligand_id>  (27) 
27

>  <original_smiles>  (27) 
[H]c1nc(C([H])([H])N([H])C(=O)N2C([H])([H])C([H])([H])C([H])([H])C([H])(n3nc(-c4c([H])c([H])c(Oc5c([H])c([H])c(F)c([H])c5F)c([H])c4[H])c(C(=O)N([H])[H])c3N([H])[H])C2([H])[H])c([H])c(C([H])([H])C([H])([H])Oc2c([H])c([H])c3c(c2[H])C([H])([H])N(C(=O)C([H])(N([H])C(=O)C([H])(N([H])C([H])([H])[H])C([H])([H])[H])C(C([H])([H])[H])(C([H])([H])[H])C([H])([H])[H])C([H])(C(=O)N([H])C2([H])c4c([H])c([H])c([H])c([H])c4C([H])([H])C([H])([H])C2([H])[H])C3([H])[H])c1C([H])([H])[H]

>  <smiles>  (27) 
[H]c1nc(C([H])([H])N([H])C(=O)N2C([H])([H])C([H])([H])C([H])([H])C([H])(n3nc(-c4c([H])c([H])c(Oc5c([H])c([H])c(F)c([H])c5F)c([H])c4[H])c(C(=O)N([H])[H])c3N([H])[H])C2([H])[H])c([H])c(C([H])([H])C([H])([H])Oc2c([H])c([H])c3c(c2[H])C([H])([H])N(C(=O)C([H])(N([H])C(=O)C([H])(N([H])C([H])([H])[H])C([H])([H])[H])C(C([H])([H])[H])(C([H])([H])[H])C([H])([H])[H])C([H])(C(=O)N([H])C2([H])c4c([H])c([H])c([H])c([H])c4C([H])([H])C([H])([H])C2([H])[H])C3([H])[H])c1C([H])([H])[H]

$$$$
28:0:0
     RDKit          3D

 91 99  0  0  1  0  0  0  0  0999 V2000
  -27.6860  -21.2020   19.4870 C   0  0  0  0  0  3  0  0  0  0  0  0
  -29.1170  -22.6610   20.7490 C   0  0  0  0  0  3  0  0  0  0  0  0
  -28.8340  -21.3170   20.2950 C   0  0  0  0  0  0  0  0  0  0  0  0
  -26.9140  -22.3480   19.1720 C   0  0  0  0  0  0  0  0  0  0  0  0
  -28.2960  -23.7960   20.3870 C   0  0  0  0  0  0  0  0  0  0  0  0
  -27.2180  -23.5980   19.5970 N   0  0  0  0  0  0  0  0  0  0  0  0
  -25.1800  -20.8510   17.9610 C   0  0  0  0  0  1  0  0  0  0  0  0
  -25.6380  -22.2680   18.3430 C   0  0  0  0  0  2  0  0  0  0  0  0
  -29.7280  -20.0450   20.6320 C   0  0  0  0  0  2  0  0  0  0  0  0
  -29.2240  -18.5260   20.3890 C   0  0  0  0  0  3  0  0  0  0  0  0
  -30.2800  -17.3210   20.6090 C   0  0  0  0  0  3  0  0  0  0  0  0
  -30.5930  -14.7440   20.2740 C   0  0  0  0  0  0  0  0  0  0  0  0
  -30.3640  -12.5030   19.2000 C   0  0  0  0  0  2  0  0  0  0  0  0
  -29.4030  -12.6240   17.9980 C   0  0  0  0  0  2  0  0  0  0  0  0
  -27.9410  -12.4460   18.4530 C   0  0  0  0  0  2  0  0  0  0  0  0
  -27.5960  -13.2980   19.7040 C   0  0  0  0  0  3  0  0  0  0  0  0
  -28.6770  -13.1670   20.8000 C   0  0  0  0  0  2  0  0  0  0  0  0
  -29.9610  -13.5280   20.1880 N   0  0  0  0  0  0  0  0  0  0  0  0
  -31.7720  -14.8590   19.9250 O   0  0  0  0  0  0  0  0  0  0  0  0
  -29.8330  -15.8650   20.5530 N   0  0  0  0  0  0  0  0  0  0  0  0
  -28.8640  -15.6840   20.7680 H   0  0  0  0  0  0  0  0  0  0  0  0
  -25.2160  -13.8680   20.4720 C   0  0  0  0  0  0  0  0  0  0  0  0
  -24.1620  -13.0830   20.8560 C   0  0  0  0  0  0  0  0  0  0  0  0
  -24.6360  -11.7350   20.8090 C   0  0  0  0  0  0  0  0  0  0  0  0
  -26.2610  -12.9980   20.2140 N   0  0  0  0  0  0  0  0  0  0  0  0
  -25.9220  -11.7090   20.4810 N   0  0  0  0  0  0  0  0  0  0  0  0
  -23.9230  -10.4660   21.0040 C   0  0  0  0  0  0  0  0  0  0  0  0
  -24.3710   -9.5010   21.9320 C   0  0  0  0  0  3  0  0  0  0  0  0
  -23.6560   -8.2970   22.1150 C   0  0  0  0  0  3  0  0  0  0  0  0
  -22.4800   -8.0500   21.3680 C   0  0  0  0  0  0  0  0  0  0  0  0
  -22.0520   -9.0030   20.4280 C   0  0  0  0  0  3  0  0  0  0  0  0
  -22.7670  -10.1990   20.2450 C   0  0  0  0  0  3  0  0  0  0  0  0
  -21.7380   -6.8970   21.4590 O   0  0  0  0  0  0  0  0  0  0  0  0
  -21.6960   -6.1570   22.6130 C   0  0  0  0  0  0  0  0  0  0  0  0
  -21.2430   -6.7040   23.8330 C   0  0  0  0  0  3  0  0  0  0  0  0
  -21.1510   -5.8870   24.9790 C   0  0  0  0  0  3  0  0  0  0  0  0
  -21.5020   -4.5260   24.9040 C   0  0  0  0  0  0  0  0  0  0  0  0
  -21.9470   -3.9790   23.6870 C   0  0  0  0  0  3  0  0  0  0  0  0
  -22.0410   -4.7920   22.5450 C   0  0  0  0  0  0  0  0  0  0  0  0
  -22.4510   -4.2560   21.3700 F   0  0  0  0  0  0  0  0  0  0  0  0
  -21.4050   -3.7400   26.0020 F   0  0  0  0  0  0  0  0  0  0  0  0
  -22.7660  -13.5450   21.1520 C   0  0  0  0  0  0  0  0  0  0  0  0
  -22.0590  -12.8370   22.0260 N   0  0  0  0  0  0  0  0  0  0  0  0
  -22.3110  -14.5700   20.6440 O   0  0  0  0  0  0  0  0  0  0  0  0
  -22.4400  -12.0090   22.4600 H   0  0  0  0  0  0  0  0  0  0  0  0
  -21.1260  -13.1320   22.2730 H   0  0  0  0  0  0  0  0  0  0  0  0
  -25.3650  -15.2400   20.2950 N   0  0  0  0  0  0  0  0  0  0  0  0
  -24.5890  -15.8830   20.4050 H   0  0  0  0  0  0  0  0  0  0  0  0
  -26.1940  -15.6840   19.9240 H   0  0  0  0  0  0  0  0  0  0  0  0
  -28.4320  -25.2500   21.0200 C   0  0  0  0  0  2  0  0  0  0  0  0
  -28.3870  -26.5000   20.2090 O   0  0  0  0  0  0  0  0  0  0  0  0
  -24.5990  -31.8990   23.2560 C   0  0  0  0  0  0  0  0  0  0  0  0
  -27.2580  -27.3320   20.2510 C   0  0  0  0  0  0  0  0  0  0  0  0
  -23.4150  -30.4900   21.6080 C   0  0  0  0  0  3  0  0  0  0  0  0
  -24.8870  -28.9340   20.2060 C   0  0  0  0  0  0  0  0  0  0  0  0
  -25.9540  -30.8190   21.4440 C   0  0  0  0  0  2  0  0  0  0  0  0
  -26.0470  -29.4340   20.8120 C   0  0  0  0  0  0  0  0  0  0  0  0
  -27.2380  -28.6450   20.8210 C   0  0  0  0  0  3  0  0  0  0  0  0
  -26.0780  -26.8820   19.6270 C   0  0  0  0  0  3  0  0  0  0  0  0
  -24.9050  -27.6640   19.6030 C   0  0  0  0  0  3  0  0  0  0  0  0
  -23.6460  -29.8050   20.2340 C   0  0  0  0  0  2  0  0  0  0  0  0
  -24.6750  -31.0880   22.1590 N   0  0  0  0  0  0  0  0  0  0  0  0
  -23.5100  -32.1740   23.7800 O   0  0  0  0  0  0  0  0  0  0  0  0
  -22.7490  -29.4750   22.5670 C   0  0  0  0  0  0  0  0  0  0  0  0
  -21.4230  -29.2950   22.4340 N   0  0  0  0  0  0  0  0  0  0  0  0
  -23.4240  -28.8530   23.3920 O   0  0  0  0  0  0  0  0  0  0  0  0
  -20.9390  -29.8500   21.7430 H   0  0  0  0  0  0  0  0  0  0  0  0
  -18.0420  -28.1120   22.9350 C   0  0  0  0  0  0  0  0  0  0  0  0
  -20.6020  -28.3570   23.2010 C   0  0  0  0  0  3  0  0  0  0  0  0
  -20.6960  -26.9290   22.6160 C   0  0  0  0  0  2  0  0  0  0  0  0
  -19.5900  -26.6180   21.6020 C   0  0  0  0  0  2  0  0  0  0  0  0
  -18.2110  -26.7650   22.2500 C   0  0  0  0  0  2  0  0  0  0  0  0
  -19.1650  -28.8660   23.3670 C   0  0  0  0  0  0  0  0  0  0  0  0
  -18.9530  -30.1260   23.9660 C   0  0  0  0  0  3  0  0  0  0  0  0
  -17.6510  -30.6320   24.1390 C   0  0  0  0  0  3  0  0  0  0  0  0
  -16.5420  -29.8740   23.7230 C   0  0  0  0  0  3  0  0  0  0  0  0
  -16.7390  -28.6160   23.1260 C   0  0  0  0  0  3  0  0  0  0  0  0
  -25.8730  -32.5400   23.8870 C   0  0  0  0  0  3  0  0  0  0  0  0
  -25.5580  -33.9410   24.2010 N   0  0  0  0  0  0  0  0  0  0  0  0
  -25.8940  -34.9870   23.4360 C   0  0  0  0  0  0  0  0  0  0  0  0
  -26.5720  -34.8750   22.4110 O   0  0  0  0  0  0  0  0  0  0  0  0
  -24.9540  -34.1020   24.9940 H   0  0  0  0  0  0  0  0  0  0  0  0
  -24.1710  -36.7800   23.0490 C   0  0  0  0  0  1  0  0  0  0  0  0
  -25.4030  -36.3810   23.8770 C   0  0  0  0  0  3  0  0  0  0  0  0
  -27.5260  -37.2750   24.7260 C   0  0  0  0  0  1  0  0  0  0  0  0
  -26.4380  -37.4320   23.7650 N   0  0  0  0  0  0  0  0  0  0  0  0
  -26.0300  -38.3540   23.8950 H   0  0  0  0  0  0  0  0  0  0  0  0
  -26.3750  -31.7810   25.1770 C   0  0  1  0  0  0  0  0  0  0  0  0
  -25.2700  -31.5530   26.2340 C   0  0  0  0  0  1  0  0  0  0  0  0
  -26.9640  -30.4000   24.8070 C   0  0  0  0  0  1  0  0  0  0  0  0
  -27.5190  -32.5820   25.8430 C   0  0  0  0  0  1  0  0  0  0  0  0
  1  3  1  0
  3  9  1  0
  3  2  2  0
  4  1  2  0
  4  6  1  0
  5  2  1  0
  5 50  1  0
  6  5  2  0
  7  8  1  0
  8  4  1  0
 10 11  2  0
 10  9  1  0
 12 20  1  0
 13 18  1  0
 14 15  1  0
 14 13  1  0
 16 15  1  0
 16 25  1  0
 16 17  1  0
 18 12  1  0
 18 17  1  0
 19 12  2  0
 20 11  1  0
 20 21  1  0
 22 23  2  0
 23 42  1  0
 24 23  1  0
 24 27  1  0
 25 22  1  0
 25 26  1  0
 26 24  2  0
 27 28  1  0
 28 29  2  0
 30 33  1  0
 30 29  1  0
 31 30  2  0
 32 31  1  0
 32 27  2  0
 33 34  1  0
 34 35  1  0
 35 36  2  0
 37 36  1  0
 37 41  1  0
 38 37  2  0
 39 34  2  0
 39 38  1  0
 40 39  1  0
 42 43  1  0
 43 46  1  0
 43 45  1  0
 44 42  2  0
 47 48  1  0
 47 22  1  0
 49 47  1  0
 51 53  1  0
 51 50  1  0
 52 63  2  0
 53 58  1  0
 54 62  1  0
 54 64  1  0
 55 61  1  0
 55 57  1  0
 56 62  1  0
 57 58  2  0
 57 56  1  0
 59 53  2  0
 60 59  1  0
 60 55  2  0
 61 54  1  0
 62 52  1  0
 64 66  2  0
 65 64  1  0
 67 65  1  0
 68 77  2  0
 68 73  1  0
 69 65  1  0
 69 73  1  0
 70 69  1  0
 71 72  1  0
 71 70  1  0
 72 68  1  0
 73 74  2  0
 74 75  1  0
 76 75  2  0
 77 76  1  0
 78 52  1  0
 78 79  1  0
 78 88  1  0
 79 82  1  0
 80 84  1  0
 80 79  1  0
 81 80  2  0
 84 83  1  0
 86 84  1  0
 86 87  1  0
 86 85  1  0
 88 91  1  1
 88 89  1  0
 90 88  1  0
M  ISO  4  12 100  20 100  50 101  51 101
M  END
>  <TORSDO>  (28) 
F 21

>  <SCORE>  (28) 
-13.704

>  <name>  (28) 
28

>  <ligand_id>  (28) 
28

>  <original_smiles>  (28) 
[H]c1c([H])c([H])c2c(c1[H])C([H])([H])C([H])([H])C([H])([H])C2([H])N([H])C(=O)C1([H])N(C(=O)C([H])(N([H])C(=O)C([H])(N([H])C([H])([H])[H])C([H])([H])[H])C(C([H])([H])[H])(C([H])([H])[H])C([H])([H])[H])C([H])([H])c2c([H])c(OC([H])([H])c3nc(C([H])([H])C([H])([H])[H])c([H])c(C([H])([H])C([H])([H])C([H])([H])N([H])C(=O)N4C([H])([H])C([H])([H])C([H])([H])C([H])(n5nc(-c6c([H])c([H])c(Oc7c([H])c([H])c(F)c([H])c7F)c([H])c6[H])c(C(=O)N([H])[H])c5N([H])[H])C4([H])[H])c3[H])c([H])c([H])c2C1([H])[H]

>  <smiles>  (28) 
[H]c1c([H])c([H])c2c(c1[H])C([H])([H])C([H])([H])C([H])([H])C2([H])N([H])C(=O)C1([H])N(C(=O)C([H])(N([H])C(=O)C([H])(N([H])C([H])([H])[H])C([H])([H])[H])C(C([H])([H])[H])(C([H])([H])[H])C([H])([H])[H])C([H])([H])c2c([H])c(OC([H])([H])c3nc(C([H])([H])C([H])([H])[H])c([H])c(C([H])([H])C([H])([H])C([H])([H])N([H])C(=O)N4C([H])([H])C([H])([H])C([H])([H])C([H])(n5nc(-c6c([H])c([H])c(Oc7c([H])c([H])c(F)c([H])c7F)c([H])c6[H])c(C(=O)N([H])[H])c5N([H])[H])C4([H])[H])c3[H])c([H])c([H])c2C1([H])[H]

$$$$
29:0:0
     RDKit          3D

 97105  0  0  1  0  0  0  0  0999 V2000
  -29.5540  -20.1720   20.1770 C   0  0  0  0  0  0  0  0  0  0  0  0
  -30.3250  -20.6830   19.1430 C   0  0  0  0  0  0  0  0  0  0  0  0
  -29.4010  -22.4430   20.1930 C   0  0  0  0  0  0  0  0  0  0  0  0
  -28.9430  -21.3110   20.7940 N   0  0  0  0  0  0  0  0  0  0  0  0
  -30.2880  -22.1020   19.2260 N   0  0  0  0  0  0  0  0  0  0  0  0
  -31.1030  -19.8990   18.1160 C   0  0  1  0  0  0  0  0  0  0  0  0
  -30.4440  -18.8030   17.7430 F   0  0  0  0  0  0  0  0  0  0  0  0
  -31.3270  -20.5660   16.9870 F   0  0  0  0  0  0  0  0  0  0  0  0
  -32.2840  -19.5130   18.5960 F   0  0  0  0  0  0  0  0  0  0  0  0
  -29.1910  -18.6700   20.5310 C   0  0  0  0  0  2  0  0  0  0  0  0
  -30.2670  -17.4330   20.5840 C   0  0  0  0  0  2  0  0  0  0  0  0
  -30.5660  -14.8280   20.3070 C   0  0  0  0  0  0  0  0  0  0  0  0
  -30.3660  -12.5180   19.3700 C   0  0  0  0  0  2  0  0  0  0  0  0
  -29.4170  -12.4850   18.1520 C   0  0  0  0  0  2  0  0  0  0  0  0
  -27.9440  -12.3490   18.5980 C   0  0  0  0  0  2  0  0  0  0  0  0
  -27.5630  -13.2620   19.7950 C   0  0  0  0  0  3  0  0  0  0  0  0
  -28.6430  -13.2600   20.8990 C   0  0  0  0  0  2  0  0  0  0  0  0
  -29.9210  -13.6080   20.2640 N   0  0  0  0  0  0  0  0  0  0  0  0
  -31.7930  -14.8680   20.1850 O   0  0  0  0  0  0  0  0  0  0  0  0
  -29.0740  -16.1480   18.9290 C   0  0  0  0  0  1  0  0  0  0  0  0
  -29.8160  -16.0110   20.1930 N   0  0  0  0  0  0  0  0  0  0  0  0
  -25.1950  -13.8690   20.5620 C   0  0  0  0  0  0  0  0  0  0  0  0
  -24.1270  -13.0980   20.9270 C   0  0  0  0  0  0  0  0  0  0  0  0
  -24.5850  -11.7450   20.8820 C   0  0  0  0  0  0  0  0  0  0  0  0
  -26.2320  -12.9820   20.3100 N   0  0  0  0  0  0  0  0  0  0  0  0
  -25.8740  -11.7020   20.5700 N   0  0  0  0  0  0  0  0  0  0  0  0
  -23.8590  -10.4850   21.0600 C   0  0  0  0  0  0  0  0  0  0  0  0
  -24.2880   -9.5130   21.9910 C   0  0  0  0  0  3  0  0  0  0  0  0
  -23.5640   -8.3140   22.1580 C   0  0  0  0  0  3  0  0  0  0  0  0
  -22.3960   -8.0790   21.3930 C   0  0  0  0  0  0  0  0  0  0  0  0
  -21.9870   -9.0390   20.4510 C   0  0  0  0  0  3  0  0  0  0  0  0
  -22.7120  -10.2290   20.2820 C   0  0  0  0  0  3  0  0  0  0  0  0
  -21.6420   -6.9340   21.4720 O   0  0  0  0  0  0  0  0  0  0  0  0
  -21.5730   -6.1960   22.6260 C   0  0  0  0  0  0  0  0  0  0  0  0
  -21.0970   -6.7450   23.8360 C   0  0  0  0  0  3  0  0  0  0  0  0
  -20.9790   -5.9310   24.9800 C   0  0  0  0  0  3  0  0  0  0  0  0
  -21.3280   -4.5680   24.9140 C   0  0  0  0  0  0  0  0  0  0  0  0
  -21.7970   -4.0180   23.7090 C   0  0  0  0  0  3  0  0  0  0  0  0
  -21.9170   -4.8300   22.5670 C   0  0  0  0  0  0  0  0  0  0  0  0
  -22.3510   -4.2910   21.4020 F   0  0  0  0  0  0  0  0  0  0  0  0
  -21.2070   -3.7840   26.0100 F   0  0  0  0  0  0  0  0  0  0  0  0
  -22.7330  -13.5780   21.2060 C   0  0  0  0  0  0  0  0  0  0  0  0
  -21.9980  -12.8630   22.0510 N   0  0  0  0  0  0  0  0  0  0  0  0
  -22.3030  -14.6200   20.7120 O   0  0  0  0  0  0  0  0  0  0  0  0
  -22.3580  -12.0200   22.4720 H   0  0  0  0  0  0  0  0  0  0  0  0
  -21.0610  -13.1640   22.2790 H   0  0  0  0  0  0  0  0  0  0  0  0
  -25.3660  -15.2420   20.3990 N   0  0  0  0  0  0  0  0  0  0  0  0
  -24.6100  -15.9030   20.5340 H   0  0  0  0  0  0  0  0  0  0  0  0
  -26.2320  -15.6810   20.1160 H   0  0  0  0  0  0  0  0  0  0  0  0
  -29.1400  -23.9480   20.6110 C   0  0  0  0  0  3  0  0  0  0  0  0
  -28.2530  -24.9720   19.7400 C   0  0  0  0  0  3  0  0  0  0  0  0
  -28.3350  -26.4470   20.0230 O   0  0  0  0  0  0  0  0  0  0  0  0
  -24.6360  -31.8020   23.1700 C   0  0  0  0  0  0  0  0  0  0  0  0
  -27.2130  -27.3040   19.9650 C   0  0  0  0  0  0  0  0  0  0  0  0
  -23.4170  -30.4570   21.4970 C   0  0  0  0  0  3  0  0  0  0  0  0
  -24.8530  -28.9460   20.0100 C   0  0  0  0  0  0  0  0  0  0  0  0
  -25.9570  -30.7670   21.3070 C   0  0  0  0  0  2  0  0  0  0  0  0
  -26.0260  -29.4060   20.6190 C   0  0  0  0  0  0  0  0  0  0  0  0
  -27.2040  -28.5960   20.5880 C   0  0  0  0  0  3  0  0  0  0  0  0
  -26.0180  -26.9180   19.3110 C   0  0  0  0  0  3  0  0  0  0  0  0
  -24.8540  -27.7100   19.3460 C   0  0  0  0  0  3  0  0  0  0  0  0
  -23.6200  -29.8250   20.0950 C   0  0  0  0  0  2  0  0  0  0  0  0
  -24.6900  -31.0260   22.0480 N   0  0  0  0  0  0  0  0  0  0  0  0
  -23.5570  -32.0660   23.7220 O   0  0  0  0  0  0  0  0  0  0  0  0
  -22.7570  -29.4140   22.4320 C   0  0  0  0  0  0  0  0  0  0  0  0
  -21.4350  -29.2230   22.2900 N   0  0  0  0  0  0  0  0  0  0  0  0
  -23.4370  -28.7820   23.2440 O   0  0  0  0  0  0  0  0  0  0  0  0
  -20.9450  -29.7870   21.6090 H   0  0  0  0  0  0  0  0  0  0  0  0
  -18.0740  -27.9520   22.7170 C   0  0  0  0  0  0  0  0  0  0  0  0
  -20.6230  -28.2600   23.0350 C   0  0  0  0  0  3  0  0  0  0  0  0
  -20.7630  -26.8380   22.4450 C   0  0  0  0  0  2  0  0  0  0  0  0
  -19.6860  -26.5050   21.4080 C   0  0  0  0  0  2  0  0  0  0  0  0
  -18.2900  -26.6140   22.0290 C   0  0  0  0  0  2  0  0  0  0  0  0
  -19.1700  -28.7310   23.1760 C   0  0  0  0  0  0  0  0  0  0  0  0
  -18.9140  -29.9820   23.7790 C   0  0  0  0  0  3  0  0  0  0  0  0
  -17.5960  -30.4540   23.9280 C   0  0  0  0  0  3  0  0  0  0  0  0
  -16.5160  -29.6720   23.4840 C   0  0  0  0  0  3  0  0  0  0  0  0
  -16.7560  -28.4230   22.8850 C   0  0  0  0  0  3  0  0  0  0  0  0
  -25.9250  -32.4130   23.8010 C   0  0  0  0  0  3  0  0  0  0  0  0
  -26.4390  -31.6140   25.0620 C   0  0  1  0  0  0  0  0  0  0  0  0
  -25.3470  -31.3660   26.1290 C   0  0  0  0  0  1  0  0  0  0  0  0
  -27.0090  -30.2390   24.6430 C   0  0  0  0  0  1  0  0  0  0  0  0
  -27.5980  -32.3850   25.7350 C   0  0  0  0  0  1  0  0  0  0  0  0
  -25.6260  -33.8070   24.1610 N   0  0  0  0  0  0  0  0  0  0  0  0
  -25.9680  -34.8740   23.4260 C   0  0  0  0  0  0  0  0  0  0  0  0
  -26.6360  -34.7880   22.3920 O   0  0  0  0  0  0  0  0  0  0  0  0
  -25.0330  -33.9490   24.9650 H   0  0  0  0  0  0  0  0  0  0  0  0
  -24.2600  -36.6940   23.1070 C   0  0  0  0  0  1  0  0  0  0  0  0
  -25.4930  -36.2560   23.9140 C   0  0  0  0  0  3  0  0  0  0  0  0
  -27.6290  -37.1050   24.7800 C   0  0  0  0  0  1  0  0  0  0  0  0
  -26.5380  -37.3010   23.8300 N   0  0  0  0  0  0  0  0  0  0  0  0
  -26.1400  -38.2230   23.9900 H   0  0  0  0  0  0  0  0  0  0  0  0
  -31.0590  -23.0670   18.4310 C   0  0  0  0  0  2  0  0  0  0  0  0
  -32.8780  -24.7060   19.0670 C   0  0  0  0  0  1  0  0  0  0  0  0
  -32.9680  -22.4260   20.0910 C   0  0  0  0  0  1  0  0  0  0  0  0
  -33.4580  -22.7340   17.6620 C   0  0  0  0  0  1  0  0  0  0  0  0
  -32.5680  -23.2150   18.8230 C   0  0  1  0  0  0  0  0  0  0  0  0
  1 10  1  0
  1  4  1  0
  2  5  1  0
  2  1  2  0
  3 50  1  0
  3  4  2  0
  5  3  1  0
  6  9  1  1
  6  2  1  0
  7  6  1  0
  8  6  1  0
 10 11  1  0
 13 18  1  0
 14 15  1  0
 14 13  1  0
 16 15  1  0
 16 25  1  0
 16 17  1  0
 18 12  1  0
 18 17  1  0
 19 12  2  0
 20 21  1  0
 21 12  1  0
 21 11  1  0
 22 23  2  0
 23 42  1  0
 24 23  1  0
 24 27  1  0
 25 22  1  0
 25 26  1  0
 26 24  2  0
 27 28  1  0
 28 29  2  0
 30 33  1  0
 30 29  1  0
 31 30  2  0
 32 31  1  0
 32 27  2  0
 33 34  1  0
 34 35  1  0
 35 36  2  0
 37 36  1  0
 37 41  1  0
 38 37  2  0
 39 34  2  0
 39 38  1  0
 40 39  1  0
 42 43  1  0
 43 46  1  0
 43 45  1  0
 44 42  2  0
 47 48  1  0
 47 22  1  0
 49 47  1  0
 51 52  1  0
 51 50  2  0
 53 64  2  0
 54 52  1  0
 54 59  1  0
 55 63  1  0
 55 65  1  0
 56 62  1  0
 56 58  1  0
 57 63  1  0
 58 57  1  0
 59 58  2  0
 60 61  1  0
 60 54  2  0
 61 56  2  0
 62 55  1  0
 63 53  1  0
 65 67  2  0
 66 65  1  0
 68 66  1  0
 69 78  2  0
 69 74  1  0
 70 66  1  0
 70 74  1  0
 71 70  1  0
 72 73  1  0
 72 71  1  0
 73 69  1  0
 74 75  2  0
 75 76  1  0
 77 76  2  0
 78 77  1  0
 79 53  1  0
 79 84  1  0
 79 80  1  0
 80 83  1  1
 80 81  1  0
 82 80  1  0
 84 87  1  0
 85 89  1  0
 85 84  1  0
 86 85  2  0
 89 88  1  0
 91 89  1  0
 91 92  1  0
 91 90  1  0
 93 97  1  0
 93  5  1  0
 97 96  1  6
 97 94  1  0
 97 95  1  0
M  ISO  4  12 100  21 100  51 101  52 101
M  END
>  <TORSDO>  (29) 
F 23

>  <SCORE>  (29) 
-12.727

>  <name>  (29) 
29

>  <ligand_id>  (29) 
29

>  <original_smiles>  (29) 
[H]c1c([H])c([H])c2c(c1[H])C([H])([H])C([H])([H])C([H])([H])C2([H])N([H])C(=O)C1([H])N(C(=O)C([H])(N([H])C(=O)C([H])(N([H])C([H])([H])[H])C([H])([H])[H])C(C([H])([H])[H])(C([H])([H])[H])C([H])([H])[H])C([H])([H])c2c([H])c(OC([H])([H])C([H])([H])c3nc(C([H])([H])C([H])([H])N(C(=O)N4C([H])([H])C([H])([H])C([H])([H])C([H])(n5nc(-c6c([H])c([H])c(Oc7c([H])c([H])c(F)c([H])c7F)c([H])c6[H])c(C(=O)N([H])[H])c5N([H])[H])C4([H])[H])C([H])([H])[H])c(C(F)(F)F)n3C([H])([H])C(C([H])([H])[H])(C([H])([H])[H])C([H])([H])[H])c([H])c([H])c2C1([H])[H]

>  <smiles>  (29) 
[H]c1c([H])c([H])c2c(c1[H])C([H])([H])C([H])([H])C([H])([H])C2([H])N([H])C(=O)C1([H])N(C(=O)C([H])(N([H])C(=O)C([H])(N([H])C([H])([H])[H])C([H])([H])[H])C(C([H])([H])[H])(C([H])([H])[H])C([H])([H])[H])C([H])([H])c2c([H])c(OC([H])([H])C([H])([H])c3nc(C([H])([H])C([H])([H])N(C(=O)N4C([H])([H])C([H])([H])C([H])([H])C([H])(n5nc(-c6c([H])c([H])c(Oc7c([H])c([H])c(F)c([H])c7F)c([H])c6[H])c(C(=O)N([H])[H])c5N([H])[H])C4([H])[H])C([H])([H])[H])c(C(F)(F)F)n3C([H])([H])C(C([H])([H])[H])(C([H])([H])[H])C([H])([H])[H])c([H])c([H])c2C1([H])[H]

$$$$
30:0:0
     RDKit          3D

 94101  0  0  1  0  0  0  0  0999 V2000
  -27.0190  -21.9700   18.4630 C   0  0  0  0  0  1  0  0  0  0  0  0
  -27.2530  -23.1290   17.4730 C   0  0  0  0  0  3  0  0  0  0  0  0
  -28.3770  -22.8400   16.5310 N   0  0  0  0  0  4  0  0  0  0  0  0
  -28.3260  -23.5060   15.7770 H   0  0  0  0  0  0  0  0  0  0  0  0
  -28.2090  -21.9330   16.1250 H   0  0  0  0  0  0  0  0  0  0  0  0
  -30.8070  -22.5920   15.9430 C   0  0  0  0  0  1  0  0  0  0  0  0
  -29.7750  -22.8550   17.0650 C   0  0  0  0  0  3  0  0  0  0  0  0
  -29.8910  -21.9010   18.3010 C   0  0  0  0  0  2  0  0  0  0  0  0
  -31.2990  -21.4610   18.8040 C   0  0  0  0  0  2  0  0  0  0  0  0
  -31.5550  -21.7620   21.2370 C   0  0  0  0  0  0  0  0  0  0  0  0
  -30.6020  -22.3640   23.4380 C   0  0  0  0  0  2  0  0  0  0  0  0
  -29.2090  -23.0110   23.2750 C   0  0  0  0  0  2  0  0  0  0  0  0
  -29.3350  -24.5300   23.0400 C   0  0  0  0  0  2  0  0  0  0  0  0
  -30.3790  -24.8770   21.9460 C   0  0  0  0  0  3  0  0  0  0  0  0
  -31.6970  -24.1210   22.2080 C   0  0  0  0  0  2  0  0  0  0  0  0
  -31.3950  -22.6820   22.2350 N   0  0  0  0  0  0  0  0  0  0  0  0
  -31.2430  -20.5780   21.4180 O   0  0  0  0  0  0  0  0  0  0  0  0
  -31.8420  -22.2100   19.9770 N   0  0  0  0  0  0  0  0  0  0  0  0
  -30.6490  -27.1230   20.7250 C   0  0  0  0  0  0  0  0  0  0  0  0
  -30.7860  -28.4030   21.1850 C   0  0  0  0  0  0  0  0  0  0  0  0
  -30.7880  -28.3110   22.6110 C   0  0  0  0  0  0  0  0  0  0  0  0
  -30.5900  -26.3180   21.8510 N   0  0  0  0  0  0  0  0  0  0  0  0
  -30.7270  -27.0410   22.9910 N   0  0  0  0  0  0  0  0  0  0  0  0
  -30.7870  -29.3600   23.6380 C   0  0  0  0  0  0  0  0  0  0  0  0
  -31.5850  -29.2580   24.7990 C   0  0  0  0  0  3  0  0  0  0  0  0
  -31.5810  -30.2880   25.7630 C   0  0  0  0  0  3  0  0  0  0  0  0
  -30.7760  -31.4360   25.5720 C   0  0  0  0  0  0  0  0  0  0  0  0
  -29.9650  -31.5220   24.4250 C   0  0  0  0  0  3  0  0  0  0  0  0
  -29.9670  -30.4930   23.4690 C   0  0  0  0  0  3  0  0  0  0  0  0
  -30.6890  -32.4740   26.4670 O   0  0  0  0  0  0  0  0  0  0  0  0
  -31.5820  -32.6120   27.4980 C   0  0  0  0  0  0  0  0  0  0  0  0
  -32.9680  -32.7490   27.2700 C   0  0  0  0  0  3  0  0  0  0  0  0
  -33.8430  -32.9580   28.3550 C   0  0  0  0  0  3  0  0  0  0  0  0
  -33.3360  -33.0380   29.6650 C   0  0  0  0  0  0  0  0  0  0  0  0
  -31.9550  -32.9050   29.8940 C   0  0  0  0  0  3  0  0  0  0  0  0
  -31.0800  -32.6950   28.8140 C   0  0  0  0  0  0  0  0  0  0  0  0
  -29.7480  -32.5900   29.0380 F   0  0  0  0  0  0  0  0  0  0  0  0
  -34.1740  -33.2460   30.7060 F   0  0  0  0  0  0  0  0  0  0  0  0
  -30.8150  -29.6560   20.3590 C   0  0  0  0  0  0  0  0  0  0  0  0
  -31.5760  -30.6550   20.7890 N   0  0  0  0  0  0  0  0  0  0  0  0
  -30.2010  -29.7360   19.2950 O   0  0  0  0  0  0  0  0  0  0  0  0
  -32.0920  -30.5810   21.6530 H   0  0  0  0  0  0  0  0  0  0  0  0
  -31.6410  -31.5060   20.2490 H   0  0  0  0  0  0  0  0  0  0  0  0
  -30.5460  -26.5780   19.4480 N   0  0  0  0  0  0  0  0  0  0  0  0
  -30.5090  -27.1560   18.6170 H   0  0  0  0  0  0  0  0  0  0  0  0
  -30.3630  -25.6000   19.2670 H   0  0  0  0  0  0  0  0  0  0  0  0
  -33.1950  -22.7380   19.7100 C   0  0  0  0  0  2  0  0  0  0  0  0
  -34.9750  -23.0080   17.8980 C   0  0  0  0  0  1  0  0  0  0  0  0
  -33.4740  -22.9400   18.2070 C   0  0  0  0  0  2  0  0  0  0  0  0
  -25.9390  -23.4340   16.7060 C   0  0  0  0  0  2  0  0  0  0  0  0
  -26.0700  -23.6840   15.1870 C   0  0  0  0  0  2  0  0  0  0  0  0
  -26.8750  -24.9520   14.8100 C   0  0  0  0  0  2  0  0  0  0  0  0
  -28.0440  -24.6620   13.8370 C   0  0  0  0  0  2  0  0  0  0  0  0
  -29.0250  -25.7090   13.8010 O   0  0  0  0  0  0  0  0  0  0  0  0
  -35.0370  -28.5890   11.2670 C   0  0  0  0  0  0  0  0  0  0  0  0
  -29.9070  -25.7740   12.7380 C   0  0  0  0  0  0  0  0  0  0  0  0
  -33.6870  -27.3040    9.6410 C   0  0  0  0  0  3  0  0  0  0  0  0
  -31.7890  -25.9210   10.6260 C   0  0  0  0  0  0  0  0  0  0  0  0
  -33.5900  -26.7590   12.1410 C   0  0  0  0  0  2  0  0  0  0  0  0
  -32.1650  -26.2900   11.9220 C   0  0  0  0  0  0  0  0  0  0  0  0
  -31.2280  -26.2220   12.9780 C   0  0  0  0  0  3  0  0  0  0  0  0
  -29.5500  -25.4100   11.4160 C   0  0  0  0  0  3  0  0  0  0  0  0
  -30.4800  -25.4870   10.3660 C   0  0  0  0  0  3  0  0  0  0  0  0
  -32.8430  -26.0080    9.5470 C   0  0  0  0  0  2  0  0  0  0  0  0
  -34.1230  -27.6030   11.0450 N   0  0  0  0  0  0  0  0  0  0  0  0
  -35.5440  -29.2160   10.3280 O   0  0  0  0  0  0  0  0  0  0  0  0
  -32.8960  -28.4590    8.9870 C   0  0  0  0  0  0  0  0  0  0  0  0
  -33.3420  -28.8900    7.7950 N   0  0  0  0  0  0  0  0  0  0  0  0
  -31.8940  -28.9280    9.5330 O   0  0  0  0  0  0  0  0  0  0  0  0
  -34.1750  -28.4600    7.4180 H   0  0  0  0  0  0  0  0  0  0  0  0
  -33.8890  -31.0320    4.9380 C   0  0  0  0  0  0  0  0  0  0  0  0
  -32.7350  -29.9400    6.9760 C   0  0  0  0  0  3  0  0  0  0  0  0
  -31.7340  -29.3440    5.9600 C   0  0  0  0  0  2  0  0  0  0  0  0
  -32.3630  -29.0430    4.5960 C   0  0  0  0  0  2  0  0  0  0  0  0
  -32.9480  -30.3190    3.9820 C   0  0  0  0  0  2  0  0  0  0  0  0
  -33.8010  -30.8410    6.3410 C   0  0  0  0  0  0  0  0  0  0  0  0
  -34.7250  -31.5010    7.1810 C   0  0  0  0  0  3  0  0  0  0  0  0
  -35.7200  -32.3370    6.6430 C   0  0  0  0  0  3  0  0  0  0  0  0
  -35.7930  -32.5360    5.2540 C   0  0  0  0  0  3  0  0  0  0  0  0
  -34.8770  -31.8870    4.4070 C   0  0  0  0  0  3  0  0  0  0  0  0
  -35.5060  -28.9580   12.7090 C   0  0  0  0  0  3  0  0  0  0  0  0
  -34.8360  -30.2760   13.2640 C   0  0  1  0  0  0  0  0  0  0  0  0
  -34.9560  -31.4870   12.3090 C   0  0  0  0  0  1  0  0  0  0  0  0
  -33.3340  -30.0490   13.5470 C   0  0  0  0  0  1  0  0  0  0  0  0
  -35.4850  -30.6660   14.6130 C   0  0  0  0  0  1  0  0  0  0  0  0
  -36.9680  -29.0930   12.6780 N   0  0  0  0  0  0  0  0  0  0  0  0
  -37.8270  -28.1360   13.0530 C   0  0  0  0  0  0  0  0  0  0  0  0
  -37.4630  -27.0610   13.5350 O   0  0  0  0  0  0  0  0  0  0  0  0
  -37.3370  -29.9240   12.2380 H   0  0  0  0  0  0  0  0  0  0  0  0
  -39.8340  -27.6950   11.6010 C   0  0  0  0  0  1  0  0  0  0  0  0
  -39.3300  -28.4180   12.8600 C   0  0  0  0  0  3  0  0  0  0  0  0
  -39.9320  -28.8680   15.1980 C   0  0  0  0  0  1  0  0  0  0  0  0
  -40.1550  -28.0280   14.0240 N   0  0  0  0  0  0  0  0  0  0  0  0
  -41.1430  -28.0630   13.7900 H   0  0  0  0  0  0  0  0  0  0  0  0
  2  1  1  0
  3  7  1  0
  3  2  1  0
  4  3  1  0
  5  3  1  0
  7  6  1  0
  7  8  1  0
  8  9  1  0
  9 18  1  0
 10 17  2  0
 10 16  1  0
 12 11  1  0
 13 12  1  0
 14 22  1  0
 14 15  1  0
 14 13  1  0
 15 16  1  0
 16 11  1  0
 18 10  1  0
 19 20  2  0
 19 22  1  0
 20 21  1  0
 21 23  2  0
 21 24  1  0
 22 23  1  0
 24 25  1  0
 25 26  2  0
 27 26  1  0
 27 30  1  0
 28 27  2  0
 29 24  2  0
 29 28  1  0
 30 31  1  0
 31 36  1  0
 32 31  2  0
 32 33  1  0
 33 34  2  0
 34 35  1  0
 34 38  1  0
 36 37  1  0
 36 35  2  0
 39 40  1  0
 39 20  1  0
 40 42  1  0
 41 39  2  0
 43 40  1  0
 44 19  1  0
 45 44  1  0
 46 44  1  0
 47 18  1  0
 48 49  1  0
 49 47  1  0
 50  2  1  0
 51 50  1  0
 52 51  1  0
 53 52  1  0
 54 53  1  0
 56 61  1  0
 56 54  1  0
 57 67  1  0
 57 65  1  0
 58 60  1  0
 60 59  1  0
 60 61  2  0
 62 56  2  0
 63 58  2  0
 63 62  1  0
 64 57  1  0
 64 58  1  0
 65 55  1  0
 65 59  1  0
 66 55  2  0
 67 69  2  0
 68 67  1  0
 70 68  1  0
 71 76  1  0
 72 68  1  0
 73 72  1  0
 74 73  1  0
 75 74  1  0
 75 71  1  0
 76 72  1  0
 76 77  2  0
 78 77  1  0
 79 78  2  0
 80 71  2  0
 80 79  1  0
 81 55  1  0
 81 82  1  0
 82 84  1  1
 82 85  1  0
 83 82  1  0
 86 81  1  0
 86 87  1  0
 87 88  2  0
 89 86  1  0
 91 90  1  0
 91 87  1  0
 91 93  1  0
 93 92  1  0
 94 93  1  0
M  ISO  4  10 100  18 100  53 101  54 101
M  END
>  <TORSDO>  (30) 
F 26

>  <SCORE>  (30) 
6.991

>  <name>  (30) 
30

>  <ligand_id>  (30) 
30

>  <original_smiles>  (30) 
[H]c1c([H])c([H])c2c(c1[H])C([H])([H])C([H])([H])C([H])([H])C2([H])N([H])C(=O)C1([H])N(C(=O)C([H])(N([H])C(=O)C([H])(N([H])C([H])([H])[H])C([H])([H])[H])C(C([H])([H])[H])(C([H])([H])[H])C([H])([H])[H])C([H])([H])c2c([H])c(OC([H])([H])C([H])([H])C([H])([H])C([H])([H])C([H])(C([H])([H])[H])[N+]([H])([H])C([H])(C([H])([H])[H])C([H])([H])C([H])([H])N(C(=O)N3C([H])([H])C([H])([H])C([H])([H])C([H])(n4nc(-c5c([H])c([H])c(Oc6c([H])c([H])c(F)c([H])c6F)c([H])c5[H])c(C(=O)N([H])[H])c4N([H])[H])C3([H])[H])C([H])([H])C([H])([H])C([H])([H])[H])c([H])c([H])c2C1([H])[H]

>  <smiles>  (30) 
[H]c1c([H])c([H])c2c(c1[H])C([H])([H])C([H])([H])C([H])([H])C2([H])N([H])C(=O)C1([H])N(C(=O)C([H])(N([H])C(=O)C([H])(N([H])C([H])([H])[H])C([H])([H])[H])C(C([H])([H])[H])(C([H])([H])[H])C([H])([H])[H])C([H])([H])c2c([H])c(OC([H])([H])C([H])([H])C([H])([H])C([H])([H])C([H])(C([H])([H])[H])[N+]([H])([H])C([H])(C([H])([H])[H])C([H])([H])C([H])([H])N(C(=O)N3C([H])([H])C([H])([H])C([H])([H])C([H])(n4nc(-c5c([H])c([H])c(Oc6c([H])c([H])c(F)c([H])c6F)c([H])c5[H])c(C(=O)N([H])[H])c4N([H])[H])C3([H])[H])C([H])([H])C([H])([H])C([H])([H])[H])c([H])c([H])c2C1([H])[H]

$$$$
31:0:0
     RDKit          3D

 97106  0  0  1  0  0  0  0  0999 V2000
  -27.9610  -22.6940   16.1560 N   0  0  1  0  0  4  0  0  0  0  0  0
  -27.6680  -21.7310   16.2380 H   0  0  0  0  0  0  0  0  0  0  0  0
  -27.5890  -23.0790   14.5820 C   0  0  0  0  0  2  0  0  0  0  0  0
  -26.2720  -24.1190   13.9640 C   0  0  0  0  0  2  0  0  0  0  0  0
  -26.1970  -25.4290   12.8260 C   0  0  0  0  0  0  0  0  0  0  0  0
  -27.3070  -27.4830   11.7090 C   0  0  0  0  0  2  0  0  0  0  0  0
  -28.8360  -27.2800   11.5410 C   0  0  0  0  0  2  0  0  0  0  0  0
  -29.5880  -27.6940   12.8180 C   0  0  0  0  0  2  0  0  0  0  0  0
  -28.9050  -27.1480   14.0960 C   0  0  0  0  0  3  0  0  0  0  0  0
  -27.3770  -27.3620   14.0940 C   0  0  0  0  0  2  0  0  0  0  0  0
  -26.8400  -26.6910   12.8990 N   0  0  0  0  0  0  0  0  0  0  0  0
  -25.5770  -25.2710   11.7640 O   0  0  0  0  0  0  0  0  0  0  0  0
  -29.7850  -26.9370   16.4820 C   0  0  0  0  0  0  0  0  0  0  0  0
  -30.4720  -27.7940   17.2950 C   0  0  0  0  0  0  0  0  0  0  0  0
  -30.6140  -29.0100   16.5580 C   0  0  0  0  0  0  0  0  0  0  0  0
  -29.5330  -27.6380   15.3170 N   0  0  0  0  0  0  0  0  0  0  0  0
  -29.9850  -28.9180   15.3900 N   0  0  0  0  0  0  0  0  0  0  0  0
  -31.3690  -30.2310   16.8730 C   0  0  0  0  0  0  0  0  0  0  0  0
  -31.2140  -30.8990   18.1070 C   0  0  0  0  0  3  0  0  0  0  0  0
  -31.9690  -32.0570   18.3930 C   0  0  0  0  0  3  0  0  0  0  0  0
  -32.8920  -32.5560   17.4440 C   0  0  0  0  0  0  0  0  0  0  0  0
  -33.0250  -31.9010   16.2070 C   0  0  0  0  0  3  0  0  0  0  0  0
  -32.2700  -30.7510   15.9220 C   0  0  0  0  0  3  0  0  0  0  0  0
  -33.6480  -33.6890   17.6250 O   0  0  0  0  0  0  0  0  0  0  0  0
  -34.9910  -33.6220   17.8990 C   0  0  0  0  0  0  0  0  0  0  0  0
  -35.9460  -33.3800   16.8880 C   0  0  0  0  0  3  0  0  0  0  0  0
  -37.3200  -33.3870   17.2020 C   0  0  0  0  0  3  0  0  0  0  0  0
  -37.7400  -33.6470   18.5210 C   0  0  0  0  0  0  0  0  0  0  0  0
  -36.7900  -33.8950   19.5270 C   0  0  0  0  0  3  0  0  0  0  0  0
  -35.4200  -33.8860   19.2160 C   0  0  0  0  0  0  0  0  0  0  0  0
  -34.5100  -34.1460   20.1860 F   0  0  0  0  0  0  0  0  0  0  0  0
  -39.0600  -33.6620   18.8210 F   0  0  0  0  0  0  0  0  0  0  0  0
  -31.0540  -27.4660   18.6380 C   0  0  0  0  0  0  0  0  0  0  0  0
  -31.1250  -28.4490   19.5290 N   0  0  0  0  0  0  0  0  0  0  0  0
  -31.4060  -26.3220   18.9210 O   0  0  0  0  0  0  0  0  0  0  0  0
  -30.8170  -29.3830   19.3000 H   0  0  0  0  0  0  0  0  0  0  0  0
  -31.4880  -28.2650   20.4530 H   0  0  0  0  0  0  0  0  0  0  0  0
  -29.3920  -25.6090   16.6180 N   0  0  0  0  0  4  0  0  0  0  0  0
  -29.6360  -25.0700   17.4400 H   0  0  0  0  0  0  0  0  0  0  0  0
  -28.9170  -25.0690   15.9080 H   0  0  0  0  0  0  0  0  0  0  0  0
  -29.4460  -22.7290   16.2370 C   0  0  0  0  0  2  0  0  0  0  0  0
  -30.0970  -24.1250   16.3670 C   0  0  0  0  0  3  0  0  0  0  0  0
  -31.0880  -24.3480   17.5350 C   0  0  0  0  0  2  0  0  0  0  0  0
  -30.1350  -23.8650   19.8570 C   0  0  0  0  0  3  0  0  0  0  0  0
  -30.9070  -23.4450   18.7510 C   0  0  0  0  0  0  0  0  0  0  0  0
  -30.5510  -21.8620   20.9260 C   0  0  0  0  0  0  0  0  0  0  0  0
  -31.3380  -21.4360   19.8170 C   0  0  0  0  0  0  0  0  0  0  0  0
  -29.9660  -23.0820   20.9460 N   0  0  0  0  0  0  0  0  0  0  0  0
  -31.5460  -22.2490   18.7510 N   0  0  0  0  0  0  0  0  0  0  0  0
  -31.2800  -21.3150   23.3050 C   0  0  0  0  0  1  0  0  0  0  0  0
  -30.2900  -21.0180   22.1690 C   0  0  0  0  0  2  0  0  0  0  0  0
  -32.5110  -19.7410   18.3140 C   0  0  0  0  0  1  0  0  0  0  0  0
  -31.9790  -20.0580   19.7160 C   0  0  0  0  0  2  0  0  0  0  0  0
  -27.3810  -23.4310   17.5250 C   0  0  0  0  0  3  0  0  0  0  0  0
  -28.1820  -24.0290   19.0070 C   0  0  0  0  0  3  0  0  0  0  0  0
  -27.6650  -24.8870   20.4790 C   0  0  0  0  0  2  0  0  0  0  0  0
  -28.0980  -26.1690   21.3880 O   0  0  0  0  0  0  0  0  0  0  0  0
  -27.5000  -31.2510   26.9290 C   0  0  0  0  0  0  0  0  0  0  0  0
  -27.3680  -26.9490   22.4060 C   0  0  0  0  0  0  0  0  0  0  0  0
  -25.6910  -29.6040   26.6440 C   0  0  0  0  0  3  0  0  0  0  0  0
  -25.6780  -28.2870   24.4240 C   0  0  0  0  0  0  0  0  0  0  0  0
  -27.0780  -30.3350   24.5980 C   0  0  0  0  0  2  0  0  0  0  0  0
  -26.8130  -28.9530   23.9450 C   0  0  0  0  0  0  0  0  0  0  0  0
  -27.6260  -28.3070   22.9160 C   0  0  0  0  0  3  0  0  0  0  0  0
  -26.1730  -26.3990   22.9150 C   0  0  0  0  0  3  0  0  0  0  0  0
  -25.3530  -27.0310   23.8860 C   0  0  0  0  0  3  0  0  0  0  0  0
  -24.8440  -28.9440   25.5220 C   0  0  0  0  0  2  0  0  0  0  0  0
  -26.8080  -30.4280   26.0780 N   0  0  0  0  0  0  0  0  0  0  0  0
  -27.2160  -31.3270   28.1350 O   0  0  0  0  0  0  0  0  0  0  0  0
  -26.1750  -28.5130   27.6330 C   0  0  0  0  0  0  0  0  0  0  0  0
  -25.5450  -28.4220   28.8190 N   0  0  0  0  0  0  0  0  0  0  0  0
  -27.0920  -27.7500   27.3140 O   0  0  0  0  0  0  0  0  0  0  0  0
  -24.8150  -29.0920   29.0210 H   0  0  0  0  0  0  0  0  0  0  0  0
  -25.5870  -27.8500   32.4000 C   0  0  0  0  0  0  0  0  0  0  0  0
  -25.8110  -27.4230   29.8570 C   0  0  0  0  0  3  0  0  0  0  0  0
  -24.6130  -26.4570   30.0230 C   0  0  0  0  0  2  0  0  0  0  0  0
  -23.6290  -26.8950   31.1110 C   0  0  0  0  0  2  0  0  0  0  0  0
  -24.3350  -26.9940   32.4670 C   0  0  0  0  0  2  0  0  0  0  0  0
  -26.2710  -28.0660   31.1730 C   0  0  0  0  0  0  0  0  0  0  0  0
  -27.4110  -28.9000   31.1630 C   0  0  0  0  0  3  0  0  0  0  0  0
  -27.8690  -29.5070   32.3480 C   0  0  0  0  0  3  0  0  0  0  0  0
  -27.1970  -29.2800   33.5600 C   0  0  0  0  0  3  0  0  0  0  0  0
  -26.0620  -28.4490   33.5860 C   0  0  0  0  0  3  0  0  0  0  0  0
  -28.6690  -32.1500   26.4250 C   0  0  0  0  0  3  0  0  0  0  0  0
  -29.6880  -32.5400   27.5670 C   0  0  1  0  0  0  0  0  0  0  0  0
  -29.0130  -33.1140   28.8360 C   0  0  0  0  0  1  0  0  0  0  0  0
  -30.5290  -31.3180   27.9950 C   0  0  0  0  0  1  0  0  0  0  0  0
  -30.6870  -33.5980   27.0400 C   0  0  0  0  0  1  0  0  0  0  0  0
  -28.0860  -33.3660   25.8330 N   0  0  0  0  0  0  0  0  0  0  0  0
  -27.7280  -33.4980   24.5490 C   0  0  0  0  0  0  0  0  0  0  0  0
  -27.9140  -32.6130   23.7100 O   0  0  0  0  0  0  0  0  0  0  0  0
  -27.8610  -34.1150   26.4700 H   0  0  0  0  0  0  0  0  0  0  0  0
  -25.5320  -34.6790   24.2000 C   0  0  0  0  0  1  0  0  0  0  0  0
  -27.0610  -34.8230   24.1260 C   0  0  0  0  0  3  0  0  0  0  0  0
  -28.8470  -35.6920   22.6820 C   0  0  0  0  0  1  0  0  0  0  0  0
  -27.4510  -35.2750   22.7730 N   0  0  0  0  0  0  0  0  0  0  0  0
  -26.8690  -36.0540   22.4750 H   0  0  0  0  0  0  0  0  0  0  0  0
  1 41  1  0
  1  2  1  1
  1 54  1  0
  3  1  1  0
  4  3  1  0
  5 11  1  0
  5  4  1  0
  6 11  1  0
  7  6  1  0
  7  8  1  0
  9  8  1  0
  9 16  1  0
 10  9  1  0
 11 10  1  0
 12  5  2  0
 13 38  1  0
 13 14  2  0
 14 33  1  0
 15 18  1  0
 15 14  1  0
 16 17  1  0
 16 13  1  0
 17 15  2  0
 18 19  1  0
 19 20  2  0
 21 24  1  0
 21 20  1  0
 22 21  2  0
 23 22  1  0
 23 18  2  0
 24 25  1  0
 25 30  1  0
 26 27  1  0
 26 25  2  0
 27 28  2  0
 28 32  1  0
 28 29  1  0
 30 29  2  0
 30 31  1  0
 33 35  2  0
 33 34  1  0
 34 37  1  0
 36 34  1  0
 38 39  1  0
 40 38  1  0
 41 42  1  0
 42 38  1  0
 42 43  1  0
 43 45  1  0
 44 48  1  0
 45 49  1  0
 45 44  2  0
 46 48  2  0
 46 51  1  0
 47 46  1  0
 49 47  2  0
 51 50  1  0
 52 53  1  0
 53 47  1  0
 54 55  2  0
 55 56  1  0
 56 57  1  0
 57 59  1  0
 58 69  2  0
 59 65  2  0
 59 64  1  0
 60 70  1  0
 61 67  1  0
 62 68  1  0
 63 61  1  0
 63 62  1  0
 64 63  2  0
 65 66  1  0
 66 61  2  0
 67 60  1  0
 68 60  1  0
 68 58  1  0
 70 71  1  0
 71 73  1  0
 72 70  2  0
 74 78  1  0
 74 83  1  0
 75 71  1  0
 75 76  1  0
 75 79  1  0
 76 77  1  0
 77 78  1  0
 79 74  2  0
 80 79  1  0
 80 81  2  0
 81 82  1  0
 82 83  2  0
 84 58  1  0
 84 85  1  0
 85 87  1  1
 85 86  1  0
 88 85  1  0
 89 84  1  0
 89 92  1  0
 90 89  1  0
 91 90  2  0
 94 93  1  0
 94 90  1  0
 95 96  1  0
 96 94  1  0
 97 96  1  0
M  ISO  4   4 100   5 100  56 101  57 101
M  END
>  <TORSDO>  (31) 
F 27

>  <SCORE>  (31) 
3.137

>  <name>  (31) 
31

>  <ligand_id>  (31) 
31

>  <original_smiles>  (31) 
[H]c1nc(C([H])([H])C([H])([H])[H])c(C([H])([H])C([H])([H])[H])nc1C([H])([H])C([H])([H])C([H])([H])[N+]([H])(C([H])([H])C([H])([H])C(=O)N1C([H])([H])C([H])([H])C([H])([H])C([H])(n2nc(-c3c([H])c([H])c(Oc4c([H])c([H])c(F)c([H])c4F)c([H])c3[H])c(C(=O)N([H])[H])c2N([H])[H])C1([H])[H])C([H])([H])C([H])([H])C([H])([H])Oc1c([H])c([H])c2c(c1[H])C([H])([H])N(C(=O)C([H])(N([H])C(=O)C([H])(N([H])C([H])([H])[H])C([H])([H])[H])C(C([H])([H])[H])(C([H])([H])[H])C([H])([H])[H])C([H])(C(=O)N([H])C1([H])c3c([H])c([H])c([H])c([H])c3C([H])([H])C([H])([H])C1([H])[H])C2([H])[H]

>  <smiles>  (31) 
[H]c1nc(C([H])([H])C([H])([H])[H])c(C([H])([H])C([H])([H])[H])nc1C([H])([H])C([H])([H])C([H])([H])[N+]([H])(C([H])([H])C([H])([H])C(=O)N1C([H])([H])C([H])([H])C([H])([H])C([H])(n2nc(-c3c([H])c([H])c(Oc4c([H])c([H])c(F)c([H])c4F)c([H])c3[H])c(C(=O)N([H])[H])c2N([H])[H])C1([H])[H])C([H])([H])C([H])([H])C([H])([H])Oc1c([H])c([H])c2c(c1[H])C([H])([H])N(C(=O)C([H])(N([H])C(=O)C([H])(N([H])C([H])([H])[H])C([H])([H])[H])C(C([H])([H])[H])(C([H])([H])[H])C([H])([H])[H])C([H])(C(=O)N([H])C1([H])c3c([H])c([H])c([H])c([H])c3C([H])([H])C([H])([H])C1([H])[H])C2([H])[H]

$$$$
32:0:0
     RDKit          3D

 90 98  0  0  1  0  0  0  0  0999 V2000
  -29.5090  -21.5820   19.9270 C   0  0  0  0  0  0  0  0  0  0  0  0
  -30.0040  -20.0180   21.2260 C   0  0  0  0  0  3  0  0  0  0  0  0
  -30.2030  -19.1760   22.4430 C   0  0  0  0  0  1  0  0  0  0  0  0
  -29.3450  -21.1820   21.2240 N   0  0  0  0  0  0  0  0  0  0  0  0
  -30.1850  -20.7030   19.1650 N   0  0  0  0  0  2  0  0  0  0  0  0
  -30.4890  -19.6740   20.0210 N   0  0  0  0  0  0  0  0  0  0  0  0
  -28.8250  -22.8180   19.3400 C   0  0  0  0  0  2  0  0  0  0  0  0
  -28.8130  -24.1560   20.1700 C   0  0  0  0  0  2  0  0  0  0  0  0
  -28.4930  -25.4370   19.3150 C   0  0  0  0  0  2  0  0  0  0  0  0
  -28.3410  -26.7030   20.0220 O   0  0  0  0  0  0  0  0  0  0  0  0
  -24.6110  -31.8990   23.2310 C   0  0  0  0  0  0  0  0  0  0  0  0
  -27.1560  -27.4400   20.0200 C   0  0  0  0  0  0  0  0  0  0  0  0
  -23.3580  -30.5210   21.6070 C   0  0  0  0  0  3  0  0  0  0  0  0
  -24.7670  -28.9950   20.1200 C   0  0  0  0  0  0  0  0  0  0  0  0
  -25.8830  -30.8630   21.3440 C   0  0  0  0  0  2  0  0  0  0  0  0
  -25.9460  -29.4970   20.6810 C   0  0  0  0  0  0  0  0  0  0  0  0
  -27.1380  -28.7280   20.6230 C   0  0  0  0  0  3  0  0  0  0  0  0
  -25.9460  -26.9630   19.4620 C   0  0  0  0  0  3  0  0  0  0  0  0
  -24.7650  -27.7300   19.5080 C   0  0  0  0  0  3  0  0  0  0  0  0
  -23.5290  -29.8600   20.2130 C   0  0  0  0  0  2  0  0  0  0  0  0
  -24.6380  -31.1100   22.1180 N   0  0  0  0  0  0  0  0  0  0  0  0
  -23.5460  -32.1660   23.8060 O   0  0  0  0  0  0  0  0  0  0  0  0
  -22.7260  -29.4910   22.5720 C   0  0  0  0  0  0  0  0  0  0  0  0
  -21.4130  -29.2490   22.4210 N   0  0  0  0  0  0  0  0  0  0  0  0
  -23.4160  -28.9110   23.4140 O   0  0  0  0  0  0  0  0  0  0  0  0
  -20.9140  -29.7700   21.7140 H   0  0  0  0  0  0  0  0  0  0  0  0
  -18.1060  -27.8380   22.7950 C   0  0  0  0  0  0  0  0  0  0  0  0
  -20.6220  -28.2880   23.1890 C   0  0  0  0  0  3  0  0  0  0  0  0
  -20.8550  -26.8450   22.6850 C   0  0  0  0  0  2  0  0  0  0  0  0
  -19.8340  -26.4030   21.6300 C   0  0  0  0  0  2  0  0  0  0  0  0
  -18.4110  -26.4770   22.1930 C   0  0  0  0  0  2  0  0  0  0  0  0
  -19.1440  -28.6940   23.2480 C   0  0  0  0  0  0  0  0  0  0  0  0
  -18.8070  -29.9630   23.7660 C   0  0  0  0  0  3  0  0  0  0  0  0
  -17.4640  -30.3770   23.8430 C   0  0  0  0  0  3  0  0  0  0  0  0
  -16.4390  -29.5180   23.4080 C   0  0  0  0  0  3  0  0  0  0  0  0
  -16.7610  -28.2520   22.8880 C   0  0  0  0  0  3  0  0  0  0  0  0
  -25.9140  -32.5180   23.8250 C   0  0  0  0  0  3  0  0  0  0  0  0
  -25.6150  -33.9080   24.1960 N   0  0  0  0  0  0  0  0  0  0  0  0
  -25.9320  -34.9780   23.4550 C   0  0  0  0  0  0  0  0  0  0  0  0
  -26.5800  -34.8980   22.4080 O   0  0  0  0  0  0  0  0  0  0  0  0
  -25.0370  -34.0440   25.0120 H   0  0  0  0  0  0  0  0  0  0  0  0
  -24.2070  -36.7870   23.1730 C   0  0  0  0  0  1  0  0  0  0  0  0
  -25.4570  -36.3560   23.9570 C   0  0  0  0  0  3  0  0  0  0  0  0
  -27.6030  -37.2130   24.7860 C   0  0  0  0  0  1  0  0  0  0  0  0
  -26.4920  -37.4080   23.8590 N   0  0  0  0  0  0  0  0  0  0  0  0
  -26.0890  -38.3250   24.0380 H   0  0  0  0  0  0  0  0  0  0  0  0
  -26.4750  -31.7200   25.0660 C   0  0  1  0  0  0  0  0  0  0  0  0
  -25.4100  -31.4270   26.1490 C   0  0  0  0  0  1  0  0  0  0  0  0
  -27.0780  -30.3680   24.6200 C   0  0  0  0  0  1  0  0  0  0  0  0
  -27.6220  -32.5200   25.7280 C   0  0  0  0  0  1  0  0  0  0  0  0
  -31.3220  -18.5080   19.6080 C   0  0  0  0  0  2  0  0  0  0  0  0
  -30.5640  -17.1370   19.4520 C   0  0  0  0  0  2  0  0  0  0  0  0
  -31.7010  -14.8780   19.7710 C   0  0  0  0  0  0  0  0  0  0  0  0
  -31.4190  -12.5350   18.9870 C   0  0  0  0  0  2  0  0  0  0  0  0
  -30.4540  -12.5000   17.7810 C   0  0  0  0  0  2  0  0  0  0  0  0
  -28.9900  -12.4100   18.2530 C   0  0  0  0  0  2  0  0  0  0  0  0
  -28.6580  -13.4550   19.3500 C   0  0  0  0  0  3  0  0  0  0  0  0
  -29.7260  -13.4370   20.4630 C   0  0  0  0  0  2  0  0  0  0  0  0
  -31.0420  -13.6770   19.8420 N   0  0  0  0  0  0  0  0  0  0  0  0
  -32.7620  -15.0000   19.1500 O   0  0  0  0  0  0  0  0  0  0  0  0
  -31.0060  -16.1920   21.7110 C   0  0  0  0  0  1  0  0  0  0  0  0
  -31.0490  -15.9740   20.2630 N   0  0  0  0  0  0  0  0  0  0  0  0
  -26.3320  -14.2060   20.1560 C   0  0  0  0  0  0  0  0  0  0  0  0
  -25.2390  -13.4990   20.5790 C   0  0  0  0  0  0  0  0  0  0  0  0
  -25.6190  -12.1230   20.5430 C   0  0  0  0  0  0  0  0  0  0  0  0
  -27.3140  -13.2630   19.8890 N   0  0  0  0  0  0  0  0  0  0  0  0
  -26.8900  -12.0060   20.1800 N   0  0  0  0  0  0  0  0  0  0  0  0
  -24.8310  -10.9070   20.7760 C   0  0  0  0  0  0  0  0  0  0  0  0
  -25.1530  -10.0050   21.8150 C   0  0  0  0  0  3  0  0  0  0  0  0
  -24.3680   -8.8520   22.0300 C   0  0  0  0  0  3  0  0  0  0  0  0
  -23.2460   -8.5930   21.2060 C   0  0  0  0  0  0  0  0  0  0  0  0
  -22.9440   -9.4820   20.1610 C   0  0  0  0  0  3  0  0  0  0  0  0
  -23.7300  -10.6260   19.9440 C   0  0  0  0  0  3  0  0  0  0  0  0
  -22.4420   -7.4860   21.3260 O   0  0  0  0  0  0  0  0  0  0  0  0
  -22.1410   -6.9430   22.5500 C   0  0  0  0  0  0  0  0  0  0  0  0
  -21.4930   -7.6900   23.5570 C   0  0  0  0  0  3  0  0  0  0  0  0
  -21.1390   -7.0730   24.7740 C   0  0  0  0  0  3  0  0  0  0  0  0
  -21.4250   -5.7110   24.9820 C   0  0  0  0  0  0  0  0  0  0  0  0
  -22.0660   -4.9640   23.9790 C   0  0  0  0  0  3  0  0  0  0  0  0
  -22.4200   -5.5790   22.7650 C   0  0  0  0  0  0  0  0  0  0  0  0
  -23.0190   -4.8490   21.7920 F   0  0  0  0  0  0  0  0  0  0  0  0
  -21.0790   -5.1160   26.1480 F   0  0  0  0  0  0  0  0  0  0  0  0
  -23.8840  -14.0600   20.9060 C   0  0  0  0  0  0  0  0  0  0  0  0
  -23.1690  -13.4310   21.8330 N   0  0  0  0  0  0  0  0  0  0  0  0
  -23.4730  -15.0900   20.3740 O   0  0  0  0  0  0  0  0  0  0  0  0
  -23.5140  -12.5970   22.2840 H   0  0  0  0  0  0  0  0  0  0  0  0
  -22.2620  -13.7900   22.0950 H   0  0  0  0  0  0  0  0  0  0  0  0
  -26.5690  -15.5630   19.9570 N   0  0  0  0  0  0  0  0  0  0  0  0
  -25.8490  -16.2640   20.0930 H   0  0  0  0  0  0  0  0  0  0  0  0
  -27.4340  -15.9480   19.5990 H   0  0  0  0  0  0  0  0  0  0  0  0
  1  4  2  0
  2  3  1  0
  4  2  1  0
  5  1  1  0
  5  6  1  0
  6  2  1  0
  7  1  1  0
  7  8  1  0
  9 10  1  0
  9  8  1  0
 11 22  2  0
 12 10  1  0
 12 17  1  0
 13 21  1  0
 13 23  1  0
 14 20  1  0
 14 16  1  0
 15 21  1  0
 16 15  1  0
 17 16  2  0
 18 19  1  0
 18 12  2  0
 19 14  2  0
 20 13  1  0
 21 11  1  0
 23 25  2  0
 24 23  1  0
 26 24  1  0
 27 36  2  0
 27 32  1  0
 28 24  1  0
 28 32  1  0
 29 28  1  0
 30 31  1  0
 30 29  1  0
 31 27  1  0
 32 33  2  0
 33 34  1  0
 35 34  2  0
 36 35  1  0
 37 11  1  0
 37 38  1  0
 37 47  1  0
 38 41  1  0
 39 43  1  0
 39 38  1  0
 40 39  2  0
 43 42  1  0
 45 43  1  0
 45 46  1  0
 45 44  1  0
 47 50  1  1
 47 48  1  0
 49 47  1  0
 51  6  1  0
 52 51  1  0
 52 62  1  0
 53 59  1  0
 53 62  1  0
 54 59  1  0
 55 56  1  0
 55 54  1  0
 57 56  1  0
 57 66  1  0
 57 58  1  0
 59 58  1  0
 60 53  2  0
 62 61  1  0
 63 64  2  0
 64 83  1  0
 65 64  1  0
 65 68  1  0
 66 63  1  0
 66 67  1  0
 67 65  2  0
 68 69  1  0
 69 70  2  0
 71 74  1  0
 71 70  1  0
 72 71  2  0
 73 72  1  0
 73 68  2  0
 74 75  1  0
 75 80  2  0
 75 76  1  0
 76 77  2  0
 77 78  1  0
 78 82  1  0
 79 78  2  0
 80 79  1  0
 81 80  1  0
 83 84  1  0
 84 87  1  0
 84 86  1  0
 85 83  2  0
 88 89  1  0
 88 63  1  0
 90 88  1  0
M  ISO  4   9 101  10 101  53 100  62 100
M  END
>  <TORSDO>  (32) 
F 21

>  <SCORE>  (32) 
-11.525

>  <name>  (32) 
32

>  <ligand_id>  (32) 
32

>  <original_smiles>  (32) 
[H]c1c([H])c([H])c2c(c1[H])C([H])([H])C([H])([H])C([H])([H])C2([H])N([H])C(=O)C1([H])N(C(=O)C([H])(N([H])C(=O)C([H])(N([H])C([H])([H])[H])C([H])([H])[H])C(C([H])([H])[H])(C([H])([H])[H])C([H])([H])[H])C([H])([H])c2c([H])c(OC([H])([H])C([H])([H])C([H])([H])c3nc(C([H])([H])[H])n(C([H])([H])C([H])([H])N(C(=O)N4C([H])([H])C([H])([H])C([H])([H])C([H])(n5nc(-c6c([H])c([H])c(Oc7c([H])c([H])c(F)c([H])c7F)c([H])c6[H])c(C(=O)N([H])[H])c5N([H])[H])C4([H])[H])C([H])([H])[H])n3)c([H])c([H])c2C1([H])[H]

>  <smiles>  (32) 
[H]c1c([H])c([H])c2c(c1[H])C([H])([H])C([H])([H])C([H])([H])C2([H])N([H])C(=O)C1([H])N(C(=O)C([H])(N([H])C(=O)C([H])(N([H])C([H])([H])[H])C([H])([H])[H])C(C([H])([H])[H])(C([H])([H])[H])C([H])([H])[H])C([H])([H])c2c([H])c(OC([H])([H])C([H])([H])C([H])([H])c3nc(C([H])([H])[H])n(C([H])([H])C([H])([H])N(C(=O)N4C([H])([H])C([H])([H])C([H])([H])C([H])(n5nc(-c6c([H])c([H])c(Oc7c([H])c([H])c(F)c([H])c7F)c([H])c6[H])c(C(=O)N([H])[H])c5N([H])[H])C4([H])[H])C([H])([H])[H])n3)c([H])c([H])c2C1([H])[H]

$$$$
33:0:0
     RDKit          3D

 90 98  0  0  1  0  0  0  0  0999 V2000
  -28.9810  -22.4340   19.4590 C   0  0  0  0  0  3  0  0  0  0  0  0
  -28.8330  -23.6330   20.1650 C   0  0  0  0  0  0  0  0  0  0  0  0
  -29.9470  -22.0850   21.4000 C   0  0  0  0  0  3  0  0  0  0  0  0
  -30.6900  -21.4810   22.5460 C   0  0  0  0  0  1  0  0  0  0  0  0
  -29.6590  -21.4800   20.2270 N   0  0  0  0  0  0  0  0  0  0  0  0
  -29.4570  -23.3490   21.3590 N   0  0  0  0  0  0  0  0  0  0  0  0
  -29.5250  -24.0090   22.1250 H   0  0  0  0  0  0  0  0  0  0  0  0
  -27.9810  -24.9150   19.8350 C   0  0  0  0  0  2  0  0  0  0  0  0
  -28.2680  -26.3320   20.2560 O   0  0  0  0  0  0  0  0  0  0  0  0
  -24.6180  -31.8810   23.2330 C   0  0  0  0  0  0  0  0  0  0  0  0
  -27.1930  -27.2610   20.1710 C   0  0  0  0  0  0  0  0  0  0  0  0
  -23.4040  -30.4830   21.6050 C   0  0  0  0  0  3  0  0  0  0  0  0
  -24.8440  -28.9290   20.1730 C   0  0  0  0  0  0  0  0  0  0  0  0
  -25.9510  -30.7770   21.4160 C   0  0  0  0  0  2  0  0  0  0  0  0
  -26.0230  -29.3950   20.7700 C   0  0  0  0  0  0  0  0  0  0  0  0
  -27.1990  -28.5720   20.7640 C   0  0  0  0  0  3  0  0  0  0  0  0
  -25.9890  -26.8900   19.5190 C   0  0  0  0  0  3  0  0  0  0  0  0
  -24.8330  -27.6840   19.5360 C   0  0  0  0  0  3  0  0  0  0  0  0
  -23.6110  -29.8090   20.2250 C   0  0  0  0  0  2  0  0  0  0  0  0
  -24.6780  -31.0660   22.1400 N   0  0  0  0  0  0  0  0  0  0  0  0
  -23.5390  -32.1640   23.7710 O   0  0  0  0  0  0  0  0  0  0  0  0
  -22.7430  -29.4700   22.5720 C   0  0  0  0  0  0  0  0  0  0  0  0
  -21.4150  -29.2920   22.4500 N   0  0  0  0  0  0  0  0  0  0  0  0
  -23.4230  -28.8470   23.3910 O   0  0  0  0  0  0  0  0  0  0  0  0
  -20.9240  -29.8420   21.7580 H   0  0  0  0  0  0  0  0  0  0  0  0
  -18.0390  -28.0930   22.9670 C   0  0  0  0  0  0  0  0  0  0  0  0
  -20.5980  -28.3610   23.2300 C   0  0  0  0  0  3  0  0  0  0  0  0
  -20.7030  -26.9250   22.6670 C   0  0  0  0  0  2  0  0  0  0  0  0
  -19.6000  -26.5910   21.6580 C   0  0  0  0  0  2  0  0  0  0  0  0
  -18.2180  -26.7390   22.3010 C   0  0  0  0  0  2  0  0  0  0  0  0
  -19.1580  -28.8610   23.3900 C   0  0  0  0  0  0  0  0  0  0  0  0
  -18.9360  -30.1270   23.9740 C   0  0  0  0  0  3  0  0  0  0  0  0
  -17.6300  -30.6240   24.1400 C   0  0  0  0  0  3  0  0  0  0  0  0
  -16.5270  -29.8560   23.7310 C   0  0  0  0  0  3  0  0  0  0  0  0
  -16.7330  -28.5910   23.1510 C   0  0  0  0  0  3  0  0  0  0  0  0
  -25.9060  -32.5130   23.8460 C   0  0  0  0  0  3  0  0  0  0  0  0
  -26.4290  -31.7430   25.1180 C   0  0  1  0  0  0  0  0  0  0  0  0
  -25.3400  -31.5100   26.1900 C   0  0  0  0  0  1  0  0  0  0  0  0
  -27.0100  -30.3630   24.7270 C   0  0  0  0  0  1  0  0  0  0  0  0
  -27.5840  -32.5370   25.7740 C   0  0  0  0  0  1  0  0  0  0  0  0
  -25.5970  -33.9110   24.1800 N   0  0  0  0  0  0  0  0  0  0  0  0
  -25.9210  -34.9650   23.4220 C   0  0  0  0  0  0  0  0  0  0  0  0
  -26.5800  -34.8660   22.3840 O   0  0  0  0  0  0  0  0  0  0  0  0
  -25.0160  -34.0630   24.9910 H   0  0  0  0  0  0  0  0  0  0  0  0
  -24.1890  -36.7590   23.0890 C   0  0  0  0  0  1  0  0  0  0  0  0
  -25.4360  -36.3520   23.8890 C   0  0  0  0  0  3  0  0  0  0  0  0
  -27.5760  -37.2330   24.7100 C   0  0  0  0  0  1  0  0  0  0  0  0
  -26.4670  -37.4060   23.7750 N   0  0  0  0  0  0  0  0  0  0  0  0
  -26.0610  -38.3250   23.9290 H   0  0  0  0  0  0  0  0  0  0  0  0
  -30.1760  -20.0850   19.7920 C   0  0  0  0  0  2  0  0  0  0  0  0
  -29.7240  -18.6860   20.4650 C   0  0  0  0  0  3  0  0  0  0  0  0
  -30.4490  -17.3240   19.9360 C   0  0  0  0  0  3  0  0  0  0  0  0
  -30.7560  -14.7580   20.0460 C   0  0  0  0  0  0  0  0  0  0  0  0
  -30.4040  -12.5580   18.8980 C   0  0  0  0  0  2  0  0  0  0  0  0
  -29.3930  -12.7000   17.7400 C   0  0  0  0  0  2  0  0  0  0  0  0
  -27.9510  -12.5240   18.2510 C   0  0  0  0  0  2  0  0  0  0  0  0
  -27.6710  -13.3440   19.5370 C   0  0  0  0  0  3  0  0  0  0  0  0
  -28.7950  -13.1670   20.5760 C   0  0  0  0  0  2  0  0  0  0  0  0
  -30.0600  -13.5660   19.9360 N   0  0  0  0  0  0  0  0  0  0  0  0
  -31.8640  -14.8480   19.5060 O   0  0  0  0  0  0  0  0  0  0  0  0
  -29.6990  -16.0020   21.8970 C   0  0  0  0  0  1  0  0  0  0  0  0
  -30.1310  -15.9290   20.4980 N   0  0  0  0  0  0  0  0  0  0  0  0
  -25.3280  -13.9160   20.4090 C   0  0  0  0  0  0  0  0  0  0  0  0
  -24.2840  -13.1340   20.8230 C   0  0  0  0  0  0  0  0  0  0  0  0
  -24.7450  -11.7840   20.7380 C   0  0  0  0  0  0  0  0  0  0  0  0
  -26.3570  -13.0430   20.0960 N   0  0  0  0  0  0  0  0  0  0  0  0
  -26.0160  -11.7540   20.3550 N   0  0  0  0  0  0  0  0  0  0  0  0
  -24.0310  -10.5170   20.9430 C   0  0  0  0  0  0  0  0  0  0  0  0
  -24.4850   -9.5530   21.8710 C   0  0  0  0  0  3  0  0  0  0  0  0
  -23.7680   -8.3530   22.0640 C   0  0  0  0  0  3  0  0  0  0  0  0
  -22.5830   -8.1070   21.3300 C   0  0  0  0  0  0  0  0  0  0  0  0
  -22.1490   -9.0600   20.3920 C   0  0  0  0  0  3  0  0  0  0  0  0
  -22.8670  -10.2510   20.1970 C   0  0  0  0  0  3  0  0  0  0  0  0
  -21.8370   -6.9580   21.4330 O   0  0  0  0  0  0  0  0  0  0  0  0
  -21.7680   -6.2470   22.6040 C   0  0  0  0  0  0  0  0  0  0  0  0
  -21.3160   -6.8330   23.8060 C   0  0  0  0  0  3  0  0  0  0  0  0
  -21.1960   -6.0490   24.9700 C   0  0  0  0  0  3  0  0  0  0  0  0
  -21.5160   -4.6780   24.9320 C   0  0  0  0  0  0  0  0  0  0  0  0
  -21.9610   -4.0910   23.7340 C   0  0  0  0  0  3  0  0  0  0  0  0
  -22.0830   -4.8740   22.5730 C   0  0  0  0  0  0  0  0  0  0  0  0
  -22.4920   -4.2980   21.4150 F   0  0  0  0  0  0  0  0  0  0  0  0
  -21.3930   -3.9210   26.0480 F   0  0  0  0  0  0  0  0  0  0  0  0
  -22.9050  -13.6040   21.1850 C   0  0  0  0  0  0  0  0  0  0  0  0
  -22.2330  -12.8920   22.0820 N   0  0  0  0  0  0  0  0  0  0  0  0
  -22.4370  -14.6370   20.7090 O   0  0  0  0  0  0  0  0  0  0  0  0
  -22.6260  -12.0540   22.4850 H   0  0  0  0  0  0  0  0  0  0  0  0
  -21.3110  -13.1880   22.3710 H   0  0  0  0  0  0  0  0  0  0  0  0
  -25.4840  -15.2910   20.2500 N   0  0  0  0  0  0  0  0  0  0  0  0
  -24.7300  -15.9470   20.4210 H   0  0  0  0  0  0  0  0  0  0  0  0
  -26.3210  -15.7320   19.8910 H   0  0  0  0  0  0  0  0  0  0  0  0
  1  2  2  0
  1  5  1  0
  2  6  1  0
  3  4  1  0
  5  3  1  0
  6  3  1  0
  6  7  1  0
  8  2  1  0
  8  9  1  0
 10 21  2  0
 11  9  1  0
 11 16  1  0
 12 20  1  0
 12 22  1  0
 13 19  1  0
 13 15  1  0
 14 20  1  0
 15 14  1  0
 16 15  2  0
 17 18  1  0
 17 11  2  0
 18 13  2  0
 19 12  1  0
 20 10  1  0
 22 24  2  0
 23 22  1  0
 25 23  1  0
 26 35  2  0
 26 31  1  0
 27 23  1  0
 27 31  1  0
 28 27  1  0
 29 30  1  0
 29 28  1  0
 30 26  1  0
 31 32  2  0
 32 33  1  0
 34 33  2  0
 35 34  1  0
 36 10  1  0
 36 41  1  0
 36 37  1  0
 37 40  1  1
 37 38  1  0
 39 37  1  0
 41 44  1  0
 42 46  1  0
 42 41  1  0
 43 42  2  0
 46 45  1  0
 48 46  1  0
 48 49  1  0
 48 47  1  0
 50  5  1  0
 50 51  1  0
 52 51  2  0
 52 62  1  0
 53 62  1  0
 54 59  1  0
 55 56  1  0
 55 54  1  0
 57 56  1  0
 57 66  1  0
 57 58  1  0
 59 53  1  0
 59 58  1  0
 60 53  2  0
 62 61  1  0
 63 64  2  0
 64 83  1  0
 65 64  1  0
 65 68  1  0
 66 67  1  0
 66 63  1  0
 67 65  2  0
 68 69  1  0
 69 70  2  0
 71 74  1  0
 71 70  1  0
 72 71  2  0
 73 72  1  0
 73 68  2  0
 74 75  1  0
 75 76  1  0
 76 77  2  0
 78 77  1  0
 78 82  1  0
 79 78  2  0
 80 75  2  0
 80 79  1  0
 81 80  1  0
 83 84  1  0
 84 87  1  0
 84 86  1  0
 85 83  2  0
 88 63  1  0
 88 89  1  0
 90 88  1  0
M  ISO  4   8 101   9 101  53 100  62 100
M  END
>  <TORSDO>  (33) 
F 20

>  <SCORE>  (33) 
-13.345

>  <name>  (33) 
33

>  <ligand_id>  (33) 
33

>  <original_smiles>  (33) 
[H]c1c([H])c([H])c2c(c1[H])C([H])([H])C([H])([H])C([H])([H])C2([H])N([H])C(=O)C1([H])N(C(=O)C([H])(N([H])C(=O)C([H])(N([H])C([H])([H])[H])C([H])([H])[H])C(C([H])([H])[H])(C([H])([H])[H])C([H])([H])[H])C([H])([H])c2c([H])c(OC([H])([H])c3c([H])n(C([H])([H])C([H])([H])C([H])([H])N(C(=O)N4C([H])([H])C([H])([H])C([H])([H])C([H])(n5nc(-c6c([H])c([H])c(Oc7c([H])c([H])c(F)c([H])c7F)c([H])c6[H])c(C(=O)N([H])[H])c5N([H])[H])C4([H])[H])C([H])([H])[H])c(C([H])([H])[H])[n+]3[H])c([H])c([H])c2C1([H])[H]

>  <smiles>  (33) 
[H]c1c([H])c([H])c2c(c1[H])C([H])([H])C([H])([H])C([H])([H])C2([H])N([H])C(=O)C1([H])N(C(=O)C([H])(N([H])C(=O)C([H])(N([H])C([H])([H])[H])C([H])([H])[H])C(C([H])([H])[H])(C([H])([H])[H])C([H])([H])[H])C([H])([H])c2c([H])c(OC([H])([H])c3c([H])n(C([H])([H])C([H])([H])C([H])([H])N(C(=O)N4C([H])([H])C([H])([H])C([H])([H])C([H])(n5nc(-c6c([H])c([H])c(Oc7c([H])c([H])c(F)c([H])c7F)c([H])c6[H])c(C(=O)N([H])[H])c5N([H])[H])C4([H])[H])C([H])([H])[H])c(C([H])([H])[H])[n+]3[H])c([H])c([H])c2C1([H])[H]

$$$$
34:0:0
     RDKit          3D

 92100  0  0  1  0  0  0  0  0999 V2000
  -30.9400  -20.8410   18.7210 C   0  0  0  0  0  3  0  0  0  0  0  0
  -30.2610  -19.9350   19.5630 C   0  0  0  0  0  0  0  0  0  0  0  0
  -29.1560  -20.5220   20.2180 C   0  0  0  0  0  0  0  0  0  0  0  0
  -29.6420  -22.6560   19.3940 C   0  0  0  0  0  0  0  0  0  0  0  0
  -30.6360  -22.1680   18.6450 N   0  0  0  0  0  0  0  0  0  0  0  0
  -28.8680  -21.8580   20.1410 N   0  0  0  0  0  0  0  0  0  0  0  0
  -27.1140  -20.2460   21.4590 C   0  0  0  0  0  1  0  0  0  0  0  0
  -28.3690  -19.7270   21.0220 O   0  0  0  0  0  0  0  0  0  0  0  0
  -30.8540  -18.5130   19.9130 C   0  0  0  0  0  3  0  0  0  0  0  0
  -30.1320  -17.1420   19.5100 C   0  0  0  0  0  3  0  0  0  0  0  0
  -31.1340  -14.7710   19.4100 C   0  0  0  0  0  0  0  0  0  0  0  0
  -30.6840  -12.5590   18.3340 C   0  0  0  0  0  2  0  0  0  0  0  0
  -29.6210  -12.7090   17.2230 C   0  0  0  0  0  2  0  0  0  0  0  0
  -28.2000  -12.5870   17.8050 C   0  0  0  0  0  2  0  0  0  0  0  0
  -28.0040  -13.4760   19.0600 C   0  0  0  0  0  3  0  0  0  0  0  0
  -29.1630  -13.2940   20.0570 C   0  0  0  0  0  2  0  0  0  0  0  0
  -30.4240  -13.5920   19.3610 N   0  0  0  0  0  0  0  0  0  0  0  0
  -32.1660  -14.9060   18.7450 O   0  0  0  0  0  0  0  0  0  0  0  0
  -30.6170  -15.8350   20.1300 N   0  0  0  0  0  0  0  0  0  0  0  0
  -25.7390  -14.1660   20.0560 C   0  0  0  0  0  0  0  0  0  0  0  0
  -24.6930  -13.4330   20.5510 C   0  0  0  0  0  0  0  0  0  0  0  0
  -25.0960  -12.0650   20.4680 C   0  0  0  0  0  0  0  0  0  0  0  0
  -26.7120  -13.2450   19.6990 N   0  0  0  0  0  0  0  0  0  0  0  0
  -26.3390  -11.9780   20.0100 N   0  0  0  0  0  0  0  0  0  0  0  0
  -24.3490  -10.8310   20.7440 C   0  0  0  0  0  0  0  0  0  0  0  0
  -24.7770   -9.9130   21.7280 C   0  0  0  0  0  3  0  0  0  0  0  0
  -24.0320   -8.7420   21.9850 C   0  0  0  0  0  3  0  0  0  0  0  0
  -22.8450   -8.4820   21.2600 C   0  0  0  0  0  0  0  0  0  0  0  0
  -22.4370   -9.3870   20.2650 C   0  0  0  0  0  3  0  0  0  0  0  0
  -23.1830  -10.5500   20.0070 C   0  0  0  0  0  3  0  0  0  0  0  0
  -22.0710   -7.3590   21.4260 O   0  0  0  0  0  0  0  0  0  0  0  0
  -21.9410   -6.7470   22.6460 C   0  0  0  0  0  0  0  0  0  0  0  0
  -21.4420   -7.4340   23.7760 C   0  0  0  0  0  3  0  0  0  0  0  0
  -21.2610   -6.7480   24.9930 C   0  0  0  0  0  3  0  0  0  0  0  0
  -21.5660   -5.3770   25.0820 C   0  0  0  0  0  0  0  0  0  0  0  0
  -22.0580   -4.6900   23.9580 C   0  0  0  0  0  3  0  0  0  0  0  0
  -22.2420   -5.3730   22.7440 C   0  0  0  0  0  0  0  0  0  0  0  0
  -22.6960   -4.7020   21.6570 F   0  0  0  0  0  0  0  0  0  0  0  0
  -21.3840   -4.7160   26.2480 F   0  0  0  0  0  0  0  0  0  0  0  0
  -23.3580  -13.9630   20.9840 C   0  0  0  0  0  0  0  0  0  0  0  0
  -22.7360  -13.3290   21.9720 N   0  0  0  0  0  0  0  0  0  0  0  0
  -22.8770  -14.9750   20.4740 O   0  0  0  0  0  0  0  0  0  0  0  0
  -23.1380  -12.5140   22.4090 H   0  0  0  0  0  0  0  0  0  0  0  0
  -21.8420  -13.6700   22.2980 H   0  0  0  0  0  0  0  0  0  0  0  0
  -25.9370  -15.5300   19.8610 N   0  0  0  0  0  0  0  0  0  0  0  0
  -25.2220  -16.2190   20.0710 H   0  0  0  0  0  0  0  0  0  0  0  0
  -26.7720  -15.9370   19.4580 H   0  0  0  0  0  0  0  0  0  0  0  0
  -30.8470  -14.8760   22.4950 C   0  0  0  0  0  1  0  0  0  0  0  0
  -31.0990  -16.0330   21.5160 C   0  0  0  0  0  2  0  0  0  0  0  0
  -29.5830  -24.2190   19.6150 C   0  0  0  0  0  3  0  0  0  0  0  0
  -28.4230  -25.1260   19.0210 C   0  0  0  0  0  3  0  0  0  0  0  0
  -28.5130  -26.5940   19.2480 O   0  0  0  0  0  0  0  0  0  0  0  0
  -24.5910  -31.4860   22.8140 C   0  0  0  0  0  0  0  0  0  0  0  0
  -27.3350  -27.3570   19.3000 C   0  0  0  0  0  0  0  0  0  0  0  0
  -23.4000  -30.1460   21.1160 C   0  0  0  0  0  3  0  0  0  0  0  0
  -24.8750  -28.8060   19.5130 C   0  0  0  0  0  0  0  0  0  0  0  0
  -25.9060  -30.6340   20.8620 C   0  0  0  0  0  2  0  0  0  0  0  0
  -26.0360  -29.3210   20.1030 C   0  0  0  0  0  0  0  0  0  0  0  0
  -27.2660  -28.6090   19.9870 C   0  0  0  0  0  3  0  0  0  0  0  0
  -26.1480  -26.8990   18.6850 C   0  0  0  0  0  3  0  0  0  0  0  0
  -24.9340  -27.6000   18.7950 C   0  0  0  0  0  3  0  0  0  0  0  0
  -23.5910  -29.5920   19.6800 C   0  0  0  0  0  2  0  0  0  0  0  0
  -24.6520  -30.7710   21.6540 N   0  0  0  0  0  0  0  0  0  0  0  0
  -23.5190  -31.6540   23.4130 O   0  0  0  0  0  0  0  0  0  0  0  0
  -22.8400  -29.0200   22.0180 C   0  0  0  0  0  0  0  0  0  0  0  0
  -21.5240  -28.7640   21.9170 N   0  0  0  0  0  0  0  0  0  0  0  0
  -23.5850  -28.3850   22.7680 O   0  0  0  0  0  0  0  0  0  0  0  0
  -20.9760  -29.3360   21.2870 H   0  0  0  0  0  0  0  0  0  0  0  0
  -18.2530  -27.3000   22.4160 C   0  0  0  0  0  0  0  0  0  0  0  0
  -20.7950  -27.7200   22.6390 C   0  0  0  0  0  3  0  0  0  0  0  0
  -20.9770  -26.3400   21.9620 C   0  0  0  0  0  2  0  0  0  0  0  0
  -19.8710  -26.0140   20.9550 C   0  0  0  0  0  2  0  0  0  0  0  0
  -18.5020  -26.0150   21.6420 C   0  0  0  0  0  2  0  0  0  0  0  0
  -19.3300  -28.1070   22.8700 C   0  0  0  0  0  0  0  0  0  0  0  0
  -19.0430  -29.3080   23.5550 C   0  0  0  0  0  3  0  0  0  0  0  0
  -17.7140  -29.7030   23.7890 C   0  0  0  0  0  3  0  0  0  0  0  0
  -16.6520  -28.8930   23.3510 C   0  0  0  0  0  3  0  0  0  0  0  0
  -16.9230  -27.6930   22.6700 C   0  0  0  0  0  3  0  0  0  0  0  0
  -25.8620  -32.1450   23.4380 C   0  0  0  0  0  3  0  0  0  0  0  0
  -25.4740  -33.4730   23.9340 N   0  0  0  0  0  0  0  0  0  0  0  0
  -25.7420  -34.6280   23.3090 C   0  0  0  0  0  0  0  0  0  0  0  0
  -26.4120  -34.6890   22.2740 O   0  0  0  0  0  0  0  0  0  0  0  0
  -24.8710  -33.4940   24.7430 H   0  0  0  0  0  0  0  0  0  0  0  0
  -23.9290  -36.3650   23.1560 C   0  0  0  0  0  1  0  0  0  0  0  0
  -25.1800  -35.9220   23.9300 C   0  0  0  0  0  3  0  0  0  0  0  0
  -27.2570  -36.7990   24.9060 C   0  0  0  0  0  1  0  0  0  0  0  0
  -26.1620  -37.0290   23.9670 N   0  0  0  0  0  0  0  0  0  0  0  0
  -25.7070  -37.9030   24.2170 H   0  0  0  0  0  0  0  0  0  0  0  0
  -26.5030  -31.2840   24.5950 C   0  0  1  0  0  0  0  0  0  0  0  0
  -25.4920  -30.8440   25.6800 C   0  0  0  0  0  1  0  0  0  0  0  0
  -27.1680  -30.0090   24.0260 C   0  0  0  0  0  1  0  0  0  0  0  0
  -27.6260  -32.0960   25.2840 C   0  0  0  0  0  1  0  0  0  0  0  0
  1  2  2  0
  2  9  1  0
  2  3  1  0
  3  8  1  0
  4 50  1  0
  4  6  1  0
  5  1  1  0
  5  4  2  0
  6  3  2  0
  8  7  1  0
 10  9  2  0
 10 19  1  0
 11 19  1  0
 12 17  1  0
 13 14  1  0
 13 12  1  0
 15 14  1  0
 15 23  1  0
 15 16  1  0
 17 11  1  0
 17 16  1  0
 18 11  2  0
 19 49  1  0
 20 21  2  0
 21 40  1  0
 22 21  1  0
 22 25  1  0
 23 24  1  0
 23 20  1  0
 24 22  2  0
 25 26  1  0
 26 27  2  0
 28 31  1  0
 28 27  1  0
 29 28  2  0
 30 29  1  0
 30 25  2  0
 31 32  1  0
 32 37  2  0
 32 33  1  0
 33 34  2  0
 34 35  1  0
 35 39  1  0
 36 35  2  0
 37 36  1  0
 38 37  1  0
 40 41  1  0
 41 44  1  0
 41 43  1  0
 42 40  2  0
 45 20  1  0
 45 46  1  0
 47 45  1  0
 49 48  1  0
 51 52  1  0
 51 50  2  0
 52 54  1  0
 53 64  2  0
 54 59  1  0
 55 63  1  0
 55 65  1  0
 56 62  1  0
 56 58  1  0
 57 63  1  0
 58 57  1  0
 59 58  2  0
 60 61  1  0
 60 54  2  0
 61 56  2  0
 62 55  1  0
 63 53  1  0
 65 67  2  0
 66 65  1  0
 68 66  1  0
 69 78  2  0
 69 74  1  0
 70 66  1  0
 70 74  1  0
 71 70  1  0
 72 73  1  0
 72 71  1  0
 73 69  1  0
 74 75  2  0
 75 76  1  0
 77 76  2  0
 78 77  1  0
 79 53  1  0
 79 80  1  0
 79 89  1  0
 80 83  1  0
 81 85  1  0
 81 80  1  0
 82 81  2  0
 85 84  1  0
 85 87  1  0
 87 88  1  0
 87 86  1  0
 89 92  1  1
 89 90  1  0
 91 89  1  0
M  ISO  4  11 100  19 100  51 101  52 101
M  END
>  <TORSDO>  (34) 
F 22

>  <SCORE>  (34) 
-6.757

>  <name>  (34) 
34

>  <ligand_id>  (34) 
34

>  <original_smiles>  (34) 
[H]c1nc(C([H])([H])C([H])([H])Oc2c([H])c([H])c3c(c2[H])C([H])([H])N(C(=O)C([H])(N([H])C(=O)C([H])(N([H])C([H])([H])[H])C([H])([H])[H])C(C([H])([H])[H])(C([H])([H])[H])C([H])([H])[H])C([H])(C(=O)N([H])C2([H])c4c([H])c([H])c([H])c([H])c4C([H])([H])C([H])([H])C2([H])[H])C3([H])[H])nc(OC([H])([H])[H])c1C([H])([H])C([H])([H])N(C(=O)N1C([H])([H])C([H])([H])C([H])([H])C([H])(n2nc(-c3c([H])c([H])c(Oc4c([H])c([H])c(F)c([H])c4F)c([H])c3[H])c(C(=O)N([H])[H])c2N([H])[H])C1([H])[H])C([H])([H])C([H])([H])[H]

>  <smiles>  (34) 
[H]c1nc(C([H])([H])C([H])([H])Oc2c([H])c([H])c3c(c2[H])C([H])([H])N(C(=O)C([H])(N([H])C(=O)C([H])(N([H])C([H])([H])[H])C([H])([H])[H])C(C([H])([H])[H])(C([H])([H])[H])C([H])([H])[H])C([H])(C(=O)N([H])C2([H])c4c([H])c([H])c([H])c([H])c4C([H])([H])C([H])([H])C2([H])[H])C3([H])[H])nc(OC([H])([H])[H])c1C([H])([H])C([H])([H])N(C(=O)N1C([H])([H])C([H])([H])C([H])([H])C([H])(n2nc(-c3c([H])c([H])c(Oc4c([H])c([H])c(F)c([H])c4F)c([H])c3[H])c(C(=O)N([H])[H])c2N([H])[H])C1([H])[H])C([H])([H])C([H])([H])[H]

$$$$
35:0:0
     RDKit          3D

 93100  0  0  1  0  0  0  0  0999 V2000
  -28.1630  -19.6890   19.0260 C   0  0  0  0  0  3  0  0  0  0  0  0
  -27.7590  -21.1310   18.9590 C   0  0  0  0  0  3  0  0  0  0  0  0
  -29.4500  -19.1980   19.4890 C   0  0  0  0  0  0  0  0  0  0  0  0
  -28.5430  -22.3180   19.3350 C   0  0  0  0  0  0  0  0  0  0  0  0
  -30.1590  -20.3920   19.8400 N   0  0  0  0  0  0  0  0  0  0  0  0
  -29.7720  -21.7750   19.7880 N   0  0  0  0  0  0  0  0  0  0  0  0
  -30.1700  -17.5530   19.7010 C   0  0  0  0  0  2  0  0  0  0  0  0
  -29.7500  -15.0430   18.1560 C   0  0  0  0  0  3  0  0  0  0  0  0
  -29.4450  -13.5230   18.2040 C   0  0  0  0  0  0  0  0  0  0  0  0
  -29.8240  -14.7440   20.5700 C   0  0  0  0  0  2  0  0  0  0  0  0
  -29.9100  -15.8320   19.4790 N   0  0  0  0  0  0  0  0  0  0  0  0
  -29.4100  -13.0560   19.7390 N   0  0  0  0  0  2  0  0  0  0  0  0
  -29.3870  -12.1350   20.1560 H   0  0  0  0  0  0  0  0  0  0  0  0
  -30.4890  -14.7800   21.9040 C   0  0  0  0  0  3  0  0  0  0  0  0
  -31.5220  -12.9750   21.0500 C   0  0  0  0  0  2  0  0  0  0  0  0
  -31.4530  -13.8360   19.4600 C   0  0  0  0  0  1  0  0  0  0  0  0
  -27.8770  -14.4210   19.6350 C   0  0  0  0  0  1  0  0  0  0  0  0
  -27.6070  -13.8210   21.2230 C   0  0  0  0  0  3  0  0  0  0  0  0
  -28.8130  -13.0790   22.1840 C   0  0  0  0  0  2  0  0  0  0  0  0
  -30.3540  -13.4840   22.0270 N   0  0  0  0  0  0  0  0  0  0  0  0
  -31.5430  -15.4320   22.0200 O   0  0  0  0  0  1  0  0  0  0  0  0
  -25.2250  -14.0340   21.1010 C   0  0  0  0  0  0  0  0  0  0  0  0
  -24.1960  -13.1740   21.1840 C   0  0  0  0  0  0  0  0  0  0  0  0
  -24.7640  -11.8620   21.2690 C   0  0  0  0  0  0  0  0  0  0  0  0
  -26.3350  -13.2480   21.2100 N   0  0  0  0  0  0  0  0  0  0  0  0
  -26.0960  -11.9200   21.2760 N   0  0  0  0  0  0  0  0  0  0  0  0
  -24.0880  -10.5710   21.3290 C   0  0  0  0  0  0  0  0  0  0  0  0
  -24.4540   -9.5850   22.2690 C   0  0  0  0  0  3  0  0  0  0  0  0
  -23.7350   -8.3740   22.3420 C   0  0  0  0  0  3  0  0  0  0  0  0
  -22.6410   -8.1460   21.4720 C   0  0  0  0  0  0  0  0  0  0  0  0
  -22.2990   -9.1250   20.5230 C   0  0  0  0  0  3  0  0  0  0  0  0
  -23.0190  -10.3260   20.4460 C   0  0  0  0  0  3  0  0  0  0  0  0
  -21.8990   -6.9920   21.4530 O   0  0  0  0  0  0  0  0  0  0  0  0
  -21.8020   -6.1820   22.5540 C   0  0  0  0  0  0  0  0  0  0  0  0
  -21.2090   -6.6270   23.7560 C   0  0  0  0  0  3  0  0  0  0  0  0
  -21.0660   -5.7370   24.8400 C   0  0  0  0  0  3  0  0  0  0  0  0
  -21.5040   -4.4040   24.7190 C   0  0  0  0  0  0  0  0  0  0  0  0
  -22.0900   -3.9600   23.5210 C   0  0  0  0  0  3  0  0  0  0  0  0
  -22.2360   -4.8460   22.4400 C   0  0  0  0  0  0  0  0  0  0  0  0
  -22.7800   -4.4080   21.2790 F   0  0  0  0  0  0  0  0  0  0  0  0
  -21.3580   -3.5470   25.7560 F   0  0  0  0  0  0  0  0  0  0  0  0
  -22.7710  -13.5950   21.1510 C   0  0  0  0  0  0  0  0  0  0  0  0
  -21.9280  -12.9190   21.9160 N   0  0  0  0  0  0  0  0  0  0  0  0
  -22.4210  -14.5840   20.5060 O   0  0  0  0  0  0  0  0  0  0  0  0
  -22.2420  -12.1320   22.4650 H   0  0  0  0  0  0  0  0  0  0  0  0
  -20.9560  -13.1890   21.9570 H   0  0  0  0  0  0  0  0  0  0  0  0
  -25.2990  -15.4220   20.9820 N   0  0  0  0  0  0  0  0  0  0  0  0
  -24.4680  -15.9910   20.8620 H   0  0  0  0  0  0  0  0  0  0  0  0
  -26.1560  -15.9550   20.9290 H   0  0  0  0  0  0  0  0  0  0  0  0
  -28.6570  -11.2190   17.5530 C   0  0  0  0  0  1  0  0  0  0  0  0
  -29.2130  -12.5670   17.0760 C   0  0  0  0  0  2  0  0  0  0  0  0
  -27.8480  -23.9920   19.3000 C   0  0  0  0  0  2  0  0  0  0  0  0
  -28.2280  -25.6450   19.3620 O   0  0  0  0  0  0  0  0  0  0  0  0
  -24.5530  -31.4610   22.9150 C   0  0  0  0  0  0  0  0  0  0  0  0
  -27.2230  -26.7750   19.5080 C   0  0  0  0  0  0  0  0  0  0  0  0
  -23.3860  -30.0790   21.2590 C   0  0  0  0  0  3  0  0  0  0  0  0
  -24.8570  -28.6050   19.7210 C   0  0  0  0  0  0  0  0  0  0  0  0
  -25.9480  -30.3830   21.0570 C   0  0  0  0  0  2  0  0  0  0  0  0
  -26.0610  -29.0060   20.3160 C   0  0  0  0  0  0  0  0  0  0  0  0
  -27.2380  -28.1130   20.1880 C   0  0  0  0  0  3  0  0  0  0  0  0
  -25.9650  -26.5540   18.9110 C   0  0  0  0  0  3  0  0  0  0  0  0
  -24.8360  -27.4010   19.0090 C   0  0  0  0  0  3  0  0  0  0  0  0
  -23.6070  -29.4740   19.8490 C   0  0  0  0  0  2  0  0  0  0  0  0
  -24.6540  -30.6680   21.7970 N   0  0  0  0  0  0  0  0  0  0  0  0
  -23.4610  -31.6760   23.4710 O   0  0  0  0  0  0  0  0  0  0  0  0
  -22.7670  -29.0080   22.1960 C   0  0  0  0  0  0  0  0  0  0  0  0
  -21.4400  -28.7860   22.1050 N   0  0  0  0  0  0  0  0  0  0  0  0
  -23.4850  -28.3780   22.9770 O   0  0  0  0  0  0  0  0  0  0  0  0
  -20.9100  -29.3470   21.4540 H   0  0  0  0  0  0  0  0  0  0  0  0
  -18.1560  -27.3140   22.5860 C   0  0  0  0  0  0  0  0  0  0  0  0
  -20.6880  -27.7770   22.8580 C   0  0  0  0  0  3  0  0  0  0  0  0
  -20.9000  -26.3640   22.2630 C   0  0  0  0  0  2  0  0  0  0  0  0
  -19.8270  -25.9720   21.2410 C   0  0  0  0  0  2  0  0  0  0  0  0
  -18.4380  -25.9970   21.8840 C   0  0  0  0  0  2  0  0  0  0  0  0
  -19.2100  -28.1570   23.0280 C   0  0  0  0  0  0  0  0  0  0  0  0
  -18.8880  -29.3840   23.6480 C   0  0  0  0  0  3  0  0  0  0  0  0
  -17.5470  -29.7710   23.8270 C   0  0  0  0  0  3  0  0  0  0  0  0
  -16.5080  -28.9290   23.3970 C   0  0  0  0  0  3  0  0  0  0  0  0
  -16.8140  -27.7010   22.7810 C   0  0  0  0  0  3  0  0  0  0  0  0
  -25.7980  -32.1510   23.5440 C   0  0  0  0  0  3  0  0  0  0  0  0
  -26.3300  -31.4060   24.8310 C   0  0  1  0  0  0  0  0  0  0  0  0
  -25.2460  -31.1700   25.9090 C   0  0  0  0  0  1  0  0  0  0  0  0
  -26.9290  -30.0300   24.4660 C   0  0  0  0  0  1  0  0  0  0  0  0
  -27.4750  -32.2250   25.4730 C   0  0  0  0  0  1  0  0  0  0  0  0
  -25.4290  -33.5370   23.8850 N   0  0  0  0  0  0  0  0  0  0  0  0
  -25.8400  -34.6290   23.2270 C   0  0  0  0  0  0  0  0  0  0  0  0
  -26.6300  -34.5760   22.2820 O   0  0  0  0  0  0  0  0  0  0  0  0
  -24.7370  -33.6510   24.6120 H   0  0  0  0  0  0  0  0  0  0  0  0
  -24.1400  -36.4330   22.7690 C   0  0  0  0  0  1  0  0  0  0  0  0
  -25.2920  -35.9970   23.6890 C   0  0  0  0  0  3  0  0  0  0  0  0
  -27.3100  -36.8710   24.7860 C   0  0  0  0  0  1  0  0  0  0  0  0
  -26.3190  -37.0620   23.7300 N   0  0  0  0  0  0  0  0  0  0  0  0
  -25.8890  -37.9740   23.8600 H   0  0  0  0  0  0  0  0  0  0  0  0
  1  3  1  0
  2  1  2  0
  2  4  1  0
  3  7  1  0
  3  5  2  0
  4  6  2  0
  6  5  1  0
  8  9  2  0
  8 11  1  0
  9 12  1  0
 10 14  1  0
 11  7  1  0
 11 10  1  0
 12 13  1  0
 14 21  1  0
 14 20  1  0
 15 20  1  0
 16 15  1  0
 18 17  1  0
 18 19  1  0
 20 19  1  0
 22 23  2  0
 22 25  1  0
 23 24  1  0
 24 26  2  0
 24 27  1  0
 25 18  1  0
 25 26  1  0
 27 28  1  0
 28 29  2  0
 30 29  1  0
 31 30  2  0
 32 31  1  0
 32 27  2  0
 33 30  1  0
 33 34  1  0
 34 35  1  0
 35 36  2  0
 37 36  1  0
 37 41  1  0
 38 37  2  0
 39 34  2  0
 39 38  1  0
 40 39  1  0
 42 23  1  0
 42 43  1  0
 43 46  1  0
 43 45  1  0
 44 42  2  0
 47 22  1  0
 48 47  1  0
 49 47  1  0
 51 50  1  0
 51  9  1  0
 52  4  1  0
 52 53  1  0
 53 55  1  0
 54 65  2  0
 55 60  1  0
 56 64  1  0
 56 66  1  0
 57 63  1  0
 57 59  1  0
 58 64  1  0
 59 58  1  0
 60 59  2  0
 61 62  1  0
 61 55  2  0
 62 57  2  0
 63 56  1  0
 64 54  1  0
 66 68  2  0
 67 66  1  0
 69 67  1  0
 70 79  2  0
 70 75  1  0
 71 67  1  0
 71 75  1  0
 72 71  1  0
 73 74  1  0
 73 72  1  0
 74 70  1  0
 75 76  2  0
 76 77  1  0
 78 77  2  0
 79 78  1  0
 80 54  1  0
 80 85  1  0
 80 81  1  0
 81 84  1  1
 81 82  1  0
 83 81  1  0
 85 88  1  0
 86 90  1  0
 86 85  1  0
 87 86  2  0
 90 89  1  0
 90 92  1  0
 92 93  1  0
 92 91  1  0
M  ISO  4  10 100  14 100  52 101  53 101
M  END
>  <TORSDO>  (35) 
F 20

>  <SCORE>  (35) 
-9.852

>  <name>  (35) 
35

>  <ligand_id>  (35) 
35

>  <original_smiles>  (35) 
[H]c1c(C([H])([H])Oc2c([H])c([H])c3c(c2[H])C([H])([H])N(C(=O)C([H])(N([H])C(=O)C([H])(N([H])C([H])([H])[H])C([H])([H])[H])C(C([H])([H])[H])(C([H])([H])[H])C([H])([H])[H])C([H])(C(=O)N([H])C2([H])c4c([H])c([H])c([H])c([H])c4C([H])([H])C([H])([H])C2([H])[H])C3([H])[H])nnc(C([H])([H])n2c([H])c(C([H])([H])C([H])([H])[H])[n+]([H])c2C(=O)N2C([H])([H])C([H])([H])C([H])([H])C([H])(n3nc(-c4c([H])c([H])c(Oc5c([H])c([H])c(F)c([H])c5F)c([H])c4[H])c(C(=O)N([H])[H])c3N([H])[H])C2([H])[H])c1[H]

>  <smiles>  (35) 
[H]c1c(C([H])([H])Oc2c([H])c([H])c3c(c2[H])C([H])([H])N(C(=O)C([H])(N([H])C(=O)C([H])(N([H])C([H])([H])[H])C([H])([H])[H])C(C([H])([H])[H])(C([H])([H])[H])C([H])([H])[H])C([H])(C(=O)N([H])C2([H])c4c([H])c([H])c([H])c([H])c4C([H])([H])C([H])([H])C2([H])[H])C3([H])[H])nnc(C([H])([H])n2c([H])c(C([H])([H])C([H])([H])[H])[n+]([H])c2C(=O)N2C([H])([H])C([H])([H])C([H])([H])C([H])(n3nc(-c4c([H])c([H])c(Oc5c([H])c([H])c(F)c([H])c5F)c([H])c4[H])c(C(=O)N([H])[H])c3N([H])[H])C2([H])[H])c1[H]

$$$$
36:0:0
     RDKit          3D

 91 99  0  0  1  0  0  0  0  0999 V2000
  -30.4120  -20.9890   22.8840 C   0  0  0  0  0  3  0  0  0  0  0  0
  -29.9170  -23.3490   22.7070 C   0  0  0  0  0  3  0  0  0  0  0  0
  -30.2560  -22.2430   23.5030 C   0  0  0  0  0  0  0  0  0  0  0  0
  -30.2130  -20.8710   21.4950 C   0  0  0  0  0  0  0  0  0  0  0  0
  -29.7450  -23.1810   21.3200 C   0  0  0  0  0  0  0  0  0  0  0  0
  -30.5000  -22.4180   24.9880 C   0  0  0  0  0  1  0  0  0  0  0  0
  -29.8790  -21.9530   20.7310 N   0  0  0  0  0  0  0  0  0  0  0  0
  -30.5470  -19.5450   20.7750 C   0  0  0  0  0  2  0  0  0  0  0  0
  -30.1020  -18.1940   21.4430 C   0  0  0  0  0  2  0  0  0  0  0  0
  -30.8800  -16.9270   20.9270 C   0  0  0  0  0  2  0  0  0  0  0  0
  -30.7260  -14.6040   20.1100 C   0  0  0  0  0  0  0  0  0  0  0  0
  -30.3370  -12.4280   19.0090 C   0  0  0  0  0  2  0  0  0  0  0  0
  -29.3510  -12.5930   17.8360 C   0  0  0  0  0  2  0  0  0  0  0  0
  -27.8990  -12.4350   18.3280 C   0  0  0  0  0  2  0  0  0  0  0  0
  -27.5930  -13.2780   19.5920 C   0  0  0  0  0  3  0  0  0  0  0  0
  -28.7080  -13.1570   20.6600 C   0  0  0  0  0  2  0  0  0  0  0  0
  -29.9960  -13.4500   20.0150 N   0  0  0  0  0  0  0  0  0  0  0  0
  -31.9100  -14.6410   19.7660 O   0  0  0  0  0  0  0  0  0  0  0  0
  -29.1120  -16.2740   19.4150 C   0  0  0  0  0  1  0  0  0  0  0  0
  -30.0810  -15.7800   20.4050 N   0  0  0  0  0  0  0  0  0  0  0  0
  -25.2340  -13.8820   20.4030 C   0  0  0  0  0  0  0  0  0  0  0  0
  -24.1820  -13.1070   20.8060 C   0  0  0  0  0  0  0  0  0  0  0  0
  -24.6500  -11.7570   20.7620 C   0  0  0  0  0  0  0  0  0  0  0  0
  -26.2720  -13.0000   20.1360 N   0  0  0  0  0  0  0  0  0  0  0  0
  -25.9280  -11.7190   20.4130 N   0  0  0  0  0  0  0  0  0  0  0  0
  -23.9370  -10.4940   20.9750 C   0  0  0  0  0  0  0  0  0  0  0  0
  -24.3990   -9.5360   21.9030 C   0  0  0  0  0  3  0  0  0  0  0  0
  -23.6870   -8.3340   22.1020 C   0  0  0  0  0  3  0  0  0  0  0  0
  -22.5000   -8.0840   21.3740 C   0  0  0  0  0  0  0  0  0  0  0  0
  -22.0590   -9.0310   20.4320 C   0  0  0  0  0  3  0  0  0  0  0  0
  -22.7710  -10.2230   20.2310 C   0  0  0  0  0  3  0  0  0  0  0  0
  -21.7580   -6.9340   21.4850 O   0  0  0  0  0  0  0  0  0  0  0  0
  -21.7310   -6.2040   22.6450 C   0  0  0  0  0  0  0  0  0  0  0  0
  -21.3090   -6.7660   23.8700 C   0  0  0  0  0  3  0  0  0  0  0  0
  -21.2330   -5.9610   25.0250 C   0  0  0  0  0  3  0  0  0  0  0  0
  -21.5660   -4.5960   24.9550 C   0  0  0  0  0  0  0  0  0  0  0  0
  -21.9810   -4.0330   23.7340 C   0  0  0  0  0  3  0  0  0  0  0  0
  -22.0590   -4.8360   22.5820 C   0  0  0  0  0  0  0  0  0  0  0  0
  -22.4410   -4.2850   21.4050 F   0  0  0  0  0  0  0  0  0  0  0  0
  -21.4830   -3.8190   26.0610 F   0  0  0  0  0  0  0  0  0  0  0  0
  -22.7930  -13.5800   21.1210 C   0  0  0  0  0  0  0  0  0  0  0  0
  -22.0960  -12.8810   22.0090 N   0  0  0  0  0  0  0  0  0  0  0  0
  -22.3360  -14.6040   20.6160 O   0  0  0  0  0  0  0  0  0  0  0  0
  -22.4810  -12.0530   22.4410 H   0  0  0  0  0  0  0  0  0  0  0  0
  -21.1630  -13.1760   22.2630 H   0  0  0  0  0  0  0  0  0  0  0  0
  -25.3860  -15.2540   20.2190 N   0  0  0  0  0  0  0  0  0  0  0  0
  -24.6190  -15.9020   20.3590 H   0  0  0  0  0  0  0  0  0  0  0  0
  -26.2240  -15.7000   19.8720 H   0  0  0  0  0  0  0  0  0  0  0  0
  -29.5530  -24.4290   20.4300 C   0  0  0  0  0  2  0  0  0  0  0  0
  -28.3390  -25.3520   20.7660 C   0  0  0  0  0  2  0  0  0  0  0  0
  -28.4310  -26.6750   20.1760 O   0  0  0  0  0  0  0  0  0  0  0  0
  -24.6200  -31.8930   23.2470 C   0  0  0  0  0  0  0  0  0  0  0  0
  -27.2690  -27.4280   20.1840 C   0  0  0  0  0  0  0  0  0  0  0  0
  -23.4170  -30.4900   21.6040 C   0  0  0  0  0  3  0  0  0  0  0  0
  -24.8740  -28.9500   20.1830 C   0  0  0  0  0  0  0  0  0  0  0  0
  -25.9430  -30.8480   21.4060 C   0  0  0  0  0  2  0  0  0  0  0  0
  -26.0340  -29.4730   20.7700 C   0  0  0  0  0  0  0  0  0  0  0  0
  -27.2360  -28.7240   20.7600 C   0  0  0  0  0  3  0  0  0  0  0  0
  -26.0930  -26.9290   19.5840 C   0  0  0  0  0  3  0  0  0  0  0  0
  -24.9010  -27.6780   19.5840 C   0  0  0  0  0  3  0  0  0  0  0  0
  -23.6300  -29.8100   20.2250 C   0  0  0  0  0  2  0  0  0  0  0  0
  -24.6780  -31.0930   22.1440 N   0  0  0  0  0  0  0  0  0  0  0  0
  -23.5380  -32.1640   23.7850 O   0  0  0  0  0  0  0  0  0  0  0  0
  -22.7630  -29.4710   22.5640 C   0  0  0  0  0  0  0  0  0  0  0  0
  -21.4410  -29.2790   22.4270 N   0  0  0  0  0  0  0  0  0  0  0  0
  -23.4440  -28.8550   23.3880 O   0  0  0  0  0  0  0  0  0  0  0  0
  -20.9540  -29.8240   21.7290 H   0  0  0  0  0  0  0  0  0  0  0  0
  -18.0720  -28.0620   22.9020 C   0  0  0  0  0  0  0  0  0  0  0  0
  -20.6250  -28.3390   23.1950 C   0  0  0  0  0  3  0  0  0  0  0  0
  -20.7440  -26.9070   22.6250 C   0  0  0  0  0  2  0  0  0  0  0  0
  -19.6530  -26.5720   21.6040 C   0  0  0  0  0  2  0  0  0  0  0  0
  -18.2650  -26.7100   22.2340 C   0  0  0  0  0  2  0  0  0  0  0  0
  -19.1810  -28.8330   23.3400 C   0  0  0  0  0  0  0  0  0  0  0  0
  -18.9490  -30.0960   23.9230 C   0  0  0  0  0  3  0  0  0  0  0  0
  -17.6400  -30.5900   24.0760 C   0  0  0  0  0  3  0  0  0  0  0  0
  -16.5440  -29.8150   23.6540 C   0  0  0  0  0  3  0  0  0  0  0  0
  -16.7610  -28.5530   23.0740 C   0  0  0  0  0  3  0  0  0  0  0  0
  -25.9040  -32.5250   23.8680 C   0  0  0  0  0  3  0  0  0  0  0  0
  -25.5990  -33.9270   24.1840 N   0  0  0  0  0  0  0  0  0  0  0  0
  -25.9440  -34.9710   23.4190 C   0  0  0  0  0  0  0  0  0  0  0  0
  -26.6240  -34.8550   22.3950 O   0  0  0  0  0  0  0  0  0  0  0  0
  -24.9950  -34.0910   24.9760 H   0  0  0  0  0  0  0  0  0  0  0  0
  -24.2330  -36.7720   23.0260 C   0  0  0  0  0  1  0  0  0  0  0  0
  -25.4590  -36.3660   23.8590 C   0  0  0  0  0  3  0  0  0  0  0  0
  -27.5860  -37.2440   24.7170 C   0  0  0  0  0  1  0  0  0  0  0  0
  -26.5010  -37.4110   23.7530 N   0  0  0  0  0  0  0  0  0  0  0  0
  -26.0980  -38.3340   23.8860 H   0  0  0  0  0  0  0  0  0  0  0  0
  -26.4120  -31.7620   25.1530 C   0  0  1  0  0  0  0  0  0  0  0  0
  -25.3130  -31.5360   26.2170 C   0  0  0  0  0  1  0  0  0  0  0  0
  -26.9900  -30.3790   24.7720 C   0  0  0  0  0  1  0  0  0  0  0  0
  -27.5620  -32.5570   25.8150 C   0  0  0  0  0  1  0  0  0  0  0  0
  1  3  1  0
  2  3  2  0
  3  6  1  0
  4  1  2  0
  5  2  1  0
  7  5  2  0
  7  4  1  0
  8  9  1  0
  8  4  1  0
 10  9  1  0
 11 20  1  0
 12 17  1  0
 13 14  1  0
 13 12  1  0
 15 14  1  0
 15 24  1  0
 15 16  1  0
 17 11  1  0
 17 16  1  0
 18 11  2  0
 19 20  1  0
 20 10  1  0
 21 22  2  0
 22 41  1  0
 23 22  1  0
 23 26  1  0
 24 21  1  0
 24 25  1  0
 25 23  2  0
 26 27  1  0
 27 28  2  0
 29 32  1  0
 29 28  1  0
 30 29  2  0
 31 30  1  0
 31 26  2  0
 32 33  1  0
 33 34  1  0
 34 35  2  0
 36 35  1  0
 36 40  1  0
 37 36  2  0
 38 33  2  0
 38 37  1  0
 39 38  1  0
 41 42  1  0
 42 45  1  0
 42 44  1  0
 43 41  2  0
 46 47  1  0
 46 21  1  0
 48 46  1  0
 49 50  1  0
 49  5  1  0
 51 53  1  0
 51 50  1  0
 52 63  2  0
 53 58  1  0
 54 62  1  0
 54 64  1  0
 55 61  1  0
 55 57  1  0
 56 62  1  0
 57 56  1  0
 58 57  2  0
 59 53  2  0
 60 59  1  0
 60 55  2  0
 61 54  1  0
 62 52  1  0
 64 66  2  0
 65 64  1  0
 67 65  1  0
 68 77  2  0
 68 73  1  0
 69 65  1  0
 69 73  1  0
 70 69  1  0
 71 72  1  0
 71 70  1  0
 72 68  1  0
 73 74  2  0
 74 75  1  0
 76 75  2  0
 77 76  1  0
 78 52  1  0
 78 79  1  0
 78 88  1  0
 79 82  1  0
 80 84  1  0
 80 79  1  0
 81 80  2  0
 84 83  1  0
 86 84  1  0
 86 87  1  0
 86 85  1  0
 88 91  1  1
 88 89  1  0
 90 88  1  0
M  ISO  4  11 100  20 100  50 101  51 101
M  END
>  <TORSDO>  (36) 
F 21

>  <SCORE>  (36) 
-13.527

>  <name>  (36) 
36

>  <ligand_id>  (36) 
36

>  <original_smiles>  (36) 
[H]c1c([H])c([H])c2c(c1[H])C([H])([H])C([H])([H])C([H])([H])C2([H])N([H])C(=O)C1([H])N(C(=O)C([H])(N([H])C(=O)C([H])(N([H])C([H])([H])[H])C([H])([H])[H])C(C([H])([H])[H])(C([H])([H])[H])C([H])([H])[H])C([H])([H])c2c([H])c(OC([H])([H])C([H])([H])c3nc(C([H])([H])C([H])([H])C([H])([H])N(C(=O)N4C([H])([H])C([H])([H])C([H])([H])C([H])(n5nc(-c6c([H])c([H])c(Oc7c([H])c([H])c(F)c([H])c7F)c([H])c6[H])c(C(=O)N([H])[H])c5N([H])[H])C4([H])[H])C([H])([H])[H])c([H])c(C([H])([H])[H])c3[H])c([H])c([H])c2C1([H])[H]

>  <smiles>  (36) 
[H]c1c([H])c([H])c2c(c1[H])C([H])([H])C([H])([H])C([H])([H])C2([H])N([H])C(=O)C1([H])N(C(=O)C([H])(N([H])C(=O)C([H])(N([H])C([H])([H])[H])C([H])([H])[H])C(C([H])([H])[H])(C([H])([H])[H])C([H])([H])[H])C([H])([H])c2c([H])c(OC([H])([H])C([H])([H])c3nc(C([H])([H])C([H])([H])C([H])([H])N(C(=O)N4C([H])([H])C([H])([H])C([H])([H])C([H])(n5nc(-c6c([H])c([H])c(Oc7c([H])c([H])c(F)c([H])c7F)c([H])c6[H])c(C(=O)N([H])[H])c5N([H])[H])C4([H])[H])C([H])([H])[H])c([H])c(C([H])([H])[H])c3[H])c([H])c([H])c2C1([H])[H]

$$$$
37:0:0
     RDKit          3D

 90 98  0  0  1  0  0  0  0  0999 V2000
  -28.9810  -22.4340   19.4590 C   0  0  0  0  0  3  0  0  0  0  0  0
  -28.8330  -23.6330   20.1650 C   0  0  0  0  0  0  0  0  0  0  0  0
  -29.9470  -22.0850   21.4000 C   0  0  0  0  0  3  0  0  0  0  0  0
  -30.6900  -21.4810   22.5460 C   0  0  0  0  0  1  0  0  0  0  0  0
  -29.6590  -21.4800   20.2270 N   0  0  0  0  0  0  0  0  0  0  0  0
  -29.4570  -23.3490   21.3590 N   0  0  0  0  0  0  0  0  0  0  0  0
  -29.5250  -24.0090   22.1250 H   0  0  0  0  0  0  0  0  0  0  0  0
  -27.9810  -24.9150   19.8350 C   0  0  0  0  0  2  0  0  0  0  0  0
  -28.2680  -26.3320   20.2560 O   0  0  0  0  0  0  0  0  0  0  0  0
  -24.6180  -31.8810   23.2330 C   0  0  0  0  0  0  0  0  0  0  0  0
  -27.1930  -27.2610   20.1710 C   0  0  0  0  0  0  0  0  0  0  0  0
  -23.4040  -30.4830   21.6050 C   0  0  0  0  0  3  0  0  0  0  0  0
  -24.8440  -28.9290   20.1730 C   0  0  0  0  0  0  0  0  0  0  0  0
  -25.9510  -30.7770   21.4160 C   0  0  0  0  0  2  0  0  0  0  0  0
  -26.0230  -29.3950   20.7700 C   0  0  0  0  0  0  0  0  0  0  0  0
  -27.1990  -28.5720   20.7640 C   0  0  0  0  0  3  0  0  0  0  0  0
  -25.9890  -26.8900   19.5190 C   0  0  0  0  0  3  0  0  0  0  0  0
  -24.8330  -27.6840   19.5360 C   0  0  0  0  0  3  0  0  0  0  0  0
  -23.6110  -29.8090   20.2250 C   0  0  0  0  0  2  0  0  0  0  0  0
  -24.6780  -31.0660   22.1400 N   0  0  0  0  0  0  0  0  0  0  0  0
  -23.5390  -32.1640   23.7710 O   0  0  0  0  0  0  0  0  0  0  0  0
  -22.7430  -29.4700   22.5720 C   0  0  0  0  0  0  0  0  0  0  0  0
  -21.4150  -29.2920   22.4500 N   0  0  0  0  0  0  0  0  0  0  0  0
  -23.4230  -28.8470   23.3910 O   0  0  0  0  0  0  0  0  0  0  0  0
  -20.9240  -29.8420   21.7580 H   0  0  0  0  0  0  0  0  0  0  0  0
  -18.0390  -28.0930   22.9670 C   0  0  0  0  0  0  0  0  0  0  0  0
  -20.5980  -28.3610   23.2300 C   0  0  0  0  0  3  0  0  0  0  0  0
  -20.7030  -26.9250   22.6670 C   0  0  0  0  0  2  0  0  0  0  0  0
  -19.6000  -26.5910   21.6580 C   0  0  0  0  0  2  0  0  0  0  0  0
  -18.2180  -26.7390   22.3010 C   0  0  0  0  0  2  0  0  0  0  0  0
  -19.1580  -28.8610   23.3900 C   0  0  0  0  0  0  0  0  0  0  0  0
  -18.9360  -30.1270   23.9740 C   0  0  0  0  0  3  0  0  0  0  0  0
  -17.6300  -30.6240   24.1400 C   0  0  0  0  0  3  0  0  0  0  0  0
  -16.5270  -29.8560   23.7310 C   0  0  0  0  0  3  0  0  0  0  0  0
  -16.7330  -28.5910   23.1510 C   0  0  0  0  0  3  0  0  0  0  0  0
  -25.9060  -32.5130   23.8460 C   0  0  0  0  0  3  0  0  0  0  0  0
  -26.4290  -31.7430   25.1180 C   0  0  1  0  0  0  0  0  0  0  0  0
  -25.3400  -31.5100   26.1900 C   0  0  0  0  0  1  0  0  0  0  0  0
  -27.0100  -30.3630   24.7270 C   0  0  0  0  0  1  0  0  0  0  0  0
  -27.5840  -32.5370   25.7740 C   0  0  0  0  0  1  0  0  0  0  0  0
  -25.5970  -33.9110   24.1800 N   0  0  0  0  0  0  0  0  0  0  0  0
  -25.9210  -34.9650   23.4220 C   0  0  0  0  0  0  0  0  0  0  0  0
  -26.5800  -34.8660   22.3840 O   0  0  0  0  0  0  0  0  0  0  0  0
  -25.0160  -34.0630   24.9910 H   0  0  0  0  0  0  0  0  0  0  0  0
  -24.1890  -36.7590   23.0890 C   0  0  0  0  0  1  0  0  0  0  0  0
  -25.4360  -36.3520   23.8890 C   0  0  0  0  0  3  0  0  0  0  0  0
  -27.5760  -37.2330   24.7100 C   0  0  0  0  0  1  0  0  0  0  0  0
  -26.4670  -37.4060   23.7750 N   0  0  0  0  0  0  0  0  0  0  0  0
  -26.0610  -38.3250   23.9290 H   0  0  0  0  0  0  0  0  0  0  0  0
  -30.1760  -20.0850   19.7920 C   0  0  0  0  0  2  0  0  0  0  0  0
  -29.7240  -18.6860   20.4650 C   0  0  0  0  0  3  0  0  0  0  0  0
  -30.4490  -17.3240   19.9360 C   0  0  0  0  0  3  0  0  0  0  0  0
  -30.7560  -14.7580   20.0460 C   0  0  0  0  0  0  0  0  0  0  0  0
  -30.4040  -12.5580   18.8980 C   0  0  0  0  0  2  0  0  0  0  0  0
  -29.3930  -12.7000   17.7400 C   0  0  0  0  0  2  0  0  0  0  0  0
  -27.9510  -12.5240   18.2510 C   0  0  0  0  0  2  0  0  0  0  0  0
  -27.6710  -13.3440   19.5370 C   0  0  0  0  0  3  0  0  0  0  0  0
  -28.7950  -13.1670   20.5760 C   0  0  0  0  0  2  0  0  0  0  0  0
  -30.0600  -13.5660   19.9360 N   0  0  0  0  0  0  0  0  0  0  0  0
  -31.8640  -14.8480   19.5060 O   0  0  0  0  0  0  0  0  0  0  0  0
  -29.6990  -16.0020   21.8970 C   0  0  0  0  0  1  0  0  0  0  0  0
  -30.1310  -15.9290   20.4980 N   0  0  0  0  0  0  0  0  0  0  0  0
  -25.3280  -13.9160   20.4090 C   0  0  0  0  0  0  0  0  0  0  0  0
  -24.2840  -13.1340   20.8230 C   0  0  0  0  0  0  0  0  0  0  0  0
  -24.7450  -11.7840   20.7380 C   0  0  0  0  0  0  0  0  0  0  0  0
  -26.3570  -13.0430   20.0960 N   0  0  0  0  0  0  0  0  0  0  0  0
  -26.0160  -11.7540   20.3550 N   0  0  0  0  0  0  0  0  0  0  0  0
  -24.0310  -10.5170   20.9430 C   0  0  0  0  0  0  0  0  0  0  0  0
  -24.4850   -9.5530   21.8710 C   0  0  0  0  0  3  0  0  0  0  0  0
  -23.7680   -8.3530   22.0640 C   0  0  0  0  0  3  0  0  0  0  0  0
  -22.5830   -8.1070   21.3300 C   0  0  0  0  0  0  0  0  0  0  0  0
  -22.1490   -9.0600   20.3920 C   0  0  0  0  0  3  0  0  0  0  0  0
  -22.8670  -10.2510   20.1970 C   0  0  0  0  0  3  0  0  0  0  0  0
  -21.8370   -6.9580   21.4330 O   0  0  0  0  0  0  0  0  0  0  0  0
  -21.7680   -6.2470   22.6040 C   0  0  0  0  0  0  0  0  0  0  0  0
  -21.3160   -6.8330   23.8060 C   0  0  0  0  0  3  0  0  0  0  0  0
  -21.1960   -6.0490   24.9700 C   0  0  0  0  0  3  0  0  0  0  0  0
  -21.5160   -4.6780   24.9320 C   0  0  0  0  0  0  0  0  0  0  0  0
  -21.9610   -4.0910   23.7340 C   0  0  0  0  0  3  0  0  0  0  0  0
  -22.0830   -4.8740   22.5730 C   0  0  0  0  0  0  0  0  0  0  0  0
  -22.4920   -4.2980   21.4150 F   0  0  0  0  0  0  0  0  0  0  0  0
  -21.3930   -3.9210   26.0480 F   0  0  0  0  0  0  0  0  0  0  0  0
  -22.9050  -13.6040   21.1850 C   0  0  0  0  0  0  0  0  0  0  0  0
  -22.2330  -12.8920   22.0820 N   0  0  0  0  0  0  0  0  0  0  0  0
  -22.4370  -14.6370   20.7090 O   0  0  0  0  0  0  0  0  0  0  0  0
  -22.6260  -12.0540   22.4850 H   0  0  0  0  0  0  0  0  0  0  0  0
  -21.3110  -13.1880   22.3710 H   0  0  0  0  0  0  0  0  0  0  0  0
  -25.4840  -15.2910   20.2500 N   0  0  0  0  0  0  0  0  0  0  0  0
  -24.7300  -15.9470   20.4210 H   0  0  0  0  0  0  0  0  0  0  0  0
  -26.3210  -15.7320   19.8910 H   0  0  0  0  0  0  0  0  0  0  0  0
  1  2  2  0
  1  5  1  0
  2  6  1  0
  3  4  1  0
  5  3  1  0
  6  3  1  0
  6  7  1  0
  8  2  1  0
  8  9  1  0
 10 21  2  0
 11  9  1  0
 11 16  1  0
 12 20  1  0
 12 22  1  0
 13 19  1  0
 13 15  1  0
 14 20  1  0
 15 14  1  0
 16 15  2  0
 17 18  1  0
 17 11  2  0
 18 13  2  0
 19 12  1  0
 20 10  1  0
 22 24  2  0
 23 22  1  0
 25 23  1  0
 26 35  2  0
 26 31  1  0
 27 23  1  0
 27 31  1  0
 28 27  1  0
 29 30  1  0
 29 28  1  0
 30 26  1  0
 31 32  2  0
 32 33  1  0
 34 33  2  0
 35 34  1  0
 36 10  1  0
 36 41  1  0
 36 37  1  0
 37 40  1  1
 37 38  1  0
 39 37  1  0
 41 44  1  0
 42 46  1  0
 42 41  1  0
 43 42  2  0
 46 45  1  0
 48 46  1  0
 48 49  1  0
 48 47  1  0
 50  5  1  0
 50 51  1  0
 52 51  2  0
 52 62  1  0
 53 62  1  0
 54 59  1  0
 55 56  1  0
 55 54  1  0
 57 56  1  0
 57 66  1  0
 57 58  1  0
 59 53  1  0
 59 58  1  0
 60 53  2  0
 62 61  1  0
 63 64  2  0
 64 83  1  0
 65 64  1  0
 65 68  1  0
 66 67  1  0
 66 63  1  0
 67 65  2  0
 68 69  1  0
 69 70  2  0
 71 74  1  0
 71 70  1  0
 72 71  2  0
 73 72  1  0
 73 68  2  0
 74 75  1  0
 75 76  1  0
 76 77  2  0
 78 77  1  0
 78 82  1  0
 79 78  2  0
 80 75  2  0
 80 79  1  0
 81 80  1  0
 83 84  1  0
 84 87  1  0
 84 86  1  0
 85 83  2  0
 88 63  1  0
 88 89  1  0
 90 88  1  0
M  ISO  4   8 101   9 101  53 100  62 100
M  END
>  <TORSDO>  (37) 
F 20

>  <SCORE>  (37) 
-13.345

>  <name>  (37) 
37

>  <ligand_id>  (37) 
37

>  <original_smiles>  (37) 
[H]c1c([H])c([H])c2c(c1[H])C([H])([H])C([H])([H])C([H])([H])C2([H])N([H])C(=O)C1([H])N(C(=O)C([H])(N([H])C(=O)C([H])(N([H])C([H])([H])[H])C([H])([H])[H])C(C([H])([H])[H])(C([H])([H])[H])C([H])([H])[H])C([H])([H])c2c([H])c(OC([H])([H])c3c([H])n(C([H])([H])C([H])([H])C([H])([H])N(C(=O)N4C([H])([H])C([H])([H])C([H])([H])C([H])(n5nc(-c6c([H])c([H])c(Oc7c([H])c([H])c(F)c([H])c7F)c([H])c6[H])c(C(=O)N([H])[H])c5N([H])[H])C4([H])[H])C([H])([H])[H])c(C([H])([H])[H])[n+]3[H])c([H])c([H])c2C1([H])[H]

>  <smiles>  (37) 
[H]c1c([H])c([H])c2c(c1[H])C([H])([H])C([H])([H])C([H])([H])C2([H])N([H])C(=O)C1([H])N(C(=O)C([H])(N([H])C(=O)C([H])(N([H])C([H])([H])[H])C([H])([H])[H])C(C([H])([H])[H])(C([H])([H])[H])C([H])([H])[H])C([H])([H])c2c([H])c(OC([H])([H])c3c([H])n(C([H])([H])C([H])([H])C([H])([H])N(C(=O)N4C([H])([H])C([H])([H])C([H])([H])C([H])(n5nc(-c6c([H])c([H])c(Oc7c([H])c([H])c(F)c([H])c7F)c([H])c6[H])c(C(=O)N([H])[H])c5N([H])[H])C4([H])[H])C([H])([H])[H])c(C([H])([H])[H])[n+]3[H])c([H])c([H])c2C1([H])[H]

$$$$
38:0:0
     RDKit          3D

 95103  0  0  1  0  0  0  0  0999 V2000
  -29.3550  -17.6870   19.3410 C   0  0  0  0  0  3  0  0  0  0  0  0
  -28.3420  -19.8790   19.3030 C   0  0  0  0  0  3  0  0  0  0  0  0
  -28.5320  -18.6210   18.6990 C   0  0  0  0  0  0  0  0  0  0  0  0
  -29.9540  -18.0280   20.5640 C   0  0  0  0  0  0  0  0  0  0  0  0
  -28.9970  -20.1870   20.5090 C   0  0  0  0  0  0  0  0  0  0  0  0
  -29.7890  -19.2590   21.1310 N   0  0  0  0  0  0  0  0  0  0  0  0
  -28.7340  -21.5710   21.1730 C   0  0  2  0  0  0  0  0  0  0  0  0
  -29.4570  -21.6670   22.2880 F   0  0  0  0  0  0  0  0  0  0  0  0
  -27.4450  -21.6030   21.5210 F   0  0  0  0  0  0  0  0  0  0  0  0
  -29.0190  -22.8430   20.2920 C   0  0  0  0  0  2  0  0  0  0  0  0
  -28.7710  -24.2630   20.9430 C   0  0  0  0  0  2  0  0  0  0  0  0
  -29.0370  -25.4780   19.9870 C   0  0  0  0  0  2  0  0  0  0  0  0
  -28.8290  -26.8120   20.5210 O   0  0  0  0  0  0  0  0  0  0  0  0
  -24.6900  -31.9330   23.2690 C   0  0  0  0  0  0  0  0  0  0  0  0
  -27.6240  -27.4990   20.4020 C   0  0  0  0  0  0  0  0  0  0  0  0
  -23.6090  -30.4670   21.5980 C   0  0  0  0  0  3  0  0  0  0  0  0
  -25.1780  -28.9480   20.2640 C   0  0  0  0  0  0  0  0  0  0  0  0
  -26.1290  -30.9010   21.5100 C   0  0  0  0  0  2  0  0  0  0  0  0
  -26.2880  -29.5160   20.8970 C   0  0  0  0  0  0  0  0  0  0  0  0
  -27.5120  -28.8010   20.9570 C   0  0  0  0  0  3  0  0  0  0  0  0
  -26.4930  -26.9590   19.7530 C   0  0  0  0  0  3  0  0  0  0  0  0
  -25.2800  -27.6720   19.6800 C   0  0  0  0  0  3  0  0  0  0  0  0
  -23.9050  -29.7680   20.2420 C   0  0  0  0  0  2  0  0  0  0  0  0
  -24.8240  -31.1140   22.1860 N   0  0  0  0  0  0  0  0  0  0  0  0
  -23.5770  -32.1790   23.7560 O   0  0  0  0  0  0  0  0  0  0  0  0
  -22.9360  -29.4480   22.5480 C   0  0  0  0  0  0  0  0  0  0  0  0
  -21.6130  -29.2700   22.4020 N   0  0  0  0  0  0  0  0  0  0  0  0
  -23.6030  -28.8240   23.3760 O   0  0  0  0  0  0  0  0  0  0  0  0
  -21.1340  -29.8280   21.7070 H   0  0  0  0  0  0  0  0  0  0  0  0
  -18.2180  -28.1240   22.8990 C   0  0  0  0  0  0  0  0  0  0  0  0
  -20.7810  -28.3290   23.1570 C   0  0  0  0  0  3  0  0  0  0  0  0
  -20.8540  -26.9120   22.5410 C   0  0  0  0  0  2  0  0  0  0  0  0
  -19.7370  -26.6370   21.5300 C   0  0  0  0  0  2  0  0  0  0  0  0
  -18.3630  -26.7920   22.1900 C   0  0  0  0  0  2  0  0  0  0  0  0
  -19.3520  -28.8550   23.3420 C   0  0  0  0  0  0  0  0  0  0  0  0
  -19.1600  -30.1070   23.9650 C   0  0  0  0  0  3  0  0  0  0  0  0
  -17.8640  -30.6280   24.1480 C   0  0  0  0  0  3  0  0  0  0  0  0
  -16.7440  -29.8920   23.7210 C   0  0  0  0  0  3  0  0  0  0  0  0
  -16.9220  -28.6430   23.1040 C   0  0  0  0  0  3  0  0  0  0  0  0
  -25.9250  -32.6120   23.9370 C   0  0  0  0  0  3  0  0  0  0  0  0
  -25.5580  -34.0030   24.2360 N   0  0  0  0  0  0  0  0  0  0  0  0
  -25.8830  -35.0550   23.4740 C   0  0  0  0  0  0  0  0  0  0  0  0
  -26.5880  -34.9580   22.4660 O   0  0  0  0  0  0  0  0  0  0  0  0
  -24.9270  -34.1470   25.0120 H   0  0  0  0  0  0  0  0  0  0  0  0
  -24.1000  -36.7730   23.0470 C   0  0  0  0  0  1  0  0  0  0  0  0
  -25.3390  -36.4340   23.8910 C   0  0  0  0  0  3  0  0  0  0  0  0
  -27.4200  -37.4160   24.7480 C   0  0  0  0  0  1  0  0  0  0  0  0
  -26.3360  -37.5220   23.7730 N   0  0  0  0  0  0  0  0  0  0  0  0
  -25.8960  -38.4290   23.8820 H   0  0  0  0  0  0  0  0  0  0  0  0
  -26.4060  -31.8700   25.2420 C   0  0  1  0  0  0  0  0  0  0  0  0
  -25.2690  -31.5940   26.2540 C   0  0  0  0  0  1  0  0  0  0  0  0
  -27.0540  -30.5130   24.8900 C   0  0  0  0  0  1  0  0  0  0  0  0
  -27.4950  -32.7100   25.9470 C   0  0  0  0  0  1  0  0  0  0  0  0
  -27.8530  -18.2510   17.3930 C   0  0  0  0  0  2  0  0  0  0  0  0
  -29.5120  -19.4120   15.7810 C   0  0  0  0  0  1  0  0  0  0  0  0
  -28.0580  -19.2830   16.2720 C   0  0  0  0  0  2  0  0  0  0  0  0
  -30.8170  -16.9770   21.2770 C   0  0  0  0  0  2  0  0  0  0  0  0
  -30.9000  -14.5990   20.4270 C   0  0  0  0  0  0  0  0  0  0  0  0
  -30.4690  -12.5410   19.1180 C   0  0  0  0  0  2  0  0  0  0  0  0
  -29.5070  -12.8760   17.9620 C   0  0  0  0  0  2  0  0  0  0  0  0
  -28.0380  -12.7340   18.4160 C   0  0  0  0  0  2  0  0  0  0  0  0
  -27.7620  -13.4310   19.7780 C   0  0  0  0  0  3  0  0  0  0  0  0
  -28.8650  -13.1370   20.8240 C   0  0  0  0  0  2  0  0  0  0  0  0
  -30.1690  -13.4650   20.2230 N   0  0  0  0  0  0  0  0  0  0  0  0
  -31.9980  -14.7750   19.8980 O   0  0  0  0  0  0  0  0  0  0  0  0
  -30.3170  -15.5860   21.1320 N   0  0  0  0  0  0  0  0  0  0  0  0
  -29.4140  -15.3940   21.5360 H   0  0  0  0  0  0  0  0  0  0  0  0
  -25.3680  -13.9770   20.5530 C   0  0  0  0  0  0  0  0  0  0  0  0
  -24.3180  -13.1810   20.9230 C   0  0  0  0  0  0  0  0  0  0  0  0
  -24.7990  -11.8350   20.8510 C   0  0  0  0  0  0  0  0  0  0  0  0
  -26.4230  -13.1180   20.2820 N   0  0  0  0  0  0  0  0  0  0  0  0
  -26.0840  -11.8240   20.5190 N   0  0  0  0  0  0  0  0  0  0  0  0
  -24.0940  -10.5580   21.0280 C   0  0  0  0  0  0  0  0  0  0  0  0
  -24.5210   -9.6040   21.9790 C   0  0  0  0  0  3  0  0  0  0  0  0
  -23.8160   -8.3930   22.1460 C   0  0  0  0  0  3  0  0  0  0  0  0
  -22.6680   -8.1250   21.3610 C   0  0  0  0  0  0  0  0  0  0  0  0
  -22.2600   -9.0660   20.4000 C   0  0  0  0  0  3  0  0  0  0  0  0
  -22.9660  -10.2700   20.2320 C   0  0  0  0  0  3  0  0  0  0  0  0
  -21.9410   -6.9610   21.4300 O   0  0  0  0  0  0  0  0  0  0  0  0
  -21.8330   -6.2470   22.5960 C   0  0  0  0  0  0  0  0  0  0  0  0
  -21.2720   -6.8080   23.7640 C   0  0  0  0  0  3  0  0  0  0  0  0
  -21.1180   -6.0180   24.9210 C   0  0  0  0  0  3  0  0  0  0  0  0
  -21.5140   -4.6670   24.9100 C   0  0  0  0  0  0  0  0  0  0  0  0
  -22.0680   -4.1050   23.7450 C   0  0  0  0  0  3  0  0  0  0  0  0
  -22.2220   -4.8920   22.5910 C   0  0  0  0  0  0  0  0  0  0  0  0
  -22.7350   -4.3410   21.4650 F   0  0  0  0  0  0  0  0  0  0  0  0
  -21.3590   -3.9050   26.0170 F   0  0  0  0  0  0  0  0  0  0  0  0
  -22.9200  -13.6280   21.2370 C   0  0  0  0  0  0  0  0  0  0  0  0
  -22.2240  -12.9030   22.1030 N   0  0  0  0  0  0  0  0  0  0  0  0
  -22.4540  -14.6580   20.7490 O   0  0  0  0  0  0  0  0  0  0  0  0
  -22.6150  -12.0710   22.5220 H   0  0  0  0  0  0  0  0  0  0  0  0
  -21.2850  -13.1810   22.3470 H   0  0  0  0  0  0  0  0  0  0  0  0
  -25.5130  -15.3550   20.4060 N   0  0  0  0  0  0  0  0  0  0  0  0
  -24.7550  -16.0100   20.5550 H   0  0  0  0  0  0  0  0  0  0  0  0
  -26.3710  -15.8130   20.1190 H   0  0  0  0  0  0  0  0  0  0  0  0
  1  4  1  0
  2  5  2  0
  3  2  1  0
  3  1  2  0
  4  6  2  0
  4 57  1  0
  5  6  1  0
  5  7  1  0
  7  9  1  1
  7  8  1  0
 10 11  1  0
 10  7  1  0
 12 13  1  0
 12 11  1  0
 14 25  2  0
 15 13  1  0
 15 20  1  0
 16 24  1  0
 16 26  1  0
 17 19  1  0
 18 24  1  0
 19 20  2  0
 19 18  1  0
 21 15  2  0
 22 21  1  0
 22 17  2  0
 23 17  1  0
 23 16  1  0
 24 14  1  0
 26 28  2  0
 27 26  1  0
 29 27  1  0
 30 39  2  0
 30 35  1  0
 31 27  1  0
 31 35  1  0
 32 31  1  0
 33 34  1  0
 33 32  1  0
 34 30  1  0
 35 36  2  0
 36 37  1  0
 38 37  2  0
 39 38  1  0
 40 14  1  0
 40 41  1  0
 40 50  1  0
 41 44  1  0
 42 46  1  0
 42 41  1  0
 43 42  2  0
 46 45  1  0
 48 49  1  0
 48 46  1  0
 48 47  1  0
 50 53  1  1
 50 51  1  0
 52 50  1  0
 54  3  1  0
 55 56  1  0
 56 54  1  0
 58 66  1  0
 59 64  1  0
 60 61  1  0
 60 59  1  0
 62 61  1  0
 62 71  1  0
 62 63  1  0
 64 58  1  0
 64 63  1  0
 65 58  2  0
 66 57  1  0
 66 67  1  0
 68 69  2  0
 69 88  1  0
 70 69  1  0
 70 73  1  0
 71 72  1  0
 71 68  1  0
 72 70  2  0
 73 74  1  0
 74 75  2  0
 76 79  1  0
 76 75  1  0
 77 76  2  0
 78 77  1  0
 78 73  2  0
 79 80  1  0
 80 81  1  0
 81 82  2  0
 83 82  1  0
 83 87  1  0
 84 83  2  0
 85 80  2  0
 85 84  1  0
 86 85  1  0
 88 89  1  0
 89 92  1  0
 89 91  1  0
 90 88  2  0
 93 68  1  0
 93 94  1  0
 95 93  1  0
M  ISO  4  12 101  13 101  58 100  66 100
M  END
>  <TORSDO>  (38) 
F 23

>  <SCORE>  (38) 
-13.207

>  <name>  (38) 
38

>  <ligand_id>  (38) 
38

>  <original_smiles>  (38) 
[H]c1c([H])c([H])c2c(c1[H])C([H])([H])C([H])([H])C([H])([H])C2([H])N([H])C(=O)C1([H])N(C(=O)C([H])(N([H])C(=O)C([H])(N([H])C([H])([H])[H])C([H])([H])[H])C(C([H])([H])[H])(C([H])([H])[H])C([H])([H])[H])C([H])([H])c2c([H])c(OC([H])([H])C([H])([H])C([H])([H])C(F)(F)c3nc(C([H])([H])N([H])C(=O)N4C([H])([H])C([H])([H])C([H])([H])C([H])(n5nc(-c6c([H])c([H])c(Oc7c([H])c([H])c(F)c([H])c7F)c([H])c6[H])c(C(=O)N([H])[H])c5N([H])[H])C4([H])[H])c([H])c(C([H])([H])C([H])([H])C([H])([H])[H])c3[H])c([H])c([H])c2C1([H])[H]

>  <smiles>  (38) 
[H]c1c([H])c([H])c2c(c1[H])C([H])([H])C([H])([H])C([H])([H])C2([H])N([H])C(=O)C1([H])N(C(=O)C([H])(N([H])C(=O)C([H])(N([H])C([H])([H])[H])C([H])([H])[H])C(C([H])([H])[H])(C([H])([H])[H])C([H])([H])[H])C([H])([H])c2c([H])c(OC([H])([H])C([H])([H])C([H])([H])C(F)(F)c3nc(C([H])([H])N([H])C(=O)N4C([H])([H])C([H])([H])C([H])([H])C([H])(n5nc(-c6c([H])c([H])c(Oc7c([H])c([H])c(F)c([H])c7F)c([H])c6[H])c(C(=O)N([H])[H])c5N([H])[H])C4([H])[H])c([H])c(C([H])([H])C([H])([H])C([H])([H])[H])c3[H])c([H])c([H])c2C1([H])[H]

$$$$
39:0:0
     RDKit          3D

 89 97  0  0  1  0  0  0  0  0999 V2000
  -29.3680  -19.9660   20.9810 C   0  0  0  0  0  3  0  0  0  0  0  0
  -29.8920  -19.4490   18.9630 C   0  0  0  0  0  3  0  0  0  0  0  0
  -29.0620  -21.0730   20.1720 C   0  0  0  0  0  0  0  0  0  0  0  0
  -29.3970  -20.6920   18.8720 N   0  0  0  0  0  0  0  0  0  0  0  0
  -29.9430  -18.9230   20.2000 N   0  0  0  0  0  0  0  0  0  0  0  0
  -28.2740  -22.4040   20.4500 C   0  0  0  0  0  2  0  0  0  0  0  0
  -28.9040  -23.8760   20.2940 C   0  0  0  0  0  3  0  0  0  0  0  0
  -27.8340  -25.0640   20.1240 C   0  0  0  0  0  3  0  0  0  0  0  0
  -28.1410  -26.5280   20.1850 O   0  0  0  0  0  0  0  0  0  0  0  0
  -24.5060  -31.9720   23.3120 C   0  0  0  0  0  0  0  0  0  0  0  0
  -27.0420  -27.4170   20.1590 C   0  0  0  0  0  0  0  0  0  0  0  0
  -23.2670  -30.5880   21.6910 C   0  0  0  0  0  3  0  0  0  0  0  0
  -24.6830  -29.0560   20.2170 C   0  0  0  0  0  0  0  0  0  0  0  0
  -25.8050  -30.9010   21.4550 C   0  0  0  0  0  2  0  0  0  0  0  0
  -25.8700  -29.5280   20.7910 C   0  0  0  0  0  0  0  0  0  0  0  0
  -27.0530  -28.7230   20.7510 C   0  0  0  0  0  3  0  0  0  0  0  0
  -25.8250  -27.0140   19.5550 C   0  0  0  0  0  3  0  0  0  0  0  0
  -24.6660  -27.8050   19.5870 C   0  0  0  0  0  3  0  0  0  0  0  0
  -23.4500  -29.9310   20.2990 C   0  0  0  0  0  2  0  0  0  0  0  0
  -24.5460  -31.1710   22.2080 N   0  0  0  0  0  0  0  0  0  0  0  0
  -23.4340  -32.2450   23.8730 O   0  0  0  0  0  0  0  0  0  0  0  0
  -22.6250  -29.5620   22.6560 C   0  0  0  0  0  0  0  0  0  0  0  0
  -21.3050  -29.3470   22.5230 N   0  0  0  0  0  0  0  0  0  0  0  0
  -23.3150  -28.9610   23.4840 O   0  0  0  0  0  0  0  0  0  0  0  0
  -20.8060  -29.8840   21.8290 H   0  0  0  0  0  0  0  0  0  0  0  0
  -17.9620  -28.0480   23.0020 C   0  0  0  0  0  0  0  0  0  0  0  0
  -20.5070  -28.3950   23.2990 C   0  0  0  0  0  3  0  0  0  0  0  0
  -20.6630  -26.9590   22.7510 C   0  0  0  0  0  2  0  0  0  0  0  0
  -19.5860  -26.5820   21.7280 C   0  0  0  0  0  2  0  0  0  0  0  0
  -18.1920  -26.6940   22.3530 C   0  0  0  0  0  2  0  0  0  0  0  0
  -19.0490  -28.8540   23.4330 C   0  0  0  0  0  0  0  0  0  0  0  0
  -18.7810  -30.1190   24.0000 C   0  0  0  0  0  3  0  0  0  0  0  0
  -17.4590  -30.5790   24.1410 C   0  0  0  0  0  3  0  0  0  0  0  0
  -16.3850  -29.7710   23.7270 C   0  0  0  0  0  3  0  0  0  0  0  0
  -16.6380  -28.5080   23.1630 C   0  0  0  0  0  3  0  0  0  0  0  0
  -25.8010  -32.6020   23.9090 C   0  0  0  0  0  3  0  0  0  0  0  0
  -25.5030  -34.0020   24.2420 N   0  0  0  0  0  0  0  0  0  0  0  0
  -25.8350  -35.0540   23.4810 C   0  0  0  0  0  0  0  0  0  0  0  0
  -26.4960  -34.9460   22.4440 O   0  0  0  0  0  0  0  0  0  0  0  0
  -24.9170  -34.1600   25.0490 H   0  0  0  0  0  0  0  0  0  0  0  0
  -24.1300  -36.8690   23.1260 C   0  0  0  0  0  1  0  0  0  0  0  0
  -25.3610  -36.4450   23.9430 C   0  0  0  0  0  3  0  0  0  0  0  0
  -27.4970  -37.3040   24.7970 C   0  0  0  0  0  1  0  0  0  0  0  0
  -26.4060  -37.4860   23.8430 N   0  0  0  0  0  0  0  0  0  0  0  0
  -26.0090  -38.4110   23.9870 H   0  0  0  0  0  0  0  0  0  0  0  0
  -26.3370  -31.8330   25.1800 C   0  0  1  0  0  0  0  0  0  0  0  0
  -25.2560  -31.5880   26.2610 C   0  0  0  0  0  1  0  0  0  0  0  0
  -26.9220  -30.4570   24.7830 C   0  0  0  0  0  1  0  0  0  0  0  0
  -27.4900  -32.6320   25.8290 C   0  0  0  0  0  1  0  0  0  0  0  0
  -30.5840  -17.5910   20.5760 C   0  0  0  0  0  3  0  0  0  0  0  0
  -32.2580  -18.8430   22.1130 C   0  0  0  0  0  1  0  0  0  0  0  0
  -31.2800  -17.6660   21.9550 C   0  0  0  0  0  2  0  0  0  0  0  0
  -29.7690  -16.2110   20.4330 C   0  0  0  0  0  2  0  0  0  0  0  0
  -30.5850  -14.8570   20.1810 C   0  0  0  0  0  0  0  0  0  0  0  0
  -30.3710  -12.6040   19.1440 C   0  0  0  0  0  2  0  0  0  0  0  0
  -29.3960  -12.7230   17.9500 C   0  0  0  0  0  2  0  0  0  0  0  0
  -27.9380  -12.5360   18.4160 C   0  0  0  0  0  2  0  0  0  0  0  0
  -27.5970  -13.3870   19.6670 C   0  0  0  0  0  3  0  0  0  0  0  0
  -28.6910  -13.2720   20.7510 C   0  0  0  0  0  2  0  0  0  0  0  0
  -29.9770  -13.6240   20.1390 N   0  0  0  0  0  0  0  0  0  0  0  0
  -31.7590  -14.9600   19.8130 O   0  0  0  0  0  0  0  0  0  0  0  0
  -25.2240  -13.9320   20.4800 C   0  0  0  0  0  0  0  0  0  0  0  0
  -24.1800  -13.1370   20.8680 C   0  0  0  0  0  0  0  0  0  0  0  0
  -24.6600  -11.7940   20.8000 C   0  0  0  0  0  0  0  0  0  0  0  0
  -26.2720  -13.0720   20.1950 N   0  0  0  0  0  0  0  0  0  0  0  0
  -25.9420  -11.7780   20.4490 N   0  0  0  0  0  0  0  0  0  0  0  0
  -23.9560  -10.5170   20.9890 C   0  0  0  0  0  0  0  0  0  0  0  0
  -24.4040   -9.5600   21.9270 C   0  0  0  0  0  3  0  0  0  0  0  0
  -23.6980   -8.3500   22.1040 C   0  0  0  0  0  3  0  0  0  0  0  0
  -22.5330   -8.0880   21.3450 C   0  0  0  0  0  0  0  0  0  0  0  0
  -22.1060   -9.0350   20.3970 C   0  0  0  0  0  3  0  0  0  0  0  0
  -22.8110  -10.2370   20.2180 C   0  0  0  0  0  3  0  0  0  0  0  0
  -21.8000   -6.9300   21.4320 O   0  0  0  0  0  0  0  0  0  0  0  0
  -21.7250   -6.2100   22.5970 C   0  0  0  0  0  0  0  0  0  0  0  0
  -21.1990   -6.7680   23.7840 C   0  0  0  0  0  3  0  0  0  0  0  0
  -21.0760   -5.9720   24.9400 C   0  0  0  0  0  3  0  0  0  0  0  0
  -21.4680   -4.6200   24.9120 C   0  0  0  0  0  0  0  0  0  0  0  0
  -21.9850   -4.0630   23.7290 C   0  0  0  0  0  3  0  0  0  0  0  0
  -22.1100   -4.8550   22.5750 C   0  0  0  0  0  0  0  0  0  0  0  0
  -22.5910   -4.3080   21.4330 F   0  0  0  0  0  0  0  0  0  0  0  0
  -21.3420   -3.8530   26.0200 F   0  0  0  0  0  0  0  0  0  0  0  0
  -22.7870  -13.5900   21.1930 C   0  0  0  0  0  0  0  0  0  0  0  0
  -22.0900  -12.8600   22.0570 N   0  0  0  0  0  0  0  0  0  0  0  0
  -22.3230  -14.6250   20.7150 O   0  0  0  0  0  0  0  0  0  0  0  0
  -22.4800  -12.0230   22.4650 H   0  0  0  0  0  0  0  0  0  0  0  0
  -21.1550  -13.1420   22.3150 H   0  0  0  0  0  0  0  0  0  0  0  0
  -25.3660  -15.3080   20.3240 N   0  0  0  0  0  0  0  0  0  0  0  0
  -24.5980  -15.9540   20.4780 H   0  0  0  0  0  0  0  0  0  0  0  0
  -26.2070  -15.7650   19.9950 H   0  0  0  0  0  0  0  0  0  0  0  0
  2  5  1  0
  3  6  1  0
  3  1  2  0
  4  2  2  0
  4  3  1  0
  5 50  1  0
  5  1  1  0
  7  6  1  0
  8  9  1  0
  8  7  2  0
 10 21  2  0
 11  9  1  0
 11 16  1  0
 12 20  1  0
 12 22  1  0
 13 19  1  0
 13 15  1  0
 14 20  1  0
 15 14  1  0
 16 15  2  0
 17 18  1  0
 17 11  2  0
 18 13  2  0
 19 12  1  0
 20 10  1  0
 22 24  2  0
 23 22  1  0
 25 23  1  0
 26 35  2  0
 26 31  1  0
 27 23  1  0
 27 31  1  0
 28 27  1  0
 29 30  1  0
 29 28  1  0
 30 26  1  0
 31 32  2  0
 32 33  1  0
 34 33  2  0
 35 34  1  0
 36 10  1  0
 36 37  1  0
 36 46  1  0
 37 40  1  0
 38 42  1  0
 38 37  1  0
 39 38  2  0
 42 41  1  0
 44 42  1  0
 44 45  1  0
 44 43  1  0
 46 49  1  1
 46 47  1  0
 48 46  1  0
 50 53  1  0
 50 52  1  0
 52 51  1  0
 54 53  1  0
 55 60  1  0
 56 57  1  0
 56 55  1  0
 58 57  1  0
 58 65  1  0
 58 59  1  0
 60 54  1  0
 60 59  1  0
 61 54  2  0
 62 63  2  0
 63 82  1  0
 64 63  1  0
 64 67  1  0
 65 66  1  0
 65 62  1  0
 66 64  2  0
 67 68  1  0
 68 69  2  0
 70 73  1  0
 70 69  1  0
 71 70  2  0
 72 71  1  0
 72 67  2  0
 73 74  1  0
 74 75  1  0
 75 76  2  0
 77 76  1  0
 77 81  1  0
 78 77  2  0
 79 74  2  0
 79 78  1  0
 80 79  1  0
 82 83  1  0
 83 86  1  0
 83 85  1  0
 84 82  2  0
 87 88  1  0
 87 62  1  0
 89 87  1  0
M  ISO  4   8 101   9 101  53 100  54 100
M  END
>  <TORSDO>  (39) 
F 22

>  <SCORE>  (39) 
-12.772

>  <name>  (39) 
39

>  <ligand_id>  (39) 
39

>  <original_smiles>  (39) 
[H]c1c([H])c([H])c2c(c1[H])C([H])([H])C([H])([H])C([H])([H])C2([H])N([H])C(=O)C1([H])N(C(=O)C([H])(N([H])C(=O)C([H])(N([H])C([H])([H])[H])C([H])([H])[H])C(C([H])([H])[H])(C([H])([H])[H])C([H])([H])[H])C([H])([H])c2c([H])c(OC([H])([H])C([H])([H])C([H])([H])c3nc([H])n(C([H])(C([H])([H])C(=O)N4C([H])([H])C([H])([H])C([H])([H])C([H])(n5nc(-c6c([H])c([H])c(Oc7c([H])c([H])c(F)c([H])c7F)c([H])c6[H])c(C(=O)N([H])[H])c5N([H])[H])C4([H])[H])C([H])([H])C([H])([H])[H])c3[H])c([H])c([H])c2C1([H])[H]

>  <smiles>  (39) 
[H]c1c([H])c([H])c2c(c1[H])C([H])([H])C([H])([H])C([H])([H])C2([H])N([H])C(=O)C1([H])N(C(=O)C([H])(N([H])C(=O)C([H])(N([H])C([H])([H])[H])C([H])([H])[H])C(C([H])([H])[H])(C([H])([H])[H])C([H])([H])[H])C([H])([H])c2c([H])c(OC([H])([H])C([H])([H])C([H])([H])c3nc([H])n(C([H])(C([H])([H])C(=O)N4C([H])([H])C([H])([H])C([H])([H])C([H])(n5nc(-c6c([H])c([H])c(Oc7c([H])c([H])c(F)c([H])c7F)c([H])c6[H])c(C(=O)N([H])[H])c5N([H])[H])C4([H])[H])C([H])([H])C([H])([H])[H])c3[H])c([H])c([H])c2C1([H])[H]

$$$$
41:0:0
     RDKit          3D

 90 98  0  0  1  0  0  0  0  0999 V2000
  -28.5540  -21.3290   17.8820 C   0  0  0  0  0  3  0  0  0  0  0  0
  -28.5470  -20.1640   17.1710 C   0  0  0  0  0  3  0  0  0  0  0  0
  -28.8750  -19.6340   19.3320 C   0  0  0  0  0  3  0  0  0  0  0  0
  -28.6870  -21.0240   19.2280 N   0  0  0  0  0  0  0  0  0  0  0  0
  -28.7500  -19.1700   18.0790 N   0  0  0  0  0  0  0  0  0  0  0  0
  -28.7890  -18.1910   17.8210 H   0  0  0  0  0  0  0  0  0  0  0  0
  -29.0500  -18.5320   20.4440 C   0  0  0  0  0  2  0  0  0  0  0  0
  -30.0810  -17.2920   20.1790 C   0  0  0  0  0  2  0  0  0  0  0  0
  -30.5530  -14.7240   20.3650 C   0  0  0  0  0  0  0  0  0  0  0  0
  -30.3760  -12.4550   19.3550 C   0  0  0  0  0  2  0  0  0  0  0  0
  -29.4200  -12.5240   18.1420 C   0  0  0  0  0  2  0  0  0  0  0  0
  -27.9460  -12.3970   18.5740 C   0  0  0  0  0  2  0  0  0  0  0  0
  -27.5960  -13.2660   19.8090 C   0  0  0  0  0  3  0  0  0  0  0  0
  -28.6590  -13.1350   20.9200 C   0  0  0  0  0  2  0  0  0  0  0  0
  -29.9500  -13.4900   20.3220 N   0  0  0  0  0  0  0  0  0  0  0  0
  -31.7330  -14.8490   20.0270 O   0  0  0  0  0  0  0  0  0  0  0  0
  -29.7540  -15.8400   20.5520 N   0  0  0  0  0  0  0  0  0  0  0  0
  -28.8150  -15.6420   20.8600 H   0  0  0  0  0  0  0  0  0  0  0  0
  -25.2090  -13.8630   20.5210 C   0  0  0  0  0  0  0  0  0  0  0  0
  -24.1440  -13.0920   20.8920 C   0  0  0  0  0  0  0  0  0  0  0  0
  -24.6070  -11.7390   20.8700 C   0  0  0  0  0  0  0  0  0  0  0  0
  -26.2530  -12.9810   20.2960 N   0  0  0  0  0  0  0  0  0  0  0  0
  -25.8980  -11.6980   20.5680 N   0  0  0  0  0  0  0  0  0  0  0  0
  -23.8750  -10.4780   21.0590 C   0  0  0  0  0  0  0  0  0  0  0  0
  -24.3150   -9.5010   21.9800 C   0  0  0  0  0  3  0  0  0  0  0  0
  -23.5900   -8.3040   22.1590 C   0  0  0  0  0  3  0  0  0  0  0  0
  -22.4030   -8.0770   21.4200 C   0  0  0  0  0  0  0  0  0  0  0  0
  -21.9800   -9.0410   20.4860 C   0  0  0  0  0  3  0  0  0  0  0  0
  -22.7100  -10.2290   20.3050 C   0  0  0  0  0  3  0  0  0  0  0  0
  -21.6430   -6.9360   21.5150 O   0  0  0  0  0  0  0  0  0  0  0  0
  -21.6200   -6.1800   22.6580 C   0  0  0  0  0  0  0  0  0  0  0  0
  -21.2520   -6.7250   23.9070 C   0  0  0  0  0  3  0  0  0  0  0  0
  -21.1790   -5.8960   25.0420 C   0  0  0  0  0  3  0  0  0  0  0  0
  -21.4610   -4.5210   24.9340 C   0  0  0  0  0  0  0  0  0  0  0  0
  -21.8220   -3.9750   23.6890 C   0  0  0  0  0  3  0  0  0  0  0  0
  -21.9020   -4.8020   22.5540 C   0  0  0  0  0  0  0  0  0  0  0  0
  -22.2310   -4.2670   21.3550 F   0  0  0  0  0  0  0  0  0  0  0  0
  -21.3810   -3.7220   26.0220 F   0  0  0  0  0  0  0  0  0  0  0  0
  -22.7450  -13.5690   21.1540 C   0  0  0  0  0  0  0  0  0  0  0  0
  -22.0140  -12.8810   22.0210 N   0  0  0  0  0  0  0  0  0  0  0  0
  -22.3100  -14.5880   20.6210 O   0  0  0  0  0  0  0  0  0  0  0  0
  -22.3800  -12.0590   22.4790 H   0  0  0  0  0  0  0  0  0  0  0  0
  -21.0720  -13.1770   22.2370 H   0  0  0  0  0  0  0  0  0  0  0  0
  -25.3770  -15.2320   20.3340 N   0  0  0  0  0  0  0  0  0  0  0  0
  -24.6160  -15.8950   20.4350 H   0  0  0  0  0  0  0  0  0  0  0  0
  -26.2080  -15.6440   19.9340 H   0  0  0  0  0  0  0  0  0  0  0  0
  -28.5830  -22.1500   20.2830 C   0  0  0  0  0  2  0  0  0  0  0  0
  -28.4590  -23.6900   19.7360 C   0  0  0  0  0  3  0  0  0  0  0  0
  -28.1000  -24.9520   20.6730 C   0  0  0  0  0  3  0  0  0  0  0  0
  -28.3050  -26.3670   20.2000 O   0  0  0  0  0  0  0  0  0  0  0  0
  -24.6380  -31.8600   23.2140 C   0  0  0  0  0  0  0  0  0  0  0  0
  -27.2150  -27.2610   20.1760 C   0  0  0  0  0  0  0  0  0  0  0  0
  -23.4270  -30.4620   21.5790 C   0  0  0  0  0  3  0  0  0  0  0  0
  -24.8720  -28.9080   20.1400 C   0  0  0  0  0  0  0  0  0  0  0  0
  -25.9660  -30.7780   21.3800 C   0  0  0  0  0  2  0  0  0  0  0  0
  -26.0430  -29.3920   20.7400 C   0  0  0  0  0  0  0  0  0  0  0  0
  -27.2240  -28.5820   20.7370 C   0  0  0  0  0  3  0  0  0  0  0  0
  -26.0260  -26.8420   19.5470 C   0  0  0  0  0  3  0  0  0  0  0  0
  -24.8710  -27.6490   19.5230 C   0  0  0  0  0  3  0  0  0  0  0  0
  -23.6360  -29.7860   20.1960 C   0  0  0  0  0  2  0  0  0  0  0  0
  -24.6980  -31.0530   22.1130 N   0  0  0  0  0  0  0  0  0  0  0  0
  -23.5570  -32.1350   23.7550 O   0  0  0  0  0  0  0  0  0  0  0  0
  -22.7680  -29.4440   22.5450 C   0  0  0  0  0  0  0  0  0  0  0  0
  -21.4390  -29.2710   22.4350 N   0  0  0  0  0  0  0  0  0  0  0  0
  -23.4530  -28.8150   23.3550 O   0  0  0  0  0  0  0  0  0  0  0  0
  -20.9420  -29.8310   21.7570 H   0  0  0  0  0  0  0  0  0  0  0  0
  -18.0680  -28.0740   22.9610 C   0  0  0  0  0  0  0  0  0  0  0  0
  -20.6250  -28.3370   23.2150 C   0  0  0  0  0  3  0  0  0  0  0  0
  -20.7290  -26.9040   22.6430 C   0  0  0  0  0  2  0  0  0  0  0  0
  -19.6210  -26.5760   21.6370 C   0  0  0  0  0  2  0  0  0  0  0  0
  -18.2420  -26.7250   22.2850 C   0  0  0  0  0  2  0  0  0  0  0  0
  -19.1880  -28.8400   23.3800 C   0  0  0  0  0  0  0  0  0  0  0  0
  -18.9690  -30.1050   23.9700 C   0  0  0  0  0  3  0  0  0  0  0  0
  -17.6630  -30.6020   24.1460 C   0  0  0  0  0  3  0  0  0  0  0  0
  -16.5590  -29.8360   23.7340 C   0  0  0  0  0  3  0  0  0  0  0  0
  -16.7630  -28.5740   23.1500 C   0  0  0  0  0  3  0  0  0  0  0  0
  -25.9230  -32.5000   23.8280 C   0  0  0  0  0  3  0  0  0  0  0  0
  -25.6120  -33.8940   24.1750 N   0  0  0  0  0  0  0  0  0  0  0  0
  -25.9260  -34.9540   23.4200 C   0  0  0  0  0  0  0  0  0  0  0  0
  -26.5750  -34.8630   22.3760 O   0  0  0  0  0  0  0  0  0  0  0  0
  -25.0440  -34.0410   24.9970 H   0  0  0  0  0  0  0  0  0  0  0  0
  -24.1810  -36.7370   23.1100 C   0  0  0  0  0  1  0  0  0  0  0  0
  -25.4390  -36.3360   23.8980 C   0  0  0  0  0  3  0  0  0  0  0  0
  -27.5850  -37.2240   24.6940 C   0  0  0  0  0  1  0  0  0  0  0  0
  -26.4610  -37.3980   23.7750 N   0  0  0  0  0  0  0  0  0  0  0  0
  -26.0530  -38.3120   23.9470 H   0  0  0  0  0  0  0  0  0  0  0  0
  -26.4570  -31.7220   25.0910 C   0  0  1  0  0  0  0  0  0  0  0  0
  -25.3760  -31.4780   26.1710 C   0  0  0  0  0  1  0  0  0  0  0  0
  -27.0400  -30.3490   24.6840 C   0  0  0  0  0  1  0  0  0  0  0  0
  -27.6150  -32.5140   25.7440 C   0  0  0  0  0  1  0  0  0  0  0  0
  1  4  1  0
  2  1  2  0
  2  5  1  0
  3  7  1  0
  4  3  1  0
  4 47  1  0
  5  3  1  0
  6  5  1  0
  8  7  1  0
  8 17  1  0
  9 17  1  0
 10 15  1  0
 11 12  1  0
 11 10  1  0
 13 12  1  0
 13 22  1  0
 13 14  1  0
 15  9  1  0
 15 14  1  0
 16  9  2  0
 17 18  1  0
 19 20  2  0
 20 39  1  0
 21 20  1  0
 21 24  1  0
 22 19  1  0
 22 23  1  0
 23 21  2  0
 24 25  1  0
 25 26  2  0
 27 30  1  0
 27 26  1  0
 28 27  2  0
 29 28  1  0
 29 24  2  0
 30 31  1  0
 31 32  1  0
 32 33  2  0
 34 33  1  0
 34 38  1  0
 35 34  2  0
 36 31  2  0
 36 35  1  0
 37 36  1  0
 39 40  1  0
 40 43  1  0
 40 42  1  0
 41 39  2  0
 44 45  1  0
 44 19  1  0
 46 44  1  0
 48 47  1  0
 48 49  2  0
 50 49  1  0
 51 62  2  0
 52 50  1  0
 52 57  1  0
 53 61  1  0
 53 63  1  0
 54 60  1  0
 54 56  1  0
 55 61  1  0
 56 55  1  0
 57 56  2  0
 58 52  2  0
 59 58  1  0
 59 54  2  0
 60 53  1  0
 61 51  1  0
 63 65  2  0
 64 63  1  0
 66 64  1  0
 67 76  2  0
 67 72  1  0
 68 64  1  0
 68 72  1  0
 69 68  1  0
 70 71  1  0
 70 69  1  0
 71 67  1  0
 72 73  2  0
 73 74  1  0
 75 74  2  0
 76 75  1  0
 77 51  1  0
 77 78  1  0
 77 87  1  0
 78 81  1  0
 79 83  1  0
 79 78  1  0
 80 79  2  0
 83 82  1  0
 85 83  1  0
 85 86  1  0
 85 84  1  0
 87 90  1  1
 87 88  1  0
 89 87  1  0
M  ISO  4   9 100  17 100  49 101  50 101
M  END
>  <TORSDO>  (40) 
F 21

>  <SCORE>  (40) 
-13.417

>  <name>  (40) 
41

>  <ligand_id>  (40) 
41

>  <original_smiles>  (40) 
[H]c1c([H])c([H])c2c(c1[H])C([H])([H])C([H])([H])C([H])([H])C2([H])N([H])C(=O)C1([H])N(C(=O)C([H])(N([H])C(=O)C([H])(N([H])C([H])([H])[H])C([H])([H])[H])C(C([H])([H])[H])(C([H])([H])[H])C([H])([H])[H])C([H])([H])c2c([H])c(OC([H])([H])C([H])([H])C([H])([H])n3c([H])c([H])[n+]([H])c3C([H])([H])C([H])([H])N([H])C(=O)N3C([H])([H])C([H])([H])C([H])([H])C([H])(n4nc(-c5c([H])c([H])c(Oc6c([H])c([H])c(F)c([H])c6F)c([H])c5[H])c(C(=O)N([H])[H])c4N([H])[H])C3([H])[H])c([H])c([H])c2C1([H])[H]

>  <smiles>  (40) 
[H]c1c([H])c([H])c2c(c1[H])C([H])([H])C([H])([H])C([H])([H])C2([H])N([H])C(=O)C1([H])N(C(=O)C([H])(N([H])C(=O)C([H])(N([H])C([H])([H])[H])C([H])([H])[H])C(C([H])([H])[H])(C([H])([H])[H])C([H])([H])[H])C([H])([H])c2c([H])c(OC([H])([H])C([H])([H])C([H])([H])n3c([H])c([H])[n+]([H])c3C([H])([H])C([H])([H])N([H])C(=O)N3C([H])([H])C([H])([H])C([H])([H])C([H])(n4nc(-c5c([H])c([H])c(Oc6c([H])c([H])c(F)c([H])c6F)c([H])c5[H])c(C(=O)N([H])[H])c4N([H])[H])C3([H])[H])c([H])c([H])c2C1([H])[H]

$$$$
42:0:0
     RDKit          3D

 91 99  0  0  1  0  0  0  0  0999 V2000
  -28.8480  -19.0630   21.0050 C   0  0  0  0  0  3  0  0  0  0  0  0
  -30.1210  -18.4880   20.7400 C   0  0  0  0  0  0  0  0  0  0  0  0
  -29.4940  -21.1590   20.1430 C   0  0  0  0  0  0  0  0  0  0  0  0
  -30.7920  -20.6020   19.9220 C   0  0  0  0  0  0  0  0  0  0  0  0
  -28.5370  -20.3650   20.7000 N   0  0  0  0  0  0  0  0  0  0  0  0
  -31.0890  -19.2900   20.2030 N   0  0  0  0  0  0  0  0  0  0  0  0
  -32.2260  -21.3180   17.9000 C   0  0  0  0  0  1  0  0  0  0  0  0
  -31.9510  -21.4480   19.4040 C   0  0  0  0  0  2  0  0  0  0  0  0
  -29.0260  -22.5590   19.5950 C   0  0  0  0  0  2  0  0  0  0  0  0
  -29.1880  -23.9240   20.3970 C   0  0  0  0  0  2  0  0  0  0  0  0
  -28.2130  -25.0790   19.8890 C   0  0  0  0  0  2  0  0  0  0  0  0
  -28.3910  -26.5060   20.2460 O   0  0  0  0  0  0  0  0  0  0  0  0
  -24.5980  -31.8730   23.2100 C   0  0  0  0  0  0  0  0  0  0  0  0
  -27.2700  -27.3540   20.1550 C   0  0  0  0  0  0  0  0  0  0  0  0
  -23.4140  -30.4750   21.5510 C   0  0  0  0  0  3  0  0  0  0  0  0
  -24.8900  -28.9470   20.1250 C   0  0  0  0  0  0  0  0  0  0  0  0
  -25.9500  -30.8090   21.3930 C   0  0  0  0  0  2  0  0  0  0  0  0
  -26.0440  -29.4330   20.7500 C   0  0  0  0  0  0  0  0  0  0  0  0
  -27.2310  -28.6430   20.7700 C   0  0  0  0  0  3  0  0  0  0  0  0
  -26.1020  -26.9400   19.4710 C   0  0  0  0  0  3  0  0  0  0  0  0
  -24.9210  -27.7060   19.4730 C   0  0  0  0  0  3  0  0  0  0  0  0
  -23.6460  -29.8110   20.1670 C   0  0  0  0  0  2  0  0  0  0  0  0
  -24.6720  -31.0700   22.1090 N   0  0  0  0  0  0  0  0  0  0  0  0
  -23.5100  -32.1430   23.7400 O   0  0  0  0  0  0  0  0  0  0  0  0
  -22.7530  -29.4490   22.5030 C   0  0  0  0  0  0  0  0  0  0  0  0
  -21.4280  -29.2710   22.3750 N   0  0  0  0  0  0  0  0  0  0  0  0
  -23.4300  -28.8170   23.3180 O   0  0  0  0  0  0  0  0  0  0  0  0
  -20.9380  -29.8320   21.6910 H   0  0  0  0  0  0  0  0  0  0  0  0
  -18.0460  -28.0970   22.8840 C   0  0  0  0  0  0  0  0  0  0  0  0
  -20.6090  -28.3290   23.1380 C   0  0  0  0  0  3  0  0  0  0  0  0
  -20.6970  -26.9070   22.5360 C   0  0  0  0  0  2  0  0  0  0  0  0
  -19.5830  -26.6100   21.5280 C   0  0  0  0  0  2  0  0  0  0  0  0
  -18.2080  -26.7580   22.1860 C   0  0  0  0  0  2  0  0  0  0  0  0
  -19.1750  -28.8420   23.3190 C   0  0  0  0  0  0  0  0  0  0  0  0
  -18.9710  -30.0950   23.9350 C   0  0  0  0  0  3  0  0  0  0  0  0
  -17.6710  -30.6050   24.1210 C   0  0  0  0  0  3  0  0  0  0  0  0
  -16.5570  -29.8560   23.7030 C   0  0  0  0  0  3  0  0  0  0  0  0
  -16.7450  -28.6040   23.0910 C   0  0  0  0  0  3  0  0  0  0  0  0
  -25.8750  -32.5120   23.8390 C   0  0  0  0  0  3  0  0  0  0  0  0
  -25.5640  -33.9120   24.1600 N   0  0  0  0  0  0  0  0  0  0  0  0
  -25.9020  -34.9590   23.3950 C   0  0  0  0  0  0  0  0  0  0  0  0
  -26.5770  -34.8470   22.3680 O   0  0  0  0  0  0  0  0  0  0  0  0
  -24.9700  -34.0710   24.9600 H   0  0  0  0  0  0  0  0  0  0  0  0
  -24.1900  -36.7580   22.9970 C   0  0  0  0  0  1  0  0  0  0  0  0
  -25.4110  -36.3510   23.8370 C   0  0  0  0  0  3  0  0  0  0  0  0
  -27.5280  -37.2380   24.7120 C   0  0  0  0  0  1  0  0  0  0  0  0
  -26.4500  -37.4000   23.7390 N   0  0  0  0  0  0  0  0  0  0  0  0
  -26.0430  -38.3220   23.8680 H   0  0  0  0  0  0  0  0  0  0  0  0
  -26.3760  -31.7490   25.1260 C   0  0  1  0  0  0  0  0  0  0  0  0
  -25.2690  -31.5120   26.1810 C   0  0  0  0  0  1  0  0  0  0  0  0
  -26.9640  -30.3710   24.7460 C   0  0  0  0  0  1  0  0  0  0  0  0
  -27.5180  -32.5450   25.8000 C   0  0  0  0  0  1  0  0  0  0  0  0
  -30.5670  -17.0770   21.2760 C   0  0  0  0  0  2  0  0  0  0  0  0
  -30.6580  -14.6720   20.3860 C   0  0  0  0  0  0  0  0  0  0  0  0
  -30.3770  -12.4660   19.2700 C   0  0  0  0  0  2  0  0  0  0  0  0
  -29.4330  -12.5990   18.0580 C   0  0  0  0  0  2  0  0  0  0  0  0
  -27.9590  -12.4480   18.4870 C   0  0  0  0  0  2  0  0  0  0  0  0
  -27.6080  -13.3120   19.7290 C   0  0  0  0  0  3  0  0  0  0  0  0
  -28.6700  -13.1570   20.8410 C   0  0  0  0  0  2  0  0  0  0  0  0
  -29.9770  -13.4890   20.2570 N   0  0  0  0  0  0  0  0  0  0  0  0
  -31.8260  -14.7750   20.0050 O   0  0  0  0  0  0  0  0  0  0  0  0
  -29.9720  -15.7700   20.8200 N   0  0  0  0  0  0  0  0  0  0  0  0
  -29.0000  -15.6190   21.0450 H   0  0  0  0  0  0  0  0  0  0  0  0
  -25.2180  -13.9200   20.4630 C   0  0  0  0  0  0  0  0  0  0  0  0
  -24.1490  -13.1490   20.8370 C   0  0  0  0  0  0  0  0  0  0  0  0
  -24.6070  -11.7970   20.8060 C   0  0  0  0  0  0  0  0  0  0  0  0
  -26.2590  -13.0360   20.2220 N   0  0  0  0  0  0  0  0  0  0  0  0
  -25.8980  -11.7550   20.4930 N   0  0  0  0  0  0  0  0  0  0  0  0
  -23.8760  -10.5380   20.9970 C   0  0  0  0  0  0  0  0  0  0  0  0
  -24.2990   -9.5760   21.9410 C   0  0  0  0  0  3  0  0  0  0  0  0
  -23.5680   -8.3820   22.1200 C   0  0  0  0  0  3  0  0  0  0  0  0
  -22.3990   -8.1430   21.3590 C   0  0  0  0  0  0  0  0  0  0  0  0
  -21.9960   -9.0930   20.4040 C   0  0  0  0  0  3  0  0  0  0  0  0
  -22.7280  -10.2780   20.2220 C   0  0  0  0  0  3  0  0  0  0  0  0
  -21.6400   -7.0010   21.4480 O   0  0  0  0  0  0  0  0  0  0  0  0
  -21.5700   -6.2730   22.6090 C   0  0  0  0  0  0  0  0  0  0  0  0
  -21.0920   -6.8320   23.8150 C   0  0  0  0  0  3  0  0  0  0  0  0
  -20.9710   -6.0270   24.9660 C   0  0  0  0  0  3  0  0  0  0  0  0
  -21.3140   -4.6640   24.9110 C   0  0  0  0  0  0  0  0  0  0  0  0
  -21.7820   -4.1030   23.7090 C   0  0  0  0  0  3  0  0  0  0  0  0
  -21.9060   -4.9050   22.5610 C   0  0  0  0  0  0  0  0  0  0  0  0
  -22.3380   -4.3550   21.4020 F   0  0  0  0  0  0  0  0  0  0  0  0
  -21.1900   -3.8880   26.0130 F   0  0  0  0  0  0  0  0  0  0  0  0
  -22.7530  -13.6330   21.1070 C   0  0  0  0  0  0  0  0  0  0  0  0
  -22.0180  -12.9380   21.9690 N   0  0  0  0  0  0  0  0  0  0  0  0
  -22.3210  -14.6590   20.5850 O   0  0  0  0  0  0  0  0  0  0  0  0
  -22.3770  -12.1090   22.4180 H   0  0  0  0  0  0  0  0  0  0  0  0
  -21.0770  -13.2410   22.1780 H   0  0  0  0  0  0  0  0  0  0  0  0
  -25.3770  -15.2910   20.2870 N   0  0  0  0  0  0  0  0  0  0  0  0
  -24.5970  -15.9280   20.4030 H   0  0  0  0  0  0  0  0  0  0  0  0
  -26.2080  -15.7480   19.9330 H   0  0  0  0  0  0  0  0  0  0  0  0
  2  1  1  0
  2 53  1  0
  3  5  1  0
  4  3  2  0
  4  6  1  0
  5  1  2  0
  6  2  2  0
  7  8  1  0
  8  4  1  0
  9  3  1  0
  9 10  1  0
 11 12  1  0
 11 10  1  0
 13 24  2  0
 14 12  1  0
 14 19  1  0
 15 23  1  0
 15 25  1  0
 16 22  1  0
 16 18  1  0
 17 23  1  0
 18 19  2  0
 18 17  1  0
 20 21  1  0
 20 14  2  0
 21 16  2  0
 22 15  1  0
 23 13  1  0
 25 27  2  0
 26 25  1  0
 28 26  1  0
 29 38  2  0
 29 34  1  0
 30 26  1  0
 30 34  1  0
 31 30  1  0
 32 33  1  0
 32 31  1  0
 33 29  1  0
 34 35  2  0
 35 36  1  0
 37 36  2  0
 38 37  1  0
 39 13  1  0
 39 40  1  0
 39 49  1  0
 40 43  1  0
 41 45  1  0
 41 40  1  0
 42 41  2  0
 45 44  1  0
 47 45  1  0
 47 48  1  0
 47 46  1  0
 49 52  1  1
 49 50  1  0
 51 49  1  0
 54 62  1  0
 55 60  1  0
 56 57  1  0
 56 55  1  0
 58 57  1  0
 58 67  1  0
 58 59  1  0
 60 54  1  0
 60 59  1  0
 61 54  2  0
 62 63  1  0
 62 53  1  0
 64 65  2  0
 65 84  1  0
 66 65  1  0
 66 69  1  0
 67 64  1  0
 67 68  1  0
 68 66  2  0
 69 70  1  0
 70 71  2  0
 72 75  1  0
 72 71  1  0
 73 72  2  0
 74 73  1  0
 74 69  2  0
 75 76  1  0
 76 77  1  0
 77 78  2  0
 79 78  1  0
 79 83  1  0
 80 79  2  0
 81 76  2  0
 81 80  1  0
 82 81  1  0
 84 85  1  0
 85 88  1  0
 85 87  1  0
 86 84  2  0
 89 90  1  0
 89 64  1  0
 91 89  1  0
M  ISO  4  11 101  12 101  54 100  62 100
M  END
>  <TORSDO>  (41) 
F 21

>  <SCORE>  (41) 
-13.319

>  <name>  (41) 
42

>  <ligand_id>  (41) 
42

>  <original_smiles>  (41) 
[H]c1nc(C([H])([H])C([H])([H])C([H])([H])Oc2c([H])c([H])c3c(c2[H])C([H])([H])N(C(=O)C([H])(N([H])C(=O)C([H])(N([H])C([H])([H])[H])C([H])([H])[H])C(C([H])([H])[H])(C([H])([H])[H])C([H])([H])[H])C([H])(C(=O)N([H])C2([H])c4c([H])c([H])c([H])c([H])c4C([H])([H])C([H])([H])C2([H])[H])C3([H])[H])c(C([H])([H])C([H])([H])[H])nc1C([H])([H])N([H])C(=O)N1C([H])([H])C([H])([H])C([H])([H])C([H])(n2nc(-c3c([H])c([H])c(Oc4c([H])c([H])c(F)c([H])c4F)c([H])c3[H])c(C(=O)N([H])[H])c2N([H])[H])C1([H])[H]

>  <smiles>  (41) 
[H]c1nc(C([H])([H])C([H])([H])C([H])([H])Oc2c([H])c([H])c3c(c2[H])C([H])([H])N(C(=O)C([H])(N([H])C(=O)C([H])(N([H])C([H])([H])[H])C([H])([H])[H])C(C([H])([H])[H])(C([H])([H])[H])C([H])([H])[H])C([H])(C(=O)N([H])C2([H])c4c([H])c([H])c([H])c([H])c4C([H])([H])C([H])([H])C2([H])[H])C3([H])[H])c(C([H])([H])C([H])([H])[H])nc1C([H])([H])N([H])C(=O)N1C([H])([H])C([H])([H])C([H])([H])C([H])(n2nc(-c3c([H])c([H])c(Oc4c([H])c([H])c(F)c([H])c4F)c([H])c3[H])c(C(=O)N([H])[H])c2N([H])[H])C1([H])[H]

$$$$
43:0:0
     RDKit          3D

 92100  0  0  1  0  0  0  0  0999 V2000
  -29.7710  -18.7570   19.9990 C   0  0  0  0  0  0  0  0  0  0  0  0
  -28.1740  -20.0790   19.5300 C   0  0  0  0  0  3  0  0  0  0  0  0
  -28.5280  -18.7820   19.4270 N   0  0  0  0  0  0  0  0  0  0  0  0
  -30.1600  -20.0030   20.4030 N   0  0  0  0  0  2  0  0  0  0  0  0
  -29.1120  -20.8780   20.0850 N   0  0  0  0  0  0  0  0  0  0  0  0
  -30.6760  -17.4510   20.0650 C   0  0  0  0  0  2  0  0  0  0  0  0
  -31.0110  -14.9430   20.6170 C   0  0  0  0  0  0  0  0  0  0  0  0
  -30.8080  -12.5830   19.7540 C   0  0  0  0  0  2  0  0  0  0  0  0
  -29.9730  -12.5590   18.4550 C   0  0  0  0  0  2  0  0  0  0  0  0
  -28.4760  -12.4210   18.7810 C   0  0  0  0  0  2  0  0  0  0  0  0
  -28.0280  -13.4090   19.8890 C   0  0  0  0  0  3  0  0  0  0  0  0
  -28.9920  -13.4080   21.0880 C   0  0  0  0  0  2  0  0  0  0  0  0
  -30.3360  -13.7290   20.5840 N   0  0  0  0  0  0  0  0  0  0  0  0
  -32.1750  -14.9650   20.1990 O   0  0  0  0  0  0  0  0  0  0  0  0
  -30.3450  -16.1620   20.8500 N   0  0  0  0  0  0  0  0  0  0  0  0
  -25.6310  -14.1000   20.4700 C   0  0  0  0  0  0  0  0  0  0  0  0
  -24.5220  -13.3760   20.8060 C   0  0  0  0  0  0  0  0  0  0  0  0
  -24.9360  -12.0080   20.8420 C   0  0  0  0  0  0  0  0  0  0  0  0
  -26.6520  -13.1780   20.3110 N   0  0  0  0  0  0  0  0  0  0  0  0
  -26.2390  -11.9160   20.6000 N   0  0  0  0  0  0  0  0  0  0  0  0
  -24.1560  -10.7800   21.0360 C   0  0  0  0  0  0  0  0  0  0  0  0
  -24.5290   -9.8090   21.9910 C   0  0  0  0  0  3  0  0  0  0  0  0
  -23.7500   -8.6450   22.1680 C   0  0  0  0  0  3  0  0  0  0  0  0
  -22.5870   -8.4420   21.3880 C   0  0  0  0  0  0  0  0  0  0  0  0
  -22.2330   -9.4020   20.4230 C   0  0  0  0  0  3  0  0  0  0  0  0
  -23.0100  -10.5570   20.2450 C   0  0  0  0  0  3  0  0  0  0  0  0
  -21.7830   -7.3310   21.4740 O   0  0  0  0  0  0  0  0  0  0  0  0
  -21.7120   -6.5800   22.6190 C   0  0  0  0  0  0  0  0  0  0  0  0
  -21.3440   -7.1450   23.8590 C   0  0  0  0  0  3  0  0  0  0  0  0
  -21.2140   -6.3230   24.9960 C   0  0  0  0  0  3  0  0  0  0  0  0
  -21.4450   -4.9390   24.8980 C   0  0  0  0  0  0  0  0  0  0  0  0
  -21.8060   -4.3720   23.6610 C   0  0  0  0  0  3  0  0  0  0  0  0
  -21.9360   -5.1900   22.5260 C   0  0  0  0  0  0  0  0  0  0  0  0
  -22.2640   -4.6360   21.3340 F   0  0  0  0  0  0  0  0  0  0  0  0
  -21.3120   -4.1480   25.9880 F   0  0  0  0  0  0  0  0  0  0  0  0
  -23.1310  -13.9090   20.9920 C   0  0  0  0  0  0  0  0  0  0  0  0
  -22.3420  -13.2770   21.8520 N   0  0  0  0  0  0  0  0  0  0  0  0
  -22.7550  -14.9270   20.4080 O   0  0  0  0  0  0  0  0  0  0  0  0
  -22.6590  -12.4580   22.3500 H   0  0  0  0  0  0  0  0  0  0  0  0
  -21.4040  -13.6160   22.0160 H   0  0  0  0  0  0  0  0  0  0  0  0
  -25.8550  -15.4590   20.2680 N   0  0  0  0  0  0  0  0  0  0  0  0
  -25.1080  -16.1430   20.3250 H   0  0  0  0  0  0  0  0  0  0  0  0
  -26.7500  -15.8700   20.0340 H   0  0  0  0  0  0  0  0  0  0  0  0
  -30.7070  -17.3950   23.0370 C   0  0  0  0  0  1  0  0  0  0  0  0
  -29.8130  -16.4550   22.1980 C   0  0  0  0  0  2  0  0  0  0  0  0
  -26.7920  -20.5660   19.2080 C   0  0  0  0  0  2  0  0  0  0  0  0
  -25.1090  -21.2070   17.4020 C   0  0  0  0  0  1  0  0  0  0  0  0
  -26.4400  -20.5090   17.7120 C   0  0  0  0  0  2  0  0  0  0  0  0
  -28.9950  -22.3280   20.6090 C   0  0  0  0  0  3  0  0  0  0  0  0
  -28.6770  -23.6420   19.6900 C   0  0  0  0  0  3  0  0  0  0  0  0
  -28.2210  -25.0330   20.4230 C   0  0  0  0  0  2  0  0  0  0  0  0
  -28.3110  -26.4240   19.8450 O   0  0  0  0  0  0  0  0  0  0  0  0
  -24.6700  -31.7400   23.2590 C   0  0  0  0  0  0  0  0  0  0  0  0
  -27.2130  -27.3110   19.9210 C   0  0  0  0  0  0  0  0  0  0  0  0
  -23.4520  -30.4790   21.5210 C   0  0  0  0  0  3  0  0  0  0  0  0
  -24.8840  -28.9930   20.0040 C   0  0  0  0  0  0  0  0  0  0  0  0
  -26.0030  -30.7540   21.3720 C   0  0  0  0  0  2  0  0  0  0  0  0
  -26.0610  -29.4160   20.6340 C   0  0  0  0  0  0  0  0  0  0  0  0
  -27.2340  -28.5930   20.5700 C   0  0  0  0  0  3  0  0  0  0  0  0
  -26.0140  -26.9490   19.2780 C   0  0  0  0  0  3  0  0  0  0  0  0
  -24.8660  -27.7680   19.3130 C   0  0  0  0  0  3  0  0  0  0  0  0
  -23.6650  -29.8910   20.1010 C   0  0  0  0  0  2  0  0  0  0  0  0
  -24.7270  -31.0080   22.1070 N   0  0  0  0  0  0  0  0  0  0  0  0
  -23.5880  -31.9990   23.8070 O   0  0  0  0  0  0  0  0  0  0  0  0
  -22.7650  -29.4150   22.4100 C   0  0  0  0  0  0  0  0  0  0  0  0
  -21.4340  -29.2820   22.2800 N   0  0  0  0  0  0  0  0  0  0  0  0
  -23.4300  -28.7130   23.1750 O   0  0  0  0  0  0  0  0  0  0  0  0
  -20.9580  -29.9010   21.6400 H   0  0  0  0  0  0  0  0  0  0  0  0
  -18.0260  -28.1400   22.7200 C   0  0  0  0  0  0  0  0  0  0  0  0
  -20.5940  -28.3100   22.9830 C   0  0  0  0  0  3  0  0  0  0  0  0
  -20.6520  -26.9250   22.2990 C   0  0  0  0  0  2  0  0  0  0  0  0
  -19.5340  -26.7130   21.2730 C   0  0  0  0  0  2  0  0  0  0  0  0
  -18.1620  -26.8430   21.9400 C   0  0  0  0  0  2  0  0  0  0  0  0
  -19.1690  -28.8360   23.1960 C   0  0  0  0  0  0  0  0  0  0  0  0
  -18.9880  -30.0540   23.8880 C   0  0  0  0  0  3  0  0  0  0  0  0
  -17.6990  -30.5730   24.1090 C   0  0  0  0  0  3  0  0  0  0  0  0
  -16.5710  -29.8720   23.6460 C   0  0  0  0  0  3  0  0  0  0  0  0
  -16.7360  -28.6580   22.9560 C   0  0  0  0  0  3  0  0  0  0  0  0
  -25.9580  -32.3090   23.9310 C   0  0  0  0  0  3  0  0  0  0  0  0
  -25.6730  -33.6910   24.3440 N   0  0  0  0  0  0  0  0  0  0  0  0
  -26.0590  -34.7840   23.6710 C   0  0  0  0  0  0  0  0  0  0  0  0
  -26.7600  -34.7290   22.6550 O   0  0  0  0  0  0  0  0  0  0  0  0
  -25.0550  -33.8100   25.1330 H   0  0  0  0  0  0  0  0  0  0  0  0
  -24.3890  -36.6450   23.3910 C   0  0  0  0  0  1  0  0  0  0  0  0
  -25.5950  -36.1530   24.2070 C   0  0  0  0  0  3  0  0  0  0  0  0
  -27.7300  -36.9190   25.1470 C   0  0  0  0  0  1  0  0  0  0  0  0
  -26.6570  -37.1820   24.1920 N   0  0  0  0  0  0  0  0  0  0  0  0
  -26.2710  -38.1000   24.3920 H   0  0  0  0  0  0  0  0  0  0  0  0
  -26.4460  -31.4530   25.1640 C   0  0  1  0  0  0  0  0  0  0  0  0
  -25.3410  -31.1790   26.2100 C   0  0  0  0  0  1  0  0  0  0  0  0
  -26.9980  -30.0840   24.7010 C   0  0  0  0  0  1  0  0  0  0  0  0
  -27.6110  -32.1790   25.8780 C   0  0  0  0  0  1  0  0  0  0  0  0
  1  6  1  0
  1  4  1  0
  2 46  1  0
  2  5  1  0
  3  2  1  0
  3  1  2  0
  5  4  1  0
  5 49  1  0
  6 15  1  0
  7 15  1  0
  8 13  1  0
  9 10  1  0
  9  8  1  0
 11 10  1  0
 11 19  1  0
 11 12  1  0
 13  7  1  0
 13 12  1  0
 14  7  2  0
 15 45  1  0
 16 17  2  0
 17 18  1  0
 17 36  1  0
 18 21  1  0
 19 16  1  0
 19 20  1  0
 20 18  2  0
 21 22  1  0
 22 23  2  0
 24 27  1  0
 24 23  1  0
 25 24  2  0
 26 25  1  0
 26 21  2  0
 27 28  1  0
 28 29  1  0
 29 30  2  0
 31 30  1  0
 31 35  1  0
 32 31  2  0
 33 28  2  0
 33 32  1  0
 34 33  1  0
 36 37  1  0
 37 40  1  0
 37 39  1  0
 38 36  2  0
 41 42  1  0
 41 16  1  0
 43 41  1  0
 45 44  1  0
 47 48  1  0
 48 46  1  0
 50 51  1  0
 50 49  2  0
 52 54  1  0
 52 51  1  0
 53 64  2  0
 54 59  1  0
 55 63  1  0
 55 65  1  0
 56 62  1  0
 56 58  1  0
 57 63  1  0
 58 57  1  0
 59 58  2  0
 60 61  1  0
 60 54  2  0
 61 56  2  0
 62 55  1  0
 63 53  1  0
 65 67  2  0
 66 65  1  0
 68 66  1  0
 69 78  2  0
 69 74  1  0
 70 66  1  0
 70 74  1  0
 71 70  1  0
 72 73  1  0
 72 71  1  0
 73 69  1  0
 74 75  2  0
 75 76  1  0
 77 76  2  0
 78 77  1  0
 79 53  1  0
 79 80  1  0
 79 89  1  0
 80 83  1  0
 81 85  1  0
 81 80  1  0
 82 81  2  0
 85 84  1  0
 87 85  1  0
 87 88  1  0
 87 86  1  0
 89 92  1  1
 89 90  1  0
 91 89  1  0
M  ISO  4   7 100  15 100  51 101  52 101
M  END
>  <TORSDO>  (42) 
F 23

>  <SCORE>  (42) 
-11.728

>  <name>  (42) 
43

>  <ligand_id>  (42) 
43

>  <original_smiles>  (42) 
[H]c1c([H])c([H])c2c(c1[H])C([H])([H])C([H])([H])C([H])([H])C2([H])N([H])C(=O)C1([H])N(C(=O)C([H])(N([H])C(=O)C([H])(N([H])C([H])([H])[H])C([H])([H])[H])C(C([H])([H])[H])(C([H])([H])[H])C([H])([H])[H])C([H])([H])c2c([H])c(OC([H])([H])C([H])([H])C([H])([H])n3nc(C([H])([H])N(C(=O)N4C([H])([H])C([H])([H])C([H])([H])C([H])(n5nc(-c6c([H])c([H])c(Oc7c([H])c([H])c(F)c([H])c7F)c([H])c6[H])c(C(=O)N([H])[H])c5N([H])[H])C4([H])[H])C([H])([H])C([H])([H])[H])nc3C([H])([H])C([H])([H])C([H])([H])[H])c([H])c([H])c2C1([H])[H]

>  <smiles>  (42) 
[H]c1c([H])c([H])c2c(c1[H])C([H])([H])C([H])([H])C([H])([H])C2([H])N([H])C(=O)C1([H])N(C(=O)C([H])(N([H])C(=O)C([H])(N([H])C([H])([H])[H])C([H])([H])[H])C(C([H])([H])[H])(C([H])([H])[H])C([H])([H])[H])C([H])([H])c2c([H])c(OC([H])([H])C([H])([H])C([H])([H])n3nc(C([H])([H])N(C(=O)N4C([H])([H])C([H])([H])C([H])([H])C([H])(n5nc(-c6c([H])c([H])c(Oc7c([H])c([H])c(F)c([H])c7F)c([H])c6[H])c(C(=O)N([H])[H])c5N([H])[H])C4([H])[H])C([H])([H])C([H])([H])[H])nc3C([H])([H])C([H])([H])C([H])([H])[H])c([H])c([H])c2C1([H])[H]

$$$$
44:0:0
     RDKit          3D

 92100  0  0  1  0  0  0  0  0999 V2000
  -29.8360  -22.1630   22.6700 C   0  0  0  0  0  3  0  0  0  0  0  0
  -30.1060  -20.9040   23.2210 C   0  0  0  0  0  0  0  0  0  0  0  0
  -29.9140  -22.2940   21.2810 C   0  0  0  0  0  0  0  0  0  0  0  0
  -30.4780  -20.0370   21.1280 C   0  0  0  0  0  0  0  0  0  0  0  0
  -30.0540  -20.6940   24.7200 C   0  0  0  0  0  1  0  0  0  0  0  0
  -30.4160  -19.8460   22.4440 N   0  0  0  0  0  0  0  0  0  0  0  0
  -30.2380  -21.2150   20.5190 N   0  0  0  0  0  0  0  0  0  0  0  0
  -29.7410  -23.6870   20.6360 C   0  0  0  0  0  2  0  0  0  0  0  0
  -28.3210  -24.3530   20.6730 C   0  0  0  0  0  2  0  0  0  0  0  0
  -28.3400  -25.9040   20.9080 C   0  0  0  0  0  2  0  0  0  0  0  0
  -27.9280  -26.7480   19.8130 O   0  0  0  0  0  0  0  0  0  0  0  0
  -24.4970  -31.9510   23.3680 C   0  0  0  0  0  0  0  0  0  0  0  0
  -26.8020  -27.5280   19.9870 C   0  0  0  0  0  0  0  0  0  0  0  0
  -23.1530  -30.6530   21.7490 C   0  0  0  0  0  3  0  0  0  0  0  0
  -24.4680  -29.1210   20.1870 C   0  0  0  0  0  0  0  0  0  0  0  0
  -25.6720  -30.9370   21.4110 C   0  0  0  0  0  2  0  0  0  0  0  0
  -25.6770  -29.5830   20.7260 C   0  0  0  0  0  0  0  0  0  0  0  0
  -26.8490  -28.7940   20.6200 C   0  0  0  0  0  3  0  0  0  0  0  0
  -25.5790  -27.0820   19.4450 C   0  0  0  0  0  3  0  0  0  0  0  0
  -24.4150  -27.8720   19.5440 C   0  0  0  0  0  3  0  0  0  0  0  0
  -23.2610  -30.0220   20.3350 C   0  0  0  0  0  2  0  0  0  0  0  0
  -24.4630  -31.1940   22.2340 N   0  0  0  0  0  0  0  0  0  0  0  0
  -23.4590  -32.2320   23.9820 O   0  0  0  0  0  0  0  0  0  0  0  0
  -22.5250  -29.6150   22.7090 C   0  0  0  0  0  0  0  0  0  0  0  0
  -21.2080  -29.3900   22.5700 N   0  0  0  0  0  0  0  0  0  0  0  0
  -23.2210  -29.0160   23.5330 O   0  0  0  0  0  0  0  0  0  0  0  0
  -20.7050  -29.9310   21.8810 H   0  0  0  0  0  0  0  0  0  0  0  0
  -17.9000  -27.9770   22.9370 C   0  0  0  0  0  0  0  0  0  0  0  0
  -20.4140  -28.4270   23.3360 C   0  0  0  0  0  3  0  0  0  0  0  0
  -20.6480  -26.9860   22.8280 C   0  0  0  0  0  2  0  0  0  0  0  0
  -19.6300  -26.5460   21.7710 C   0  0  0  0  0  2  0  0  0  0  0  0
  -18.2070  -26.6180   22.3320 C   0  0  0  0  0  2  0  0  0  0  0  0
  -18.9370  -28.8330   23.3940 C   0  0  0  0  0  0  0  0  0  0  0  0
  -18.6000  -30.1010   23.9160 C   0  0  0  0  0  3  0  0  0  0  0  0
  -17.2580  -30.5150   23.9880 C   0  0  0  0  0  3  0  0  0  0  0  0
  -16.2330  -29.6580   23.5500 C   0  0  0  0  0  3  0  0  0  0  0  0
  -16.5540  -28.3920   23.0290 C   0  0  0  0  0  3  0  0  0  0  0  0
  -25.8370  -32.5180   23.9320 C   0  0  0  0  0  3  0  0  0  0  0  0
  -25.6020  -33.9190   24.3060 N   0  0  0  0  0  0  0  0  0  0  0  0
  -26.0010  -34.9760   23.5850 C   0  0  0  0  0  0  0  0  0  0  0  0
  -26.6750  -34.8700   22.5560 O   0  0  0  0  0  0  0  0  0  0  0  0
  -25.0080  -34.0810   25.1060 H   0  0  0  0  0  0  0  0  0  0  0  0
  -24.3960  -36.8850   23.2550 C   0  0  0  0  0  1  0  0  0  0  0  0
  -25.5860  -36.3740   24.0840 C   0  0  0  0  0  3  0  0  0  0  0  0
  -27.7430  -37.0950   25.0090 C   0  0  0  0  0  1  0  0  0  0  0  0
  -26.6840  -37.3650   24.0390 N   0  0  0  0  0  0  0  0  0  0  0  0
  -26.3320  -38.3020   24.2080 H   0  0  0  0  0  0  0  0  0  0  0  0
  -26.3910  -31.6980   25.1610 C   0  0  1  0  0  0  0  0  0  0  0  0
  -25.3430  -31.4580   26.2730 C   0  0  0  0  0  1  0  0  0  0  0  0
  -26.9160  -30.3180   24.6990 C   0  0  0  0  0  1  0  0  0  0  0  0
  -27.5930  -32.4410   25.7880 C   0  0  0  0  0  1  0  0  0  0  0  0
  -30.6730  -18.7750   20.2470 C   0  0  0  0  0  3  0  0  0  0  0  0
  -31.7170  -17.6610   20.6690 C   0  0  0  0  0  3  0  0  0  0  0  0
  -32.3490  -15.2610   20.3610 C   0  0  0  0  0  0  0  0  0  0  0  0
  -32.0050  -12.9430   19.5950 C   0  0  0  0  0  2  0  0  0  0  0  0
  -31.1510  -12.9640   18.3100 C   0  0  0  0  0  2  0  0  0  0  0  0
  -29.6500  -12.9370   18.6580 C   0  0  0  0  0  2  0  0  0  0  0  0
  -29.2600  -13.9690   19.7510 C   0  0  0  0  0  3  0  0  0  0  0  0
  -30.2520  -13.9670   20.9350 C   0  0  0  0  0  2  0  0  0  0  0  0
  -31.6040  -14.1170   20.3850 N   0  0  0  0  0  0  0  0  0  0  0  0
  -33.5810  -15.2220   20.2980 O   0  0  0  0  0  0  0  0  0  0  0  0
  -31.7290  -16.3830   19.8510 N   0  0  0  0  0  0  0  0  0  0  0  0
  -26.9080  -14.7770   20.3940 C   0  0  0  0  0  0  0  0  0  0  0  0
  -25.7590  -14.1000   20.6980 C   0  0  0  0  0  0  0  0  0  0  0  0
  -26.0960  -12.7130   20.6610 C   0  0  0  0  0  0  0  0  0  0  0  0
  -27.8760  -13.8050   20.1850 N   0  0  0  0  0  0  0  0  0  0  0  0
  -27.3910  -12.5590   20.4130 N   0  0  0  0  0  0  0  0  0  0  0  0
  -25.2490  -11.5200   20.7900 C   0  0  0  0  0  0  0  0  0  0  0  0
  -25.5110  -10.5310   21.7650 C   0  0  0  0  0  3  0  0  0  0  0  0
  -24.6710   -9.4030   21.8830 C   0  0  0  0  0  3  0  0  0  0  0  0
  -23.5550   -9.2540   21.0250 C   0  0  0  0  0  0  0  0  0  0  0  0
  -23.3120  -10.2290   20.0420 C   0  0  0  0  0  3  0  0  0  0  0  0
  -24.1510  -11.3490   19.9210 C   0  0  0  0  0  3  0  0  0  0  0  0
  -22.7010   -8.1770   21.0510 O   0  0  0  0  0  0  0  0  0  0  0  0
  -22.3920   -7.5300   22.2190 C   0  0  0  0  0  0  0  0  0  0  0  0
  -21.8050   -8.2040   23.3120 C   0  0  0  0  0  3  0  0  0  0  0  0
  -21.4410   -7.4860   24.4700 C   0  0  0  0  0  3  0  0  0  0  0  0
  -21.6530   -6.0960   24.5300 C   0  0  0  0  0  0  0  0  0  0  0  0
  -22.2300   -5.4210   23.4400 C   0  0  0  0  0  3  0  0  0  0  0  0
  -22.5970   -6.1360   22.2880 C   0  0  0  0  0  0  0  0  0  0  0  0
  -23.1330   -5.4790   21.2310 F   0  0  0  0  0  0  0  0  0  0  0  0
  -21.2960   -5.4050   25.6380 F   0  0  0  0  0  0  0  0  0  0  0  0
  -24.4000  -14.6990   20.9130 C   0  0  0  0  0  0  0  0  0  0  0  0
  -23.5720  -14.0700   21.7400 N   0  0  0  0  0  0  0  0  0  0  0  0
  -24.0790  -15.7620   20.3810 O   0  0  0  0  0  0  0  0  0  0  0  0
  -23.8400  -13.2100   22.1950 H   0  0  0  0  0  0  0  0  0  0  0  0
  -22.6560  -14.4560   21.9190 H   0  0  0  0  0  0  0  0  0  0  0  0
  -27.2110  -16.1280   20.2500 N   0  0  0  0  0  0  0  0  0  0  0  0
  -26.5130  -16.8560   20.3450 H   0  0  0  0  0  0  0  0  0  0  0  0
  -28.1200  -16.4800   19.9840 H   0  0  0  0  0  0  0  0  0  0  0  0
  -31.3740  -17.4340   17.3220 C   0  0  0  0  0  1  0  0  0  0  0  0
  -32.0470  -16.5160   18.3900 C   0  0  0  0  0  2  0  0  0  0  0  0
  1  2  2  0
  2  5  1  0
  3  1  1  0
  4  6  2  0
  6  2  1  0
  7  4  1  0
  7  3  2  0
  8  9  1  0
  8  3  1  0
  9 10  1  0
 11 13  1  0
 11 10  1  0
 12 23  2  0
 13 18  1  0
 14 22  1  0
 14 24  1  0
 15 21  1  0
 15 17  1  0
 16 22  1  0
 17 16  1  0
 18 17  2  0
 19 20  1  0
 19 13  2  0
 20 15  2  0
 21 14  1  0
 22 12  1  0
 24 26  2  0
 25 24  1  0
 27 25  1  0
 28 37  2  0
 28 33  1  0
 29 25  1  0
 29 33  1  0
 30 29  1  0
 31 32  1  0
 31 30  1  0
 32 28  1  0
 33 34  2  0
 34 35  1  0
 36 35  2  0
 37 36  1  0
 38 12  1  0
 38 39  1  0
 38 48  1  0
 39 42  1  0
 40 44  1  0
 40 39  1  0
 41 40  2  0
 44 43  1  0
 46 44  1  0
 46 47  1  0
 46 45  1  0
 48 51  1  1
 48 49  1  0
 50 48  1  0
 52 53  2  0
 52  4  1  0
 54 60  1  0
 55 60  1  0
 56 57  1  0
 56 55  1  0
 58 57  1  0
 58 66  1  0
 58 59  1  0
 60 59  1  0
 61 54  2  0
 62 54  1  0
 62 53  1  0
 63 64  2  0
 64 83  1  0
 65 64  1  0
 65 68  1  0
 66 63  1  0
 66 67  1  0
 67 65  2  0
 68 69  1  0
 69 70  2  0
 71 74  1  0
 71 70  1  0
 72 71  2  0
 73 72  1  0
 73 68  2  0
 74 75  1  0
 75 80  2  0
 75 76  1  0
 76 77  2  0
 77 78  1  0
 78 82  1  0
 79 78  2  0
 80 79  1  0
 81 80  1  0
 83 84  1  0
 84 87  1  0
 84 86  1  0
 85 83  2  0
 88 89  1  0
 88 63  1  0
 90 88  1  0
 91 92  1  0
 92 62  1  0
M  ISO  4  10 101  11 101  54 100  62 100
M  END
>  <TORSDO>  (43) 
F 22

>  <SCORE>  (43) 
-10.063

>  <name>  (43) 
44

>  <ligand_id>  (43) 
44

>  <original_smiles>  (43) 
[H]c1c(C([H])([H])[H])nc(C([H])([H])C([H])([H])N(C(=O)N2C([H])([H])C([H])([H])C([H])([H])C([H])(n3nc(-c4c([H])c([H])c(Oc5c([H])c([H])c(F)c([H])c5F)c([H])c4[H])c(C(=O)N([H])[H])c3N([H])[H])C2([H])[H])C([H])([H])C([H])([H])[H])nc1C([H])([H])C([H])([H])C([H])([H])Oc1c([H])c([H])c2c(c1[H])C([H])([H])N(C(=O)C([H])(N([H])C(=O)C([H])(N([H])C([H])([H])[H])C([H])([H])[H])C(C([H])([H])[H])(C([H])([H])[H])C([H])([H])[H])C([H])(C(=O)N([H])C1([H])c3c([H])c([H])c([H])c([H])c3C([H])([H])C([H])([H])C1([H])[H])C2([H])[H]

>  <smiles>  (43) 
[H]c1c(C([H])([H])[H])nc(C([H])([H])C([H])([H])N(C(=O)N2C([H])([H])C([H])([H])C([H])([H])C([H])(n3nc(-c4c([H])c([H])c(Oc5c([H])c([H])c(F)c([H])c5F)c([H])c4[H])c(C(=O)N([H])[H])c3N([H])[H])C2([H])[H])C([H])([H])C([H])([H])[H])nc1C([H])([H])C([H])([H])C([H])([H])Oc1c([H])c([H])c2c(c1[H])C([H])([H])N(C(=O)C([H])(N([H])C(=O)C([H])(N([H])C([H])([H])[H])C([H])([H])[H])C(C([H])([H])[H])(C([H])([H])[H])C([H])([H])[H])C([H])(C(=O)N([H])C1([H])c3c([H])c([H])c([H])c([H])c3C([H])([H])C([H])([H])C1([H])[H])C2([H])[H]

$$$$
45:0:0
     RDKit          3D

 95103  0  0  1  0  0  0  0  0999 V2000
  -31.0370  -19.7270   20.1570 C   0  0  0  0  0  3  0  0  0  0  0  0
  -30.3190  -18.7240   19.4540 C   0  0  0  0  0  0  0  0  0  0  0  0
  -30.5850  -21.0770   20.2360 C   0  0  0  0  0  0  0  0  0  0  0  0
  -29.1050  -19.1730   18.8740 C   0  0  0  0  0  0  0  0  0  0  0  0
  -29.3740  -21.4370   19.5750 C   0  0  0  0  0  0  0  0  0  0  0  0
  -28.6710  -20.4650   18.9410 N   0  0  0  0  0  0  0  0  0  0  0  0
  -28.4660  -18.3630   16.5540 C   0  0  0  0  0  1  0  0  0  0  0  0
  -28.2150  -18.2450   18.0620 C   0  0  0  0  0  2  0  0  0  0  0  0
  -30.9570  -22.1680   22.4990 C   0  0  0  0  0  1  0  0  0  0  0  0
  -31.4360  -22.0480   21.0470 C   0  0  0  0  0  2  0  0  0  0  0  0
  -30.9810  -17.3050   19.2090 C   0  0  0  0  0  2  0  0  0  0  0  0
  -31.1880  -14.8210   19.4530 C   0  0  0  0  0  0  0  0  0  0  0  0
  -30.6080  -12.7180   18.2550 C   0  0  0  0  0  2  0  0  0  0  0  0
  -29.4850  -12.9840   17.2300 C   0  0  0  0  0  2  0  0  0  0  0  0
  -28.1000  -12.8410   17.8910 C   0  0  0  0  0  2  0  0  0  0  0  0
  -28.0040  -13.6030   19.2410 C   0  0  0  0  0  3  0  0  0  0  0  0
  -29.2260  -13.2970   20.1320 C   0  0  0  0  0  2  0  0  0  0  0  0
  -30.4280  -13.6740   19.3730 N   0  0  0  0  0  0  0  0  0  0  0  0
  -32.2490  -14.8740   18.8200 O   0  0  0  0  0  0  0  0  0  0  0  0
  -30.6420  -16.0110   19.9320 N   0  0  0  0  0  0  0  0  0  0  0  0
  -25.8280  -14.2240   20.4540 C   0  0  0  0  0  0  0  0  0  0  0  0
  -24.7870  -13.4650   20.9150 C   0  0  0  0  0  0  0  0  0  0  0  0
  -25.1320  -12.1080   20.6340 C   0  0  0  0  0  0  0  0  0  0  0  0
  -26.7450  -13.3290   19.9260 N   0  0  0  0  0  0  0  0  0  0  0  0
  -26.3410  -12.0420   20.0910 N   0  0  0  0  0  0  0  0  0  0  0  0
  -24.3550  -10.8720   20.7970 C   0  0  0  0  0  0  0  0  0  0  0  0
  -24.7830   -9.8380   21.6590 C   0  0  0  0  0  3  0  0  0  0  0  0
  -24.0090   -8.6690   21.8160 C   0  0  0  0  0  3  0  0  0  0  0  0
  -22.7900   -8.5250   21.1100 C   0  0  0  0  0  0  0  0  0  0  0  0
  -22.3800   -9.5460   20.2360 C   0  0  0  0  0  3  0  0  0  0  0  0
  -23.1550  -10.7080   20.0780 C   0  0  0  0  0  3  0  0  0  0  0  0
  -21.9860   -7.4130   21.1810 O   0  0  0  0  0  0  0  0  0  0  0  0
  -21.8150   -6.7200   22.3530 C   0  0  0  0  0  0  0  0  0  0  0  0
  -21.3350   -7.3450   23.5240 C   0  0  0  0  0  3  0  0  0  0  0  0
  -21.1080   -6.5810   24.6860 C   0  0  0  0  0  3  0  0  0  0  0  0
  -21.3490   -5.1930   24.6770 C   0  0  0  0  0  0  0  0  0  0  0  0
  -21.8210   -4.5680   23.5090 C   0  0  0  0  0  3  0  0  0  0  0  0
  -22.0500   -5.3300   22.3490 C   0  0  0  0  0  0  0  0  0  0  0  0
  -22.4850   -4.7190   21.2210 F   0  0  0  0  0  0  0  0  0  0  0  0
  -21.1230   -4.4580   25.7900 F   0  0  0  0  0  0  0  0  0  0  0  0
  -23.5000  -13.9750   21.4950 C   0  0  0  0  0  0  0  0  0  0  0  0
  -22.9090  -13.2300   22.4220 N   0  0  0  0  0  0  0  0  0  0  0  0
  -23.0350  -15.0650   21.1620 O   0  0  0  0  0  0  0  0  0  0  0  0
  -23.3060  -12.3470   22.7090 H   0  0  0  0  0  0  0  0  0  0  0  0
  -22.0530  -13.5470   22.8530 H   0  0  0  0  0  0  0  0  0  0  0  0
  -26.0630  -15.5950   20.4170 N   0  0  0  0  0  0  0  0  0  0  0  0
  -25.3790  -16.2700   20.7360 H   0  0  0  0  0  0  0  0  0  0  0  0
  -26.8690  -16.0180   19.9780 H   0  0  0  0  0  0  0  0  0  0  0  0
  -30.1430  -16.1790   21.3120 C   0  0  0  0  0  2  0  0  0  0  0  0
  -30.8380  -16.8620   23.6680 C   0  0  0  0  0  1  0  0  0  0  0  0
  -31.2370  -16.1010   22.4010 C   0  0  0  0  0  2  0  0  0  0  0  0
  -28.7220  -22.6850   19.4850 O   0  0  0  0  0  0  0  0  0  0  0  0
  -29.3080  -24.0190   19.6130 C   0  0  0  0  0  2  0  0  0  0  0  0
  -28.2510  -25.1370   19.2340 C   0  0  0  0  0  2  0  0  0  0  0  0
  -28.4260  -26.5650   19.5840 O   0  0  0  0  0  0  0  0  0  0  0  0
  -24.4850  -31.5280   23.0590 C   0  0  0  0  0  0  0  0  0  0  0  0
  -27.2630  -27.3570   19.6180 C   0  0  0  0  0  0  0  0  0  0  0  0
  -23.3200  -30.1860   21.3470 C   0  0  0  0  0  3  0  0  0  0  0  0
  -24.8150  -28.8290   19.7830 C   0  0  0  0  0  0  0  0  0  0  0  0
  -25.8350  -30.6560   21.1380 C   0  0  0  0  0  2  0  0  0  0  0  0
  -25.9720  -29.3360   20.3900 C   0  0  0  0  0  0  0  0  0  0  0  0
  -27.1990  -28.6100   20.3020 C   0  0  0  0  0  3  0  0  0  0  0  0
  -26.0750  -26.9100   18.9890 C   0  0  0  0  0  3  0  0  0  0  0  0
  -24.8680  -27.6210   19.0780 C   0  0  0  0  0  3  0  0  0  0  0  0
  -23.5360  -29.6280   19.9180 C   0  0  0  0  0  2  0  0  0  0  0  0
  -24.5660  -30.8030   21.9050 N   0  0  0  0  0  0  0  0  0  0  0  0
  -23.4010  -31.7090   23.6310 O   0  0  0  0  0  0  0  0  0  0  0  0
  -22.7360  -29.0680   22.2400 C   0  0  0  0  0  0  0  0  0  0  0  0
  -21.4250  -28.8050   22.1010 N   0  0  0  0  0  0  0  0  0  0  0  0
  -23.4590  -28.4420   23.0190 O   0  0  0  0  0  0  0  0  0  0  0  0
  -20.8970  -29.3660   21.4470 H   0  0  0  0  0  0  0  0  0  0  0  0
  -18.1390  -27.3540   22.5280 C   0  0  0  0  0  0  0  0  0  0  0  0
  -20.6750  -27.7690   22.8130 C   0  0  0  0  0  3  0  0  0  0  0  0
  -20.8720  -26.3860   22.1520 C   0  0  0  0  0  2  0  0  0  0  0  0
  -19.7910  -26.0510   21.1200 C   0  0  0  0  0  2  0  0  0  0  0  0
  -18.4040  -26.0630   21.7720 C   0  0  0  0  0  2  0  0  0  0  0  0
  -19.2050  -28.1630   23.0030 C   0  0  0  0  0  0  0  0  0  0  0  0
  -18.9050  -29.3700   23.6710 C   0  0  0  0  0  3  0  0  0  0  0  0
  -17.5700  -29.7710   23.8660 C   0  0  0  0  0  3  0  0  0  0  0  0
  -16.5180  -28.9600   23.4070 C   0  0  0  0  0  3  0  0  0  0  0  0
  -16.8030  -27.7520   22.7450 C   0  0  0  0  0  3  0  0  0  0  0  0
  -25.7470  -32.1830   23.6990 C   0  0  0  0  0  3  0  0  0  0  0  0
  -25.3760  -33.5420   24.1190 N   0  0  0  0  0  0  0  0  0  0  0  0
  -25.6250  -34.6520   23.4100 C   0  0  0  0  0  0  0  0  0  0  0  0
  -26.2630  -34.6410   22.3540 O   0  0  0  0  0  0  0  0  0  0  0  0
  -24.7990  -33.6190   24.9440 H   0  0  0  0  0  0  0  0  0  0  0  0
  -23.7760  -36.3490   23.2370 C   0  0  0  0  0  1  0  0  0  0  0  0
  -25.0810  -35.9840   23.9610 C   0  0  0  0  0  3  0  0  0  0  0  0
  -27.2010  -36.9590   24.7260 C   0  0  0  0  0  1  0  0  0  0  0  0
  -26.0420  -37.1040   23.8500 N   0  0  0  0  0  0  0  0  0  0  0  0
  -25.5900  -37.9880   24.0670 H   0  0  0  0  0  0  0  0  0  0  0  0
  -26.3200  -31.3620   24.9190 C   0  0  1  0  0  0  0  0  0  0  0  0
  -25.2500  -30.9780   25.9680 C   0  0  0  0  0  1  0  0  0  0  0  0
  -26.9910  -30.0570   24.4330 C   0  0  0  0  0  1  0  0  0  0  0  0
  -27.4180  -32.1840   25.6330 C   0  0  0  0  0  1  0  0  0  0  0  0
  1  3  2  0
  2  1  1  0
  3 10  1  0
  4  6  1  0
  4  2  2  0
  5  3  1  0
  6  5  2  0
  7  8  1  0
  8  4  1  0
 10  9  1  0
 11  2  1  0
 11 20  1  0
 12 20  1  0
 13 18  1  0
 14 15  1  0
 14 13  1  0
 16 15  1  0
 16 24  1  0
 16 17  1  0
 18 12  1  0
 18 17  1  0
 19 12  2  0
 20 49  1  0
 21 22  2  0
 22 41  1  0
 23 26  1  0
 23 22  1  0
 24 25  1  0
 24 21  1  0
 25 23  2  0
 26 27  1  0
 27 28  2  0
 29 32  1  0
 29 28  1  0
 30 29  2  0
 31 30  1  0
 31 26  2  0
 32 33  1  0
 33 34  1  0
 34 35  2  0
 36 35  1  0
 36 40  1  0
 37 36  2  0
 38 33  2  0
 38 37  1  0
 39 38  1  0
 41 42  1  0
 42 44  1  0
 42 45  1  0
 43 41  2  0
 46 21  1  0
 46 47  1  0
 48 46  1  0
 49 51  1  0
 51 50  1  0
 52  5  1  0
 52 53  1  0
 54 55  1  0
 54 53  1  0
 55 57  1  0
 56 67  2  0
 57 62  1  0
 58 66  1  0
 58 68  1  0
 59 65  1  0
 59 61  1  0
 60 66  1  0
 61 60  1  0
 62 61  2  0
 63 64  1  0
 63 57  2  0
 64 59  2  0
 65 58  1  0
 66 56  1  0
 68 70  2  0
 69 68  1  0
 71 69  1  0
 72 81  2  0
 72 77  1  0
 73 69  1  0
 73 77  1  0
 74 73  1  0
 75 76  1  0
 75 74  1  0
 76 72  1  0
 77 78  2  0
 78 79  1  0
 80 79  2  0
 81 80  1  0
 82 56  1  0
 82 83  1  0
 82 92  1  0
 83 86  1  0
 84 88  1  0
 84 83  1  0
 85 84  2  0
 88 87  1  0
 90 88  1  0
 90 91  1  0
 90 89  1  0
 92 95  1  1
 92 93  1  0
 94 92  1  0
M  ISO  4  12 100  20 100  54 101  55 101
M  END
>  <TORSDO>  (44) 
F 24

>  <SCORE>  (44) 
-8.598

>  <name>  (44) 
45

>  <ligand_id>  (44) 
45

>  <original_smiles>  (44) 
[H]c1c([H])c([H])c2c(c1[H])C([H])([H])C([H])([H])C([H])([H])C2([H])N([H])C(=O)C1([H])N(C(=O)C([H])(N([H])C(=O)C([H])(N([H])C([H])([H])[H])C([H])([H])[H])C(C([H])([H])[H])(C([H])([H])[H])C([H])([H])[H])C([H])([H])c2c([H])c(OC([H])([H])C([H])([H])Oc3nc(C([H])([H])C([H])([H])[H])c(C([H])([H])N(C(=O)N4C([H])([H])C([H])([H])C([H])([H])C([H])(n5nc(-c6c([H])c([H])c(Oc7c([H])c([H])c(F)c([H])c7F)c([H])c6[H])c(C(=O)N([H])[H])c5N([H])[H])C4([H])[H])C([H])([H])C([H])([H])C([H])([H])[H])c([H])c3C([H])([H])C([H])([H])[H])c([H])c([H])c2C1([H])[H]

>  <smiles>  (44) 
[H]c1c([H])c([H])c2c(c1[H])C([H])([H])C([H])([H])C([H])([H])C2([H])N([H])C(=O)C1([H])N(C(=O)C([H])(N([H])C(=O)C([H])(N([H])C([H])([H])[H])C([H])([H])[H])C(C([H])([H])[H])(C([H])([H])[H])C([H])([H])[H])C([H])([H])c2c([H])c(OC([H])([H])C([H])([H])Oc3nc(C([H])([H])C([H])([H])[H])c(C([H])([H])N(C(=O)N4C([H])([H])C([H])([H])C([H])([H])C([H])(n5nc(-c6c([H])c([H])c(Oc7c([H])c([H])c(F)c([H])c7F)c([H])c6[H])c(C(=O)N([H])[H])c5N([H])[H])C4([H])[H])C([H])([H])C([H])([H])C([H])([H])[H])c([H])c3C([H])([H])C([H])([H])[H])c([H])c([H])c2C1([H])[H]

$$$$
46:0:0
     RDKit          3D

 92100  0  0  1  0  0  0  0  0999 V2000
  -29.2130  -20.8730   21.1140 C   0  0  0  0  0  3  0  0  0  0  0  0
  -28.8630  -18.4160   20.0410 C   0  0  0  0  0  3  0  0  0  0  0  0
  -28.2390  -20.6380   20.1070 C   0  0  0  0  0  0  0  0  0  0  0  0
  -29.8220  -18.6360   21.0620 C   0  0  0  0  0  0  0  0  0  0  0  0
  -28.0790  -19.4100   19.5630 N   0  0  0  0  0  0  0  0  0  0  0  0
  -29.9990  -19.8740   21.5940 N   0  0  0  0  0  0  0  0  0  0  0  0
  -27.2680  -21.6970   19.5870 C   0  0  0  0  0  2  0  0  0  0  0  0
  -27.3620  -23.1130   20.1950 C   0  0  0  0  0  2  0  0  0  0  0  0
  -28.3660  -24.0500   19.4810 C   0  0  0  0  0  2  0  0  0  0  0  0
  -28.7450  -25.3430   20.2710 C   0  0  0  0  0  2  0  0  0  0  0  0
  -28.6870  -26.7510   19.9110 O   0  0  0  0  0  0  0  0  0  0  0  0
  -24.6900  -31.5620   23.2620 C   0  0  0  0  0  0  0  0  0  0  0  0
  -27.4910  -27.4460   19.9110 C   0  0  0  0  0  0  0  0  0  0  0  0
  -23.5480  -30.2710   21.4890 C   0  0  0  0  0  3  0  0  0  0  0  0
  -25.0630  -28.8800   19.9790 C   0  0  0  0  0  0  0  0  0  0  0  0
  -26.0670  -30.7040   21.3730 C   0  0  0  0  0  2  0  0  0  0  0  0
  -26.1960  -29.3900   20.6270 C   0  0  0  0  0  0  0  0  0  0  0  0
  -27.4140  -28.6810   20.5850 C   0  0  0  0  0  3  0  0  0  0  0  0
  -26.3450  -26.9440   19.2560 C   0  0  0  0  0  3  0  0  0  0  0  0
  -25.1320  -27.6580   19.2900 C   0  0  0  0  0  3  0  0  0  0  0  0
  -23.7980  -29.7040   20.0640 C   0  0  0  0  0  2  0  0  0  0  0  0
  -24.7840  -30.8530   22.1020 N   0  0  0  0  0  0  0  0  0  0  0  0
  -23.5910  -31.7700   23.7970 O   0  0  0  0  0  0  0  0  0  0  0  0
  -22.8980  -29.1660   22.3510 C   0  0  0  0  0  0  0  0  0  0  0  0
  -21.5820  -28.9650   22.1710 N   0  0  0  0  0  0  0  0  0  0  0  0
  -23.5750  -28.4980   23.1360 O   0  0  0  0  0  0  0  0  0  0  0  0
  -21.0960  -29.5620   21.5170 H   0  0  0  0  0  0  0  0  0  0  0  0
  -18.2290  -27.6570   22.4640 C   0  0  0  0  0  0  0  0  0  0  0  0
  -20.7670  -27.9520   22.8410 C   0  0  0  0  0  3  0  0  0  0  0  0
  -20.9270  -26.5710   22.1630 C   0  0  0  0  0  2  0  0  0  0  0  0
  -19.8640  -26.2980   21.0930 C   0  0  0  0  0  2  0  0  0  0  0  0
  -18.4610  -26.3650   21.6990 C   0  0  0  0  0  2  0  0  0  0  0  0
  -19.3120  -28.4080   22.9870 C   0  0  0  0  0  0  0  0  0  0  0  0
  -19.0420  -29.6210   23.6590 C   0  0  0  0  0  3  0  0  0  0  0  0
  -17.7210  -30.0810   23.8130 C   0  0  0  0  0  3  0  0  0  0  0  0
  -16.6510  -29.3220   23.3090 C   0  0  0  0  0  3  0  0  0  0  0  0
  -16.9050  -28.1110   22.6410 C   0  0  0  0  0  3  0  0  0  0  0  0
  -25.9490  -32.1640   23.9590 C   0  0  0  0  0  3  0  0  0  0  0  0
  -25.6190  -33.5400   24.3580 N   0  0  0  0  0  0  0  0  0  0  0  0
  -25.9750  -34.6360   23.6750 C   0  0  0  0  0  0  0  0  0  0  0  0
  -26.6880  -34.5950   22.6690 O   0  0  0  0  0  0  0  0  0  0  0  0
  -24.9920  -33.6420   25.1420 H   0  0  0  0  0  0  0  0  0  0  0  0
  -24.2510  -36.4370   23.3530 C   0  0  0  0  0  1  0  0  0  0  0  0
  -25.4580  -35.9930   24.1930 C   0  0  0  0  0  3  0  0  0  0  0  0
  -27.5490  -36.8380   25.1620 C   0  0  0  0  0  1  0  0  0  0  0  0
  -26.4870  -37.0540   24.1830 N   0  0  0  0  0  0  0  0  0  0  0  0
  -26.0700  -37.9630   24.3630 H   0  0  0  0  0  0  0  0  0  0  0  0
  -26.4330  -31.3250   25.2050 C   0  0  1  0  0  0  0  0  0  0  0  0
  -25.3050  -31.0040   26.2150 C   0  0  0  0  0  1  0  0  0  0  0  0
  -27.0540  -29.9840   24.7500 C   0  0  0  0  0  1  0  0  0  0  0  0
  -27.5410  -32.0950   25.9620 C   0  0  0  0  0  1  0  0  0  0  0  0
  -30.6510  -17.5010   21.6700 C   0  0  0  0  0  2  0  0  0  0  0  0
  -30.4100  -16.0500   21.1490 C   0  0  0  0  0  2  0  0  0  0  0  0
  -31.7830  -14.3610   19.8700 C   0  0  0  0  0  0  0  0  0  0  0  0
  -31.2560  -12.1390   18.9340 C   0  0  0  0  0  2  0  0  0  0  0  0
  -30.2850  -12.2680   17.7410 C   0  0  0  0  0  2  0  0  0  0  0  0
  -28.8230  -12.2740   18.2250 C   0  0  0  0  0  2  0  0  0  0  0  0
  -28.5860  -13.2660   19.3960 C   0  0  0  0  0  3  0  0  0  0  0  0
  -29.6610  -13.0650   20.4880 C   0  0  0  0  0  2  0  0  0  0  0  0
  -30.9780  -13.2550   19.8590 N   0  0  0  0  0  0  0  0  0  0  0  0
  -32.9200  -14.3070   19.3930 O   0  0  0  0  0  0  0  0  0  0  0  0
  -31.1880  -15.5890   19.9730 N   0  0  0  0  0  0  0  0  0  0  0  0
  -26.3070  -14.1270   20.2130 C   0  0  0  0  0  0  0  0  0  0  0  0
  -25.1780  -13.4750   20.6260 C   0  0  0  0  0  0  0  0  0  0  0  0
  -25.4860  -12.0820   20.5700 C   0  0  0  0  0  0  0  0  0  0  0  0
  -27.2360  -13.1380   19.9340 N   0  0  0  0  0  0  0  0  0  0  0  0
  -26.7480  -11.9010   20.2070 N   0  0  0  0  0  0  0  0  0  0  0  0
  -24.6330  -10.9060   20.7860 C   0  0  0  0  0  0  0  0  0  0  0  0
  -24.9650   -9.9230   21.7450 C   0  0  0  0  0  3  0  0  0  0  0  0
  -24.1210   -8.8100   21.9490 C   0  0  0  0  0  3  0  0  0  0  0  0
  -22.9330   -8.6720   21.1950 C   0  0  0  0  0  0  0  0  0  0  0  0
  -22.6190   -9.6420   20.2260 C   0  0  0  0  0  3  0  0  0  0  0  0
  -23.4610  -10.7470   20.0190 C   0  0  0  0  0  3  0  0  0  0  0  0
  -22.0650   -7.6130   21.3080 O   0  0  0  0  0  0  0  0  0  0  0  0
  -21.8840   -6.9510   22.4950 C   0  0  0  0  0  0  0  0  0  0  0  0
  -21.4610   -7.6220   23.6640 C   0  0  0  0  0  3  0  0  0  0  0  0
  -21.2190   -6.8930   24.8450 C   0  0  0  0  0  3  0  0  0  0  0  0
  -21.3910   -5.4960   24.8600 C   0  0  0  0  0  0  0  0  0  0  0  0
  -21.8100   -4.8260   23.6970 C   0  0  0  0  0  3  0  0  0  0  0  0
  -22.0530   -5.5520   22.5190 C   0  0  0  0  0  0  0  0  0  0  0  0
  -22.4330   -4.8970   21.3940 F   0  0  0  0  0  0  0  0  0  0  0  0
  -21.1510   -4.7960   25.9940 F   0  0  0  0  0  0  0  0  0  0  0  0
  -23.8550  -14.1020   20.9600 C   0  0  0  0  0  0  0  0  0  0  0  0
  -23.1090  -13.4990   21.8800 N   0  0  0  0  0  0  0  0  0  0  0  0
  -23.4990  -15.1610   20.4430 O   0  0  0  0  0  0  0  0  0  0  0  0
  -23.4170  -12.6460   22.3240 H   0  0  0  0  0  0  0  0  0  0  0  0
  -22.2180  -13.8930   22.1410 H   0  0  0  0  0  0  0  0  0  0  0  0
  -26.6130  -15.4720   20.0320 N   0  0  0  0  0  0  0  0  0  0  0  0
  -25.9140  -16.1960   20.1520 H   0  0  0  0  0  0  0  0  0  0  0  0
  -27.4700  -15.8070   19.6170 H   0  0  0  0  0  0  0  0  0  0  0  0
  -32.8250  -17.3660   19.1520 C   0  0  0  0  0  1  0  0  0  0  0  0
  -31.5030  -16.5940   18.9340 C   0  0  0  0  0  2  0  0  0  0  0  0
  1  6  1  0
  2  4  1  0
  3  1  2  0
  4  6  2  0
  4 52  1  0
  5  2  2  0
  5  3  1  0
  7  3  1  0
  7  8  1  0
  9  8  1  0
  9 10  1  0
 11 10  1  0
 12 23  2  0
 13 11  1  0
 13 18  1  0
 14 22  1  0
 14 24  1  0
 15 21  1  0
 15 17  1  0
 16 22  1  0
 17 16  1  0
 18 17  2  0
 19 20  1  0
 19 13  2  0
 20 15  2  0
 21 14  1  0
 22 12  1  0
 24 26  2  0
 25 24  1  0
 27 25  1  0
 28 37  2  0
 28 33  1  0
 29 25  1  0
 29 33  1  0
 30 29  1  0
 31 32  1  0
 31 30  1  0
 32 28  1  0
 33 34  2  0
 34 35  1  0
 36 35  2  0
 37 36  1  0
 38 12  1  0
 38 39  1  0
 38 48  1  0
 39 42  1  0
 40 44  1  0
 40 39  1  0
 41 40  2  0
 44 43  1  0
 46 44  1  0
 46 47  1  0
 46 45  1  0
 48 51  1  1
 48 49  1  0
 50 48  1  0
 53 52  1  0
 54 62  1  0
 55 60  1  0
 56 57  1  0
 56 55  1  0
 58 57  1  0
 58 66  1  0
 58 59  1  0
 60 54  1  0
 60 59  1  0
 61 54  2  0
 62 53  1  0
 63 64  2  0
 64 83  1  0
 65 64  1  0
 65 68  1  0
 66 67  1  0
 66 63  1  0
 67 65  2  0
 68 69  1  0
 69 70  2  0
 71 74  1  0
 71 70  1  0
 72 71  2  0
 73 72  1  0
 73 68  2  0
 74 75  1  0
 75 80  2  0
 75 76  1  0
 76 77  2  0
 77 78  1  0
 78 82  1  0
 79 78  2  0
 80 79  1  0
 81 80  1  0
 83 84  1  0
 84 87  1  0
 84 86  1  0
 85 83  2  0
 88 89  1  0
 88 63  1  0
 90 88  1  0
 92 91  1  0
 92 62  1  0
M  ISO  4  10 101  11 101  54 100  62 100
M  END
>  <TORSDO>  (45) 
F 23

>  <SCORE>  (45) 
-11.496

>  <name>  (45) 
46

>  <ligand_id>  (45) 
46

>  <original_smiles>  (45) 
[H]c1nc(C([H])([H])C([H])([H])C([H])([H])C([H])([H])Oc2c([H])c([H])c3c(c2[H])C([H])([H])N(C(=O)C([H])(N([H])C(=O)C([H])(N([H])C([H])([H])[H])C([H])([H])[H])C(C([H])([H])[H])(C([H])([H])[H])C([H])([H])[H])C([H])(C(=O)N([H])C2([H])c4c([H])c([H])c([H])c([H])c4C([H])([H])C([H])([H])C2([H])[H])C3([H])[H])c([H])nc1C([H])([H])C([H])([H])N(C(=O)N1C([H])([H])C([H])([H])C([H])([H])C([H])(n2nc(-c3c([H])c([H])c(Oc4c([H])c([H])c(F)c([H])c4F)c([H])c3[H])c(C(=O)N([H])[H])c2N([H])[H])C1([H])[H])C([H])([H])C([H])([H])[H]

>  <smiles>  (45) 
[H]c1nc(C([H])([H])C([H])([H])C([H])([H])C([H])([H])Oc2c([H])c([H])c3c(c2[H])C([H])([H])N(C(=O)C([H])(N([H])C(=O)C([H])(N([H])C([H])([H])[H])C([H])([H])[H])C(C([H])([H])[H])(C([H])([H])[H])C([H])([H])[H])C([H])(C(=O)N([H])C2([H])c4c([H])c([H])c([H])c([H])c4C([H])([H])C([H])([H])C2([H])[H])C3([H])[H])c([H])nc1C([H])([H])C([H])([H])N(C(=O)N1C([H])([H])C([H])([H])C([H])([H])C([H])(n2nc(-c3c([H])c([H])c(Oc4c([H])c([H])c(F)c([H])c4F)c([H])c3[H])c(C(=O)N([H])[H])c2N([H])[H])C1([H])[H])C([H])([H])C([H])([H])[H]

$$$$
47:0:0
     RDKit          3D

 96104  0  0  1  0  0  0  0  0999 V2000
  -30.3800  -21.9660   19.6100 C   0  0  0  0  0  3  0  0  0  0  0  0
  -30.6160  -20.5640   19.6690 C   0  0  0  0  0  3  0  0  0  0  0  0
  -29.6230  -22.6290   20.6140 C   0  0  0  0  0  0  0  0  0  0  0  0
  -30.0820  -19.7970   20.7250 C   0  0  0  0  0  0  0  0  0  0  0  0
  -29.0940  -21.7720   21.6180 C   0  0  0  0  0  0  0  0  0  0  0  0
  -29.3200  -20.4210   21.6640 N   0  0  0  0  0  0  0  0  0  0  0  0
  -29.5950  -24.2120   20.6730 C   0  0  0  0  0  3  0  0  0  0  0  0
  -28.3640  -25.0710   20.1540 C   0  0  0  0  0  3  0  0  0  0  0  0
  -28.5220  -26.5390   20.2280 O   0  0  0  0  0  0  0  0  0  0  0  0
  -24.6710  -31.8270   23.1910 C   0  0  0  0  0  0  0  0  0  0  0  0
  -27.3830  -27.3520   20.1420 C   0  0  0  0  0  0  0  0  0  0  0  0
  -23.5080  -30.4460   21.5030 C   0  0  0  0  0  3  0  0  0  0  0  0
  -24.9990  -28.9240   20.0930 C   0  0  0  0  0  0  0  0  0  0  0  0
  -26.0440  -30.7980   21.3670 C   0  0  0  0  0  2  0  0  0  0  0  0
  -26.1490  -29.4270   20.7130 C   0  0  0  0  0  0  0  0  0  0  0  0
  -27.3450  -28.6530   20.7250 C   0  0  0  0  0  3  0  0  0  0  0  0
  -26.2130  -26.8970   19.4930 C   0  0  0  0  0  3  0  0  0  0  0  0
  -25.0310  -27.6650   19.4740 C   0  0  0  0  0  3  0  0  0  0  0  0
  -23.7580  -29.7920   20.1190 C   0  0  0  0  0  2  0  0  0  0  0  0
  -24.7590  -31.0390   22.0790 N   0  0  0  0  0  0  0  0  0  0  0  0
  -23.5780  -32.0860   23.7130 O   0  0  0  0  0  0  0  0  0  0  0  0
  -22.8380  -29.4080   22.4390 C   0  0  0  0  0  0  0  0  0  0  0  0
  -21.5070  -29.2570   22.3220 N   0  0  0  0  0  0  0  0  0  0  0  0
  -23.5130  -28.7470   23.2300 O   0  0  0  0  0  0  0  0  0  0  0  0
  -21.0170  -29.8410   21.6590 H   0  0  0  0  0  0  0  0  0  0  0  0
  -18.1150  -28.1240   22.8550 C   0  0  0  0  0  0  0  0  0  0  0  0
  -20.6850  -28.3100   23.0770 C   0  0  0  0  0  3  0  0  0  0  0  0
  -20.7370  -26.8970   22.4500 C   0  0  0  0  0  2  0  0  0  0  0  0
  -19.6070  -26.6390   21.4480 C   0  0  0  0  0  2  0  0  0  0  0  0
  -18.2420  -26.7960   22.1260 C   0  0  0  0  0  2  0  0  0  0  0  0
  -19.2610  -28.8400   23.2910 C   0  0  0  0  0  0  0  0  0  0  0  0
  -19.0850  -30.0840   23.9360 C   0  0  0  0  0  3  0  0  0  0  0  0
  -17.7970  -30.6100   24.1460 C   0  0  0  0  0  3  0  0  0  0  0  0
  -16.6660  -29.8920   23.7210 C   0  0  0  0  0  3  0  0  0  0  0  0
  -16.8270  -28.6500   23.0840 C   0  0  0  0  0  3  0  0  0  0  0  0
  -25.9400  -32.4600   23.8410 C   0  0  0  0  0  3  0  0  0  0  0  0
  -25.6150  -33.8530   24.1800 N   0  0  0  0  0  0  0  0  0  0  0  0
  -25.9360  -34.9130   23.4260 C   0  0  0  0  0  0  0  0  0  0  0  0
  -26.6070  -34.8230   22.3940 O   0  0  0  0  0  0  0  0  0  0  0  0
  -25.0170  -33.9970   24.9800 H   0  0  0  0  0  0  0  0  0  0  0  0
  -24.1780  -36.6840   23.0910 C   0  0  0  0  0  1  0  0  0  0  0  0
  -25.4330  -36.2940   23.8890 C   0  0  0  0  0  3  0  0  0  0  0  0
  -27.5660  -37.2120   24.6920 C   0  0  0  0  0  1  0  0  0  0  0  0
  -26.4490  -37.3630   23.7640 N   0  0  0  0  0  0  0  0  0  0  0  0
  -26.0310  -38.2760   23.9180 H   0  0  0  0  0  0  0  0  0  0  0  0
  -26.4420  -31.6780   25.1160 C   0  0  1  0  0  0  0  0  0  0  0  0
  -25.3340  -31.4260   26.1640 C   0  0  0  0  0  1  0  0  0  0  0  0
  -27.0390  -30.3050   24.7220 C   0  0  0  0  0  1  0  0  0  0  0  0
  -27.5790  -32.4700   25.8060 C   0  0  0  0  0  1  0  0  0  0  0  0
  -30.4530  -18.2890   21.0000 C   0  0  0  0  0  2  0  0  0  0  0  0
  -30.2420  -17.1840   19.8890 C   0  0  0  0  0  2  0  0  0  0  0  0
  -30.8590  -14.6640   20.0160 C   0  0  0  0  0  0  0  0  0  0  0  0
  -30.5450  -12.4410   18.9630 C   0  0  0  0  0  2  0  0  0  0  0  0
  -29.5750  -12.6120   17.7720 C   0  0  0  0  0  2  0  0  0  0  0  0
  -28.1110  -12.5030   18.2380 C   0  0  0  0  0  2  0  0  0  0  0  0
  -27.8160  -13.3560   19.5000 C   0  0  0  0  0  3  0  0  0  0  0  0
  -28.9000  -13.1660   20.5860 C   0  0  0  0  0  2  0  0  0  0  0  0
  -30.2050  -13.4620   19.9720 N   0  0  0  0  0  0  0  0  0  0  0  0
  -32.0020  -14.7950   19.5680 O   0  0  0  0  0  0  0  0  0  0  0  0
  -30.1030  -15.7510   20.3500 N   0  0  0  0  0  0  0  0  0  0  0  0
  -29.1960  -15.5080   20.7200 H   0  0  0  0  0  0  0  0  0  0  0  0
  -25.4560  -14.0110   20.2740 C   0  0  0  0  0  0  0  0  0  0  0  0
  -24.3800  -13.2640   20.6720 C   0  0  0  0  0  0  0  0  0  0  0  0
  -24.8100  -11.9020   20.6310 C   0  0  0  0  0  0  0  0  0  0  0  0
  -26.4740  -13.1060   20.0180 N   0  0  0  0  0  0  0  0  0  0  0  0
  -26.0920  -11.8330   20.2920 N   0  0  0  0  0  0  0  0  0  0  0  0
  -24.0620  -10.6560   20.8470 C   0  0  0  0  0  0  0  0  0  0  0  0
  -24.5050   -9.6750   21.7590 C   0  0  0  0  0  3  0  0  0  0  0  0
  -23.7580   -8.4940   21.9610 C   0  0  0  0  0  3  0  0  0  0  0  0
  -22.5520   -8.2880   21.2520 C   0  0  0  0  0  0  0  0  0  0  0  0
  -22.1270   -9.2580   20.3270 C   0  0  0  0  0  3  0  0  0  0  0  0
  -22.8740  -10.4300   20.1230 C   0  0  0  0  0  3  0  0  0  0  0  0
  -21.7730   -7.1630   21.3640 O   0  0  0  0  0  0  0  0  0  0  0  0
  -21.7430   -6.4220   22.5170 C   0  0  0  0  0  0  0  0  0  0  0  0
  -21.3840   -6.9910   23.7590 C   0  0  0  0  0  3  0  0  0  0  0  0
  -21.2960   -6.1780   24.9070 C   0  0  0  0  0  3  0  0  0  0  0  0
  -21.5560   -4.7980   24.8150 C   0  0  0  0  0  0  0  0  0  0  0  0
  -21.9060   -4.2290   23.5770 C   0  0  0  0  0  3  0  0  0  0  0  0
  -21.9950   -5.0380   22.4310 C   0  0  0  0  0  0  0  0  0  0  0  0
  -22.3130   -4.4800   21.2380 F   0  0  0  0  0  0  0  0  0  0  0  0
  -21.4670   -4.0150   25.9150 F   0  0  0  0  0  0  0  0  0  0  0  0
  -23.0020  -13.7720   20.9800 C   0  0  0  0  0  0  0  0  0  0  0  0
  -22.2950  -13.1100   21.8910 N   0  0  0  0  0  0  0  0  0  0  0  0
  -22.5620  -14.7910   20.4500 O   0  0  0  0  0  0  0  0  0  0  0  0
  -22.6680  -12.2880   22.3420 H   0  0  0  0  0  0  0  0  0  0  0  0
  -21.3720  -13.4320   22.1440 H   0  0  0  0  0  0  0  0  0  0  0  0
  -25.6510  -15.3760   20.0870 N   0  0  0  0  0  0  0  0  0  0  0  0
  -24.9000  -16.0510   20.2080 H   0  0  0  0  0  0  0  0  0  0  0  0
  -26.4940  -15.7890   19.7120 H   0  0  0  0  0  0  0  0  0  0  0  0
  -28.2950  -22.2980   22.8030 C   0  0  0  0  0  3  0  0  0  0  0  0
  -29.1370  -22.9130   23.9440 C   0  0  0  0  0  3  0  0  0  0  0  0
  -30.6590  -22.6250   23.9380 C   0  0  0  0  0  2  0  0  0  0  0  0
  -32.4820  -21.0860   23.3870 C   0  0  0  0  0  1  0  0  0  0  0  0
  -30.5260  -20.2290   24.6080 C   0  0  0  0  0  1  0  0  0  0  0  0
  -31.0270  -21.2200   23.6270 N   0  0  1  0  0  4  0  0  0  0  0  0
  -30.5730  -21.0240   22.7360 H   0  0  0  0  0  0  0  0  0  0  0  0
  1  2  2  0
  1  3  1  0
  2  4  1  0
  3  7  1  0
  3  5  2  0
  4 50  1  0
  4  6  2  0
  5  6  1  0
  5 90  1  0
  8  9  1  0
  8  7  2  0
 10 21  2  0
 11  9  1  0
 11 16  1  0
 12 20  1  0
 12 22  1  0
 13 19  1  0
 13 15  1  0
 14 20  1  0
 15 16  2  0
 15 14  1  0
 17 11  2  0
 18 17  1  0
 18 13  2  0
 19 12  1  0
 20 10  1  0
 22 24  2  0
 23 22  1  0
 25 23  1  0
 26 35  2  0
 26 31  1  0
 27 23  1  0
 27 31  1  0
 28 27  1  0
 29 30  1  0
 29 28  1  0
 30 26  1  0
 31 32  2  0
 32 33  1  0
 34 33  2  0
 35 34  1  0
 36 10  1  0
 36 37  1  0
 36 46  1  0
 37 40  1  0
 38 42  1  0
 38 37  1  0
 39 38  2  0
 42 41  1  0
 44 42  1  0
 44 45  1  0
 44 43  1  0
 46 49  1  1
 46 47  1  0
 48 46  1  0
 51 60  1  0
 51 50  1  0
 52 60  1  0
 53 58  1  0
 54 55  1  0
 54 53  1  0
 56 55  1  0
 56 65  1  0
 56 57  1  0
 58 52  1  0
 58 57  1  0
 59 52  2  0
 60 61  1  0
 62 63  2  0
 63 82  1  0
 64 63  1  0
 64 67  1  0
 65 62  1  0
 65 66  1  0
 66 64  2  0
 67 68  1  0
 68 69  2  0
 70 73  1  0
 70 69  1  0
 71 70  2  0
 72 71  1  0
 72 67  2  0
 73 74  1  0
 74 75  1  0
 75 76  2  0
 77 76  1  0
 77 81  1  0
 78 77  2  0
 79 74  2  0
 79 78  1  0
 80 79  1  0
 82 83  1  0
 83 86  1  0
 83 85  1  0
 84 82  2  0
 87 88  1  0
 87 62  1  0
 89 87  1  0
 90 91  2  0
 92 91  1  0
 93 95  1  0
 95 92  1  0
 95 94  1  0
 95 96  1  6
M  ISO  4   8 101   9 101  52 100  60 100
M  END
>  <TORSDO>  (46) 
F 24

>  <SCORE>  (46) 
-10.774

>  <name>  (46) 
47

>  <ligand_id>  (46) 
47

>  <original_smiles>  (46) 
[H]c1c(C([H])([H])C([H])([H])N([H])C(=O)N2C([H])([H])C([H])([H])C([H])([H])C([H])(n3nc(-c4c([H])c([H])c(Oc5c([H])c([H])c(F)c([H])c5F)c([H])c4[H])c(C(=O)N([H])[H])c3N([H])[H])C2([H])[H])nc(C([H])([H])C([H])([H])C([H])([H])[N+]([H])(C([H])([H])[H])C([H])([H])[H])c(C([H])([H])C([H])([H])Oc2c([H])c([H])c3c(c2[H])C([H])([H])N(C(=O)C([H])(N([H])C(=O)C([H])(N([H])C([H])([H])[H])C([H])([H])[H])C(C([H])([H])[H])(C([H])([H])[H])C([H])([H])[H])C([H])(C(=O)N([H])C2([H])c4c([H])c([H])c([H])c([H])c4C([H])([H])C([H])([H])C2([H])[H])C3([H])[H])c1[H]

>  <smiles>  (46) 
[H]c1c(C([H])([H])C([H])([H])N([H])C(=O)N2C([H])([H])C([H])([H])C([H])([H])C([H])(n3nc(-c4c([H])c([H])c(Oc5c([H])c([H])c(F)c([H])c5F)c([H])c4[H])c(C(=O)N([H])[H])c3N([H])[H])C2([H])[H])nc(C([H])([H])C([H])([H])C([H])([H])[N+]([H])(C([H])([H])[H])C([H])([H])[H])c(C([H])([H])C([H])([H])Oc2c([H])c([H])c3c(c2[H])C([H])([H])N(C(=O)C([H])(N([H])C(=O)C([H])(N([H])C([H])([H])[H])C([H])([H])[H])C(C([H])([H])[H])(C([H])([H])[H])C([H])([H])[H])C([H])(C(=O)N([H])C2([H])c4c([H])c([H])c([H])c([H])c4C([H])([H])C([H])([H])C2([H])[H])C3([H])[H])c1[H]

$$$$
48:0:0
     RDKit          3D

 96104  0  0  1  0  0  0  0  0999 V2000
  -30.2720  -22.3800   21.8290 C   0  0  0  0  0  2  0  0  0  0  0  0
  -31.7030  -22.2220   22.3830 C   0  0  0  0  0  2  0  0  0  0  0  0
  -33.5400  -20.6590   22.8290 C   0  0  0  0  0  1  0  0  0  0  0  0
  -32.3880  -20.9730   21.9470 N   0  0  2  0  0  4  0  0  0  0  0  0
  -31.7430  -20.2120   22.1020 H   0  0  0  0  0  0  0  0  0  0  0  0
  -32.7710  -20.9380   20.5060 C   0  0  0  0  0  2  0  0  0  0  0  0
  -31.9600  -19.9150   19.6890 C   0  0  0  0  0  2  0  0  0  0  0  0
  -32.5250  -19.7050   18.2760 C   0  0  0  0  0  2  0  0  0  0  0  0
  -31.7230  -18.7350   17.6120 O   0  0  0  0  0  0  0  0  0  0  0  0
  -34.5680  -21.1900   11.5360 C   0  0  0  0  0  0  0  0  0  0  0  0
  -31.8410  -18.6610   16.2440 C   0  0  0  0  0  0  0  0  0  0  0  0
  -32.6680  -19.6190   11.2980 C   0  0  0  0  0  3  0  0  0  0  0  0
  -31.9570  -18.4160   13.4320 C   0  0  0  0  0  0  0  0  0  0  0  0
  -34.2010  -19.5160   13.3390 C   0  0  0  0  0  2  0  0  0  0  0  0
  -33.0120  -19.0170   14.1290 C   0  0  0  0  0  0  0  0  0  0  0  0
  -32.9600  -19.1480   15.5300 C   0  0  0  0  0  3  0  0  0  0  0  0
  -30.7890  -18.0480   15.5340 C   0  0  0  0  0  3  0  0  0  0  0  0
  -30.8360  -17.9320   14.1310 C   0  0  0  0  0  3  0  0  0  0  0  0
  -32.0960  -18.3200   11.9300 C   0  0  0  0  0  2  0  0  0  0  0  0
  -33.8370  -20.1670   12.0610 N   0  0  0  0  0  0  0  0  0  0  0  0
  -34.3110  -21.6500   10.4150 O   0  0  0  0  0  0  0  0  0  0  0  0
  -31.5150  -20.6340   11.1350 C   0  0  0  0  0  0  0  0  0  0  0  0
  -30.7080  -20.4540   10.0760 N   0  0  0  0  0  0  0  0  0  0  0  0
  -31.3440  -21.5350   11.9600 O   0  0  0  0  0  0  0  0  0  0  0  0
  -30.9210  -19.6960    9.4440 H   0  0  0  0  0  0  0  0  0  0  0  0
  -28.0590  -20.8710    7.6580 C   0  0  0  0  0  0  0  0  0  0  0  0
  -29.5360  -21.2610    9.7430 C   0  0  0  0  0  3  0  0  0  0  0  0
  -28.3060  -20.8240   10.5720 C   0  0  0  0  0  2  0  0  0  0  0  0
  -27.4360  -19.7840    9.8570 C   0  0  0  0  0  2  0  0  0  0  0  0
  -26.9300  -20.3320    8.5200 C   0  0  0  0  0  2  0  0  0  0  0  0
  -29.2890  -21.2910    8.2300 C   0  0  0  0  0  0  0  0  0  0  0  0
  -30.3200  -21.7490    7.3810 C   0  0  0  0  0  3  0  0  0  0  0  0
  -30.1350  -21.7940    5.9860 C   0  0  0  0  0  3  0  0  0  0  0  0
  -28.9100  -21.3920    5.4260 C   0  0  0  0  0  3  0  0  0  0  0  0
  -27.8750  -20.9370    6.2610 C   0  0  0  0  0  3  0  0  0  0  0  0
  -35.7730  -21.8160   12.3080 C   0  0  0  0  0  3  0  0  0  0  0  0
  -35.3920  -23.1240   13.1040 C   0  0  1  0  0  0  0  0  0  0  0  0
  -34.6610  -24.1830   12.2460 C   0  0  0  0  0  1  0  0  0  0  0  0
  -34.4830  -22.7830   14.3080 C   0  0  0  0  0  1  0  0  0  0  0  0
  -36.6700  -23.7760   13.6840 C   0  0  0  0  0  1  0  0  0  0  0  0
  -36.8290  -22.0930   11.3250 N   0  0  0  0  0  0  0  0  0  0  0  0
  -37.8960  -21.3090   11.1160 C   0  0  0  0  0  0  0  0  0  0  0  0
  -38.1290  -20.3020   11.7920 O   0  0  0  0  0  0  0  0  0  0  0  0
  -36.6750  -22.8710   10.7000 H   0  0  0  0  0  0  0  0  0  0  0  0
  -38.5820  -20.8250    8.7480 C   0  0  0  0  0  1  0  0  0  0  0  0
  -38.8550  -21.7050    9.9780 C   0  0  0  0  0  3  0  0  0  0  0  0
  -40.6920  -22.6240   11.3220 C   0  0  0  0  0  1  0  0  0  0  0  0
  -40.2820  -21.6110   10.3530 N   0  0  0  0  0  0  0  0  0  0  0  0
  -40.8770  -21.6980    9.5330 H   0  0  0  0  0  0  0  0  0  0  0  0
  -29.4810  -23.4850   22.5510 C   0  0  0  0  0  2  0  0  0  0  0  0
  -28.6030  -24.3270   21.6100 C   0  0  0  0  0  2  0  0  0  0  0  0
  -27.0970  -26.0860   22.7770 C   0  0  0  0  0  3  0  0  0  0  0  0
  -28.5610  -27.7570   22.9640 C   0  0  0  0  0  3  0  0  0  0  0  0
  -27.2820  -27.4020   23.2930 C   0  0  0  0  0  0  0  0  0  0  0  0
  -28.2640  -25.6610   22.2060 C   0  0  0  0  0  0  0  0  0  0  0  0
  -29.1790  -26.6990   22.3200 N   0  0  0  0  0  0  0  0  0  0  0  0
  -30.6900  -27.1860   20.4230 C   0  0  0  0  0  1  0  0  0  0  0  0
  -30.5630  -26.7020   21.8720 C   0  0  0  0  0  2  0  0  0  0  0  0
  -25.1510  -27.3200   24.6250 C   0  0  0  0  0  1  0  0  0  0  0  0
  -26.2930  -28.2150   24.1090 C   0  0  0  0  0  3  0  0  0  0  0  0
  -25.7340  -29.4210   23.3170 C   0  0  0  0  0  0  0  0  0  0  0  0
  -24.8040  -31.7090   23.3810 C   0  0  0  0  0  2  0  0  0  0  0  0
  -25.6760  -32.7740   22.7000 C   0  0  0  0  0  2  0  0  0  0  0  0
  -26.7280  -33.3200   23.6790 C   0  0  0  0  0  2  0  0  0  0  0  0
  -27.5110  -32.1890   24.3920 C   0  0  0  0  0  3  0  0  0  0  0  0
  -26.5540  -31.1300   24.9810 C   0  0  0  0  0  2  0  0  0  0  0  0
  -25.6720  -30.6450   23.9040 N   0  0  0  0  0  0  0  0  0  0  0  0
  -25.2260  -29.2030   22.2090 O   0  0  0  0  0  0  0  0  0  0  0  0
  -29.7940  -32.7310   25.4550 C   0  0  0  0  0  0  0  0  0  0  0  0
  -30.1360  -33.4250   26.5860 C   0  0  0  0  0  0  0  0  0  0  0  0
  -28.9040  -33.8270   27.1880 C   0  0  0  0  0  0  0  0  0  0  0  0
  -28.4090  -32.7290   25.4140 N   0  0  0  0  0  0  0  0  0  0  0  0
  -27.8770  -33.3520   26.4960 N   0  0  0  0  0  0  0  0  0  0  0  0
  -28.6440  -34.6860   28.3510 C   0  0  0  0  0  0  0  0  0  0  0  0
  -27.9560  -34.2030   29.4860 C   0  0  0  0  0  3  0  0  0  0  0  0
  -27.7330  -35.0430   30.5990 C   0  0  0  0  0  3  0  0  0  0  0  0
  -28.2020  -36.3780   30.5840 C   0  0  0  0  0  0  0  0  0  0  0  0
  -28.8670  -36.8600   29.4430 C   0  0  0  0  0  3  0  0  0  0  0  0
  -29.0830  -36.0240   28.3350 C   0  0  0  0  0  3  0  0  0  0  0  0
  -28.0090  -37.2740   31.6070 O   0  0  0  0  0  0  0  0  0  0  0  0
  -27.8810  -36.8620   32.9100 C   0  0  0  0  0  0  0  0  0  0  0  0
  -28.8900  -36.1170   33.5580 C   0  0  0  0  0  3  0  0  0  0  0  0
  -28.7510  -35.7750   34.9170 C   0  0  0  0  0  3  0  0  0  0  0  0
  -27.6080  -36.1820   35.6320 C   0  0  0  0  0  0  0  0  0  0  0  0
  -26.6040  -36.9290   34.9900 C   0  0  0  0  0  3  0  0  0  0  0  0
  -26.7430  -37.2700   33.6340 C   0  0  0  0  0  0  0  0  0  0  0  0
  -25.7830  -38.0070   33.0250 F   0  0  0  0  0  0  0  0  0  0  0  0
  -27.4760  -35.8600   36.9400 F   0  0  0  0  0  0  0  0  0  0  0  0
  -31.5250  -33.7760   27.0350 C   0  0  0  0  0  0  0  0  0  0  0  0
  -31.7710  -33.7570   28.3400 N   0  0  0  0  0  0  0  0  0  0  0  0
  -32.4170  -34.0230   26.2240 O   0  0  0  0  0  0  0  0  0  0  0  0
  -31.0450  -33.5380   29.0050 H   0  0  0  0  0  0  0  0  0  0  0  0
  -32.7000  -33.9640   28.6790 H   0  0  0  0  0  0  0  0  0  0  0  0
  -30.5410  -32.1200   24.4540 N   0  0  0  0  0  0  0  0  0  0  0  0
  -31.5550  -32.1420   24.4410 H   0  0  0  0  0  0  0  0  0  0  0  0
  -30.1430  -31.6380   23.6570 H   0  0  0  0  0  0  0  0  0  0  0  0
  1  2  1  0
  1 50  1  0
  4  5  1  6
  4  2  1  0
  4  3  1  0
  6  4  1  0
  7  6  1  0
  8  7  1  0
  9  8  1  0
 10 20  1  0
 11  9  1  0
 12 22  1  0
 12 19  1  0
 12 20  1  0
 13 15  2  0
 13 18  1  0
 14 15  1  0
 15 16  1  0
 16 11  2  0
 17 11  1  0
 18 17  2  0
 19 13  1  0
 20 14  1  0
 21 10  2  0
 22 24  2  0
 23 22  1  0
 25 23  1  0
 26 31  1  0
 26 30  1  0
 27 23  1  0
 27 28  1  0
 29 28  1  0
 30 29  1  0
 31 27  1  0
 32 31  2  0
 33 32  1  0
 34 33  2  0
 34 35  1  0
 35 26  2  0
 36 10  1  0
 36 37  1  0
 37 40  1  1
 37 39  1  0
 38 37  1  0
 41 36  1  0
 42 41  1  0
 42 43  2  0
 44 41  1  0
 46 45  1  0
 46 48  1  0
 46 42  1  0
 48 47  1  0
 49 48  1  0
 51 55  1  0
 51 50  1  0
 52 54  1  0
 53 54  2  0
 54 60  1  0
 55 56  1  0
 55 52  2  0
 56 53  1  0
 57 58  1  0
 58 56  1  0
 60 59  1  0
 61 67  1  0
 61 60  1  0
 62 67  1  0
 63 62  1  0
 63 64  1  0
 65 64  1  0
 65 66  1  0
 65 72  1  0
 67 66  1  0
 68 61  2  0
 69 70  2  0
 70 89  1  0
 70 71  1  0
 71 74  1  0
 72 69  1  0
 72 73  1  0
 73 71  2  0
 74 75  1  0
 75 76  2  0
 77 76  1  0
 77 80  1  0
 78 77  2  0
 79 74  2  0
 79 78  1  0
 80 81  1  0
 81 82  2  0
 81 86  1  0
 82 83  1  0
 83 84  2  0
 84 88  1  0
 85 84  1  0
 86 85  2  0
 87 86  1  0
 89 90  1  0
 90 93  1  0
 90 92  1  0
 91 89  2  0
 94 69  1  0
 95 94  1  0
 96 94  1  0
M  ISO  4   8 101   9 101  60 100  61 100
M  END
>  <TORSDO>  (47) 
F 26

>  <SCORE>  (47) 
-3.721

>  <name>  (47) 
48

>  <ligand_id>  (47) 
48

>  <original_smiles>  (47) 
[H]c1c([H])c([H])c2c(c1[H])C([H])([H])C([H])([H])C([H])([H])C2([H])N([H])C(=O)C1([H])N(C(=O)C([H])(N([H])C(=O)C([H])(N([H])C([H])([H])[H])C([H])([H])[H])C(C([H])([H])[H])(C([H])([H])[H])C([H])([H])[H])C([H])([H])c2c([H])c(OC([H])([H])C([H])([H])C([H])([H])[N+]([H])(C([H])([H])[H])C([H])([H])C([H])([H])C([H])([H])C([H])([H])c3c([H])c(C([H])(C(=O)N4C([H])([H])C([H])([H])C([H])([H])C([H])(n5nc(-c6c([H])c([H])c(Oc7c([H])c([H])c(F)c([H])c7F)c([H])c6[H])c(C(=O)N([H])[H])c5N([H])[H])C4([H])[H])C([H])([H])[H])c([H])n3C([H])([H])C([H])([H])[H])c([H])c([H])c2C1([H])[H]

>  <smiles>  (47) 
[H]c1c([H])c([H])c2c(c1[H])C([H])([H])C([H])([H])C([H])([H])C2([H])N([H])C(=O)C1([H])N(C(=O)C([H])(N([H])C(=O)C([H])(N([H])C([H])([H])[H])C([H])([H])[H])C(C([H])([H])[H])(C([H])([H])[H])C([H])([H])[H])C([H])([H])c2c([H])c(OC([H])([H])C([H])([H])C([H])([H])[N+]([H])(C([H])([H])[H])C([H])([H])C([H])([H])C([H])([H])C([H])([H])c3c([H])c(C([H])(C(=O)N4C([H])([H])C([H])([H])C([H])([H])C([H])(n5nc(-c6c([H])c([H])c(Oc7c([H])c([H])c(F)c([H])c7F)c([H])c6[H])c(C(=O)N([H])[H])c5N([H])[H])C4([H])[H])C([H])([H])[H])c([H])n3C([H])([H])C([H])([H])[H])c([H])c([H])c2C1([H])[H]

$$$$
49:0:0
     RDKit          3D

 94 97  0  0  1  0  0  0  0  0999 V2000
  -21.0840  -25.8160   18.5510 C   0  0  0  0  0  2  0  0  0  0  0  0
  -20.9260  -27.1740   18.9740 C   0  0  0  0  0  2  0  0  0  0  0  0
  -21.3650  -24.8210   19.6050 C   0  0  0  0  0  3  0  0  0  0  0  0
  -20.3580  -25.6100   20.3980 C   0  0  0  0  0  3  0  0  0  0  0  0
  -19.5510  -24.2580   21.5060 C   0  0  0  0  0  1  0  0  0  0  0  0
  -20.7840  -27.3220   20.4510 N   0  0  0  0  0  2  0  0  0  0  0  0
  -22.2030  -23.1430   19.9530 C   0  0  0  0  0  2  0  0  0  0  0  0
  -23.5180  -22.3020   18.0360 C   0  0  0  0  0  1  0  0  0  0  0  0
  -23.7470  -22.4170   19.4420 N   0  0  2  0  0  4  0  0  0  0  0  0
  -24.2260  -23.2560   19.5930 H   0  0  0  0  0  0  0  0  0  0  0  0
  -24.9170  -21.1560   19.9880 C   0  0  0  0  0  1  0  0  0  0  0  0
  -26.4320  -19.9800   19.2020 C   0  0  0  0  0 15  0  0  0  0  0  0
  -28.0660  -18.8220   19.7520 C   0  0  0  0  0 15  0  0  0  0  0  0
  -30.3920  -16.2600   19.2230 C   0  0  0  0  0  0  0  0  0  0  0  0
  -31.0380  -13.7640   18.6150 C   0  0  0  0  0  2  0  0  0  0  0  0
  -30.1230  -13.1260   17.5340 C   0  0  0  0  0  2  0  0  0  0  0  0
  -28.7330  -12.8030   18.1110 C   0  0  0  0  0  2  0  0  0  0  0  0
  -28.3030  -13.9180   19.0980 C   0  0  0  0  0  3  0  0  0  0  0  0
  -29.3350  -14.1660   20.1870 C   0  0  0  0  0  2  0  0  0  0  0  0
  -30.3560  -14.8710   19.4290 N   0  0  0  0  0  0  0  0  0  0  0  0
  -31.6480  -16.5000   19.0590 O   0  0  0  0  0  0  0  0  0  0  0  0
  -29.1330  -17.2810   19.3010 N   0  0  0  0  0  2  0  0  0  0  0  0
  -28.4750  -16.5870   18.9030 H   0  0  0  0  0  0  0  0  0  0  0  0
  -26.1940  -14.7230   20.1880 C   0  0  0  0  0  0  0  0  0  0  0  0
  -25.0910  -14.0390   20.6190 C   0  0  0  0  0  0  0  0  0  0  0  0
  -25.3640  -12.6600   20.4030 C   0  0  0  0  0  0  0  0  0  0  0  0
  -27.0230  -13.7410   19.6860 N   0  0  0  0  0  0  0  0  0  0  0  0
  -26.5700  -12.4940   19.9170 N   0  0  0  0  0  0  0  0  0  0  0  0
  -24.5370  -11.4860   20.5730 C   0  0  0  0  0  0  0  0  0  0  0  0
  -24.9070  -10.4120   21.4070 C   0  0  0  0  0  3  0  0  0  0  0  0
  -24.0570   -9.2930   21.5490 C   0  0  0  0  0  3  0  0  0  0  0  0
  -22.8280   -9.2460   20.8430 C   0  0  0  0  0  0  0  0  0  0  0  0
  -22.4830  -10.3060   19.9820 C   0  0  0  0  0  3  0  0  0  0  0  0
  -23.3390  -11.4150   19.8410 C   0  0  0  0  0  3  0  0  0  0  0  0
  -21.9450   -8.1930   20.8980 O   0  0  0  0  0  0  0  0  0  0  0  0
  -21.8010   -7.4460   22.0340 C   0  0  0  0  0  0  0  0  0  0  0  0
  -21.4450   -8.0330   23.2660 C   0  0  0  0  0  3  0  0  0  0  0  0
  -21.2310   -7.2190   24.3920 C   0  0  0  0  0  3  0  0  0  0  0  0
  -21.3840   -5.8230   24.2930 C   0  0  0  0  0  0  0  0  0  0  0  0
  -21.7350   -5.2380   23.0630 C   0  0  0  0  0  3  0  0  0  0  0  0
  -21.9530   -6.0500   21.9360 C   0  0  0  0  0  0  0  0  0  0  0  0
  -22.2730   -5.4880   20.7440 F   0  0  0  0  0  0  0  0  0  0  0  0
  -21.1720   -5.0270   25.3700 F   0  0  0  0  0  0  0  0  0  0  0  0
  -23.8200  -14.6540   21.0990 C   0  0  0  0  0  0  0  0  0  0  0  0
  -23.1210  -13.9830   22.0120 N   0  0  0  0  0  0  0  0  0  0  0  0
  -23.4730  -15.7790   20.7400 O   0  0  0  0  0  0  0  0  0  0  0  0
  -23.4190  -13.0700   22.3460 H   0  0  0  0  0  0  0  0  0  0  0  0
  -22.2670  -14.3870   22.3890 H   0  0  0  0  0  0  0  0  0  0  0  0
  -26.4580  -16.0770   20.1550 N   0  0  0  0  0  0  0  0  0  0  0  0
  -25.6960  -16.6760   20.4610 H   0  0  0  0  0  0  0  0  0  0  0  0
  -27.3060  -16.6100   19.9780 H   0  0  0  0  0  0  0  0  0  0  0  0
  -21.0970  -29.2780   21.4990 C   0  0  0  0  0 15  0  0  0  0  0  0
  -23.0970  -29.6210   23.1510 C   0  0  0  0  0 15  0  0  0  0  0  0
  -25.0930  -28.8930   22.7830 O   0  0  0  0  0  1  0  0  0  0  0  0
  -24.5970  -31.9940   22.6260 C   0  0  0  0  0  0  0  0  0  0  0  0
  -26.0340  -27.9870   21.8990 C   0  0  0  0  0  3  0  0  0  0  0  0
  -23.6540  -29.8220   20.8530 C   0  0  0  0  0  3  0  0  0  0  0  0
  -25.2940  -28.8910   19.6910 C   0  0  0  0  0  3  0  0  0  0  0  0
  -26.0430  -30.9430   20.9810 C   0  0  0  0  0  2  0  0  0  0  0  0
  -26.2590  -29.5460   20.5170 C   0  0  0  0  0  3  0  0  0  0  0  0
  -27.0360  -28.7460   21.3660 C   0  0  0  0  0  2  0  0  0  0  0  0
  -25.8100  -26.9680   20.8750 C   0  0  0  0  0  2  0  0  0  0  0  0
  -25.2620  -27.4960   19.6870 C   0  0  0  0  0  2  0  0  0  0  0  0
  -24.0500  -29.6020   19.4390 C   0  0  0  0  0  2  0  0  0  0  0  0
  -24.7120  -31.0070   21.5570 N   0  0  0  0  0  0  0  0  0  0  0  0
  -23.4850  -32.5120   22.9340 O   0  0  0  0  0  0  0  0  0  0  0  0
  -23.0870  -28.0300   21.4290 C   0  0  0  0  0  3  0  0  0  0  0  0
  -22.2530  -27.7420   22.6560 N   0  0  0  0  0  0  0  0  0  0  0  0
  -23.6490  -27.1790   22.2070 O   0  0  0  0  0  1  0  0  0  0  0  0
  -22.8480  -27.0710   23.0840 H   0  0  0  0  0  0  0  0  0  0  0  0
  -18.2160  -28.6880   23.3020 C   0  0  0  0  0  0  0  0  0  0  0  0
  -21.0200  -28.3160   23.8510 C   0  0  1  0  0  0  0  0  0  0  0  0
  -20.9970  -26.9670   24.4030 C   0  0  0  0  0  2  0  0  0  0  0  0
  -20.0140  -26.7950   23.3590 C   0  0  0  0  0  3  0  0  0  0  0  0
  -18.5740  -27.5130   22.8430 C   0  0  0  0  0  2  0  0  0  0  0  0
  -19.5120  -29.1580   23.8120 C   0  0  0  0  0  0  0  0  0  0  0  0
  -19.1380  -30.5030   24.2850 C   0  0  0  0  0  3  0  0  0  0  0  0
  -17.8360  -31.0890   24.1190 C   0  0  0  0  0  3  0  0  0  0  0  0
  -16.7240  -30.5160   23.5110 C   0  0  0  0  0  3  0  0  0  0  0  0
  -16.9600  -29.2400   23.0420 C   0  0  0  0  0  3  0  0  0  0  0  0
  -25.7890  -32.5320   23.5820 C   0  0  0  0  0  3  0  0  0  0  0  0
  -25.4410  -33.9180   24.0050 N   0  0  0  0  0  0  0  0  0  0  0  0
  -25.8670  -35.0320   23.3930 C   0  0  0  0  0  0  0  0  0  0  0  0
  -26.6320  -34.9880   22.4290 O   0  0  0  0  0  0  0  0  0  0  0  0
  -24.7460  -34.0230   24.7390 H   0  0  0  0  0  0  0  0  0  0  0  0
  -24.1370  -36.8180   23.0410 C   0  0  0  0  0  1  0  0  0  0  0  0
  -25.3330  -36.3820   23.8990 C   0  0  0  0  0  3  0  0  0  0  0  0
  -27.4160  -37.2330   24.8850 C   0  0  0  0  0  1  0  0  0  0  0  0
  -26.3560  -37.4520   23.8950 N   0  0  0  0  0  0  0  0  0  0  0  0
  -25.9330  -38.3580   24.0910 H   0  0  0  0  0  0  0  0  0  0  0  0
  -26.1780  -31.7430   24.9350 C   0  0  1  0  0  0  0  0  0  0  0  0
  -25.0090  -31.4870   25.9340 C   0  0  0  0  0  1  0  0  0  0  0  0
  -26.8850  -30.4010   24.6420 C   0  0  0  0  0  1  0  0  0  0  0  0
  -27.2360  -32.5700   25.7420 C   0  0  0  0  0  1  0  0  0  0  0  0
  1  2  1  0
  1  3  1  0
  2  6  1  0
  3  7  1  0
  3  4  1  0
  4  6  1  0
  4  5  1  0
  8  9  1  0
  9 10  1  6
  9  7  1  0
  9 11  1  0
 14 22  1  0
 14 20  1  0
 15 20  1  0
 16 17  1  0
 16 15  1  0
 18 17  1  0
 18 27  1  0
 18 19  1  0
 20 19  1  0
 21 14  2  0
 23 22  1  0
 24 25  2  0
 25 44  1  0
 26 29  1  0
 26 25  1  0
 27 28  1  0
 27 24  1  0
 28 26  2  0
 29 30  1  0
 30 31  2  0
 32 35  1  0
 32 31  1  0
 33 32  2  0
 34 33  1  0
 34 29  2  0
 35 36  1  0
 36 37  1  0
 37 38  2  0
 39 38  1  0
 39 43  1  0
 40 39  2  0
 41 36  2  0
 41 40  1  0
 42 41  1  0
 44 45  1  0
 45 47  1  0
 45 48  1  0
 46 44  2  0
 49 24  1  0
 49 50  1  0
 51 49  1  0
 55 66  2  0
 56 54  1  0
 57 67  1  0
 57 65  1  0
 58 64  1  0
 58 60  1  0
 59 65  1  0
 60 59  1  0
 60 61  1  0
 61 56  1  0
 62 56  1  0
 63 58  1  0
 63 62  1  0
 64 57  1  0
 65 55  1  0
 67 69  1  0
 67 68  1  0
 68 70  1  0
 71 76  1  0
 72 68  1  6
 72 73  1  0
 74 75  1  0
 74 72  1  0
 74 73  1  0
 75 71  1  0
 76 72  1  0
 76 77  2  0
 78 77  1  0
 79 78  2  0
 80 71  2  0
 80 79  1  0
 81 55  1  0
 81 82  1  0
 81 91  1  0
 82 85  1  0
 83 87  1  0
 83 82  1  0
 84 83  2  0
 87 86  1  0
 89 87  1  0
 89 90  1  0
 89 88  1  0
 91 94  1  1
 91 92  1  0
 93 91  1  0
M  ISO  4  14 100  22 100  53 101  54 101
M  END
>  <TORSDO>  (48) 
F 23

>  <SCORE>  (48) 
-7.318

>  <name>  (48) 
49

>  <ligand_id>  (48) 
49

>  <original_smiles>  (48) 
[H]c1c([H])c([H])c2c(c1[H])C([H])([H])C([H])([H])C([H])([H])C2([H])N([H])C(=O)C1([H])N(C(=O)C([H])(N([H])C(=O)C([H])(N([H])C([H])([H])[H])C([H])([H])[H])C(C([H])([H])[H])(C([H])([H])[H])C([H])([H])[H])C([H])([H])c2c([H])c(OC([H])([H])C([H])([H])n3c([H])c([H])c(C([H])([H])[N+]([H])(C([H])([H])[H])C([H])([H])C([H])([H])C([H])([H])N([H])C(=O)N4C([H])([H])C([H])([H])C([H])([H])C([H])(n5nc(-c6c([H])c([H])c(Oc7c([H])c([H])c(F)c([H])c7F)c([H])c6[H])c(C(=O)N([H])[H])c5N([H])[H])C4([H])[H])c3C([H])([H])[H])c([H])c([H])c2C1([H])[H]

>  <smiles>  (48) 
[H]c1c([H])c([H])c2c(c1[H])C([H])([H])C([H])([H])C([H])([H])C2([H])N([H])C(=O)C1([H])N(C(=O)C([H])(N([H])C(=O)C([H])(N([H])C([H])([H])[H])C([H])([H])[H])C(C([H])([H])[H])(C([H])([H])[H])C([H])([H])[H])C([H])([H])c2c([H])c(OC([H])([H])C([H])([H])n3c([H])c([H])c(C([H])([H])[N+]([H])(C([H])([H])[H])C([H])([H])C([H])([H])C([H])([H])N([H])C(=O)N4C([H])([H])C([H])([H])C([H])([H])C([H])(n5nc(-c6c([H])c([H])c(Oc7c([H])c([H])c(F)c([H])c7F)c([H])c6[H])c(C(=O)N([H])[H])c5N([H])[H])C4([H])[H])c3C([H])([H])[H])c([H])c([H])c2C1([H])[H]

$$$$
50:0:0
     RDKit          3D

101110  0  0  1  0  0  0  0  0999 V2000
  -28.0810  -18.2680   21.6070 C   0  0  0  0  0  1  0  0  0  0  0  0
  -29.1370  -19.0910   20.8330 C   0  0  0  0  0  3  0  0  0  0  0  0
  -28.5060  -20.0380   19.7840 C   0  0  0  0  0  2  0  0  0  0  0  0
  -28.3400  -21.5270   20.2000 C   0  0  0  0  0  2  0  0  0  0  0  0
  -28.3800  -23.7840   18.9320 C   0  0  0  0  0  3  0  0  0  0  0  0
  -28.2180  -24.0360   17.5930 C   0  0  0  0  0  0  0  0  0  0  0  0
  -27.9410  -22.8290   16.9610 N   0  0  0  0  0  0  0  0  0  0  0  0
  -27.9350  -21.8770   17.8230 N   0  0  0  0  0  0  0  0  0  0  0  0
  -28.2270  -22.4080   19.0350 N   0  0  0  0  0  0  0  0  0  0  0  0
  -28.2640  -25.2740   16.7450 C   0  0  0  0  0  2  0  0  0  0  0  0
  -28.7640  -26.5970   17.3720 C   0  0  0  0  0  2  0  0  0  0  0  0
  -28.3780  -26.9150   18.7120 O   0  0  0  0  0  0  0  0  0  0  0  0
  -24.4980  -31.1630   22.9110 C   0  0  0  0  0  0  0  0  0  0  0  0
  -27.1790  -27.5630   18.8980 C   0  0  0  0  0  0  0  0  0  0  0  0
  -23.2640  -29.9950   21.1130 C   0  0  0  0  0  3  0  0  0  0  0  0
  -24.7040  -28.8530   19.3450 C   0  0  0  0  0  0  0  0  0  0  0  0
  -25.7450  -30.5630   20.8400 C   0  0  0  0  0  2  0  0  0  0  0  0
  -25.8700  -29.3410   19.9530 C   0  0  0  0  0  0  0  0  0  0  0  0
  -27.1060  -28.6890   19.7440 C   0  0  0  0  0  3  0  0  0  0  0  0
  -25.9950  -27.0700   18.3080 C   0  0  0  0  0  3  0  0  0  0  0  0
  -24.7640  -27.7100   18.5250 C   0  0  0  0  0  3  0  0  0  0  0  0
  -23.4170  -29.5970   19.6220 C   0  0  0  0  0  2  0  0  0  0  0  0
  -24.5230  -30.5780   21.6800 N   0  0  0  0  0  0  0  0  0  0  0  0
  -23.4430  -31.2510   23.5560 O   0  0  0  0  0  0  0  0  0  0  0  0
  -22.7530  -28.7720   21.9040 C   0  0  0  0  0  0  0  0  0  0  0  0
  -21.4820  -28.4000   21.6710 N   0  0  0  0  0  0  0  0  0  0  0  0
  -23.4940  -28.1600   22.6780 O   0  0  0  0  0  0  0  0  0  0  0  0
  -20.9410  -28.9470   21.0160 H   0  0  0  0  0  0  0  0  0  0  0  0
  -18.4000  -26.5200   21.6470 C   0  0  0  0  0  0  0  0  0  0  0  0
  -20.7970  -27.2600   22.2740 C   0  0  0  0  0  3  0  0  0  0  0  0
  -21.2650  -25.9300   21.6380 C   0  0  0  0  0  2  0  0  0  0  0  0
  -20.3840  -25.4780   20.4710 C   0  0  0  0  0  2  0  0  0  0  0  0
  -18.9330  -25.2910   20.9300 C   0  0  0  0  0  2  0  0  0  0  0  0
  -19.2730  -27.4500   22.2640 C   0  0  0  0  0  0  0  0  0  0  0  0
  -18.7280  -28.5950   22.8860 C   0  0  0  0  0  3  0  0  0  0  0  0
  -17.3370  -28.8150   22.8960 C   0  0  0  0  0  3  0  0  0  0  0  0
  -16.4750  -27.8810   22.2970 C   0  0  0  0  0  3  0  0  0  0  0  0
  -17.0060  -26.7330   21.6810 C   0  0  0  0  0  3  0  0  0  0  0  0
  -25.7870  -31.7600   23.5550 C   0  0  0  0  0  3  0  0  0  0  0  0
  -26.3950  -30.8480   24.6910 C   0  0  1  0  0  0  0  0  0  0  0  0
  -25.3650  -30.4220   25.7630 C   0  0  0  0  0  1  0  0  0  0  0  0
  -27.0070  -29.5630   24.0830 C   0  0  0  0  0  1  0  0  0  0  0  0
  -27.5420  -31.5980   25.4050 C   0  0  0  0  0  1  0  0  0  0  0  0
  -25.4420  -33.0910   24.0740 N   0  0  0  0  0  0  0  0  0  0  0  0
  -25.7200  -34.2440   23.4520 C   0  0  0  0  0  0  0  0  0  0  0  0
  -26.3610  -34.3030   22.4020 O   0  0  0  0  0  0  0  0  0  0  0  0
  -24.8600  -33.1180   24.8960 H   0  0  0  0  0  0  0  0  0  0  0  0
  -23.9210  -35.9990   23.3740 C   0  0  0  0  0  1  0  0  0  0  0  0
  -25.1950  -35.5400   24.0990 C   0  0  0  0  0  3  0  0  0  0  0  0
  -27.3120  -36.3990   25.0010 C   0  0  0  0  0  1  0  0  0  0  0  0
  -26.1860  -36.6390   24.1020 N   0  0  0  0  0  0  0  0  0  0  0  0
  -25.7500  -37.5200   24.3640 H   0  0  0  0  0  0  0  0  0  0  0  0
  -30.2940  -18.2160   20.2300 C   0  0  0  0  0  3  0  0  0  0  0  0
  -31.8990  -19.5710   21.8000 C   0  0  0  0  0  1  0  0  0  0  0  0
  -31.6220  -18.2630   21.0450 C   0  0  2  0  0  0  0  0  0  0  0  0
  -32.6460  -18.1160   20.2050 F   0  0  0  0  0  0  0  0  0  0  0  0
  -31.6640  -17.2830   21.9470 F   0  0  0  0  0  0  0  0  0  0  0  0
  -29.8110  -16.7600   19.9550 C   0  0  0  0  0  2  0  0  0  0  0  0
  -31.4050  -14.8480   19.7070 C   0  0  0  0  0  0  0  0  0  0  0  0
  -31.0910  -12.5350   18.9690 C   0  0  0  0  0  2  0  0  0  0  0  0
  -30.1110  -12.5060   17.7780 C   0  0  0  0  0  2  0  0  0  0  0  0
  -28.6620  -12.4040   18.2880 C   0  0  0  0  0  2  0  0  0  0  0  0
  -28.3300  -13.4190   19.4190 C   0  0  0  0  0  3  0  0  0  0  0  0
  -29.4330  -13.4410   20.4990 C   0  0  0  0  0  2  0  0  0  0  0  0
  -30.7040  -13.6830   19.8020 N   0  0  0  0  0  0  0  0  0  0  0  0
  -32.6180  -14.8110   19.5140 O   0  0  0  0  0  0  0  0  0  0  0  0
  -30.7260  -15.9070   19.1660 N   0  0  0  0  0  0  0  0  0  0  0  0
  -32.1600  -18.3420   15.7170 C   0  0  0  0  0  2  0  0  0  0  0  0
  -32.8820  -18.1800   17.0640 C   0  0  0  0  0  2  0  0  0  0  0  0
  -30.6780  -17.9100   15.7720 C   0  0  0  0  0  2  0  0  0  0  0  0
  -32.6320  -16.7950   17.6830 C   0  0  0  0  0  2  0  0  0  0  0  0
  -30.2060  -17.4850   17.1810 C   0  0  0  0  0  2  0  0  0  0  0  0
  -31.1260  -16.4070   17.8090 C   0  0  0  0  0  3  0  0  0  0  0  0
  -26.0130  -14.0770   20.3190 C   0  0  0  0  0  0  0  0  0  0  0  0
  -24.9400  -13.3310   20.7190 C   0  0  0  0  0  0  0  0  0  0  0  0
  -25.3450  -11.9640   20.6010 C   0  0  0  0  0  0  0  0  0  0  0  0
  -27.0080  -13.1690   19.9870 N   0  0  0  0  0  0  0  0  0  0  0  0
  -26.6140  -11.8920   20.2200 N   0  0  0  0  0  0  0  0  0  0  0  0
  -24.5830  -10.7260   20.7840 C   0  0  0  0  0  0  0  0  0  0  0  0
  -24.9320   -9.7910   21.7820 C   0  0  0  0  0  3  0  0  0  0  0  0
  -24.1760   -8.6120   21.9560 C   0  0  0  0  0  3  0  0  0  0  0  0
  -23.0600   -8.3590   21.1270 C   0  0  0  0  0  0  0  0  0  0  0  0
  -22.7250   -9.2820   20.1210 C   0  0  0  0  0  3  0  0  0  0  0  0
  -23.4800  -10.4550   19.9470 C   0  0  0  0  0  3  0  0  0  0  0  0
  -22.2840   -7.2270   21.2050 O   0  0  0  0  0  0  0  0  0  0  0  0
  -22.0000   -6.6250   22.4030 C   0  0  0  0  0  0  0  0  0  0  0  0
  -21.3270   -7.3070   23.4380 C   0  0  0  0  0  3  0  0  0  0  0  0
  -21.0020   -6.6330   24.6320 C   0  0  0  0  0  3  0  0  0  0  0  0
  -21.3320   -5.2720   24.7840 C   0  0  0  0  0  0  0  0  0  0  0  0
  -21.9870   -4.5860   23.7480 C   0  0  0  0  0  3  0  0  0  0  0  0
  -22.3190   -5.2590   22.5590 C   0  0  0  0  0  0  0  0  0  0  0  0
  -22.9370   -4.5890   21.5580 F   0  0  0  0  0  0  0  0  0  0  0  0
  -21.0080   -4.6210   25.9260 F   0  0  0  0  0  0  0  0  0  0  0  0
  -23.5820  -13.8450   21.0890 C   0  0  0  0  0  0  0  0  0  0  0  0
  -22.8810  -13.1420   21.9700 N   0  0  0  0  0  0  0  0  0  0  0  0
  -23.1560  -14.9080   20.6310 O   0  0  0  0  0  0  0  0  0  0  0  0
  -23.2470  -12.2850   22.3550 H   0  0  0  0  0  0  0  0  0  0  0  0
  -21.9720  -13.4610   22.2740 H   0  0  0  0  0  0  0  0  0  0  0  0
  -26.2210  -15.4450   20.1790 N   0  0  0  0  0  0  0  0  0  0  0  0
  -25.4900  -16.1240   20.3620 H   0  0  0  0  0  0  0  0  0  0  0  0
  -27.0620  -15.8580   19.8020 H   0  0  0  0  0  0  0  0  0  0  0  0
  2  1  1  0
  3  4  1  0
  3  2  1  0
  5  9  1  0
  6  5  2  0
  7  6  1  0
  7  8  2  0
  8  9  1  0
  9  4  1  0
 10 11  1  0
 10  6  1  0
 11 12  1  0
 12 14  1  0
 13 24  2  0
 14 19  1  0
 15 23  1  0
 15 25  1  0
 16 22  1  0
 16 18  1  0
 17 23  1  0
 18 17  1  0
 19 18  2  0
 20 21  1  0
 20 14  2  0
 21 16  2  0
 22 15  1  0
 23 13  1  0
 25 27  2  0
 26 25  1  0
 28 26  1  0
 29 38  2  0
 29 34  1  0
 30 26  1  0
 31 30  1  0
 32 33  1  0
 32 31  1  0
 33 29  1  0
 34 30  1  0
 34 35  2  0
 35 36  1  0
 37 36  2  0
 38 37  1  0
 39 13  1  0
 39 44  1  0
 39 40  1  0
 40 43  1  1
 40 41  1  0
 42 40  1  0
 44 47  1  0
 45 44  1  0
 45 49  1  0
 46 45  2  0
 49 48  1  0
 49 51  1  0
 51 52  1  0
 51 50  1  0
 53 58  1  0
 53  2  1  0
 53 55  1  0
 55 54  1  1
 55 57  1  0
 56 55  1  0
 59 65  1  0
 60 65  1  0
 61 62  1  0
 61 60  1  0
 63 62  1  0
 63 77  1  0
 63 64  1  0
 65 64  1  0
 66 59  2  0
 67 59  1  0
 67 58  1  0
 68 70  1  0
 68 69  1  0
 69 71  1  0
 70 72  1  0
 71 73  1  0
 72 73  1  0
 73 67  1  0
 74 75  2  0
 75 94  1  0
 76 75  1  0
 76 79  1  0
 77 78  1  0
 77 74  1  0
 78 76  2  0
 79 80  1  0
 80 81  2  0
 82 85  1  0
 82 81  1  0
 83 82  2  0
 84 83  1  0
 84 79  2  0
 85 86  1  0
 86 91  2  0
 86 87  1  0
 87 88  2  0
 88 89  1  0
 89 93  1  0
 90 89  2  0
 91 90  1  0
 92 91  1  0
 94 95  1  0
 95 98  1  0
 95 97  1  0
 96 94  2  0
 99 74  1  0
 99100  1  0
101 99  1  0
M  ISO  4  11 101  12 101  59 100  67 100
M  END
>  <TORSDO>  (49) 
F 25

>  <SCORE>  (49) 
-7.266

>  <name>  (49) 
50

>  <ligand_id>  (49) 
50

>  <original_smiles>  (49) 
[H]c1c([H])c([H])c2c(c1[H])C([H])([H])C([H])([H])C([H])([H])C2([H])N([H])C(=O)C1([H])N(C(=O)C([H])(N([H])C(=O)C([H])(N([H])C([H])([H])[H])C([H])([H])[H])C(C([H])([H])[H])(C([H])([H])[H])C([H])([H])[H])C([H])([H])c2c([H])c(OC([H])([H])C([H])([H])c3nnn(C([H])([H])C([H])([H])C([H])(C([H])([H])[H])C([H])(C([H])([H])N(C(=O)N4C([H])([H])C([H])([H])C([H])([H])C([H])(n5nc(-c6c([H])c([H])c(Oc7c([H])c([H])c(F)c([H])c7F)c([H])c6[H])c(C(=O)N([H])[H])c5N([H])[H])C4([H])[H])C4([H])C([H])([H])C([H])([H])C([H])([H])C([H])([H])C4([H])[H])C(F)(F)C([H])([H])[H])c3[H])c([H])c([H])c2C1([H])[H]

>  <smiles>  (49) 
[H]c1c([H])c([H])c2c(c1[H])C([H])([H])C([H])([H])C([H])([H])C2([H])N([H])C(=O)C1([H])N(C(=O)C([H])(N([H])C(=O)C([H])(N([H])C([H])([H])[H])C([H])([H])[H])C(C([H])([H])[H])(C([H])([H])[H])C([H])([H])[H])C([H])([H])c2c([H])c(OC([H])([H])C([H])([H])c3nnn(C([H])([H])C([H])([H])C([H])(C([H])([H])[H])C([H])(C([H])([H])N(C(=O)N4C([H])([H])C([H])([H])C([H])([H])C([H])(n5nc(-c6c([H])c([H])c(Oc7c([H])c([H])c(F)c([H])c7F)c([H])c6[H])c(C(=O)N([H])[H])c5N([H])[H])C4([H])[H])C4([H])C([H])([H])C([H])([H])C([H])([H])C([H])([H])C4([H])[H])C(F)(F)C([H])([H])[H])c3[H])c([H])c([H])c2C1([H])[H]

$$$$
51:0:0
     RDKit          3D

 92100  0  0  1  0  0  0  0  0999 V2000
  -28.3900  -20.4100   19.4260 C   0  0  0  0  0  3  0  0  0  0  0  0
  -29.1930  -20.0430   20.4840 C   0  0  0  0  0  0  0  0  0  0  0  0
  -29.0220  -22.3540   20.3680 C   0  0  0  0  0  3  0  0  0  0  0  0
  -29.5780  -21.2850   21.0290 N   0  0  0  0  0  0  0  0  0  0  0  0
  -28.3240  -21.7860   19.3760 N   0  0  0  0  0  0  0  0  0  0  0  0
  -27.8040  -22.2970   18.6730 H   0  0  0  0  0  0  0  0  0  0  0  0
  -29.5060  -18.6290   21.0970 C   0  0  0  0  0  2  0  0  0  0  0  0
  -29.3500  -17.3370   18.8320 C   0  0  0  0  0  1  0  0  0  0  0  0
  -29.9900  -17.3600   20.2320 C   0  0  0  0  0  3  0  0  0  0  0  0
  -29.8420  -15.9220   20.9510 C   0  0  0  0  0  2  0  0  0  0  0  0
  -30.5690  -14.6240   20.3730 C   0  0  0  0  0  0  0  0  0  0  0  0
  -30.3370  -12.3940   19.2740 C   0  0  0  0  0  2  0  0  0  0  0  0
  -29.3780  -12.5400   18.0710 C   0  0  0  0  0  2  0  0  0  0  0  0
  -27.9110  -12.3770   18.5150 C   0  0  0  0  0  2  0  0  0  0  0  0
  -27.5740  -13.2270   19.7690 C   0  0  0  0  0  3  0  0  0  0  0  0
  -28.6450  -13.0550   20.8690 C   0  0  0  0  0  2  0  0  0  0  0  0
  -29.9450  -13.4030   20.2820 N   0  0  0  0  0  0  0  0  0  0  0  0
  -31.7110  -14.7580   19.9250 O   0  0  0  0  0  0  0  0  0  0  0  0
  -25.1920  -13.8340   20.5160 C   0  0  0  0  0  0  0  0  0  0  0  0
  -24.1240  -13.0650   20.8910 C   0  0  0  0  0  0  0  0  0  0  0  0
  -24.5780  -11.7110   20.8510 C   0  0  0  0  0  0  0  0  0  0  0  0
  -26.2290  -12.9490   20.2670 N   0  0  0  0  0  0  0  0  0  0  0  0
  -25.8670  -11.6680   20.5290 N   0  0  0  0  0  0  0  0  0  0  0  0
  -23.8470  -10.4520   21.0430 C   0  0  0  0  0  0  0  0  0  0  0  0
  -24.2820   -9.4770   21.9680 C   0  0  0  0  0  3  0  0  0  0  0  0
  -23.5500   -8.2840   22.1490 C   0  0  0  0  0  3  0  0  0  0  0  0
  -22.3680   -8.0560   21.4040 C   0  0  0  0  0  0  0  0  0  0  0  0
  -21.9520   -9.0200   20.4670 C   0  0  0  0  0  3  0  0  0  0  0  0
  -22.6850  -10.2050   20.2850 C   0  0  0  0  0  3  0  0  0  0  0  0
  -21.6060   -6.9160   21.4940 O   0  0  0  0  0  0  0  0  0  0  0  0
  -21.5680   -6.1660   22.6420 C   0  0  0  0  0  0  0  0  0  0  0  0
  -21.1610   -6.7160   23.8770 C   0  0  0  0  0  3  0  0  0  0  0  0
  -21.0680   -5.8940   25.0170 C   0  0  0  0  0  3  0  0  0  0  0  0
  -21.3710   -4.5220   24.9230 C   0  0  0  0  0  0  0  0  0  0  0  0
  -21.7730   -3.9720   23.6930 C   0  0  0  0  0  3  0  0  0  0  0  0
  -21.8680   -4.7920   22.5550 C   0  0  0  0  0  0  0  0  0  0  0  0
  -22.2330   -4.2520   21.3680 F   0  0  0  0  0  0  0  0  0  0  0  0
  -21.2750   -3.7300   26.0160 F   0  0  0  0  0  0  0  0  0  0  0  0
  -22.7320  -13.5490   21.1790 C   0  0  0  0  0  0  0  0  0  0  0  0
  -22.0100  -12.8540   22.0500 N   0  0  0  0  0  0  0  0  0  0  0  0
  -22.2940  -14.5780   20.6660 O   0  0  0  0  0  0  0  0  0  0  0  0
  -22.3800  -12.0220   22.4870 H   0  0  0  0  0  0  0  0  0  0  0  0
  -21.0750  -13.1570   22.2840 H   0  0  0  0  0  0  0  0  0  0  0  0
  -25.3610  -15.2050   20.3440 N   0  0  0  0  0  0  0  0  0  0  0  0
  -24.5990  -15.8630   20.4630 H   0  0  0  0  0  0  0  0  0  0  0  0
  -26.2120  -15.6410   20.0110 H   0  0  0  0  0  0  0  0  0  0  0  0
  -29.1910  -23.8980   20.6140 C   0  0  0  0  0  3  0  0  0  0  0  0
  -28.1270  -24.9450   20.0480 C   0  0  0  0  0  3  0  0  0  0  0  0
  -28.3170  -26.4030   20.2990 O   0  0  0  0  0  0  0  0  0  0  0  0
  -24.6130  -31.8670   23.2340 C   0  0  0  0  0  0  0  0  0  0  0  0
  -27.2050  -27.2620   20.2200 C   0  0  0  0  0  0  0  0  0  0  0  0
  -23.4040  -30.4660   21.5980 C   0  0  0  0  0  3  0  0  0  0  0  0
  -24.8500  -28.8950   20.1890 C   0  0  0  0  0  0  0  0  0  0  0  0
  -25.9480  -30.7630   21.4230 C   0  0  0  0  0  2  0  0  0  0  0  0
  -26.0200  -29.3790   20.7850 C   0  0  0  0  0  0  0  0  0  0  0  0
  -27.2000  -28.5750   20.7920 C   0  0  0  0  0  3  0  0  0  0  0  0
  -26.0100  -26.8370   19.5920 C   0  0  0  0  0  3  0  0  0  0  0  0
  -24.8470  -27.6300   19.5810 C   0  0  0  0  0  3  0  0  0  0  0  0
  -23.6180  -29.7780   20.2250 C   0  0  0  0  0  2  0  0  0  0  0  0
  -24.6740  -31.0500   22.1420 N   0  0  0  0  0  0  0  0  0  0  0  0
  -23.5300  -32.1560   23.7610 O   0  0  0  0  0  0  0  0  0  0  0  0
  -22.7300  -29.4610   22.5630 C   0  0  0  0  0  0  0  0  0  0  0  0
  -21.4010  -29.3020   22.4380 N   0  0  0  0  0  0  0  0  0  0  0  0
  -23.4010  -28.8290   23.3820 O   0  0  0  0  0  0  0  0  0  0  0  0
  -20.9190  -29.8640   21.7500 H   0  0  0  0  0  0  0  0  0  0  0  0
  -18.0060  -28.1670   22.9560 C   0  0  0  0  0  0  0  0  0  0  0  0
  -20.5700  -28.3780   23.2120 C   0  0  0  0  0  3  0  0  0  0  0  0
  -20.6420  -26.9450   22.6340 C   0  0  0  0  0  2  0  0  0  0  0  0
  -19.5300  -26.6440   21.6260 C   0  0  0  0  0  2  0  0  0  0  0  0
  -18.1540  -26.8150   22.2780 C   0  0  0  0  0  2  0  0  0  0  0  0
  -19.1410  -28.9080   23.3810 C   0  0  0  0  0  0  0  0  0  0  0  0
  -18.9500  -30.1740   23.9750 C   0  0  0  0  0  3  0  0  0  0  0  0
  -17.6550  -30.7000   24.1470 C   0  0  0  0  0  3  0  0  0  0  0  0
  -16.5350  -29.9550   23.7400 C   0  0  0  0  0  3  0  0  0  0  0  0
  -16.7110  -28.6910   23.1520 C   0  0  0  0  0  3  0  0  0  0  0  0
  -25.8980  -32.4940   23.8570 C   0  0  0  0  0  3  0  0  0  0  0  0
  -25.5940  -33.8940   24.1850 N   0  0  0  0  0  0  0  0  0  0  0  0
  -25.9190  -34.9450   23.4200 C   0  0  0  0  0  0  0  0  0  0  0  0
  -26.5760  -34.8360   22.3810 O   0  0  0  0  0  0  0  0  0  0  0  0
  -25.0110  -34.0520   24.9940 H   0  0  0  0  0  0  0  0  0  0  0  0
  -24.1810  -36.7330   23.0950 C   0  0  0  0  0  1  0  0  0  0  0  0
  -25.4420  -36.3350   23.8800 C   0  0  0  0  0  3  0  0  0  0  0  0
  -27.5930  -37.2290   24.6560 C   0  0  0  0  0  1  0  0  0  0  0  0
  -26.4700  -37.3890   23.7360 N   0  0  0  0  0  0  0  0  0  0  0  0
  -26.0660  -38.3100   23.8840 H   0  0  0  0  0  0  0  0  0  0  0  0
  -26.4080  -31.7220   25.1360 C   0  0  1  0  0  0  0  0  0  0  0  0
  -25.3110  -31.4900   26.2010 C   0  0  0  0  0  1  0  0  0  0  0  0
  -26.9850  -30.3410   24.7470 C   0  0  0  0  0  1  0  0  0  0  0  0
  -27.5600  -32.5120   25.8000 C   0  0  0  0  0  1  0  0  0  0  0  0
  -30.4700  -21.4540   22.1900 C   0  0  0  0  0  2  0  0  0  0  0  0
  -32.8450  -21.1120   23.0810 C   0  0  0  0  0  1  0  0  0  0  0  0
  -31.9270  -21.0840   21.8550 C   0  0  0  0  0  2  0  0  0  0  0  0
  1  2  2  0
  2  4  1  0
  2  7  1  0
  3 47  1  0
  3  4  1  0
  4 90  1  0
  5  1  1  0
  5  3  1  0
  6  5  1  0
  9  8  1  0
  9 10  1  0
  9  7  1  0
 11 10  1  0
 12 17  1  0
 13 14  1  0
 13 12  1  0
 15 14  1  0
 15 22  1  0
 15 16  1  0
 17 11  1  0
 17 16  1  0
 18 11  2  0
 19 20  2  0
 20 39  1  0
 21 20  1  0
 21 24  1  0
 22 19  1  0
 22 23  1  0
 23 21  2  0
 24 25  1  0
 25 26  2  0
 27 30  1  0
 27 26  1  0
 28 27  2  0
 29 28  1  0
 29 24  2  0
 30 31  1  0
 31 32  1  0
 32 33  2  0
 34 33  1  0
 34 38  1  0
 35 34  2  0
 36 31  2  0
 36 35  1  0
 37 36  1  0
 39 40  1  0
 40 43  1  0
 40 42  1  0
 41 39  2  0
 44 45  1  0
 44 19  1  0
 46 44  1  0
 48 49  1  0
 48 47  2  0
 50 61  2  0
 51 49  1  0
 51 56  1  0
 52 60  1  0
 52 62  1  0
 53 59  1  0
 53 55  1  0
 54 60  1  0
 55 56  2  0
 55 54  1  0
 57 51  2  0
 58 57  1  0
 58 53  2  0
 59 52  1  0
 60 50  1  0
 62 64  2  0
 63 62  1  0
 65 63  1  0
 66 75  2  0
 66 71  1  0
 67 63  1  0
 67 71  1  0
 68 67  1  0
 69 70  1  0
 69 68  1  0
 70 66  1  0
 71 72  2  0
 72 73  1  0
 74 73  2  0
 75 74  1  0
 76 50  1  0
 76 77  1  0
 76 86  1  0
 77 80  1  0
 78 82  1  0
 78 77  1  0
 79 78  2  0
 82 81  1  0
 84 82  1  0
 84 85  1  0
 84 83  1  0
 86 89  1  1
 86 87  1  0
 88 86  1  0
 92 90  1  0
 92 91  1  0
M  ISO  4  10 100  11 100  48 101  49 101
M  END
>  <TORSDO>  (50) 
F 23

>  <SCORE>  (50) 
-12.833

>  <name>  (50) 
51

>  <ligand_id>  (50) 
51

>  <original_smiles>  (50) 
[H]c1c([H])c([H])c2c(c1[H])C([H])([H])C([H])([H])C([H])([H])C2([H])N([H])C(=O)C1([H])N(C(=O)C([H])(N([H])C(=O)C([H])(N([H])C([H])([H])[H])C([H])([H])[H])C(C([H])([H])[H])(C([H])([H])[H])C([H])([H])[H])C([H])([H])c2c([H])c(OC([H])([H])C([H])([H])c3n(C([H])([H])C([H])([H])C([H])([H])[H])c(C([H])([H])C([H])(C([H])([H])[H])C([H])([H])C(=O)N4C([H])([H])C([H])([H])C([H])([H])C([H])(n5nc(-c6c([H])c([H])c(Oc7c([H])c([H])c(F)c([H])c7F)c([H])c6[H])c(C(=O)N([H])[H])c5N([H])[H])C4([H])[H])c([H])[n+]3[H])c([H])c([H])c2C1([H])[H]

>  <smiles>  (50) 
[H]c1c([H])c([H])c2c(c1[H])C([H])([H])C([H])([H])C([H])([H])C2([H])N([H])C(=O)C1([H])N(C(=O)C([H])(N([H])C(=O)C([H])(N([H])C([H])([H])[H])C([H])([H])[H])C(C([H])([H])[H])(C([H])([H])[H])C([H])([H])[H])C([H])([H])c2c([H])c(OC([H])([H])C([H])([H])c3n(C([H])([H])C([H])([H])C([H])([H])[H])c(C([H])([H])C([H])(C([H])([H])[H])C([H])([H])C(=O)N4C([H])([H])C([H])([H])C([H])([H])C([H])(n5nc(-c6c([H])c([H])c(Oc7c([H])c([H])c(F)c([H])c7F)c([H])c6[H])c(C(=O)N([H])[H])c5N([H])[H])C4([H])[H])c([H])[n+]3[H])c([H])c([H])c2C1([H])[H]

$$$$
52:0:0
     RDKit          3D

 92100  0  0  1  0  0  0  0  0999 V2000
  -28.8800  -20.7460   20.1820 C   0  0  0  0  0  0  0  0  0  0  0  0
  -28.0490  -21.8040   19.6770 C   0  0  0  0  0  0  0  0  0  0  0  0
  -29.5340  -22.8480   20.8260 C   0  0  0  0  0  0  0  0  0  0  0  0
  -26.8140  -21.6090   18.8540 C   0  0  0  0  0  1  0  0  0  0  0  0
  -29.7930  -21.5050   20.9160 N   0  0  0  0  0  0  0  0  0  0  0  0
  -28.4270  -23.1780   20.0700 N   0  0  0  0  0  0  0  0  0  0  0  0
  -31.9160  -23.5580   21.1340 C   0  0  0  0  0  1  0  0  0  0  0  0
  -30.3640  -23.4560   23.1100 C   0  0  0  0  0  1  0  0  0  0  0  0
  -30.1810  -25.2790   21.4590 C   0  0  0  0  0  1  0  0  0  0  0  0
  -30.4630  -23.7810   21.6050 C   0  0  2  0  0  0  0  0  0  0  0  0
  -28.7350  -19.0700   20.2740 C   0  0  0  0  0  3  0  0  0  0  0  0
  -29.8690  -17.8000   20.0730 C   0  0  0  0  0  3  0  0  0  0  0  0
  -30.3260  -15.0250   19.9670 C   0  0  0  0  0  0  0  0  0  0  0  0
  -30.1780  -12.6750   18.9880 C   0  0  0  0  0  2  0  0  0  0  0  0
  -29.1700  -12.6200   17.8160 C   0  0  0  0  0  2  0  0  0  0  0  0
  -27.7420  -12.3730   18.3370 C   0  0  0  0  0  2  0  0  0  0  0  0
  -27.3960  -13.2710   19.5530 C   0  0  0  0  0  3  0  0  0  0  0  0
  -28.5210  -13.2960   20.6090 C   0  0  0  0  0  2  0  0  0  0  0  0
  -29.7380  -13.7540   19.9260 N   0  0  0  0  0  0  0  0  0  0  0  0
  -31.5080  -15.0880   19.6100 O   0  0  0  0  0  0  0  0  0  0  0  0
  -29.5650  -16.2230   20.1990 N   0  0  0  0  0  0  0  0  0  0  0  0
  -28.6100  -16.0200   20.4570 H   0  0  0  0  0  0  0  0  0  0  0  0
  -25.0710  -13.8030   20.4700 C   0  0  0  0  0  0  0  0  0  0  0  0
  -24.0370  -13.0080   20.8830 C   0  0  0  0  0  0  0  0  0  0  0  0
  -24.5070  -11.6620   20.7750 C   0  0  0  0  0  0  0  0  0  0  0  0
  -26.0990  -12.9420   20.1300 N   0  0  0  0  0  0  0  0  0  0  0  0
  -25.7750  -11.6460   20.3800 N   0  0  0  0  0  0  0  0  0  0  0  0
  -23.7990  -10.3890   20.9700 C   0  0  0  0  0  0  0  0  0  0  0  0
  -24.2860   -9.3990   21.8510 C   0  0  0  0  0  3  0  0  0  0  0  0
  -23.5770   -8.1930   22.0360 C   0  0  0  0  0  3  0  0  0  0  0  0
  -22.3660   -7.9670   21.3390 C   0  0  0  0  0  0  0  0  0  0  0  0
  -21.8970   -8.9470   20.4450 C   0  0  0  0  0  3  0  0  0  0  0  0
  -22.6070  -10.1440   20.2580 C   0  0  0  0  0  3  0  0  0  0  0  0
  -21.6230   -6.8160   21.4370 O   0  0  0  0  0  0  0  0  0  0  0  0
  -21.6290   -6.0500   22.5740 C   0  0  0  0  0  0  0  0  0  0  0  0
  -21.2180   -6.5650   23.8220 C   0  0  0  0  0  3  0  0  0  0  0  0
  -21.1730   -5.7230   24.9520 C   0  0  0  0  0  3  0  0  0  0  0  0
  -21.5300   -4.3670   24.8340 C   0  0  0  0  0  0  0  0  0  0  0  0
  -21.9340   -3.8500   23.5900 C   0  0  0  0  0  3  0  0  0  0  0  0
  -21.9810   -4.6890   22.4630 C   0  0  0  0  0  0  0  0  0  0  0  0
  -22.3500   -4.1810   21.2630 F   0  0  0  0  0  0  0  0  0  0  0  0
  -21.4800   -3.5560   25.9170 F   0  0  0  0  0  0  0  0  0  0  0  0
  -22.6580  -13.4660   21.2580 C   0  0  0  0  0  0  0  0  0  0  0  0
  -21.9950  -12.7440   22.1530 N   0  0  0  0  0  0  0  0  0  0  0  0
  -22.1800  -14.5000   20.7920 O   0  0  0  0  0  0  0  0  0  0  0  0
  -22.3970  -11.9080   22.5500 H   0  0  0  0  0  0  0  0  0  0  0  0
  -21.0720  -13.0310   22.4460 H   0  0  0  0  0  0  0  0  0  0  0  0
  -25.2120  -15.1800   20.3260 N   0  0  0  0  0  0  0  0  0  0  0  0
  -24.4450  -15.8190   20.5000 H   0  0  0  0  0  0  0  0  0  0  0  0
  -26.0170  -15.6340   19.9130 H   0  0  0  0  0  0  0  0  0  0  0  0
  -27.5870  -24.5160   19.6790 C   0  0  0  0  0  2  0  0  0  0  0  0
  -27.9700  -26.0090   19.8440 O   0  0  0  0  0  0  0  0  0  0  0  0
  -24.4890  -31.7350   23.0510 C   0  0  0  0  0  0  0  0  0  0  0  0
  -26.9390  -27.0430   19.8240 C   0  0  0  0  0  0  0  0  0  0  0  0
  -23.2260  -30.3680   21.4380 C   0  0  0  0  0  3  0  0  0  0  0  0
  -24.6180  -28.8240   19.9190 C   0  0  0  0  0  0  0  0  0  0  0  0
  -25.7760  -30.6290   21.1760 C   0  0  0  0  0  2  0  0  0  0  0  0
  -25.8240  -29.2470   20.4910 C   0  0  0  0  0  0  0  0  0  0  0  0
  -26.9830  -28.3730   20.4280 C   0  0  0  0  0  3  0  0  0  0  0  0
  -25.7030  -26.7470   19.2030 C   0  0  0  0  0  3  0  0  0  0  0  0
  -24.5730  -27.5900   19.2560 C   0  0  0  0  0  3  0  0  0  0  0  0
  -23.3930  -29.7200   20.0370 C   0  0  0  0  0  2  0  0  0  0  0  0
  -24.5200  -30.9320   21.9420 N   0  0  0  0  0  0  0  0  0  0  0  0
  -23.4250  -32.0070   23.6270 O   0  0  0  0  0  0  0  0  0  0  0  0
  -22.5890  -29.3400   22.4080 C   0  0  0  0  0  0  0  0  0  0  0  0
  -21.2590  -29.1550   22.3220 N   0  0  0  0  0  0  0  0  0  0  0  0
  -23.2930  -28.7130   23.2030 O   0  0  0  0  0  0  0  0  0  0  0  0
  -20.7450  -29.7120   21.6550 H   0  0  0  0  0  0  0  0  0  0  0  0
  -17.9130  -27.8860   22.9060 C   0  0  0  0  0  0  0  0  0  0  0  0
  -20.4740  -28.1980   23.1080 C   0  0  0  0  0  3  0  0  0  0  0  0
  -20.5880  -26.7710   22.5230 C   0  0  0  0  0  2  0  0  0  0  0  0
  -19.4670  -26.4320   21.5350 C   0  0  0  0  0  2  0  0  0  0  0  0
  -18.0990  -26.5460   22.2150 C   0  0  0  0  0  2  0  0  0  0  0  0
  -19.0280  -28.6700   23.3110 C   0  0  0  0  0  0  0  0  0  0  0  0
  -18.7970  -29.9220   23.9210 C   0  0  0  0  0  3  0  0  0  0  0  0
  -17.4880  -30.3920   24.1260 C   0  0  0  0  0  3  0  0  0  0  0  0
  -16.3890  -29.6080   23.7350 C   0  0  0  0  0  3  0  0  0  0  0  0
  -16.6030  -28.3560   23.1310 C   0  0  0  0  0  3  0  0  0  0  0  0
  -25.7890  -32.3650   23.6370 C   0  0  0  0  0  3  0  0  0  0  0  0
  -26.3620  -31.5670   24.8720 C   0  0  1  0  0  0  0  0  0  0  0  0
  -25.3170  -31.3030   25.9820 C   0  0  0  0  0  1  0  0  0  0  0  0
  -26.9290  -30.1980   24.4310 C   0  0  0  0  0  1  0  0  0  0  0  0
  -27.5390  -32.3500   25.5000 C   0  0  0  0  0  1  0  0  0  0  0  0
  -25.4800  -33.7520   24.0220 N   0  0  0  0  0  0  0  0  0  0  0  0
  -25.8170  -34.8370   23.3120 C   0  0  0  0  0  0  0  0  0  0  0  0
  -26.4850  -34.7750   22.2760 O   0  0  0  0  0  0  0  0  0  0  0  0
  -24.8870  -33.8740   24.8290 H   0  0  0  0  0  0  0  0  0  0  0  0
  -24.1080  -36.6640   23.0330 C   0  0  0  0  0  1  0  0  0  0  0  0
  -25.3400  -36.2080   23.8320 C   0  0  0  0  0  3  0  0  0  0  0  0
  -27.4720  -37.0410   24.7240 C   0  0  0  0  0  1  0  0  0  0  0  0
  -26.3830  -37.2560   23.7750 N   0  0  0  0  0  0  0  0  0  0  0  0
  -25.9830  -38.1730   23.9530 H   0  0  0  0  0  0  0  0  0  0  0  0
  1 11  1  0
  1  5  1  0
  2  6  1  0
  2  1  2  0
  3  5  2  0
  3 10  1  0
  4  2  1  0
  6  3  1  0
 10  7  1  6
  9 10  1  0
 10  8  1  0
 12 21  1  0
 12 11  2  0
 13 21  1  0
 14 19  1  0
 15 16  1  0
 15 14  1  0
 17 16  1  0
 17 26  1  0
 17 18  1  0
 19 13  1  0
 19 18  1  0
 20 13  2  0
 21 22  1  0
 23 24  2  0
 24 43  1  0
 25 24  1  0
 25 28  1  0
 26 27  1  0
 26 23  1  0
 27 25  2  0
 28 29  1  0
 29 30  2  0
 31 34  1  0
 31 30  1  0
 32 31  2  0
 33 32  1  0
 33 28  2  0
 34 35  1  0
 35 36  1  0
 36 37  2  0
 38 37  1  0
 38 42  1  0
 39 38  2  0
 40 35  2  0
 40 39  1  0
 41 40  1  0
 43 44  1  0
 44 47  1  0
 44 46  1  0
 45 43  2  0
 48 23  1  0
 48 49  1  0
 50 48  1  0
 51 52  1  0
 51  6  1  0
 53 64  2  0
 54 52  1  0
 54 59  1  0
 55 63  1  0
 55 65  1  0
 56 62  1  0
 56 58  1  0
 57 63  1  0
 58 57  1  0
 59 58  2  0
 60 61  1  0
 60 54  2  0
 61 56  2  0
 62 55  1  0
 63 53  1  0
 65 67  2  0
 66 65  1  0
 68 66  1  0
 69 78  2  0
 69 74  1  0
 70 66  1  0
 70 74  1  0
 71 70  1  0
 72 73  1  0
 72 71  1  0
 73 69  1  0
 74 75  2  0
 75 76  1  0
 77 76  2  0
 78 77  1  0
 79 53  1  0
 79 84  1  0
 79 80  1  0
 80 83  1  1
 80 81  1  0
 82 80  1  0
 84 87  1  0
 85 89  1  0
 85 84  1  0
 86 85  2  0
 89 88  1  0
 91 89  1  0
 91 92  1  0
 91 90  1  0
M  ISO  4  13 100  21 100  51 101  52 101
M  END
>  <TORSDO>  (51) 
F 20

>  <SCORE>  (51) 
-13.572

>  <name>  (51) 
52

>  <ligand_id>  (51) 
52

>  <original_smiles>  (51) 
[H]c1c([H])c([H])c2c(c1[H])C([H])([H])C([H])([H])C([H])([H])C2([H])N([H])C(=O)C1([H])N(C(=O)C([H])(N([H])C(=O)C([H])(N([H])C([H])([H])[H])C([H])([H])[H])C(C([H])([H])[H])(C([H])([H])[H])C([H])([H])[H])C([H])([H])c2c([H])c(OC([H])([H])n3c(C(C([H])([H])[H])(C([H])([H])[H])C([H])([H])[H])nc(C([H])([H])C([H])([H])N([H])C(=O)N4C([H])([H])C([H])([H])C([H])([H])C([H])(n5nc(-c6c([H])c([H])c(Oc7c([H])c([H])c(F)c([H])c7F)c([H])c6[H])c(C(=O)N([H])[H])c5N([H])[H])C4([H])[H])c3C([H])([H])[H])c([H])c([H])c2C1([H])[H]

>  <smiles>  (51) 
[H]c1c([H])c([H])c2c(c1[H])C([H])([H])C([H])([H])C([H])([H])C2([H])N([H])C(=O)C1([H])N(C(=O)C([H])(N([H])C(=O)C([H])(N([H])C([H])([H])[H])C([H])([H])[H])C(C([H])([H])[H])(C([H])([H])[H])C([H])([H])[H])C([H])([H])c2c([H])c(OC([H])([H])n3c(C(C([H])([H])[H])(C([H])([H])[H])C([H])([H])[H])nc(C([H])([H])C([H])([H])N([H])C(=O)N4C([H])([H])C([H])([H])C([H])([H])C([H])(n5nc(-c6c([H])c([H])c(Oc7c([H])c([H])c(F)c([H])c7F)c([H])c6[H])c(C(=O)N([H])[H])c5N([H])[H])C4([H])[H])c3C([H])([H])[H])c([H])c([H])c2C1([H])[H]

$$$$
53:0:0
     RDKit          3D

 92100  0  0  1  0  0  0  0  0999 V2000
  -29.3310  -20.9300   21.4920 C   0  0  0  0  0  2  0  0  0  0  0  0
  -29.7360  -22.4030   21.7780 C   0  0  0  0  0  2  0  0  0  0  0  0
  -29.1430  -23.4380   20.7850 C   0  0  0  0  0  2  0  0  0  0  0  0
  -29.2610  -24.9230   21.2290 C   0  0  0  0  0  2  0  0  0  0  0  0
  -29.3330  -25.9380   20.0600 C   0  0  0  0  0  2  0  0  0  0  0  0
  -29.1640  -27.2990   20.5090 O   0  0  0  0  0  0  0  0  0  0  0  0
  -24.9340  -32.1040   23.6540 C   0  0  0  0  0  0  0  0  0  0  0  0
  -27.9280  -27.9280   20.4850 C   0  0  0  0  0  0  0  0  0  0  0  0
  -23.8720  -30.7330   21.8940 C   0  0  0  0  0  3  0  0  0  0  0  0
  -25.4590  -29.3330   20.4690 C   0  0  0  0  0  0  0  0  0  0  0  0
  -26.3850  -31.2090   21.8350 C   0  0  0  0  0  2  0  0  0  0  0  0
  -26.5670  -29.8770   21.1300 C   0  0  0  0  0  0  0  0  0  0  0  0
  -27.8000  -29.1830   21.1310 C   0  0  0  0  0  3  0  0  0  0  0  0
  -26.7850  -27.3960   19.8410 C   0  0  0  0  0  3  0  0  0  0  0  0
  -25.5630  -28.0930   19.8250 C   0  0  0  0  0  3  0  0  0  0  0  0
  -24.1740  -30.1310   20.4980 C   0  0  0  0  0  2  0  0  0  0  0  0
  -25.0790  -31.3610   22.5220 N   0  0  0  0  0  0  0  0  0  0  0  0
  -23.8180  -32.3020   24.1540 O   0  0  0  0  0  0  0  0  0  0  0  0
  -23.2250  -29.6360   22.7690 C   0  0  0  0  0  0  0  0  0  0  0  0
  -21.9220  -29.3880   22.5540 N   0  0  0  0  0  0  0  0  0  0  0  0
  -23.8940  -29.0090   23.5930 O   0  0  0  0  0  0  0  0  0  0  0  0
  -21.4390  -29.9480   21.8640 H   0  0  0  0  0  0  0  0  0  0  0  0
  -18.5900  -28.0260   22.8410 C   0  0  0  0  0  0  0  0  0  0  0  0
  -21.1200  -28.3750   23.2360 C   0  0  0  0  0  3  0  0  0  0  0  0
  -21.3090  -26.9840   22.5860 C   0  0  0  0  0  2  0  0  0  0  0  0
  -20.2640  -26.6730   21.5100 C   0  0  0  0  0  2  0  0  0  0  0  0
  -18.8510  -26.7250   22.0990 C   0  0  0  0  0  2  0  0  0  0  0  0
  -19.6550  -28.8090   23.3600 C   0  0  0  0  0  0  0  0  0  0  0  0
  -19.3580  -30.0280   24.0070 C   0  0  0  0  0  3  0  0  0  0  0  0
  -18.0280  -30.4640   24.1430 C   0  0  0  0  0  3  0  0  0  0  0  0
  -16.9760  -29.6800   23.6390 C   0  0  0  0  0  3  0  0  0  0  0  0
  -17.2570  -28.4620   22.9950 C   0  0  0  0  0  3  0  0  0  0  0  0
  -26.1590  -32.7600   24.3640 C   0  0  0  0  0  3  0  0  0  0  0  0
  -25.8020  -34.1520   24.6660 N   0  0  0  0  0  0  0  0  0  0  0  0
  -26.1730  -35.2060   23.9270 C   0  0  0  0  0  0  0  0  0  0  0  0
  -26.9210  -35.1090   22.9510 O   0  0  0  0  0  0  0  0  0  0  0  0
  -25.1490  -34.2980   25.4220 H   0  0  0  0  0  0  0  0  0  0  0  0
  -24.4510  -36.9680   23.4220 C   0  0  0  0  0  1  0  0  0  0  0  0
  -25.6260  -36.5870   24.3370 C   0  0  0  0  0  3  0  0  0  0  0  0
  -27.6700  -37.5100   25.3370 C   0  0  0  0  0  1  0  0  0  0  0  0
  -26.6470  -37.6570   24.3060 N   0  0  0  0  0  0  0  0  0  0  0  0
  -26.2170  -38.5690   24.4210 H   0  0  0  0  0  0  0  0  0  0  0  0
  -26.5970  -31.9990   25.6750 C   0  0  1  0  0  0  0  0  0  0  0  0
  -25.4240  -31.6960   26.6370 C   0  0  0  0  0  1  0  0  0  0  0  0
  -27.2820  -30.6560   25.3290 C   0  0  0  0  0  1  0  0  0  0  0  0
  -27.6390  -32.8440   26.4440 C   0  0  0  0  0  1  0  0  0  0  0  0
  -30.5030  -19.9220   21.6200 C   0  0  0  0  0  2  0  0  0  0  0  0
  -30.6500  -17.3820   21.8250 C   0  0  0  0  0  3  0  0  0  0  0  0
  -30.3900  -16.3450   20.9650 C   0  0  0  0  0  0  0  0  0  0  0  0
  -29.7110  -18.2060   19.9700 C   0  0  0  0  0  3  0  0  0  0  0  0
  -30.2340  -18.5300   21.1770 N   0  0  0  0  0  0  0  0  0  0  0  0
  -29.8360  -16.8840   19.8440 N   0  0  0  0  0  0  0  0  0  0  0  0
  -29.6900  -16.3910   18.9730 H   0  0  0  0  0  0  0  0  0  0  0  0
  -31.1360  -15.0400   20.8890 C   0  0  0  0  0  0  0  0  0  0  0  0
  -30.8450  -12.9930   19.5820 C   0  0  0  0  0  2  0  0  0  0  0  0
  -29.9670  -13.3100   18.3560 C   0  0  0  0  0  2  0  0  0  0  0  0
  -28.4770  -13.1330   18.7060 C   0  0  0  0  0  2  0  0  0  0  0  0
  -28.0670  -13.8570   20.0160 C   0  0  0  0  0  3  0  0  0  0  0  0
  -29.0830  -13.6070   21.1530 C   0  0  0  0  0  2  0  0  0  0  0  0
  -30.4350  -13.8990   20.6620 N   0  0  0  0  0  0  0  0  0  0  0  0
  -32.3460  -15.1470   20.6810 O   0  0  0  0  0  0  0  0  0  0  0  0
  -25.6130  -14.3640   20.5870 C   0  0  0  0  0  0  0  0  0  0  0  0
  -24.5550  -13.5430   20.8740 C   0  0  0  0  0  0  0  0  0  0  0  0
  -25.0730  -12.2140   20.8680 C   0  0  0  0  0  0  0  0  0  0  0  0
  -26.7040  -13.5240   20.4140 N   0  0  0  0  0  0  0  0  0  0  0  0
  -26.3800  -12.2270   20.6450 N   0  0  0  0  0  0  0  0  0  0  0  0
  -24.3920  -10.9210   21.0000 C   0  0  0  0  0  0  0  0  0  0  0  0
  -24.7410  -10.0020   22.0120 C   0  0  0  0  0  3  0  0  0  0  0  0
  -24.0570   -8.7730   22.1270 C   0  0  0  0  0  3  0  0  0  0  0  0
  -23.0110   -8.4550   21.2290 C   0  0  0  0  0  0  0  0  0  0  0  0
  -22.6850   -9.3650   20.2080 C   0  0  0  0  0  3  0  0  0  0  0  0
  -23.3700  -10.5850   20.0900 C   0  0  0  0  0  3  0  0  0  0  0  0
  -22.3100   -7.2740   21.2510 O   0  0  0  0  0  0  0  0  0  0  0  0
  -22.0480   -6.6130   22.4230 C   0  0  0  0  0  0  0  0  0  0  0  0
  -21.3010   -7.2100   23.4630 C   0  0  0  0  0  3  0  0  0  0  0  0
  -20.9950   -6.4710   24.6220 C   0  0  0  0  0  3  0  0  0  0  0  0
  -21.4260   -5.1370   24.7420 C   0  0  0  0  0  0  0  0  0  0  0  0
  -22.1670   -4.5390   23.7060 C   0  0  0  0  0  3  0  0  0  0  0  0
  -22.4730   -5.2760   22.5490 C   0  0  0  0  0  0  0  0  0  0  0  0
  -23.1680   -4.6900   21.5450 F   0  0  0  0  0  0  0  0  0  0  0  0
  -21.1240   -4.4250   25.8530 F   0  0  0  0  0  0  0  0  0  0  0  0
  -23.1240  -13.9610   21.0550 C   0  0  0  0  0  0  0  0  0  0  0  0
  -22.3750  -13.2300   21.8750 N   0  0  0  0  0  0  0  0  0  0  0  0
  -22.6780  -14.9710   20.5140 O   0  0  0  0  0  0  0  0  0  0  0  0
  -22.7520  -12.4140   22.3350 H   0  0  0  0  0  0  0  0  0  0  0  0
  -21.4150  -13.4880   22.0480 H   0  0  0  0  0  0  0  0  0  0  0  0
  -25.7340  -15.7420   20.4430 N   0  0  0  0  0  0  0  0  0  0  0  0
  -24.9340  -16.3580   20.5320 H   0  0  0  0  0  0  0  0  0  0  0  0
  -26.5930  -16.2440   20.2620 H   0  0  0  0  0  0  0  0  0  0  0  0
  -29.2690  -19.1030   18.8480 C   0  0  0  0  0  2  0  0  0  0  0  0
  -27.7140  -17.3870   17.6050 C   0  0  0  0  0  1  0  0  0  0  0  0
  -27.8780  -18.7830   18.2420 C   0  0  0  0  0  2  0  0  0  0  0  0
  1 47  1  0
  1  2  1  0
  3  4  1  0
  3  2  1  0
  5  6  1  0
  5  4  1  0
  7 18  2  0
  8  6  1  0
  8 13  1  0
  9 17  1  0
  9 19  1  0
 10 16  1  0
 10 12  1  0
 11 17  1  0
 12 13  2  0
 12 11  1  0
 14  8  2  0
 15 14  1  0
 15 10  2  0
 16  9  1  0
 17  7  1  0
 19 21  2  0
 20 19  1  0
 22 20  1  0
 23 32  2  0
 23 28  1  0
 24 20  1  0
 24 28  1  0
 25 24  1  0
 26 27  1  0
 26 25  1  0
 27 23  1  0
 28 29  2  0
 29 30  1  0
 31 30  2  0
 32 31  1  0
 33  7  1  0
 33 34  1  0
 33 43  1  0
 34 37  1  0
 35 39  1  0
 35 34  1  0
 36 35  2  0
 39 38  1  0
 41 39  1  0
 41 42  1  0
 41 40  1  0
 43 46  1  1
 43 44  1  0
 45 43  1  0
 49 48  2  0
 50 90  1  0
 50 51  1  0
 51 47  1  0
 51 48  1  0
 52 50  1  0
 52 49  1  0
 53 52  1  0
 54 49  1  0
 55 60  1  0
 56 57  1  0
 56 55  1  0
 58 57  1  0
 58 65  1  0
 58 59  1  0
 60 54  1  0
 60 59  1  0
 61 54  2  0
 62 63  2  0
 63 82  1  0
 64 63  1  0
 64 67  1  0
 65 62  1  0
 65 66  1  0
 66 64  2  0
 67 68  1  0
 68 69  2  0
 70 73  1  0
 70 69  1  0
 71 70  2  0
 72 71  1  0
 72 67  2  0
 73 74  1  0
 74 79  2  0
 74 75  1  0
 75 76  2  0
 76 77  1  0
 77 81  1  0
 78 77  2  0
 79 78  1  0
 80 79  1  0
 82 83  1  0
 83 86  1  0
 83 85  1  0
 84 82  2  0
 87 88  1  0
 87 62  1  0
 89 87  1  0
 91 92  1  0
 92 90  1  0
M  ISO  4   5 101   6 101  49 100  54 100
M  END
>  <TORSDO>  (52) 
F 24

>  <SCORE>  (52) 
-10.602

>  <name>  (52) 
53

>  <ligand_id>  (52) 
53

>  <original_smiles>  (52) 
[H]c1c([H])c([H])c2c(c1[H])C([H])([H])C([H])([H])C([H])([H])C2([H])N([H])C(=O)C1([H])N(C(=O)C([H])(N([H])C(=O)C([H])(N([H])C([H])([H])[H])C([H])([H])[H])C(C([H])([H])[H])(C([H])([H])[H])C([H])([H])[H])C([H])([H])c2c([H])c(OC([H])([H])C([H])([H])C([H])([H])C([H])([H])C([H])([H])C([H])([H])n3c([H])c(C(=O)N4C([H])([H])C([H])([H])C([H])([H])C([H])(n5nc(-c6c([H])c([H])c(Oc7c([H])c([H])c(F)c([H])c7F)c([H])c6[H])c(C(=O)N([H])[H])c5N([H])[H])C4([H])[H])[n+]([H])c3C([H])([H])C([H])([H])C([H])([H])[H])c([H])c([H])c2C1([H])[H]

>  <smiles>  (52) 
[H]c1c([H])c([H])c2c(c1[H])C([H])([H])C([H])([H])C([H])([H])C2([H])N([H])C(=O)C1([H])N(C(=O)C([H])(N([H])C(=O)C([H])(N([H])C([H])([H])[H])C([H])([H])[H])C(C([H])([H])[H])(C([H])([H])[H])C([H])([H])[H])C([H])([H])c2c([H])c(OC([H])([H])C([H])([H])C([H])([H])C([H])([H])C([H])([H])C([H])([H])n3c([H])c(C(=O)N4C([H])([H])C([H])([H])C([H])([H])C([H])(n5nc(-c6c([H])c([H])c(Oc7c([H])c([H])c(F)c([H])c7F)c([H])c6[H])c(C(=O)N([H])[H])c5N([H])[H])C4([H])[H])[n+]([H])c3C([H])([H])C([H])([H])C([H])([H])[H])c([H])c([H])c2C1([H])[H]

$$$$
54:0:0
     RDKit          3D

 92100  0  0  1  0  0  0  0  0999 V2000
  -29.6440  -20.9080   19.2280 C   0  0  0  0  0  0  0  0  0  0  0  0
  -27.9470  -22.2700   20.8400 C   0  0  0  0  0  0  0  0  0  0  0  0
  -28.9840  -20.2530   20.3060 C   0  0  0  0  0  0  0  0  0  0  0  0
  -28.5870  -22.9200   19.7490 C   0  0  0  0  0  0  0  0  0  0  0  0
  -30.5680  -20.1790   18.2750 C   0  0  0  0  0  1  0  0  0  0  0  0
  -26.9450  -22.9730   21.7390 C   0  0  0  0  0  1  0  0  0  0  0  0
  -28.1610  -20.9580   21.1230 N   0  0  0  0  0  0  0  0  0  0  0  0
  -29.4580  -22.2300   18.9680 N   0  0  0  0  0  0  0  0  0  0  0  0
  -29.0620  -18.7330   20.5810 C   0  0  0  0  0  2  0  0  0  0  0  0
  -30.4750  -18.1400   20.8240 C   0  0  0  0  0  2  0  0  0  0  0  0
  -30.5620  -16.8590   21.7070 C   0  0  0  0  0  2  0  0  0  0  0  0
  -30.6670  -14.6570   20.4740 C   0  0  0  0  0  0  0  0  0  0  0  0
  -30.3750  -12.5360   19.2340 C   0  0  0  0  0  2  0  0  0  0  0  0
  -29.4140  -12.7500   18.0470 C   0  0  0  0  0  2  0  0  0  0  0  0
  -27.9470  -12.5840   18.4910 C   0  0  0  0  0  2  0  0  0  0  0  0
  -27.6160  -13.3910   19.7760 C   0  0  0  0  0  3  0  0  0  0  0  0
  -28.6830  -13.1480   20.8650 C   0  0  0  0  0  2  0  0  0  0  0  0
  -29.9940  -13.4880   20.2900 N   0  0  0  0  0  0  0  0  0  0  0  0
  -31.7820  -14.8710   19.9920 O   0  0  0  0  0  0  0  0  0  0  0  0
  -30.0000  -15.6140   21.1500 N   0  0  0  0  0  0  0  0  0  0  0  0
  -29.0690  -15.3660   21.4520 H   0  0  0  0  0  0  0  0  0  0  0  0
  -25.2150  -13.9660   20.4970 C   0  0  0  0  0  0  0  0  0  0  0  0
  -24.1580  -13.1790   20.8710 C   0  0  0  0  0  0  0  0  0  0  0  0
  -24.6370  -11.8340   20.8370 C   0  0  0  0  0  0  0  0  0  0  0  0
  -26.2690  -13.0980   20.2610 N   0  0  0  0  0  0  0  0  0  0  0  0
  -25.9260  -11.8100   20.5220 N   0  0  0  0  0  0  0  0  0  0  0  0
  -23.9290  -10.5610   21.0280 C   0  0  0  0  0  0  0  0  0  0  0  0
  -24.3750   -9.6020   21.9640 C   0  0  0  0  0  3  0  0  0  0  0  0
  -23.6670   -8.3940   22.1430 C   0  0  0  0  0  3  0  0  0  0  0  0
  -22.4990   -8.1370   21.3860 C   0  0  0  0  0  0  0  0  0  0  0  0
  -22.0730   -9.0860   20.4390 C   0  0  0  0  0  3  0  0  0  0  0  0
  -22.7810  -10.2850   20.2590 C   0  0  0  0  0  3  0  0  0  0  0  0
  -21.7620   -6.9820   21.4740 O   0  0  0  0  0  0  0  0  0  0  0  0
  -21.7150   -6.2440   22.6300 C   0  0  0  0  0  0  0  0  0  0  0  0
  -21.2670   -6.7960   23.8490 C   0  0  0  0  0  3  0  0  0  0  0  0
  -21.1700   -5.9830   24.9960 C   0  0  0  0  0  3  0  0  0  0  0  0
  -21.5100   -4.6180   24.9250 C   0  0  0  0  0  0  0  0  0  0  0  0
  -21.9520   -4.0660   23.7100 C   0  0  0  0  0  3  0  0  0  0  0  0
  -22.0510   -4.8760   22.5650 C   0  0  0  0  0  0  0  0  0  0  0  0
  -22.4560   -4.3330   21.3910 F   0  0  0  0  0  0  0  0  0  0  0  0
  -21.4100   -3.8360   26.0240 F   0  0  0  0  0  0  0  0  0  0  0  0
  -22.7560  -13.6370   21.1510 C   0  0  0  0  0  0  0  0  0  0  0  0
  -22.0410  -12.9280   22.0190 N   0  0  0  0  0  0  0  0  0  0  0  0
  -22.3030  -14.6580   20.6360 O   0  0  0  0  0  0  0  0  0  0  0  0
  -22.4220  -12.1030   22.4580 H   0  0  0  0  0  0  0  0  0  0  0  0
  -21.1000  -13.2170   22.2470 H   0  0  0  0  0  0  0  0  0  0  0  0
  -25.3610  -15.3380   20.3210 N   0  0  0  0  0  0  0  0  0  0  0  0
  -24.5870  -15.9830   20.4310 H   0  0  0  0  0  0  0  0  0  0  0  0
  -26.2040  -15.7850   19.9840 H   0  0  0  0  0  0  0  0  0  0  0  0
  -28.2580  -24.3560   19.2920 C   0  0  0  0  0  3  0  0  0  0  0  0
  -28.5820  -25.5160   20.2780 C   0  0  0  0  0  3  0  0  0  0  0  0
  -28.5100  -26.8570   19.7370 O   0  0  0  0  0  0  0  0  0  0  0  0
  -24.6550  -31.8640   23.0850 C   0  0  0  0  0  0  0  0  0  0  0  0
  -27.3160  -27.5470   19.8230 C   0  0  0  0  0  0  0  0  0  0  0  0
  -23.4420  -30.4880   21.4260 C   0  0  0  0  0  3  0  0  0  0  0  0
  -24.8950  -29.0190   19.9320 C   0  0  0  0  0  0  0  0  0  0  0  0
  -25.9580  -30.8970   21.1910 C   0  0  0  0  0  2  0  0  0  0  0  0
  -26.0560  -29.5440   20.5090 C   0  0  0  0  0  0  0  0  0  0  0  0
  -27.2710  -28.8180   20.4490 C   0  0  0  0  0  3  0  0  0  0  0  0
  -26.1350  -27.0440   19.2370 C   0  0  0  0  0  3  0  0  0  0  0  0
  -24.9290  -27.7690   19.2910 C   0  0  0  0  0  3  0  0  0  0  0  0
  -23.6370  -29.8540   20.0240 C   0  0  0  0  0  2  0  0  0  0  0  0
  -24.7040  -31.0970   21.9590 N   0  0  0  0  0  0  0  0  0  0  0  0
  -23.5800  -32.1020   23.6520 O   0  0  0  0  0  0  0  0  0  0  0  0
  -22.8280  -29.4270   22.3680 C   0  0  0  0  0  0  0  0  0  0  0  0
  -21.5040  -29.2340   22.2690 N   0  0  0  0  0  0  0  0  0  0  0  0
  -23.5400  -28.7810   23.1420 O   0  0  0  0  0  0  0  0  0  0  0  0
  -20.9890  -29.8100   21.6170 H   0  0  0  0  0  0  0  0  0  0  0  0
  -18.1550  -27.9900   22.8180 C   0  0  0  0  0  0  0  0  0  0  0  0
  -20.7170  -28.2600   23.0250 C   0  0  0  0  0  3  0  0  0  0  0  0
  -20.8130  -26.8540   22.3900 C   0  0  0  0  0  2  0  0  0  0  0  0
  -19.6850  -26.5600   21.3960 C   0  0  0  0  0  2  0  0  0  0  0  0
  -18.3210  -26.6680   22.0860 C   0  0  0  0  0  2  0  0  0  0  0  0
  -19.2800  -28.7450   23.2440 C   0  0  0  0  0  0  0  0  0  0  0  0
  -19.0700  -29.9830   23.8880 C   0  0  0  0  0  3  0  0  0  0  0  0
  -17.7670  -30.4680   24.1090 C   0  0  0  0  0  3  0  0  0  0  0  0
  -16.6570  -29.7100   23.7000 C   0  0  0  0  0  3  0  0  0  0  0  0
  -16.8510  -28.4720   23.0600 C   0  0  0  0  0  3  0  0  0  0  0  0
  -25.9420  -32.4990   23.6990 C   0  0  0  0  0  3  0  0  0  0  0  0
  -25.6100  -33.8750   24.0950 N   0  0  0  0  0  0  0  0  0  0  0  0
  -25.9030  -34.9640   23.3730 C   0  0  0  0  0  0  0  0  0  0  0  0
  -26.5550  -34.9190   22.3260 O   0  0  0  0  0  0  0  0  0  0  0  0
  -25.0300  -33.9830   24.9140 H   0  0  0  0  0  0  0  0  0  0  0  0
  -24.1350  -36.7330   23.1200 C   0  0  0  0  0  1  0  0  0  0  0  0
  -25.3950  -36.3210   23.8970 C   0  0  0  0  0  3  0  0  0  0  0  0
  -27.5230  -37.2110   24.7390 C   0  0  0  0  0  1  0  0  0  0  0  0
  -26.4060  -37.3970   23.8150 N   0  0  0  0  0  0  0  0  0  0  0  0
  -25.9860  -38.3030   24.0070 H   0  0  0  0  0  0  0  0  0  0  0  0
  -26.5110  -31.6870   24.9270 C   0  0  1  0  0  0  0  0  0  0  0  0
  -25.4530  -31.3790   26.0130 C   0  0  0  0  0  1  0  0  0  0  0  0
  -27.1140  -30.3400   24.4590 C   0  0  0  0  0  1  0  0  0  0  0  0
  -27.6630  -32.4790   25.5900 C   0  0  0  0  0  1  0  0  0  0  0  0
  1  3  1  0
  2  7  1  0
  2  6  1  0
  3  9  1  0
  3  7  2  0
  4  2  2  0
  5  1  1  0
  8  1  2  0
  8  4  1  0
  9 10  1  0
 10 11  1  0
 12 20  1  0
 13 18  1  0
 14 15  1  0
 14 13  1  0
 16 15  1  0
 16 25  1  0
 16 17  1  0
 18 12  1  0
 18 17  1  0
 19 12  2  0
 20 21  1  0
 20 11  1  0
 22 23  2  0
 23 42  1  0
 24 23  1  0
 24 27  1  0
 25 22  1  0
 25 26  1  0
 26 24  2  0
 27 28  1  0
 28 29  2  0
 30 33  1  0
 30 29  1  0
 31 30  2  0
 32 31  1  0
 32 27  2  0
 33 34  1  0
 34 35  1  0
 35 36  2  0
 37 36  1  0
 37 41  1  0
 38 37  2  0
 39 34  2  0
 39 38  1  0
 40 39  1  0
 42 43  1  0
 43 46  1  0
 43 45  1  0
 44 42  2  0
 47 48  1  0
 47 22  1  0
 49 47  1  0
 50  4  1  0
 50 51  2  0
 52 54  1  0
 52 51  1  0
 53 64  2  0
 54 59  1  0
 55 63  1  0
 55 65  1  0
 56 62  1  0
 56 58  1  0
 57 63  1  0
 58 57  1  0
 59 58  2  0
 60 61  1  0
 60 54  2  0
 61 56  2  0
 62 55  1  0
 63 53  1  0
 65 67  2  0
 66 65  1  0
 68 66  1  0
 69 78  2  0
 69 74  1  0
 70 66  1  0
 70 74  1  0
 71 70  1  0
 72 73  1  0
 72 71  1  0
 73 69  1  0
 74 75  2  0
 75 76  1  0
 77 76  2  0
 78 77  1  0
 79 53  1  0
 79 80  1  0
 79 89  1  0
 80 83  1  0
 81 85  1  0
 81 80  1  0
 82 81  2  0
 85 84  1  0
 87 85  1  0
 87 88  1  0
 87 86  1  0
 89 92  1  1
 89 90  1  0
 91 89  1  0
M  ISO  4  12 100  20 100  51 101  52 101
M  END
>  <TORSDO>  (53) 
F 21

>  <SCORE>  (53) 
-13.519

>  <name>  (53) 
54

>  <ligand_id>  (53) 
54

>  <original_smiles>  (53) 
[H]c1c([H])c([H])c2c(c1[H])C([H])([H])C([H])([H])C([H])([H])C2([H])N([H])C(=O)C1([H])N(C(=O)C([H])(N([H])C(=O)C([H])(N([H])C([H])([H])[H])C([H])([H])[H])C(C([H])([H])[H])(C([H])([H])[H])C([H])([H])[H])C([H])([H])c2c([H])c(OC([H])([H])C([H])([H])c3nc(C([H])([H])[H])c(C([H])([H])C([H])([H])C([H])([H])N([H])C(=O)N4C([H])([H])C([H])([H])C([H])([H])C([H])(n5nc(-c6c([H])c([H])c(Oc7c([H])c([H])c(F)c([H])c7F)c([H])c6[H])c(C(=O)N([H])[H])c5N([H])[H])C4([H])[H])nc3C([H])([H])[H])c([H])c([H])c2C1([H])[H]

>  <smiles>  (53) 
[H]c1c([H])c([H])c2c(c1[H])C([H])([H])C([H])([H])C([H])([H])C2([H])N([H])C(=O)C1([H])N(C(=O)C([H])(N([H])C(=O)C([H])(N([H])C([H])([H])[H])C([H])([H])[H])C(C([H])([H])[H])(C([H])([H])[H])C([H])([H])[H])C([H])([H])c2c([H])c(OC([H])([H])C([H])([H])c3nc(C([H])([H])[H])c(C([H])([H])C([H])([H])C([H])([H])N([H])C(=O)N4C([H])([H])C([H])([H])C([H])([H])C([H])(n5nc(-c6c([H])c([H])c(Oc7c([H])c([H])c(F)c([H])c7F)c([H])c6[H])c(C(=O)N([H])[H])c5N([H])[H])C4([H])[H])nc3C([H])([H])[H])c([H])c([H])c2C1([H])[H]

$$$$
55:0:0
     RDKit          3D

 98106  0  0  1  0  0  0  0  0999 V2000
  -30.3100  -22.0330   19.4030 C   0  0  0  0  0  0  0  0  0  0  0  0
  -29.5300  -22.6710   20.3590 C   0  0  0  0  0  0  0  0  0  0  0  0
  -29.5340  -20.0790   20.4300 C   0  0  0  0  0  0  0  0  0  0  0  0
  -30.2540  -20.6140   19.4300 N   0  0  0  0  0  0  0  0  0  0  0  0
  -28.7840  -21.4120   21.3730 S   0  0  0  0  0  0  0  0  0  0  0  0
  -31.2150  -22.6810   18.3820 C   0  0  0  0  0  2  0  0  0  0  0  0
  -30.4450  -23.5510   17.4730 N   0  0  0  0  0  4  0  0  0  0  0  0
  -29.4780  -23.4250   17.7210 H   0  0  0  0  0  0  0  0  0  0  0  0
  -30.5670  -23.1970   16.5390 H   0  0  0  0  0  0  0  0  0  0  0  0
  -30.8230  -24.9830   17.5150 C   0  0  0  0  0  2  0  0  0  0  0  0
  -29.8210  -25.9000   16.7770 C   0  0  0  0  0  2  0  0  0  0  0  0
  -31.3520  -26.6010   14.8500 C   0  0  0  0  0  1  0  0  0  0  0  0
  -29.9900  -25.9970   15.2410 C   0  0  0  0  0  3  0  0  0  0  0  0
  -27.5010  -26.1090   14.5700 C   0  0  0  0  0  1  0  0  0  0  0  0
  -28.8560  -26.8290   14.6020 C   0  0  0  0  0  2  0  0  0  0  0  0
  -29.4180  -24.2050   20.6690 C   0  0  0  0  0  3  0  0  0  0  0  0
  -28.2400  -25.1130   20.0920 C   0  0  0  0  0  3  0  0  0  0  0  0
  -28.3640  -26.5830   20.2650 O   0  0  0  0  0  0  0  0  0  0  0  0
  -24.6070  -31.9440   23.2580 C   0  0  0  0  0  0  0  0  0  0  0  0
  -27.2250  -27.4050   20.1970 C   0  0  0  0  0  0  0  0  0  0  0  0
  -23.3970  -30.5510   21.6150 C   0  0  0  0  0  3  0  0  0  0  0  0
  -24.8470  -29.0040   20.1820 C   0  0  0  0  0  0  0  0  0  0  0  0
  -25.9310  -30.8820   21.4160 C   0  0  0  0  0  2  0  0  0  0  0  0
  -26.0150  -29.5020   20.7720 C   0  0  0  0  0  0  0  0  0  0  0  0
  -27.2050  -28.7160   20.7650 C   0  0  0  0  0  3  0  0  0  0  0  0
  -26.0330  -26.9550   19.5840 C   0  0  0  0  0  3  0  0  0  0  0  0
  -24.8590  -27.7360   19.5770 C   0  0  0  0  0  3  0  0  0  0  0  0
  -23.6060  -29.8740   20.2340 C   0  0  0  0  0  2  0  0  0  0  0  0
  -24.6640  -31.1430   22.1560 N   0  0  0  0  0  0  0  0  0  0  0  0
  -23.5260  -32.2200   23.7990 O   0  0  0  0  0  0  0  0  0  0  0  0
  -22.7340  -29.5340   22.5770 C   0  0  0  0  0  0  0  0  0  0  0  0
  -21.4080  -29.3590   22.4520 N   0  0  0  0  0  0  0  0  0  0  0  0
  -23.4130  -28.9050   23.3920 O   0  0  0  0  0  0  0  0  0  0  0  0
  -20.9150  -29.9170   21.7680 H   0  0  0  0  0  0  0  0  0  0  0  0
  -18.0310  -28.1690   22.9520 C   0  0  0  0  0  0  0  0  0  0  0  0
  -20.5900  -28.4230   23.2240 C   0  0  0  0  0  3  0  0  0  0  0  0
  -20.6890  -26.9910   22.6470 C   0  0  0  0  0  2  0  0  0  0  0  0
  -19.5870  -26.6730   21.6320 C   0  0  0  0  0  2  0  0  0  0  0  0
  -18.2060  -26.8210   22.2760 C   0  0  0  0  0  2  0  0  0  0  0  0
  -19.1510  -28.9290   23.3840 C   0  0  0  0  0  0  0  0  0  0  0  0
  -18.9320  -30.1930   23.9750 C   0  0  0  0  0  3  0  0  0  0  0  0
  -17.6280  -30.6930   24.1440 C   0  0  0  0  0  3  0  0  0  0  0  0
  -16.5230  -29.9300   23.7300 C   0  0  0  0  0  3  0  0  0  0  0  0
  -16.7260  -28.6700   23.1360 C   0  0  0  0  0  3  0  0  0  0  0  0
  -25.8920  -32.5730   23.8790 C   0  0  0  0  0  3  0  0  0  0  0  0
  -26.4080  -31.7990   25.1540 C   0  0  1  0  0  0  0  0  0  0  0  0
  -25.3150  -31.5630   26.2230 C   0  0  0  0  0  1  0  0  0  0  0  0
  -26.9820  -30.4190   24.7580 C   0  0  0  0  0  1  0  0  0  0  0  0
  -27.5610  -32.5880   25.8190 C   0  0  0  0  0  1  0  0  0  0  0  0
  -25.5880  -33.9730   24.2090 N   0  0  0  0  0  0  0  0  0  0  0  0
  -25.9160  -35.0240   23.4450 C   0  0  0  0  0  0  0  0  0  0  0  0
  -26.5760  -34.9160   22.4080 O   0  0  0  0  0  0  0  0  0  0  0  0
  -24.9980  -34.1300   25.0120 H   0  0  0  0  0  0  0  0  0  0  0  0
  -24.1820  -36.8160   23.1200 C   0  0  0  0  0  1  0  0  0  0  0  0
  -25.4400  -36.4140   23.9060 C   0  0  0  0  0  3  0  0  0  0  0  0
  -27.5900  -37.3050   24.6900 C   0  0  0  0  0  1  0  0  0  0  0  0
  -26.4690  -37.4670   23.7680 N   0  0  0  0  0  0  0  0  0  0  0  0
  -26.0640  -38.3860   23.9200 H   0  0  0  0  0  0  0  0  0  0  0  0
  -29.1770  -18.5660   20.5630 C   0  0  0  0  0  2  0  0  0  0  0  0
  -30.2820  -17.3870   20.5990 C   0  0  0  0  0  2  0  0  0  0  0  0
  -30.5770  -14.8100   20.3240 C   0  0  0  0  0  0  0  0  0  0  0  0
  -30.3660  -12.5000   19.4060 C   0  0  0  0  0  2  0  0  0  0  0  0
  -29.4320  -12.4730   18.1760 C   0  0  0  0  0  2  0  0  0  0  0  0
  -27.9510  -12.3630   18.6010 C   0  0  0  0  0  2  0  0  0  0  0  0
  -27.5630  -13.2810   19.7940 C   0  0  0  0  0  3  0  0  0  0  0  0
  -28.6320  -13.2690   20.9100 C   0  0  0  0  0  2  0  0  0  0  0  0
  -29.9230  -13.5970   20.2910 N   0  0  0  0  0  0  0  0  0  0  0  0
  -31.8000  -14.8590   20.1820 O   0  0  0  0  0  0  0  0  0  0  0  0
  -29.1310  -16.1270   18.9120 C   0  0  0  0  0  1  0  0  0  0  0  0
  -29.8250  -15.9810   20.2050 N   0  0  0  0  0  0  0  0  0  0  0  0
  -25.1890  -13.8960   20.5400 C   0  0  0  0  0  0  0  0  0  0  0  0
  -24.1170  -13.1280   20.9030 C   0  0  0  0  0  0  0  0  0  0  0  0
  -24.5740  -11.7740   20.8670 C   0  0  0  0  0  0  0  0  0  0  0  0
  -26.2260  -13.0070   20.2990 N   0  0  0  0  0  0  0  0  0  0  0  0
  -25.8630  -11.7270   20.5600 N   0  0  0  0  0  0  0  0  0  0  0  0
  -23.8450  -10.5150   21.0500 C   0  0  0  0  0  0  0  0  0  0  0  0
  -24.2710   -9.5470   21.9860 C   0  0  0  0  0  3  0  0  0  0  0  0
  -23.5410   -8.3500   22.1560 C   0  0  0  0  0  3  0  0  0  0  0  0
  -22.3740   -8.1150   21.3900 C   0  0  0  0  0  0  0  0  0  0  0  0
  -21.9730   -9.0710   20.4400 C   0  0  0  0  0  3  0  0  0  0  0  0
  -22.7020  -10.2580   20.2680 C   0  0  0  0  0  3  0  0  0  0  0  0
  -21.6220   -6.9690   21.4670 O   0  0  0  0  0  0  0  0  0  0  0  0
  -21.5530   -6.2300   22.6190 C   0  0  0  0  0  0  0  0  0  0  0  0
  -21.1050   -6.7870   23.8380 C   0  0  0  0  0  3  0  0  0  0  0  0
  -20.9870   -5.9750   24.9820 C   0  0  0  0  0  3  0  0  0  0  0  0
  -21.3040   -4.6050   24.9110 C   0  0  0  0  0  0  0  0  0  0  0  0
  -21.7450   -4.0480   23.6980 C   0  0  0  0  0  3  0  0  0  0  0  0
  -21.8660   -4.8570   22.5550 C   0  0  0  0  0  0  0  0  0  0  0  0
  -22.2710   -4.3100   21.3840 F   0  0  0  0  0  0  0  0  0  0  0  0
  -21.1830   -3.8230   26.0080 F   0  0  0  0  0  0  0  0  0  0  0  0
  -22.7220  -13.6110   21.1740 C   0  0  0  0  0  0  0  0  0  0  0  0
  -21.9900  -12.9100   22.0340 N   0  0  0  0  0  0  0  0  0  0  0  0
  -22.2880  -14.6390   20.6560 O   0  0  0  0  0  0  0  0  0  0  0  0
  -22.3540  -12.0770   22.4710 H   0  0  0  0  0  0  0  0  0  0  0  0
  -21.0480  -13.2020   22.2490 H   0  0  0  0  0  0  0  0  0  0  0  0
  -25.3640  -15.2680   20.3700 N   0  0  0  0  0  0  0  0  0  0  0  0
  -24.6150  -15.9380   20.4990 H   0  0  0  0  0  0  0  0  0  0  0  0
  -26.2380  -15.6970   20.0930 H   0  0  0  0  0  0  0  0  0  0  0  0
  1  4  1  0
  1  2  2  0
  2 16  1  0
  2  5  1  0
  3 59  1  0
  3  5  1  0
  4  3  2  0
  6  1  1  0
  7 10  1  0
  7  8  1  0
  7  6  1  0
  9  7  1  0
 11 10  1  0
 13 12  1  0
 13 11  1  0
 14 15  1  0
 15 13  1  0
 17 18  1  0
 17 16  2  0
 19 30  2  0
 20 18  1  0
 20 25  1  0
 21 29  1  0
 21 31  1  0
 22 28  1  0
 22 24  1  0
 23 29  1  0
 24 23  1  0
 25 24  2  0
 26 20  2  0
 27 26  1  0
 27 22  2  0
 28 21  1  0
 29 19  1  0
 31 33  2  0
 32 31  1  0
 34 32  1  0
 35 44  2  0
 35 40  1  0
 36 32  1  0
 36 40  1  0
 37 36  1  0
 38 39  1  0
 38 37  1  0
 39 35  1  0
 40 41  2  0
 41 42  1  0
 43 42  2  0
 44 43  1  0
 45 19  1  0
 45 50  1  0
 45 46  1  0
 46 49  1  1
 46 47  1  0
 48 46  1  0
 50 53  1  0
 51 55  1  0
 51 50  1  0
 52 51  2  0
 55 54  1  0
 57 55  1  0
 57 58  1  0
 57 56  1  0
 59 60  1  0
 62 67  1  0
 63 64  1  0
 63 62  1  0
 65 64  1  0
 65 74  1  0
 65 66  1  0
 67 61  1  0
 67 66  1  0
 68 61  2  0
 69 70  1  0
 70 61  1  0
 70 60  1  0
 71 72  2  0
 72 91  1  0
 73 72  1  0
 73 76  1  0
 74 71  1  0
 74 75  1  0
 75 73  2  0
 76 77  1  0
 77 78  2  0
 79 82  1  0
 79 78  1  0
 80 79  2  0
 81 80  1  0
 81 76  2  0
 82 83  1  0
 83 84  1  0
 84 85  2  0
 86 85  1  0
 86 90  1  0
 87 86  2  0
 88 83  2  0
 88 87  1  0
 89 88  1  0
 91 92  1  0
 92 95  1  0
 92 94  1  0
 93 91  2  0
 96 97  1  0
 96 71  1  0
 98 96  1  0
M  ISO  4  17 101  18 101  61 100  70 100
M  END
>  <TORSDO>  (54) 
F 26

>  <SCORE>  (54) 
-11.856

>  <name>  (54) 
55

>  <ligand_id>  (54) 
55

>  <original_smiles>  (54) 
[H]c1c([H])c([H])c2c(c1[H])C([H])([H])C([H])([H])C([H])([H])C2([H])N([H])C(=O)C1([H])N(C(=O)C([H])(N([H])C(=O)C([H])(N([H])C([H])([H])[H])C([H])([H])[H])C(C([H])([H])[H])(C([H])([H])[H])C([H])([H])[H])C([H])([H])c2c([H])c(OC([H])([H])C([H])([H])c3sc(C([H])([H])C([H])([H])N(C(=O)N4C([H])([H])C([H])([H])C([H])([H])C([H])(n5nc(-c6c([H])c([H])c(Oc7c([H])c([H])c(F)c([H])c7F)c([H])c6[H])c(C(=O)N([H])[H])c5N([H])[H])C4([H])[H])C([H])([H])[H])nc3C([H])([H])[N+]([H])([H])C([H])([H])C([H])([H])C([H])(C([H])([H])[H])C([H])([H])C([H])([H])[H])c([H])c([H])c2C1([H])[H]

>  <smiles>  (54) 
[H]c1c([H])c([H])c2c(c1[H])C([H])([H])C([H])([H])C([H])([H])C2([H])N([H])C(=O)C1([H])N(C(=O)C([H])(N([H])C(=O)C([H])(N([H])C([H])([H])[H])C([H])([H])[H])C(C([H])([H])[H])(C([H])([H])[H])C([H])([H])[H])C([H])([H])c2c([H])c(OC([H])([H])C([H])([H])c3sc(C([H])([H])C([H])([H])N(C(=O)N4C([H])([H])C([H])([H])C([H])([H])C([H])(n5nc(-c6c([H])c([H])c(Oc7c([H])c([H])c(F)c([H])c7F)c([H])c6[H])c(C(=O)N([H])[H])c5N([H])[H])C4([H])[H])C([H])([H])[H])nc3C([H])([H])[N+]([H])([H])C([H])([H])C([H])([H])C([H])(C([H])([H])[H])C([H])([H])C([H])([H])[H])c([H])c([H])c2C1([H])[H]

$$$$
56:0:0
     RDKit          3D

 90 98  0  0  1  0  0  0  0  0999 V2000
  -27.3780  -20.1740   18.5100 C   0  0  0  0  0  3  0  0  0  0  0  0
  -27.3910  -22.2840   18.8720 C   0  0  0  0  0  3  0  0  0  0  0  0
  -28.4260  -20.4200   19.3710 C   0  0  0  0  0  0  0  0  0  0  0  0
  -26.7220  -21.3590   18.1960 N   0  0  0  0  0  0  0  0  0  0  0  0
  -28.4310  -21.8230   19.5880 N   0  0  0  0  0  0  0  0  0  0  0  0
  -29.4370  -19.4200   19.9060 C   0  0  0  0  0  2  0  0  0  0  0  0
  -28.9960  -17.9140   20.0250 C   0  0  0  0  0  2  0  0  0  0  0  0
  -30.2080  -16.9160   20.0860 C   0  0  0  0  0  2  0  0  0  0  0  0
  -30.6320  -14.4480   20.0530 C   0  0  0  0  0  0  0  0  0  0  0  0
  -30.2820  -12.3120   18.8430 C   0  0  0  0  0  2  0  0  0  0  0  0
  -29.2710  -12.5610   17.7040 C   0  0  0  0  0  2  0  0  0  0  0  0
  -27.8200  -12.4280   18.2150 C   0  0  0  0  0  2  0  0  0  0  0  0
  -27.5780  -13.2040   19.5390 C   0  0  0  0  0  3  0  0  0  0  0  0
  -28.6880  -12.8750   20.5510 C   0  0  0  0  0  2  0  0  0  0  0  0
  -29.9660  -13.2580   19.9300 N   0  0  0  0  0  0  0  0  0  0  0  0
  -31.7260  -14.6180   19.4950 O   0  0  0  0  0  0  0  0  0  0  0  0
  -29.5270  -15.5130   21.9690 C   0  0  0  0  0  1  0  0  0  0  0  0
  -29.9350  -15.5220   20.5550 N   0  0  0  0  0  0  0  0  0  0  0  0
  -25.2390  -13.8380   20.3990 C   0  0  0  0  0  0  0  0  0  0  0  0
  -24.1850  -13.0730   20.8190 C   0  0  0  0  0  0  0  0  0  0  0  0
  -24.6240  -11.7150   20.7430 C   0  0  0  0  0  0  0  0  0  0  0  0
  -26.2530  -12.9450   20.0910 N   0  0  0  0  0  0  0  0  0  0  0  0
  -25.8910  -11.6620   20.3500 N   0  0  0  0  0  0  0  0  0  0  0  0
  -23.8950  -10.4610   20.9640 C   0  0  0  0  0  0  0  0  0  0  0  0
  -24.3590   -9.4900   21.8790 C   0  0  0  0  0  3  0  0  0  0  0  0
  -23.6310   -8.2980   22.0850 C   0  0  0  0  0  3  0  0  0  0  0  0
  -22.4280   -8.0700   21.3760 C   0  0  0  0  0  0  0  0  0  0  0  0
  -21.9850   -9.0300   20.4490 C   0  0  0  0  0  3  0  0  0  0  0  0
  -22.7110  -10.2130   20.2400 C   0  0  0  0  0  3  0  0  0  0  0  0
  -21.6670   -6.9290   21.4900 O   0  0  0  0  0  0  0  0  0  0  0  0
  -21.6300   -6.2050   22.6540 C   0  0  0  0  0  0  0  0  0  0  0  0
  -21.2350   -6.7860   23.8810 C   0  0  0  0  0  3  0  0  0  0  0  0
  -21.1400   -5.9870   25.0380 C   0  0  0  0  0  3  0  0  0  0  0  0
  -21.4340   -4.6120   24.9720 C   0  0  0  0  0  0  0  0  0  0  0  0
  -21.8250   -4.0330   23.7530 C   0  0  0  0  0  3  0  0  0  0  0  0
  -21.9210   -4.8270   22.5970 C   0  0  0  0  0  0  0  0  0  0  0  0
  -22.2760   -4.2610   21.4190 F   0  0  0  0  0  0  0  0  0  0  0  0
  -21.3380   -3.8450   26.0830 F   0  0  0  0  0  0  0  0  0  0  0  0
  -22.8180  -13.5650   21.1900 C   0  0  0  0  0  0  0  0  0  0  0  0
  -22.1440  -12.8740   22.1020 N   0  0  0  0  0  0  0  0  0  0  0  0
  -22.3580  -14.5960   20.7030 O   0  0  0  0  0  0  0  0  0  0  0  0
  -22.5310  -12.0400   22.5190 H   0  0  0  0  0  0  0  0  0  0  0  0
  -21.2210  -13.1790   22.3820 H   0  0  0  0  0  0  0  0  0  0  0  0
  -25.4150  -15.2120   20.2430 N   0  0  0  0  0  0  0  0  0  0  0  0
  -24.6740  -15.8800   20.4260 H   0  0  0  0  0  0  0  0  0  0  0  0
  -26.2750  -15.6550   19.9420 H   0  0  0  0  0  0  0  0  0  0  0  0
  -29.3230  -22.6480   20.4230 C   0  0  0  0  0  2  0  0  0  0  0  0
  -29.4500  -24.1720   20.0370 C   0  0  0  0  0  2  0  0  0  0  0  0
  -28.3800  -25.1500   20.6160 C   0  0  0  0  0  2  0  0  0  0  0  0
  -28.5340  -26.5350   20.1840 O   0  0  0  0  0  0  0  0  0  0  0  0
  -24.6380  -31.7640   23.1480 C   0  0  0  0  0  0  0  0  0  0  0  0
  -27.3800  -27.3080   20.1430 C   0  0  0  0  0  0  0  0  0  0  0  0
  -23.4850  -30.3480   21.4860 C   0  0  0  0  0  3  0  0  0  0  0  0
  -24.9820  -28.8290   20.0900 C   0  0  0  0  0  0  0  0  0  0  0  0
  -26.0140  -30.7300   21.3380 C   0  0  0  0  0  2  0  0  0  0  0  0
  -26.1280  -29.3560   20.6990 C   0  0  0  0  0  0  0  0  0  0  0  0
  -27.3330  -28.6060   20.7150 C   0  0  0  0  0  3  0  0  0  0  0  0
  -26.2180  -26.8150   19.5090 C   0  0  0  0  0  3  0  0  0  0  0  0
  -25.0250  -27.5590   19.4900 C   0  0  0  0  0  3  0  0  0  0  0  0
  -23.7290  -29.6780   20.1080 C   0  0  0  0  0  2  0  0  0  0  0  0
  -24.7300  -30.9630   22.0490 N   0  0  0  0  0  0  0  0  0  0  0  0
  -23.5420  -32.0220   23.6640 O   0  0  0  0  0  0  0  0  0  0  0  0
  -22.8240  -29.3200   22.4330 C   0  0  0  0  0  0  0  0  0  0  0  0
  -21.5010  -29.1410   22.2950 N   0  0  0  0  0  0  0  0  0  0  0  0
  -23.5020  -28.6870   23.2480 O   0  0  0  0  0  0  0  0  0  0  0  0
  -21.0190  -29.6990   21.6030 H   0  0  0  0  0  0  0  0  0  0  0  0
  -18.1170  -27.9570   22.7710 C   0  0  0  0  0  0  0  0  0  0  0  0
  -20.6770  -28.1970   23.0510 C   0  0  0  0  0  3  0  0  0  0  0  0
  -20.7720  -26.7740   22.4520 C   0  0  0  0  0  2  0  0  0  0  0  0
  -19.6680  -26.4730   21.4330 C   0  0  0  0  0  2  0  0  0  0  0  0
  -18.2870  -26.6170   22.0770 C   0  0  0  0  0  2  0  0  0  0  0  0
  -19.2400  -28.7070   23.2140 C   0  0  0  0  0  0  0  0  0  0  0  0
  -19.0260  -29.9640   23.8220 C   0  0  0  0  0  3  0  0  0  0  0  0
  -17.7220  -30.4690   23.9920 C   0  0  0  0  0  3  0  0  0  0  0  0
  -16.6160  -29.7150   23.5650 C   0  0  0  0  0  3  0  0  0  0  0  0
  -16.8140  -28.4610   22.9610 C   0  0  0  0  0  3  0  0  0  0  0  0
  -25.9020  -32.4110   23.7950 C   0  0  0  0  0  3  0  0  0  0  0  0
  -25.5580  -33.7970   24.1470 N   0  0  0  0  0  0  0  0  0  0  0  0
  -25.8680  -34.8700   23.4090 C   0  0  0  0  0  0  0  0  0  0  0  0
  -26.5440  -34.7990   22.3780 O   0  0  0  0  0  0  0  0  0  0  0  0
  -24.9510  -33.9210   24.9450 H   0  0  0  0  0  0  0  0  0  0  0  0
  -24.0900  -36.6180   23.0860 C   0  0  0  0  0  1  0  0  0  0  0  0
  -25.3450  -36.2370   23.8870 C   0  0  0  0  0  3  0  0  0  0  0  0
  -27.4620  -37.1660   24.7170 C   0  0  0  0  0  1  0  0  0  0  0  0
  -26.3500  -37.3180   23.7830 N   0  0  0  0  0  0  0  0  0  0  0  0
  -25.9230  -38.2270   23.9400 H   0  0  0  0  0  0  0  0  0  0  0  0
  -26.4230  -31.6260   25.0620 C   0  0  1  0  0  0  0  0  0  0  0  0
  -25.3250  -31.3450   26.1140 C   0  0  0  0  0  1  0  0  0  0  0  0
  -27.0400  -30.2690   24.6490 C   0  0  0  0  0  1  0  0  0  0  0  0
  -27.5520  -32.4310   25.7460 C   0  0  0  0  0  1  0  0  0  0  0  0
  1  3  2  0
  2  5  1  0
  3  5  1  0
  3  6  1  0
  4  1  1  0
  4  2  2  0
  5 47  1  0
  6  7  1  0
  7  8  1  0
  8 18  1  0
  9 18  1  0
 10 15  1  0
 11 12  1  0
 11 10  1  0
 13 12  1  0
 13 22  1  0
 13 14  1  0
 15  9  1  0
 15 14  1  0
 16  9  2  0
 18 17  1  0
 19 20  2  0
 20 39  1  0
 21 20  1  0
 21 24  1  0
 22 23  1  0
 22 19  1  0
 23 21  2  0
 24 25  1  0
 25 26  2  0
 27 30  1  0
 27 26  1  0
 28 27  2  0
 29 28  1  0
 29 24  2  0
 30 31  1  0
 31 32  1  0
 32 33  2  0
 34 33  1  0
 34 38  1  0
 35 34  2  0
 36 31  2  0
 36 35  1  0
 37 36  1  0
 39 40  1  0
 40 43  1  0
 40 42  1  0
 41 39  2  0
 44 19  1  0
 44 45  1  0
 46 44  1  0
 48 47  1  0
 48 49  1  0
 50 49  1  0
 51 62  2  0
 52 50  1  0
 52 57  1  0
 53 61  1  0
 53 63  1  0
 54 60  1  0
 54 56  1  0
 55 61  1  0
 56 57  2  0
 56 55  1  0
 58 52  2  0
 59 58  1  0
 59 54  2  0
 60 53  1  0
 61 51  1  0
 63 65  2  0
 64 63  1  0
 66 64  1  0
 67 76  2  0
 67 72  1  0
 68 64  1  0
 68 72  1  0
 69 68  1  0
 70 71  1  0
 70 69  1  0
 71 67  1  0
 72 73  2  0
 73 74  1  0
 75 74  2  0
 76 75  1  0
 77 51  1  0
 77 78  1  0
 77 87  1  0
 78 81  1  0
 79 83  1  0
 79 78  1  0
 80 79  2  0
 83 82  1  0
 85 83  1  0
 85 86  1  0
 85 84  1  0
 87 90  1  1
 87 88  1  0
 89 87  1  0
M  ISO  4   9 100  18 100  49 101  50 101
M  END
>  <TORSDO>  (55) 
F 22

>  <SCORE>  (55) 
-12.319

>  <name>  (55) 
56

>  <ligand_id>  (55) 
56

>  <original_smiles>  (55) 
[H]c1nc([H])n(C([H])([H])C([H])([H])C([H])([H])Oc2c([H])c([H])c3c(c2[H])C([H])([H])N(C(=O)C([H])(N([H])C(=O)C([H])(N([H])C([H])([H])[H])C([H])([H])[H])C(C([H])([H])[H])(C([H])([H])[H])C([H])([H])[H])C([H])(C(=O)N([H])C2([H])c4c([H])c([H])c([H])c([H])c4C([H])([H])C([H])([H])C2([H])[H])C3([H])[H])c1C([H])([H])C([H])([H])C([H])([H])N(C(=O)N1C([H])([H])C([H])([H])C([H])([H])C([H])(n2nc(-c3c([H])c([H])c(Oc4c([H])c([H])c(F)c([H])c4F)c([H])c3[H])c(C(=O)N([H])[H])c2N([H])[H])C1([H])[H])C([H])([H])[H]

>  <smiles>  (55) 
[H]c1nc([H])n(C([H])([H])C([H])([H])C([H])([H])Oc2c([H])c([H])c3c(c2[H])C([H])([H])N(C(=O)C([H])(N([H])C(=O)C([H])(N([H])C([H])([H])[H])C([H])([H])[H])C(C([H])([H])[H])(C([H])([H])[H])C([H])([H])[H])C([H])(C(=O)N([H])C2([H])c4c([H])c([H])c([H])c([H])c4C([H])([H])C([H])([H])C2([H])[H])C3([H])[H])c1C([H])([H])C([H])([H])C([H])([H])N(C(=O)N1C([H])([H])C([H])([H])C([H])([H])C([H])(n2nc(-c3c([H])c([H])c(Oc4c([H])c([H])c(F)c([H])c4F)c([H])c3[H])c(C(=O)N([H])[H])c2N([H])[H])C1([H])[H])C([H])([H])[H]

$$$$
57:0:0
     RDKit          3D

 93101  0  0  1  0  0  0  0  0999 V2000
  -29.9910  -20.0340   21.7920 C   0  0  0  0  0  3  0  0  0  0  0  0
  -29.6880  -20.7860   19.5230 C   0  0  0  0  0  3  0  0  0  0  0  0
  -29.9350  -19.7060   20.4180 C   0  0  0  0  0  0  0  0  0  0  0  0
  -29.7710  -21.3600   22.2030 C   0  0  0  0  0  0  0  0  0  0  0  0
  -29.4990  -22.1080   20.0170 C   0  0  0  0  0  0  0  0  0  0  0  0
  -29.8220  -21.7330   23.6700 C   0  0  0  0  0  1  0  0  0  0  0  0
  -29.5180  -22.3670   21.3410 N   0  0  0  0  0  0  0  0  0  0  0  0
  -30.1890  -18.2530   19.9320 C   0  0  0  0  0  2  0  0  0  0  0  0
  -27.9620  -17.1100   19.4880 C   0  0  0  0  0  1  0  0  0  0  0  0
  -29.1730  -17.1580   20.4250 C   0  0  0  0  0  3  0  0  0  0  0  0
  -29.7080  -15.7180   20.8380 C   0  0  0  0  0  3  0  0  0  0  0  0
  -29.9910  -14.6700   19.7050 C   0  0  0  0  0  0  0  0  0  0  0  0
  -29.8620  -12.3550   18.7930 C   0  0  0  0  0  2  0  0  0  0  0  0
  -28.7930  -12.2090   17.6930 C   0  0  0  0  0  2  0  0  0  0  0  0
  -27.4160  -11.8970   18.3050 C   0  0  0  0  0  2  0  0  0  0  0  0
  -27.0630  -12.8760   19.4520 C   0  0  0  0  0  3  0  0  0  0  0  0
  -28.2310  -13.0080   20.4590 C   0  0  0  0  0  2  0  0  0  0  0  0
  -29.4400  -13.4200   19.7250 N   0  0  0  0  0  0  0  0  0  0  0  0
  -30.8390  -14.9710   18.8580 O   0  0  0  0  0  0  0  0  0  0  0  0
  -24.7700  -13.3160   20.5380 C   0  0  0  0  0  0  0  0  0  0  0  0
  -23.8170  -12.4670   21.0330 C   0  0  0  0  0  0  0  0  0  0  0  0
  -24.3400  -11.1490   20.8650 C   0  0  0  0  0  0  0  0  0  0  0  0
  -25.8160  -12.5090   20.1140 N   0  0  0  0  0  0  0  0  0  0  0  0
  -25.5680  -11.1990   20.3630 N   0  0  0  0  0  0  0  0  0  0  0  0
  -23.7180   -9.8390   21.0930 C   0  0  0  0  0  0  0  0  0  0  0  0
  -24.2230   -8.9440   22.0620 C   0  0  0  0  0  3  0  0  0  0  0  0
  -23.5940   -7.6980   22.2760 C   0  0  0  0  0  3  0  0  0  0  0  0
  -22.4490   -7.3430   21.5240 C   0  0  0  0  0  0  0  0  0  0  0  0
  -21.9660   -8.2290   20.5460 C   0  0  0  0  0  3  0  0  0  0  0  0
  -22.5950   -9.4650   20.3310 C   0  0  0  0  0  3  0  0  0  0  0  0
  -21.7910   -6.1440   21.6450 O   0  0  0  0  0  0  0  0  0  0  0  0
  -21.6740   -5.5090   22.8550 C   0  0  0  0  0  0  0  0  0  0  0  0
  -21.0230   -6.1100   23.9560 C   0  0  0  0  0  3  0  0  0  0  0  0
  -20.8650   -5.3920   25.1580 C   0  0  0  0  0  3  0  0  0  0  0  0
  -21.3460   -4.0740   25.2590 C   0  0  0  0  0  0  0  0  0  0  0  0
  -21.9900   -3.4720   24.1640 C   0  0  0  0  0  3  0  0  0  0  0  0
  -22.1470   -4.1860   22.9630 C   0  0  0  0  0  0  0  0  0  0  0  0
  -22.7470   -3.5940   21.9030 F   0  0  0  0  0  0  0  0  0  0  0  0
  -21.1880   -3.3790   26.4110 F   0  0  0  0  0  0  0  0  0  0  0  0
  -22.4550  -12.8510   21.5370 C   0  0  0  0  0  0  0  0  0  0  0  0
  -21.9150  -12.0860   22.4800 N   0  0  0  0  0  0  0  0  0  0  0  0
  -21.8850  -13.8640   21.1320 O   0  0  0  0  0  0  0  0  0  0  0  0
  -22.3890  -11.2640   22.8240 H   0  0  0  0  0  0  0  0  0  0  0  0
  -21.0080  -12.3230   22.8570 H   0  0  0  0  0  0  0  0  0  0  0  0
  -24.8140  -14.6960   20.3940 N   0  0  0  0  0  0  0  0  0  0  0  0
  -24.0330  -15.2900   20.6530 H   0  0  0  0  0  0  0  0  0  0  0  0
  -25.5900  -15.2090   19.9950 H   0  0  0  0  0  0  0  0  0  0  0  0
  -30.8160  -16.7480   22.9720 C   0  0  0  0  0  1  0  0  0  0  0  0
  -30.9370  -15.7710   21.7900 C   0  0  0  0  0  2  0  0  0  0  0  0
  -29.2080  -23.3160   19.0950 C   0  0  0  0  0  3  0  0  0  0  0  0
  -29.0600  -24.7210   19.7890 C   0  0  0  0  0  3  0  0  0  0  0  0
  -28.9700  -25.9570   18.8400 C   0  0  0  0  0  2  0  0  0  0  0  0
  -28.7500  -27.2220   19.5190 O   0  0  0  0  0  0  0  0  0  0  0  0
  -24.5690  -31.7430   23.1670 C   0  0  0  0  0  0  0  0  0  0  0  0
  -27.4950  -27.8130   19.6130 C   0  0  0  0  0  0  0  0  0  0  0  0
  -23.4380  -30.3760   21.4470 C   0  0  0  0  0  3  0  0  0  0  0  0
  -24.9710  -29.1060   19.8490 C   0  0  0  0  0  0  0  0  0  0  0  0
  -25.9160  -30.9760   21.2100 C   0  0  0  0  0  2  0  0  0  0  0  0
  -26.1000  -29.6740   20.4460 C   0  0  0  0  0  0  0  0  0  0  0  0
  -27.3600  -29.0340   20.3270 C   0  0  0  0  0  3  0  0  0  0  0  0
  -26.3330  -27.2580   19.0310 C   0  0  0  0  0  3  0  0  0  0  0  0
  -25.0830  -27.8980   19.1400 C   0  0  0  0  0  3  0  0  0  0  0  0
  -23.6580  -29.8440   20.0060 C   0  0  0  0  0  2  0  0  0  0  0  0
  -24.6600  -31.0440   21.9990 N   0  0  0  0  0  0  0  0  0  0  0  0
  -23.4880  -31.8650   23.7610 O   0  0  0  0  0  0  0  0  0  0  0  0
  -22.9200  -29.2190   22.3300 C   0  0  0  0  0  0  0  0  0  0  0  0
  -21.6310  -28.8750   22.1780 N   0  0  0  0  0  0  0  0  0  0  0  0
  -23.6760  -28.6360   23.1140 O   0  0  0  0  0  0  0  0  0  0  0  0
  -21.0730  -29.4080   21.5260 H   0  0  0  0  0  0  0  0  0  0  0  0
  -18.4560  -27.1830   22.5120 C   0  0  0  0  0  0  0  0  0  0  0  0
  -20.9430  -27.7920   22.8790 C   0  0  0  0  0  3  0  0  0  0  0  0
  -21.2670  -26.4220   22.2420 C   0  0  0  0  0  2  0  0  0  0  0  0
  -20.2490  -25.9960   21.1800 C   0  0  0  0  0  2  0  0  0  0  0  0
  -18.8440  -25.9090   21.7830 C   0  0  0  0  0  2  0  0  0  0  0  0
  -19.4420  -28.0740   23.0140 C   0  0  0  0  0  0  0  0  0  0  0  0
  -19.0260  -29.2620   23.6540 C   0  0  0  0  0  3  0  0  0  0  0  0
  -17.6590  -29.5610   23.8020 C   0  0  0  0  0  3  0  0  0  0  0  0
  -16.6880  -28.6680   23.3190 C   0  0  0  0  0  3  0  0  0  0  0  0
  -17.0880  -27.4820   22.6770 C   0  0  0  0  0  3  0  0  0  0  0  0
  -25.8120  -32.4410   23.7990 C   0  0  0  0  0  3  0  0  0  0  0  0
  -25.4250  -33.8180   24.1330 N   0  0  0  0  0  0  0  0  0  0  0  0
  -25.7130  -34.8910   23.3850 C   0  0  0  0  0  0  0  0  0  0  0  0
  -26.4040  -34.8310   22.3650 O   0  0  0  0  0  0  0  0  0  0  0  0
  -24.8120  -33.9380   24.9260 H   0  0  0  0  0  0  0  0  0  0  0  0
  -23.8980  -36.5950   23.0150 C   0  0  0  0  0  1  0  0  0  0  0  0
  -25.1450  -36.2490   23.8440 C   0  0  0  0  0  3  0  0  0  0  0  0
  -27.2150  -37.2430   24.7160 C   0  0  0  0  0  1  0  0  0  0  0  0
  -26.1200  -37.3570   23.7540 N   0  0  0  0  0  0  0  0  0  0  0  0
  -25.6640  -38.2530   23.9000 H   0  0  0  0  0  0  0  0  0  0  0  0
  -26.3630  -31.6930   25.0750 C   0  0  1  0  0  0  0  0  0  0  0  0
  -25.2740  -31.3640   26.1230 C   0  0  0  0  0  1  0  0  0  0  0  0
  -27.0500  -30.3660   24.6770 C   0  0  0  0  0  1  0  0  0  0  0  0
  -27.4400  -32.5600   25.7700 C   0  0  0  0  0  1  0  0  0  0  0  0
  1  4  1  0
  2  5  2  0
  2  3  1  0
  3  1  2  0
  4  6  1  0
  5  7  1  0
  7  4  2  0
  8  3  1  0
  8 10  1  0
 10  9  1  0
 10 11  1  0
 11 49  1  0
 12 18  1  0
 12 11  1  0
 13 18  1  0
 14 15  1  0
 14 13  1  0
 16 15  1  0
 16 23  1  0
 16 17  1  0
 18 17  1  0
 19 12  2  0
 20 21  2  0
 21 40  1  0
 22 21  1  0
 22 25  1  0
 23 24  1  0
 23 20  1  0
 24 22  2  0
 25 26  1  0
 26 27  2  0
 28 31  1  0
 28 27  1  0
 29 28  2  0
 30 29  1  0
 30 25  2  0
 31 32  1  0
 32 37  2  0
 32 33  1  0
 33 34  2  0
 34 35  1  0
 35 39  1  0
 36 35  2  0
 37 36  1  0
 38 37  1  0
 40 41  1  0
 41 43  1  0
 41 44  1  0
 42 40  2  0
 45 20  1  0
 45 46  1  0
 47 45  1  0
 49 48  1  0
 50 51  2  0
 50  5  1  0
 52 53  1  0
 52 51  1  0
 53 55  1  0
 54 65  2  0
 55 60  1  0
 56 64  1  0
 56 66  1  0
 57 63  1  0
 57 59  1  0
 58 64  1  0
 59 58  1  0
 60 59  2  0
 61 62  1  0
 61 55  2  0
 62 57  2  0
 63 56  1  0
 64 54  1  0
 66 68  2  0
 67 66  1  0
 69 67  1  0
 70 79  2  0
 70 75  1  0
 71 67  1  0
 71 75  1  0
 72 71  1  0
 73 74  1  0
 73 72  1  0
 74 70  1  0
 75 76  2  0
 76 77  1  0
 78 77  2  0
 79 78  1  0
 80 54  1  0
 80 81  1  0
 80 90  1  0
 81 84  1  0
 82 86  1  0
 82 81  1  0
 83 82  2  0
 86 85  1  0
 88 86  1  0
 88 89  1  0
 88 87  1  0
 90 93  1  1
 90 91  1  0
 92 90  1  0
M  ISO  4  11 100  12 100  52 101  53 101
M  END
>  <TORSDO>  (56) 
F 23

>  <SCORE>  (56) 
-10.535

>  <name>  (56) 
57

>  <ligand_id>  (56) 
57

>  <original_smiles>  (56) 
[H]c1c([H])c([H])c2c(c1[H])C([H])([H])C([H])([H])C([H])([H])C2([H])N([H])C(=O)C1([H])N(C(=O)C([H])(N([H])C(=O)C([H])(N([H])C([H])([H])[H])C([H])([H])[H])C(C([H])([H])[H])(C([H])([H])[H])C([H])([H])[H])C([H])([H])c2c([H])c(OC([H])([H])C([H])([H])C([H])([H])c3nc(C([H])([H])[H])c([H])c(C([H])([H])C([H])(C([H])([H])[H])C([H])(C(=O)N4C([H])([H])C([H])([H])C([H])([H])C([H])(n5nc(-c6c([H])c([H])c(Oc7c([H])c([H])c(F)c([H])c7F)c([H])c6[H])c(C(=O)N([H])[H])c5N([H])[H])C4([H])[H])C([H])([H])C([H])([H])[H])c3[H])c([H])c([H])c2C1([H])[H]

>  <smiles>  (56) 
[H]c1c([H])c([H])c2c(c1[H])C([H])([H])C([H])([H])C([H])([H])C2([H])N([H])C(=O)C1([H])N(C(=O)C([H])(N([H])C(=O)C([H])(N([H])C([H])([H])[H])C([H])([H])[H])C(C([H])([H])[H])(C([H])([H])[H])C([H])([H])[H])C([H])([H])c2c([H])c(OC([H])([H])C([H])([H])C([H])([H])c3nc(C([H])([H])[H])c([H])c(C([H])([H])C([H])(C([H])([H])[H])C([H])(C(=O)N4C([H])([H])C([H])([H])C([H])([H])C([H])(n5nc(-c6c([H])c([H])c(Oc7c([H])c([H])c(F)c([H])c7F)c([H])c6[H])c(C(=O)N([H])[H])c5N([H])[H])C4([H])[H])C([H])([H])C([H])([H])[H])c3[H])c([H])c([H])c2C1([H])[H]

$$$$
58:0:0
     RDKit          3D

 92100  0  0  1  0  0  0  0  0999 V2000
  -30.7900  -20.8440   18.9570 C   0  0  0  0  0  0  0  0  0  0  0  0
  -29.5930  -21.9500   20.4700 C   0  0  0  0  0  0  0  0  0  0  0  0
  -29.8410  -19.7010   20.6170 C   0  0  0  0  0  0  0  0  0  0  0  0
  -31.7080  -20.8410   17.7530 C   0  0  0  0  0  1  0  0  0  0  0  0
  -30.3400  -22.0220   19.3750 N   0  0  0  0  0  4  0  0  0  0  0  0
  -30.5590  -19.6600   19.5040 N   0  0  0  0  0  0  0  0  0  0  0  0
  -29.3060  -20.8180   21.1420 N   0  0  0  0  0  2  0  0  0  0  0  0
  -29.1140  -23.3130   21.0350 C   0  0  0  0  0  2  0  0  0  0  0  0
  -28.0690  -24.1250   20.1900 C   0  0  0  0  0  2  0  0  0  0  0  0
  -28.5610  -25.4160   19.4510 C   0  0  0  0  0  2  0  0  0  0  0  0
  -28.4450  -26.6960   20.1320 O   0  0  0  0  0  0  0  0  0  0  0  0
  -24.6410  -31.9080   23.2180 C   0  0  0  0  0  0  0  0  0  0  0  0
  -27.2640  -27.4350   20.1030 C   0  0  0  0  0  0  0  0  0  0  0  0
  -23.4260  -30.5050   21.5900 C   0  0  0  0  0  3  0  0  0  0  0  0
  -24.8700  -28.9740   20.1430 C   0  0  0  0  0  0  0  0  0  0  0  0
  -25.9550  -30.8590   21.3680 C   0  0  0  0  0  2  0  0  0  0  0  0
  -26.0350  -29.4880   20.7220 C   0  0  0  0  0  0  0  0  0  0  0  0
  -27.2320  -28.7270   20.6950 C   0  0  0  0  0  3  0  0  0  0  0  0
  -26.0710  -26.9470   19.5220 C   0  0  0  0  0  3  0  0  0  0  0  0
  -24.8840  -27.7040   19.5430 C   0  0  0  0  0  3  0  0  0  0  0  0
  -23.6270  -29.8330   20.2060 C   0  0  0  0  0  2  0  0  0  0  0  0
  -24.6940  -31.1070   22.1170 N   0  0  0  0  0  0  0  0  0  0  0  0
  -23.5630  -32.1740   23.7680 O   0  0  0  0  0  0  0  0  0  0  0  0
  -22.7870  -29.4790   22.5560 C   0  0  0  0  0  0  0  0  0  0  0  0
  -21.4610  -29.2930   22.4410 N   0  0  0  0  0  0  0  0  0  0  0  0
  -23.4790  -28.8600   23.3660 O   0  0  0  0  0  0  0  0  0  0  0  0
  -20.9630  -29.8450   21.7570 H   0  0  0  0  0  0  0  0  0  0  0  0
  -18.1010  -28.0650   22.9610 C   0  0  0  0  0  0  0  0  0  0  0  0
  -20.6570  -28.3500   23.2190 C   0  0  0  0  0  3  0  0  0  0  0  0
  -20.7730  -26.9200   22.6460 C   0  0  0  0  0  2  0  0  0  0  0  0
  -19.6700  -26.5830   21.6380 C   0  0  0  0  0  2  0  0  0  0  0  0
  -18.2890  -26.7150   22.2870 C   0  0  0  0  0  2  0  0  0  0  0  0
  -19.2130  -28.8380   23.3830 C   0  0  0  0  0  0  0  0  0  0  0  0
  -18.9860  -30.1010   23.9750 C   0  0  0  0  0  3  0  0  0  0  0  0
  -17.6770  -30.5910   24.1450 C   0  0  0  0  0  3  0  0  0  0  0  0
  -16.5790  -29.8140   23.7390 C   0  0  0  0  0  3  0  0  0  0  0  0
  -16.7910  -28.5530   23.1540 C   0  0  0  0  0  3  0  0  0  0  0  0
  -25.9290  -32.5480   23.8240 C   0  0  0  0  0  3  0  0  0  0  0  0
  -25.6130  -33.9440   24.1630 N   0  0  0  0  0  0  0  0  0  0  0  0
  -25.9360  -35.0010   23.4070 C   0  0  0  0  0  0  0  0  0  0  0  0
  -26.6010  -34.9060   22.3720 O   0  0  0  0  0  0  0  0  0  0  0  0
  -25.0190  -34.0920   24.9650 H   0  0  0  0  0  0  0  0  0  0  0  0
  -24.2020  -36.7910   23.0710 C   0  0  0  0  0  1  0  0  0  0  0  0
  -25.4470  -36.3860   23.8740 C   0  0  0  0  0  3  0  0  0  0  0  0
  -27.5840  -37.2710   24.7010 C   0  0  0  0  0  1  0  0  0  0  0  0
  -26.4770  -37.4420   23.7620 N   0  0  0  0  0  0  0  0  0  0  0  0
  -26.0690  -38.3600   23.9150 H   0  0  0  0  0  0  0  0  0  0  0  0
  -26.4700  -31.7760   25.0890 C   0  0  1  0  0  0  0  0  0  0  0  0
  -25.3940  -31.5320   26.1730 C   0  0  0  0  0  1  0  0  0  0  0  0
  -27.0520  -30.4000   24.6840 C   0  0  0  0  0  1  0  0  0  0  0  0
  -27.6270  -32.5740   25.7330 C   0  0  0  0  0  1  0  0  0  0  0  0
  -29.5350  -18.3240   21.2730 C   0  0  0  0  0  2  0  0  0  0  0  0
  -30.6420  -17.1860   21.1960 C   0  0  0  0  0  2  0  0  0  0  0  0
  -30.9600  -14.7300   20.7970 C   0  0  0  0  0  0  0  0  0  0  0  0
  -30.7610  -12.4470   19.8830 C   0  0  0  0  0  2  0  0  0  0  0  0
  -29.9170  -12.4760   18.5920 C   0  0  0  0  0  2  0  0  0  0  0  0
  -28.4040  -12.4070   18.9030 C   0  0  0  0  0  2  0  0  0  0  0  0
  -27.9510  -13.3110   20.0850 C   0  0  0  0  0  3  0  0  0  0  0  0
  -28.9420  -13.2540   21.2680 C   0  0  0  0  0  2  0  0  0  0  0  0
  -30.2810  -13.5420   20.7370 N   0  0  0  0  0  0  0  0  0  0  0  0
  -32.1910  -14.7670   20.7570 O   0  0  0  0  0  0  0  0  0  0  0  0
  -30.2600  -15.8870   20.5390 N   0  0  0  0  0  0  0  0  0  0  0  0
  -25.5160  -13.9170   20.6180 C   0  0  0  0  0  0  0  0  0  0  0  0
  -24.4260  -13.1450   20.9210 C   0  0  0  0  0  0  0  0  0  0  0  0
  -24.8940  -11.7980   20.9570 C   0  0  0  0  0  0  0  0  0  0  0  0
  -26.5770  -13.0350   20.4870 N   0  0  0  0  0  0  0  0  0  0  0  0
  -26.2050  -11.7560   20.7540 N   0  0  0  0  0  0  0  0  0  0  0  0
  -24.1590  -10.5360   21.1180 C   0  0  0  0  0  0  0  0  0  0  0  0
  -24.5380   -9.5820   22.0880 C   0  0  0  0  0  3  0  0  0  0  0  0
  -23.8050   -8.3850   22.2380 C   0  0  0  0  0  3  0  0  0  0  0  0
  -22.6800   -8.1350   21.4160 C   0  0  0  0  0  0  0  0  0  0  0  0
  -22.3220   -9.0790   20.4370 C   0  0  0  0  0  3  0  0  0  0  0  0
  -23.0560  -10.2670   20.2850 C   0  0  0  0  0  3  0  0  0  0  0  0
  -21.9210   -6.9910   21.4740 O   0  0  0  0  0  0  0  0  0  0  0  0
  -21.8120   -6.2580   22.6280 C   0  0  0  0  0  0  0  0  0  0  0  0
  -21.3300   -6.8250   23.8280 C   0  0  0  0  0  3  0  0  0  0  0  0
  -21.1670   -6.0190   24.9720 C   0  0  0  0  0  3  0  0  0  0  0  0
  -21.4760   -4.6470   24.9180 C   0  0  0  0  0  0  0  0  0  0  0  0
  -21.9510   -4.0790   23.7210 C   0  0  0  0  0  3  0  0  0  0  0  0
  -22.1160   -4.8830   22.5800 C   0  0  0  0  0  0  0  0  0  0  0  0
  -22.5530   -4.3260   21.4240 F   0  0  0  0  0  0  0  0  0  0  0  0
  -21.3120   -3.8700   26.0130 F   0  0  0  0  0  0  0  0  0  0  0  0
  -23.0100  -13.6240   21.0720 C   0  0  0  0  0  0  0  0  0  0  0  0
  -22.2240  -12.9480   21.9040 N   0  0  0  0  0  0  0  0  0  0  0  0
  -22.6080  -14.6280   20.4880 O   0  0  0  0  0  0  0  0  0  0  0  0
  -22.5620  -12.1360   22.3970 H   0  0  0  0  0  0  0  0  0  0  0  0
  -21.2690  -13.2460   22.0460 H   0  0  0  0  0  0  0  0  0  0  0  0
  -25.6860  -15.2830   20.4220 N   0  0  0  0  0  0  0  0  0  0  0  0
  -24.9100  -15.9360   20.4570 H   0  0  0  0  0  0  0  0  0  0  0  0
  -26.5640  -15.7250   20.1820 H   0  0  0  0  0  0  0  0  0  0  0  0
  -31.1490  -16.4720   18.2110 C   0  0  0  0  0  1  0  0  0  0  0  0
  -29.9360  -16.1410   19.1100 C   0  0  0  0  0  2  0  0  0  0  0  0
  1  5  2  0
  1  6  1  0
  2  8  1  0
  2  7  1  0
  3  7  1  0
  3 52  1  0
  4  1  1  0
  5  2  2  0
  6  3  2  0
  9  8  1  0
 10 11  1  0
 10  9  1  0
 12 23  2  0
 13 11  1  0
 13 18  1  0
 14 22  1  0
 14 24  1  0
 15 21  1  0
 15 17  1  0
 16 22  1  0
 17 16  1  0
 18 17  2  0
 19 20  1  0
 19 13  2  0
 20 15  2  0
 21 14  1  0
 22 12  1  0
 24 26  2  0
 25 24  1  0
 27 25  1  0
 28 37  2  0
 28 33  1  0
 29 25  1  0
 29 33  1  0
 30 29  1  0
 31 32  1  0
 31 30  1  0
 32 28  1  0
 33 34  2  0
 34 35  1  0
 36 35  2  0
 37 36  1  0
 38 12  1  0
 38 39  1  0
 38 48  1  0
 39 42  1  0
 40 44  1  0
 40 39  1  0
 41 40  2  0
 44 43  1  0
 46 44  1  0
 46 47  1  0
 46 45  1  0
 48 51  1  1
 48 49  1  0
 50 48  1  0
 53 52  1  0
 55 60  1  0
 56 57  1  0
 56 55  1  0
 58 57  1  0
 58 66  1  0
 58 59  1  0
 60 54  1  0
 60 59  1  0
 61 54  2  0
 62 54  1  0
 62 53  1  0
 63 64  2  0
 64 65  1  0
 64 83  1  0
 65 68  1  0
 66 63  1  0
 66 67  1  0
 67 65  2  0
 68 69  1  0
 69 70  2  0
 71 74  1  0
 71 70  1  0
 72 71  2  0
 73 72  1  0
 73 68  2  0
 74 75  1  0
 75 76  1  0
 76 77  2  0
 78 77  1  0
 78 82  1  0
 79 78  2  0
 80 75  2  0
 80 79  1  0
 81 80  1  0
 83 84  1  0
 84 87  1  0
 84 86  1  0
 85 83  2  0
 88 89  1  0
 88 63  1  0
 90 88  1  0
 91 92  1  0
 92 62  1  0
M  ISO  4  10 101  11 101  54 100  62 100
M  END
>  <TORSDO>  (57) 
F 22

>  <SCORE>  (57) 
-12.702

>  <name>  (57) 
58

>  <ligand_id>  (57) 
58

>  <original_smiles>  (57) 
[H]c1c([H])c([H])c2c(c1[H])C([H])([H])C([H])([H])C([H])([H])C2([H])N([H])C(=O)C1([H])N(C(=O)C([H])(N([H])C(=O)C([H])(N([H])C([H])([H])[H])C([H])([H])[H])C(C([H])([H])[H])(C([H])([H])[H])C([H])([H])[H])C([H])([H])c2c([H])c(OC([H])([H])C([H])([H])C([H])([H])c3nc(C([H])([H])[H])nc(C([H])([H])C([H])([H])N(C(=O)N4C([H])([H])C([H])([H])C([H])([H])C([H])(n5nc(-c6c([H])c([H])c(Oc7c([H])c([H])c(F)c([H])c7F)c([H])c6[H])c(C(=O)N([H])[H])c5N([H])[H])C4([H])[H])C([H])([H])C([H])([H])[H])n3)c([H])c([H])c2C1([H])[H]

>  <smiles>  (57) 
[H]c1c([H])c([H])c2c(c1[H])C([H])([H])C([H])([H])C([H])([H])C2([H])N([H])C(=O)C1([H])N(C(=O)C([H])(N([H])C(=O)C([H])(N([H])C([H])([H])[H])C([H])([H])[H])C(C([H])([H])[H])(C([H])([H])[H])C([H])([H])[H])C([H])([H])c2c([H])c(OC([H])([H])C([H])([H])C([H])([H])c3nc(C([H])([H])[H])nc(C([H])([H])C([H])([H])N(C(=O)N4C([H])([H])C([H])([H])C([H])([H])C([H])(n5nc(-c6c([H])c([H])c(Oc7c([H])c([H])c(F)c([H])c7F)c([H])c6[H])c(C(=O)N([H])[H])c5N([H])[H])C4([H])[H])C([H])([H])C([H])([H])[H])n3)c([H])c([H])c2C1([H])[H]

$$$$
59:0:0
     RDKit          3D

 94102  0  0  1  0  0  0  0  0999 V2000
  -28.1290  -23.5190   20.4530 C   0  0  0  0  0  3  0  0  0  0  0  0
  -28.5530  -24.2680   19.3840 C   0  0  0  0  0  0  0  0  0  0  0  0
  -28.9360  -23.2720   18.4330 C   0  0  0  0  0  0  0  0  0  0  0  0
  -29.5890  -23.4250   17.0960 C   0  0  0  0  0  1  0  0  0  0  0  0
  -28.7260  -22.0410   18.8570 N   0  0  0  0  0  0  0  0  0  0  0  0
  -28.2630  -22.1700   20.1110 N   0  0  0  0  0  0  0  0  0  0  0  0
  -28.6900  -25.7730   19.1630 C   0  0  0  0  0  2  0  0  0  0  0  0
  -28.3650  -26.6720   20.2470 O   0  0  0  0  0  0  0  0  0  0  0  0
  -24.6690  -31.8580   23.4440 C   0  0  0  0  0  0  0  0  0  0  0  0
  -27.2080  -27.4310   20.2170 C   0  0  0  0  0  0  0  0  0  0  0  0
  -23.4340  -30.5470   21.7540 C   0  0  0  0  0  3  0  0  0  0  0  0
  -24.8530  -29.0160   20.2800 C   0  0  0  0  0  0  0  0  0  0  0  0
  -25.9690  -30.8450   21.5620 C   0  0  0  0  0  2  0  0  0  0  0  0
  -26.0260  -29.4920   20.8800 C   0  0  0  0  0  0  0  0  0  0  0  0
  -27.2020  -28.7080   20.8420 C   0  0  0  0  0  3  0  0  0  0  0  0
  -26.0110  -26.9650   19.6320 C   0  0  0  0  0  3  0  0  0  0  0  0
  -24.8390  -27.7530   19.6630 C   0  0  0  0  0  3  0  0  0  0  0  0
  -23.6380  -29.9180   20.3490 C   0  0  0  0  0  2  0  0  0  0  0  0
  -24.7140  -31.0940   22.3180 N   0  0  0  0  0  0  0  0  0  0  0  0
  -23.5940  -32.1390   23.9880 O   0  0  0  0  0  0  0  0  0  0  0  0
  -22.7490  -29.5190   22.6770 C   0  0  0  0  0  0  0  0  0  0  0  0
  -21.4350  -29.3190   22.4770 N   0  0  0  0  0  0  0  0  0  0  0  0
  -23.3950  -28.9070   23.5340 O   0  0  0  0  0  0  0  0  0  0  0  0
  -20.9680  -29.8580   21.7610 H   0  0  0  0  0  0  0  0  0  0  0  0
  -18.0800  -27.9860   22.7830 C   0  0  0  0  0  0  0  0  0  0  0  0
  -20.5990  -28.3760   23.2230 C   0  0  0  0  0  3  0  0  0  0  0  0
  -20.8030  -26.9290   22.7140 C   0  0  0  0  0  2  0  0  0  0  0  0
  -19.7950  -26.5280   21.6330 C   0  0  0  0  0  2  0  0  0  0  0  0
  -18.3660  -26.6200   22.1830 C   0  0  0  0  0  2  0  0  0  0  0  0
  -19.1290  -28.8140   23.2690 C   0  0  0  0  0  0  0  0  0  0  0  0
  -18.8080  -30.0780   23.8120 C   0  0  0  0  0  3  0  0  0  0  0  0
  -17.4720  -30.5210   23.8550 C   0  0  0  0  0  3  0  0  0  0  0  0
  -16.4380  -29.7020   23.3700 C   0  0  0  0  0  3  0  0  0  0  0  0
  -16.7440  -28.4360   22.8370 C   0  0  0  0  0  3  0  0  0  0  0  0
  -25.9630  -32.4450   24.0810 C   0  0  0  0  0  3  0  0  0  0  0  0
  -25.6970  -33.8520   24.4160 N   0  0  0  0  0  0  0  0  0  0  0  0
  -26.0670  -34.9000   23.6650 C   0  0  0  0  0  0  0  0  0  0  0  0
  -26.7330  -34.7800   22.6330 O   0  0  0  0  0  0  0  0  0  0  0  0
  -25.1090  -34.0210   25.2190 H   0  0  0  0  0  0  0  0  0  0  0  0
  -24.3890  -36.7420   23.3240 C   0  0  0  0  0  1  0  0  0  0  0  0
  -25.6250  -36.3010   24.1270 C   0  0  0  0  0  3  0  0  0  0  0  0
  -27.7870  -37.1220   24.9460 C   0  0  0  0  0  1  0  0  0  0  0  0
  -26.6840  -37.3270   24.0100 N   0  0  0  0  0  0  0  0  0  0  0  0
  -26.3040  -38.2560   24.1680 H   0  0  0  0  0  0  0  0  0  0  0  0
  -26.4460  -31.6490   25.3560 C   0  0  1  0  0  0  0  0  0  0  0  0
  -25.3380  -31.4190   26.4080 C   0  0  0  0  0  1  0  0  0  0  0  0
  -27.0020  -30.2670   24.9460 C   0  0  0  0  0  1  0  0  0  0  0  0
  -27.5980  -32.4160   26.0490 C   0  0  0  0  0  1  0  0  0  0  0  0
  -27.9990  -20.9450   20.8800 C   0  0  0  0  0  2  0  0  0  0  0  0
  -28.2090  -19.5820   20.1220 C   0  0  0  0  0  2  0  0  0  0  0  0
  -29.6720  -19.0870   19.8660 C   0  0  0  0  0  2  0  0  0  0  0  0
  -30.3920  -18.5990   22.1910 C   0  0  0  0  0  1  0  0  0  0  0  0
  -30.1770  -18.0370   20.8300 N   0  0  2  0  0  4  0  0  0  0  0  0
  -29.3680  -17.4510   20.9830 H   0  0  0  0  0  0  0  0  0  0  0  0
  -32.2630  -17.7500   19.4130 C   0  0  0  0  0  1  0  0  0  0  0  0
  -32.0960  -16.4910   21.5400 C   0  0  0  0  0  1  0  0  0  0  0  0
  -31.2520  -17.0410   20.3480 C   0  0  1  0  0  0  0  0  0  0  0  0
  -30.5710  -15.8000   19.6290 C   0  0  0  0  0  2  0  0  0  0  0  0
  -31.3340  -14.4380   19.4200 C   0  0  0  0  0  0  0  0  0  0  0  0
  -30.9300  -12.1300   18.6100 C   0  0  0  0  0  2  0  0  0  0  0  0
  -29.8680  -12.1860   17.4940 C   0  0  0  0  0  2  0  0  0  0  0  0
  -28.4550  -12.1090   18.1010 C   0  0  0  0  0  2  0  0  0  0  0  0
  -28.2500  -13.1580   19.2240 C   0  0  0  0  0  3  0  0  0  0  0  0
  -29.3970  -13.0560   20.2430 C   0  0  0  0  0  2  0  0  0  0  0  0
  -30.6610  -13.2530   19.5250 N   0  0  0  0  0  0  0  0  0  0  0  0
  -32.4650  -14.4880   18.9370 O   0  0  0  0  0  0  0  0  0  0  0  0
  -26.0870  -14.0040   20.3300 C   0  0  0  0  0  0  0  0  0  0  0  0
  -24.9750  -13.3320   20.7810 C   0  0  0  0  0  0  0  0  0  0  0  0
  -25.2330  -11.9490   20.5500 C   0  0  0  0  0  0  0  0  0  0  0  0
  -26.9480  -13.0220   19.8640 N   0  0  0  0  0  0  0  0  0  0  0  0
  -26.4480  -11.7760   20.0510 N   0  0  0  0  0  0  0  0  0  0  0  0
  -24.3710  -10.7730   20.7260 C   0  0  0  0  0  0  0  0  0  0  0  0
  -24.7460   -9.6940   21.5570 C   0  0  0  0  0  3  0  0  0  0  0  0
  -23.8870   -8.5840   21.7190 C   0  0  0  0  0  3  0  0  0  0  0  0
  -22.6410   -8.5470   21.0480 C   0  0  0  0  0  0  0  0  0  0  0  0
  -22.2820   -9.6180   20.2070 C   0  0  0  0  0  3  0  0  0  0  0  0
  -23.1420  -10.7170   20.0430 C   0  0  0  0  0  3  0  0  0  0  0  0
  -21.7550   -7.4990   21.1260 O   0  0  0  0  0  0  0  0  0  0  0  0
  -21.6380   -6.7420   22.2640 C   0  0  0  0  0  0  0  0  0  0  0  0
  -21.2990   -7.3150   23.5090 C   0  0  0  0  0  3  0  0  0  0  0  0
  -21.1200   -6.4900   24.6360 C   0  0  0  0  0  3  0  0  0  0  0  0
  -21.2690   -5.0950   24.5200 C   0  0  0  0  0  0  0  0  0  0  0  0
  -21.6010   -4.5230   23.2800 C   0  0  0  0  0  3  0  0  0  0  0  0
  -21.7820   -5.3440   22.1540 C   0  0  0  0  0  0  0  0  0  0  0  0
  -22.0820   -4.7860   20.9550 F   0  0  0  0  0  0  0  0  0  0  0  0
  -21.0890   -4.3010   25.6010 F   0  0  0  0  0  0  0  0  0  0  0  0
  -23.7080  -13.9510   21.3000 C   0  0  0  0  0  0  0  0  0  0  0  0
  -23.0390  -13.2780   22.2300 N   0  0  0  0  0  0  0  0  0  0  0  0
  -23.3300  -15.0580   20.9240 O   0  0  0  0  0  0  0  0  0  0  0  0
  -23.3670  -12.3830   22.5600 H   0  0  0  0  0  0  0  0  0  0  0  0
  -22.1880  -13.6580   22.6170 H   0  0  0  0  0  0  0  0  0  0  0  0
  -26.4060  -15.3520   20.2590 N   0  0  0  0  0  0  0  0  0  0  0  0
  -25.7170  -16.0460   20.5240 H   0  0  0  0  0  0  0  0  0  0  0  0
  -27.2000  -15.7370   19.7660 H   0  0  0  0  0  0  0  0  0  0  0  0
  2  1  2  0
  3  5  2  0
  3  2  1  0
  4  3  1  0
  5  6  1  0
  6  1  1  0
  6 49  1  0
  7  2  1  0
  7  8  1  0
  9 20  2  0
 10  8  1  0
 10 15  1  0
 11 19  1  0
 11 21  1  0
 12 18  1  0
 12 14  1  0
 13 19  1  0
 14 13  1  0
 15 14  2  0
 16 17  1  0
 16 10  2  0
 17 12  2  0
 18 11  1  0
 19  9  1  0
 21 23  2  0
 22 21  1  0
 24 22  1  0
 25 34  2  0
 25 30  1  0
 26 22  1  0
 26 30  1  0
 27 26  1  0
 28 29  1  0
 28 27  1  0
 29 25  1  0
 30 31  2  0
 31 32  1  0
 33 32  2  0
 34 33  1  0
 35  9  1  0
 35 36  1  0
 35 45  1  0
 36 39  1  0
 37 41  1  0
 37 36  1  0
 38 37  2  0
 41 40  1  0
 43 41  1  0
 43 44  1  0
 43 42  1  0
 45 48  1  1
 45 46  1  0
 47 45  1  0
 50 49  1  0
 51 50  1  0
 51 53  1  0
 53 54  1  1
 53 52  1  0
 57 55  1  6
 57 53  1  0
 57 56  1  0
 58 57  1  0
 59 65  1  0
 59 58  1  0
 60 65  1  0
 61 62  1  0
 61 60  1  0
 63 62  1  0
 63 70  1  0
 63 64  1  0
 65 64  1  0
 66 59  2  0
 67 68  2  0
 68 87  1  0
 69 72  1  0
 69 68  1  0
 70 71  1  0
 70 67  1  0
 71 69  2  0
 72 73  1  0
 73 74  2  0
 75 78  1  0
 75 74  1  0
 76 75  2  0
 77 76  1  0
 77 72  2  0
 78 79  1  0
 79 80  1  0
 80 81  2  0
 82 81  1  0
 82 86  1  0
 83 82  2  0
 84 79  2  0
 84 83  1  0
 85 84  1  0
 87 88  1  0
 88 90  1  0
 88 91  1  0
 89 87  2  0
 92 67  1  0
 92 93  1  0
 94 92  1  0
M  ISO  4   7 101   8 101  58 100  59 100
M  END
>  <TORSDO>  (58) 
F 23

>  <SCORE>  (58) 
-10.746

>  <name>  (58) 
59

>  <ligand_id>  (58) 
59

>  <original_smiles>  (58) 
[H]c1c([H])c([H])c2c(c1[H])C([H])([H])C([H])([H])C([H])([H])C2([H])N([H])C(=O)C1([H])N(C(=O)C([H])(N([H])C(=O)C([H])(N([H])C([H])([H])[H])C([H])([H])[H])C(C([H])([H])[H])(C([H])([H])[H])C([H])([H])[H])C([H])([H])c2c([H])c(OC([H])([H])c3c(C([H])([H])[H])nn(C([H])([H])C([H])([H])C([H])([H])[N+]([H])(C([H])([H])[H])C(C([H])([H])[H])(C([H])([H])[H])C([H])([H])C(=O)N4C([H])([H])C([H])([H])C([H])([H])C([H])(n5nc(-c6c([H])c([H])c(Oc7c([H])c([H])c(F)c([H])c7F)c([H])c6[H])c(C(=O)N([H])[H])c5N([H])[H])C4([H])[H])c3[H])c([H])c([H])c2C1([H])[H]

>  <smiles>  (58) 
[H]c1c([H])c([H])c2c(c1[H])C([H])([H])C([H])([H])C([H])([H])C2([H])N([H])C(=O)C1([H])N(C(=O)C([H])(N([H])C(=O)C([H])(N([H])C([H])([H])[H])C([H])([H])[H])C(C([H])([H])[H])(C([H])([H])[H])C([H])([H])[H])C([H])([H])c2c([H])c(OC([H])([H])c3c(C([H])([H])[H])nn(C([H])([H])C([H])([H])C([H])([H])[N+]([H])(C([H])([H])[H])C(C([H])([H])[H])(C([H])([H])[H])C([H])([H])C(=O)N4C([H])([H])C([H])([H])C([H])([H])C([H])(n5nc(-c6c([H])c([H])c(Oc7c([H])c([H])c(F)c([H])c7F)c([H])c6[H])c(C(=O)N([H])[H])c5N([H])[H])C4([H])[H])c3[H])c([H])c([H])c2C1([H])[H]

$$$$
60:0:0
     RDKit          3D

 94102  0  0  1  0  0  0  0  0999 V2000
  -30.9920  -18.7830   19.4200 C   0  0  0  0  0  0  0  0  0  0  0  0
  -29.8390  -17.9890   19.6390 C   0  0  0  0  0  0  0  0  0  0  0  0
  -28.5870  -19.9210   19.9180 C   0  0  0  0  0  0  0  0  0  0  0  0
  -29.7540  -20.7160   19.6930 C   0  0  0  0  0  0  0  0  0  0  0  0
  -32.3130  -18.2140   18.9510 C   0  0  0  0  0  1  0  0  0  0  0  0
  -27.1850  -20.5060   19.9850 C   0  0  0  0  0  1  0  0  0  0  0  0
  -28.6460  -18.5600   19.9390 N   0  0  0  0  0  0  0  0  0  0  0  0
  -30.9520  -20.1340   19.4900 N   0  0  0  0  0  0  0  0  0  0  0  0
  -29.7490  -22.1000   19.4190 N   0  0  0  0  0  0  0  0  0  0  0  0
  -30.6510  -23.1200   17.3340 C   0  0  0  0  0  1  0  0  0  0  0  0
  -29.5180  -22.3090   17.9830 C   0  0  0  0  0  2  0  0  0  0  0  0
  -29.8200  -16.5010   19.3020 C   0  0  0  0  0  2  0  0  0  0  0  0
  -30.6560  -14.4950   20.3800 C   0  0  0  0  0  0  0  0  0  0  0  0
  -30.3340  -12.3110   19.3450 C   0  0  0  0  0  2  0  0  0  0  0  0
  -29.4500  -12.6040   18.1170 C   0  0  0  0  0  2  0  0  0  0  0  0
  -27.9680  -12.4410   18.5070 C   0  0  0  0  0  2  0  0  0  0  0  0
  -27.6080  -13.2790   19.7680 C   0  0  0  0  0  3  0  0  0  0  0  0
  -28.6440  -13.0740   20.9040 C   0  0  0  0  0  2  0  0  0  0  0  0
  -29.9920  -13.3120   20.3600 N   0  0  0  0  0  0  0  0  0  0  0  0
  -31.8260  -14.6290   20.0060 O   0  0  0  0  0  0  0  0  0  0  0  0
  -29.8420  -15.5570   20.4270 N   0  0  0  0  0  0  0  0  0  0  0  0
  -28.9400  -15.4030   20.8520 H   0  0  0  0  0  0  0  0  0  0  0  0
  -25.2070  -13.9000   20.4380 C   0  0  0  0  0  0  0  0  0  0  0  0
  -24.1340  -13.1370   20.8000 C   0  0  0  0  0  0  0  0  0  0  0  0
  -24.5900  -11.7830   20.7870 C   0  0  0  0  0  0  0  0  0  0  0  0
  -26.2510  -13.0130   20.2260 N   0  0  0  0  0  0  0  0  0  0  0  0
  -25.8830  -11.7360   20.4960 N   0  0  0  0  0  0  0  0  0  0  0  0
  -23.8560  -10.5290   20.9760 C   0  0  0  0  0  0  0  0  0  0  0  0
  -24.2790   -9.5690   21.9220 C   0  0  0  0  0  3  0  0  0  0  0  0
  -23.5490   -8.3750   22.1040 C   0  0  0  0  0  3  0  0  0  0  0  0
  -22.3810   -8.1340   21.3420 C   0  0  0  0  0  0  0  0  0  0  0  0
  -21.9770   -9.0830   20.3860 C   0  0  0  0  0  3  0  0  0  0  0  0
  -22.7080  -10.2680   20.2020 C   0  0  0  0  0  3  0  0  0  0  0  0
  -21.6230   -6.9910   21.4310 O   0  0  0  0  0  0  0  0  0  0  0  0
  -21.5640   -6.2580   22.5870 C   0  0  0  0  0  0  0  0  0  0  0  0
  -21.1400   -6.8200   23.8110 C   0  0  0  0  0  3  0  0  0  0  0  0
  -21.0260   -6.0100   24.9570 C   0  0  0  0  0  3  0  0  0  0  0  0
  -21.3290   -4.6370   24.8820 C   0  0  0  0  0  0  0  0  0  0  0  0
  -21.7470   -4.0730   23.6640 C   0  0  0  0  0  3  0  0  0  0  0  0
  -21.8630   -4.8820   22.5190 C   0  0  0  0  0  0  0  0  0  0  0  0
  -22.2450   -4.3280   21.3440 F   0  0  0  0  0  0  0  0  0  0  0  0
  -21.2130   -3.8560   25.9820 F   0  0  0  0  0  0  0  0  0  0  0  0
  -22.7370  -13.6240   21.0540 C   0  0  0  0  0  0  0  0  0  0  0  0
  -21.9970  -12.9470   21.9220 N   0  0  0  0  0  0  0  0  0  0  0  0
  -22.3130  -14.6510   20.5200 O   0  0  0  0  0  0  0  0  0  0  0  0
  -22.3530  -12.1210   22.3830 H   0  0  0  0  0  0  0  0  0  0  0  0
  -21.0570  -13.2560   22.1260 H   0  0  0  0  0  0  0  0  0  0  0  0
  -25.3690  -15.2700   20.2480 N   0  0  0  0  0  0  0  0  0  0  0  0
  -24.5720  -15.8930   20.3140 H   0  0  0  0  0  0  0  0  0  0  0  0
  -26.2210  -15.7440   19.9830 H   0  0  0  0  0  0  0  0  0  0  0  0
  -29.2400  -22.9720   20.4920 C   0  0  0  0  0  2  0  0  0  0  0  0
  -29.5330  -24.4970   20.4000 C   0  0  0  0  0  2  0  0  0  0  0  0
  -28.3650  -25.2990   19.7970 C   0  0  0  0  0  2  0  0  0  0  0  0
  -28.4670  -26.7090   20.0730 O   0  0  0  0  0  0  0  0  0  0  0  0
  -24.6710  -31.8840   23.2290 C   0  0  0  0  0  0  0  0  0  0  0  0
  -27.2850  -27.4300   20.1000 C   0  0  0  0  0  0  0  0  0  0  0  0
  -23.4630  -30.4870   21.5900 C   0  0  0  0  0  3  0  0  0  0  0  0
  -24.9000  -28.9630   20.1390 C   0  0  0  0  0  0  0  0  0  0  0  0
  -25.9910  -30.8300   21.3820 C   0  0  0  0  0  2  0  0  0  0  0  0
  -26.0640  -29.4630   20.7370 C   0  0  0  0  0  0  0  0  0  0  0  0
  -27.2590  -28.7060   20.7120 C   0  0  0  0  0  3  0  0  0  0  0  0
  -26.0880  -26.9370   19.5220 C   0  0  0  0  0  3  0  0  0  0  0  0
  -24.9130  -27.7030   19.5200 C   0  0  0  0  0  3  0  0  0  0  0  0
  -23.6650  -29.8310   20.1960 C   0  0  0  0  0  2  0  0  0  0  0  0
  -24.7290  -31.0820   22.1260 N   0  0  0  0  0  0  0  0  0  0  0  0
  -23.5890  -32.1500   23.7700 O   0  0  0  0  0  0  0  0  0  0  0  0
  -22.8180  -29.4550   22.5430 C   0  0  0  0  0  0  0  0  0  0  0  0
  -21.4920  -29.2730   22.4200 N   0  0  0  0  0  0  0  0  0  0  0  0
  -23.5040  -28.8260   23.3520 O   0  0  0  0  0  0  0  0  0  0  0  0
  -21.0000  -29.8450   21.7510 H   0  0  0  0  0  0  0  0  0  0  0  0
  -18.1240  -28.0520   22.8850 C   0  0  0  0  0  0  0  0  0  0  0  0
  -20.6770  -28.3250   23.1810 C   0  0  0  0  0  3  0  0  0  0  0  0
  -20.7950  -26.8950   22.6040 C   0  0  0  0  0  2  0  0  0  0  0  0
  -19.7040  -26.5630   21.5840 C   0  0  0  0  0  2  0  0  0  0  0  0
  -18.3150  -26.7020   22.2160 C   0  0  0  0  0  2  0  0  0  0  0  0
  -19.2320  -28.8210   23.3240 C   0  0  0  0  0  0  0  0  0  0  0  0
  -19.0020  -30.0880   23.9060 C   0  0  0  0  0  3  0  0  0  0  0  0
  -17.6920  -30.5770   24.0670 C   0  0  0  0  0  3  0  0  0  0  0  0
  -16.5960  -29.8020   23.6510 C   0  0  0  0  0  3  0  0  0  0  0  0
  -16.8120  -28.5430   23.0600 C   0  0  0  0  0  3  0  0  0  0  0  0
  -25.9550  -32.5210   23.8480 C   0  0  0  0  0  3  0  0  0  0  0  0
  -25.6470  -33.9200   24.1750 N   0  0  0  0  0  0  0  0  0  0  0  0
  -25.9670  -34.9740   23.4140 C   0  0  0  0  0  0  0  0  0  0  0  0
  -26.6290  -34.8750   22.3790 O   0  0  0  0  0  0  0  0  0  0  0  0
  -25.0750  -34.0720   24.9920 H   0  0  0  0  0  0  0  0  0  0  0  0
  -24.2250  -36.7580   23.0760 C   0  0  0  0  0  1  0  0  0  0  0  0
  -25.4740  -36.3580   23.8770 C   0  0  0  0  0  3  0  0  0  0  0  0
  -27.6050  -37.2550   24.6970 C   0  0  0  0  0  1  0  0  0  0  0  0
  -26.4960  -37.4210   23.7620 N   0  0  0  0  0  0  0  0  0  0  0  0
  -26.0840  -38.3390   23.9160 H   0  0  0  0  0  0  0  0  0  0  0  0
  -26.4660  -31.7590   25.1340 C   0  0  1  0  0  0  0  0  0  0  0  0
  -25.3780  -31.5260   26.2050 C   0  0  0  0  0  1  0  0  0  0  0  0
  -27.0400  -30.3810   24.7360 C   0  0  0  0  0  1  0  0  0  0  0  0
  -27.6070  -32.5590   25.8060 C   0  0  0  0  0  1  0  0  0  0  0  0
  1  8  2  0
  1  2  1  0
  2  7  2  0
  3  7  1  0
  3  6  1  0
  4  3  2  0
  5  1  1  0
  8  4  1  0
  9  4  1  0
  9 51  1  0
 10 11  1  0
 11  9  1  0
 12  2  1  0
 12 21  1  0
 13 21  1  0
 14 19  1  0
 15 16  1  0
 15 14  1  0
 17 16  1  0
 17 26  1  0
 17 18  1  0
 19 13  1  0
 19 18  1  0
 20 13  2  0
 21 22  1  0
 23 24  2  0
 24 43  1  0
 25 24  1  0
 25 28  1  0
 26 23  1  0
 26 27  1  0
 27 25  2  0
 28 29  1  0
 29 30  2  0
 31 34  1  0
 31 30  1  0
 32 31  2  0
 33 32  1  0
 33 28  2  0
 34 35  1  0
 35 36  1  0
 36 37  2  0
 38 37  1  0
 38 42  1  0
 39 38  2  0
 40 35  2  0
 40 39  1  0
 41 40  1  0
 43 44  1  0
 44 47  1  0
 44 46  1  0
 45 43  2  0
 48 49  1  0
 48 23  1  0
 50 48  1  0
 52 51  1  0
 53 54  1  0
 53 52  1  0
 54 56  1  0
 55 66  2  0
 56 61  1  0
 57 65  1  0
 57 67  1  0
 58 64  1  0
 58 60  1  0
 59 65  1  0
 60 59  1  0
 61 60  2  0
 62 56  2  0
 63 62  1  0
 63 58  2  0
 64 57  1  0
 65 55  1  0
 67 69  2  0
 68 67  1  0
 70 68  1  0
 71 80  2  0
 71 76  1  0
 72 68  1  0
 72 76  1  0
 73 72  1  0
 74 75  1  0
 74 73  1  0
 75 71  1  0
 76 77  2  0
 77 78  1  0
 79 78  2  0
 80 79  1  0
 81 55  1  0
 81 82  1  0
 81 91  1  0
 82 85  1  0
 83 87  1  0
 83 82  1  0
 84 83  2  0
 87 86  1  0
 89 87  1  0
 89 90  1  0
 89 88  1  0
 91 94  1  1
 91 92  1  0
 93 91  1  0
M  ISO  4  13 100  21 100  53 101  54 101
M  END
>  <TORSDO>  (59) 
F 21

>  <SCORE>  (59) 
-13.179

>  <name>  (59) 
60

>  <ligand_id>  (59) 
60

>  <original_smiles>  (59) 
[H]c1c([H])c([H])c2c(c1[H])C([H])([H])C([H])([H])C([H])([H])C2([H])N([H])C(=O)C1([H])N(C(=O)C([H])(N([H])C(=O)C([H])(N([H])C([H])([H])[H])C([H])([H])[H])C(C([H])([H])[H])(C([H])([H])[H])C([H])([H])[H])C([H])([H])c2c([H])c(OC([H])([H])C([H])([H])C([H])([H])N(c3nc(C([H])([H])[H])c(C([H])([H])N([H])C(=O)N4C([H])([H])C([H])([H])C([H])([H])C([H])(n5nc(-c6c([H])c([H])c(Oc7c([H])c([H])c(F)c([H])c7F)c([H])c6[H])c(C(=O)N([H])[H])c5N([H])[H])C4([H])[H])nc3C([H])([H])[H])C([H])([H])C([H])([H])[H])c([H])c([H])c2C1([H])[H]

>  <smiles>  (59) 
[H]c1c([H])c([H])c2c(c1[H])C([H])([H])C([H])([H])C([H])([H])C2([H])N([H])C(=O)C1([H])N(C(=O)C([H])(N([H])C(=O)C([H])(N([H])C([H])([H])[H])C([H])([H])[H])C(C([H])([H])[H])(C([H])([H])[H])C([H])([H])[H])C([H])([H])c2c([H])c(OC([H])([H])C([H])([H])C([H])([H])N(c3nc(C([H])([H])[H])c(C([H])([H])N([H])C(=O)N4C([H])([H])C([H])([H])C([H])([H])C([H])(n5nc(-c6c([H])c([H])c(Oc7c([H])c([H])c(F)c([H])c7F)c([H])c6[H])c(C(=O)N([H])[H])c5N([H])[H])C4([H])[H])nc3C([H])([H])[H])C([H])([H])C([H])([H])[H])c([H])c([H])c2C1([H])[H]

$$$$
61:0:0
     RDKit          3D

 96104  0  0  1  0  0  0  0  0999 V2000
  -29.5230  -20.0360   22.4800 C   0  0  0  0  0  3  0  0  0  0  0  0
  -29.2410  -21.3650   22.2960 C   0  0  0  0  0  3  0  0  0  0  0  0
  -30.6150  -19.7430   21.6090 C   0  0  0  0  0  0  0  0  0  0  0  0
  -30.9910  -20.8780   20.9730 N   0  0  0  0  0  0  0  0  0  0  0  0
  -30.1180  -21.8770   21.3630 N   0  0  0  0  0  0  0  0  0  0  0  0
  -30.2790  -23.3160   20.9790 C   0  0  0  0  0  2  0  0  0  0  0  0
  -29.0030  -24.1340   20.4980 C   0  0  0  0  0  2  0  0  0  0  0  0
  -28.8170  -25.6240   21.0250 C   0  0  0  0  0  2  0  0  0  0  0  0
  -28.6140  -26.7100   20.0660 O   0  0  0  0  0  0  0  0  0  0  0  0
  -24.6540  -31.8790   23.1650 C   0  0  0  0  0  0  0  0  0  0  0  0
  -27.4400  -27.4590   20.1200 C   0  0  0  0  0  0  0  0  0  0  0  0
  -23.5080  -30.4790   21.4790 C   0  0  0  0  0  3  0  0  0  0  0  0
  -25.0220  -28.9690   20.0730 C   0  0  0  0  0  0  0  0  0  0  0  0
  -26.0360  -30.8660   21.3460 C   0  0  0  0  0  2  0  0  0  0  0  0
  -26.1620  -29.4950   20.6970 C   0  0  0  0  0  0  0  0  0  0  0  0
  -27.3740  -28.7520   20.7130 C   0  0  0  0  0  3  0  0  0  0  0  0
  -26.2820  -26.9620   19.4870 C   0  0  0  0  0  3  0  0  0  0  0  0
  -25.0820  -27.7060   19.4600 C   0  0  0  0  0  3  0  0  0  0  0  0
  -23.7640  -29.8160   20.0980 C   0  0  0  0  0  2  0  0  0  0  0  0
  -24.7500  -31.0910   22.0550 N   0  0  0  0  0  0  0  0  0  0  0  0
  -23.5580  -32.1280   23.6850 O   0  0  0  0  0  0  0  0  0  0  0  0
  -22.8480  -29.4400   22.4160 C   0  0  0  0  0  0  0  0  0  0  0  0
  -21.5200  -29.2790   22.2960 N   0  0  0  0  0  0  0  0  0  0  0  0
  -23.5300  -28.7820   23.2060 O   0  0  0  0  0  0  0  0  0  0  0  0
  -21.0290  -29.8660   21.6350 H   0  0  0  0  0  0  0  0  0  0  0  0
  -18.1290  -28.1430   22.8340 C   0  0  0  0  0  0  0  0  0  0  0  0
  -20.6990  -28.3260   23.0450 C   0  0  0  0  0  3  0  0  0  0  0  0
  -20.7490  -26.9210   22.3980 C   0  0  0  0  0  2  0  0  0  0  0  0
  -19.6120  -26.6740   21.4010 C   0  0  0  0  0  2  0  0  0  0  0  0
  -18.2520  -26.8230   22.0900 C   0  0  0  0  0  2  0  0  0  0  0  0
  -19.2780  -28.8550   23.2680 C   0  0  0  0  0  0  0  0  0  0  0  0
  -19.1080  -30.0940   23.9250 C   0  0  0  0  0  3  0  0  0  0  0  0
  -17.8210  -30.6180   24.1500 C   0  0  0  0  0  3  0  0  0  0  0  0
  -16.6870  -29.9010   23.7320 C   0  0  0  0  0  3  0  0  0  0  0  0
  -16.8410  -28.6650   23.0790 C   0  0  0  0  0  3  0  0  0  0  0  0
  -25.9150  -32.5250   23.8200 C   0  0  0  0  0  3  0  0  0  0  0  0
  -26.4150  -31.7530   25.1030 C   0  0  1  0  0  0  0  0  0  0  0  0
  -25.3020  -31.4950   26.1460 C   0  0  0  0  0  1  0  0  0  0  0  0
  -27.0240  -30.3850   24.7150 C   0  0  0  0  0  1  0  0  0  0  0  0
  -27.5380  -32.5590   25.7960 C   0  0  0  0  0  1  0  0  0  0  0  0
  -25.5810  -33.9180   24.1510 N   0  0  0  0  0  0  0  0  0  0  0  0
  -25.9200  -34.9790   23.4080 C   0  0  0  0  0  0  0  0  0  0  0  0
  -26.6150  -34.8900   22.3930 O   0  0  0  0  0  0  0  0  0  0  0  0
  -24.9660  -34.0580   24.9390 H   0  0  0  0  0  0  0  0  0  0  0  0
  -24.1740  -36.7510   23.0280 C   0  0  0  0  0  1  0  0  0  0  0  0
  -25.4040  -36.3580   23.8620 C   0  0  0  0  0  3  0  0  0  0  0  0
  -27.5090  -37.2670   24.7410 C   0  0  0  0  0  1  0  0  0  0  0  0
  -26.4240  -37.4260   23.7760 N   0  0  0  0  0  0  0  0  0  0  0  0
  -26.0020  -38.3390   23.9210 H   0  0  0  0  0  0  0  0  0  0  0  0
  -31.2450  -18.3190   21.3960 C   0  0  0  0  0  2  0  0  0  0  0  0
  -30.8100  -17.5160   20.0990 C   0  0  0  0  0  3  0  0  0  0  0  0
  -31.3290  -14.9470   20.8140 C   0  0  0  0  0  0  0  0  0  0  0  0
  -31.1410  -12.5470   20.1600 C   0  0  0  0  0  2  0  0  0  0  0  0
  -30.3500  -12.3210   18.8540 C   0  0  0  0  0  2  0  0  0  0  0  0
  -28.8200  -12.3810   19.0710 C   0  0  0  0  0  2  0  0  0  0  0  0
  -28.3270  -13.4480   20.0900 C   0  0  0  0  0  3  0  0  0  0  0  0
  -29.2590  -13.5440   21.3170 C   0  0  0  0  0  2  0  0  0  0  0  0
  -30.6240  -13.7610   20.8160 N   0  0  0  0  0  0  0  0  0  0  0  0
  -32.5290  -14.9620   21.0810 O   0  0  0  0  0  0  0  0  0  0  0  0
  -30.8300  -15.9700   20.0080 N   0  0  0  0  0  0  0  0  0  0  0  0
  -25.8890  -14.1600   20.5660 C   0  0  0  0  0  0  0  0  0  0  0  0
  -24.7560  -13.4460   20.8190 C   0  0  0  0  0  0  0  0  0  0  0  0
  -25.1610  -12.0800   20.8530 C   0  0  0  0  0  0  0  0  0  0  0  0
  -26.9240  -13.2400   20.4570 N   0  0  0  0  0  0  0  0  0  0  0  0
  -26.4770  -11.9820   20.7040 N   0  0  0  0  0  0  0  0  0  0  0  0
  -24.3550  -10.8620   20.9570 C   0  0  0  0  0  0  0  0  0  0  0  0
  -24.6790   -9.8470   21.8820 C   0  0  0  0  0  3  0  0  0  0  0  0
  -23.8750   -8.6920   21.9790 C   0  0  0  0  0  3  0  0  0  0  0  0
  -22.7350   -8.5470   21.1530 C   0  0  0  0  0  0  0  0  0  0  0  0
  -22.4310   -9.5530   20.2180 C   0  0  0  0  0  3  0  0  0  0  0  0
  -23.2360  -10.7000   20.1180 C   0  0  0  0  0  3  0  0  0  0  0  0
  -21.9120   -7.4480   21.1630 O   0  0  0  0  0  0  0  0  0  0  0  0
  -21.7800   -6.6600   22.2770 C   0  0  0  0  0  0  0  0  0  0  0  0
  -21.3620   -7.1880   23.5180 C   0  0  0  0  0  3  0  0  0  0  0  0
  -21.1700   -6.3300   24.6200 C   0  0  0  0  0  3  0  0  0  0  0  0
  -21.3900   -4.9470   24.4820 C   0  0  0  0  0  0  0  0  0  0  0  0
  -21.8020   -4.4170   23.2460 C   0  0  0  0  0  3  0  0  0  0  0  0
  -21.9930   -5.2720   22.1470 C   0  0  0  0  0  0  0  0  0  0  0  0
  -22.3690   -4.7550   20.9510 F   0  0  0  0  0  0  0  0  0  0  0  0
  -21.2000   -4.1210   25.5370 F   0  0  0  0  0  0  0  0  0  0  0  0
  -23.3640  -13.9990   20.9130 C   0  0  0  0  0  0  0  0  0  0  0  0
  -22.5090  -13.3740   21.7150 N   0  0  0  0  0  0  0  0  0  0  0  0
  -23.0400  -15.0240   20.3130 O   0  0  0  0  0  0  0  0  0  0  0  0
  -22.7790  -12.5480   22.2280 H   0  0  0  0  0  0  0  0  0  0  0  0
  -21.5710  -13.7310   21.8230 H   0  0  0  0  0  0  0  0  0  0  0  0
  -26.0840  -15.5150   20.3890 N   0  0  0  0  0  0  0  0  0  0  0  0
  -25.3140  -16.1740   20.4000 H   0  0  0  0  0  0  0  0  0  0  0  0
  -26.9580  -15.9330   20.0990 H   0  0  0  0  0  0  0  0  0  0  0  0
  -30.9110  -15.6670   18.5500 C   0  0  0  0  0  2  0  0  0  0  0  0
  -32.3310  -15.3480   18.0050 C   0  0  0  0  0  2  0  0  0  0  0  0
  -32.0750  -16.3890   15.6500 C   0  0  0  0  0  1  0  0  0  0  0  0
  -32.3970  -15.1420   16.4820 C   0  0  0  0  0  2  0  0  0  0  0  0
  -28.3430  -17.1980   19.2290 C   0  0  0  0  0  1  0  0  0  0  0  0
  -29.4850  -18.1530   19.5180 C   0  0  0  0  0  3  0  0  0  0  0  0
  -29.3590  -18.8210   16.9660 C   0  0  0  0  0  1  0  0  0  0  0  0
  -29.6950  -19.2260   18.4120 C   0  0  0  0  0  2  0  0  0  0  0  0
  2  1  2  0
  3  1  1  0
  4  5  1  0
  4  3  2  0
  5  2  1  0
  6  5  1  0
  7  6  1  0
  7  8  1  0
  9 11  1  0
  9  8  1  0
 10 21  2  0
 11 16  1  0
 12 20  1  0
 12 22  1  0
 13 19  1  0
 13 15  1  0
 14 20  1  0
 15 16  2  0
 15 14  1  0
 17 11  2  0
 18 17  1  0
 18 13  2  0
 19 12  1  0
 20 10  1  0
 22 24  2  0
 23 22  1  0
 25 23  1  0
 26 35  2  0
 26 31  1  0
 27 23  1  0
 27 31  1  0
 28 27  1  0
 29 30  1  0
 29 28  1  0
 30 26  1  0
 31 32  2  0
 32 33  1  0
 34 33  2  0
 35 34  1  0
 36 10  1  0
 36 41  1  0
 36 37  1  0
 37 40  1  1
 37 38  1  0
 39 37  1  0
 41 44  1  0
 42 46  1  0
 42 41  1  0
 43 42  2  0
 46 45  1  0
 48 46  1  0
 48 49  1  0
 48 47  1  0
 50  3  1  0
 51 50  1  0
 52 58  1  0
 52 59  2  0
 53 58  1  0
 54 55  1  0
 54 53  1  0
 56 55  1  0
 56 64  1  0
 56 57  1  0
 58 57  1  0
 60 51  1  0
 60 52  1  0
 61 62  2  0
 62 63  1  0
 62 81  1  0
 63 66  1  0
 64 61  1  0
 64 65  1  0
 65 63  2  0
 66 67  1  0
 67 68  2  0
 69 72  1  0
 69 68  1  0
 70 69  2  0
 71 70  1  0
 71 66  2  0
 72 73  1  0
 73 74  1  0
 74 75  2  0
 76 75  1  0
 76 80  1  0
 77 76  2  0
 78 73  2  0
 78 77  1  0
 79 78  1  0
 81 82  1  0
 82 85  1  0
 82 84  1  0
 83 81  2  0
 86 87  1  0
 86 61  1  0
 88 86  1  0
 89 60  1  0
 90 89  1  0
 91 92  1  0
 92 90  1  0
 94 93  1  0
 94 51  1  0
 95 96  1  0
 96 94  1  0
M  ISO  4   8 101   9 101  52 100  60 100
M  END
>  <TORSDO>  (60) 
F 26

>  <SCORE>  (60) 
-10.476

>  <name>  (60) 
61

>  <ligand_id>  (60) 
61

>  <original_smiles>  (60) 
[H]c1c([H])c([H])c2c(c1[H])C([H])([H])C([H])([H])C([H])([H])C2([H])N([H])C(=O)C1([H])N(C(=O)C([H])(N([H])C(=O)C([H])(N([H])C([H])([H])[H])C([H])([H])[H])C(C([H])([H])[H])(C([H])([H])[H])C([H])([H])[H])C([H])([H])c2c([H])c(OC([H])([H])C([H])([H])C([H])([H])n3nc(C([H])([H])C([H])(N(C(=O)N4C([H])([H])C([H])([H])C([H])([H])C([H])(n5nc(-c6c([H])c([H])c(Oc7c([H])c([H])c(F)c([H])c7F)c([H])c6[H])c(C(=O)N([H])[H])c5N([H])[H])C4([H])[H])C([H])([H])C([H])([H])C([H])([H])C([H])([H])[H])C([H])(C([H])([H])[H])C([H])([H])C([H])([H])[H])c([H])c3[H])c([H])c([H])c2C1([H])[H]

>  <smiles>  (60) 
[H]c1c([H])c([H])c2c(c1[H])C([H])([H])C([H])([H])C([H])([H])C2([H])N([H])C(=O)C1([H])N(C(=O)C([H])(N([H])C(=O)C([H])(N([H])C([H])([H])[H])C([H])([H])[H])C(C([H])([H])[H])(C([H])([H])[H])C([H])([H])[H])C([H])([H])c2c([H])c(OC([H])([H])C([H])([H])C([H])([H])n3nc(C([H])([H])C([H])(N(C(=O)N4C([H])([H])C([H])([H])C([H])([H])C([H])(n5nc(-c6c([H])c([H])c(Oc7c([H])c([H])c(F)c([H])c7F)c([H])c6[H])c(C(=O)N([H])[H])c5N([H])[H])C4([H])[H])C([H])([H])C([H])([H])C([H])([H])C([H])([H])[H])C([H])(C([H])([H])[H])C([H])([H])C([H])([H])[H])c([H])c3[H])c([H])c([H])c2C1([H])[H]

$$$$
62:0:0
     RDKit          3D

 93101  0  0  1  0  0  0  0  0999 V2000
  -29.2030  -20.3720   19.0400 C   0  0  0  0  0  3  0  0  0  0  0  0
  -29.7680  -19.9890   20.2340 C   0  0  0  0  0  0  0  0  0  0  0  0
  -29.5110  -22.3110   20.1560 C   0  0  0  0  0  3  0  0  0  0  0  0
  -29.9880  -21.2330   20.8850 N   0  0  0  0  0  0  0  0  0  0  0  0
  -29.0650  -21.7470   19.0260 N   0  0  0  0  0  0  0  0  0  0  0  0
  -28.6740  -22.2620   18.2470 H   0  0  0  0  0  0  0  0  0  0  0  0
  -31.9620  -22.1610   22.1750 C   0  0  0  0  0  1  0  0  0  0  0  0
  -30.6330  -21.3800   22.2160 C   0  0  0  0  0  3  0  0  0  0  0  0
  -30.1570  -21.7060   24.7270 C   0  0  0  0  0  1  0  0  0  0  0  0
  -29.6310  -21.8590   23.2920 C   0  0  0  0  0  2  0  0  0  0  0  0
  -29.9720  -18.5230   20.8090 C   0  0  0  0  0  2  0  0  0  0  0  0
  -30.6700  -17.3480   19.9490 C   0  0  0  0  0  2  0  0  0  0  0  0
  -31.0500  -14.7480   19.9770 C   0  0  0  0  0  0  0  0  0  0  0  0
  -30.7150  -12.4970   18.9600 C   0  0  0  0  0  2  0  0  0  0  0  0
  -29.7230  -12.6450   17.7850 C   0  0  0  0  0  2  0  0  0  0  0  0
  -28.2710  -12.5190   18.2880 C   0  0  0  0  0  2  0  0  0  0  0  0
  -27.9920  -13.3950   19.5410 C   0  0  0  0  0  3  0  0  0  0  0  0
  -29.1060  -13.2350   20.6010 C   0  0  0  0  0  2  0  0  0  0  0  0
  -30.3830  -13.5460   19.9490 N   0  0  0  0  0  0  0  0  0  0  0  0
  -32.2040  -14.8290   19.5460 O   0  0  0  0  0  0  0  0  0  0  0  0
  -30.3300  -15.8910   20.2710 N   0  0  0  0  0  0  0  0  0  0  0  0
  -29.3920  -15.7180   20.5970 H   0  0  0  0  0  0  0  0  0  0  0  0
  -25.6690  -14.0540   20.4160 C   0  0  0  0  0  0  0  0  0  0  0  0
  -24.5990  -13.3100   20.8280 C   0  0  0  0  0  0  0  0  0  0  0  0
  -25.0080  -11.9440   20.7340 C   0  0  0  0  0  0  0  0  0  0  0  0
  -26.6650  -13.1450   20.0970 N   0  0  0  0  0  0  0  0  0  0  0  0
  -26.2780  -11.8690   20.3490 N   0  0  0  0  0  0  0  0  0  0  0  0
  -24.2460  -10.7040   20.9340 C   0  0  0  0  0  0  0  0  0  0  0  0
  -24.6660   -9.7150   21.8500 C   0  0  0  0  0  3  0  0  0  0  0  0
  -23.9020   -8.5400   22.0360 C   0  0  0  0  0  3  0  0  0  0  0  0
  -22.7050   -8.3480   21.3060 C   0  0  0  0  0  0  0  0  0  0  0  0
  -22.3060   -9.3250   20.3760 C   0  0  0  0  0  3  0  0  0  0  0  0
  -23.0710  -10.4900   20.1880 C   0  0  0  0  0  3  0  0  0  0  0  0
  -21.9140   -7.2280   21.4050 O   0  0  0  0  0  0  0  0  0  0  0  0
  -21.8040   -6.5260   22.5790 C   0  0  0  0  0  0  0  0  0  0  0  0
  -21.3470   -7.1330   23.7700 C   0  0  0  0  0  3  0  0  0  0  0  0
  -21.1800   -6.3580   24.9350 C   0  0  0  0  0  3  0  0  0  0  0  0
  -21.4580   -4.9780   24.9120 C   0  0  0  0  0  0  0  0  0  0  0  0
  -21.9060   -4.3710   23.7250 C   0  0  0  0  0  3  0  0  0  0  0  0
  -22.0750   -5.1430   22.5620 C   0  0  0  0  0  0  0  0  0  0  0  0
  -22.4870   -4.5480   21.4170 F   0  0  0  0  0  0  0  0  0  0  0  0
  -21.2910   -4.2330   26.0300 F   0  0  0  0  0  0  0  0  0  0  0  0
  -23.2370  -13.8280   21.1910 C   0  0  0  0  0  0  0  0  0  0  0  0
  -22.5420  -13.1550   22.1010 N   0  0  0  0  0  0  0  0  0  0  0  0
  -22.8010  -14.8700   20.7010 O   0  0  0  0  0  0  0  0  0  0  0  0
  -22.9050  -12.3110   22.5220 H   0  0  0  0  0  0  0  0  0  0  0  0
  -21.6330  -13.4890   22.3870 H   0  0  0  0  0  0  0  0  0  0  0  0
  -25.8680  -15.4230   20.2640 N   0  0  0  0  0  0  0  0  0  0  0  0
  -25.1210  -16.0880   20.4380 H   0  0  0  0  0  0  0  0  0  0  0  0
  -26.6970  -15.8550   19.8770 H   0  0  0  0  0  0  0  0  0  0  0  0
  -29.5770  -23.8750   20.4270 C   0  0  0  0  0  3  0  0  0  0  0  0
  -28.4840  -24.9240   19.8710 C   0  0  0  0  0  3  0  0  0  0  0  0
  -28.5920  -26.3910   20.1970 O   0  0  0  0  0  0  0  0  0  0  0  0
  -24.6100  -31.6500   23.1790 C   0  0  0  0  0  0  0  0  0  0  0  0
  -27.4700  -27.2450   20.0860 C   0  0  0  0  0  0  0  0  0  0  0  0
  -23.5190  -30.2880   21.4340 C   0  0  0  0  0  3  0  0  0  0  0  0
  -25.0730  -28.8300   20.0130 C   0  0  0  0  0  0  0  0  0  0  0  0
  -26.0580  -30.6650   21.3860 C   0  0  0  0  0  2  0  0  0  0  0  0
  -26.2010  -29.3120   20.6900 C   0  0  0  0  0  0  0  0  0  0  0  0
  -27.3990  -28.5300   20.7210 C   0  0  0  0  0  3  0  0  0  0  0  0
  -26.3260  -26.8410   19.3580 C   0  0  0  0  0  3  0  0  0  0  0  0
  -25.1400  -27.6010   19.3400 C   0  0  0  0  0  3  0  0  0  0  0  0
  -23.8130  -29.6730   20.0390 C   0  0  0  0  0  2  0  0  0  0  0  0
  -24.7450  -30.8850   22.0550 N   0  0  0  0  0  0  0  0  0  0  0  0
  -23.4950  -31.8790   23.6740 O   0  0  0  0  0  0  0  0  0  0  0  0
  -22.8400  -29.2190   22.3230 C   0  0  0  0  0  0  0  0  0  0  0  0
  -21.5130  -29.0650   22.1820 N   0  0  0  0  0  0  0  0  0  0  0  0
  -23.5100  -28.5360   23.1020 O   0  0  0  0  0  0  0  0  0  0  0  0
  -21.0310  -29.6670   21.5300 H   0  0  0  0  0  0  0  0  0  0  0  0
  -18.1180  -27.9010   22.6290 C   0  0  0  0  0  0  0  0  0  0  0  0
  -20.6830  -28.0890   22.8900 C   0  0  0  0  0  3  0  0  0  0  0  0
  -20.7520  -26.7030   22.2080 C   0  0  0  0  0  2  0  0  0  0  0  0
  -19.6340  -26.4780   21.1860 C   0  0  0  0  0  2  0  0  0  0  0  0
  -18.2610  -26.6040   21.8520 C   0  0  0  0  0  2  0  0  0  0  0  0
  -19.2560  -28.6070   23.1030 C   0  0  0  0  0  0  0  0  0  0  0  0
  -19.0670  -29.8280   23.7880 C   0  0  0  0  0  3  0  0  0  0  0  0
  -17.7740  -30.3380   24.0060 C   0  0  0  0  0  3  0  0  0  0  0  0
  -16.6510  -29.6290   23.5460 C   0  0  0  0  0  3  0  0  0  0  0  0
  -16.8250  -28.4120   22.8620 C   0  0  0  0  0  3  0  0  0  0  0  0
  -25.8460  -32.2910   23.8810 C   0  0  0  0  0  3  0  0  0  0  0  0
  -25.5120  -33.6930   24.1730 N   0  0  0  0  0  0  0  0  0  0  0  0
  -25.8750  -34.7370   23.4160 C   0  0  0  0  0  0  0  0  0  0  0  0
  -26.5910  -34.6220   22.4180 O   0  0  0  0  0  0  0  0  0  0  0  0
  -24.8840  -33.8560   24.9460 H   0  0  0  0  0  0  0  0  0  0  0  0
  -24.1480  -36.5100   22.9630 C   0  0  0  0  0  1  0  0  0  0  0  0
  -25.3590  -36.1290   23.8290 C   0  0  0  0  0  3  0  0  0  0  0  0
  -27.4480  -37.0510   24.7330 C   0  0  0  0  0  1  0  0  0  0  0  0
  -26.3880  -37.1880   23.7380 N   0  0  0  0  0  0  0  0  0  0  0  0
  -25.9680  -38.1080   23.8450 H   0  0  0  0  0  0  0  0  0  0  0  0
  -26.2690  -31.5350   25.2000 C   0  0  1  0  0  0  0  0  0  0  0  0
  -25.1070  -31.3270   26.1980 C   0  0  0  0  0  1  0  0  0  0  0  0
  -26.8640  -30.1460   24.8720 C   0  0  0  0  0  1  0  0  0  0  0  0
  -27.3820  -32.3300   25.9220 C   0  0  0  0  0  1  0  0  0  0  0  0
  1  2  2  0
  2 11  1  0
  2  4  1  0
  3 51  1  0
  3  4  1  0
  4  8  1  0
  5  1  1  0
  5  3  1  0
  6  5  1  0
  8  7  1  0
  8 10  1  0
 10  9  1  0
 12 21  1  0
 12 11  1  0
 13 21  1  0
 14 19  1  0
 15 16  1  0
 15 14  1  0
 17 16  1  0
 17 26  1  0
 17 18  1  0
 19 13  1  0
 19 18  1  0
 20 13  2  0
 21 22  1  0
 23 24  2  0
 24 43  1  0
 25 24  1  0
 25 28  1  0
 26 27  1  0
 26 23  1  0
 27 25  2  0
 28 29  1  0
 29 30  2  0
 31 34  1  0
 31 30  1  0
 32 31  2  0
 33 32  1  0
 33 28  2  0
 34 35  1  0
 35 36  1  0
 36 37  2  0
 38 37  1  0
 38 42  1  0
 39 38  2  0
 40 35  2  0
 40 39  1  0
 41 40  1  0
 43 44  1  0
 44 47  1  0
 44 46  1  0
 45 43  2  0
 48 23  1  0
 48 49  1  0
 50 48  1  0
 52 53  1  0
 52 51  2  0
 54 65  2  0
 55 53  1  0
 55 60  1  0
 56 64  1  0
 56 66  1  0
 57 63  1  0
 57 59  1  0
 58 64  1  0
 59 60  2  0
 59 58  1  0
 61 55  2  0
 62 61  1  0
 62 57  2  0
 63 56  1  0
 64 54  1  0
 66 68  2  0
 67 66  1  0
 69 67  1  0
 70 79  2  0
 70 75  1  0
 71 67  1  0
 71 75  1  0
 72 71  1  0
 73 74  1  0
 73 72  1  0
 74 70  1  0
 75 76  2  0
 76 77  1  0
 78 77  2  0
 79 78  1  0
 80 54  1  0
 80 81  1  0
 80 90  1  0
 81 84  1  0
 82 86  1  0
 82 81  1  0
 83 82  2  0
 86 85  1  0
 88 86  1  0
 88 89  1  0
 88 87  1  0
 90 93  1  1
 90 91  1  0
 92 90  1  0
M  ISO  4  13 100  21 100  52 101  53 101
M  END
>  <TORSDO>  (61) 
F 22

>  <SCORE>  (61) 
-12.574

>  <name>  (61) 
62

>  <ligand_id>  (61) 
62

>  <original_smiles>  (61) 
[H]c1c([H])c([H])c2c(c1[H])C([H])([H])C([H])([H])C([H])([H])C2([H])N([H])C(=O)C1([H])N(C(=O)C([H])(N([H])C(=O)C([H])(N([H])C([H])([H])[H])C([H])([H])[H])C(C([H])([H])[H])(C([H])([H])[H])C([H])([H])[H])C([H])([H])c2c([H])c(OC([H])([H])C([H])([H])c3n(C([H])(C([H])([H])[H])C([H])([H])C([H])([H])[H])c(C([H])([H])C([H])([H])N([H])C(=O)N4C([H])([H])C([H])([H])C([H])([H])C([H])(n5nc(-c6c([H])c([H])c(Oc7c([H])c([H])c(F)c([H])c7F)c([H])c6[H])c(C(=O)N([H])[H])c5N([H])[H])C4([H])[H])c([H])[n+]3[H])c([H])c([H])c2C1([H])[H]

>  <smiles>  (61) 
[H]c1c([H])c([H])c2c(c1[H])C([H])([H])C([H])([H])C([H])([H])C2([H])N([H])C(=O)C1([H])N(C(=O)C([H])(N([H])C(=O)C([H])(N([H])C([H])([H])[H])C([H])([H])[H])C(C([H])([H])[H])(C([H])([H])[H])C([H])([H])[H])C([H])([H])c2c([H])c(OC([H])([H])C([H])([H])c3n(C([H])(C([H])([H])[H])C([H])([H])C([H])([H])[H])c(C([H])([H])C([H])([H])N([H])C(=O)N4C([H])([H])C([H])([H])C([H])([H])C([H])(n5nc(-c6c([H])c([H])c(Oc7c([H])c([H])c(F)c([H])c7F)c([H])c6[H])c(C(=O)N([H])[H])c5N([H])[H])C4([H])[H])c([H])[n+]3[H])c([H])c([H])c2C1([H])[H]

$$$$
63:0:0
     RDKit          3D

 89 97  0  0  1  0  0  0  0  0999 V2000
  -30.8850  -21.7560   19.0280 C   0  0  0  0  0  3  0  0  0  0  0  0
  -30.1720  -19.9160   19.7680 C   0  0  0  0  0  0  0  0  0  0  0  0
  -31.7090  -20.8530   18.5160 N   0  0  0  0  0  0  0  0  0  0  0  0
  -31.2370  -19.6660   18.9840 N   0  0  0  0  0  0  0  0  0  0  0  0
  -29.8830  -21.2990   19.8070 N   0  0  0  0  0  0  0  0  0  0  0  0
  -29.4810  -18.6330   20.3630 C   0  0  0  0  0  3  0  0  0  0  0  0
  -30.4040  -17.2850   20.3940 C   0  0  0  0  0  3  0  0  0  0  0  0
  -30.6080  -14.7100   20.3990 C   0  0  0  0  0  0  0  0  0  0  0  0
  -30.3670  -12.4550   19.3740 C   0  0  0  0  0  2  0  0  0  0  0  0
  -29.4300  -12.5600   18.1520 C   0  0  0  0  0  2  0  0  0  0  0  0
  -27.9560  -12.4120   18.5840 C   0  0  0  0  0  2  0  0  0  0  0  0
  -27.5990  -13.2810   19.8190 C   0  0  0  0  0  3  0  0  0  0  0  0
  -28.6600  -13.1670   20.9340 C   0  0  0  0  0  2  0  0  0  0  0  0
  -29.9560  -13.5020   20.3330 N   0  0  0  0  0  0  0  0  0  0  0  0
  -31.7930  -14.7880   20.0650 O   0  0  0  0  0  0  0  0  0  0  0  0
  -29.8780  -15.8670   20.6140 N   0  0  0  0  0  0  0  0  0  0  0  0
  -28.9030  -15.7580   20.8440 H   0  0  0  0  0  0  0  0  0  0  0  0
  -25.2080  -13.8650   20.5450 C   0  0  0  0  0  0  0  0  0  0  0  0
  -24.1470  -13.0900   20.9190 C   0  0  0  0  0  0  0  0  0  0  0  0
  -24.6130  -11.7400   20.8920 C   0  0  0  0  0  0  0  0  0  0  0  0
  -26.2550  -12.9890   20.3100 N   0  0  0  0  0  0  0  0  0  0  0  0
  -25.9030  -11.7060   20.5800 N   0  0  0  0  0  0  0  0  0  0  0  0
  -23.8890  -10.4770   21.0860 C   0  0  0  0  0  0  0  0  0  0  0  0
  -24.3320   -9.5010   22.0060 C   0  0  0  0  0  3  0  0  0  0  0  0
  -23.6060   -8.3040   22.1860 C   0  0  0  0  0  3  0  0  0  0  0  0
  -22.4210   -8.0730   21.4460 C   0  0  0  0  0  0  0  0  0  0  0  0
  -22.0000   -9.0360   20.5110 C   0  0  0  0  0  3  0  0  0  0  0  0
  -22.7270  -10.2240   20.3300 C   0  0  0  0  0  3  0  0  0  0  0  0
  -21.6650   -6.9300   21.5370 O   0  0  0  0  0  0  0  0  0  0  0  0
  -21.6430   -6.1710   22.6800 C   0  0  0  0  0  0  0  0  0  0  0  0
  -21.2580   -6.7130   23.9260 C   0  0  0  0  0  3  0  0  0  0  0  0
  -21.1840   -5.8820   25.0620 C   0  0  0  0  0  3  0  0  0  0  0  0
  -21.4840   -4.5100   24.9520 C   0  0  0  0  0  0  0  0  0  0  0  0
  -21.8630   -3.9680   23.7110 C   0  0  0  0  0  3  0  0  0  0  0  0
  -21.9390   -4.7970   22.5770 C   0  0  0  0  0  0  0  0  0  0  0  0
  -22.2830   -4.2660   21.3790 F   0  0  0  0  0  0  0  0  0  0  0  0
  -21.4060   -3.7100   26.0400 F   0  0  0  0  0  0  0  0  0  0  0  0
  -22.7480  -13.5630   21.1930 C   0  0  0  0  0  0  0  0  0  0  0  0
  -22.0250  -12.8670   22.0620 N   0  0  0  0  0  0  0  0  0  0  0  0
  -22.3080  -14.5880   20.6730 O   0  0  0  0  0  0  0  0  0  0  0  0
  -22.3930  -12.0360   22.4990 H   0  0  0  0  0  0  0  0  0  0  0  0
  -21.0910  -13.1670   22.2980 H   0  0  0  0  0  0  0  0  0  0  0  0
  -25.3690  -15.2360   20.3600 N   0  0  0  0  0  0  0  0  0  0  0  0
  -24.6020  -15.8900   20.4700 H   0  0  0  0  0  0  0  0  0  0  0  0
  -26.2070  -15.6670   19.9920 H   0  0  0  0  0  0  0  0  0  0  0  0
  -28.8700  -22.2580   20.4110 C   0  0  0  0  0  2  0  0  0  0  0  0
  -29.0630  -23.8430   20.0660 C   0  0  0  0  0  3  0  0  0  0  0  0
  -28.0750  -24.9860   20.6040 C   0  0  0  0  0  3  0  0  0  0  0  0
  -28.3160  -26.4190   20.2260 O   0  0  0  0  0  0  0  0  0  0  0  0
  -24.6230  -31.8850   23.2250 C   0  0  0  0  0  0  0  0  0  0  0  0
  -27.2150  -27.2980   20.1880 C   0  0  0  0  0  0  0  0  0  0  0  0
  -23.4160  -30.4820   21.5910 C   0  0  0  0  0  3  0  0  0  0  0  0
  -24.8640  -28.9300   20.1630 C   0  0  0  0  0  0  0  0  0  0  0  0
  -25.9550  -30.7990   21.4010 C   0  0  0  0  0  2  0  0  0  0  0  0
  -26.0350  -29.4160   20.7600 C   0  0  0  0  0  0  0  0  0  0  0  0
  -27.2170  -28.6110   20.7600 C   0  0  0  0  0  3  0  0  0  0  0  0
  -26.0300  -26.8840   19.5440 C   0  0  0  0  0  3  0  0  0  0  0  0
  -24.8640  -27.6730   19.5430 C   0  0  0  0  0  3  0  0  0  0  0  0
  -23.6260  -29.8030   20.2120 C   0  0  0  0  0  2  0  0  0  0  0  0
  -24.6840  -31.0730   22.1290 N   0  0  0  0  0  0  0  0  0  0  0  0
  -23.5410  -32.1630   23.7620 O   0  0  0  0  0  0  0  0  0  0  0  0
  -22.7550  -29.4680   22.5560 C   0  0  0  0  0  0  0  0  0  0  0  0
  -21.4300  -29.2840   22.4300 N   0  0  0  0  0  0  0  0  0  0  0  0
  -23.4360  -28.8490   23.3780 O   0  0  0  0  0  0  0  0  0  0  0  0
  -20.9410  -29.8300   21.7350 H   0  0  0  0  0  0  0  0  0  0  0  0
  -18.0560  -28.0770   22.9340 C   0  0  0  0  0  0  0  0  0  0  0  0
  -20.6130  -28.3490   23.2060 C   0  0  0  0  0  3  0  0  0  0  0  0
  -20.7220  -26.9140   22.6380 C   0  0  0  0  0  2  0  0  0  0  0  0
  -19.6240  -26.5820   21.6250 C   0  0  0  0  0  2  0  0  0  0  0  0
  -18.2400  -26.7250   22.2660 C   0  0  0  0  0  2  0  0  0  0  0  0
  -19.1710  -28.8470   23.3610 C   0  0  0  0  0  0  0  0  0  0  0  0
  -18.9450  -30.1120   23.9460 C   0  0  0  0  0  3  0  0  0  0  0  0
  -17.6390  -30.6100   24.1050 C   0  0  0  0  0  3  0  0  0  0  0  0
  -16.5390  -29.8370   23.6940 C   0  0  0  0  0  3  0  0  0  0  0  0
  -16.7490  -28.5720   23.1180 C   0  0  0  0  0  3  0  0  0  0  0  0
  -25.9070  -32.5200   23.8430 C   0  0  0  0  0  3  0  0  0  0  0  0
  -25.5930  -33.9160   24.1840 N   0  0  0  0  0  0  0  0  0  0  0  0
  -25.9120  -34.9740   23.4260 C   0  0  0  0  0  0  0  0  0  0  0  0
  -26.5710  -34.8780   22.3870 O   0  0  0  0  0  0  0  0  0  0  0  0
  -25.0110  -34.0630   24.9950 H   0  0  0  0  0  0  0  0  0  0  0  0
  -24.1730  -36.7600   23.0950 C   0  0  0  0  0  1  0  0  0  0  0  0
  -25.4230  -36.3590   23.8930 C   0  0  0  0  0  3  0  0  0  0  0  0
  -27.5650  -37.2470   24.7030 C   0  0  0  0  0  1  0  0  0  0  0  0
  -26.4510  -37.4170   23.7740 N   0  0  0  0  0  0  0  0  0  0  0  0
  -26.0440  -38.3350   23.9290 H   0  0  0  0  0  0  0  0  0  0  0  0
  -26.4350  -31.7430   25.1110 C   0  0  1  0  0  0  0  0  0  0  0  0
  -25.3500  -31.4940   26.1840 C   0  0  0  0  0  1  0  0  0  0  0  0
  -27.0190  -30.3690   24.7080 C   0  0  0  0  0  1  0  0  0  0  0  0
  -27.5910  -32.5340   25.7660 C   0  0  0  0  0  1  0  0  0  0  0  0
  1  5  1  0
  2  5  1  0
  2  6  1  0
  3  4  1  0
  3  1  2  0
  4  2  2  0
  5 46  1  0
  6  7  2  0
  7 16  1  0
  8 16  1  0
  9 14  1  0
 10 11  1  0
 10  9  1  0
 12 11  1  0
 12 21  1  0
 12 13  1  0
 14  8  1  0
 14 13  1  0
 15  8  2  0
 16 17  1  0
 18 19  2  0
 19 38  1  0
 20 19  1  0
 20 23  1  0
 21 18  1  0
 21 22  1  0
 22 20  2  0
 23 24  1  0
 24 25  2  0
 26 29  1  0
 26 25  1  0
 27 26  2  0
 28 27  1  0
 28 23  2  0
 29 30  1  0
 30 31  1  0
 31 32  2  0
 33 32  1  0
 33 37  1  0
 34 33  2  0
 35 30  2  0
 35 34  1  0
 36 35  1  0
 38 39  1  0
 39 42  1  0
 39 41  1  0
 40 38  2  0
 43 44  1  0
 43 18  1  0
 45 43  1  0
 47 46  1  0
 47 48  2  0
 49 48  1  0
 50 61  2  0
 51 49  1  0
 51 56  1  0
 52 60  1  0
 52 62  1  0
 53 59  1  0
 53 55  1  0
 54 60  1  0
 55 56  2  0
 55 54  1  0
 57 51  2  0
 58 57  1  0
 58 53  2  0
 59 52  1  0
 60 50  1  0
 62 64  2  0
 63 62  1  0
 65 63  1  0
 66 75  2  0
 66 71  1  0
 67 63  1  0
 67 71  1  0
 68 67  1  0
 69 70  1  0
 69 68  1  0
 70 66  1  0
 71 72  2  0
 72 73  1  0
 74 73  2  0
 75 74  1  0
 76 50  1  0
 76 77  1  0
 76 86  1  0
 77 80  1  0
 78 82  1  0
 78 77  1  0
 79 78  2  0
 82 81  1  0
 84 82  1  0
 84 85  1  0
 84 83  1  0
 86 89  1  1
 86 87  1  0
 88 86  1  0
M  ISO  4   8 100  16 100  48 101  49 101
M  END
>  <TORSDO>  (62) 
F 21

>  <SCORE>  (62) 
-13.326

>  <name>  (62) 
63

>  <ligand_id>  (62) 
63

>  <original_smiles>  (62) 
[H]c1c([H])c([H])c2c(c1[H])C([H])([H])C([H])([H])C([H])([H])C2([H])N([H])C(=O)C1([H])N(C(=O)C([H])(N([H])C(=O)C([H])(N([H])C([H])([H])[H])C([H])([H])[H])C(C([H])([H])[H])(C([H])([H])[H])C([H])([H])[H])C([H])([H])c2c([H])c(OC([H])([H])C([H])([H])C([H])([H])n3c([H])nnc3C([H])([H])C([H])([H])N([H])C(=O)N3C([H])([H])C([H])([H])C([H])([H])C([H])(n4nc(-c5c([H])c([H])c(Oc6c([H])c([H])c(F)c([H])c6F)c([H])c5[H])c(C(=O)N([H])[H])c4N([H])[H])C3([H])[H])c([H])c([H])c2C1([H])[H]

>  <smiles>  (62) 
[H]c1c([H])c([H])c2c(c1[H])C([H])([H])C([H])([H])C([H])([H])C2([H])N([H])C(=O)C1([H])N(C(=O)C([H])(N([H])C(=O)C([H])(N([H])C([H])([H])[H])C([H])([H])[H])C(C([H])([H])[H])(C([H])([H])[H])C([H])([H])[H])C([H])([H])c2c([H])c(OC([H])([H])C([H])([H])C([H])([H])n3c([H])nnc3C([H])([H])C([H])([H])N([H])C(=O)N3C([H])([H])C([H])([H])C([H])([H])C([H])(n4nc(-c5c([H])c([H])c(Oc6c([H])c([H])c(F)c([H])c6F)c([H])c5[H])c(C(=O)N([H])[H])c4N([H])[H])C3([H])[H])c([H])c([H])c2C1([H])[H]

$$$$
64:0:0
     RDKit          3D

 86 94  0  0  1  0  0  0  0  0999 V2000
  -28.7720  -22.6000   20.0100 C   0  0  0  0  0  3  0  0  0  0  0  0
  -28.7340  -20.9140   20.6830 C   0  0  0  0  0  3  0  0  0  0  0  0
  -28.7010  -17.3950   19.0310 C   0  0  0  0  0  3  0  0  0  0  0  0
  -29.6320  -16.8580   19.9900 C   0  0  0  0  0  0  0  0  0  0  0  0
  -29.8500  -18.1310   20.6720 C   0  0  0  0  0  0  0  0  0  0  0  0
  -30.7110  -18.3190   21.8740 C   0  0  0  0  0  1  0  0  0  0  0  0
  -28.4020  -18.7370   19.1420 N   0  0  0  0  0  0  0  0  0  0  0  0
  -29.1060  -19.3420   20.1570 N   0  0  0  0  0  0  0  0  0  0  0  0
  -30.3520  -15.3220   19.9720 C   0  0  0  0  0  0  0  0  0  0  0  0
  -30.2920  -12.8830   19.0660 C   0  0  0  0  0  2  0  0  0  0  0  0
  -29.3120  -12.6710   17.8820 C   0  0  0  0  0  2  0  0  0  0  0  0
  -27.8900  -12.3890   18.3930 C   0  0  0  0  0  2  0  0  0  0  0  0
  -27.4880  -13.3460   19.5420 C   0  0  0  0  0  3  0  0  0  0  0  0
  -28.5880  -13.4980   20.6090 C   0  0  0  0  0  2  0  0  0  0  0  0
  -29.7790  -14.0170   19.9250 N   0  0  0  0  0  0  0  0  0  0  0  0
  -31.5740  -15.2770   19.7630 O   0  0  0  0  0  0  0  0  0  0  0  0
  -25.1660  -13.8780   20.4430 C   0  0  0  0  0  0  0  0  0  0  0  0
  -24.1280  -13.0890   20.8530 C   0  0  0  0  0  0  0  0  0  0  0  0
  -24.6000  -11.7440   20.7790 C   0  0  0  0  0  0  0  0  0  0  0  0
  -26.1960  -13.0120   20.1260 N   0  0  0  0  0  0  0  0  0  0  0  0
  -25.8740  -11.7220   20.4010 N   0  0  0  0  0  0  0  0  0  0  0  0
  -23.8900  -10.4730   20.9840 C   0  0  0  0  0  0  0  0  0  0  0  0
  -24.3560   -9.5010   21.8960 C   0  0  0  0  0  3  0  0  0  0  0  0
  -23.6410   -8.3000   22.0910 C   0  0  0  0  0  3  0  0  0  0  0  0
  -22.4460   -8.0610   21.3730 C   0  0  0  0  0  0  0  0  0  0  0  0
  -21.9980   -9.0210   20.4490 C   0  0  0  0  0  3  0  0  0  0  0  0
  -22.7130  -10.2140   20.2520 C   0  0  0  0  0  3  0  0  0  0  0  0
  -21.6980   -6.9130   21.4790 O   0  0  0  0  0  0  0  0  0  0  0  0
  -21.6780   -6.1710   22.6320 C   0  0  0  0  0  0  0  0  0  0  0  0
  -21.2680   -6.7220   23.8660 C   0  0  0  0  0  3  0  0  0  0  0  0
  -21.1950   -5.9070   25.0120 C   0  0  0  0  0  3  0  0  0  0  0  0
  -21.5240   -4.5410   24.9270 C   0  0  0  0  0  0  0  0  0  0  0  0
  -21.9280   -3.9890   23.6990 C   0  0  0  0  0  3  0  0  0  0  0  0
  -22.0030   -4.8010   22.5540 C   0  0  0  0  0  0  0  0  0  0  0  0
  -22.3730   -4.2600   21.3690 F   0  0  0  0  0  0  0  0  0  0  0  0
  -21.4480   -3.7540   26.0260 F   0  0  0  0  0  0  0  0  0  0  0  0
  -22.7440  -13.5550   21.1960 C   0  0  0  0  0  0  0  0  0  0  0  0
  -22.0620  -12.8440   22.0850 N   0  0  0  0  0  0  0  0  0  0  0  0
  -22.2790  -14.5870   20.7110 O   0  0  0  0  0  0  0  0  0  0  0  0
  -22.4520  -12.0090   22.4980 H   0  0  0  0  0  0  0  0  0  0  0  0
  -21.1360  -13.1390   22.3610 H   0  0  0  0  0  0  0  0  0  0  0  0
  -25.3140  -15.2510   20.2790 N   0  0  0  0  0  0  0  0  0  0  0  0
  -24.5530  -15.9030   20.4330 H   0  0  0  0  0  0  0  0  0  0  0  0
  -26.1500  -15.6980   19.9230 H   0  0  0  0  0  0  0  0  0  0  0  0
  -27.9750  -24.1760   20.4840 C   0  0  0  0  0  2  0  0  0  0  0  0
  -28.2160  -25.8130   20.2820 O   0  0  0  0  0  0  0  0  0  0  0  0
  -24.6400  -31.8480   23.2050 C   0  0  0  0  0  0  0  0  0  0  0  0
  -27.2040  -26.9190   20.2590 C   0  0  0  0  0  0  0  0  0  0  0  0
  -23.4590  -30.4390   21.5720 C   0  0  0  0  0  3  0  0  0  0  0  0
  -24.9130  -28.8190   20.1760 C   0  0  0  0  0  0  0  0  0  0  0  0
  -26.0270  -30.6410   21.4420 C   0  0  0  0  0  2  0  0  0  0  0  0
  -26.1000  -29.2240   20.8000 C   0  0  0  0  0  0  0  0  0  0  0  0
  -27.2400  -28.2970   20.8120 C   0  0  0  0  0  3  0  0  0  0  0  0
  -25.9880  -26.6730   19.5840 C   0  0  0  0  0  3  0  0  0  0  0  0
  -24.8830  -27.5650   19.5450 C   0  0  0  0  0  3  0  0  0  0  0  0
  -23.6990  -29.7480   20.2030 C   0  0  0  0  0  2  0  0  0  0  0  0
  -24.7310  -31.0050   22.1260 N   0  0  0  0  0  0  0  0  0  0  0  0
  -23.5450  -32.1400   23.7150 O   0  0  0  0  0  0  0  0  0  0  0  0
  -22.7600  -29.4480   22.5410 C   0  0  0  0  0  0  0  0  0  0  0  0
  -21.4280  -29.2950   22.4230 N   0  0  0  0  0  0  0  0  0  0  0  0
  -23.4230  -28.8200   23.3700 O   0  0  0  0  0  0  0  0  0  0  0  0
  -20.9430  -29.8560   21.7360 H   0  0  0  0  0  0  0  0  0  0  0  0
  -18.0400  -28.1110   22.9580 C   0  0  0  0  0  0  0  0  0  0  0  0
  -20.6030  -28.3660   23.2020 C   0  0  0  0  0  3  0  0  0  0  0  0
  -20.6920  -26.9310   22.6310 C   0  0  0  0  0  2  0  0  0  0  0  0
  -19.5820  -26.6120   21.6240 C   0  0  0  0  0  2  0  0  0  0  0  0
  -18.2060  -26.7630   22.2790 C   0  0  0  0  0  2  0  0  0  0  0  0
  -19.1650  -28.8710   23.3780 C   0  0  0  0  0  0  0  0  0  0  0  0
  -18.9540  -30.1310   23.9770 C   0  0  0  0  0  3  0  0  0  0  0  0
  -17.6510  -30.6340   24.1590 C   0  0  0  0  0  3  0  0  0  0  0  0
  -16.5410  -29.8720   23.7520 C   0  0  0  0  0  3  0  0  0  0  0  0
  -16.7370  -28.6130   23.1570 C   0  0  0  0  0  3  0  0  0  0  0  0
  -25.9030  -32.5020   23.8400 C   0  0  0  0  0  3  0  0  0  0  0  0
  -26.4040  -31.7540   25.1380 C   0  0  1  0  0  0  0  0  0  0  0  0
  -25.2970  -31.5300   26.1950 C   0  0  0  0  0  1  0  0  0  0  0  0
  -26.9950  -30.3720   24.7860 C   0  0  0  0  0  1  0  0  0  0  0  0
  -27.5420  -32.5640   25.8030 C   0  0  0  0  0  1  0  0  0  0  0  0
  -25.5760  -33.9040   24.1590 N   0  0  0  0  0  0  0  0  0  0  0  0
  -25.9040  -34.9630   23.4070 C   0  0  0  0  0  0  0  0  0  0  0  0
  -26.5780  -34.8630   22.3780 O   0  0  0  0  0  0  0  0  0  0  0  0
  -24.9780  -34.0540   24.9590 H   0  0  0  0  0  0  0  0  0  0  0  0
  -24.1700  -36.7590   23.0620 C   0  0  0  0  0  1  0  0  0  0  0  0
  -25.4140  -36.3510   23.8680 C   0  0  0  0  0  3  0  0  0  0  0  0
  -27.5460  -37.2520   24.6940 C   0  0  0  0  0  1  0  0  0  0  0  0
  -26.4420  -37.4090   23.7520 N   0  0  0  0  0  0  0  0  0  0  0  0
  -26.0310  -38.3290   23.8950 H   0  0  0  0  0  0  0  0  0  0  0  0
  1 45  1  0
  1  2  2  0
  3  7  2  0
  3  4  1  0
  4  5  2  0
  5  6  1  0
  7  8  1  0
  8  5  1  0
  8  2  1  0
  9  4  1  0
 10 15  1  0
 11 12  1  0
 11 10  1  0
 13 12  1  0
 13 20  1  0
 13 14  1  0
 15  9  1  0
 15 14  1  0
 16  9  2  0
 17 18  2  0
 18 37  1  0
 19 18  1  0
 19 22  1  0
 20 21  1  0
 20 17  1  0
 21 19  2  0
 22 23  1  0
 23 24  2  0
 25 28  1  0
 25 24  1  0
 26 25  2  0
 27 26  1  0
 27 22  2  0
 28 29  1  0
 29 30  1  0
 30 31  2  0
 32 31  1  0
 32 36  1  0
 33 32  2  0
 34 29  2  0
 34 33  1  0
 35 34  1  0
 37 38  1  0
 38 41  1  0
 38 40  1  0
 39 37  2  0
 42 43  1  0
 42 17  1  0
 44 42  1  0
 46 45  1  0
 47 58  2  0
 48 46  1  0
 48 53  1  0
 49 57  1  0
 49 59  1  0
 50 56  1  0
 50 52  1  0
 51 57  1  0
 52 53  2  0
 52 51  1  0
 54 48  2  0
 55 54  1  0
 55 50  2  0
 56 49  1  0
 57 47  1  0
 59 61  2  0
 60 59  1  0
 62 60  1  0
 63 72  2  0
 63 68  1  0
 64 60  1  0
 64 68  1  0
 65 64  1  0
 66 67  1  0
 66 65  1  0
 67 63  1  0
 68 69  2  0
 69 70  1  0
 71 70  2  0
 72 71  1  0
 73 47  1  0
 73 78  1  0
 73 74  1  0
 74 77  1  1
 74 75  1  0
 76 74  1  0
 78 81  1  0
 79 83  1  0
 79 78  1  0
 80 79  2  0
 83 82  1  0
 85 83  1  0
 85 86  1  0
 85 84  1  0
M  ISO  4   4 100   9 100  45 101  46 101
M  END
>  <TORSDO>  (63) 
F 19

>  <SCORE>  (63) 
-16.704

>  <name>  (63) 
64

>  <ligand_id>  (63) 
64

>  <original_smiles>  (63) 
[H]c1nn(C([H])([H])C([H])([H])C([H])([H])Oc2c([H])c([H])c3c(c2[H])C([H])([H])N(C(=O)C([H])(N([H])C(=O)C([H])(N([H])C([H])([H])[H])C([H])([H])[H])C(C([H])([H])[H])(C([H])([H])[H])C([H])([H])[H])C([H])(C(=O)N([H])C2([H])c4c([H])c([H])c([H])c([H])c4C([H])([H])C([H])([H])C2([H])[H])C3([H])[H])c(C([H])([H])[H])c1C(=O)N1C([H])([H])C([H])([H])C([H])([H])C([H])(n2nc(-c3c([H])c([H])c(Oc4c([H])c([H])c(F)c([H])c4F)c([H])c3[H])c(C(=O)N([H])[H])c2N([H])[H])C1([H])[H]

>  <smiles>  (63) 
[H]c1nn(C([H])([H])C([H])([H])C([H])([H])Oc2c([H])c([H])c3c(c2[H])C([H])([H])N(C(=O)C([H])(N([H])C(=O)C([H])(N([H])C([H])([H])[H])C([H])([H])[H])C(C([H])([H])[H])(C([H])([H])[H])C([H])([H])[H])C([H])(C(=O)N([H])C2([H])c4c([H])c([H])c([H])c([H])c4C([H])([H])C([H])([H])C2([H])[H])C3([H])[H])c(C([H])([H])[H])c1C(=O)N1C([H])([H])C([H])([H])C([H])([H])C([H])(n2nc(-c3c([H])c([H])c(Oc4c([H])c([H])c(F)c([H])c4F)c([H])c3[H])c(C(=O)N([H])[H])c2N([H])[H])C1([H])[H]

$$$$
65:0:0
     RDKit          3D

 90 98  0  0  1  0  0  0  0  0999 V2000
  -30.2850  -22.3790   19.1110 C   0  0  0  0  0  3  0  0  0  0  0  0
  -30.0240  -23.7850   19.2390 C   0  0  0  0  0  3  0  0  0  0  0  0
  -29.3500  -21.6510   19.8070 C   0  0  0  0  0  0  0  0  0  0  0  0
  -28.9190  -23.9870   20.0180 C   0  0  0  0  0  0  0  0  0  0  0  0
  -28.5060  -22.6580   20.3830 N   0  0  0  0  0  0  0  0  0  0  0  0
  -27.7120  -22.2810   22.7260 C   0  0  0  0  0  1  0  0  0  0  0  0
  -27.3470  -22.3560   21.2330 C   0  0  0  0  0  2  0  0  0  0  0  0
  -29.1030  -20.0820   19.8290 C   0  0  0  0  0  3  0  0  0  0  0  0
  -30.2060  -18.9680   20.2260 C   0  0  0  0  0  3  0  0  0  0  0  0
  -29.9340  -17.4210   19.7800 C   0  0  0  0  0  2  0  0  0  0  0  0
  -31.0990  -15.0810   20.1120 C   0  0  0  0  0  0  0  0  0  0  0  0
  -30.8590  -12.8040   19.0960 C   0  0  0  0  0  2  0  0  0  0  0  0
  -29.9000  -12.8670   17.8870 C   0  0  0  0  0  2  0  0  0  0  0  0
  -28.4430  -12.6900   18.3460 C   0  0  0  0  0  2  0  0  0  0  0  0
  -28.0910  -13.5960   19.5530 C   0  0  0  0  0  3  0  0  0  0  0  0
  -29.1610  -13.5240   20.6610 C   0  0  0  0  0  2  0  0  0  0  0  0
  -30.4550  -13.8610   20.0540 N   0  0  0  0  0  0  0  0  0  0  0  0
  -32.2250  -15.1990   19.6200 O   0  0  0  0  0  0  0  0  0  0  0  0
  -30.4860  -16.4480   22.0200 C   0  0  0  0  0  1  0  0  0  0  0  0
  -30.4140  -16.2010   20.5790 N   0  0  0  0  0  0  0  0  0  0  0  0
  -25.7280  -14.2050   20.3480 C   0  0  0  0  0  0  0  0  0  0  0  0
  -24.6640  -13.4350   20.7340 C   0  0  0  0  0  0  0  0  0  0  0  0
  -25.1130  -12.0800   20.6730 C   0  0  0  0  0  0  0  0  0  0  0  0
  -26.7550  -13.3170   20.0740 N   0  0  0  0  0  0  0  0  0  0  0  0
  -26.3960  -12.0330   20.3330 N   0  0  0  0  0  0  0  0  0  0  0  0
  -24.3770  -10.8220   20.8620 C   0  0  0  0  0  0  0  0  0  0  0  0
  -24.7610   -9.8800   21.8430 C   0  0  0  0  0  3  0  0  0  0  0  0
  -24.0260   -8.6880   22.0150 C   0  0  0  0  0  3  0  0  0  0  0  0
  -22.8930   -8.4300   21.2060 C   0  0  0  0  0  0  0  0  0  0  0  0
  -22.5300   -9.3600   20.2180 C   0  0  0  0  0  3  0  0  0  0  0  0
  -23.2660  -10.5420   20.0430 C   0  0  0  0  0  3  0  0  0  0  0  0
  -22.1330   -7.2870   21.2890 O   0  0  0  0  0  0  0  0  0  0  0  0
  -21.9580   -6.6230   22.4770 C   0  0  0  0  0  0  0  0  0  0  0  0
  -21.3740   -7.2470   23.6010 C   0  0  0  0  0  3  0  0  0  0  0  0
  -21.1450   -6.5060   24.7780 C   0  0  0  0  0  3  0  0  0  0  0  0
  -21.4920   -5.1430   24.8320 C   0  0  0  0  0  0  0  0  0  0  0  0
  -22.0680   -4.5180   23.7120 C   0  0  0  0  0  3  0  0  0  0  0  0
  -22.2960   -5.2550   22.5370 C   0  0  0  0  0  0  0  0  0  0  0  0
  -22.8310   -4.6430   21.4530 F   0  0  0  0  0  0  0  0  0  0  0  0
  -21.2660   -4.4310   25.9600 F   0  0  0  0  0  0  0  0  0  0  0  0
  -23.2770  -13.9210   21.0450 C   0  0  0  0  0  0  0  0  0  0  0  0
  -22.5640  -13.2240   21.9210 N   0  0  0  0  0  0  0  0  0  0  0  0
  -22.8370  -14.9560   20.5470 O   0  0  0  0  0  0  0  0  0  0  0  0
  -22.9320  -12.3830   22.3420 H   0  0  0  0  0  0  0  0  0  0  0  0
  -21.6380  -13.5330   22.1750 H   0  0  0  0  0  0  0  0  0  0  0  0
  -25.9100  -15.5760   20.1860 N   0  0  0  0  0  0  0  0  0  0  0  0
  -25.1660  -16.2490   20.3230 H   0  0  0  0  0  0  0  0  0  0  0  0
  -26.7740  -15.9960   19.8700 H   0  0  0  0  0  0  0  0  0  0  0  0
  -28.2020  -25.3130   20.4890 C   0  0  0  0  0  2  0  0  0  0  0  0
  -28.4560  -26.6010   19.7520 O   0  0  0  0  0  0  0  0  0  0  0  0
  -24.6130  -31.8140   23.0610 C   0  0  0  0  0  0  0  0  0  0  0  0
  -27.3710  -27.5030   19.7480 C   0  0  0  0  0  0  0  0  0  0  0  0
  -23.4560  -30.4470   21.3660 C   0  0  0  0  0  3  0  0  0  0  0  0
  -24.9580  -29.0490   19.8340 C   0  0  0  0  0  0  0  0  0  0  0  0
  -25.9820  -30.8810   21.1770 C   0  0  0  0  0  2  0  0  0  0  0  0
  -26.1160  -29.5430   20.4500 C   0  0  0  0  0  0  0  0  0  0  0  0
  -27.3280  -28.7810   20.4000 C   0  0  0  0  0  3  0  0  0  0  0  0
  -26.1980  -27.0950   19.0770 C   0  0  0  0  0  3  0  0  0  0  0  0
  -25.0050  -27.8330   19.1350 C   0  0  0  0  0  3  0  0  0  0  0  0
  -23.6840  -29.8640   19.9460 C   0  0  0  0  0  2  0  0  0  0  0  0
  -24.7020  -31.0620   21.9230 N   0  0  0  0  0  0  0  0  0  0  0  0
  -23.5230  -32.0170   23.6190 O   0  0  0  0  0  0  0  0  0  0  0  0
  -22.8570  -29.3470   22.2790 C   0  0  0  0  0  0  0  0  0  0  0  0
  -21.5410  -29.0990   22.1500 N   0  0  0  0  0  0  0  0  0  0  0  0
  -23.5730  -28.7260   23.0670 O   0  0  0  0  0  0  0  0  0  0  0  0
  -21.0240  -29.6590   21.4850 H   0  0  0  0  0  0  0  0  0  0  0  0
  -18.2370  -27.7100   22.6200 C   0  0  0  0  0  0  0  0  0  0  0  0
  -20.7800  -28.0850   22.8820 C   0  0  0  0  0  3  0  0  0  0  0  0
  -20.9510  -26.6930   22.2310 C   0  0  0  0  0  2  0  0  0  0  0  0
  -19.8520  -26.3650   21.2160 C   0  0  0  0  0  2  0  0  0  0  0  0
  -18.4700  -26.4080   21.8760 C   0  0  0  0  0  2  0  0  0  0  0  0
  -19.3190  -28.5030   23.0800 C   0  0  0  0  0  0  0  0  0  0  0  0
  -19.0430  -29.7200   23.7400 C   0  0  0  0  0  3  0  0  0  0  0  0
  -17.7170  -30.1430   23.9460 C   0  0  0  0  0  3  0  0  0  0  0  0
  -16.6480  -29.3440   23.5070 C   0  0  0  0  0  3  0  0  0  0  0  0
  -16.9090  -28.1280   22.8490 C   0  0  0  0  0  3  0  0  0  0  0  0
  -25.8690  -32.4780   23.6990 C   0  0  0  0  0  3  0  0  0  0  0  0
  -25.4920  -33.8360   24.1160 N   0  0  0  0  0  0  0  0  0  0  0  0
  -25.7600  -34.9490   23.4230 C   0  0  0  0  0  0  0  0  0  0  0  0
  -26.4210  -34.9400   22.3800 O   0  0  0  0  0  0  0  0  0  0  0  0
  -24.9010  -33.9080   24.9310 H   0  0  0  0  0  0  0  0  0  0  0  0
  -23.9390  -36.6690   23.1930 C   0  0  0  0  0  1  0  0  0  0  0  0
  -25.2080  -36.2800   23.9670 C   0  0  0  0  0  3  0  0  0  0  0  0
  -27.2990  -37.2200   24.8410 C   0  0  0  0  0  1  0  0  0  0  0  0
  -26.1840  -37.3890   23.9130 N   0  0  0  0  0  0  0  0  0  0  0  0
  -25.7360  -38.2780   24.1150 H   0  0  0  0  0  0  0  0  0  0  0  0
  -26.4450  -31.6680   24.9250 C   0  0  1  0  0  0  0  0  0  0  0  0
  -25.3780  -31.3120   25.9890 C   0  0  0  0  0  1  0  0  0  0  0  0
  -27.0960  -30.3480   24.4510 C   0  0  0  0  0  1  0  0  0  0  0  0
  -27.5630  -32.4860   25.6130 C   0  0  0  0  0  1  0  0  0  0  0  0
  1  2  1  0
  1  3  2  0
  2  4  2  0
  3  8  1  0
  3  5  1  0
  4  5  1  0
  4 49  1  0
  5  7  1  0
  7  6  1  0
  8  9  2  0
 10  9  1  0
 10 20  1  0
 11 20  1  0
 12 17  1  0
 13 14  1  0
 13 12  1  0
 15 14  1  0
 15 24  1  0
 15 16  1  0
 17 11  1  0
 17 16  1  0
 18 11  2  0
 20 19  1  0
 21 22  2  0
 22 41  1  0
 23 22  1  0
 23 26  1  0
 24 25  1  0
 24 21  1  0
 25 23  2  0
 26 27  1  0
 27 28  2  0
 29 32  1  0
 29 28  1  0
 30 29  2  0
 31 30  1  0
 31 26  2  0
 32 33  1  0
 33 38  2  0
 33 34  1  0
 34 35  2  0
 35 36  1  0
 36 40  1  0
 37 36  2  0
 38 37  1  0
 39 38  1  0
 41 42  1  0
 42 45  1  0
 42 44  1  0
 43 41  2  0
 46 47  1  0
 46 21  1  0
 48 46  1  0
 50 49  1  0
 51 62  2  0
 52 50  1  0
 52 57  1  0
 53 61  1  0
 53 63  1  0
 54 60  1  0
 54 56  1  0
 55 61  1  0
 56 55  1  0
 57 56  2  0
 58 59  1  0
 58 52  2  0
 59 54  2  0
 60 53  1  0
 61 51  1  0
 63 65  2  0
 64 63  1  0
 66 64  1  0
 67 76  2  0
 67 72  1  0
 68 64  1  0
 68 72  1  0
 69 68  1  0
 70 71  1  0
 70 69  1  0
 71 67  1  0
 72 73  2  0
 73 74  1  0
 75 74  2  0
 76 75  1  0
 77 51  1  0
 77 78  1  0
 77 87  1  0
 78 81  1  0
 79 83  1  0
 79 78  1  0
 80 79  2  0
 83 82  1  0
 85 83  1  0
 85 86  1  0
 85 84  1  0
 87 90  1  1
 87 88  1  0
 89 87  1  0
M  ISO  4  11 100  20 100  49 101  50 101
M  END
>  <TORSDO>  (64) 
F 21

>  <SCORE>  (64) 
-11.307

>  <name>  (64) 
65

>  <ligand_id>  (64) 
65

>  <original_smiles>  (64) 
[H]c1c([H])c([H])c2c(c1[H])C([H])([H])C([H])([H])C([H])([H])C2([H])N([H])C(=O)C1([H])N(C(=O)C([H])(N([H])C(=O)C([H])(N([H])C([H])([H])[H])C([H])([H])[H])C(C([H])([H])[H])(C([H])([H])[H])C([H])([H])[H])C([H])([H])c2c([H])c(OC([H])([H])c3c([H])c([H])c(C([H])([H])C([H])([H])C([H])([H])N(C(=O)N4C([H])([H])C([H])([H])C([H])([H])C([H])(n5nc(-c6c([H])c([H])c(Oc7c([H])c([H])c(F)c([H])c7F)c([H])c6[H])c(C(=O)N([H])[H])c5N([H])[H])C4([H])[H])C([H])([H])[H])n3C([H])([H])C([H])([H])[H])c([H])c([H])c2C1([H])[H]

>  <smiles>  (64) 
[H]c1c([H])c([H])c2c(c1[H])C([H])([H])C([H])([H])C([H])([H])C2([H])N([H])C(=O)C1([H])N(C(=O)C([H])(N([H])C(=O)C([H])(N([H])C([H])([H])[H])C([H])([H])[H])C(C([H])([H])[H])(C([H])([H])[H])C([H])([H])[H])C([H])([H])c2c([H])c(OC([H])([H])c3c([H])c([H])c(C([H])([H])C([H])([H])C([H])([H])N(C(=O)N4C([H])([H])C([H])([H])C([H])([H])C([H])(n5nc(-c6c([H])c([H])c(Oc7c([H])c([H])c(F)c([H])c7F)c([H])c6[H])c(C(=O)N([H])[H])c5N([H])[H])C4([H])[H])C([H])([H])[H])n3C([H])([H])C([H])([H])[H])c([H])c([H])c2C1([H])[H]

$$$$
66:0:0
     RDKit          3D

 96104  0  0  1  0  0  0  0  0999 V2000
  -29.1810  -23.2070   18.5870 C   0  0  0  0  0  0  0  0  0  0  0  0
  -28.7580  -24.5700   18.7670 C   0  0  0  0  0  0  0  0  0  0  0  0
  -28.8790  -24.8170   16.4900 C   0  0  0  0  0  0  0  0  0  0  0  0
  -28.6190  -25.3640   17.6770 N   0  0  0  0  0  0  0  0  0  0  0  0
  -29.4770  -22.7640   17.3380 N   0  0  0  0  0  0  0  0  0  0  0  0
  -29.3010  -23.5590   16.2790 N   0  0  0  0  0  0  0  0  0  0  0  0
  -29.3630  -22.1270   19.6820 C   0  0  0  0  0  2  0  0  0  0  0  0
  -27.5050  -20.5860   19.0810 C   0  0  0  0  0  1  0  0  0  0  0  0
  -28.9760  -20.7430   19.2250 N   0  0  2  0  0  4  0  0  0  0  0  0
  -29.3440  -20.7060   18.2840 H   0  0  0  0  0  0  0  0  0  0  0  0
  -29.6390  -19.6280   19.9970 C   0  0  0  0  0  2  0  0  0  0  0  0
  -29.2750  -18.1440   19.6030 C   0  0  0  0  0  2  0  0  0  0  0  0
  -30.0460  -17.0870   20.4780 C   0  0  0  0  0  2  0  0  0  0  0  0
  -30.5720  -14.5870   20.3370 C   0  0  0  0  0  0  0  0  0  0  0  0
  -30.3700  -12.3540   19.3350 C   0  0  0  0  0  2  0  0  0  0  0  0
  -29.4180  -12.4920   18.1280 C   0  0  0  0  0  2  0  0  0  0  0  0
  -27.9430  -12.3610   18.5680 C   0  0  0  0  0  2  0  0  0  0  0  0
  -27.5920  -13.2320   19.8060 C   0  0  0  0  0  3  0  0  0  0  0  0
  -28.6560  -13.0800   20.9130 C   0  0  0  0  0  2  0  0  0  0  0  0
  -29.9630  -13.3730   20.3080 N   0  0  0  0  0  0  0  0  0  0  0  0
  -31.7850  -14.7310   20.1560 O   0  0  0  0  0  0  0  0  0  0  0  0
  -29.7230  -15.6480   20.3050 N   0  0  0  0  0  0  0  0  0  0  0  0
  -28.7480  -15.4060   20.2190 H   0  0  0  0  0  0  0  0  0  0  0  0
  -25.2090  -13.8540   20.5340 C   0  0  0  0  0  0  0  0  0  0  0  0
  -24.1370  -13.0860   20.9060 C   0  0  0  0  0  0  0  0  0  0  0  0
  -24.5940  -11.7330   20.8810 C   0  0  0  0  0  0  0  0  0  0  0  0
  -26.2460  -12.9660   20.3020 N   0  0  0  0  0  0  0  0  0  0  0  0
  -25.8850  -11.6870   20.5740 N   0  0  0  0  0  0  0  0  0  0  0  0
  -23.8600  -10.4760   21.0770 C   0  0  0  0  0  0  0  0  0  0  0  0
  -24.3030   -9.4970   21.9930 C   0  0  0  0  0  3  0  0  0  0  0  0
  -23.5690   -8.3050   22.1760 C   0  0  0  0  0  3  0  0  0  0  0  0
  -22.3810   -8.0830   21.4410 C   0  0  0  0  0  0  0  0  0  0  0  0
  -21.9570   -9.0510   20.5120 C   0  0  0  0  0  3  0  0  0  0  0  0
  -22.6920  -10.2350   20.3280 C   0  0  0  0  0  3  0  0  0  0  0  0
  -21.6200   -6.9420   21.5320 O   0  0  0  0  0  0  0  0  0  0  0  0
  -21.6050   -6.1760   22.6710 C   0  0  0  0  0  0  0  0  0  0  0  0
  -21.2490   -6.7140   23.9250 C   0  0  0  0  0  3  0  0  0  0  0  0
  -21.1820   -5.8770   25.0550 C   0  0  0  0  0  3  0  0  0  0  0  0
  -21.4590   -4.5020   24.9320 C   0  0  0  0  0  0  0  0  0  0  0  0
  -21.8080   -3.9630   23.6810 C   0  0  0  0  0  3  0  0  0  0  0  0
  -21.8780   -4.7980   22.5530 C   0  0  0  0  0  0  0  0  0  0  0  0
  -22.1930   -4.2700   21.3440 F   0  0  0  0  0  0  0  0  0  0  0  0
  -21.3870   -3.6960   26.0160 F   0  0  0  0  0  0  0  0  0  0  0  0
  -22.7410  -13.5720   21.1730 C   0  0  0  0  0  0  0  0  0  0  0  0
  -22.0130  -12.8830   22.0440 N   0  0  0  0  0  0  0  0  0  0  0  0
  -22.3070  -14.5950   20.6450 O   0  0  0  0  0  0  0  0  0  0  0  0
  -22.3820  -12.0570   22.4910 H   0  0  0  0  0  0  0  0  0  0  0  0
  -21.0740  -13.1850   22.2650 H   0  0  0  0  0  0  0  0  0  0  0  0
  -25.3700  -15.2220   20.3500 N   0  0  0  0  0  0  0  0  0  0  0  0
  -24.5890  -15.8610   20.4520 H   0  0  0  0  0  0  0  0  0  0  0  0
  -26.2030  -15.6780   20.0030 H   0  0  0  0  0  0  0  0  0  0  0  0
  -28.4150  -25.2400   20.1100 C   0  0  0  0  0  2  0  0  0  0  0  0
  -28.4310  -26.6960   20.1050 O   0  0  0  0  0  0  0  0  0  0  0  0
  -24.6270  -31.8890   23.2240 C   0  0  0  0  0  0  0  0  0  0  0  0
  -27.2430  -27.4130   20.1080 C   0  0  0  0  0  0  0  0  0  0  0  0
  -23.4070  -30.4790   21.5970 C   0  0  0  0  0  3  0  0  0  0  0  0
  -24.8460  -28.9350   20.1570 C   0  0  0  0  0  0  0  0  0  0  0  0
  -25.9380  -30.8190   21.3870 C   0  0  0  0  0  2  0  0  0  0  0  0
  -26.0090  -29.4510   20.7330 C   0  0  0  0  0  0  0  0  0  0  0  0
  -27.2100  -28.7040   20.6960 C   0  0  0  0  0  3  0  0  0  0  0  0
  -26.0580  -26.9130   19.5270 C   0  0  0  0  0  3  0  0  0  0  0  0
  -24.8680  -27.6660   19.5470 C   0  0  0  0  0  3  0  0  0  0  0  0
  -23.6050  -29.7970   20.2170 C   0  0  0  0  0  2  0  0  0  0  0  0
  -24.6750  -31.0800   22.1250 N   0  0  0  0  0  0  0  0  0  0  0  0
  -23.5490  -32.1590   23.7730 O   0  0  0  0  0  0  0  0  0  0  0  0
  -22.7600  -29.4630   22.5650 C   0  0  0  0  0  0  0  0  0  0  0  0
  -21.4330  -29.2850   22.4560 N   0  0  0  0  0  0  0  0  0  0  0  0
  -23.4510  -28.8360   23.3740 O   0  0  0  0  0  0  0  0  0  0  0  0
  -20.9390  -29.8450   21.7760 H   0  0  0  0  0  0  0  0  0  0  0  0
  -18.0610  -28.0890   22.9740 C   0  0  0  0  0  0  0  0  0  0  0  0
  -20.6200  -28.3510   23.2340 C   0  0  0  0  0  3  0  0  0  0  0  0
  -20.7200  -26.9180   22.6630 C   0  0  0  0  0  2  0  0  0  0  0  0
  -19.6160  -26.5860   21.6570 C   0  0  0  0  0  2  0  0  0  0  0  0
  -18.2360  -26.7360   22.3030 C   0  0  0  0  0  2  0  0  0  0  0  0
  -19.1790  -28.8530   23.3970 C   0  0  0  0  0  0  0  0  0  0  0  0
  -18.9660  -30.1190   23.9850 C   0  0  0  0  0  3  0  0  0  0  0  0
  -17.6620  -30.6250   24.1470 C   0  0  0  0  0  3  0  0  0  0  0  0
  -16.5570  -29.8570   23.7480 C   0  0  0  0  0  3  0  0  0  0  0  0
  -16.7550  -28.5880   23.1700 C   0  0  0  0  0  3  0  0  0  0  0  0
  -25.9180  -32.5210   23.8330 C   0  0  0  0  0  3  0  0  0  0  0  0
  -25.6070  -33.9160   24.1740 N   0  0  0  0  0  0  0  0  0  0  0  0
  -25.9300  -34.9730   23.4200 C   0  0  0  0  0  0  0  0  0  0  0  0
  -26.5920  -34.8800   22.3810 O   0  0  0  0  0  0  0  0  0  0  0  0
  -25.0230  -34.0670   24.9850 H   0  0  0  0  0  0  0  0  0  0  0  0
  -24.1890  -36.7550   23.1070 C   0  0  0  0  0  1  0  0  0  0  0  0
  -25.4450  -36.3560   23.8950 C   0  0  0  0  0  3  0  0  0  0  0  0
  -27.5920  -37.2410   24.6940 C   0  0  0  0  0  1  0  0  0  0  0  0
  -26.4700  -37.4150   23.7730 N   0  0  0  0  0  0  0  0  0  0  0  0
  -26.0660  -38.3330   23.9370 H   0  0  0  0  0  0  0  0  0  0  0  0
  -26.4530  -31.7430   25.0980 C   0  0  1  0  0  0  0  0  0  0  0  0
  -25.3730  -31.4920   26.1780 C   0  0  0  0  0  1  0  0  0  0  0  0
  -27.0280  -30.3710   24.6820 C   0  0  0  0  0  1  0  0  0  0  0  0
  -27.6190  -32.5300   25.7420 C   0  0  0  0  0  1  0  0  0  0  0  0
  -28.5820  -25.6480   15.2510 C   0  0  0  0  0  2  0  0  0  0  0  0
  -26.7820  -26.5440   13.6700 C   0  0  0  0  0  1  0  0  0  0  0  0
  -27.0740  -25.7740   14.9660 C   0  0  0  0  0  2  0  0  0  0  0  0
  1  2  2  0
  1  7  1  0
  2 52  1  0
  3  4  2  0
  4  2  1  0
  5  1  1  0
  6  3  1  0
  6  5  2  0
  8  9  1  0
  9  7  1  0
  9 11  1  0
  9 10  1  6
 12 11  1  0
 12 13  1  0
 15 20  1  0
 16 17  1  0
 16 15  1  0
 18 17  1  0
 18 27  1  0
 18 19  1  0
 20 14  1  0
 20 19  1  0
 21 14  2  0
 22 14  1  0
 22 13  1  0
 23 22  1  0
 24 25  2  0
 25 44  1  0
 26 25  1  0
 26 29  1  0
 27 24  1  0
 27 28  1  0
 28 26  2  0
 29 30  1  0
 30 31  2  0
 32 35  1  0
 32 31  1  0
 33 32  2  0
 34 33  1  0
 34 29  2  0
 35 36  1  0
 36 37  1  0
 37 38  2  0
 39 38  1  0
 39 43  1  0
 40 39  2  0
 41 36  2  0
 41 40  1  0
 42 41  1  0
 44 45  1  0
 45 48  1  0
 45 47  1  0
 46 44  2  0
 49 50  1  0
 49 24  1  0
 51 49  1  0
 53 55  1  0
 53 52  1  0
 54 65  2  0
 55 60  1  0
 56 64  1  0
 56 66  1  0
 57 63  1  0
 57 59  1  0
 58 64  1  0
 59 58  1  0
 60 59  2  0
 61 62  1  0
 61 55  2  0
 62 57  2  0
 63 56  1  0
 64 54  1  0
 66 68  2  0
 67 66  1  0
 69 67  1  0
 70 79  2  0
 70 75  1  0
 71 67  1  0
 71 75  1  0
 72 71  1  0
 73 74  1  0
 73 72  1  0
 74 70  1  0
 75 76  2  0
 76 77  1  0
 78 77  2  0
 79 78  1  0
 80 54  1  0
 80 81  1  0
 80 90  1  0
 81 84  1  0
 82 86  1  0
 82 81  1  0
 83 82  2  0
 86 85  1  0
 88 86  1  0
 88 89  1  0
 88 87  1  0
 90 93  1  1
 90 91  1  0
 92 90  1  0
 94  3  1  0
 95 96  1  0
 96 94  1  0
M  ISO  4  14 100  22 100  52 101  53 101
M  END
>  <TORSDO>  (65) 
F 24

>  <SCORE>  (65) 
-12.539

>  <name>  (65) 
66

>  <ligand_id>  (65) 
66

>  <original_smiles>  (65) 
[H]c1c([H])c([H])c2c(c1[H])C([H])([H])C([H])([H])C([H])([H])C2([H])N([H])C(=O)C1([H])N(C(=O)C([H])(N([H])C(=O)C([H])(N([H])C([H])([H])[H])C([H])([H])[H])C(C([H])([H])[H])(C([H])([H])[H])C([H])([H])[H])C([H])([H])c2c([H])c(OC([H])([H])c3nc(C([H])([H])C([H])([H])C([H])([H])[H])nnc3C([H])([H])[N+]([H])(C([H])([H])[H])C([H])([H])C([H])([H])C([H])([H])N([H])C(=O)N3C([H])([H])C([H])([H])C([H])([H])C([H])(n4nc(-c5c([H])c([H])c(Oc6c([H])c([H])c(F)c([H])c6F)c([H])c5[H])c(C(=O)N([H])[H])c4N([H])[H])C3([H])[H])c([H])c([H])c2C1([H])[H]

>  <smiles>  (65) 
[H]c1c([H])c([H])c2c(c1[H])C([H])([H])C([H])([H])C([H])([H])C2([H])N([H])C(=O)C1([H])N(C(=O)C([H])(N([H])C(=O)C([H])(N([H])C([H])([H])[H])C([H])([H])[H])C(C([H])([H])[H])(C([H])([H])[H])C([H])([H])[H])C([H])([H])c2c([H])c(OC([H])([H])c3nc(C([H])([H])C([H])([H])C([H])([H])[H])nnc3C([H])([H])[N+]([H])(C([H])([H])[H])C([H])([H])C([H])([H])C([H])([H])N([H])C(=O)N3C([H])([H])C([H])([H])C([H])([H])C([H])(n4nc(-c5c([H])c([H])c(Oc6c([H])c([H])c(F)c([H])c6F)c([H])c5[H])c(C(=O)N([H])[H])c4N([H])[H])C3([H])[H])c([H])c([H])c2C1([H])[H]

$$$$
67:0:0
     RDKit          3D

 92100  0  0  1  0  0  0  0  0999 V2000
  -30.2560  -21.7070   19.9020 C   0  0  0  0  0  3  0  0  0  0  0  0
  -29.6900  -20.4750   20.4230 C   0  0  0  0  0  0  0  0  0  0  0  0
  -29.3510  -22.7580   20.0730 C   0  0  0  0  0  0  0  0  0  0  0  0
  -28.4950  -20.7780   20.9120 N   0  0  0  0  0  0  0  0  0  0  0  0
  -28.2700  -22.1190   20.6810 N   0  0  0  0  0  0  0  0  0  0  0  0
  -25.9990  -21.7160   21.7200 C   0  0  0  0  0  1  0  0  0  0  0  0
  -26.9950  -22.7060   21.0870 C   0  0  0  0  0  2  0  0  0  0  0  0
  -30.3530  -19.0440   20.6360 C   0  0  0  0  0  2  0  0  0  0  0  0
  -29.6150  -17.6470   20.2720 C   0  0  0  0  0  2  0  0  0  0  0  0
  -31.0100  -15.3350   20.2690 C   0  0  0  0  0  0  0  0  0  0  0  0
  -30.8060  -13.0200   19.3450 C   0  0  0  0  0  2  0  0  0  0  0  0
  -29.8810  -12.9600   18.1100 C   0  0  0  0  0  2  0  0  0  0  0  0
  -28.4080  -12.8200   18.5310 C   0  0  0  0  0  2  0  0  0  0  0  0
  -28.0020  -13.7660   19.6950 C   0  0  0  0  0  3  0  0  0  0  0  0
  -29.0540  -13.7920   20.8230 C   0  0  0  0  0  2  0  0  0  0  0  0
  -30.3330  -14.1360   20.1960 N   0  0  0  0  0  0  0  0  0  0  0  0
  -32.2410  -15.3060   20.2040 O   0  0  0  0  0  0  0  0  0  0  0  0
  -30.4050  -16.4620   19.6970 N   0  0  0  0  0  0  0  0  0  0  0  0
  -25.6140  -14.3340   20.4280 C   0  0  0  0  0  0  0  0  0  0  0  0
  -24.5450  -13.5520   20.7710 C   0  0  0  0  0  0  0  0  0  0  0  0
  -25.0120  -12.2020   20.7230 C   0  0  0  0  0  0  0  0  0  0  0  0
  -26.6610  -13.4630   20.1880 N   0  0  0  0  0  0  0  0  0  0  0  0
  -26.3070  -12.1740   20.4340 N   0  0  0  0  0  0  0  0  0  0  0  0
  -24.2850  -10.9360   20.8790 C   0  0  0  0  0  0  0  0  0  0  0  0
  -24.6970   -9.9610   21.8140 C   0  0  0  0  0  3  0  0  0  0  0  0
  -23.9700   -8.7590   21.9620 C   0  0  0  0  0  3  0  0  0  0  0  0
  -22.8180   -8.5230   21.1740 C   0  0  0  0  0  0  0  0  0  0  0  0
  -22.4280   -9.4870   20.2280 C   0  0  0  0  0  3  0  0  0  0  0  0
  -23.1540  -10.6800   20.0780 C   0  0  0  0  0  3  0  0  0  0  0  0
  -22.0660   -7.3750   21.2310 O   0  0  0  0  0  0  0  0  0  0  0  0
  -21.9750   -6.6300   22.3790 C   0  0  0  0  0  0  0  0  0  0  0  0
  -21.4770   -7.1740   23.5850 C   0  0  0  0  0  3  0  0  0  0  0  0
  -21.3370   -6.3540   24.7220 C   0  0  0  0  0  3  0  0  0  0  0  0
  -21.6830   -4.9910   24.6550 C   0  0  0  0  0  0  0  0  0  0  0  0
  -22.1730   -4.4470   23.4550 C   0  0  0  0  0  3  0  0  0  0  0  0
  -22.3160   -5.2630   22.3200 C   0  0  0  0  0  0  0  0  0  0  0  0
  -22.7680   -4.7290   21.1590 F   0  0  0  0  0  0  0  0  0  0  0  0
  -21.5430   -4.2010   25.7450 F   0  0  0  0  0  0  0  0  0  0  0  0
  -23.1430  -14.0220   21.0280 C   0  0  0  0  0  0  0  0  0  0  0  0
  -22.4050  -13.3130   21.8740 N   0  0  0  0  0  0  0  0  0  0  0  0
  -22.7100  -15.0510   20.5130 O   0  0  0  0  0  0  0  0  0  0  0  0
  -22.7700  -12.4820   22.3170 H   0  0  0  0  0  0  0  0  0  0  0  0
  -21.4610  -13.6050   22.0820 H   0  0  0  0  0  0  0  0  0  0  0  0
  -25.7770  -15.7090   20.2750 N   0  0  0  0  0  0  0  0  0  0  0  0
  -25.0130  -16.3620   20.4020 H   0  0  0  0  0  0  0  0  0  0  0  0
  -26.6350  -16.1580   19.9800 H   0  0  0  0  0  0  0  0  0  0  0  0
  -30.6970  -16.6800   18.2590 C   0  0  0  0  0  2  0  0  0  0  0  0
  -32.5310  -17.2990   16.5860 C   0  0  0  0  0  1  0  0  0  0  0  0
  -31.9140  -17.5830   17.9590 C   0  0  0  0  0  2  0  0  0  0  0  0
  -29.4650  -24.2850   19.6380 C   0  0  0  0  0  3  0  0  0  0  0  0
  -28.6030  -25.5140   20.2370 C   0  0  0  0  0  3  0  0  0  0  0  0
  -28.6630  -26.8860   19.6130 O   0  0  0  0  0  0  0  0  0  0  0  0
  -24.8680  -31.9210   23.2220 C   0  0  0  0  0  0  0  0  0  0  0  0
  -27.5370  -27.7340   19.6910 C   0  0  0  0  0  0  0  0  0  0  0  0
  -23.6730  -30.6570   21.4720 C   0  0  0  0  0  3  0  0  0  0  0  0
  -25.1380  -29.2980   19.8710 C   0  0  0  0  0  0  0  0  0  0  0  0
  -26.2010  -31.0610   21.2780 C   0  0  0  0  0  2  0  0  0  0  0  0
  -26.3060  -29.7520   20.4950 C   0  0  0  0  0  0  0  0  0  0  0  0
  -27.5100  -28.9870   20.3900 C   0  0  0  0  0  3  0  0  0  0  0  0
  -26.3480  -27.3520   19.0320 C   0  0  0  0  0  3  0  0  0  0  0  0
  -25.1630  -28.1090   19.1270 C   0  0  0  0  0  3  0  0  0  0  0  0
  -23.8780  -30.1280   20.0280 C   0  0  0  0  0  2  0  0  0  0  0  0
  -24.9350  -31.2250   22.0480 N   0  0  0  0  0  0  0  0  0  0  0  0
  -23.7870  -32.1110   23.7990 O   0  0  0  0  0  0  0  0  0  0  0  0
  -23.0560  -29.5300   22.3390 C   0  0  0  0  0  0  0  0  0  0  0  0
  -21.7340  -29.3190   22.2110 N   0  0  0  0  0  0  0  0  0  0  0  0
  -23.7680  -28.8530   23.0860 O   0  0  0  0  0  0  0  0  0  0  0  0
  -21.2170  -29.9210   21.5870 H   0  0  0  0  0  0  0  0  0  0  0  0
  -18.4030  -27.9800   22.6610 C   0  0  0  0  0  0  0  0  0  0  0  0
  -20.9600  -28.2840   22.9000 C   0  0  0  0  0  3  0  0  0  0  0  0
  -21.0840  -26.9220   22.1770 C   0  0  0  0  0  2  0  0  0  0  0  0
  -19.9660  -26.6750   21.1600 C   0  0  0  0  0  2  0  0  0  0  0  0
  -18.5970  -26.7140   21.8450 C   0  0  0  0  0  2  0  0  0  0  0  0
  -19.5120  -28.7260   23.1440 C   0  0  0  0  0  0  0  0  0  0  0  0
  -19.2740  -29.9140   23.8690 C   0  0  0  0  0  3  0  0  0  0  0  0
  -17.9620  -30.3580   24.1150 C   0  0  0  0  0  3  0  0  0  0  0  0
  -16.8680  -29.6080   23.6490 C   0  0  0  0  0  3  0  0  0  0  0  0
  -17.0890  -28.4210   22.9280 C   0  0  0  0  0  3  0  0  0  0  0  0
  -26.1440  -32.5300   23.8820 C   0  0  0  0  0  3  0  0  0  0  0  0
  -25.7920  -33.8680   24.3800 N   0  0  0  0  0  0  0  0  0  0  0  0
  -26.0490  -35.0130   23.7330 C   0  0  0  0  0  0  0  0  0  0  0  0
  -26.6780  -35.0550   22.6720 O   0  0  0  0  0  0  0  0  0  0  0  0
  -25.2250  -33.9090   25.2150 H   0  0  0  0  0  0  0  0  0  0  0  0
  -24.2370  -36.7570   23.6560 C   0  0  0  0  0  1  0  0  0  0  0  0
  -25.5290  -36.3210   24.3640 C   0  0  0  0  0  3  0  0  0  0  0  0
  -27.6600  -37.2060   25.2050 C   0  0  0  0  0  1  0  0  0  0  0  0
  -26.5130  -37.4240   24.3270 N   0  0  0  0  0  0  0  0  0  0  0  0
  -26.0760  -38.3050   24.5900 H   0  0  0  0  0  0  0  0  0  0  0  0
  -26.7220  -31.6400   25.0490 C   0  0  1  0  0  0  0  0  0  0  0  0
  -25.6700  -31.2440   26.1110 C   0  0  0  0  0  1  0  0  0  0  0  0
  -27.3380  -30.3370   24.4890 C   0  0  0  0  0  1  0  0  0  0  0  0
  -27.8670  -32.3960   25.7640 C   0  0  0  0  0  1  0  0  0  0  0  0
  1  3  2  0
  1  2  1  0
  2  8  1  0
  2  4  2  0
  3  5  1  0
  5  4  1  0
  5  7  1  0
  7  6  1  0
  9  8  1  0
 11 16  1  0
 12 13  1  0
 12 11  1  0
 14 13  1  0
 14 22  1  0
 14 15  1  0
 16 10  1  0
 16 15  1  0
 17 10  2  0
 18 10  1  0
 18  9  1  0
 19 20  2  0
 20 39  1  0
 21 20  1  0
 21 24  1  0
 22 19  1  0
 22 23  1  0
 23 21  2  0
 24 25  1  0
 25 26  2  0
 27 30  1  0
 27 26  1  0
 28 27  2  0
 29 28  1  0
 29 24  2  0
 30 31  1  0
 31 32  1  0
 32 33  2  0
 34 33  1  0
 34 38  1  0
 35 34  2  0
 36 31  2  0
 36 35  1  0
 37 36  1  0
 39 40  1  0
 40 43  1  0
 40 42  1  0
 41 39  2  0
 44 45  1  0
 44 19  1  0
 46 44  1  0
 47 18  1  0
 48 49  1  0
 49 47  1  0
 50  3  1  0
 50 51  2  0
 52 54  1  0
 52 51  1  0
 53 64  2  0
 54 59  1  0
 55 63  1  0
 55 65  1  0
 56 62  1  0
 56 58  1  0
 57 63  1  0
 58 57  1  0
 59 58  2  0
 60 61  1  0
 60 54  2  0
 61 56  2  0
 62 55  1  0
 63 53  1  0
 65 67  2  0
 66 65  1  0
 68 66  1  0
 69 78  2  0
 69 74  1  0
 70 66  1  0
 70 74  1  0
 71 70  1  0
 72 73  1  0
 72 71  1  0
 73 69  1  0
 74 75  2  0
 75 76  1  0
 77 76  2  0
 78 77  1  0
 79 53  1  0
 79 80  1  0
 79 89  1  0
 80 83  1  0
 81 85  1  0
 81 80  1  0
 82 81  2  0
 85 84  1  0
 87 85  1  0
 87 88  1  0
 87 86  1  0
 89 92  1  1
 89 90  1  0
 91 89  1  0
M  ISO  4  10 100  18 100  51 101  52 101
M  END
>  <TORSDO>  (66) 
F 23

>  <SCORE>  (66) 
-8.793

>  <name>  (66) 
67

>  <ligand_id>  (66) 
67

>  <original_smiles>  (66) 
[H]c1c([H])c([H])c2c(c1[H])C([H])([H])C([H])([H])C([H])([H])C2([H])N([H])C(=O)C1([H])N(C(=O)C([H])(N([H])C(=O)C([H])(N([H])C([H])([H])[H])C([H])([H])[H])C(C([H])([H])[H])(C([H])([H])[H])C([H])([H])[H])C([H])([H])c2c([H])c(OC([H])([H])C([H])([H])c3c([H])c(C([H])([H])C([H])([H])N(C(=O)N4C([H])([H])C([H])([H])C([H])([H])C([H])(n5nc(-c6c([H])c([H])c(Oc7c([H])c([H])c(F)c([H])c7F)c([H])c6[H])c(C(=O)N([H])[H])c5N([H])[H])C4([H])[H])C([H])([H])C([H])([H])C([H])([H])[H])nn3C([H])([H])C([H])([H])[H])c([H])c([H])c2C1([H])[H]

>  <smiles>  (66) 
[H]c1c([H])c([H])c2c(c1[H])C([H])([H])C([H])([H])C([H])([H])C2([H])N([H])C(=O)C1([H])N(C(=O)C([H])(N([H])C(=O)C([H])(N([H])C([H])([H])[H])C([H])([H])[H])C(C([H])([H])[H])(C([H])([H])[H])C([H])([H])[H])C([H])([H])c2c([H])c(OC([H])([H])C([H])([H])c3c([H])c(C([H])([H])C([H])([H])N(C(=O)N4C([H])([H])C([H])([H])C([H])([H])C([H])(n5nc(-c6c([H])c([H])c(Oc7c([H])c([H])c(F)c([H])c7F)c([H])c6[H])c(C(=O)N([H])[H])c5N([H])[H])C4([H])[H])C([H])([H])C([H])([H])C([H])([H])[H])nn3C([H])([H])C([H])([H])[H])c([H])c([H])c2C1([H])[H]

$$$$
68:0:0
     RDKit          3D

 88 96  0  0  1  0  0  0  0  0999 V2000
  -28.9160  -22.2110   20.6070 C   0  0  0  0  0  0  0  0  0  0  0  0
  -29.3710  -20.6440   20.5950 C   0  0  0  0  0  0  0  0  0  0  0  0
  -30.0590  -21.7480   22.4500 C   0  0  0  0  0  0  0  0  0  0  0  0
  -30.7090  -22.0040   23.7740 C   0  0  0  0  0  1  0  0  0  0  0  0
  -30.8030  -19.3990   22.3200 C   0  0  0  0  0  1  0  0  0  0  0  0
  -29.4110  -22.6930   21.8100 N   0  0  0  0  0  0  0  0  0  0  0  0
  -30.0950  -20.5720   21.8090 N   0  0  0  0  0  0  0  0  0  0  0  0
  -28.0630  -23.7760   20.0020 C   0  0  0  0  0  2  0  0  0  0  0  0
  -28.1310  -25.5180   20.3680 O   0  0  0  0  0  0  0  0  0  0  0  0
  -24.6360  -31.8800   23.1780 C   0  0  0  0  0  0  0  0  0  0  0  0
  -27.1680  -26.7450   20.2460 C   0  0  0  0  0  0  0  0  0  0  0  0
  -23.4440  -30.4520   21.5710 C   0  0  0  0  0  3  0  0  0  0  0  0
  -24.8910  -28.7840   20.1700 C   0  0  0  0  0  0  0  0  0  0  0  0
  -26.0220  -30.5950   21.4350 C   0  0  0  0  0  2  0  0  0  0  0  0
  -26.0880  -29.1510   20.7960 C   0  0  0  0  0  0  0  0  0  0  0  0
  -27.2050  -28.1580   20.8040 C   0  0  0  0  0  3  0  0  0  0  0  0
  -25.9390  -26.5990   19.5510 C   0  0  0  0  0  3  0  0  0  0  0  0
  -24.8580  -27.5370   19.5210 C   0  0  0  0  0  3  0  0  0  0  0  0
  -23.6800  -29.7330   20.2100 C   0  0  0  0  0  2  0  0  0  0  0  0
  -24.7250  -31.0100   22.1130 N   0  0  0  0  0  0  0  0  0  0  0  0
  -23.5440  -32.1850   23.6890 O   0  0  0  0  0  0  0  0  0  0  0  0
  -22.7340  -29.4910   22.5630 C   0  0  0  0  0  0  0  0  0  0  0  0
  -21.4010  -29.3300   22.4470 N   0  0  0  0  0  0  0  0  0  0  0  0
  -23.3940  -28.8860   23.4100 O   0  0  0  0  0  0  0  0  0  0  0  0
  -20.9150  -29.8650   21.7410 H   0  0  0  0  0  0  0  0  0  0  0  0
  -18.0240  -28.1000   22.9850 C   0  0  0  0  0  0  0  0  0  0  0  0
  -20.5810  -28.4030   23.2400 C   0  0  0  0  0  3  0  0  0  0  0  0
  -20.6980  -26.9600   22.6970 C   0  0  0  0  0  2  0  0  0  0  0  0
  -19.6000  -26.6040   21.6900 C   0  0  0  0  0  2  0  0  0  0  0  0
  -18.2160  -26.7430   22.3300 C   0  0  0  0  0  2  0  0  0  0  0  0
  -19.1330  -28.8880   23.3960 C   0  0  0  0  0  0  0  0  0  0  0  0
  -18.8960  -30.1540   23.9730 C   0  0  0  0  0  3  0  0  0  0  0  0
  -17.5830  -30.6360   24.1390 C   0  0  0  0  0  3  0  0  0  0  0  0
  -16.4890  -29.8480   23.7410 C   0  0  0  0  0  3  0  0  0  0  0  0
  -16.7100  -28.5820   23.1690 C   0  0  0  0  0  3  0  0  0  0  0  0
  -25.9000  -32.5450   23.8040 C   0  0  0  0  0  3  0  0  0  0  0  0
  -25.5680  -33.9450   24.1340 N   0  0  0  0  0  0  0  0  0  0  0  0
  -25.8970  -35.0130   23.3960 C   0  0  0  0  0  0  0  0  0  0  0  0
  -26.5670  -34.9240   22.3640 O   0  0  0  0  0  0  0  0  0  0  0  0
  -24.9700  -34.0870   24.9360 H   0  0  0  0  0  0  0  0  0  0  0  0
  -24.1710  -36.8210   23.0660 C   0  0  0  0  0  1  0  0  0  0  0  0
  -25.4100  -36.3990   23.8720 C   0  0  0  0  0  3  0  0  0  0  0  0
  -27.5380  -37.2850   24.7240 C   0  0  0  0  0  1  0  0  0  0  0  0
  -26.4420  -37.4560   23.7750 N   0  0  0  0  0  0  0  0  0  0  0  0
  -26.0330  -38.3740   23.9260 H   0  0  0  0  0  0  0  0  0  0  0  0
  -26.4150  -31.7990   25.0980 C   0  0  1  0  0  0  0  0  0  0  0  0
  -25.3190  -31.5730   26.1680 C   0  0  0  0  0  1  0  0  0  0  0  0
  -27.0090  -30.4170   24.7440 C   0  0  0  0  0  1  0  0  0  0  0  0
  -27.5560  -32.6110   25.7520 C   0  0  0  0  0  1  0  0  0  0  0  0
  -29.5670  -18.9300   19.8200 C   0  0  0  0  0  2  0  0  0  0  0  0
  -30.4120  -15.8060   20.0700 C   0  0  0  0  0  0  0  0  0  0  0  0
  -30.5020  -13.2480   19.2670 C   0  0  0  0  0  2  0  0  0  0  0  0
  -29.5870  -12.8410   18.0730 C   0  0  0  0  0  2  0  0  0  0  0  0
  -28.1770  -12.4770   18.5580 C   0  0  0  0  0  2  0  0  0  0  0  0
  -27.6890  -13.4680   19.6390 C   0  0  0  0  0  3  0  0  0  0  0  0
  -28.7430  -13.7870   20.7290 C   0  0  0  0  0  2  0  0  0  0  0  0
  -29.9020  -14.4250   20.0560 N   0  0  0  0  0  0  0  0  0  0  0  0
  -31.6190  -15.7470   19.7640 O   0  0  0  0  0  0  0  0  0  0  0  0
  -29.6630  -17.1770   20.2510 N   0  0  0  0  0  0  0  0  0  0  0  0
  -28.7600  -16.9310   20.6300 H   0  0  0  0  0  0  0  0  0  0  0  0
  -25.3480  -13.9770   20.4790 C   0  0  0  0  0  0  0  0  0  0  0  0
  -24.3020  -13.1900   20.8640 C   0  0  0  0  0  0  0  0  0  0  0  0
  -24.7730  -11.8410   20.7960 C   0  0  0  0  0  0  0  0  0  0  0  0
  -26.3870  -13.1140   20.1880 N   0  0  0  0  0  0  0  0  0  0  0  0
  -26.0580  -11.8200   20.4470 N   0  0  0  0  0  0  0  0  0  0  0  0
  -24.0520  -10.5750   20.9860 C   0  0  0  0  0  0  0  0  0  0  0  0
  -24.4970   -9.5990   21.9060 C   0  0  0  0  0  3  0  0  0  0  0  0
  -23.7710   -8.4020   22.0880 C   0  0  0  0  0  3  0  0  0  0  0  0
  -22.5850   -8.1720   21.3510 C   0  0  0  0  0  0  0  0  0  0  0  0
  -22.1590   -9.1350   20.4200 C   0  0  0  0  0  3  0  0  0  0  0  0
  -22.8850  -10.3240   20.2370 C   0  0  0  0  0  3  0  0  0  0  0  0
  -21.8290   -7.0270   21.4440 O   0  0  0  0  0  0  0  0  0  0  0  0
  -21.7830   -6.2850   22.5970 C   0  0  0  0  0  0  0  0  0  0  0  0
  -21.3420   -6.8350   23.8200 C   0  0  0  0  0  3  0  0  0  0  0  0
  -21.2450   -6.0190   24.9640 C   0  0  0  0  0  3  0  0  0  0  0  0
  -21.5790   -4.6540   24.8870 C   0  0  0  0  0  0  0  0  0  0  0  0
  -22.0110   -4.1030   23.6690 C   0  0  0  0  0  3  0  0  0  0  0  0
  -22.1110   -4.9150   22.5260 C   0  0  0  0  0  0  0  0  0  0  0  0
  -22.5090   -4.3750   21.3480 F   0  0  0  0  0  0  0  0  0  0  0  0
  -21.4780   -3.8660   25.9840 F   0  0  0  0  0  0  0  0  0  0  0  0
  -22.9120  -13.6590   21.1760 C   0  0  0  0  0  0  0  0  0  0  0  0
  -22.2070  -12.9540   22.0520 N   0  0  0  0  0  0  0  0  0  0  0  0
  -22.4610  -14.6890   20.6760 O   0  0  0  0  0  0  0  0  0  0  0  0
  -22.5840  -12.1210   22.4800 H   0  0  0  0  0  0  0  0  0  0  0  0
  -21.2730  -13.2510   22.3000 H   0  0  0  0  0  0  0  0  0  0  0  0
  -25.4980  -15.3520   20.3140 N   0  0  0  0  0  0  0  0  0  0  0  0
  -24.7280  -15.9970   20.4550 H   0  0  0  0  0  0  0  0  0  0  0  0
  -26.3220  -15.7970   19.9360 H   0  0  0  0  0  0  0  0  0  0  0  0
  1  6  1  0
  2  1  2  0
  2  7  1  0
  3  4  1  0
  6  3  2  0
  7  5  1  0
  7  3  1  0
  8  9  1  0
  8  1  1  0
 10 21  2  0
 11  9  1  0
 11 16  1  0
 12 20  1  0
 12 22  1  0
 13 19  1  0
 13 15  1  0
 14 20  1  0
 15 16  2  0
 15 14  1  0
 17 11  2  0
 18 17  1  0
 18 13  2  0
 19 12  1  0
 20 10  1  0
 22 24  2  0
 23 22  1  0
 25 23  1  0
 26 35  2  0
 26 31  1  0
 27 23  1  0
 27 31  1  0
 28 27  1  0
 29 30  1  0
 29 28  1  0
 30 26  1  0
 31 32  2  0
 32 33  1  0
 34 33  2  0
 35 34  1  0
 36 10  1  0
 36 37  1  0
 36 46  1  0
 37 40  1  0
 38 42  1  0
 38 37  1  0
 39 38  2  0
 42 41  1  0
 44 42  1  0
 44 45  1  0
 44 43  1  0
 46 49  1  1
 46 47  1  0
 48 46  1  0
 50 59  1  0
 50  2  1  0
 51 59  1  0
 52 57  1  0
 53 54  1  0
 53 52  1  0
 55 54  1  0
 55 64  1  0
 55 56  1  0
 57 51  1  0
 57 56  1  0
 58 51  2  0
 59 60  1  0
 61 62  2  0
 62 81  1  0
 63 62  1  0
 63 66  1  0
 64 65  1  0
 64 61  1  0
 65 63  2  0
 66 67  1  0
 67 68  2  0
 69 72  1  0
 69 68  1  0
 70 69  2  0
 71 70  1  0
 71 66  2  0
 72 73  1  0
 73 74  1  0
 74 75  2  0
 76 75  1  0
 76 80  1  0
 77 76  2  0
 78 73  2  0
 78 77  1  0
 79 78  1  0
 81 82  1  0
 82 85  1  0
 82 84  1  0
 83 81  2  0
 86 87  1  0
 86 61  1  0
 88 86  1  0
M  ISO  4   8 101   9 101  51 100  59 100
M  END
>  <TORSDO>  (67) 
F 18

>  <SCORE>  (67) 
-16.744

>  <name>  (67) 
68

>  <ligand_id>  (67) 
68

>  <original_smiles>  (67) 
[H]c1c([H])c([H])c2c(c1[H])C([H])([H])C([H])([H])C([H])([H])C2([H])N([H])C(=O)C1([H])N(C(=O)C([H])(N([H])C(=O)C([H])(N([H])C([H])([H])[H])C([H])([H])[H])C(C([H])([H])[H])(C([H])([H])[H])C([H])([H])[H])C([H])([H])c2c([H])c(OC([H])([H])c3nc(C([H])([H])[H])n(C([H])([H])[H])c3C([H])([H])N([H])C(=O)N3C([H])([H])C([H])([H])C([H])([H])C([H])(n4nc(-c5c([H])c([H])c(Oc6c([H])c([H])c(F)c([H])c6F)c([H])c5[H])c(C(=O)N([H])[H])c4N([H])[H])C3([H])[H])c([H])c([H])c2C1([H])[H]

>  <smiles>  (67) 
[H]c1c([H])c([H])c2c(c1[H])C([H])([H])C([H])([H])C([H])([H])C2([H])N([H])C(=O)C1([H])N(C(=O)C([H])(N([H])C(=O)C([H])(N([H])C([H])([H])[H])C([H])([H])[H])C(C([H])([H])[H])(C([H])([H])[H])C([H])([H])[H])C([H])([H])c2c([H])c(OC([H])([H])c3nc(C([H])([H])[H])n(C([H])([H])[H])c3C([H])([H])N([H])C(=O)N3C([H])([H])C([H])([H])C([H])([H])C([H])(n4nc(-c5c([H])c([H])c(Oc6c([H])c([H])c(F)c([H])c6F)c([H])c5[H])c(C(=O)N([H])[H])c4N([H])[H])C3([H])[H])c([H])c([H])c2C1([H])[H]

$$$$
69:0:0
     RDKit          3D

 94102  0  0  1  0  0  0  0  0999 V2000
  -27.8710  -22.7910   21.1520 C   0  0  0  0  0  3  0  0  0  0  0  0
  -27.5700  -21.4710   20.8030 C   0  0  0  0  0  0  0  0  0  0  0  0
  -29.2170  -23.1640   21.1110 C   0  0  0  0  0  0  0  0  0  0  0  0
  -29.8000  -21.0300   20.4590 C   0  0  0  0  0  0  0  0  0  0  0  0
  -26.1380  -20.9830   20.7510 C   0  0  0  0  0  1  0  0  0  0  0  0
  -28.5370  -20.6010   20.4550 N   0  0  0  0  0  0  0  0  0  0  0  0
  -30.1650  -22.2840   20.7420 N   0  0  0  0  0  0  0  0  0  0  0  0
  -30.6520  -19.9580   18.3610 C   0  0  0  0  0  1  0  0  0  0  0  0
  -32.2940  -20.6490   20.1440 C   0  0  0  0  0  1  0  0  0  0  0  0
  -30.8770  -20.0710   19.8890 C   0  0  1  0  0  0  0  0  0  0  0  0
  -30.7850  -18.6620   20.5670 C   0  0  0  0  0  2  0  0  0  0  0  0
  -31.6990  -17.5550   19.9740 C   0  0  0  0  0  2  0  0  0  0  0  0
  -32.1700  -15.1400   20.1990 C   0  0  0  0  0  0  0  0  0  0  0  0
  -31.9350  -12.8230   19.4020 C   0  0  0  0  0  2  0  0  0  0  0  0
  -31.0470  -12.8380   18.1400 C   0  0  0  0  0  2  0  0  0  0  0  0
  -29.5550  -12.7580   18.5210 C   0  0  0  0  0  2  0  0  0  0  0  0
  -29.1620  -13.7790   19.6210 C   0  0  0  0  0  3  0  0  0  0  0  0
  -30.1660  -13.7380   20.7970 C   0  0  0  0  0  2  0  0  0  0  0  0
  -31.5190  -13.9490   20.2530 N   0  0  0  0  0  0  0  0  0  0  0  0
  -33.3050  -15.2690   19.7320 O   0  0  0  0  0  0  0  0  0  0  0  0
  -31.4220  -16.2130   20.4990 N   0  0  0  0  0  0  0  0  0  0  0  0
  -30.5060  -16.0360   20.8800 H   0  0  0  0  0  0  0  0  0  0  0  0
  -26.7750  -14.5000   20.2630 C   0  0  0  0  0  0  0  0  0  0  0  0
  -25.6680  -13.7790   20.6220 C   0  0  0  0  0  0  0  0  0  0  0  0
  -26.0710  -12.4090   20.6200 C   0  0  0  0  0  0  0  0  0  0  0  0
  -27.7880  -13.5720   20.0750 N   0  0  0  0  0  0  0  0  0  0  0  0
  -27.3640  -12.3090   20.3410 N   0  0  0  0  0  0  0  0  0  0  0  0
  -25.2890  -11.1800   20.8100 C   0  0  0  0  0  0  0  0  0  0  0  0
  -25.4880  -10.3390   21.9260 C   0  0  0  0  0  3  0  0  0  0  0  0
  -24.7100   -9.1750   22.0950 C   0  0  0  0  0  3  0  0  0  0  0  0
  -23.7140   -8.8430   21.1460 C   0  0  0  0  0  0  0  0  0  0  0  0
  -23.5350   -9.6690   20.0230 C   0  0  0  0  0  3  0  0  0  0  0  0
  -24.3160  -10.8260   19.8530 C   0  0  0  0  0  3  0  0  0  0  0  0
  -22.9260   -7.7200   21.2160 O   0  0  0  0  0  0  0  0  0  0  0  0
  -22.4050   -7.2790   22.4070 C   0  0  0  0  0  0  0  0  0  0  0  0
  -21.5610   -8.0900   23.1980 C   0  0  0  0  0  3  0  0  0  0  0  0
  -20.9930   -7.5730   24.3790 C   0  0  0  0  0  3  0  0  0  0  0  0
  -21.2580   -6.2470   24.7660 C   0  0  0  0  0  0  0  0  0  0  0  0
  -22.0920   -5.4360   23.9760 C   0  0  0  0  0  3  0  0  0  0  0  0
  -22.6610   -5.9500   22.7990 C   0  0  0  0  0  0  0  0  0  0  0  0
  -23.4480   -5.1580   22.0310 F   0  0  0  0  0  0  0  0  0  0  0  0
  -20.7050   -5.7460   25.8950 F   0  0  0  0  0  0  0  0  0  0  0  0
  -24.2870  -14.3170   20.8610 C   0  0  0  0  0  0  0  0  0  0  0  0
  -23.5340  -13.6930   21.7620 N   0  0  0  0  0  0  0  0  0  0  0  0
  -23.8850  -15.3270   20.2840 O   0  0  0  0  0  0  0  0  0  0  0  0
  -23.8720  -12.8760   22.2490 H   0  0  0  0  0  0  0  0  0  0  0  0
  -22.6070  -14.0380   21.9670 H   0  0  0  0  0  0  0  0  0  0  0  0
  -27.0000  -15.8590   20.0590 N   0  0  0  0  0  0  0  0  0  0  0  0
  -26.2510  -16.5410   20.1090 H   0  0  0  0  0  0  0  0  0  0  0  0
  -27.8620  -16.2450   19.6960 H   0  0  0  0  0  0  0  0  0  0  0  0
  -29.6600  -24.5830   21.4270 C   0  0  0  0  0  2  0  0  0  0  0  0
  -29.4500  -25.5390   20.2430 C   0  0  0  0  0  2  0  0  0  0  0  0
  -30.0510  -26.9330   20.4810 C   0  0  0  0  0  2  0  0  0  0  0  0
  -29.6340  -27.8370   19.4610 O   0  0  0  0  0  0  0  0  0  0  0  0
  -24.7940  -31.3740   23.2940 C   0  0  0  0  0  0  0  0  0  0  0  0
  -28.3390  -28.2650   19.5850 C   0  0  0  0  0  0  0  0  0  0  0  0
  -23.9180  -30.0450   21.4000 C   0  0  0  0  0  3  0  0  0  0  0  0
  -25.6680  -29.1430   19.7800 C   0  0  0  0  0  0  0  0  0  0  0  0
  -26.2900  -30.9960   21.3400 C   0  0  0  0  0  2  0  0  0  0  0  0
  -26.6770  -29.8090   20.4870 C   0  0  0  0  0  0  0  0  0  0  0  0
  -28.0150  -29.3720   20.3950 C   0  0  0  0  0  3  0  0  0  0  0  0
  -27.3210  -27.6020   18.8710 C   0  0  0  0  0  3  0  0  0  0  0  0
  -25.9840  -28.0320   18.9740 C   0  0  0  0  0  3  0  0  0  0  0  0
  -24.2630  -29.6800   19.9320 C   0  0  0  0  0  2  0  0  0  0  0  0
  -25.0160  -30.8130   22.0720 N   0  0  0  0  0  0  0  0  0  0  0  0
  -23.6850  -31.2990   23.8390 O   0  0  0  0  0  0  0  0  0  0  0  0
  -23.5250  -28.7530   22.1490 C   0  0  0  0  0  0  0  0  0  0  0  0
  -22.3050  -28.2590   21.8870 N   0  0  0  0  0  0  0  0  0  0  0  0
  -24.3150  -28.2030   22.9220 O   0  0  0  0  0  0  0  0  0  0  0  0
  -21.7160  -28.7720   21.2470 H   0  0  0  0  0  0  0  0  0  0  0  0
  -19.3550  -26.1760   21.9060 C   0  0  0  0  0  0  0  0  0  0  0  0
  -21.7330  -27.0360   22.4470 C   0  0  0  0  0  3  0  0  0  0  0  0
  -22.2450  -25.7870   21.6930 C   0  0  0  0  0  2  0  0  0  0  0  0
  -21.3250  -25.3550   20.5480 C   0  0  0  0  0  2  0  0  0  0  0  0
  -19.9230  -25.0380   21.0760 C   0  0  0  0  0  2  0  0  0  0  0  0
  -20.2050  -27.1230   22.5370 C   0  0  0  0  0  0  0  0  0  0  0  0
  -19.6250  -28.1820   23.2670 C   0  0  0  0  0  3  0  0  0  0  0  0
  -18.2270  -28.3000   23.3780 C   0  0  0  0  0  3  0  0  0  0  0  0
  -17.3910  -27.3490   22.7670 C   0  0  0  0  0  3  0  0  0  0  0  0
  -17.9550  -26.2910   22.0350 C   0  0  0  0  0  3  0  0  0  0  0  0
  -25.9120  -32.1590   24.0490 C   0  0  0  0  0  3  0  0  0  0  0  0
  -25.3950  -33.5030   24.3370 N   0  0  0  0  0  0  0  0  0  0  0  0
  -25.6920  -34.5980   23.6270 C   0  0  0  0  0  0  0  0  0  0  0  0
  -26.4990  -34.5920   22.6920 O   0  0  0  0  0  0  0  0  0  0  0  0
  -24.6820  -33.5700   25.0500 H   0  0  0  0  0  0  0  0  0  0  0  0
  -23.8250  -36.1740   23.0310 C   0  0  0  0  0  1  0  0  0  0  0  0
  -24.9790  -35.9090   24.0110 C   0  0  0  0  0  3  0  0  0  0  0  0
  -26.8450  -37.0280   25.1430 C   0  0  0  0  0  1  0  0  0  0  0  0
  -25.8820  -37.0800   24.0480 N   0  0  0  0  0  0  0  0  0  0  0  0
  -25.3530  -37.9430   24.1320 H   0  0  0  0  0  0  0  0  0  0  0  0
  -26.3820  -31.4430   25.3750 C   0  0  1  0  0  0  0  0  0  0  0  0
  -25.2160  -31.0330   26.3070 C   0  0  0  0  0  1  0  0  0  0  0  0
  -27.1930  -30.1690   25.0450 C   0  0  0  0  0  1  0  0  0  0  0  0
  -27.3290  -32.3730   26.1690 C   0  0  0  0  0  1  0  0  0  0  0  0
  2  1  2  0
  3  1  1  0
  3 51  1  0
  4  7  1  0
  5  2  1  0
  6  4  2  0
  6  2  1  0
  7  3  2  0
 10  8  1  6
 10  9  1  0
 10  4  1  0
 10 11  1  0
 12 21  1  0
 12 11  1  0
 13 19  1  0
 13 21  1  0
 14 19  1  0
 15 16  1  0
 15 14  1  0
 17 16  1  0
 17 26  1  0
 17 18  1  0
 19 18  1  0
 20 13  2  0
 21 22  1  0
 23 24  2  0
 24 43  1  0
 25 24  1  0
 25 28  1  0
 26 23  1  0
 26 27  1  0
 27 25  2  0
 28 29  1  0
 29 30  2  0
 31 34  1  0
 31 30  1  0
 32 31  2  0
 33 32  1  0
 33 28  2  0
 34 35  1  0
 35 40  2  0
 35 36  1  0
 36 37  2  0
 37 38  1  0
 38 42  1  0
 39 38  2  0
 40 39  1  0
 41 40  1  0
 43 44  1  0
 44 47  1  0
 44 46  1  0
 45 43  2  0
 48 49  1  0
 48 23  1  0
 50 48  1  0
 52 53  1  0
 52 51  1  0
 54 56  1  0
 54 53  1  0
 55 66  2  0
 56 61  1  0
 57 65  1  0
 57 67  1  0
 58 64  1  0
 58 60  1  0
 59 65  1  0
 60 59  1  0
 61 60  2  0
 62 63  1  0
 62 56  2  0
 63 58  2  0
 64 57  1  0
 65 55  1  0
 67 69  2  0
 68 67  1  0
 70 68  1  0
 71 80  2  0
 71 76  1  0
 72 68  1  0
 72 76  1  0
 73 72  1  0
 74 75  1  0
 74 73  1  0
 75 71  1  0
 76 77  2  0
 77 78  1  0
 79 78  2  0
 80 79  1  0
 81 55  1  0
 81 82  1  0
 81 91  1  0
 82 85  1  0
 83 87  1  0
 83 82  1  0
 84 83  2  0
 87 86  1  0
 87 89  1  0
 89 90  1  0
 89 88  1  0
 91 94  1  1
 91 92  1  0
 93 91  1  0
M  ISO  4  13 100  21 100  53 101  54 101
M  END
>  <TORSDO>  (68) 
F 22

>  <SCORE>  (68) 
-4.752

>  <name>  (68) 
69

>  <ligand_id>  (68) 
69

>  <original_smiles>  (68) 
[H]c1c(C([H])([H])[H])nc(C(C([H])([H])[H])(C([H])([H])[H])C([H])([H])C([H])([H])N([H])C(=O)N2C([H])([H])C([H])([H])C([H])([H])C([H])(n3nc(-c4c([H])c([H])c(Oc5c([H])c([H])c(F)c([H])c5F)c([H])c4[H])c(C(=O)N([H])[H])c3N([H])[H])C2([H])[H])nc1C([H])([H])C([H])([H])C([H])([H])Oc1c([H])c([H])c2c(c1[H])C([H])([H])N(C(=O)C([H])(N([H])C(=O)C([H])(N([H])C([H])([H])[H])C([H])([H])[H])C(C([H])([H])[H])(C([H])([H])[H])C([H])([H])[H])C([H])(C(=O)N([H])C1([H])c3c([H])c([H])c([H])c([H])c3C([H])([H])C([H])([H])C1([H])[H])C2([H])[H]

>  <smiles>  (68) 
[H]c1c(C([H])([H])[H])nc(C(C([H])([H])[H])(C([H])([H])[H])C([H])([H])C([H])([H])N([H])C(=O)N2C([H])([H])C([H])([H])C([H])([H])C([H])(n3nc(-c4c([H])c([H])c(Oc5c([H])c([H])c(F)c([H])c5F)c([H])c4[H])c(C(=O)N([H])[H])c3N([H])[H])C2([H])[H])nc1C([H])([H])C([H])([H])C([H])([H])Oc1c([H])c([H])c2c(c1[H])C([H])([H])N(C(=O)C([H])(N([H])C(=O)C([H])(N([H])C([H])([H])[H])C([H])([H])[H])C(C([H])([H])[H])(C([H])([H])[H])C([H])([H])[H])C([H])(C(=O)N([H])C1([H])c3c([H])c([H])c([H])c([H])c3C([H])([H])C([H])([H])C1([H])[H])C2([H])[H]

$$$$
70:0:0
     RDKit          3D

 95103  0  0  1  0  0  0  0  0999 V2000
  -30.2820  -23.4050   20.1890 C   0  0  0  0  0  3  0  0  0  0  0  0
  -29.8000  -22.2450   17.7940 C   0  0  0  0  0  3  0  0  0  0  0  0
  -30.1330  -24.1770   19.0110 C   0  0  0  0  0  0  0  0  0  0  0  0
  -29.9710  -21.4700   18.9650 C   0  0  0  0  0  0  0  0  0  0  0  0
  -29.8870  -23.5960   17.8090 N   0  0  0  0  0  0  0  0  0  0  0  0
  -30.2060  -22.0500   20.1730 N   0  0  0  0  0  0  0  0  0  0  0  0
  -30.3470  -25.6840   19.0070 C   0  0  0  0  0  2  0  0  0  0  0  0
  -29.0550  -26.5130   18.9160 C   0  0  0  0  0  2  0  0  0  0  0  0
  -28.4680  -26.7060   20.2020 O   0  0  0  0  0  0  0  0  0  0  0  0
  -24.5870  -31.8430   23.2410 C   0  0  0  0  0  0  0  0  0  0  0  0
  -27.2930  -27.4170   20.1990 C   0  0  0  0  0  0  0  0  0  0  0  0
  -23.4070  -30.4330   21.5860 C   0  0  0  0  0  3  0  0  0  0  0  0
  -24.8850  -28.8910   20.1910 C   0  0  0  0  0  0  0  0  0  0  0  0
  -25.9330  -30.7970   21.4240 C   0  0  0  0  0  2  0  0  0  0  0  0
  -26.0310  -29.4240   20.7970 C   0  0  0  0  0  0  0  0  0  0  0  0
  -27.2340  -28.6870   20.8120 C   0  0  0  0  0  3  0  0  0  0  0  0
  -26.1270  -26.8830   19.6080 C   0  0  0  0  0  3  0  0  0  0  0  0
  -24.9250  -27.6160   19.6010 C   0  0  0  0  0  3  0  0  0  0  0  0
  -23.6380  -29.7460   20.2140 C   0  0  0  0  0  2  0  0  0  0  0  0
  -24.6600  -31.0400   22.1430 N   0  0  0  0  0  0  0  0  0  0  0  0
  -23.4990  -32.1160   23.7650 O   0  0  0  0  0  0  0  0  0  0  0  0
  -22.7450  -29.4150   22.5410 C   0  0  0  0  0  0  0  0  0  0  0  0
  -21.4180  -29.2520   22.4130 N   0  0  0  0  0  0  0  0  0  0  0  0
  -23.4210  -28.7740   23.3500 O   0  0  0  0  0  0  0  0  0  0  0  0
  -20.9340  -29.8200   21.7300 H   0  0  0  0  0  0  0  0  0  0  0  0
  -18.0250  -28.1190   22.9190 C   0  0  0  0  0  0  0  0  0  0  0  0
  -20.5890  -28.3210   23.1780 C   0  0  0  0  0  3  0  0  0  0  0  0
  -20.6600  -26.8960   22.5840 C   0  0  0  0  0  2  0  0  0  0  0  0
  -19.5450  -26.6080   21.5730 C   0  0  0  0  0  2  0  0  0  0  0  0
  -18.1710  -26.7740   22.2280 C   0  0  0  0  0  2  0  0  0  0  0  0
  -19.1620  -28.8530   23.3520 C   0  0  0  0  0  0  0  0  0  0  0  0
  -18.9730  -30.1140   23.9580 C   0  0  0  0  0  3  0  0  0  0  0  0
  -17.6810  -30.6410   24.1360 C   0  0  0  0  0  3  0  0  0  0  0  0
  -16.5580  -29.9030   23.7210 C   0  0  0  0  0  3  0  0  0  0  0  0
  -16.7320  -28.6450   23.1190 C   0  0  0  0  0  3  0  0  0  0  0  0
  -25.8650  -32.4780   23.8760 C   0  0  0  0  0  3  0  0  0  0  0  0
  -25.5510  -33.8770   24.1920 N   0  0  0  0  0  0  0  0  0  0  0  0
  -25.8990  -34.9240   23.4320 C   0  0  0  0  0  0  0  0  0  0  0  0
  -26.5890  -34.8140   22.4140 O   0  0  0  0  0  0  0  0  0  0  0  0
  -24.9400  -34.0380   24.9790 H   0  0  0  0  0  0  0  0  0  0  0  0
  -24.1780  -36.7140   23.0330 C   0  0  0  0  0  1  0  0  0  0  0  0
  -25.4040  -36.3150   23.8710 C   0  0  0  0  0  3  0  0  0  0  0  0
  -27.5260  -37.2020   24.7310 C   0  0  0  0  0  1  0  0  0  0  0  0
  -26.4390  -37.3670   23.7700 N   0  0  0  0  0  0  0  0  0  0  0  0
  -26.0320  -38.2880   23.9080 H   0  0  0  0  0  0  0  0  0  0  0  0
  -26.3670  -31.7120   25.1610 C   0  0  1  0  0  0  0  0  0  0  0  0
  -25.2590  -31.4730   26.2140 C   0  0  0  0  0  1  0  0  0  0  0  0
  -26.9610  -30.3360   24.7800 C   0  0  0  0  0  1  0  0  0  0  0  0
  -27.5050  -32.5120   25.8370 C   0  0  0  0  0  1  0  0  0  0  0  0
  -29.9360  -19.9450   18.9020 C   0  0  0  0  0  2  0  0  0  0  0  0
  -29.2520  -19.3290   20.0720 N   0  0  1  0  0  4  0  0  0  0  0  0
  -29.6130  -19.8630   20.8500 H   0  0  0  0  0  0  0  0  0  0  0  0
  -26.9820  -18.8720   18.9950 C   0  0  0  0  0  1  0  0  0  0  0  0
  -27.7800  -19.5720   20.1140 C   0  0  0  0  0  2  0  0  0  0  0  0
  -29.6140  -17.9040   20.3250 C   0  0  0  0  0  2  0  0  0  0  0  0
  -31.1130  -17.6790   20.6320 C   0  0  0  0  0  2  0  0  0  0  0  0
  -31.4040  -16.4630   21.5400 C   0  0  0  0  0  2  0  0  0  0  0  0
  -31.1960  -14.3020   20.2960 C   0  0  0  0  0  0  0  0  0  0  0  0
  -30.8170  -12.0710   19.3060 C   0  0  0  0  0  2  0  0  0  0  0  0
  -29.8900  -12.1530   18.0790 C   0  0  0  0  0  2  0  0  0  0  0  0
  -28.4100  -12.0980   18.5040 C   0  0  0  0  0  2  0  0  0  0  0  0
  -28.0830  -13.0920   19.6490 C   0  0  0  0  0  3  0  0  0  0  0  0
  -29.1130  -12.9640   20.7920 C   0  0  0  0  0  2  0  0  0  0  0  0
  -30.4610  -13.1620   20.2250 N   0  0  0  0  0  0  0  0  0  0  0  0
  -32.2400  -14.4790   19.6640 O   0  0  0  0  0  0  0  0  0  0  0  0
  -30.7180  -15.2330   21.1350 N   0  0  0  0  0  0  0  0  0  0  0  0
  -29.8690  -14.9910   21.6240 H   0  0  0  0  0  0  0  0  0  0  0  0
  -25.7300  -13.8640   20.3570 C   0  0  0  0  0  0  0  0  0  0  0  0
  -24.6160  -13.1660   20.7400 C   0  0  0  0  0  0  0  0  0  0  0  0
  -24.9880  -11.7880   20.7190 C   0  0  0  0  0  0  0  0  0  0  0  0
  -26.7150  -12.9140   20.1320 N   0  0  0  0  0  0  0  0  0  0  0  0
  -26.2700  -11.6600   20.4050 N   0  0  0  0  0  0  0  0  0  0  0  0
  -24.1820  -10.5760   20.9250 C   0  0  0  0  0  0  0  0  0  0  0  0
  -24.5490   -9.5980   21.8750 C   0  0  0  0  0  3  0  0  0  0  0  0
  -23.7480   -8.4520   22.0680 C   0  0  0  0  0  3  0  0  0  0  0  0
  -22.5670   -8.2750   21.3080 C   0  0  0  0  0  0  0  0  0  0  0  0
  -22.2190   -9.2410   20.3490 C   0  0  0  0  0  3  0  0  0  0  0  0
  -23.0190  -10.3790   20.1540 C   0  0  0  0  0  3  0  0  0  0  0  0
  -21.7430   -7.1810   21.4090 O   0  0  0  0  0  0  0  0  0  0  0  0
  -21.6310   -6.4680   22.5760 C   0  0  0  0  0  0  0  0  0  0  0  0
  -21.2350   -7.0780   23.7860 C   0  0  0  0  0  3  0  0  0  0  0  0
  -21.0660   -6.2950   24.9470 C   0  0  0  0  0  3  0  0  0  0  0  0
  -21.2830   -4.9050   24.8970 C   0  0  0  0  0  0  0  0  0  0  0  0
  -21.6710   -4.2950   23.6910 C   0  0  0  0  0  3  0  0  0  0  0  0
  -21.8420   -5.0750   22.5330 C   0  0  0  0  0  0  0  0  0  0  0  0
  -22.1960   -4.4800   21.3690 F   0  0  0  0  0  0  0  0  0  0  0  0
  -21.1120   -4.1520   26.0080 F   0  0  0  0  0  0  0  0  0  0  0  0
  -23.2540  -13.7360   21.0160 C   0  0  0  0  0  0  0  0  0  0  0  0
  -22.4940  -13.1040   21.9030 N   0  0  0  0  0  0  0  0  0  0  0  0
  -22.8750  -14.7760   20.4790 O   0  0  0  0  0  0  0  0  0  0  0  0
  -22.8130  -12.2620   22.3580 H   0  0  0  0  0  0  0  0  0  0  0  0
  -21.5800  -13.4680   22.1300 H   0  0  0  0  0  0  0  0  0  0  0  0
  -25.9840  -15.2180   20.1650 N   0  0  0  0  0  0  0  0  0  0  0  0
  -25.2570  -15.9210   20.2550 H   0  0  0  0  0  0  0  0  0  0  0  0
  -26.8520  -15.5870   19.7980 H   0  0  0  0  0  0  0  0  0  0  0  0
  2  5  2  0
  2  4  1  0
  3  1  2  0
  4  6  2  0
  5  3  1  0
  6  1  1  0
  7  3  1  0
  8  7  1  0
  8  9  1  0
 10 21  2  0
 11  9  1  0
 11 16  1  0
 12 20  1  0
 12 22  1  0
 13 19  1  0
 13 15  1  0
 14 20  1  0
 15 16  2  0
 15 14  1  0
 17 11  2  0
 18 17  1  0
 18 13  2  0
 19 12  1  0
 20 10  1  0
 22 24  2  0
 23 22  1  0
 25 23  1  0
 26 35  2  0
 26 31  1  0
 27 23  1  0
 27 31  1  0
 28 27  1  0
 29 30  1  0
 29 28  1  0
 30 26  1  0
 31 32  2  0
 32 33  1  0
 34 33  2  0
 35 34  1  0
 36 10  1  0
 36 37  1  0
 36 46  1  0
 37 40  1  0
 38 42  1  0
 38 37  1  0
 39 38  2  0
 42 41  1  0
 44 42  1  0
 44 45  1  0
 44 43  1  0
 46 49  1  1
 46 47  1  0
 48 46  1  0
 50  4  1  0
 50 51  1  0
 51 54  1  0
 51 55  1  0
 51 52  1  1
 53 54  1  0
 55 56  1  0
 56 57  1  0
 58 66  1  0
 59 64  1  0
 60 61  1  0
 60 59  1  0
 62 61  1  0
 62 71  1  0
 62 63  1  0
 64 58  1  0
 64 63  1  0
 65 58  2  0
 66 57  1  0
 66 67  1  0
 68 69  2  0
 69 88  1  0
 70 69  1  0
 70 73  1  0
 71 68  1  0
 71 72  1  0
 72 70  2  0
 73 74  1  0
 74 75  2  0
 76 79  1  0
 76 75  1  0
 77 76  2  0
 78 77  1  0
 78 73  2  0
 79 80  1  0
 80 81  1  0
 81 82  2  0
 83 82  1  0
 83 87  1  0
 84 83  2  0
 85 80  2  0
 85 84  1  0
 86 85  1  0
 88 89  1  0
 89 92  1  0
 89 91  1  0
 90 88  2  0
 93 94  1  0
 93 68  1  0
 95 93  1  0
M  ISO  4   8 101   9 101  58 100  66 100
M  END
>  <TORSDO>  (69) 
F 24

>  <SCORE>  (69) 
-12.300

>  <name>  (69) 
70

>  <ligand_id>  (69) 
70

>  <original_smiles>  (69) 
[H]c1nc(C([H])([H])[N+]([H])(C([H])([H])C([H])([H])[H])C([H])([H])C([H])([H])C([H])([H])N([H])C(=O)N2C([H])([H])C([H])([H])C([H])([H])C([H])(n3nc(-c4c([H])c([H])c(Oc5c([H])c([H])c(F)c([H])c5F)c([H])c4[H])c(C(=O)N([H])[H])c3N([H])[H])C2([H])[H])c([H])nc1C([H])([H])C([H])([H])Oc1c([H])c([H])c2c(c1[H])C([H])([H])N(C(=O)C([H])(N([H])C(=O)C([H])(N([H])C([H])([H])[H])C([H])([H])[H])C(C([H])([H])[H])(C([H])([H])[H])C([H])([H])[H])C([H])(C(=O)N([H])C1([H])c3c([H])c([H])c([H])c([H])c3C([H])([H])C([H])([H])C1([H])[H])C2([H])[H]

>  <smiles>  (69) 
[H]c1nc(C([H])([H])[N+]([H])(C([H])([H])C([H])([H])[H])C([H])([H])C([H])([H])C([H])([H])N([H])C(=O)N2C([H])([H])C([H])([H])C([H])([H])C([H])(n3nc(-c4c([H])c([H])c(Oc5c([H])c([H])c(F)c([H])c5F)c([H])c4[H])c(C(=O)N([H])[H])c3N([H])[H])C2([H])[H])c([H])nc1C([H])([H])C([H])([H])Oc1c([H])c([H])c2c(c1[H])C([H])([H])N(C(=O)C([H])(N([H])C(=O)C([H])(N([H])C([H])([H])[H])C([H])([H])[H])C(C([H])([H])[H])(C([H])([H])[H])C([H])([H])[H])C([H])(C(=O)N([H])C1([H])c3c([H])c([H])c([H])c([H])c3C([H])([H])C([H])([H])C1([H])[H])C2([H])[H]

$$$$
71:0:0
     RDKit          3D

 90 98  0  0  1  0  0  0  0  0999 V2000
  -29.6900  -19.5950   20.7560 C   0  0  0  0  0  3  0  0  0  0  0  0
  -28.0530  -19.9960   19.2950 C   0  0  0  0  0  3  0  0  0  0  0  0
  -28.7770  -20.5970   20.2830 C   0  0  0  0  0  0  0  0  0  0  0  0
  -29.5720  -18.4580   19.9820 C   0  0  0  0  0  0  0  0  0  0  0  0
  -28.0070  -17.8450   18.0450 C   0  0  0  0  0  1  0  0  0  0  0  0
  -28.5300  -18.7120   19.0890 N   0  0  0  0  0  0  0  0  0  0  0  0
  -30.4280  -17.1900   19.9130 C   0  0  0  0  0  2  0  0  0  0  0  0
  -30.2910  -16.2230   22.2720 C   0  0  0  0  0  1  0  0  0  0  0  0
  -30.0460  -15.9390   20.7800 C   0  0  0  0  0  3  0  0  0  0  0  0
  -30.8060  -14.6430   20.3170 C   0  0  0  0  0  0  0  0  0  0  0  0
  -30.5330  -12.4760   19.1520 C   0  0  0  0  0  2  0  0  0  0  0  0
  -29.5820  -12.6790   17.9530 C   0  0  0  0  0  2  0  0  0  0  0  0
  -28.1120  -12.5170   18.3910 C   0  0  0  0  0  2  0  0  0  0  0  0
  -27.7750  -13.3510   19.6540 C   0  0  0  0  0  3  0  0  0  0  0  0
  -28.8360  -13.1410   20.7550 C   0  0  0  0  0  2  0  0  0  0  0  0
  -30.1530  -13.4520   20.1870 N   0  0  0  0  0  0  0  0  0  0  0  0
  -31.9670  -14.7730   19.9140 O   0  0  0  0  0  0  0  0  0  0  0  0
  -25.3830  -13.9540   20.3810 C   0  0  0  0  0  0  0  0  0  0  0  0
  -24.3200  -13.1790   20.7580 C   0  0  0  0  0  0  0  0  0  0  0  0
  -24.7870  -11.8290   20.7350 C   0  0  0  0  0  0  0  0  0  0  0  0
  -26.4290  -13.0740   20.1460 N   0  0  0  0  0  0  0  0  0  0  0  0
  -26.0760  -11.7920   20.4220 N   0  0  0  0  0  0  0  0  0  0  0  0
  -24.0690  -10.5640   20.9340 C   0  0  0  0  0  0  0  0  0  0  0  0
  -24.4920   -9.6180   21.8940 C   0  0  0  0  0  3  0  0  0  0  0  0
  -23.7740   -8.4170   22.0790 C   0  0  0  0  0  3  0  0  0  0  0  0
  -22.6200   -8.1540   21.3030 C   0  0  0  0  0  0  0  0  0  0  0  0
  -22.2170   -9.0890   20.3340 C   0  0  0  0  0  3  0  0  0  0  0  0
  -22.9350  -10.2820   20.1480 C   0  0  0  0  0  3  0  0  0  0  0  0
  -21.8750   -7.0040   21.3970 O   0  0  0  0  0  0  0  0  0  0  0  0
  -21.7810   -6.2990   22.5700 C   0  0  0  0  0  0  0  0  0  0  0  0
  -21.2910   -6.8880   23.7560 C   0  0  0  0  0  3  0  0  0  0  0  0
  -21.1470   -6.1090   24.9210 C   0  0  0  0  0  3  0  0  0  0  0  0
  -21.4800   -4.7420   24.9010 C   0  0  0  0  0  0  0  0  0  0  0  0
  -21.9630   -4.1520   23.7190 C   0  0  0  0  0  3  0  0  0  0  0  0
  -22.1090   -4.9290   22.5570 C   0  0  0  0  0  0  0  0  0  0  0  0
  -22.5550   -4.3500   21.4150 F   0  0  0  0  0  0  0  0  0  0  0  0
  -21.3340   -3.9920   26.0170 F   0  0  0  0  0  0  0  0  0  0  0  0
  -22.9190  -13.6490   21.0310 C   0  0  0  0  0  0  0  0  0  0  0  0
  -22.1980  -12.9570   21.9030 N   0  0  0  0  0  0  0  0  0  0  0  0
  -22.4740  -14.6680   20.5030 O   0  0  0  0  0  0  0  0  0  0  0  0
  -22.5690  -12.1320   22.3540 H   0  0  0  0  0  0  0  0  0  0  0  0
  -21.2580  -13.2540   22.1260 H   0  0  0  0  0  0  0  0  0  0  0  0
  -25.5440  -15.3250   20.1990 N   0  0  0  0  0  0  0  0  0  0  0  0
  -24.7810  -15.9820   20.3180 H   0  0  0  0  0  0  0  0  0  0  0  0
  -26.4030  -15.7680   19.9000 H   0  0  0  0  0  0  0  0  0  0  0  0
  -28.6210  -21.9040   20.7280 O   0  0  0  0  0  0  0  0  0  0  0  0
  -28.8950  -22.9320   19.7490 C   0  0  0  0  0  2  0  0  0  0  0  0
  -27.9620  -24.1890   19.7390 C   0  0  0  0  0  2  0  0  0  0  0  0
  -28.2480  -25.3130   20.7780 C   0  0  0  0  0  2  0  0  0  0  0  0
  -28.3540  -26.6650   20.2490 O   0  0  0  0  0  0  0  0  0  0  0  0
  -24.5860  -31.9450   23.2380 C   0  0  0  0  0  0  0  0  0  0  0  0
  -27.2040  -27.4310   20.2280 C   0  0  0  0  0  0  0  0  0  0  0  0
  -23.3750  -30.5260   21.6160 C   0  0  0  0  0  3  0  0  0  0  0  0
  -24.8220  -28.9700   20.2040 C   0  0  0  0  0  0  0  0  0  0  0  0
  -25.9020  -30.8780   21.4040 C   0  0  0  0  0  2  0  0  0  0  0  0
  -25.9850  -29.4950   20.7830 C   0  0  0  0  0  0  0  0  0  0  0  0
  -27.1840  -28.7370   20.7810 C   0  0  0  0  0  3  0  0  0  0  0  0
  -26.0250  -26.9300   19.6390 C   0  0  0  0  0  3  0  0  0  0  0  0
  -24.8400  -27.6890   19.6230 C   0  0  0  0  0  3  0  0  0  0  0  0
  -23.5820  -29.8340   20.2440 C   0  0  0  0  0  2  0  0  0  0  0  0
  -24.6410  -31.1310   22.1450 N   0  0  0  0  0  0  0  0  0  0  0  0
  -23.5050  -32.2230   23.7770 O   0  0  0  0  0  0  0  0  0  0  0  0
  -22.7250  -29.5140   22.5880 C   0  0  0  0  0  0  0  0  0  0  0  0
  -21.4000  -29.3270   22.4600 N   0  0  0  0  0  0  0  0  0  0  0  0
  -23.4090  -28.9000   23.4110 O   0  0  0  0  0  0  0  0  0  0  0  0
  -20.9090  -29.8790   21.7700 H   0  0  0  0  0  0  0  0  0  0  0  0
  -18.0260  -28.1300   22.9670 C   0  0  0  0  0  0  0  0  0  0  0  0
  -20.5830  -28.3970   23.2390 C   0  0  0  0  0  3  0  0  0  0  0  0
  -20.6900  -26.9600   22.6800 C   0  0  0  0  0  2  0  0  0  0  0  0
  -19.5910  -26.6240   21.6670 C   0  0  0  0  0  2  0  0  0  0  0  0
  -18.2070  -26.7740   22.3060 C   0  0  0  0  0  2  0  0  0  0  0  0
  -19.1430  -28.8990   23.3900 C   0  0  0  0  0  0  0  0  0  0  0  0
  -18.9210  -30.1690   23.9660 C   0  0  0  0  0  3  0  0  0  0  0  0
  -17.6170  -30.6720   24.1210 C   0  0  0  0  0  3  0  0  0  0  0  0
  -16.5130  -29.8990   23.7160 C   0  0  0  0  0  3  0  0  0  0  0  0
  -16.7200  -28.6320   23.1430 C   0  0  0  0  0  3  0  0  0  0  0  0
  -25.8720  -32.5840   23.8490 C   0  0  0  0  0  3  0  0  0  0  0  0
  -25.5580  -33.9800   24.1810 N   0  0  0  0  0  0  0  0  0  0  0  0
  -25.8830  -35.0330   23.4200 C   0  0  0  0  0  0  0  0  0  0  0  0
  -26.5510  -34.9330   22.3860 O   0  0  0  0  0  0  0  0  0  0  0  0
  -24.9660  -34.1310   24.9850 H   0  0  0  0  0  0  0  0  0  0  0  0
  -24.1530  -36.8210   23.0630 C   0  0  0  0  0  1  0  0  0  0  0  0
  -25.3920  -36.4190   23.8770 C   0  0  0  0  0  3  0  0  0  0  0  0
  -27.5240  -37.3070   24.7150 C   0  0  0  0  0  1  0  0  0  0  0  0
  -26.4220  -37.4750   23.7710 N   0  0  0  0  0  0  0  0  0  0  0  0
  -26.0110  -38.3910   23.9250 H   0  0  0  0  0  0  0  0  0  0  0  0
  -26.4000  -31.8150   25.1220 C   0  0  1  0  0  0  0  0  0  0  0  0
  -25.3170  -31.5680   26.1960 C   0  0  0  0  0  1  0  0  0  0  0  0
  -26.9880  -30.4410   24.7200 C   0  0  0  0  0  1  0  0  0  0  0  0
  -27.5480  -32.6160   25.7790 C   0  0  0  0  0  1  0  0  0  0  0  0
  2  3  2  0
  3 46  1  0
  3  1  1  0
  4  1  2  0
  5  6  1  0
  6  2  1  0
  6  4  1  0
  7  4  1  0
  7  9  1  0
  9  8  1  0
 10  9  1  0
 11 16  1  0
 12 13  1  0
 12 11  1  0
 14 13  1  0
 14 21  1  0
 14 15  1  0
 16 10  1  0
 16 15  1  0
 17 10  2  0
 18 19  2  0
 19 38  1  0
 20 19  1  0
 20 23  1  0
 21 18  1  0
 21 22  1  0
 22 20  2  0
 23 24  1  0
 24 25  2  0
 26 29  1  0
 26 25  1  0
 27 26  2  0
 28 27  1  0
 28 23  2  0
 29 30  1  0
 30 31  1  0
 31 32  2  0
 33 32  1  0
 33 37  1  0
 34 33  2  0
 35 30  2  0
 35 34  1  0
 36 35  1  0
 38 39  1  0
 39 42  1  0
 39 41  1  0
 40 38  2  0
 43 44  1  0
 43 18  1  0
 45 43  1  0
 47 46  1  0
 48 47  1  0
 48 49  1  0
 50 49  1  0
 51 62  2  0
 52 50  1  0
 52 57  1  0
 53 61  1  0
 53 63  1  0
 54 60  1  0
 54 56  1  0
 55 61  1  0
 56 55  1  0
 57 56  2  0
 58 52  2  0
 59 58  1  0
 59 54  2  0
 60 53  1  0
 61 51  1  0
 63 65  2  0
 64 63  1  0
 66 64  1  0
 67 76  2  0
 67 72  1  0
 68 64  1  0
 68 72  1  0
 69 68  1  0
 70 71  1  0
 70 69  1  0
 71 67  1  0
 72 73  2  0
 73 74  1  0
 75 74  2  0
 76 75  1  0
 77 51  1  0
 77 78  1  0
 77 87  1  0
 78 81  1  0
 79 83  1  0
 79 78  1  0
 80 79  2  0
 83 82  1  0
 85 83  1  0
 85 86  1  0
 85 84  1  0
 87 90  1  1
 87 88  1  0
 89 87  1  0
M  ISO  4   9 100  10 100  49 101  50 101
M  END
>  <TORSDO>  (70) 
F 22

>  <SCORE>  (70) 
-13.022

>  <name>  (70) 
71

>  <ligand_id>  (70) 
71

>  <original_smiles>  (70) 
[H]c1c([H])c([H])c2c(c1[H])C([H])([H])C([H])([H])C([H])([H])C2([H])N([H])C(=O)C1([H])N(C(=O)C([H])(N([H])C(=O)C([H])(N([H])C([H])([H])[H])C([H])([H])[H])C(C([H])([H])[H])(C([H])([H])[H])C([H])([H])[H])C([H])([H])c2c([H])c(OC([H])([H])C([H])([H])C([H])([H])Oc3c([H])c(C([H])([H])C([H])(C(=O)N4C([H])([H])C([H])([H])C([H])([H])C([H])(n5nc(-c6c([H])c([H])c(Oc7c([H])c([H])c(F)c([H])c7F)c([H])c6[H])c(C(=O)N([H])[H])c5N([H])[H])C4([H])[H])C([H])([H])[H])n(C([H])([H])[H])c3[H])c([H])c([H])c2C1([H])[H]

>  <smiles>  (70) 
[H]c1c([H])c([H])c2c(c1[H])C([H])([H])C([H])([H])C([H])([H])C2([H])N([H])C(=O)C1([H])N(C(=O)C([H])(N([H])C(=O)C([H])(N([H])C([H])([H])[H])C([H])([H])[H])C(C([H])([H])[H])(C([H])([H])[H])C([H])([H])[H])C([H])([H])c2c([H])c(OC([H])([H])C([H])([H])C([H])([H])Oc3c([H])c(C([H])([H])C([H])(C(=O)N4C([H])([H])C([H])([H])C([H])([H])C([H])(n5nc(-c6c([H])c([H])c(Oc7c([H])c([H])c(F)c([H])c7F)c([H])c6[H])c(C(=O)N([H])[H])c5N([H])[H])C4([H])[H])C([H])([H])[H])n(C([H])([H])[H])c3[H])c([H])c([H])c2C1([H])[H]

$$$$
72:0:0
     RDKit          3D

 97105  0  0  1  0  0  0  0  0999 V2000
  -28.9390  -21.9600   19.9860 N   0  0  1  0  0  4  0  0  0  0  0  0
  -27.9720  -21.7020   20.0930 H   0  0  0  0  0  0  0  0  0  0  0  0
  -29.1880  -22.0230   18.5140 C   0  0  0  0  0  2  0  0  0  0  0  0
  -26.6110  -24.1140   17.0210 C   0  0  0  0  0  3  0  0  0  0  0  0
  -28.7610  -24.0250   16.8790 C   0  0  0  0  0  0  0  0  0  0  0  0
  -28.3610  -23.0310   17.7600 C   0  0  0  0  0  0  0  0  0  0  0  0
  -26.0690  -22.2330   18.5690 C   0  0  0  0  0  1  0  0  0  0  0  0
  -27.6330  -24.7230   16.4310 N   0  0  0  0  0  0  0  0  0  0  0  0
  -26.9660  -23.0920   17.8160 N   0  0  0  0  0  0  0  0  0  0  0  0
  -30.1570  -24.3810   16.4160 C   0  0  1  0  0  0  0  0  0  0  0  0
  -30.9580  -24.6250   17.4530 F   0  0  0  0  0  0  0  0  0  0  0  0
  -30.7030  -23.3900   15.7130 F   0  0  0  0  0  0  0  0  0  0  0  0
  -30.1670  -25.4700   15.6420 F   0  0  0  0  0  0  0  0  0  0  0  0
  -29.7340  -20.6990   20.5620 C   0  0  0  0  0  2  0  0  0  0  0  0
  -29.3240  -19.0760   20.2580 C   0  0  0  0  0  3  0  0  0  0  0  0
  -30.3160  -17.7360   20.5550 C   0  0  0  0  0  3  0  0  0  0  0  0
  -30.6580  -15.0160   20.3550 C   0  0  0  0  0  0  0  0  0  0  0  0
  -30.5070  -12.6730   19.3880 C   0  0  0  0  0  2  0  0  0  0  0  0
  -29.5810  -12.6790   18.1520 C   0  0  0  0  0  2  0  0  0  0  0  0
  -28.1070  -12.4950   18.5630 C   0  0  0  0  0  2  0  0  0  0  0  0
  -27.7150  -13.3830   19.7770 C   0  0  0  0  0  3  0  0  0  0  0  0
  -28.7740  -13.3550   20.9010 C   0  0  0  0  0  2  0  0  0  0  0  0
  -30.0480  -13.7630   20.2980 N   0  0  0  0  0  0  0  0  0  0  0  0
  -31.8620  -15.0760   20.0810 O   0  0  0  0  0  0  0  0  0  0  0  0
  -29.9020  -16.2080   20.5160 N   0  0  0  0  0  0  0  0  0  0  0  0
  -28.9260  -16.0270   20.7060 H   0  0  0  0  0  0  0  0  0  0  0  0
  -25.3330  -13.9500   20.5280 C   0  0  0  0  0  0  0  0  0  0  0  0
  -24.2700  -13.1720   20.8890 C   0  0  0  0  0  0  0  0  0  0  0  0
  -24.7350  -11.8210   20.8430 C   0  0  0  0  0  0  0  0  0  0  0  0
  -26.3760  -13.0750   20.2740 N   0  0  0  0  0  0  0  0  0  0  0  0
  -26.0260  -11.7870   20.5320 N   0  0  0  0  0  0  0  0  0  0  0  0
  -24.0060  -10.5570   21.0200 C   0  0  0  0  0  0  0  0  0  0  0  0
  -24.4200   -9.5920   21.9650 C   0  0  0  0  0  3  0  0  0  0  0  0
  -23.6890   -8.3940   22.1320 C   0  0  0  0  0  3  0  0  0  0  0  0
  -22.5320   -8.1540   21.3540 C   0  0  0  0  0  0  0  0  0  0  0  0
  -22.1390   -9.1080   20.4020 C   0  0  0  0  0  3  0  0  0  0  0  0
  -22.8670  -10.2980   20.2290 C   0  0  0  0  0  3  0  0  0  0  0  0
  -21.7730   -7.0090   21.4300 O   0  0  0  0  0  0  0  0  0  0  0  0
  -21.6850   -6.2760   22.5870 C   0  0  0  0  0  0  0  0  0  0  0  0
  -21.2120   -6.8400   23.7930 C   0  0  0  0  0  3  0  0  0  0  0  0
  -21.0660   -6.0310   24.9380 C   0  0  0  0  0  3  0  0  0  0  0  0
  -21.3870   -4.6610   24.8800 C   0  0  0  0  0  0  0  0  0  0  0  0
  -21.8540   -4.0980   23.6790 C   0  0  0  0  0  3  0  0  0  0  0  0
  -21.9990   -4.9020   22.5360 C   0  0  0  0  0  0  0  0  0  0  0  0
  -22.4230   -4.3470   21.3750 F   0  0  0  0  0  0  0  0  0  0  0  0
  -21.2450   -3.8830   25.9780 F   0  0  0  0  0  0  0  0  0  0  0  0
  -22.8720  -13.6460   21.1640 C   0  0  0  0  0  0  0  0  0  0  0  0
  -22.1480  -12.9450   22.0280 N   0  0  0  0  0  0  0  0  0  0  0  0
  -22.4320  -14.6740   20.6480 O   0  0  0  0  0  0  0  0  0  0  0  0
  -22.5180  -12.1120   22.4590 H   0  0  0  0  0  0  0  0  0  0  0  0
  -21.2100  -13.2420   22.2550 H   0  0  0  0  0  0  0  0  0  0  0  0
  -25.4950  -15.3230   20.3680 N   0  0  0  0  0  0  0  0  0  0  0  0
  -24.7230  -15.9710   20.4960 H   0  0  0  0  0  0  0  0  0  0  0  0
  -26.3350  -15.7760   20.0370 H   0  0  0  0  0  0  0  0  0  0  0  0
  -29.0580  -23.4140   20.6470 C   0  0  0  0  0  3  0  0  0  0  0  0
  -28.1350  -24.7600   20.1850 C   0  0  0  0  0  3  0  0  0  0  0  0
  -28.2670  -26.2450   20.6400 O   0  0  0  0  0  0  0  0  0  0  0  0
  -24.6780  -32.0490   23.4350 C   0  0  0  0  0  0  0  0  0  0  0  0
  -27.2100  -27.2260   20.5240 C   0  0  0  0  0  0  0  0  0  0  0  0
  -23.4710  -30.6390   21.8140 C   0  0  0  0  0  3  0  0  0  0  0  0
  -24.9050  -29.0060   20.4400 C   0  0  0  0  0  0  0  0  0  0  0  0
  -26.0300  -30.8550   21.6690 C   0  0  0  0  0  2  0  0  0  0  0  0
  -26.0860  -29.4470   21.0430 C   0  0  0  0  0  0  0  0  0  0  0  0
  -27.2380  -28.5730   21.0740 C   0  0  0  0  0  3  0  0  0  0  0  0
  -26.0010  -26.8850   19.8750 C   0  0  0  0  0  3  0  0  0  0  0  0
  -24.8710  -27.7340   19.8440 C   0  0  0  0  0  3  0  0  0  0  0  0
  -23.6930  -29.9270   20.4530 C   0  0  0  0  0  2  0  0  0  0  0  0
  -24.7470  -31.2040   22.3580 N   0  0  0  0  0  0  0  0  0  0  0  0
  -23.5910  -32.3620   23.9450 O   0  0  0  0  0  0  0  0  0  0  0  0
  -22.7640  -29.6670   22.7910 C   0  0  0  0  0  0  0  0  0  0  0  0
  -21.4420  -29.4840   22.6250 N   0  0  0  0  0  0  0  0  0  0  0  0
  -23.4090  -29.0770   23.6600 O   0  0  0  0  0  0  0  0  0  0  0  0
  -20.9820  -30.0040   21.8910 H   0  0  0  0  0  0  0  0  0  0  0  0
  -18.0570  -28.2570   23.0340 C   0  0  0  0  0  0  0  0  0  0  0  0
  -20.5970  -28.5750   23.4040 C   0  0  0  0  0  3  0  0  0  0  0  0
  -20.7470  -27.1170   22.9080 C   0  0  0  0  0  2  0  0  0  0  0  0
  -19.6980  -26.7230   21.8640 C   0  0  0  0  0  2  0  0  0  0  0  0
  -18.2830  -26.8800   22.4310 C   0  0  0  0  0  2  0  0  0  0  0  0
  -19.1430  -29.0600   23.4740 C   0  0  0  0  0  0  0  0  0  0  0  0
  -18.8770  -30.3450   23.9900 C   0  0  0  0  0  3  0  0  0  0  0  0
  -17.5560  -30.8260   24.0800 C   0  0  0  0  0  3  0  0  0  0  0  0
  -16.4850  -30.0220   23.6530 C   0  0  0  0  0  3  0  0  0  0  0  0
  -16.7350  -28.7400   23.1350 C   0  0  0  0  0  3  0  0  0  0  0  0
  -25.9600  -32.6760   24.0630 C   0  0  0  0  0  3  0  0  0  0  0  0
  -25.6700  -34.0900   24.3480 N   0  0  0  0  0  0  0  0  0  0  0  0
  -26.0110  -35.1160   23.5560 C   0  0  0  0  0  0  0  0  0  0  0  0
  -26.6650  -34.9700   22.5200 O   0  0  0  0  0  0  0  0  0  0  0  0
  -25.0940  -34.2780   25.1540 H   0  0  0  0  0  0  0  0  0  0  0  0
  -24.2960  -36.9220   23.1860 C   0  0  0  0  0  1  0  0  0  0  0  0
  -25.5540  -36.5280   23.9770 C   0  0  0  0  0  3  0  0  0  0  0  0
  -27.7230  -37.4160   24.7180 C   0  0  0  0  0  1  0  0  0  0  0  0
  -26.5980  -37.5620   23.7980 N   0  0  0  0  0  0  0  0  0  0  0  0
  -26.2070  -38.4930   23.9140 H   0  0  0  0  0  0  0  0  0  0  0  0
  -26.4310  -31.9370   25.3750 C   0  0  1  0  0  0  0  0  0  0  0  0
  -25.3070  -31.7430   26.4210 C   0  0  0  0  0  1  0  0  0  0  0  0
  -27.0100  -30.5430   25.0450 C   0  0  0  0  0  1  0  0  0  0  0  0
  -27.5720  -32.7400   26.0440 C   0  0  0  0  0  1  0  0  0  0  0  0
  1  2  1  6
  1 14  1  0
  1 55  1  0
  3  1  1  0
  4  9  1  0
  5  6  2  0
  6  9  1  0
  6  3  1  0
  8  5  1  0
  8  4  2  0
  9  7  1  0
 10  5  1  0
 10 11  1  1
 12 10  1  0
 13 10  1  0
 15 16  2  0
 15 14  1  0
 17 25  1  0
 18 23  1  0
 19 20  1  0
 19 18  1  0
 21 20  1  0
 21 30  1  0
 21 22  1  0
 23 17  1  0
 23 22  1  0
 24 17  2  0
 25 16  1  0
 25 26  1  0
 27 28  2  0
 28 47  1  0
 29 28  1  0
 29 32  1  0
 30 27  1  0
 30 31  1  0
 31 29  2  0
 32 33  1  0
 33 34  2  0
 35 38  1  0
 35 34  1  0
 36 35  2  0
 37 36  1  0
 37 32  2  0
 38 39  1  0
 39 40  1  0
 40 41  2  0
 42 41  1  0
 42 46  1  0
 43 42  2  0
 44 39  2  0
 44 43  1  0
 45 44  1  0
 47 48  1  0
 48 51  1  0
 48 50  1  0
 49 47  2  0
 52 53  1  0
 52 27  1  0
 54 52  1  0
 56 57  1  0
 56 55  2  0
 58 69  2  0
 59 57  1  0
 59 64  1  0
 60 68  1  0
 60 70  1  0
 61 67  1  0
 61 63  1  0
 62 68  1  0
 63 64  2  0
 63 62  1  0
 65 59  2  0
 66 65  1  0
 66 61  2  0
 67 60  1  0
 68 58  1  0
 70 72  2  0
 71 70  1  0
 73 71  1  0
 74 83  2  0
 74 79  1  0
 75 71  1  0
 75 79  1  0
 76 75  1  0
 77 78  1  0
 77 76  1  0
 78 74  1  0
 79 80  2  0
 80 81  1  0
 82 81  2  0
 83 82  1  0
 84 58  1  0
 84 85  1  0
 84 94  1  0
 85 88  1  0
 86 90  1  0
 86 85  1  0
 87 86  2  0
 90 89  1  0
 92 93  1  0
 92 90  1  0
 92 91  1  0
 94 97  1  1
 94 95  1  0
 96 94  1  0
M  ISO  4  17 100  25 100  56 101  57 101
M  END
>  <TORSDO>  (71) 
F 24

>  <SCORE>  (71) 
-13.421

>  <name>  (71) 
72

>  <ligand_id>  (71) 
72

>  <original_smiles>  (71) 
[H]c1c([H])c([H])c2c(c1[H])C([H])([H])C([H])([H])C([H])([H])C2([H])N([H])C(=O)C1([H])N(C(=O)C([H])(N([H])C(=O)C([H])(N([H])C([H])([H])[H])C([H])([H])[H])C(C([H])([H])[H])(C([H])([H])[H])C([H])([H])[H])C([H])([H])c2c([H])c(OC([H])([H])C([H])([H])[N+]([H])(C([H])([H])c3c(C(F)(F)F)nc([H])n3C([H])([H])[H])C([H])([H])C([H])([H])C([H])([H])N([H])C(=O)N3C([H])([H])C([H])([H])C([H])([H])C([H])(n4nc(-c5c([H])c([H])c(Oc6c([H])c([H])c(F)c([H])c6F)c([H])c5[H])c(C(=O)N([H])[H])c4N([H])[H])C3([H])[H])c([H])c([H])c2C1([H])[H]

>  <smiles>  (71) 
[H]c1c([H])c([H])c2c(c1[H])C([H])([H])C([H])([H])C([H])([H])C2([H])N([H])C(=O)C1([H])N(C(=O)C([H])(N([H])C(=O)C([H])(N([H])C([H])([H])[H])C([H])([H])[H])C(C([H])([H])[H])(C([H])([H])[H])C([H])([H])[H])C([H])([H])c2c([H])c(OC([H])([H])C([H])([H])[N+]([H])(C([H])([H])c3c(C(F)(F)F)nc([H])n3C([H])([H])[H])C([H])([H])C([H])([H])C([H])([H])N([H])C(=O)N3C([H])([H])C([H])([H])C([H])([H])C([H])(n4nc(-c5c([H])c([H])c(Oc6c([H])c([H])c(F)c([H])c6F)c([H])c5[H])c(C(=O)N([H])[H])c4N([H])[H])C3([H])[H])c([H])c([H])c2C1([H])[H]

$$$$
73:0:0
     RDKit          3D

 93101  0  0  1  0  0  0  0  0999 V2000
  -30.5520  -21.1400   21.3790 C   0  0  0  0  0  3  0  0  0  0  0  0
  -29.3810  -21.8250   21.0020 C   0  0  0  0  0  0  0  0  0  0  0  0
  -28.4830  -21.0940   20.1970 C   0  0  0  0  0  0  0  0  0  0  0  0
  -29.8300  -19.2340   20.3410 C   0  0  0  0  0  0  0  0  0  0  0  0
  -30.7770  -19.8550   21.0360 N   0  0  0  0  0  0  0  0  0  0  0  0
  -28.7260  -19.8080   19.8770 N   0  0  0  0  0  0  0  0  0  0  0  0
  -27.3540  -22.1450   18.1760 C   0  0  0  0  0  1  0  0  0  0  0  0
  -27.1930  -21.6620   19.6290 C   0  0  0  0  0  2  0  0  0  0  0  0
  -30.9530  -17.5960   18.7660 C   0  0  0  0  0  1  0  0  0  0  0  0
  -30.0240  -17.7500   19.9840 C   0  0  0  0  0  3  0  0  0  0  0  0
  -30.4110  -16.8690   21.2070 C   0  0  0  0  0  2  0  0  0  0  0  0
  -30.7180  -14.4660   20.4880 C   0  0  0  0  0  0  0  0  0  0  0  0
  -30.3810  -12.3440   19.2830 C   0  0  0  0  0  2  0  0  0  0  0  0
  -29.4320  -12.5870   18.0900 C   0  0  0  0  0  2  0  0  0  0  0  0
  -27.9590  -12.4600   18.5260 C   0  0  0  0  0  2  0  0  0  0  0  0
  -27.6390  -13.2770   19.8070 C   0  0  0  0  0  3  0  0  0  0  0  0
  -28.6990  -13.0130   20.9020 C   0  0  0  0  0  2  0  0  0  0  0  0
  -30.0270  -13.3070   20.3330 N   0  0  0  0  0  0  0  0  0  0  0  0
  -31.8370  -14.6620   20.0080 O   0  0  0  0  0  0  0  0  0  0  0  0
  -30.0330  -15.4520   21.0800 N   0  0  0  0  0  0  0  0  0  0  0  0
  -29.1270  -15.1910   21.4390 H   0  0  0  0  0  0  0  0  0  0  0  0
  -25.2400  -13.8990   20.5080 C   0  0  0  0  0  0  0  0  0  0  0  0
  -24.1660  -13.1320   20.8750 C   0  0  0  0  0  0  0  0  0  0  0  0
  -24.6220  -11.7790   20.8460 C   0  0  0  0  0  0  0  0  0  0  0  0
  -26.2830  -13.0130   20.2840 N   0  0  0  0  0  0  0  0  0  0  0  0
  -25.9120  -11.7320   20.5410 N   0  0  0  0  0  0  0  0  0  0  0  0
  -23.8880  -10.5190   21.0350 C   0  0  0  0  0  0  0  0  0  0  0  0
  -24.3130   -9.5510   21.9700 C   0  0  0  0  0  3  0  0  0  0  0  0
  -23.5790   -8.3560   22.1450 C   0  0  0  0  0  3  0  0  0  0  0  0
  -22.4080   -8.1250   21.3850 C   0  0  0  0  0  0  0  0  0  0  0  0
  -22.0030   -9.0830   20.4390 C   0  0  0  0  0  3  0  0  0  0  0  0
  -22.7380  -10.2680   20.2620 C   0  0  0  0  0  3  0  0  0  0  0  0
  -21.6460   -6.9840   21.4720 O   0  0  0  0  0  0  0  0  0  0  0  0
  -21.5880   -6.2410   22.6250 C   0  0  0  0  0  0  0  0  0  0  0  0
  -21.1560   -6.7980   23.8480 C   0  0  0  0  0  3  0  0  0  0  0  0
  -21.0440   -5.9840   24.9930 C   0  0  0  0  0  3  0  0  0  0  0  0
  -21.3540   -4.6130   24.9140 C   0  0  0  0  0  0  0  0  0  0  0  0
  -21.7810   -4.0560   23.6960 C   0  0  0  0  0  3  0  0  0  0  0  0
  -21.8940   -4.8670   22.5540 C   0  0  0  0  0  0  0  0  0  0  0  0
  -22.2840   -4.3200   21.3770 F   0  0  0  0  0  0  0  0  0  0  0  0
  -21.2410   -3.8300   26.0110 F   0  0  0  0  0  0  0  0  0  0  0  0
  -22.7700  -13.6160   21.1460 C   0  0  0  0  0  0  0  0  0  0  0  0
  -22.0360  -12.9200   22.0070 N   0  0  0  0  0  0  0  0  0  0  0  0
  -22.3390  -14.6470   20.6310 O   0  0  0  0  0  0  0  0  0  0  0  0
  -22.3940  -12.0840   22.4440 H   0  0  0  0  0  0  0  0  0  0  0  0
  -21.1000  -13.2260   22.2320 H   0  0  0  0  0  0  0  0  0  0  0  0
  -25.4070  -15.2690   20.3330 N   0  0  0  0  0  0  0  0  0  0  0  0
  -24.6420  -15.9250   20.4460 H   0  0  0  0  0  0  0  0  0  0  0  0
  -26.2580  -15.7100   20.0020 H   0  0  0  0  0  0  0  0  0  0  0  0
  -29.0660  -23.2180   21.5690 C   0  0  0  0  0  2  0  0  0  0  0  0
  -29.1770  -24.4290   20.6090 C   0  0  0  0  0  2  0  0  0  0  0  0
  -28.4380  -25.6660   21.1540 C   0  0  0  0  0  2  0  0  0  0  0  0
  -28.4620  -26.7560   20.2270 O   0  0  0  0  0  0  0  0  0  0  0  0
  -24.5680  -31.9020   23.2400 C   0  0  0  0  0  0  0  0  0  0  0  0
  -27.2990  -27.4880   20.2100 C   0  0  0  0  0  0  0  0  0  0  0  0
  -23.3990  -30.4790   21.5890 C   0  0  0  0  0  3  0  0  0  0  0  0
  -24.8870  -28.9500   20.1880 C   0  0  0  0  0  0  0  0  0  0  0  0
  -25.9220  -30.8670   21.4190 C   0  0  0  0  0  2  0  0  0  0  0  0
  -26.0310  -29.4960   20.7880 C   0  0  0  0  0  0  0  0  0  0  0  0
  -27.2440  -28.7690   20.7970 C   0  0  0  0  0  3  0  0  0  0  0  0
  -26.1450  -26.9490   19.6050 C   0  0  0  0  0  3  0  0  0  0  0  0
  -24.9380  -27.6740   19.5960 C   0  0  0  0  0  3  0  0  0  0  0  0
  -23.6310  -29.7930   20.2160 C   0  0  0  0  0  2  0  0  0  0  0  0
  -24.6470  -31.0980   22.1410 N   0  0  0  0  0  0  0  0  0  0  0  0
  -23.4770  -32.1640   23.7640 O   0  0  0  0  0  0  0  0  0  0  0  0
  -22.7440  -29.4580   22.5460 C   0  0  0  0  0  0  0  0  0  0  0  0
  -21.4200  -29.2740   22.4070 N   0  0  0  0  0  0  0  0  0  0  0  0
  -23.4210  -28.8350   23.3650 O   0  0  0  0  0  0  0  0  0  0  0  0
  -20.9370  -29.8260   21.7120 H   0  0  0  0  0  0  0  0  0  0  0  0
  -18.0400  -28.0940   22.8980 C   0  0  0  0  0  0  0  0  0  0  0  0
  -20.5990  -28.3340   23.1700 C   0  0  0  0  0  3  0  0  0  0  0  0
  -20.6940  -26.9090   22.5790 C   0  0  0  0  0  2  0  0  0  0  0  0
  -19.5880  -26.6030   21.5620 C   0  0  0  0  0  2  0  0  0  0  0  0
  -18.2070  -26.7500   22.2080 C   0  0  0  0  0  2  0  0  0  0  0  0
  -19.1630  -28.8450   23.3340 C   0  0  0  0  0  0  0  0  0  0  0  0
  -18.9530  -30.1050   23.9360 C   0  0  0  0  0  3  0  0  0  0  0  0
  -17.6510  -30.6130   24.1060 C   0  0  0  0  0  3  0  0  0  0  0  0
  -16.5430  -29.8590   23.6890 C   0  0  0  0  0  3  0  0  0  0  0  0
  -16.7370  -28.6020   23.0890 C   0  0  0  0  0  3  0  0  0  0  0  0
  -25.8400  -32.5430   23.8770 C   0  0  0  0  0  3  0  0  0  0  0  0
  -25.5200  -33.9440   24.1840 N   0  0  0  0  0  0  0  0  0  0  0  0
  -25.8750  -34.9880   23.4260 C   0  0  0  0  0  0  0  0  0  0  0  0
  -26.5750  -34.8750   22.4150 O   0  0  0  0  0  0  0  0  0  0  0  0
  -24.9020  -34.1060   24.9670 H   0  0  0  0  0  0  0  0  0  0  0  0
  -24.1600  -36.7780   22.9970 C   0  0  0  0  0  1  0  0  0  0  0  0
  -25.3720  -36.3800   23.8540 C   0  0  0  0  0  3  0  0  0  0  0  0
  -27.4760  -37.2660   24.7530 C   0  0  0  0  0  1  0  0  0  0  0  0
  -26.4080  -37.4330   23.7710 N   0  0  0  0  0  0  0  0  0  0  0  0
  -25.9960  -38.3530   23.9040 H   0  0  0  0  0  0  0  0  0  0  0  0
  -26.3400  -31.7860   25.1710 C   0  0  1  0  0  0  0  0  0  0  0  0
  -25.2300  -31.5470   26.2230 C   0  0  0  0  0  1  0  0  0  0  0  0
  -26.9350  -30.4100   24.7930 C   0  0  0  0  0  1  0  0  0  0  0  0
  -27.4800  -32.5910   25.8390 C   0  0  0  0  0  1  0  0  0  0  0  0
  2  1  2  0
  2 50  1  0
  3  2  1  0
  4  5  2  0
  5  1  1  0
  6  3  2  0
  6  4  1  0
  7  8  1  0
  8  3  1  0
 10  9  1  0
 10  4  1  0
 10 11  1  0
 12 20  1  0
 13 18  1  0
 14 15  1  0
 14 13  1  0
 16 15  1  0
 16 25  1  0
 16 17  1  0
 18 12  1  0
 18 17  1  0
 19 12  2  0
 20 11  1  0
 20 21  1  0
 22 23  2  0
 23 42  1  0
 24 23  1  0
 24 27  1  0
 25 22  1  0
 25 26  1  0
 26 24  2  0
 27 28  1  0
 28 29  2  0
 30 33  1  0
 30 29  1  0
 31 30  2  0
 32 31  1  0
 32 27  2  0
 33 34  1  0
 34 35  1  0
 35 36  2  0
 37 36  1  0
 37 41  1  0
 38 37  2  0
 39 34  2  0
 39 38  1  0
 40 39  1  0
 42 43  1  0
 43 46  1  0
 43 45  1  0
 44 42  2  0
 47 48  1  0
 47 22  1  0
 49 47  1  0
 51 52  1  0
 51 50  1  0
 53 52  1  0
 54 65  2  0
 55 53  1  0
 55 60  1  0
 56 64  1  0
 56 66  1  0
 57 63  1  0
 57 59  1  0
 58 64  1  0
 59 60  2  0
 59 58  1  0
 61 55  2  0
 62 61  1  0
 62 57  2  0
 63 56  1  0
 64 54  1  0
 66 68  2  0
 67 66  1  0
 69 67  1  0
 70 79  2  0
 70 75  1  0
 71 67  1  0
 71 75  1  0
 72 71  1  0
 73 74  1  0
 73 72  1  0
 74 70  1  0
 75 76  2  0
 76 77  1  0
 78 77  2  0
 79 78  1  0
 80 54  1  0
 80 81  1  0
 80 90  1  0
 81 84  1  0
 82 86  1  0
 82 81  1  0
 83 82  2  0
 86 85  1  0
 88 86  1  0
 88 89  1  0
 88 87  1  0
 90 93  1  1
 90 91  1  0
 92 90  1  0
M  ISO  4  12 100  20 100  52 101  53 101
M  END
>  <TORSDO>  (72) 
F 22

>  <SCORE>  (72) 
-13.474

>  <name>  (72) 
73

>  <ligand_id>  (72) 
73

>  <original_smiles>  (72) 
[H]c1nc(C([H])(C([H])([H])[H])C([H])([H])N([H])C(=O)N2C([H])([H])C([H])([H])C([H])([H])C([H])(n3nc(-c4c([H])c([H])c(Oc5c([H])c([H])c(F)c([H])c5F)c([H])c4[H])c(C(=O)N([H])[H])c3N([H])[H])C2([H])[H])nc(C([H])([H])C([H])([H])[H])c1C([H])([H])C([H])([H])C([H])([H])Oc1c([H])c([H])c2c(c1[H])C([H])([H])N(C(=O)C([H])(N([H])C(=O)C([H])(N([H])C([H])([H])[H])C([H])([H])[H])C(C([H])([H])[H])(C([H])([H])[H])C([H])([H])[H])C([H])(C(=O)N([H])C1([H])c3c([H])c([H])c([H])c([H])c3C([H])([H])C([H])([H])C1([H])[H])C2([H])[H]

>  <smiles>  (72) 
[H]c1nc(C([H])(C([H])([H])[H])C([H])([H])N([H])C(=O)N2C([H])([H])C([H])([H])C([H])([H])C([H])(n3nc(-c4c([H])c([H])c(Oc5c([H])c([H])c(F)c([H])c5F)c([H])c4[H])c(C(=O)N([H])[H])c3N([H])[H])C2([H])[H])nc(C([H])([H])C([H])([H])[H])c1C([H])([H])C([H])([H])C([H])([H])Oc1c([H])c([H])c2c(c1[H])C([H])([H])N(C(=O)C([H])(N([H])C(=O)C([H])(N([H])C([H])([H])[H])C([H])([H])[H])C(C([H])([H])[H])(C([H])([H])[H])C([H])([H])[H])C([H])(C(=O)N([H])C1([H])c3c([H])c([H])c([H])c([H])c3C([H])([H])C([H])([H])C1([H])[H])C2([H])[H]

$$$$
74:0:0
     RDKit          3D

 92100  0  0  1  0  0  0  0  0999 V2000
  -27.1600  -22.8910   19.3010 C   0  0  0  0  0  3  0  0  0  0  0  0
  -28.0510  -22.9950   20.3870 C   0  0  0  0  0  0  0  0  0  0  0  0
  -27.8900  -20.7360   18.8330 C   0  0  0  0  0  0  0  0  0  0  0  0
  -28.7810  -20.7730   19.9480 C   0  0  0  0  0  0  0  0  0  0  0  0
  -27.0640  -21.7740   18.5440 N   0  0  0  0  0  0  0  0  0  0  0  0
  -28.8540  -21.9200   20.7190 N   0  0  0  0  0  0  0  0  0  0  0  0
  -27.5380  -19.8660   16.4230 C   0  0  0  0  0  1  0  0  0  0  0  0
  -27.7510  -19.5230   17.9110 C   0  0  0  0  0  2  0  0  0  0  0  0
  -27.9380  -24.2360   21.3240 C   0  0  0  0  0  2  0  0  0  0  0  0
  -28.7290  -25.5890   21.0920 C   0  0  0  0  0  2  0  0  0  0  0  0
  -28.4150  -26.5490   20.0400 O   0  0  0  0  0  0  0  0  0  0  0  0
  -24.5920  -31.8360   23.1630 C   0  0  0  0  0  0  0  0  0  0  0  0
  -27.2800  -27.3410   20.1330 C   0  0  0  0  0  0  0  0  0  0  0  0
  -23.4180  -30.4330   21.5040 C   0  0  0  0  0  3  0  0  0  0  0  0
  -24.8980  -28.8980   20.0960 C   0  0  0  0  0  0  0  0  0  0  0  0
  -25.9510  -30.7820   21.3500 C   0  0  0  0  0  2  0  0  0  0  0  0
  -26.0500  -29.4030   20.7140 C   0  0  0  0  0  0  0  0  0  0  0  0
  -27.2460  -28.6330   20.7310 C   0  0  0  0  0  3  0  0  0  0  0  0
  -26.1150  -26.8740   19.4960 C   0  0  0  0  0  3  0  0  0  0  0  0
  -24.9280  -27.6320   19.4860 C   0  0  0  0  0  3  0  0  0  0  0  0
  -23.6550  -29.7620   20.1250 C   0  0  0  0  0  2  0  0  0  0  0  0
  -24.6700  -31.0360   22.0620 N   0  0  0  0  0  0  0  0  0  0  0  0
  -23.5010  -32.1010   23.6900 O   0  0  0  0  0  0  0  0  0  0  0  0
  -22.7580  -29.4030   22.4540 C   0  0  0  0  0  0  0  0  0  0  0  0
  -21.4300  -29.2400   22.3360 N   0  0  0  0  0  0  0  0  0  0  0  0
  -23.4400  -28.7540   23.2510 O   0  0  0  0  0  0  0  0  0  0  0  0
  -20.9370  -29.8190   21.6700 H   0  0  0  0  0  0  0  0  0  0  0  0
  -18.0420  -28.0900   22.8620 C   0  0  0  0  0  0  0  0  0  0  0  0
  -20.6080  -28.2970   23.0980 C   0  0  0  0  0  3  0  0  0  0  0  0
  -20.6750  -26.8770   22.4890 C   0  0  0  0  0  2  0  0  0  0  0  0
  -19.5530  -26.5980   21.4850 C   0  0  0  0  0  2  0  0  0  0  0  0
  -18.1840  -26.7530   22.1530 C   0  0  0  0  0  2  0  0  0  0  0  0
  -19.1810  -28.8220   23.2910 C   0  0  0  0  0  0  0  0  0  0  0  0
  -18.9940  -30.0760   23.9130 C   0  0  0  0  0  3  0  0  0  0  0  0
  -17.7010  -30.5960   24.1090 C   0  0  0  0  0  3  0  0  0  0  0  0
  -16.5760  -29.8580   23.6970 C   0  0  0  0  0  3  0  0  0  0  0  0
  -16.7490  -28.6080   23.0790 C   0  0  0  0  0  3  0  0  0  0  0  0
  -25.8630  -32.4780   23.7990 C   0  0  0  0  0  3  0  0  0  0  0  0
  -25.5310  -33.8630   24.1580 N   0  0  0  0  0  0  0  0  0  0  0  0
  -25.8410  -34.9360   23.4200 C   0  0  0  0  0  0  0  0  0  0  0  0
  -26.5060  -34.8640   22.3830 O   0  0  0  0  0  0  0  0  0  0  0  0
  -24.9360  -33.9910   24.9630 H   0  0  0  0  0  0  0  0  0  0  0  0
  -24.0750  -36.7000   23.1070 C   0  0  0  0  0  1  0  0  0  0  0  0
  -25.3290  -36.3050   23.9040 C   0  0  0  0  0  3  0  0  0  0  0  0
  -27.4510  -37.2170   24.7370 C   0  0  0  0  0  1  0  0  0  0  0  0
  -26.3410  -37.3810   23.8040 N   0  0  0  0  0  0  0  0  0  0  0  0
  -25.9180  -38.2910   23.9690 H   0  0  0  0  0  0  0  0  0  0  0  0
  -26.3910  -31.6880   25.0600 C   0  0  1  0  0  0  0  0  0  0  0  0
  -25.3020  -31.4080   26.1220 C   0  0  0  0  0  1  0  0  0  0  0  0
  -26.9970  -30.3290   24.6390 C   0  0  0  0  0  1  0  0  0  0  0  0
  -27.5290  -32.4840   25.7380 C   0  0  0  0  0  1  0  0  0  0  0  0
  -29.7960  -19.6130   20.2200 C   0  0  0  0  0  2  0  0  0  0  0  0
  -29.3160  -18.1530   20.6210 C   0  0  0  0  0  2  0  0  0  0  0  0
  -30.4250  -17.0430   20.4090 C   0  0  0  0  0  2  0  0  0  0  0  0
  -30.7500  -14.5810   20.1690 C   0  0  0  0  0  0  0  0  0  0  0  0
  -30.3970  -12.4520   18.9270 C   0  0  0  0  0  2  0  0  0  0  0  0
  -29.3900  -12.6730   17.7770 C   0  0  0  0  0  2  0  0  0  0  0  0
  -27.9440  -12.4910   18.2800 C   0  0  0  0  0  2  0  0  0  0  0  0
  -27.6700  -13.2890   19.5840 C   0  0  0  0  0  3  0  0  0  0  0  0
  -28.7770  -13.0310   20.6210 C   0  0  0  0  0  2  0  0  0  0  0  0
  -30.0650  -13.4030   20.0120 N   0  0  0  0  0  0  0  0  0  0  0  0
  -31.8080  -14.7720   19.5550 O   0  0  0  0  0  0  0  0  0  0  0  0
  -29.9430  -15.5200   22.2780 C   0  0  0  0  0  1  0  0  0  0  0  0
  -30.1320  -15.6270   20.8220 N   0  0  0  0  0  0  0  0  0  0  0  0
  -25.3180  -13.8760   20.4480 C   0  0  0  0  0  0  0  0  0  0  0  0
  -24.2760  -13.0910   20.8630 C   0  0  0  0  0  0  0  0  0  0  0  0
  -24.7360  -11.7430   20.7740 C   0  0  0  0  0  0  0  0  0  0  0  0
  -26.3470  -13.0010   20.1330 N   0  0  0  0  0  0  0  0  0  0  0  0
  -26.0050  -11.7120   20.3900 N   0  0  0  0  0  0  0  0  0  0  0  0
  -24.0210  -10.4770   20.9830 C   0  0  0  0  0  0  0  0  0  0  0  0
  -24.4820   -9.5100   21.9050 C   0  0  0  0  0  3  0  0  0  0  0  0
  -23.7700   -8.3080   22.1000 C   0  0  0  0  0  3  0  0  0  0  0  0
  -22.5820   -8.0610   21.3700 C   0  0  0  0  0  0  0  0  0  0  0  0
  -22.1400   -9.0160   20.4360 C   0  0  0  0  0  3  0  0  0  0  0  0
  -22.8530  -10.2100   20.2420 C   0  0  0  0  0  3  0  0  0  0  0  0
  -21.8380   -6.9110   21.4730 O   0  0  0  0  0  0  0  0  0  0  0  0
  -21.7830   -6.1930   22.6380 C   0  0  0  0  0  0  0  0  0  0  0  0
  -21.3470   -6.7700   23.8520 C   0  0  0  0  0  3  0  0  0  0  0  0
  -21.2420   -5.9760   25.0100 C   0  0  0  0  0  3  0  0  0  0  0  0
  -21.5590   -4.6060   24.9580 C   0  0  0  0  0  0  0  0  0  0  0  0
  -21.9880   -4.0280   23.7510 C   0  0  0  0  0  3  0  0  0  0  0  0
  -22.0940   -4.8180   22.5920 C   0  0  0  0  0  0  0  0  0  0  0  0
  -22.4880   -4.2530   21.4260 F   0  0  0  0  0  0  0  0  0  0  0  0
  -21.4480   -3.8410   26.0700 F   0  0  0  0  0  0  0  0  0  0  0  0
  -22.8970  -13.5610   21.2290 C   0  0  0  0  0  0  0  0  0  0  0  0
  -22.2320  -12.8590   22.1390 N   0  0  0  0  0  0  0  0  0  0  0  0
  -22.4180  -14.5820   20.7380 O   0  0  0  0  0  0  0  0  0  0  0  0
  -22.6340  -12.0320   22.5580 H   0  0  0  0  0  0  0  0  0  0  0  0
  -21.3130  -13.1580   22.4260 H   0  0  0  0  0  0  0  0  0  0  0  0
  -25.4700  -15.2500   20.2940 N   0  0  0  0  0  0  0  0  0  0  0  0
  -24.7120  -15.8980   20.4710 H   0  0  0  0  0  0  0  0  0  0  0  0
  -26.3060  -15.7010   19.9450 H   0  0  0  0  0  0  0  0  0  0  0  0
  1  2  1  0
  2  6  2  0
  2  9  1  0
  3  4  2  0
  4 52  1  0
  4  6  1  0
  5  3  1  0
  5  1  2  0
  7  8  1  0
  8  3  1  0
 10  9  1  0
 11 13  1  0
 11 10  1  0
 12 23  2  0
 13 18  1  0
 14 22  1  0
 14 24  1  0
 15 21  1  0
 15 17  1  0
 16 22  1  0
 17 18  2  0
 17 16  1  0
 19 13  2  0
 20 19  1  0
 20 15  2  0
 21 14  1  0
 22 12  1  0
 24 26  2  0
 25 24  1  0
 27 25  1  0
 28 37  2  0
 28 33  1  0
 29 25  1  0
 29 33  1  0
 30 29  1  0
 31 32  1  0
 31 30  1  0
 32 28  1  0
 33 34  2  0
 34 35  1  0
 36 35  2  0
 37 36  1  0
 38 12  1  0
 38 39  1  0
 38 48  1  0
 39 42  1  0
 40 44  1  0
 40 39  1  0
 41 40  2  0
 44 43  1  0
 46 44  1  0
 46 47  1  0
 46 45  1  0
 48 51  1  1
 48 49  1  0
 50 48  1  0
 52 53  1  0
 54 53  1  0
 54 64  1  0
 55 64  1  0
 56 61  1  0
 57 58  1  0
 57 56  1  0
 59 58  1  0
 59 68  1  0
 59 60  1  0
 61 55  1  0
 61 60  1  0
 62 55  2  0
 64 63  1  0
 65 66  2  0
 66 85  1  0
 67 66  1  0
 67 70  1  0
 68 69  1  0
 68 65  1  0
 69 67  2  0
 70 71  1  0
 71 72  2  0
 73 76  1  0
 73 72  1  0
 74 73  2  0
 75 74  1  0
 75 70  2  0
 76 77  1  0
 77 78  1  0
 78 79  2  0
 80 79  1  0
 80 84  1  0
 81 80  2  0
 82 77  2  0
 82 81  1  0
 83 82  1  0
 85 86  1  0
 86 89  1  0
 86 88  1  0
 87 85  2  0
 90 65  1  0
 90 91  1  0
 92 90  1  0
M  ISO  4  10 101  11 101  55 100  64 100
M  END
>  <TORSDO>  (73) 
F 22

>  <SCORE>  (73) 
-12.175

>  <name>  (73) 
74

>  <ligand_id>  (73) 
74

>  <original_smiles>  (73) 
[H]c1nc(C([H])([H])C([H])([H])[H])c(C([H])([H])C([H])([H])C([H])([H])N(C(=O)N2C([H])([H])C([H])([H])C([H])([H])C([H])(n3nc(-c4c([H])c([H])c(Oc5c([H])c([H])c(F)c([H])c5F)c([H])c4[H])c(C(=O)N([H])[H])c3N([H])[H])C2([H])[H])C([H])([H])[H])nc1C([H])([H])C([H])([H])Oc1c([H])c([H])c2c(c1[H])C([H])([H])N(C(=O)C([H])(N([H])C(=O)C([H])(N([H])C([H])([H])[H])C([H])([H])[H])C(C([H])([H])[H])(C([H])([H])[H])C([H])([H])[H])C([H])(C(=O)N([H])C1([H])c3c([H])c([H])c([H])c([H])c3C([H])([H])C([H])([H])C1([H])[H])C2([H])[H]

>  <smiles>  (73) 
[H]c1nc(C([H])([H])C([H])([H])[H])c(C([H])([H])C([H])([H])C([H])([H])N(C(=O)N2C([H])([H])C([H])([H])C([H])([H])C([H])(n3nc(-c4c([H])c([H])c(Oc5c([H])c([H])c(F)c([H])c5F)c([H])c4[H])c(C(=O)N([H])[H])c3N([H])[H])C2([H])[H])C([H])([H])[H])nc1C([H])([H])C([H])([H])Oc1c([H])c([H])c2c(c1[H])C([H])([H])N(C(=O)C([H])(N([H])C(=O)C([H])(N([H])C([H])([H])[H])C([H])([H])[H])C(C([H])([H])[H])(C([H])([H])[H])C([H])([H])[H])C([H])(C(=O)N([H])C1([H])c3c([H])c([H])c([H])c([H])c3C([H])([H])C([H])([H])C1([H])[H])C2([H])[H]

$$$$
75:0:0
     RDKit          3D

 91 99  0  0  1  0  0  0  0  0999 V2000
  -30.6340  -22.1140   20.2780 C   0  0  0  0  0  3  0  0  0  0  0  0
  -30.0960  -20.8510   20.3690 C   0  0  0  0  0  0  0  0  0  0  0  0
  -28.6980  -21.1010   20.2120 C   0  0  0  0  0  0  0  0  0  0  0  0
  -28.4220  -22.3980   20.0810 N   0  0  0  0  0  0  0  0  0  0  0  0
  -29.6120  -23.0410   20.1340 N   0  0  0  0  0  0  0  0  0  0  0  0
  -27.1030  -19.7070   18.8480 C   0  0  0  0  0  1  0  0  0  0  0  0
  -27.5550  -20.1210   20.2540 C   0  0  0  0  0  2  0  0  0  0  0  0
  -30.8270  -19.5470   20.7220 C   0  0  0  0  0  2  0  0  0  0  0  0
  -30.3390  -18.2040   20.0900 C   0  0  0  0  0  2  0  0  0  0  0  0
  -31.1340  -16.9830   20.6580 C   0  0  0  0  0  2  0  0  0  0  0  0
  -31.1050  -14.5640   19.9520 C   0  0  0  0  0  0  0  0  0  0  0  0
  -30.7000  -12.3320   18.9700 C   0  0  0  0  0  2  0  0  0  0  0  0
  -29.7340  -12.4600   17.7760 C   0  0  0  0  0  2  0  0  0  0  0  0
  -28.2700  -12.3910   18.2500 C   0  0  0  0  0  2  0  0  0  0  0  0
  -27.9860  -13.3280   19.4550 C   0  0  0  0  0  3  0  0  0  0  0  0
  -29.0680  -13.1870   20.5490 C   0  0  0  0  0  2  0  0  0  0  0  0
  -30.3780  -13.4110   19.9200 N   0  0  0  0  0  0  0  0  0  0  0  0
  -32.2190  -14.6510   19.4310 O   0  0  0  0  0  0  0  0  0  0  0  0
  -30.5040  -15.6510   20.4840 N   0  0  0  0  0  0  0  0  0  0  0  0
  -29.5810  -15.5170   20.8690 H   0  0  0  0  0  0  0  0  0  0  0  0
  -25.6640  -14.0500   20.2920 C   0  0  0  0  0  0  0  0  0  0  0  0
  -24.5670  -13.3330   20.6860 C   0  0  0  0  0  0  0  0  0  0  0  0
  -24.9420  -11.9570   20.5970 C   0  0  0  0  0  0  0  0  0  0  0  0
  -26.6420  -13.1170   19.9900 N   0  0  0  0  0  0  0  0  0  0  0  0
  -26.2140  -11.8510   20.2290 N   0  0  0  0  0  0  0  0  0  0  0  0
  -24.1470  -10.7360   20.7840 C   0  0  0  0  0  0  0  0  0  0  0  0
  -24.5400   -9.7310   21.6960 C   0  0  0  0  0  3  0  0  0  0  0  0
  -23.7510   -8.5740   21.8710 C   0  0  0  0  0  3  0  0  0  0  0  0
  -22.5530   -8.4140   21.1340 C   0  0  0  0  0  0  0  0  0  0  0  0
  -22.1770   -9.4060   20.2110 C   0  0  0  0  0  3  0  0  0  0  0  0
  -22.9680  -10.5540   20.0340 C   0  0  0  0  0  3  0  0  0  0  0  0
  -21.7350   -7.3120   21.2200 O   0  0  0  0  0  0  0  0  0  0  0  0
  -21.6340   -6.5800   22.3760 C   0  0  0  0  0  0  0  0  0  0  0  0
  -21.2210   -7.1630   23.5940 C   0  0  0  0  0  3  0  0  0  0  0  0
  -21.0620   -6.3610   24.7410 C   0  0  0  0  0  3  0  0  0  0  0  0
  -21.3080   -4.9760   24.6720 C   0  0  0  0  0  0  0  0  0  0  0  0
  -21.7150   -4.3930   23.4600 C   0  0  0  0  0  3  0  0  0  0  0  0
  -21.8750   -5.1930   22.3140 C   0  0  0  0  0  0  0  0  0  0  0  0
  -22.2460   -4.6220   21.1430 F   0  0  0  0  0  0  0  0  0  0  0  0
  -21.1490   -4.2040   25.7720 F   0  0  0  0  0  0  0  0  0  0  0  0
  -23.2140  -13.8850   21.0350 C   0  0  0  0  0  0  0  0  0  0  0  0
  -22.4870  -13.2130   21.9200 N   0  0  0  0  0  0  0  0  0  0  0  0
  -22.8160  -14.9460   20.5560 O   0  0  0  0  0  0  0  0  0  0  0  0
  -22.8210  -12.3530   22.3290 H   0  0  0  0  0  0  0  0  0  0  0  0
  -21.5780  -13.5620   22.1910 H   0  0  0  0  0  0  0  0  0  0  0  0
  -25.9080  -15.4130   20.1440 N   0  0  0  0  0  0  0  0  0  0  0  0
  -25.1940  -16.1150   20.3090 H   0  0  0  0  0  0  0  0  0  0  0  0
  -26.7710  -15.8020   19.7890 H   0  0  0  0  0  0  0  0  0  0  0  0
  -29.6880  -24.5160   20.2190 C   0  0  0  0  0  2  0  0  0  0  0  0
  -28.5040  -25.3130   19.6000 C   0  0  0  0  0  2  0  0  0  0  0  0
  -28.6050  -26.7510   19.7800 O   0  0  0  0  0  0  0  0  0  0  0  0
  -24.5160  -31.6430   23.0010 C   0  0  0  0  0  0  0  0  0  0  0  0
  -27.4130  -27.4640   19.7600 C   0  0  0  0  0  0  0  0  0  0  0  0
  -23.4040  -30.2660   21.2780 C   0  0  0  0  0  3  0  0  0  0  0  0
  -24.9500  -28.8780   19.8000 C   0  0  0  0  0  0  0  0  0  0  0  0
  -25.9140  -30.7540   21.1350 C   0  0  0  0  0  2  0  0  0  0  0  0
  -26.0780  -29.4210   20.4280 C   0  0  0  0  0  0  0  0  0  0  0  0
  -27.3140  -28.7260   20.3990 C   0  0  0  0  0  3  0  0  0  0  0  0
  -26.2630  -26.9490   19.1170 C   0  0  0  0  0  3  0  0  0  0  0  0
  -25.0400  -27.6440   19.1360 C   0  0  0  0  0  3  0  0  0  0  0  0
  -23.6650  -29.6710   19.8690 C   0  0  0  0  0  2  0  0  0  0  0  0
  -24.6280  -30.9010   21.8640 N   0  0  0  0  0  0  0  0  0  0  0  0
  -23.4150  -31.8330   23.5380 O   0  0  0  0  0  0  0  0  0  0  0  0
  -22.7940  -29.1650   22.1780 C   0  0  0  0  0  0  0  0  0  0  0  0
  -21.4700  -28.9640   22.0660 N   0  0  0  0  0  0  0  0  0  0  0  0
  -23.5070  -28.5010   22.9320 O   0  0  0  0  0  0  0  0  0  0  0  0
  -20.9520  -29.5590   21.4350 H   0  0  0  0  0  0  0  0  0  0  0  0
  -18.1230  -27.7160   22.6130 C   0  0  0  0  0  0  0  0  0  0  0  0
  -20.6900  -27.9560   22.7870 C   0  0  0  0  0  3  0  0  0  0  0  0
  -20.7650  -26.5830   22.0800 C   0  0  0  0  0  2  0  0  0  0  0  0
  -19.6160  -26.3490   21.0940 C   0  0  0  0  0  2  0  0  0  0  0  0
  -18.2670  -26.4320   21.8120 C   0  0  0  0  0  2  0  0  0  0  0  0
  -19.2610  -28.4390   23.0570 C   0  0  0  0  0  0  0  0  0  0  0  0
  -19.0700  -29.6440   23.7690 C   0  0  0  0  0  3  0  0  0  0  0  0
  -17.7760  -30.1250   24.0370 C   0  0  0  0  0  3  0  0  0  0  0  0
  -16.6530  -29.3960   23.6080 C   0  0  0  0  0  3  0  0  0  0  0  0
  -16.8270  -28.1930   22.9020 C   0  0  0  0  0  3  0  0  0  0  0  0
  -25.7600  -32.3080   23.6700 C   0  0  0  0  0  3  0  0  0  0  0  0
  -25.3890  -33.6850   24.0230 N   0  0  0  0  0  0  0  0  0  0  0  0
  -25.6920  -34.7660   23.2910 C   0  0  0  0  0  0  0  0  0  0  0  0
  -26.3840  -34.7100   22.2710 O   0  0  0  0  0  0  0  0  0  0  0  0
  -24.7740  -33.7990   24.8150 H   0  0  0  0  0  0  0  0  0  0  0  0
  -23.8880  -36.4850   22.9510 C   0  0  0  0  0  1  0  0  0  0  0  0
  -25.1410  -36.1230   23.7670 C   0  0  0  0  0  3  0  0  0  0  0  0
  -27.2240  -37.0900   24.6350 C   0  0  0  0  0  1  0  0  0  0  0  0
  -26.1260  -37.2220   23.6800 N   0  0  0  0  0  0  0  0  0  0  0  0
  -25.6760  -38.1190   23.8360 H   0  0  0  0  0  0  0  0  0  0  0  0
  -26.2770  -31.5260   24.9390 C   0  0  1  0  0  0  0  0  0  0  0  0
  -25.1700  -31.2200   25.9750 C   0  0  0  0  0  1  0  0  0  0  0  0
  -26.9200  -30.1810   24.5250 C   0  0  0  0  0  1  0  0  0  0  0  0
  -27.3790  -32.3470   25.6470 C   0  0  0  0  0  1  0  0  0  0  0  0
  1  2  2  0
  2  8  1  0
  3  7  1  0
  3  2  1  0
  4  5  1  0
  4  3  2  0
  5 49  1  0
  5  1  1  0
  6  7  1  0
  9 10  1  0
  9  8  1  0
 11 19  1  0
 12 17  1  0
 13 14  1  0
 13 12  1  0
 15 14  1  0
 15 24  1  0
 15 16  1  0
 17 11  1  0
 17 16  1  0
 18 11  2  0
 19 10  1  0
 19 20  1  0
 21 22  2  0
 22 41  1  0
 23 22  1  0
 23 26  1  0
 24 25  1  0
 24 21  1  0
 25 23  2  0
 26 27  1  0
 27 28  2  0
 29 32  1  0
 29 28  1  0
 30 29  2  0
 31 30  1  0
 31 26  2  0
 32 33  1  0
 33 34  1  0
 34 35  2  0
 36 35  1  0
 36 40  1  0
 37 36  2  0
 38 33  2  0
 38 37  1  0
 39 38  1  0
 41 42  1  0
 42 45  1  0
 42 44  1  0
 43 41  2  0
 46 21  1  0
 46 47  1  0
 48 46  1  0
 50 51  1  0
 50 49  1  0
 52 63  2  0
 53 51  1  0
 53 58  1  0
 54 62  1  0
 54 64  1  0
 55 61  1  0
 55 57  1  0
 56 62  1  0
 57 56  1  0
 58 57  2  0
 59 60  1  0
 59 53  2  0
 60 55  2  0
 61 54  1  0
 62 52  1  0
 64 66  2  0
 65 64  1  0
 67 65  1  0
 68 77  2  0
 68 73  1  0
 69 65  1  0
 69 73  1  0
 70 69  1  0
 71 72  1  0
 71 70  1  0
 72 68  1  0
 73 74  2  0
 74 75  1  0
 76 75  2  0
 77 76  1  0
 78 52  1  0
 78 79  1  0
 78 88  1  0
 79 82  1  0
 80 84  1  0
 80 79  1  0
 81 80  2  0
 84 83  1  0
 86 84  1  0
 86 87  1  0
 86 85  1  0
 88 91  1  1
 88 89  1  0
 90 88  1  0
M  ISO  4  11 100  19 100  50 101  51 101
M  END
>  <TORSDO>  (74) 
F 22

>  <SCORE>  (74) 
-12.232

>  <name>  (74) 
75

>  <ligand_id>  (74) 
75

>  <original_smiles>  (74) 
[H]c1c([H])c([H])c2c(c1[H])C([H])([H])C([H])([H])C([H])([H])C2([H])N([H])C(=O)C1([H])N(C(=O)C([H])(N([H])C(=O)C([H])(N([H])C([H])([H])[H])C([H])([H])[H])C(C([H])([H])[H])(C([H])([H])[H])C([H])([H])[H])C([H])([H])c2c([H])c(OC([H])([H])C([H])([H])n3nc(C([H])([H])C([H])([H])[H])c(C([H])([H])C([H])([H])C([H])([H])N([H])C(=O)N4C([H])([H])C([H])([H])C([H])([H])C([H])(n5nc(-c6c([H])c([H])c(Oc7c([H])c([H])c(F)c([H])c7F)c([H])c6[H])c(C(=O)N([H])[H])c5N([H])[H])C4([H])[H])c3[H])c([H])c([H])c2C1([H])[H]

>  <smiles>  (74) 
[H]c1c([H])c([H])c2c(c1[H])C([H])([H])C([H])([H])C([H])([H])C2([H])N([H])C(=O)C1([H])N(C(=O)C([H])(N([H])C(=O)C([H])(N([H])C([H])([H])[H])C([H])([H])[H])C(C([H])([H])[H])(C([H])([H])[H])C([H])([H])[H])C([H])([H])c2c([H])c(OC([H])([H])C([H])([H])n3nc(C([H])([H])C([H])([H])[H])c(C([H])([H])C([H])([H])C([H])([H])N([H])C(=O)N4C([H])([H])C([H])([H])C([H])([H])C([H])(n5nc(-c6c([H])c([H])c(Oc7c([H])c([H])c(F)c([H])c7F)c([H])c6[H])c(C(=O)N([H])[H])c5N([H])[H])C4([H])[H])c3[H])c([H])c([H])c2C1([H])[H]

$$$$
76:0:0
     RDKit          3D

 96104  0  0  1  0  0  0  0  0999 V2000
  -28.0080  -20.4060   18.6640 C   0  0  0  0  0  3  0  0  0  0  0  0
  -27.5240  -21.7270   18.6810 C   0  0  0  0  0  0  0  0  0  0  0  0
  -29.0800  -20.0680   17.8190 C   0  0  0  0  0  0  0  0  0  0  0  0
  -28.1530  -22.6830   17.8490 C   0  0  0  0  0  0  0  0  0  0  0  0
  -29.6880  -21.1040   17.0720 C   0  0  0  0  0  0  0  0  0  0  0  0
  -26.3070  -22.0570   19.5310 C   0  0  0  0  0  1  0  0  0  0  0  0
  -29.2240  -22.3730   17.0900 N   0  0  0  0  0  0  0  0  0  0  0  0
  -30.4080  -20.5830   14.6930 C   0  0  0  0  0  1  0  0  0  0  0  0
  -30.8610  -20.8720   16.1300 C   0  0  0  0  0  2  0  0  0  0  0  0
  -29.4290  -18.5920   17.6380 C   0  0  0  0  0  2  0  0  0  0  0  0
  -30.0980  -17.8970   18.8420 C   0  0  0  0  0  2  0  0  0  0  0  0
  -29.9300  -16.3610   18.7120 C   0  0  0  0  0  2  0  0  0  0  0  0
  -31.0840  -14.3780   19.4620 C   0  0  0  0  0  0  0  0  0  0  0  0
  -30.5500  -12.2600   18.3180 C   0  0  0  0  0  2  0  0  0  0  0  0
  -29.4780  -12.5470   17.2470 C   0  0  0  0  0  2  0  0  0  0  0  0
  -28.0610  -12.4610   17.8520 C   0  0  0  0  0  2  0  0  0  0  0  0
  -27.9220  -13.2710   19.1680 C   0  0  0  0  0  3  0  0  0  0  0  0
  -29.0970  -12.9730   20.1250 C   0  0  0  0  0  2  0  0  0  0  0  0
  -30.3510  -13.2330   19.4000 N   0  0  0  0  0  0  0  0  0  0  0  0
  -32.1810  -14.4990   18.9060 O   0  0  0  0  0  0  0  0  0  0  0  0
  -30.3850  -15.4880   19.8270 N   0  0  0  0  0  0  0  0  0  0  0  0
  -25.6680  -13.9910   20.1770 C   0  0  0  0  0  0  0  0  0  0  0  0
  -24.6070  -13.2670   20.6500 C   0  0  0  0  0  0  0  0  0  0  0  0
  -24.9860  -11.8940   20.5290 C   0  0  0  0  0  0  0  0  0  0  0  0
  -26.6250  -13.0610   19.8020 N   0  0  0  0  0  0  0  0  0  0  0  0
  -26.2240  -11.7940   20.0670 N   0  0  0  0  0  0  0  0  0  0  0  0
  -24.2180  -10.6670   20.7680 C   0  0  0  0  0  0  0  0  0  0  0  0
  -24.6720   -9.6790   21.6700 C   0  0  0  0  0  3  0  0  0  0  0  0
  -23.9070   -8.5160   21.8990 C   0  0  0  0  0  3  0  0  0  0  0  0
  -22.6760   -8.3330   21.2240 C   0  0  0  0  0  0  0  0  0  0  0  0
  -22.2420   -9.3090   20.3090 C   0  0  0  0  0  3  0  0  0  0  0  0
  -23.0080  -10.4630   20.0790 C   0  0  0  0  0  3  0  0  0  0  0  0
  -21.8800   -7.2210   21.3640 O   0  0  0  0  0  0  0  0  0  0  0  0
  -21.8240   -6.5180   22.5400 C   0  0  0  0  0  0  0  0  0  0  0  0
  -21.4520   -7.1310   23.7580 C   0  0  0  0  0  3  0  0  0  0  0  0
  -21.3420   -6.3580   24.9300 C   0  0  0  0  0  3  0  0  0  0  0  0
  -21.5910   -4.9720   24.8890 C   0  0  0  0  0  0  0  0  0  0  0  0
  -21.9550   -4.3600   23.6780 C   0  0  0  0  0  3  0  0  0  0  0  0
  -22.0660   -5.1290   22.5060 C   0  0  0  0  0  0  0  0  0  0  0  0
  -22.3970   -4.5300   21.3370 F   0  0  0  0  0  0  0  0  0  0  0  0
  -21.4780   -4.2290   26.0130 F   0  0  0  0  0  0  0  0  0  0  0  0
  -23.2840  -13.8100   21.1040 C   0  0  0  0  0  0  0  0  0  0  0  0
  -22.6500  -13.1450   22.0640 N   0  0  0  0  0  0  0  0  0  0  0  0
  -22.8260  -14.8550   20.6410 O   0  0  0  0  0  0  0  0  0  0  0  0
  -23.0430  -12.3000   22.4520 H   0  0  0  0  0  0  0  0  0  0  0  0
  -21.7670  -13.4870   22.4160 H   0  0  0  0  0  0  0  0  0  0  0  0
  -25.8900  -15.3550   20.0200 N   0  0  0  0  0  0  0  0  0  0  0  0
  -25.1920  -16.0470   20.2680 H   0  0  0  0  0  0  0  0  0  0  0  0
  -26.7330  -15.7620   19.6380 H   0  0  0  0  0  0  0  0  0  0  0  0
  -28.9980  -16.4010   21.6910 C   0  0  0  0  0  1  0  0  0  0  0  0
  -31.1750  -15.2640   22.2460 C   0  0  0  0  0  1  0  0  0  0  0  0
  -30.4240  -16.0950   21.1810 C   0  0  0  0  0  3  0  0  0  0  0  0
  -27.5920  -24.0840   17.6250 C   0  0  0  0  0  2  0  0  0  0  0  0
  -28.4650  -25.2470   18.1390 C   0  0  0  0  0  2  0  0  0  0  0  0
  -28.5120  -25.3990   19.6710 C   0  0  0  0  0  2  0  0  0  0  0  0
  -28.4920  -26.7760   20.0630 O   0  0  0  0  0  0  0  0  0  0  0  0
  -24.6640  -31.8860   23.1950 C   0  0  0  0  0  0  0  0  0  0  0  0
  -27.2870  -27.4530   20.0800 C   0  0  0  0  0  0  0  0  0  0  0  0
  -23.4350  -30.4650   21.5860 C   0  0  0  0  0  3  0  0  0  0  0  0
  -24.8720  -28.9300   20.1470 C   0  0  0  0  0  0  0  0  0  0  0  0
  -25.9550  -30.8430   21.3360 C   0  0  0  0  0  2  0  0  0  0  0  0
  -26.0380  -29.4710   20.7010 C   0  0  0  0  0  0  0  0  0  0  0  0
  -27.2470  -28.7400   20.6620 C   0  0  0  0  0  3  0  0  0  0  0  0
  -26.0920  -26.9200   19.5370 C   0  0  0  0  0  3  0  0  0  0  0  0
  -24.8930  -27.6510   19.5670 C   0  0  0  0  0  3  0  0  0  0  0  0
  -23.6230  -29.7780   20.2090 C   0  0  0  0  0  2  0  0  0  0  0  0
  -24.7040  -31.0790   22.0970 N   0  0  0  0  0  0  0  0  0  0  0  0
  -23.5900  -32.1540   23.7530 O   0  0  0  0  0  0  0  0  0  0  0  0
  -22.8120  -29.4430   22.5650 C   0  0  0  0  0  0  0  0  0  0  0  0
  -21.5010  -29.1940   22.4110 N   0  0  0  0  0  0  0  0  0  0  0  0
  -23.5040  -28.8770   23.4140 O   0  0  0  0  0  0  0  0  0  0  0  0
  -21.0020  -29.7040   21.6960 H   0  0  0  0  0  0  0  0  0  0  0  0
  -18.1910  -27.8040   22.8140 C   0  0  0  0  0  0  0  0  0  0  0  0
  -20.7100  -28.2440   23.1930 C   0  0  0  0  0  3  0  0  0  0  0  0
  -20.9330  -26.7950   22.6990 C   0  0  0  0  0  2  0  0  0  0  0  0
  -19.9060  -26.3500   21.6540 C   0  0  0  0  0  2  0  0  0  0  0  0
  -18.4880  -26.4370   22.2230 C   0  0  0  0  0  2  0  0  0  0  0  0
  -19.2360  -28.6590   23.2550 C   0  0  0  0  0  0  0  0  0  0  0  0
  -18.9080  -29.9350   23.7640 C   0  0  0  0  0  3  0  0  0  0  0  0
  -17.5680  -30.3570   23.8400 C   0  0  0  0  0  3  0  0  0  0  0  0
  -16.5360  -29.5010   23.4180 C   0  0  0  0  0  3  0  0  0  0  0  0
  -16.8480  -28.2270   22.9110 C   0  0  0  0  0  3  0  0  0  0  0  0
  -25.9550  -32.5290   23.7870 C   0  0  0  0  0  3  0  0  0  0  0  0
  -25.6330  -33.9150   24.1470 N   0  0  0  0  0  0  0  0  0  0  0  0
  -25.9330  -34.9850   23.3970 C   0  0  0  0  0  0  0  0  0  0  0  0
  -26.5830  -34.9080   22.3500 O   0  0  0  0  0  0  0  0  0  0  0  0
  -25.0540  -34.0480   24.9610 H   0  0  0  0  0  0  0  0  0  0  0  0
  -24.1770  -36.7580   23.0970 C   0  0  0  0  0  1  0  0  0  0  0  0
  -25.4330  -36.3570   23.8870 C   0  0  0  0  0  3  0  0  0  0  0  0
  -27.5670  -37.2520   24.7060 C   0  0  0  0  0  1  0  0  0  0  0  0
  -26.4510  -37.4260   23.7810 N   0  0  0  0  0  0  0  0  0  0  0  0
  -26.0350  -38.3370   23.9530 H   0  0  0  0  0  0  0  0  0  0  0  0
  -26.5260  -31.7460   25.0320 C   0  0  1  0  0  0  0  0  0  0  0  0
  -25.4650  -31.4470   26.1170 C   0  0  0  0  0  1  0  0  0  0  0  0
  -27.1440  -30.3980   24.5940 C   0  0  0  0  0  1  0  0  0  0  0  0
  -27.6640  -32.5620   25.6880 C   0  0  0  0  0  1  0  0  0  0  0  0
  1  2  1  0
  2  6  1  0
  3  1  2  0
  4  2  2  0
  5  7  2  0
  5  3  1  0
  7  4  1  0
  8  9  1  0
  9  5  1  0
 10  3  1  0
 10 11  1  0
 12 11  1  0
 12 21  1  0
 13 21  1  0
 14 19  1  0
 15 16  1  0
 15 14  1  0
 17 16  1  0
 17 25  1  0
 17 18  1  0
 19 13  1  0
 19 18  1  0
 20 13  2  0
 21 52  1  0
 22 23  2  0
 23 42  1  0
 24 23  1  0
 24 27  1  0
 25 26  1  0
 25 22  1  0
 26 24  2  0
 27 28  1  0
 28 29  2  0
 30 33  1  0
 30 29  1  0
 31 30  2  0
 32 31  1  0
 32 27  2  0
 33 34  1  0
 34 35  1  0
 35 36  2  0
 37 36  1  0
 37 41  1  0
 38 37  2  0
 39 34  2  0
 39 38  1  0
 40 39  1  0
 42 43  1  0
 43 46  1  0
 43 45  1  0
 44 42  2  0
 47 22  1  0
 47 48  1  0
 49 47  1  0
 52 50  1  0
 52 51  1  0
 53  4  1  0
 53 54  1  0
 54 55  1  0
 55 56  1  0
 56 58  1  0
 57 68  2  0
 58 63  1  0
 59 67  1  0
 59 69  1  0
 60 66  1  0
 60 62  1  0
 61 67  1  0
 62 61  1  0
 63 62  2  0
 64 65  1  0
 64 58  2  0
 65 60  2  0
 66 59  1  0
 67 57  1  0
 69 71  2  0
 70 69  1  0
 72 70  1  0
 73 82  2  0
 73 78  1  0
 74 70  1  0
 74 78  1  0
 75 74  1  0
 76 77  1  0
 76 75  1  0
 77 73  1  0
 78 79  2  0
 79 80  1  0
 81 80  2  0
 82 81  1  0
 83 57  1  0
 83 84  1  0
 83 93  1  0
 84 87  1  0
 85 89  1  0
 85 84  1  0
 86 85  2  0
 89 88  1  0
 91 89  1  0
 91 92  1  0
 91 90  1  0
 93 96  1  1
 93 94  1  0
 95 93  1  0
M  ISO  4  13 100  21 100  55 101  56 101
M  END
>  <TORSDO>  (75) 
F 24

>  <SCORE>  (75) 
-10.363

>  <name>  (75) 
76

>  <ligand_id>  (75) 
76

>  <original_smiles>  (75) 
[H]c1c([H])c([H])c2c(c1[H])C([H])([H])C([H])([H])C([H])([H])C2([H])N([H])C(=O)C1([H])N(C(=O)C([H])(N([H])C(=O)C([H])(N([H])C([H])([H])[H])C([H])([H])[H])C(C([H])([H])[H])(C([H])([H])[H])C([H])([H])[H])C([H])([H])c2c([H])c(OC([H])([H])C([H])([H])C([H])([H])c3nc(C([H])([H])C([H])([H])[H])c(C([H])([H])C([H])([H])C([H])([H])N(C(=O)N4C([H])([H])C([H])([H])C([H])([H])C([H])(n5nc(-c6c([H])c([H])c(Oc7c([H])c([H])c(F)c([H])c7F)c([H])c6[H])c(C(=O)N([H])[H])c5N([H])[H])C4([H])[H])C([H])(C([H])([H])[H])C([H])([H])[H])c([H])c3C([H])([H])[H])c([H])c([H])c2C1([H])[H]

>  <smiles>  (75) 
[H]c1c([H])c([H])c2c(c1[H])C([H])([H])C([H])([H])C([H])([H])C2([H])N([H])C(=O)C1([H])N(C(=O)C([H])(N([H])C(=O)C([H])(N([H])C([H])([H])[H])C([H])([H])[H])C(C([H])([H])[H])(C([H])([H])[H])C([H])([H])[H])C([H])([H])c2c([H])c(OC([H])([H])C([H])([H])C([H])([H])c3nc(C([H])([H])C([H])([H])[H])c(C([H])([H])C([H])([H])C([H])([H])N(C(=O)N4C([H])([H])C([H])([H])C([H])([H])C([H])(n5nc(-c6c([H])c([H])c(Oc7c([H])c([H])c(F)c([H])c7F)c([H])c6[H])c(C(=O)N([H])[H])c5N([H])[H])C4([H])[H])C([H])(C([H])([H])[H])C([H])([H])[H])c([H])c3C([H])([H])[H])c([H])c([H])c2C1([H])[H]

$$$$
77:0:0
     RDKit          3D

 95103  0  0  1  0  0  0  0  0999 V2000
  -26.2040  -24.7510   21.5590 C   0  0  0  0  0  0  0  0  0  0  0  0
  -27.5210  -24.7640   21.1460 C   0  0  0  0  0  0  0  0  0  0  0  0
  -26.5420  -22.8980   20.5050 C   0  0  0  0  0  3  0  0  0  0  0  0
  -25.4460  -25.7520   22.3870 C   0  0  0  0  0  1  0  0  0  0  0  0
  -26.2690  -21.6110   19.7800 C   0  0  0  0  0  1  0  0  0  0  0  0
  -25.5780  -23.6040   21.0870 N   0  0  0  0  0  2  0  0  0  0  0  0
  -27.7650  -23.4580   20.6570 N   0  0  0  0  0  0  0  0  0  0  0  0
  -28.5250  -25.9040   21.2870 C   0  0  0  0  0  2  0  0  0  0  0  0
  -28.4200  -26.8180   20.1730 O   0  0  0  0  0  0  0  0  0  0  0  0
  -24.5240  -31.9340   23.2770 C   0  0  0  0  0  0  0  0  0  0  0  0
  -27.2890  -27.6030   20.1410 C   0  0  0  0  0  0  0  0  0  0  0  0
  -23.3800  -30.5610   21.5690 C   0  0  0  0  0  3  0  0  0  0  0  0
  -24.8850  -29.0870   20.1330 C   0  0  0  0  0  0  0  0  0  0  0  0
  -25.9050  -30.9440   21.4560 C   0  0  0  0  0  2  0  0  0  0  0  0
  -26.0190  -29.5950   20.7810 C   0  0  0  0  0  0  0  0  0  0  0  0
  -27.2230  -28.8530   20.7980 C   0  0  0  0  0  3  0  0  0  0  0  0
  -26.1580  -27.1330   19.4440 C   0  0  0  0  0  3  0  0  0  0  0  0
  -24.9470  -27.8510   19.4620 C   0  0  0  0  0  3  0  0  0  0  0  0
  -23.6310  -29.9270   20.1750 C   0  0  0  0  0  2  0  0  0  0  0  0
  -24.6190  -31.1580   22.1610 N   0  0  0  0  0  0  0  0  0  0  0  0
  -23.4220  -32.1940   23.7830 O   0  0  0  0  0  0  0  0  0  0  0  0
  -22.7050  -29.5140   22.4820 C   0  0  0  0  0  0  0  0  0  0  0  0
  -21.3870  -29.3340   22.3030 N   0  0  0  0  0  0  0  0  0  0  0  0
  -23.3620  -28.8700   23.3030 O   0  0  0  0  0  0  0  0  0  0  0  0
  -20.9290  -29.8950   21.5980 H   0  0  0  0  0  0  0  0  0  0  0  0
  -17.9920  -28.1460   22.6780 C   0  0  0  0  0  0  0  0  0  0  0  0
  -20.5430  -28.3790   23.0190 C   0  0  0  0  0  3  0  0  0  0  0  0
  -20.6590  -26.9710   22.3910 C   0  0  0  0  0  2  0  0  0  0  0  0
  -19.5760  -26.6900   21.3460 C   0  0  0  0  0  2  0  0  0  0  0  0
  -18.1780  -26.8200   21.9580 C   0  0  0  0  0  2  0  0  0  0  0  0
  -19.1040  -28.8890   23.1590 C   0  0  0  0  0  0  0  0  0  0  0  0
  -18.8780  -30.1320   23.7870 C   0  0  0  0  0  3  0  0  0  0  0  0
  -17.5700  -30.6300   23.9460 C   0  0  0  0  0  3  0  0  0  0  0  0
  -16.4730  -29.8870   23.4820 C   0  0  0  0  0  3  0  0  0  0  0  0
  -16.6850  -28.6460   22.8510 C   0  0  0  0  0  3  0  0  0  0  0  0
  -25.7870  -32.5540   23.9540 C   0  0  0  0  0  3  0  0  0  0  0  0
  -25.4760  -33.9550   24.2710 N   0  0  0  0  0  0  0  0  0  0  0  0
  -25.8460  -35.0040   23.5240 C   0  0  0  0  0  0  0  0  0  0  0  0
  -26.5550  -34.8930   22.5210 O   0  0  0  0  0  0  0  0  0  0  0  0
  -24.8640  -34.1160   25.0580 H   0  0  0  0  0  0  0  0  0  0  0  0
  -24.1350  -36.7970   23.1030 C   0  0  0  0  0  1  0  0  0  0  0  0
  -25.3490  -36.3970   23.9570 C   0  0  0  0  0  3  0  0  0  0  0  0
  -27.4580  -37.2640   24.8600 C   0  0  0  0  0  1  0  0  0  0  0  0
  -26.3910  -37.4440   23.8780 N   0  0  0  0  0  0  0  0  0  0  0  0
  -25.9890  -38.3660   24.0210 H   0  0  0  0  0  0  0  0  0  0  0  0
  -26.2410  -31.7780   25.2510 C   0  0  1  0  0  0  0  0  0  0  0  0
  -25.0920  -31.5470   26.2630 C   0  0  0  0  0  1  0  0  0  0  0  0
  -26.8280  -30.3960   24.8820 C   0  0  0  0  0  1  0  0  0  0  0  0
  -27.3680  -32.5640   25.9640 C   0  0  0  0  0  1  0  0  0  0  0  0
  -29.0550  -22.8200   20.3460 C   0  0  0  0  0  2  0  0  0  0  0  0
  -29.1810  -21.3690   20.9260 C   0  0  0  0  0  2  0  0  0  0  0  0
  -31.0600  -21.0540   22.5020 C   0  0  0  0  0  1  0  0  0  0  0  0
  -30.5810  -20.8960   21.1100 N   0  0  1  0  0  4  0  0  0  0  0  0
  -31.1540  -21.5350   20.5790 H   0  0  0  0  0  0  0  0  0  0  0  0
  -30.9120  -19.5620   20.5160 C   0  0  0  0  0  2  0  0  0  0  0  0
  -30.2680  -18.2810   21.1420 C   0  0  0  0  0  2  0  0  0  0  0  0
  -30.9270  -17.0360   20.5030 C   0  0  0  0  0  2  0  0  0  0  0  0
  -30.9870  -14.6080   20.3840 C   0  0  0  0  0  0  0  0  0  0  0  0
  -30.6080  -12.4150   19.3460 C   0  0  0  0  0  2  0  0  0  0  0  0
  -29.7050  -12.6240   18.1170 C   0  0  0  0  0  2  0  0  0  0  0  0
  -28.2230  -12.5290   18.5200 C   0  0  0  0  0  2  0  0  0  0  0  0
  -27.8790  -13.4000   19.7570 C   0  0  0  0  0  3  0  0  0  0  0  0
  -28.9200  -13.2190   20.8880 C   0  0  0  0  0  2  0  0  0  0  0  0
  -30.2580  -13.4590   20.3260 N   0  0  0  0  0  0  0  0  0  0  0  0
  -32.1000  -14.7080   19.8660 O   0  0  0  0  0  0  0  0  0  0  0  0
  -30.3880  -15.7100   20.8700 N   0  0  0  0  0  0  0  0  0  0  0  0
  -29.4950  -15.6230   21.3290 H   0  0  0  0  0  0  0  0  0  0  0  0
  -25.4600  -14.0250   20.3670 C   0  0  0  0  0  0  0  0  0  0  0  0
  -24.3800  -13.2640   20.7330 C   0  0  0  0  0  0  0  0  0  0  0  0
  -24.8390  -11.9140   20.7550 C   0  0  0  0  0  0  0  0  0  0  0  0
  -26.5110  -13.1400   20.2070 N   0  0  0  0  0  0  0  0  0  0  0  0
  -26.1390  -11.8640   20.4910 N   0  0  0  0  0  0  0  0  0  0  0  0
  -24.1060  -10.6540   20.9620 C   0  0  0  0  0  0  0  0  0  0  0  0
  -24.5110   -9.7170   21.9380 C   0  0  0  0  0  3  0  0  0  0  0  0
  -23.7800   -8.5260   22.1350 C   0  0  0  0  0  3  0  0  0  0  0  0
  -22.6300   -8.2620   21.3530 C   0  0  0  0  0  0  0  0  0  0  0  0
  -22.2460   -9.1870   20.3670 C   0  0  0  0  0  3  0  0  0  0  0  0
  -22.9770  -10.3700   20.1680 C   0  0  0  0  0  3  0  0  0  0  0  0
  -21.8750   -7.1180   21.4540 O   0  0  0  0  0  0  0  0  0  0  0  0
  -21.7800   -6.4200   22.6310 C   0  0  0  0  0  0  0  0  0  0  0  0
  -21.3180   -7.0260   23.8210 C   0  0  0  0  0  3  0  0  0  0  0  0
  -21.1750   -6.2570   24.9920 C   0  0  0  0  0  3  0  0  0  0  0  0
  -21.4790   -4.8820   24.9750 C   0  0  0  0  0  0  0  0  0  0  0  0
  -21.9280   -4.2760   23.7890 C   0  0  0  0  0  3  0  0  0  0  0  0
  -22.0780   -5.0430   22.6210 C   0  0  0  0  0  0  0  0  0  0  0  0
  -22.4930   -4.4510   21.4760 F   0  0  0  0  0  0  0  0  0  0  0  0
  -21.3330   -4.1410   26.0970 F   0  0  0  0  0  0  0  0  0  0  0  0
  -22.9750  -13.7500   20.9590 C   0  0  0  0  0  0  0  0  0  0  0  0
  -22.2350  -13.0720   21.8330 N   0  0  0  0  0  0  0  0  0  0  0  0
  -22.5470  -14.7580   20.4020 O   0  0  0  0  0  0  0  0  0  0  0  0
  -22.6010  -12.2590   22.3000 H   0  0  0  0  0  0  0  0  0  0  0  0
  -21.2940  -13.3740   22.0400 H   0  0  0  0  0  0  0  0  0  0  0  0
  -25.6390  -15.3870   20.1410 N   0  0  0  0  0  0  0  0  0  0  0  0
  -24.8910  -16.0680   20.1940 H   0  0  0  0  0  0  0  0  0  0  0  0
  -26.5130  -15.7850   19.8130 H   0  0  0  0  0  0  0  0  0  0  0  0
  1  4  1  0
  2  8  1  0
  2  1  2  0
  3  5  1  0
  3  7  1  0
  3  6  1  0
  6  1  1  0
  7  2  1  0
  9  8  1  0
 10 21  2  0
 11  9  1  0
 11 16  1  0
 12 20  1  0
 12 22  1  0
 13 19  1  0
 13 15  1  0
 14 20  1  0
 15 16  2  0
 15 14  1  0
 17 18  1  0
 17 11  2  0
 18 13  2  0
 19 12  1  0
 20 10  1  0
 22 24  2  0
 23 22  1  0
 25 23  1  0
 26 35  2  0
 26 31  1  0
 27 23  1  0
 27 31  1  0
 28 27  1  0
 29 30  1  0
 29 28  1  0
 30 26  1  0
 31 32  2  0
 32 33  1  0
 34 33  2  0
 35 34  1  0
 36 10  1  0
 36 37  1  0
 36 46  1  0
 37 40  1  0
 38 42  1  0
 38 37  1  0
 39 38  2  0
 42 41  1  0
 44 42  1  0
 44 45  1  0
 44 43  1  0
 46 49  1  1
 46 47  1  0
 48 46  1  0
 50  7  1  0
 50 51  1  0
 51 53  1  0
 53 52  1  0
 53 54  1  6
 55 53  1  0
 55 56  1  0
 57 66  1  0
 57 56  1  0
 58 66  1  0
 59 64  1  0
 60 61  1  0
 60 59  1  0
 62 61  1  0
 62 71  1  0
 62 63  1  0
 64 58  1  0
 64 63  1  0
 65 58  2  0
 66 67  1  0
 68 69  2  0
 69 70  1  0
 69 88  1  0
 70 73  1  0
 71 68  1  0
 71 72  1  0
 72 70  2  0
 73 74  1  0
 74 75  2  0
 76 79  1  0
 76 75  1  0
 77 76  2  0
 78 77  1  0
 78 73  2  0
 79 80  1  0
 80 81  1  0
 81 82  2  0
 83 82  1  0
 83 87  1  0
 84 83  2  0
 85 80  2  0
 85 84  1  0
 86 85  1  0
 88 89  1  0
 89 92  1  0
 89 91  1  0
 90 88  2  0
 93 94  1  0
 93 68  1  0
 95 93  1  0
M  ISO  4   8 101   9 101  58 100  66 100
M  END
>  <TORSDO>  (76) 
F 23

>  <SCORE>  (76) 
-12.374

>  <name>  (76) 
77

>  <ligand_id>  (76) 
77

>  <original_smiles>  (76) 
[H]c1c([H])c([H])c2c(c1[H])C([H])([H])C([H])([H])C([H])([H])C2([H])N([H])C(=O)C1([H])N(C(=O)C([H])(N([H])C(=O)C([H])(N([H])C([H])([H])[H])C([H])([H])[H])C(C([H])([H])[H])(C([H])([H])[H])C([H])([H])[H])C([H])([H])c2c([H])c(OC([H])([H])c3c(C([H])([H])[H])nc(C([H])([H])[H])n3C([H])([H])C([H])([H])[N+]([H])(C([H])([H])[H])C([H])([H])C([H])([H])C([H])([H])N([H])C(=O)N3C([H])([H])C([H])([H])C([H])([H])C([H])(n4nc(-c5c([H])c([H])c(Oc6c([H])c([H])c(F)c([H])c6F)c([H])c5[H])c(C(=O)N([H])[H])c4N([H])[H])C3([H])[H])c([H])c([H])c2C1([H])[H]

>  <smiles>  (76) 
[H]c1c([H])c([H])c2c(c1[H])C([H])([H])C([H])([H])C([H])([H])C2([H])N([H])C(=O)C1([H])N(C(=O)C([H])(N([H])C(=O)C([H])(N([H])C([H])([H])[H])C([H])([H])[H])C(C([H])([H])[H])(C([H])([H])[H])C([H])([H])[H])C([H])([H])c2c([H])c(OC([H])([H])c3c(C([H])([H])[H])nc(C([H])([H])[H])n3C([H])([H])C([H])([H])[N+]([H])(C([H])([H])[H])C([H])([H])C([H])([H])C([H])([H])N([H])C(=O)N3C([H])([H])C([H])([H])C([H])([H])C([H])(n4nc(-c5c([H])c([H])c(Oc6c([H])c([H])c(F)c([H])c6F)c([H])c5[H])c(C(=O)N([H])[H])c4N([H])[H])C3([H])[H])c([H])c([H])c2C1([H])[H]

$$$$
78:0:0
     RDKit          3D

 92100  0  0  1  0  0  0  0  0999 V2000
  -29.8600  -19.9450   19.0750 C   0  0  0  0  0  3  0  0  0  0  0  0
  -29.7210  -20.0020   20.4780 C   0  0  0  0  0  0  0  0  0  0  0  0
  -28.5910  -21.8620   18.8580 C   0  0  0  0  0  0  0  0  0  0  0  0
  -28.5020  -21.9790   20.2790 C   0  0  0  0  0  0  0  0  0  0  0  0
  -27.8730  -22.7610   17.8660 C   0  0  0  0  0  1  0  0  0  0  0  0
  -29.2950  -20.8670   18.2650 N   0  0  0  0  0  0  0  0  0  0  0  0
  -29.0670  -21.0340   21.0870 N   0  0  0  0  0  0  0  0  0  0  0  0
  -30.2590  -18.8430   21.3230 C   0  0  0  0  0  2  0  0  0  0  0  0
  -29.3850  -17.5590   21.2310 C   0  0  0  0  0  2  0  0  0  0  0  0
  -30.1290  -16.2120   21.5160 C   0  0  0  0  0  2  0  0  0  0  0  0
  -31.0640  -14.3380   20.1130 C   0  0  0  0  0  0  0  0  0  0  0  0
  -30.6430  -12.2230   18.9200 C   0  0  0  0  0  2  0  0  0  0  0  0
  -29.6730  -12.4890   17.7480 C   0  0  0  0  0  2  0  0  0  0  0  0
  -28.2100  -12.4110   18.2210 C   0  0  0  0  0  2  0  0  0  0  0  0
  -27.9430  -13.2310   19.5160 C   0  0  0  0  0  3  0  0  0  0  0  0
  -29.0230  -12.9340   20.5820 C   0  0  0  0  0  2  0  0  0  0  0  0
  -30.3310  -13.1990   19.9760 N   0  0  0  0  0  0  0  0  0  0  0  0
  -32.2100  -14.4490   19.6800 O   0  0  0  0  0  0  0  0  0  0  0  0
  -30.3560  -15.4690   20.2700 N   0  0  0  0  0  0  0  0  0  0  0  0
  -30.6920  -16.1210   19.5790 H   0  0  0  0  0  0  0  0  0  0  0  0
  -25.5830  -13.9120   20.2790 C   0  0  0  0  0  0  0  0  0  0  0  0
  -24.5010  -13.1640   20.6770 C   0  0  0  0  0  0  0  0  0  0  0  0
  -24.9300  -11.8010   20.6460 C   0  0  0  0  0  0  0  0  0  0  0  0
  -26.5980  -13.0000   20.0310 N   0  0  0  0  0  0  0  0  0  0  0  0
  -26.2070  -11.7290   20.3090 N   0  0  0  0  0  0  0  0  0  0  0  0
  -24.1790  -10.5590   20.8620 C   0  0  0  0  0  0  0  0  0  0  0  0
  -24.5900   -9.6090   21.8250 C   0  0  0  0  0  3  0  0  0  0  0  0
  -23.8410   -8.4310   22.0350 C   0  0  0  0  0  3  0  0  0  0  0  0
  -22.6630   -8.1970   21.2850 C   0  0  0  0  0  0  0  0  0  0  0  0
  -22.2730   -9.1320   20.3100 C   0  0  0  0  0  3  0  0  0  0  0  0
  -23.0210  -10.3030   20.0970 C   0  0  0  0  0  3  0  0  0  0  0  0
  -21.8870   -7.0700   21.4020 O   0  0  0  0  0  0  0  0  0  0  0  0
  -21.7920   -6.3780   22.5840 C   0  0  0  0  0  0  0  0  0  0  0  0
  -21.3390   -6.9960   23.7700 C   0  0  0  0  0  3  0  0  0  0  0  0
  -21.1870   -6.2350   24.9480 C   0  0  0  0  0  3  0  0  0  0  0  0
  -21.4760   -4.8570   24.9340 C   0  0  0  0  0  0  0  0  0  0  0  0
  -21.9230   -4.2400   23.7510 C   0  0  0  0  0  3  0  0  0  0  0  0
  -22.0770   -4.9990   22.5780 C   0  0  0  0  0  0  0  0  0  0  0  0
  -22.4820   -4.3960   21.4340 F   0  0  0  0  0  0  0  0  0  0  0  0
  -21.3340   -4.1210   26.0610 F   0  0  0  0  0  0  0  0  0  0  0  0
  -23.1210  -13.6720   20.9670 C   0  0  0  0  0  0  0  0  0  0  0  0
  -22.3990  -13.0080   21.8640 N   0  0  0  0  0  0  0  0  0  0  0  0
  -22.6940  -14.6960   20.4380 O   0  0  0  0  0  0  0  0  0  0  0  0
  -22.7570  -12.1750   22.3070 H   0  0  0  0  0  0  0  0  0  0  0  0
  -21.4700  -13.3260   22.1060 H   0  0  0  0  0  0  0  0  0  0  0  0
  -25.7840  -15.2740   20.0830 N   0  0  0  0  0  0  0  0  0  0  0  0
  -25.0500  -15.9650   20.2080 H   0  0  0  0  0  0  0  0  0  0  0  0
  -26.6710  -15.6870   19.8220 H   0  0  0  0  0  0  0  0  0  0  0  0
  -27.6740  -23.0650   20.9880 C   0  0  0  0  0  2  0  0  0  0  0  0
  -28.3820  -24.3980   21.3630 C   0  0  0  0  0  2  0  0  0  0  0  0
  -28.7920  -25.3020   20.1790 C   0  0  0  0  0  2  0  0  0  0  0  0
  -28.6700  -26.6840   20.5000 O   0  0  0  0  0  0  0  0  0  0  0  0
  -24.6650  -31.8120   23.2670 C   0  0  0  0  0  0  0  0  0  0  0  0
  -27.4460  -27.3240   20.4140 C   0  0  0  0  0  0  0  0  0  0  0  0
  -23.5170  -30.3630   21.6200 C   0  0  0  0  0  3  0  0  0  0  0  0
  -25.0250  -28.7940   20.2920 C   0  0  0  0  0  0  0  0  0  0  0  0
  -26.0430  -30.7360   21.4970 C   0  0  0  0  0  2  0  0  0  0  0  0
  -26.1580  -29.3510   20.8970 C   0  0  0  0  0  0  0  0  0  0  0  0
  -27.3650  -28.6290   20.9460 C   0  0  0  0  0  3  0  0  0  0  0  0
  -26.2880  -26.7640   19.8180 C   0  0  0  0  0  3  0  0  0  0  0  0
  -25.0830  -27.4970   19.7540 C   0  0  0  0  0  3  0  0  0  0  0  0
  -23.7710  -29.6420   20.2690 C   0  0  0  0  0  2  0  0  0  0  0  0
  -24.7580  -30.9850   22.1880 N   0  0  0  0  0  0  0  0  0  0  0  0
  -23.5660  -32.1000   23.7610 O   0  0  0  0  0  0  0  0  0  0  0  0
  -22.8390  -29.3680   22.5850 C   0  0  0  0  0  0  0  0  0  0  0  0
  -21.5160  -29.2010   22.4250 N   0  0  0  0  0  0  0  0  0  0  0  0
  -23.4980  -28.7520   23.4270 O   0  0  0  0  0  0  0  0  0  0  0  0
  -21.0550  -29.7460   21.7100 H   0  0  0  0  0  0  0  0  0  0  0  0
  -18.1060  -28.1130   22.8990 C   0  0  0  0  0  0  0  0  0  0  0  0
  -20.6680  -28.2880   23.1900 C   0  0  0  0  0  3  0  0  0  0  0  0
  -20.7310  -26.8580   22.6080 C   0  0  0  0  0  2  0  0  0  0  0  0
  -19.6260  -26.5710   21.5870 C   0  0  0  0  0  2  0  0  0  0  0  0
  -18.2450  -26.7590   22.2220 C   0  0  0  0  0  2  0  0  0  0  0  0
  -19.2460  -28.8380   23.3380 C   0  0  0  0  0  0  0  0  0  0  0  0
  -19.0650  -30.1090   23.9260 C   0  0  0  0  0  3  0  0  0  0  0  0
  -17.7750  -30.6500   24.0880 C   0  0  0  0  0  3  0  0  0  0  0  0
  -16.6510  -29.9210   23.6670 C   0  0  0  0  0  3  0  0  0  0  0  0
  -16.8170  -28.6560   23.0760 C   0  0  0  0  0  3  0  0  0  0  0  0
  -25.9280  -32.4550   23.9210 C   0  0  0  0  0  3  0  0  0  0  0  0
  -25.6100  -33.8600   24.2110 N   0  0  0  0  0  0  0  0  0  0  0  0
  -25.9720  -34.8950   23.4410 C   0  0  0  0  0  0  0  0  0  0  0  0
  -26.6850  -34.7700   22.4410 O   0  0  0  0  0  0  0  0  0  0  0  0
  -24.9780  -34.0340   24.9780 H   0  0  0  0  0  0  0  0  0  0  0  0
  -24.2580  -36.6720   22.9780 C   0  0  0  0  0  1  0  0  0  0  0  0
  -25.4660  -36.2920   23.8490 C   0  0  0  0  0  3  0  0  0  0  0  0
  -27.5620  -37.1950   24.7520 C   0  0  0  0  0  1  0  0  0  0  0  0
  -26.5050  -37.3410   23.7550 N   0  0  0  0  0  0  0  0  0  0  0  0
  -26.0930  -38.2660   23.8610 H   0  0  0  0  0  0  0  0  0  0  0  0
  -26.4060  -31.7110   25.2280 C   0  0  1  0  0  0  0  0  0  0  0  0
  -25.2780  -31.4860   26.2600 C   0  0  0  0  0  1  0  0  0  0  0  0
  -27.0060  -30.3300   24.8770 C   0  0  0  0  0  1  0  0  0  0  0  0
  -27.5350  -32.5210   25.9120 C   0  0  0  0  0  1  0  0  0  0  0  0
  1  2  1  0
  2  7  2  0
  2  8  1  0
  3  4  2  0
  4 49  1  0
  4  7  1  0
  5  3  1  0
  6  3  1  0
  6  1  2  0
  9  8  1  0
  9 10  1  0
 11 19  1  0
 12 17  1  0
 13 14  1  0
 13 12  1  0
 15 14  1  0
 15 24  1  0
 15 16  1  0
 17 11  1  0
 17 16  1  0
 18 11  2  0
 19 10  1  0
 20 19  1  0
 21 22  2  0
 22 41  1  0
 23 22  1  0
 23 26  1  0
 24 21  1  0
 24 25  1  0
 25 23  2  0
 26 27  1  0
 27 28  2  0
 29 32  1  0
 29 28  1  0
 30 29  2  0
 31 30  1  0
 31 26  2  0
 32 33  1  0
 33 34  1  0
 34 35  2  0
 36 35  1  0
 36 40  1  0
 37 36  2  0
 38 33  2  0
 38 37  1  0
 39 38  1  0
 41 42  1  0
 42 45  1  0
 42 44  1  0
 43 41  2  0
 46 47  1  0
 46 21  1  0
 48 46  1  0
 49 50  1  0
 51 52  1  0
 51 50  1  0
 53 64  2  0
 54 52  1  0
 54 59  1  0
 55 63  1  0
 55 65  1  0
 56 58  1  0
 57 63  1  0
 58 59  2  0
 58 57  1  0
 60 54  2  0
 61 60  1  0
 61 56  2  0
 62 56  1  0
 62 55  1  0
 63 53  1  0
 65 67  2  0
 66 65  1  0
 68 66  1  0
 69 78  2  0
 69 74  1  0
 70 66  1  0
 70 74  1  0
 71 70  1  0
 72 73  1  0
 72 71  1  0
 73 69  1  0
 74 75  2  0
 75 76  1  0
 77 76  2  0
 78 77  1  0
 79 53  1  0
 79 80  1  0
 79 89  1  0
 80 83  1  0
 81 85  1  0
 81 80  1  0
 82 81  2  0
 85 84  1  0
 87 85  1  0
 87 88  1  0
 87 86  1  0
 89 92  1  1
 89 90  1  0
 91 89  1  0
M  ISO  4  11 100  19 100  51 101  52 101
M  END
>  <TORSDO>  (77) 
F 22

>  <SCORE>  (77) 
-12.940

>  <name>  (77) 
78

>  <ligand_id>  (77) 
78

>  <original_smiles>  (77) 
[H]c1nc(C([H])([H])[H])c(C([H])([H])C([H])([H])C([H])([H])Oc2c([H])c([H])c3c(c2[H])C([H])([H])N(C(=O)C([H])(N([H])C(=O)C([H])(N([H])C([H])([H])[H])C([H])([H])[H])C(C([H])([H])[H])(C([H])([H])[H])C([H])([H])[H])C([H])(C(=O)N([H])C2([H])c4c([H])c([H])c([H])c([H])c4C([H])([H])C([H])([H])C2([H])[H])C3([H])[H])nc1C([H])([H])C([H])([H])C([H])([H])N([H])C(=O)N1C([H])([H])C([H])([H])C([H])([H])C([H])(n2nc(-c3c([H])c([H])c(Oc4c([H])c([H])c(F)c([H])c4F)c([H])c3[H])c(C(=O)N([H])[H])c2N([H])[H])C1([H])[H]

>  <smiles>  (77) 
[H]c1nc(C([H])([H])[H])c(C([H])([H])C([H])([H])C([H])([H])Oc2c([H])c([H])c3c(c2[H])C([H])([H])N(C(=O)C([H])(N([H])C(=O)C([H])(N([H])C([H])([H])[H])C([H])([H])[H])C(C([H])([H])[H])(C([H])([H])[H])C([H])([H])[H])C([H])(C(=O)N([H])C2([H])c4c([H])c([H])c([H])c([H])c4C([H])([H])C([H])([H])C2([H])[H])C3([H])[H])nc1C([H])([H])C([H])([H])C([H])([H])N([H])C(=O)N1C([H])([H])C([H])([H])C([H])([H])C([H])(n2nc(-c3c([H])c([H])c(Oc4c([H])c([H])c(F)c([H])c4F)c([H])c3[H])c(C(=O)N([H])[H])c2N([H])[H])C1([H])[H]

$$$$
79:0:0
     RDKit          3D

 91 99  0  0  1  0  0  0  0  0999 V2000
  -29.6040  -21.2250   22.4730 C   0  0  0  0  0  3  0  0  0  0  0  0
  -29.7520  -20.6410   19.8610 C   0  0  0  0  0  0  0  0  0  0  0  0
  -29.7730  -21.9880   20.3240 C   0  0  0  0  0  0  0  0  0  0  0  0
  -29.6210  -19.6120   20.8390 C   0  0  0  0  0  0  0  0  0  0  0  0
  -29.8630  -20.3410   18.3680 C   0  0  0  0  0  1  0  0  0  0  0  0
  -29.6990  -22.2500   21.6390 N   0  0  0  0  0  0  0  0  0  0  0  0
  -29.5580  -19.9410   22.1430 N   0  0  0  0  0  0  0  0  0  0  0  0
  -29.8930  -23.2070   19.3800 C   0  0  0  0  0  2  0  0  0  0  0  0
  -29.8570  -24.6580   19.9900 C   0  0  0  0  0  2  0  0  0  0  0  0
  -28.5580  -25.4610   19.7060 C   0  0  0  0  0  2  0  0  0  0  0  0
  -28.5890  -26.8380   20.1610 O   0  0  0  0  0  0  0  0  0  0  0  0
  -24.6890  -31.9760   23.2770 C   0  0  0  0  0  0  0  0  0  0  0  0
  -27.4010  -27.5650   20.1530 C   0  0  0  0  0  0  0  0  0  0  0  0
  -23.5030  -30.5630   21.6310 C   0  0  0  0  0  3  0  0  0  0  0  0
  -24.9790  -29.0570   20.1920 C   0  0  0  0  0  0  0  0  0  0  0  0
  -26.0260  -30.9550   21.4300 C   0  0  0  0  0  2  0  0  0  0  0  0
  -26.1330  -29.5870   20.7800 C   0  0  0  0  0  0  0  0  0  0  0  0
  -27.3450  -28.8500   20.7540 C   0  0  0  0  0  3  0  0  0  0  0  0
  -26.2190  -27.0620   19.5560 C   0  0  0  0  0  3  0  0  0  0  0  0
  -25.0190  -27.7960   19.5770 C   0  0  0  0  0  3  0  0  0  0  0  0
  -23.7200  -29.8940   20.2490 C   0  0  0  0  0  2  0  0  0  0  0  0
  -24.7580  -31.1790   22.1710 N   0  0  0  0  0  0  0  0  0  0  0  0
  -23.6030  -32.2290   23.8170 O   0  0  0  0  0  0  0  0  0  0  0  0
  -22.8640  -29.5290   22.5860 C   0  0  0  0  0  0  0  0  0  0  0  0
  -21.5420  -29.3310   22.4580 N   0  0  0  0  0  0  0  0  0  0  0  0
  -23.5550  -28.9090   23.3990 O   0  0  0  0  0  0  0  0  0  0  0  0
  -21.0460  -29.8810   21.7710 H   0  0  0  0  0  0  0  0  0  0  0  0
  -18.1810  -28.0950   22.9560 C   0  0  0  0  0  0  0  0  0  0  0  0
  -20.7370  -28.3760   23.2210 C   0  0  0  0  0  3  0  0  0  0  0  0
  -20.8540  -26.9530   22.6280 C   0  0  0  0  0  2  0  0  0  0  0  0
  -19.7510  -26.6290   21.6160 C   0  0  0  0  0  2  0  0  0  0  0  0
  -18.3710  -26.7540   22.2670 C   0  0  0  0  0  2  0  0  0  0  0  0
  -19.2940  -28.8640   23.3900 C   0  0  0  0  0  0  0  0  0  0  0  0
  -19.0640  -30.1200   23.9930 C   0  0  0  0  0  3  0  0  0  0  0  0
  -17.7560  -30.6070   24.1670 C   0  0  0  0  0  3  0  0  0  0  0  0
  -16.6580  -29.8330   23.7540 C   0  0  0  0  0  3  0  0  0  0  0  0
  -16.8710  -28.5790   23.1530 C   0  0  0  0  0  3  0  0  0  0  0  0
  -25.9640  -32.6230   23.8990 C   0  0  0  0  0  3  0  0  0  0  0  0
  -25.6390  -34.0200   24.2230 N   0  0  0  0  0  0  0  0  0  0  0  0
  -25.9680  -35.0720   23.4620 C   0  0  0  0  0  0  0  0  0  0  0  0
  -26.6470  -34.9700   22.4360 O   0  0  0  0  0  0  0  0  0  0  0  0
  -25.0430  -34.1720   25.0220 H   0  0  0  0  0  0  0  0  0  0  0  0
  -24.2300  -36.8470   23.0820 C   0  0  0  0  0  1  0  0  0  0  0  0
  -25.4640  -36.4570   23.9110 C   0  0  0  0  0  3  0  0  0  0  0  0
  -27.5770  -37.3620   24.7720 C   0  0  0  0  0  1  0  0  0  0  0  0
  -26.4880  -37.5190   23.8100 N   0  0  0  0  0  0  0  0  0  0  0  0
  -26.0730  -38.4350   23.9500 H   0  0  0  0  0  0  0  0  0  0  0  0
  -26.4840  -31.8620   25.1790 C   0  0  1  0  0  0  0  0  0  0  0  0
  -25.3890  -31.5990   26.2400 C   0  0  0  0  0  1  0  0  0  0  0  0
  -27.0960  -30.4970   24.7860 C   0  0  0  0  0  1  0  0  0  0  0  0
  -27.6160  -32.6760   25.8510 C   0  0  0  0  0  1  0  0  0  0  0  0
  -29.4150  -18.1030   20.5520 C   0  0  0  0  0  2  0  0  0  0  0  0
  -30.6340  -17.1530   20.7680 C   0  0  0  0  0  2  0  0  0  0  0  0
  -30.9710  -14.6790   20.2850 C   0  0  0  0  0  0  0  0  0  0  0  0
  -30.6890  -12.4860   19.1810 C   0  0  0  0  0  2  0  0  0  0  0  0
  -29.7450  -12.6470   17.9710 C   0  0  0  0  0  2  0  0  0  0  0  0
  -28.2730  -12.5120   18.4020 C   0  0  0  0  0  2  0  0  0  0  0  0
  -27.9280  -13.3780   19.6430 C   0  0  0  0  0  3  0  0  0  0  0  0
  -28.9850  -13.1940   20.7580 C   0  0  0  0  0  2  0  0  0  0  0  0
  -30.3070  -13.4930   20.1860 N   0  0  0  0  0  0  0  0  0  0  0  0
  -32.0990  -14.8540   19.8160 O   0  0  0  0  0  0  0  0  0  0  0  0
  -30.2580  -15.7140   20.7790 N   0  0  0  0  0  0  0  0  0  0  0  0
  -29.3500  -15.4790   21.1510 H   0  0  0  0  0  0  0  0  0  0  0  0
  -25.5260  -13.9920   20.3330 C   0  0  0  0  0  0  0  0  0  0  0  0
  -24.4580  -13.2230   20.7110 C   0  0  0  0  0  0  0  0  0  0  0  0
  -24.9220  -11.8730   20.7060 C   0  0  0  0  0  0  0  0  0  0  0  0
  -26.5740  -13.1090   20.1230 N   0  0  0  0  0  0  0  0  0  0  0  0
  -26.2140  -11.8310   20.4060 N   0  0  0  0  0  0  0  0  0  0  0  0
  -24.1970  -10.6130   20.9150 C   0  0  0  0  0  0  0  0  0  0  0  0
  -24.6070   -9.6780   21.8920 C   0  0  0  0  0  3  0  0  0  0  0  0
  -23.8820   -8.4820   22.0860 C   0  0  0  0  0  3  0  0  0  0  0  0
  -22.7330   -8.2120   21.3050 C   0  0  0  0  0  0  0  0  0  0  0  0
  -22.3440   -9.1350   20.3190 C   0  0  0  0  0  3  0  0  0  0  0  0
  -23.0680  -10.3230   20.1220 C   0  0  0  0  0  3  0  0  0  0  0  0
  -21.9850   -7.0660   21.4060 O   0  0  0  0  0  0  0  0  0  0  0  0
  -21.8770   -6.3790   22.5880 C   0  0  0  0  0  0  0  0  0  0  0  0
  -21.3620   -6.9810   23.7580 C   0  0  0  0  0  3  0  0  0  0  0  0
  -21.2050   -6.2180   24.9310 C   0  0  0  0  0  3  0  0  0  0  0  0
  -21.5500   -4.8540   24.9380 C   0  0  0  0  0  0  0  0  0  0  0  0
  -22.0580   -4.2510   23.7740 C   0  0  0  0  0  3  0  0  0  0  0  0
  -22.2170   -5.0110   22.6010 C   0  0  0  0  0  0  0  0  0  0  0  0
  -22.6860   -4.4190   21.4770 F   0  0  0  0  0  0  0  0  0  0  0  0
  -21.3910   -4.1190   26.0630 F   0  0  0  0  0  0  0  0  0  0  0  0
  -23.0580  -13.7030   20.9700 C   0  0  0  0  0  0  0  0  0  0  0  0
  -22.3310  -13.0240   21.8510 N   0  0  0  0  0  0  0  0  0  0  0  0
  -22.6190  -14.7150   20.4270 O   0  0  0  0  0  0  0  0  0  0  0  0
  -22.7000  -12.2050   22.3100 H   0  0  0  0  0  0  0  0  0  0  0  0
  -21.3920  -13.3270   22.0640 H   0  0  0  0  0  0  0  0  0  0  0  0
  -25.6890  -15.3590   20.1290 N   0  0  0  0  0  0  0  0  0  0  0  0
  -24.9140  -16.0100   20.2090 H   0  0  0  0  0  0  0  0  0  0  0  0
  -26.5290  -15.7860   19.7620 H   0  0  0  0  0  0  0  0  0  0  0  0
  2  3  2  0
  2  4  1  0
  3  6  1  0
  4  7  2  0
  5  2  1  0
  6  1  2  0
  7  1  1  0
  8  9  1  0
  8  3  1  0
 10  9  1  0
 10 11  1  0
 12 23  2  0
 13 11  1  0
 13 18  1  0
 14 22  1  0
 14 24  1  0
 15 21  1  0
 15 17  1  0
 16 22  1  0
 17 16  1  0
 18 17  2  0
 19 20  1  0
 19 13  2  0
 20 15  2  0
 21 14  1  0
 22 12  1  0
 24 26  2  0
 25 24  1  0
 27 25  1  0
 28 37  2  0
 28 33  1  0
 29 25  1  0
 29 33  1  0
 30 29  1  0
 31 32  1  0
 31 30  1  0
 32 28  1  0
 33 34  2  0
 34 35  1  0
 36 35  2  0
 37 36  1  0
 38 12  1  0
 38 39  1  0
 38 48  1  0
 39 42  1  0
 40 44  1  0
 40 39  1  0
 41 40  2  0
 44 43  1  0
 46 44  1  0
 46 47  1  0
 46 45  1  0
 48 51  1  1
 48 49  1  0
 50 48  1  0
 52 53  1  0
 52  4  1  0
 53 62  1  0
 54 62  1  0
 55 60  1  0
 56 57  1  0
 56 55  1  0
 58 57  1  0
 58 67  1  0
 58 59  1  0
 60 54  1  0
 60 59  1  0
 61 54  2  0
 62 63  1  0
 64 65  2  0
 65 84  1  0
 66 65  1  0
 66 69  1  0
 67 64  1  0
 67 68  1  0
 68 66  2  0
 69 70  1  0
 70 71  2  0
 72 75  1  0
 72 71  1  0
 73 72  2  0
 74 73  1  0
 74 69  2  0
 75 76  1  0
 76 81  2  0
 76 77  1  0
 77 78  2  0
 78 79  1  0
 79 83  1  0
 80 79  2  0
 81 80  1  0
 82 81  1  0
 84 85  1  0
 85 88  1  0
 85 87  1  0
 86 84  2  0
 89 90  1  0
 89 64  1  0
 91 89  1  0
M  ISO  4  10 101  11 101  54 100  62 100
M  END
>  <TORSDO>  (78) 
F 21

>  <SCORE>  (78) 
-12.571

>  <name>  (78) 
79

>  <ligand_id>  (78) 
79

>  <original_smiles>  (78) 
[H]c1nc(C([H])([H])C([H])([H])N([H])C(=O)N2C([H])([H])C([H])([H])C([H])([H])C([H])(n3nc(-c4c([H])c([H])c(Oc5c([H])c([H])c(F)c([H])c5F)c([H])c4[H])c(C(=O)N([H])[H])c3N([H])[H])C2([H])[H])c(C([H])([H])[H])c(C([H])([H])C([H])([H])C([H])([H])Oc2c([H])c([H])c3c(c2[H])C([H])([H])N(C(=O)C([H])(N([H])C(=O)C([H])(N([H])C([H])([H])[H])C([H])([H])[H])C(C([H])([H])[H])(C([H])([H])[H])C([H])([H])[H])C([H])(C(=O)N([H])C2([H])c4c([H])c([H])c([H])c([H])c4C([H])([H])C([H])([H])C2([H])[H])C3([H])[H])n1

>  <smiles>  (78) 
[H]c1nc(C([H])([H])C([H])([H])N([H])C(=O)N2C([H])([H])C([H])([H])C([H])([H])C([H])(n3nc(-c4c([H])c([H])c(Oc5c([H])c([H])c(F)c([H])c5F)c([H])c4[H])c(C(=O)N([H])[H])c3N([H])[H])C2([H])[H])c(C([H])([H])[H])c(C([H])([H])C([H])([H])C([H])([H])Oc2c([H])c([H])c3c(c2[H])C([H])([H])N(C(=O)C([H])(N([H])C(=O)C([H])(N([H])C([H])([H])[H])C([H])([H])[H])C(C([H])([H])[H])(C([H])([H])[H])C([H])([H])[H])C([H])(C(=O)N([H])C2([H])c4c([H])c([H])c([H])c([H])c4C([H])([H])C([H])([H])C2([H])[H])C3([H])[H])n1

$$$$
80:0:0
     RDKit          3D

 88 96  0  0  1  0  0  0  0  0999 V2000
  -29.6890  -20.7460   20.3310 C   0  0  0  0  0  3  0  0  0  0  0  0
  -31.3270  -17.5160   19.0380 C   0  0  0  0  0  3  0  0  0  0  0  0
  -30.4740  -16.4110   19.3810 C   0  0  0  0  0  0  0  0  0  0  0  0
  -28.9460  -18.1320   20.0660 C   0  0  0  0  0  0  0  0  0  0  0  0
  -29.8390  -19.2270   19.7650 C   0  0  0  0  0  0  0  0  0  0  0  0
  -27.5910  -18.3990   20.6890 C   0  0  0  0  0  1  0  0  0  0  0  0
  -31.0340  -18.8570   19.2160 N   0  0  0  0  0  0  0  0  0  0  0  0
  -29.2470  -16.7830   19.8840 N   0  0  0  0  0  0  0  0  0  0  0  0
  -31.0660  -14.9350   19.3620 C   0  0  0  0  0  0  0  0  0  0  0  0
  -30.7000  -12.5700   18.6230 C   0  0  0  0  0  2  0  0  0  0  0  0
  -29.6700  -12.5320   17.4730 C   0  0  0  0  0  2  0  0  0  0  0  0
  -28.2450  -12.4150   18.0400 C   0  0  0  0  0  2  0  0  0  0  0  0
  -27.9790  -13.4200   19.1940 C   0  0  0  0  0  3  0  0  0  0  0  0
  -29.1320  -13.4720   20.2160 C   0  0  0  0  0  2  0  0  0  0  0  0
  -30.3690  -13.7410   19.4810 N   0  0  0  0  0  0  0  0  0  0  0  0
  -32.2360  -14.8550   18.9730 O   0  0  0  0  0  0  0  0  0  0  0  0
  -25.7520  -14.1030   20.2560 C   0  0  0  0  0  0  0  0  0  0  0  0
  -24.6840  -13.3750   20.7070 C   0  0  0  0  0  0  0  0  0  0  0  0
  -25.0440  -12.0020   20.5470 C   0  0  0  0  0  0  0  0  0  0  0  0
  -26.6920  -13.1780   19.8400 N   0  0  0  0  0  0  0  0  0  0  0  0
  -26.2850  -11.9040   20.0800 N   0  0  0  0  0  0  0  0  0  0  0  0
  -24.2560  -10.7790   20.7540 C   0  0  0  0  0  0  0  0  0  0  0  0
  -24.6680   -9.7770   21.6590 C   0  0  0  0  0  3  0  0  0  0  0  0
  -23.8820   -8.6210   21.8560 C   0  0  0  0  0  3  0  0  0  0  0  0
  -22.6680   -8.4600   21.1470 C   0  0  0  0  0  0  0  0  0  0  0  0
  -22.2730   -9.4490   20.2290 C   0  0  0  0  0  3  0  0  0  0  0  0
  -23.0590  -10.5960   20.0310 C   0  0  0  0  0  3  0  0  0  0  0  0
  -21.8520   -7.3590   21.2550 O   0  0  0  0  0  0  0  0  0  0  0  0
  -21.7190   -6.6730   22.4360 C   0  0  0  0  0  0  0  0  0  0  0  0
  -21.2410   -7.2970   23.6090 C   0  0  0  0  0  3  0  0  0  0  0  0
  -21.0540   -6.5390   24.7820 C   0  0  0  0  0  3  0  0  0  0  0  0
  -21.3350   -5.1600   24.7830 C   0  0  0  0  0  0  0  0  0  0  0  0
  -21.8050   -4.5360   23.6140 C   0  0  0  0  0  3  0  0  0  0  0  0
  -21.9940   -5.2910   22.4440 C   0  0  0  0  0  0  0  0  0  0  0  0
  -22.4280   -4.6810   21.3140 F   0  0  0  0  0  0  0  0  0  0  0  0
  -21.1480   -4.4300   25.9080 F   0  0  0  0  0  0  0  0  0  0  0  0
  -23.3660  -13.9250   21.1680 C   0  0  0  0  0  0  0  0  0  0  0  0
  -22.7080  -13.2390   22.0980 N   0  0  0  0  0  0  0  0  0  0  0  0
  -22.9350  -14.9940   20.7410 O   0  0  0  0  0  0  0  0  0  0  0  0
  -23.0740  -12.3730   22.4650 H   0  0  0  0  0  0  0  0  0  0  0  0
  -21.8280  -13.5880   22.4490 H   0  0  0  0  0  0  0  0  0  0  0  0
  -25.9950  -15.4690   20.1420 N   0  0  0  0  0  0  0  0  0  0  0  0
  -25.3090  -16.1670   20.4070 H   0  0  0  0  0  0  0  0  0  0  0  0
  -26.8630  -15.8690   19.8060 H   0  0  0  0  0  0  0  0  0  0  0  0
  -28.9930  -22.0510   19.6130 C   0  0  0  0  0  3  0  0  0  0  0  0
  -29.1070  -23.5610   20.2860 C   0  0  0  0  0  3  0  0  0  0  0  0
  -28.2230  -24.8540   19.7840 C   0  0  0  0  0  3  0  0  0  0  0  0
  -28.3900  -26.2950   20.2690 O   0  0  0  0  0  0  0  0  0  0  0  0
  -24.5470  -31.7430   23.2510 C   0  0  0  0  0  0  0  0  0  0  0  0
  -27.3060  -27.2190   20.1740 C   0  0  0  0  0  0  0  0  0  0  0  0
  -23.4170  -30.3580   21.5530 C   0  0  0  0  0  3  0  0  0  0  0  0
  -24.9330  -28.8630   20.1250 C   0  0  0  0  0  0  0  0  0  0  0  0
  -25.9610  -30.7040   21.4490 C   0  0  0  0  0  2  0  0  0  0  0  0
  -26.0820  -29.3350   20.7730 C   0  0  0  0  0  0  0  0  0  0  0  0
  -27.2700  -28.5250   20.7870 C   0  0  0  0  0  3  0  0  0  0  0  0
  -26.1370  -26.8420   19.4760 C   0  0  0  0  0  3  0  0  0  0  0  0
  -24.9690  -27.6290   19.4620 C   0  0  0  0  0  3  0  0  0  0  0  0
  -23.6820  -29.7200   20.1640 C   0  0  0  0  0  2  0  0  0  0  0  0
  -24.6600  -30.9550   22.1400 N   0  0  0  0  0  0  0  0  0  0  0  0
  -23.4420  -31.9890   23.7600 O   0  0  0  0  0  0  0  0  0  0  0  0
  -22.7460  -29.3090   22.4730 C   0  0  0  0  0  0  0  0  0  0  0  0
  -21.4300  -29.0970   22.2980 N   0  0  0  0  0  0  0  0  0  0  0  0
  -23.4110  -28.6900   23.3080 O   0  0  0  0  0  0  0  0  0  0  0  0
  -20.9490  -29.6510   21.6030 H   0  0  0  0  0  0  0  0  0  0  0  0
  -18.0680  -27.8090   22.6840 C   0  0  0  0  0  0  0  0  0  0  0  0
  -20.6130  -28.1220   23.0250 C   0  0  0  0  0  3  0  0  0  0  0  0
  -20.7620  -26.7070   22.4220 C   0  0  0  0  0  2  0  0  0  0  0  0
  -19.6960  -26.3810   21.3720 C   0  0  0  0  0  2  0  0  0  0  0  0
  -18.2950  -26.4800   21.9830 C   0  0  0  0  0  2  0  0  0  0  0  0
  -19.1570  -28.5870   23.1600 C   0  0  0  0  0  0  0  0  0  0  0  0
  -18.8910  -29.8290   23.7760 C   0  0  0  0  0  3  0  0  0  0  0  0
  -17.5710  -30.2940   23.9190 C   0  0  0  0  0  3  0  0  0  0  0  0
  -16.4970  -29.5140   23.4590 C   0  0  0  0  0  3  0  0  0  0  0  0
  -16.7460  -28.2710   22.8470 C   0  0  0  0  0  3  0  0  0  0  0  0
  -25.7960  -32.3920   23.9210 C   0  0  0  0  0  3  0  0  0  0  0  0
  -26.2370  -31.6610   25.2500 C   0  0  1  0  0  0  0  0  0  0  0  0
  -25.0800  -31.4440   26.2540 C   0  0  0  0  0  1  0  0  0  0  0  0
  -26.8510  -30.2780   24.9350 C   0  0  0  0  0  1  0  0  0  0  0  0
  -27.3400  -32.4820   25.9590 C   0  0  0  0  0  1  0  0  0  0  0  0
  -25.4770  -33.8020   24.1920 N   0  0  0  0  0  0  0  0  0  0  0  0
  -25.8210  -34.8270   23.4000 C   0  0  0  0  0  0  0  0  0  0  0  0
  -26.5070  -34.6860   22.3850 O   0  0  0  0  0  0  0  0  0  0  0  0
  -24.8700  -33.9860   24.9780 H   0  0  0  0  0  0  0  0  0  0  0  0
  -24.0910  -36.6010   22.9580 C   0  0  0  0  0  1  0  0  0  0  0  0
  -25.3240  -36.2320   23.7970 C   0  0  0  0  0  3  0  0  0  0  0  0
  -27.4380  -37.1660   24.6280 C   0  0  0  0  0  1  0  0  0  0  0  0
  -26.3550  -37.2830   23.6540 N   0  0  0  0  0  0  0  0  0  0  0  0
  -25.9430  -38.2070   23.7480 H   0  0  0  0  0  0  0  0  0  0  0  0
  2  7  2  0
  2  3  1  0
  3  8  2  0
  4  6  1  0
  5  4  2  0
  5  1  1  0
  7  5  1  0
  8  4  1  0
  9  3  1  0
  9 15  1  0
 10 15  1  0
 11 12  1  0
 11 10  1  0
 13 12  1  0
 13 20  1  0
 13 14  1  0
 15 14  1  0
 16  9  2  0
 17 18  2  0
 18 37  1  0
 19 18  1  0
 19 22  1  0
 20 21  1  0
 20 17  1  0
 21 19  2  0
 22 23  1  0
 23 24  2  0
 25 28  1  0
 25 24  1  0
 26 25  2  0
 27 26  1  0
 27 22  2  0
 28 29  1  0
 29 34  2  0
 29 30  1  0
 30 31  2  0
 31 32  1  0
 32 36  1  0
 33 32  2  0
 34 33  1  0
 35 34  1  0
 37 38  1  0
 38 41  1  0
 38 40  1  0
 39 37  2  0
 42 17  1  0
 42 43  1  0
 44 42  1  0
 45 46  1  0
 45  1  2  0
 47 48  1  0
 47 46  2  0
 49 60  2  0
 50 48  1  0
 50 55  1  0
 51 59  1  0
 51 61  1  0
 52 58  1  0
 52 54  1  0
 53 59  1  0
 54 55  2  0
 54 53  1  0
 56 50  2  0
 57 56  1  0
 57 52  2  0
 58 51  1  0
 59 49  1  0
 61 63  2  0
 62 61  1  0
 64 62  1  0
 65 74  2  0
 65 70  1  0
 66 62  1  0
 66 70  1  0
 67 66  1  0
 68 69  1  0
 68 67  1  0
 69 65  1  0
 70 71  2  0
 71 72  1  0
 73 72  2  0
 74 73  1  0
 75 49  1  0
 75 80  1  0
 75 76  1  0
 76 79  1  1
 76 77  1  0
 78 76  1  0
 80 83  1  0
 81 85  1  0
 81 80  1  0
 82 81  2  0
 85 84  1  0
 87 88  1  0
 87 85  1  0
 87 86  1  0
M  ISO  4   3 100   9 100  47 101  48 101
M  END
>  <TORSDO>  (79) 
F 20

>  <SCORE>  (79) 
-12.646

>  <name>  (79) 
80

>  <ligand_id>  (79) 
80

>  <original_smiles>  (79) 
[H]c1nc(C([H])([H])C([H])([H])C([H])([H])C([H])([H])Oc2c([H])c([H])c3c(c2[H])C([H])([H])N(C(=O)C([H])(N([H])C(=O)C([H])(N([H])C([H])([H])[H])C([H])([H])[H])C(C([H])([H])[H])(C([H])([H])[H])C([H])([H])[H])C([H])(C(=O)N([H])C2([H])c4c([H])c([H])c([H])c([H])c4C([H])([H])C([H])([H])C2([H])[H])C3([H])[H])c(C([H])([H])[H])nc1C(=O)N1C([H])([H])C([H])([H])C([H])([H])C([H])(n2nc(-c3c([H])c([H])c(Oc4c([H])c([H])c(F)c([H])c4F)c([H])c3[H])c(C(=O)N([H])[H])c2N([H])[H])C1([H])[H]

>  <smiles>  (79) 
[H]c1nc(C([H])([H])C([H])([H])C([H])([H])C([H])([H])Oc2c([H])c([H])c3c(c2[H])C([H])([H])N(C(=O)C([H])(N([H])C(=O)C([H])(N([H])C([H])([H])[H])C([H])([H])[H])C(C([H])([H])[H])(C([H])([H])[H])C([H])([H])[H])C([H])(C(=O)N([H])C2([H])c4c([H])c([H])c([H])c([H])c4C([H])([H])C([H])([H])C2([H])[H])C3([H])[H])c(C([H])([H])[H])nc1C(=O)N1C([H])([H])C([H])([H])C([H])([H])C([H])(n2nc(-c3c([H])c([H])c(Oc4c([H])c([H])c(F)c([H])c4F)c([H])c3[H])c(C(=O)N([H])[H])c2N([H])[H])C1([H])[H]

$$$$
81:0:0
     RDKit          3D

 93101  0  0  1  0  0  0  0  0999 V2000
  -30.2720  -20.9500   21.3160 C   0  0  0  0  0  3  0  0  0  0  0  0
  -29.3640  -21.2890   20.3410 C   0  0  0  0  0  0  0  0  0  0  0  0
  -29.8280  -18.9910   20.2350 C   0  0  0  0  0  3  0  0  0  0  0  0
  -30.5150  -19.5780   21.2610 N   0  0  0  0  0  0  0  0  0  0  0  0
  -29.1310  -20.0500   19.7180 N   0  0  0  0  0  0  0  0  0  0  0  0
  -28.5230  -19.9480   18.9150 H   0  0  0  0  0  0  0  0  0  0  0  0
  -31.2720  -19.4050   23.6320 C   0  0  0  0  0  1  0  0  0  0  0  0
  -32.9270  -19.1510   21.7710 C   0  0  0  0  0  1  0  0  0  0  0  0
  -31.4610  -18.9070   22.1810 C   0  0  0  0  0  3  0  0  0  0  0  0
  -29.0020  -17.4110   18.2720 C   0  0  0  0  0  1  0  0  0  0  0  0
  -29.9300  -17.5380   19.5420 C   0  0  0  0  0  3  0  0  0  0  0  0
  -30.5610  -15.0670   20.2080 C   0  0  0  0  0  0  0  0  0  0  0  0
  -30.4020  -12.7520   19.2910 C   0  0  0  0  0  2  0  0  0  0  0  0
  -29.4400  -12.7340   18.0820 C   0  0  0  0  0  2  0  0  0  0  0  0
  -27.9820  -12.5560   18.5470 C   0  0  0  0  0  2  0  0  0  0  0  0
  -27.5980  -13.4560   19.7430 C   0  0  0  0  0  3  0  0  0  0  0  0
  -28.6870  -13.4360   20.8430 C   0  0  0  0  0  2  0  0  0  0  0  0
  -29.9550  -13.8230   20.2090 N   0  0  0  0  0  0  0  0  0  0  0  0
  -31.7370  -15.1540   19.8500 O   0  0  0  0  0  0  0  0  0  0  0  0
  -29.7860  -16.2200   20.3310 N   0  0  0  0  0  0  0  0  0  0  0  0
  -28.8530  -16.0640   20.6790 H   0  0  0  0  0  0  0  0  0  0  0  0
  -25.2240  -13.9850   20.5470 C   0  0  0  0  0  0  0  0  0  0  0  0
  -24.1720  -13.1890   20.8980 C   0  0  0  0  0  0  0  0  0  0  0  0
  -24.6530  -11.8420   20.8340 C   0  0  0  0  0  0  0  0  0  0  0  0
  -26.2710  -13.1310   20.2600 N   0  0  0  0  0  0  0  0  0  0  0  0
  -25.9380  -11.8340   20.5030 N   0  0  0  0  0  0  0  0  0  0  0  0
  -23.9500  -10.5660   21.0100 C   0  0  0  0  0  0  0  0  0  0  0  0
  -24.3960   -9.6010   21.9420 C   0  0  0  0  0  3  0  0  0  0  0  0
  -23.6890   -8.3920   22.1180 C   0  0  0  0  0  3  0  0  0  0  0  0
  -22.5240   -8.1310   21.3560 C   0  0  0  0  0  0  0  0  0  0  0  0
  -22.0950   -9.0850   20.4160 C   0  0  0  0  0  3  0  0  0  0  0  0
  -22.8010  -10.2860   20.2390 C   0  0  0  0  0  3  0  0  0  0  0  0
  -21.7890   -6.9680   21.4330 O   0  0  0  0  0  0  0  0  0  0  0  0
  -21.7200   -6.2360   22.5900 C   0  0  0  0  0  0  0  0  0  0  0  0
  -21.2040   -6.7830   23.7850 C   0  0  0  0  0  3  0  0  0  0  0  0
  -21.0780   -5.9770   24.9350 C   0  0  0  0  0  3  0  0  0  0  0  0
  -21.4650   -4.6230   24.8900 C   0  0  0  0  0  0  0  0  0  0  0  0
  -21.9760   -4.0740   23.6990 C   0  0  0  0  0  3  0  0  0  0  0  0
  -22.1000   -4.8790   22.5520 C   0  0  0  0  0  0  0  0  0  0  0  0
  -22.5680   -4.3400   21.4010 F   0  0  0  0  0  0  0  0  0  0  0  0
  -21.3400   -3.8470   25.9900 F   0  0  0  0  0  0  0  0  0  0  0  0
  -22.7720  -13.6300   21.2130 C   0  0  0  0  0  0  0  0  0  0  0  0
  -22.0750  -12.8930   22.0650 N   0  0  0  0  0  0  0  0  0  0  0  0
  -22.3060  -14.6700   20.7410 O   0  0  0  0  0  0  0  0  0  0  0  0
  -22.4730  -12.0590   22.4750 H   0  0  0  0  0  0  0  0  0  0  0  0
  -21.1390  -13.1740   22.3280 H   0  0  0  0  0  0  0  0  0  0  0  0
  -25.3930  -15.3650   20.4220 N   0  0  0  0  0  0  0  0  0  0  0  0
  -24.6760  -16.0410   20.6670 H   0  0  0  0  0  0  0  0  0  0  0  0
  -26.2780  -15.7960   20.1970 H   0  0  0  0  0  0  0  0  0  0  0  0
  -28.5970  -22.6140   19.9820 C   0  0  0  0  0  2  0  0  0  0  0  0
  -29.1090  -24.1230   20.2130 C   0  0  0  0  0  2  0  0  0  0  0  0
  -27.9930  -25.2330   19.8790 C   0  0  0  0  0  2  0  0  0  0  0  0
  -28.1660  -26.6840   20.1250 O   0  0  0  0  0  0  0  0  0  0  0  0
  -24.4960  -32.0670   23.2260 C   0  0  0  0  0  0  0  0  0  0  0  0
  -27.0240  -27.5120   20.1020 C   0  0  0  0  0  0  0  0  0  0  0  0
  -23.2400  -30.6680   21.6240 C   0  0  0  0  0  3  0  0  0  0  0  0
  -24.6480  -29.1210   20.1590 C   0  0  0  0  0  0  0  0  0  0  0  0
  -25.7660  -30.9890   21.3650 C   0  0  0  0  0  2  0  0  0  0  0  0
  -25.8300  -29.6070   20.7280 C   0  0  0  0  0  0  0  0  0  0  0  0
  -27.0130  -28.8090   20.7040 C   0  0  0  0  0  3  0  0  0  0  0  0
  -25.8120  -27.0820   19.5030 C   0  0  0  0  0  3  0  0  0  0  0  0
  -24.6390  -27.8610   19.5400 C   0  0  0  0  0  3  0  0  0  0  0  0
  -23.4130  -29.9960   20.2370 C   0  0  0  0  0  2  0  0  0  0  0  0
  -24.5200  -31.2600   22.1280 N   0  0  0  0  0  0  0  0  0  0  0  0
  -23.4330  -32.3440   23.8000 O   0  0  0  0  0  0  0  0  0  0  0  0
  -22.6120  -29.6480   22.6030 C   0  0  0  0  0  0  0  0  0  0  0  0
  -21.2930  -29.4310   22.4820 N   0  0  0  0  0  0  0  0  0  0  0  0
  -23.3080  -29.0610   23.4340 O   0  0  0  0  0  0  0  0  0  0  0  0
  -20.7810  -29.9580   21.7870 H   0  0  0  0  0  0  0  0  0  0  0  0
  -17.9600  -28.1260   22.9770 C   0  0  0  0  0  0  0  0  0  0  0  0
  -20.5040  -28.4820   23.2710 C   0  0  0  0  0  3  0  0  0  0  0  0
  -20.6650  -27.0400   22.7380 C   0  0  0  0  0  2  0  0  0  0  0  0
  -19.5890  -26.6500   21.7200 C   0  0  0  0  0  2  0  0  0  0  0  0
  -18.1940  -26.7640   22.3430 C   0  0  0  0  0  2  0  0  0  0  0  0
  -19.0450  -28.9370   23.3980 C   0  0  0  0  0  0  0  0  0  0  0  0
  -18.7750  -30.2110   23.9450 C   0  0  0  0  0  3  0  0  0  0  0  0
  -17.4520  -30.6700   24.0850 C   0  0  0  0  0  3  0  0  0  0  0  0
  -16.3800  -29.8550   23.6820 C   0  0  0  0  0  3  0  0  0  0  0  0
  -16.6340  -28.5850   23.1330 C   0  0  0  0  0  3  0  0  0  0  0  0
  -25.7990  -32.7010   23.8030 C   0  0  0  0  0  3  0  0  0  0  0  0
  -25.5020  -34.0980   24.1420 N   0  0  0  0  0  0  0  0  0  0  0  0
  -25.8340  -35.1550   23.3840 C   0  0  0  0  0  0  0  0  0  0  0  0
  -26.4890  -35.0520   22.3450 O   0  0  0  0  0  0  0  0  0  0  0  0
  -24.9270  -34.2470   24.9550 H   0  0  0  0  0  0  0  0  0  0  0  0
  -24.1350  -36.9840   23.0400 C   0  0  0  0  0  1  0  0  0  0  0  0
  -25.3590  -36.5440   23.8570 C   0  0  0  0  0  3  0  0  0  0  0  0
  -27.4900  -37.3960   24.7380 C   0  0  0  0  0  1  0  0  0  0  0  0
  -26.4070  -37.5850   23.7790 N   0  0  0  0  0  0  0  0  0  0  0  0
  -26.0050  -38.5040   23.9360 H   0  0  0  0  0  0  0  0  0  0  0  0
  -26.3610  -31.9300   25.0590 C   0  0  1  0  0  0  0  0  0  0  0  0
  -25.3000  -31.6790   26.1550 C   0  0  0  0  0  1  0  0  0  0  0  0
  -26.9480  -30.5580   24.6430 C   0  0  0  0  0  1  0  0  0  0  0  0
  -27.5150  -32.7370   25.6980 C   0  0  0  0  0  1  0  0  0  0  0  0
  2  1  2  0
  3 11  1  0
  3  4  1  0
  4  1  1  0
  4  9  1  0
  5  3  1  0
  5  2  1  0
  6  5  1  0
  8  9  1  0
  9  7  1  0
 11 10  1  0
 11 20  1  0
 12 18  1  0
 12 20  1  0
 13 18  1  0
 14 15  1  0
 14 13  1  0
 16 15  1  0
 16 25  1  0
 16 17  1  0
 18 17  1  0
 19 12  2  0
 20 21  1  0
 22 23  2  0
 23 42  1  0
 24 23  1  0
 24 27  1  0
 25 26  1  0
 25 22  1  0
 26 24  2  0
 27 28  1  0
 28 29  2  0
 30 33  1  0
 30 29  1  0
 31 30  2  0
 32 31  1  0
 32 27  2  0
 33 34  1  0
 34 35  1  0
 35 36  2  0
 37 36  1  0
 37 41  1  0
 38 37  2  0
 39 34  2  0
 39 38  1  0
 40 39  1  0
 42 43  1  0
 43 46  1  0
 43 45  1  0
 44 42  2  0
 47 22  1  0
 47 48  1  0
 49 47  1  0
 50 51  1  0
 50  2  1  0
 52 53  1  0
 52 51  1  0
 54 65  2  0
 55 53  1  0
 55 60  1  0
 56 64  1  0
 56 66  1  0
 57 63  1  0
 57 59  1  0
 58 64  1  0
 59 58  1  0
 60 59  2  0
 61 62  1  0
 61 55  2  0
 62 57  2  0
 63 56  1  0
 64 54  1  0
 66 68  2  0
 67 66  1  0
 69 67  1  0
 70 79  2  0
 70 75  1  0
 71 67  1  0
 71 75  1  0
 72 71  1  0
 73 74  1  0
 73 72  1  0
 74 70  1  0
 75 76  2  0
 76 77  1  0
 78 77  2  0
 79 78  1  0
 80 54  1  0
 80 81  1  0
 80 90  1  0
 81 84  1  0
 82 86  1  0
 82 81  1  0
 83 82  2  0
 86 85  1  0
 88 86  1  0
 88 89  1  0
 88 87  1  0
 90 93  1  1
 90 91  1  0
 92 90  1  0
M  ISO  4  12 100  20 100  52 101  53 101
M  END
>  <TORSDO>  (80) 
F 21

>  <SCORE>  (80) 
-13.263

>  <name>  (80) 
81

>  <ligand_id>  (80) 
81

>  <original_smiles>  (80) 
[H]c1c([H])c([H])c2c(c1[H])C([H])([H])C([H])([H])C([H])([H])C2([H])N([H])C(=O)C1([H])N(C(=O)C([H])(N([H])C(=O)C([H])(N([H])C([H])([H])[H])C([H])([H])[H])C(C([H])([H])[H])(C([H])([H])[H])C([H])([H])[H])C([H])([H])c2c([H])c(OC([H])([H])C([H])([H])C([H])([H])c3c([H])n(C([H])(C([H])([H])[H])C([H])([H])[H])c(C([H])(N([H])C(=O)N4C([H])([H])C([H])([H])C([H])([H])C([H])(n5nc(-c6c([H])c([H])c(Oc7c([H])c([H])c(F)c([H])c7F)c([H])c6[H])c(C(=O)N([H])[H])c5N([H])[H])C4([H])[H])C([H])([H])[H])[n+]3[H])c([H])c([H])c2C1([H])[H]

>  <smiles>  (80) 
[H]c1c([H])c([H])c2c(c1[H])C([H])([H])C([H])([H])C([H])([H])C2([H])N([H])C(=O)C1([H])N(C(=O)C([H])(N([H])C(=O)C([H])(N([H])C([H])([H])[H])C([H])([H])[H])C(C([H])([H])[H])(C([H])([H])[H])C([H])([H])[H])C([H])([H])c2c([H])c(OC([H])([H])C([H])([H])C([H])([H])c3c([H])n(C([H])(C([H])([H])[H])C([H])([H])[H])c(C([H])(N([H])C(=O)N4C([H])([H])C([H])([H])C([H])([H])C([H])(n5nc(-c6c([H])c([H])c(Oc7c([H])c([H])c(F)c([H])c7F)c([H])c6[H])c(C(=O)N([H])[H])c5N([H])[H])C4([H])[H])C([H])([H])[H])[n+]3[H])c([H])c([H])c2C1([H])[H]

$$$$
82:0:0
     RDKit          3D

 97105  0  0  1  0  0  0  0  0999 V2000
  -26.7110  -25.5550   17.8670 C   0  0  0  0  0  1  0  0  0  0  0  0
  -28.1570  -25.5340   18.3930 C   0  0  0  0  0  3  0  0  0  0  0  0
  -30.4680  -25.0500   17.4250 C   0  0  0  0  0  3  0  0  0  0  0  0
  -31.3910  -25.1430   16.3710 C   0  0  0  0  0  3  0  0  0  0  0  0
  -28.8820  -26.2090   16.0180 C   0  0  0  0  0  3  0  0  0  0  0  0
  -29.1810  -25.5990   17.2530 C   0  0  0  0  0  0  0  0  0  0  0  0
  -31.0030  -25.7850   15.1820 C   0  0  0  0  0  0  0  0  0  0  0  0
  -29.7630  -26.2870   14.9990 N   0  0  0  0  0  0  0  0  0  0  0  0
  -32.0100  -26.0070   14.0590 C   0  0  0  0  0  2  0  0  0  0  0  0
  -32.7730  -27.2070   14.2200 O   0  0  0  0  0  0  0  0  0  0  0  0
  -35.0500  -27.4290   20.9390 C   0  0  0  0  0  0  0  0  0  0  0  0
  -32.7150  -27.8930   15.4150 C   0  0  0  0  0  0  0  0  0  0  0  0
  -33.2500  -29.0260   20.3720 C   0  0  0  0  0  3  0  0  0  0  0  0
  -32.7210  -29.2620   17.8900 C   0  0  0  0  0  0  0  0  0  0  0  0
  -34.8800  -28.2070   18.5800 C   0  0  0  0  0  2  0  0  0  0  0  0
  -33.7650  -28.3870   17.5720 C   0  0  0  0  0  0  0  0  0  0  0  0
  -33.7660  -27.7010   16.3380 C   0  0  0  0  0  3  0  0  0  0  0  0
  -31.6720  -28.7900   15.7510 C   0  0  0  0  0  3  0  0  0  0  0  0
  -31.6660  -29.4640   16.9850 C   0  0  0  0  0  3  0  0  0  0  0  0
  -32.7990  -29.9670   19.2240 C   0  0  0  0  0  2  0  0  0  0  0  0
  -34.4140  -28.1650   19.9850 N   0  0  0  0  0  0  0  0  0  0  0  0
  -34.7090  -27.4910   22.1280 O   0  0  0  0  0  0  0  0  0  0  0  0
  -32.0240  -28.2170   20.8530 C   0  0  0  0  0  0  0  0  0  0  0  0
  -31.4820  -28.5950   22.0210 N   0  0  0  0  0  0  0  0  0  0  0  0
  -31.5670  -27.2950   20.1720 O   0  0  0  0  0  0  0  0  0  0  0  0
  -31.9210  -29.3540   22.5240 H   0  0  0  0  0  0  0  0  0  0  0  0
  -28.8600  -29.2030   24.4290 C   0  0  0  0  0  0  0  0  0  0  0  0
  -30.3020  -28.0040   22.6520 C   0  0  0  0  0  3  0  0  0  0  0  0
  -29.0670  -28.1070   21.7270 C   0  0  0  0  0  2  0  0  0  0  0  0
  -28.2210  -29.3570   21.9860 C   0  0  0  0  0  2  0  0  0  0  0  0
  -27.7250  -29.3800   23.4350 C   0  0  0  0  0  2  0  0  0  0  0  0
  -30.0760  -28.5710   24.0580 C   0  0  0  0  0  0  0  0  0  0  0  0
  -31.1120  -28.4640   25.0090 C   0  0  0  0  0  3  0  0  0  0  0  0
  -30.9480  -28.9700   26.3130 C   0  0  0  0  0  3  0  0  0  0  0  0
  -29.7360  -29.5790   26.6810 C   0  0  0  0  0  3  0  0  0  0  0  0
  -28.6950  -29.6920   25.7420 C   0  0  0  0  0  3  0  0  0  0  0  0
  -36.2510  -26.4950   20.5860 C   0  0  0  0  0  3  0  0  0  0  0  0
  -35.8020  -25.0940   20.0160 C   0  0  1  0  0  0  0  0  0  0  0  0
  -36.2270  -23.8980   20.8980 C   0  0  0  0  0  1  0  0  0  0  0  0
  -34.2640  -25.0390   19.8550 C   0  0  0  0  0  1  0  0  0  0  0  0
  -36.4010  -24.8860   18.6060 C   0  0  0  0  0  1  0  0  0  0  0  0
  -37.0530  -26.3280   21.8050 N   0  0  0  0  0  0  0  0  0  0  0  0
  -38.1550  -27.0340   22.0910 C   0  0  0  0  0  0  0  0  0  0  0  0
  -38.6480  -27.8540   21.3110 O   0  0  0  0  0  0  0  0  0  0  0  0
  -36.6790  -25.7140   22.5130 H   0  0  0  0  0  0  0  0  0  0  0  0
  -38.5300  -27.9840   24.3890 C   0  0  0  0  0  1  0  0  0  0  0  0
  -38.8170  -26.7920   23.4610 C   0  0  0  0  0  3  0  0  0  0  0  0
  -40.6240  -25.2040   22.9750 C   0  0  0  0  0  1  0  0  0  0  0  0
  -40.2750  -26.5640   23.3770 N   0  0  0  0  0  0  0  0  0  0  0  0
  -40.7220  -26.7540   24.2700 H   0  0  0  0  0  0  0  0  0  0  0  0
  -28.3810  -24.4130   19.3460 N   0  0  0  0  0  4  0  0  0  0  0  0
  -28.2360  -23.5550   18.8360 H   0  0  0  0  0  0  0  0  0  0  0  0
  -29.3470  -24.4180   19.6340 H   0  0  0  0  0  0  0  0  0  0  0  0
  -27.5310  -24.3950   20.5620 C   0  0  0  0  0  2  0  0  0  0  0  0
  -26.7650  -23.0710   20.7500 C   0  0  0  0  0  2  0  0  0  0  0  0
  -27.2060  -22.0120   19.7120 C   0  0  0  0  0  2  0  0  0  0  0  0
  -27.6800  -19.5550   19.4250 C   0  0  0  0  0  1  0  0  0  0  0  0
  -27.8890  -20.7870   20.2330 N   0  0  1  0  0  4  0  0  0  0  0  0
  -27.4580  -20.6050   21.1290 H   0  0  0  0  0  0  0  0  0  0  0  0
  -29.3290  -21.0680   20.4980 C   0  0  0  0  0  2  0  0  0  0  0  0
  -30.2450  -20.9930   19.2580 C   0  0  0  0  0  2  0  0  0  0  0  0
  -31.7130  -21.2510   19.6290 C   0  0  0  0  0  0  0  0  0  0  0  0
  -33.8230  -20.4740   20.6640 C   0  0  0  0  0  2  0  0  0  0  0  0
  -34.8260  -19.9130   19.6410 C   0  0  0  0  0  2  0  0  0  0  0  0
  -34.5500  -18.4250   19.3570 C   0  0  0  0  0  2  0  0  0  0  0  0
  -33.0590  -18.1560   19.0290 C   0  0  0  0  0  3  0  0  0  0  0  0
  -32.1420  -18.8120   20.0850 C   0  0  0  0  0  2  0  0  0  0  0  0
  -32.4610  -20.2480   20.1580 N   0  0  0  0  0  0  0  0  0  0  0  0
  -32.1510  -22.3980   19.4830 O   0  0  0  0  0  0  0  0  0  0  0  0
  -32.1680  -16.0360   17.8650 C   0  0  0  0  0  0  0  0  0  0  0  0
  -32.2300  -14.7130   18.2060 C   0  0  0  0  0  0  0  0  0  0  0  0
  -32.9160  -14.6590   19.4590 C   0  0  0  0  0  0  0  0  0  0  0  0
  -32.7900  -16.7260   18.8960 N   0  0  0  0  0  0  0  0  0  0  0  0
  -33.1920  -15.8860   19.8820 N   0  0  0  0  0  0  0  0  0  0  0  0
  -33.3770  -13.5110   20.2490 C   0  0  0  0  0  0  0  0  0  0  0  0
  -32.5080  -12.8140   21.1150 C   0  0  0  0  0  3  0  0  0  0  0  0
  -32.9700  -11.7020   21.8510 C   0  0  0  0  0  3  0  0  0  0  0  0
  -34.3130  -11.2740   21.7230 C   0  0  0  0  0  0  0  0  0  0  0  0
  -35.1810  -11.9850   20.8760 C   0  0  0  0  0  3  0  0  0  0  0  0
  -34.7200  -13.0950   20.1490 C   0  0  0  0  0  3  0  0  0  0  0  0
  -34.8560  -10.2200   22.4190 O   0  0  0  0  0  0  0  0  0  0  0  0
  -34.2110   -9.0120   22.5140 C   0  0  0  0  0  0  0  0  0  0  0  0
  -34.4040   -7.9870   21.5630 C   0  0  0  0  0  3  0  0  0  0  0  0
  -33.7740   -6.7390   21.7370 C   0  0  0  0  0  3  0  0  0  0  0  0
  -32.9640   -6.5090   22.8640 C   0  0  0  0  0  0  0  0  0  0  0  0
  -32.7750   -7.5270   23.8160 C   0  0  0  0  0  3  0  0  0  0  0  0
  -33.4010   -8.7740   23.6420 C   0  0  0  0  0  0  0  0  0  0  0  0
  -33.2330   -9.7450   24.5730 F   0  0  0  0  0  0  0  0  0  0  0  0
  -32.3660   -5.3070   23.0360 F   0  0  0  0  0  0  0  0  0  0  0  0
  -31.7740  -13.5500   17.3710 C   0  0  0  0  0  0  0  0  0  0  0  0
  -30.7640  -12.8210   17.8310 N   0  0  0  0  0  0  0  0  0  0  0  0
  -32.2840  -13.3120   16.2770 O   0  0  0  0  0  0  0  0  0  0  0  0
  -30.3280  -13.0270   18.7180 H   0  0  0  0  0  0  0  0  0  0  0  0
  -30.4170  -12.0460   17.2830 H   0  0  0  0  0  0  0  0  0  0  0  0
  -31.6560  -16.7070   16.7580 N   0  0  0  0  0  0  0  0  0  0  0  0
  -31.3200  -16.1880   15.9540 H   0  0  0  0  0  0  0  0  0  0  0  0
  -31.8920  -17.6650   16.5350 H   0  0  0  0  0  0  0  0  0  0  0  0
  2  1  1  0
  2 51  1  0
  4  3  2  0
  5  6  2  0
  6  3  1  0
  6  2  1  0
  7  4  1  0
  8  7  2  0
  8  5  1  0
  9 10  1  0
  9  7  1  0
 10 12  1  0
 11 22  2  0
 12 18  2  0
 12 17  1  0
 13 23  1  0
 14 20  1  0
 15 21  1  0
 16 14  1  0
 16 15  1  0
 17 16  2  0
 18 19  1  0
 19 14  2  0
 20 13  1  0
 21 13  1  0
 21 11  1  0
 23 24  1  0
 24 26  1  0
 25 23  2  0
 27 36  1  0
 28 24  1  0
 28 32  1  0
 29 30  1  0
 29 28  1  0
 30 31  1  0
 31 27  1  0
 32 27  2  0
 32 33  1  0
 33 34  2  0
 34 35  1  0
 36 35  2  0
 37 11  1  0
 37 42  1  0
 38 37  1  0
 38 39  1  1
 40 38  1  0
 41 38  1  0
 42 43  1  0
 42 45  1  0
 43 47  1  0
 44 43  2  0
 47 46  1  0
 48 49  1  0
 49 47  1  0
 49 50  1  0
 51 53  1  0
 51 54  1  0
 52 51  1  0
 54 55  1  0
 56 58  1  0
 56 55  1  0
 57 58  1  0
 58 60  1  0
 58 59  1  1
 61 62  1  0
 61 60  1  0
 62 68  1  0
 64 63  1  0
 65 64  1  0
 66 73  1  0
 66 65  1  0
 66 67  1  0
 67 68  1  0
 68 63  1  0
 69 62  2  0
 70 71  2  0
 70 73  1  0
 71 72  1  0
 72 74  2  0
 72 75  1  0
 73 74  1  0
 75 76  1  0
 76 77  2  0
 78 77  1  0
 78 81  1  0
 79 78  2  0
 80 75  2  0
 80 79  1  0
 81 82  1  0
 82 87  1  0
 83 84  1  0
 83 82  2  0
 84 85  2  0
 85 89  1  0
 85 86  1  0
 87 86  2  0
 87 88  1  0
 90 91  1  0
 90 71  1  0
 91 93  1  0
 92 90  2  0
 94 91  1  0
 95 70  1  0
 96 95  1  0
 97 95  1  0
M  ISO  4   9 101  10 101  61 100  62 100
M  END
>  <TORSDO>  (81) 
F 25

>  <SCORE>  (81) 
-5.440

>  <name>  (81) 
82

>  <ligand_id>  (81) 
82

>  <original_smiles>  (81) 
[H]c1nc(C([H])([H])Oc2c([H])c([H])c3c(c2[H])C([H])([H])N(C(=O)C([H])(N([H])C(=O)C([H])(N([H])C([H])([H])[H])C([H])([H])[H])C(C([H])([H])[H])(C([H])([H])[H])C([H])([H])[H])C([H])(C(=O)N([H])C2([H])c4c([H])c([H])c([H])c([H])c4C([H])([H])C([H])([H])C2([H])[H])C3([H])[H])c([H])c([H])c1C([H])(C([H])([H])[H])[N+]([H])([H])C([H])([H])C([H])([H])C([H])([H])[N+]([H])(C([H])([H])[H])C([H])([H])C([H])([H])C(=O)N1C([H])([H])C([H])([H])C([H])([H])C([H])(n2nc(-c3c([H])c([H])c(Oc4c([H])c([H])c(F)c([H])c4F)c([H])c3[H])c(C(=O)N([H])[H])c2N([H])[H])C1([H])[H]

>  <smiles>  (81) 
[H]c1nc(C([H])([H])Oc2c([H])c([H])c3c(c2[H])C([H])([H])N(C(=O)C([H])(N([H])C(=O)C([H])(N([H])C([H])([H])[H])C([H])([H])[H])C(C([H])([H])[H])(C([H])([H])[H])C([H])([H])[H])C([H])(C(=O)N([H])C2([H])c4c([H])c([H])c([H])c([H])c4C([H])([H])C([H])([H])C2([H])[H])C3([H])[H])c([H])c([H])c1C([H])(C([H])([H])[H])[N+]([H])([H])C([H])([H])C([H])([H])C([H])([H])[N+]([H])(C([H])([H])[H])C([H])([H])C([H])([H])C(=O)N1C([H])([H])C([H])([H])C([H])([H])C([H])(n2nc(-c3c([H])c([H])c(Oc4c([H])c([H])c(F)c([H])c4F)c([H])c3[H])c(C(=O)N([H])[H])c2N([H])[H])C1([H])[H]

$$$$
83:0:0
     RDKit          3D

 92100  0  0  1  0  0  0  0  0999 V2000
  -31.3680  -21.3190   20.2270 C   0  0  0  0  0  3  0  0  0  0  0  0
  -30.4840  -20.3430   20.7620 C   0  0  0  0  0  0  0  0  0  0  0  0
  -29.0320  -22.1130   21.3130 C   0  0  0  0  0  0  0  0  0  0  0  0
  -29.9200  -23.0880   20.7610 C   0  0  0  0  0  0  0  0  0  0  0  0
  -27.7240  -22.5180   21.9640 C   0  0  0  0  0  1  0  0  0  0  0  0
  -31.0940  -22.6580   20.2210 N   0  0  0  0  0  0  0  0  0  0  0  0
  -29.3010  -20.7650   21.2960 N   0  0  0  0  0  0  0  0  0  0  0  0
  -30.6810  -18.8200   20.4500 C   0  0  0  0  0  2  0  0  0  0  0  0
  -30.4310  -17.6580   21.5290 C   0  0  0  0  0  2  0  0  0  0  0  0
  -30.6620  -15.1080   20.9650 C   0  0  0  0  0  0  0  0  0  0  0  0
  -30.5890  -12.8020   19.9950 C   0  0  0  0  0  2  0  0  0  0  0  0
  -29.7400  -12.7140   18.7110 C   0  0  0  0  0  2  0  0  0  0  0  0
  -28.2540  -12.4650   19.0490 C   0  0  0  0  0  2  0  0  0  0  0  0
  -27.7310  -13.3860   20.1760 C   0  0  0  0  0  3  0  0  0  0  0  0
  -28.7210  -13.4710   21.3680 C   0  0  0  0  0  2  0  0  0  0  0  0
  -30.0280  -13.8850   20.8340 N   0  0  0  0  0  0  0  0  0  0  0  0
  -31.8910  -15.1550   20.8790 O   0  0  0  0  0  0  0  0  0  0  0  0
  -29.9410  -16.3100   21.0180 N   0  0  0  0  0  0  0  0  0  0  0  0
  -25.2930  -13.9470   20.7680 C   0  0  0  0  0  0  0  0  0  0  0  0
  -24.2250  -13.1450   21.0530 C   0  0  0  0  0  0  0  0  0  0  0  0
  -24.7260  -11.8090   21.0410 C   0  0  0  0  0  0  0  0  0  0  0  0
  -26.3710  -13.0870   20.5930 N   0  0  0  0  0  0  0  0  0  0  0  0
  -26.0330  -11.8000   20.8270 N   0  0  0  0  0  0  0  0  0  0  0  0
  -24.0290  -10.5290   21.1550 C   0  0  0  0  0  0  0  0  0  0  0  0
  -24.3810   -9.5880   22.1480 C   0  0  0  0  0  3  0  0  0  0  0  0
  -23.6850   -8.3670   22.2500 C   0  0  0  0  0  3  0  0  0  0  0  0
  -22.6240   -8.0790   21.3580 C   0  0  0  0  0  0  0  0  0  0  0  0
  -22.2950   -9.0090   20.3570 C   0  0  0  0  0  3  0  0  0  0  0  0
  -22.9930  -10.2230   20.2520 C   0  0  0  0  0  3  0  0  0  0  0  0
  -21.9070   -6.9080   21.3690 O   0  0  0  0  0  0  0  0  0  0  0  0
  -21.7140   -6.1970   22.5240 C   0  0  0  0  0  0  0  0  0  0  0  0
  -21.0320   -6.7460   23.6330 C   0  0  0  0  0  3  0  0  0  0  0  0
  -20.7950   -5.9550   24.7740 C   0  0  0  0  0  3  0  0  0  0  0  0
  -21.2280   -4.6160   24.8070 C   0  0  0  0  0  0  0  0  0  0  0  0
  -21.9040   -4.0670   23.7030 C   0  0  0  0  0  3  0  0  0  0  0  0
  -22.1430   -4.8550   22.5640 C   0  0  0  0  0  0  0  0  0  0  0  0
  -22.7750   -4.3150   21.4940 F   0  0  0  0  0  0  0  0  0  0  0  0
  -20.9920   -3.8530   25.8990 F   0  0  0  0  0  0  0  0  0  0  0  0
  -22.8000  -13.5840   21.2240 C   0  0  0  0  0  0  0  0  0  0  0  0
  -22.0360  -12.8740   22.0450 N   0  0  0  0  0  0  0  0  0  0  0  0
  -22.3680  -14.5920   20.6660 O   0  0  0  0  0  0  0  0  0  0  0  0
  -22.3960  -12.0600   22.5210 H   0  0  0  0  0  0  0  0  0  0  0  0
  -21.0760  -13.1490   22.2020 H   0  0  0  0  0  0  0  0  0  0  0  0
  -25.4140  -15.3230   20.6150 N   0  0  0  0  0  0  0  0  0  0  0  0
  -24.6050  -15.9330   20.6560 H   0  0  0  0  0  0  0  0  0  0  0  0
  -26.2500  -15.7930   20.2940 H   0  0  0  0  0  0  0  0  0  0  0  0
  -28.6250  -16.5410   20.3970 C   0  0  0  0  0  2  0  0  0  0  0  0
  -27.5220  -17.7390   18.3930 C   0  0  0  0  0  1  0  0  0  0  0  0
  -28.7300  -16.9430   18.8970 C   0  0  0  0  0  2  0  0  0  0  0  0
  -29.7240  -24.6440   20.8650 C   0  0  0  0  0  2  0  0  0  0  0  0
  -28.6440  -25.4030   19.9940 C   0  0  0  0  0  2  0  0  0  0  0  0
  -28.6400  -26.8670   20.1690 O   0  0  0  0  0  0  0  0  0  0  0  0
  -24.6520  -31.9780   23.2440 C   0  0  0  0  0  0  0  0  0  0  0  0
  -27.4510  -27.6050   20.1150 C   0  0  0  0  0  0  0  0  0  0  0  0
  -23.4990  -30.5650   21.5740 C   0  0  0  0  0  3  0  0  0  0  0  0
  -25.0100  -29.0930   20.1250 C   0  0  0  0  0  0  0  0  0  0  0  0
  -26.0210  -30.9900   21.3960 C   0  0  0  0  0  2  0  0  0  0  0  0
  -26.1530  -29.6280   20.7310 C   0  0  0  0  0  0  0  0  0  0  0  0
  -27.3710  -28.8950   20.7160 C   0  0  0  0  0  3  0  0  0  0  0  0
  -26.2860  -27.1120   19.4830 C   0  0  0  0  0  3  0  0  0  0  0  0
  -25.0770  -27.8390   19.4930 C   0  0  0  0  0  3  0  0  0  0  0  0
  -23.7380  -29.9150   20.1840 C   0  0  0  0  0  2  0  0  0  0  0  0
  -24.7420  -31.1940   22.1290 N   0  0  0  0  0  0  0  0  0  0  0  0
  -23.5610  -32.2070   23.7820 O   0  0  0  0  0  0  0  0  0  0  0  0
  -22.8730  -29.5110   22.5170 C   0  0  0  0  0  0  0  0  0  0  0  0
  -21.5590  -29.2730   22.3670 N   0  0  0  0  0  0  0  0  0  0  0  0
  -23.5690  -28.9100   23.3410 O   0  0  0  0  0  0  0  0  0  0  0  0
  -21.0560  -29.8120   21.6760 H   0  0  0  0  0  0  0  0  0  0  0  0
  -18.2390  -27.9010   22.7830 C   0  0  0  0  0  0  0  0  0  0  0  0
  -20.7730  -28.2920   23.1160 C   0  0  0  0  0  3  0  0  0  0  0  0
  -20.9640  -26.8700   22.5400 C   0  0  0  0  0  2  0  0  0  0  0  0
  -19.9050  -26.4930   21.4990 C   0  0  0  0  0  2  0  0  0  0  0  0
  -18.5020  -26.5650   22.1090 C   0  0  0  0  0  2  0  0  0  0  0  0
  -19.3060  -28.7190   23.2420 C   0  0  0  0  0  0  0  0  0  0  0  0
  -19.0070  -29.9680   23.8290 C   0  0  0  0  0  3  0  0  0  0  0  0
  -17.6740  -30.4000   23.9640 C   0  0  0  0  0  3  0  0  0  0  0  0
  -16.6230  -29.5800   23.5220 C   0  0  0  0  0  3  0  0  0  0  0  0
  -16.9050  -28.3330   22.9370 C   0  0  0  0  0  3  0  0  0  0  0  0
  -25.9130  -32.6420   23.8790 C   0  0  0  0  0  3  0  0  0  0  0  0
  -25.5710  -34.0370   24.1930 N   0  0  0  0  0  0  0  0  0  0  0  0
  -25.8930  -35.0890   23.4280 C   0  0  0  0  0  0  0  0  0  0  0  0
  -26.5790  -34.9900   22.4070 O   0  0  0  0  0  0  0  0  0  0  0  0
  -24.9630  -34.1860   24.9840 H   0  0  0  0  0  0  0  0  0  0  0  0
  -24.1380  -36.8470   23.0280 C   0  0  0  0  0  1  0  0  0  0  0  0
  -25.3700  -36.4710   23.8660 C   0  0  0  0  0  3  0  0  0  0  0  0
  -27.4670  -37.4060   24.7370 C   0  0  0  0  0  1  0  0  0  0  0  0
  -26.3860  -37.5420   23.7660 N   0  0  0  0  0  0  0  0  0  0  0  0
  -25.9590  -38.4570   23.8930 H   0  0  0  0  0  0  0  0  0  0  0  0
  -26.4260  -31.8920   25.1700 C   0  0  1  0  0  0  0  0  0  0  0  0
  -25.3220  -31.6380   26.2220 C   0  0  0  0  0  1  0  0  0  0  0  0
  -27.0450  -30.5250   24.7970 C   0  0  0  0  0  1  0  0  0  0  0  0
  -27.5490  -32.7160   25.8430 C   0  0  0  0  0  1  0  0  0  0  0  0
  1  2  1  0
  2  7  2  0
  3  5  1  0
  4 50  1  0
  4  3  2  0
  6  1  2  0
  6  4  1  0
  7  3  1  0
  8  2  1  0
  8  9  1  0
 10 18  1  0
 11 16  1  0
 12 13  1  0
 12 11  1  0
 14 13  1  0
 14 22  1  0
 14 15  1  0
 16 10  1  0
 16 15  1  0
 17 10  2  0
 18  9  1  0
 19 20  2  0
 20 39  1  0
 21 20  1  0
 21 24  1  0
 22 19  1  0
 22 23  1  0
 23 21  2  0
 24 25  1  0
 25 26  2  0
 27 30  1  0
 27 26  1  0
 28 27  2  0
 29 28  1  0
 29 24  2  0
 30 31  1  0
 31 36  2  0
 31 32  1  0
 32 33  2  0
 33 34  1  0
 34 38  1  0
 35 34  2  0
 36 35  1  0
 37 36  1  0
 39 40  1  0
 40 43  1  0
 40 42  1  0
 41 39  2  0
 44 45  1  0
 44 19  1  0
 46 44  1  0
 47 18  1  0
 48 49  1  0
 49 47  1  0
 51 52  1  0
 51 50  1  0
 53 64  2  0
 54 52  1  0
 54 59  1  0
 55 63  1  0
 55 65  1  0
 56 62  1  0
 56 58  1  0
 57 63  1  0
 58 57  1  0
 59 58  2  0
 60 61  1  0
 60 54  2  0
 61 56  2  0
 62 55  1  0
 63 53  1  0
 65 67  2  0
 66 65  1  0
 68 66  1  0
 69 78  2  0
 69 74  1  0
 70 66  1  0
 70 74  1  0
 71 70  1  0
 72 73  1  0
 72 71  1  0
 73 69  1  0
 74 75  2  0
 75 76  1  0
 77 76  2  0
 78 77  1  0
 79 53  1  0
 79 80  1  0
 79 89  1  0
 80 83  1  0
 81 85  1  0
 81 80  1  0
 82 81  2  0
 85 84  1  0
 87 85  1  0
 87 88  1  0
 87 86  1  0
 89 92  1  1
 89 90  1  0
 91 89  1  0
M  ISO  4  10 100  18 100  51 101  52 101
M  END
>  <TORSDO>  (82) 
F 22

>  <SCORE>  (82) 
-12.891

>  <name>  (82) 
83

>  <ligand_id>  (82) 
83

>  <original_smiles>  (82) 
[H]c1nc(C([H])([H])C([H])([H])Oc2c([H])c([H])c3c(c2[H])C([H])([H])N(C(=O)C([H])(N([H])C(=O)C([H])(N([H])C([H])([H])[H])C([H])([H])[H])C(C([H])([H])[H])(C([H])([H])[H])C([H])([H])[H])C([H])(C(=O)N([H])C2([H])c4c([H])c([H])c([H])c([H])c4C([H])([H])C([H])([H])C2([H])[H])C3([H])[H])c(C([H])([H])[H])nc1C([H])([H])C([H])([H])N(C(=O)N1C([H])([H])C([H])([H])C([H])([H])C([H])(n2nc(-c3c([H])c([H])c(Oc4c([H])c([H])c(F)c([H])c4F)c([H])c3[H])c(C(=O)N([H])[H])c2N([H])[H])C1([H])[H])C([H])([H])C([H])([H])C([H])([H])[H]

>  <smiles>  (82) 
[H]c1nc(C([H])([H])C([H])([H])Oc2c([H])c([H])c3c(c2[H])C([H])([H])N(C(=O)C([H])(N([H])C(=O)C([H])(N([H])C([H])([H])[H])C([H])([H])[H])C(C([H])([H])[H])(C([H])([H])[H])C([H])([H])[H])C([H])(C(=O)N([H])C2([H])c4c([H])c([H])c([H])c([H])c4C([H])([H])C([H])([H])C2([H])[H])C3([H])[H])c(C([H])([H])[H])nc1C([H])([H])C([H])([H])N(C(=O)N1C([H])([H])C([H])([H])C([H])([H])C([H])(n2nc(-c3c([H])c([H])c(Oc4c([H])c([H])c(F)c([H])c4F)c([H])c3[H])c(C(=O)N([H])[H])c2N([H])[H])C1([H])[H])C([H])([H])C([H])([H])C([H])([H])[H]

$$$$
84:0:0
     RDKit          3D

 89 97  0  0  1  0  0  0  0  0999 V2000
  -28.3370  -20.6480   20.8620 C   0  0  0  0  0  3  0  0  0  0  0  0
  -29.3730  -20.2170   20.0350 C   0  0  0  0  0  0  0  0  0  0  0  0
  -28.7280  -22.6970   19.7560 C   0  0  0  0  0  3  0  0  0  0  0  0
  -27.9770  -22.0150   20.6660 N   0  0  0  0  0  0  0  0  0  0  0  0
  -29.5520  -21.5620   19.3800 N   0  0  0  0  0  0  0  0  0  0  0  0
  -30.2370  -21.6720   18.6390 H   0  0  0  0  0  0  0  0  0  0  0  0
  -27.2110  -23.8610   22.1880 C   0  0  0  0  0  1  0  0  0  0  0  0
  -26.8240  -22.6580   21.3180 C   0  0  0  0  0  2  0  0  0  0  0  0
  -30.2250  -18.6440   19.9020 C   0  0  0  0  0  2  0  0  0  0  0  0
  -30.7200  -15.6910   20.2080 C   0  0  0  0  0  0  0  0  0  0  0  0
  -30.7700  -13.1750   19.4810 C   0  0  0  0  0  2  0  0  0  0  0  0
  -29.8990  -12.8710   18.2340 C   0  0  0  0  0  2  0  0  0  0  0  0
  -28.4370  -12.5990   18.6330 C   0  0  0  0  0  2  0  0  0  0  0  0
  -27.9420  -13.5980   19.7090 C   0  0  0  0  0  3  0  0  0  0  0  0
  -28.9570  -13.8290   20.8520 C   0  0  0  0  0  2  0  0  0  0  0  0
  -30.1790  -14.3600   20.2230 N   0  0  0  0  0  0  0  0  0  0  0  0
  -31.9430  -15.6690   20.0020 O   0  0  0  0  0  0  0  0  0  0  0  0
  -29.9520  -16.9900   20.2240 N   0  0  0  0  0  0  0  0  0  0  0  0
  -28.9750  -16.8160   20.3990 H   0  0  0  0  0  0  0  0  0  0  0  0
  -25.5810  -14.1740   20.4650 C   0  0  0  0  0  0  0  0  0  0  0  0
  -24.5000  -13.4070   20.7980 C   0  0  0  0  0  0  0  0  0  0  0  0
  -24.9420  -12.0490   20.7260 C   0  0  0  0  0  0  0  0  0  0  0  0
  -26.6070  -13.2870   20.2000 N   0  0  0  0  0  0  0  0  0  0  0  0
  -26.2360  -11.9990   20.4260 N   0  0  0  0  0  0  0  0  0  0  0  0
  -24.1880  -10.7950   20.8640 C   0  0  0  0  0  0  0  0  0  0  0  0
  -24.6050   -9.7750   21.7470 C   0  0  0  0  0  3  0  0  0  0  0  0
  -23.8460   -8.5920   21.8820 C   0  0  0  0  0  3  0  0  0  0  0  0
  -22.6590   -8.4200   21.1330 C   0  0  0  0  0  0  0  0  0  0  0  0
  -22.2620   -9.4300   20.2400 C   0  0  0  0  0  3  0  0  0  0  0  0
  -23.0190  -10.6040   20.1020 C   0  0  0  0  0  3  0  0  0  0  0  0
  -21.8730   -7.2930   21.1780 O   0  0  0  0  0  0  0  0  0  0  0  0
  -21.8470   -6.4780   22.2810 C   0  0  0  0  0  0  0  0  0  0  0  0
  -21.4660   -6.9560   23.5540 C   0  0  0  0  0  3  0  0  0  0  0  0
  -21.3870   -6.0670   24.6450 C   0  0  0  0  0  3  0  0  0  0  0  0
  -21.6800   -4.7030   24.4640 C   0  0  0  0  0  0  0  0  0  0  0  0
  -22.0560   -4.2240   23.1960 C   0  0  0  0  0  3  0  0  0  0  0  0
  -22.1370   -5.1090   22.1080 C   0  0  0  0  0  0  0  0  0  0  0  0
  -22.4770   -4.6390   20.8840 F   0  0  0  0  0  0  0  0  0  0  0  0
  -21.5960   -3.8480   25.5100 F   0  0  0  0  0  0  0  0  0  0  0  0
  -23.1110  -13.9040   21.0630 C   0  0  0  0  0  0  0  0  0  0  0  0
  -22.3620  -13.2070   21.9080 N   0  0  0  0  0  0  0  0  0  0  0  0
  -22.7030  -14.9500   20.5610 O   0  0  0  0  0  0  0  0  0  0  0  0
  -22.7110  -12.3620   22.3390 H   0  0  0  0  0  0  0  0  0  0  0  0
  -21.4280  -13.5210   22.1290 H   0  0  0  0  0  0  0  0  0  0  0  0
  -25.7690  -15.5470   20.3350 N   0  0  0  0  0  0  0  0  0  0  0  0
  -25.0050  -16.2040   20.4540 H   0  0  0  0  0  0  0  0  0  0  0  0
  -26.6100  -15.9840   19.9790 H   0  0  0  0  0  0  0  0  0  0  0  0
  -28.3560  -24.3450   19.1130 C   0  0  0  0  0  2  0  0  0  0  0  0
  -28.4430  -25.9660   19.5830 O   0  0  0  0  0  0  0  0  0  0  0  0
  -24.6250  -31.6900   22.8600 C   0  0  0  0  0  0  0  0  0  0  0  0
  -27.4110  -27.0740   19.5350 C   0  0  0  0  0  0  0  0  0  0  0  0
  -23.4970  -30.3140   21.1660 C   0  0  0  0  0  3  0  0  0  0  0  0
  -25.0130  -28.8680   19.6340 C   0  0  0  0  0  0  0  0  0  0  0  0
  -26.0520  -30.6540   21.0170 C   0  0  0  0  0  2  0  0  0  0  0  0
  -26.1890  -29.2860   20.2710 C   0  0  0  0  0  0  0  0  0  0  0  0
  -27.3730  -28.4090   20.2050 C   0  0  0  0  0  3  0  0  0  0  0  0
  -26.2010  -26.8440   18.8370 C   0  0  0  0  0  3  0  0  0  0  0  0
  -25.0490  -27.6750   18.8960 C   0  0  0  0  0  3  0  0  0  0  0  0
  -23.7480  -29.7220   19.7510 C   0  0  0  0  0  2  0  0  0  0  0  0
  -24.7460  -30.9150   21.7320 N   0  0  0  0  0  0  0  0  0  0  0  0
  -23.5260  -31.8900   23.4050 O   0  0  0  0  0  0  0  0  0  0  0  0
  -22.8740  -29.2310   22.0860 C   0  0  0  0  0  0  0  0  0  0  0  0
  -21.5460  -29.0280   22.0040 N   0  0  0  0  0  0  0  0  0  0  0  0
  -23.5930  -28.5770   22.8460 O   0  0  0  0  0  0  0  0  0  0  0  0
  -21.0170  -29.6050   21.3650 H   0  0  0  0  0  0  0  0  0  0  0  0
  -18.2250  -27.6890   22.6140 C   0  0  0  0  0  0  0  0  0  0  0  0
  -20.7900  -28.0080   22.7420 C   0  0  0  0  0  3  0  0  0  0  0  0
  -20.8890  -26.6310   22.0460 C   0  0  0  0  0  2  0  0  0  0  0  0
  -19.7350  -26.3600   21.0770 C   0  0  0  0  0  2  0  0  0  0  0  0
  -18.3930  -26.4090   21.8130 C   0  0  0  0  0  2  0  0  0  0  0  0
  -19.3500  -28.4480   23.0380 C   0  0  0  0  0  0  0  0  0  0  0  0
  -19.1360  -29.6430   23.7570 C   0  0  0  0  0  3  0  0  0  0  0  0
  -17.8320  -30.0820   24.0530 C   0  0  0  0  0  3  0  0  0  0  0  0
  -16.7240  -29.3220   23.6410 C   0  0  0  0  0  3  0  0  0  0  0  0
  -16.9210  -28.1270   22.9270 C   0  0  0  0  0  3  0  0  0  0  0  0
  -25.8630  -32.3800   23.5130 C   0  0  0  0  0  3  0  0  0  0  0  0
  -26.4410  -31.5790   24.7450 C   0  0  1  0  0  0  0  0  0  0  0  0
  -25.3780  -31.2260   25.8130 C   0  0  0  0  0  1  0  0  0  0  0  0
  -27.0990  -30.2560   24.2950 C   0  0  0  0  0  1  0  0  0  0  0  0
  -27.5510  -32.4090   25.4320 C   0  0  0  0  0  1  0  0  0  0  0  0
  -25.4550  -33.7310   23.9400 N   0  0  0  0  0  0  0  0  0  0  0  0
  -25.7400  -34.8670   23.2890 C   0  0  0  0  0  0  0  0  0  0  0  0
  -26.4380  -34.8910   22.2710 O   0  0  0  0  0  0  0  0  0  0  0  0
  -24.8310  -33.7800   24.7310 H   0  0  0  0  0  0  0  0  0  0  0  0
  -23.9160  -36.5900   23.0570 C   0  0  0  0  0  1  0  0  0  0  0  0
  -25.1680  -36.1840   23.8540 C   0  0  0  0  0  3  0  0  0  0  0  0
  -27.2300  -37.1230   24.8020 C   0  0  0  0  0  1  0  0  0  0  0  0
  -26.1380  -37.3020   23.8490 N   0  0  0  0  0  0  0  0  0  0  0  0
  -25.6750  -38.1820   24.0570 H   0  0  0  0  0  0  0  0  0  0  0  0
  2  1  2  0
  3 48  1  0
  3  4  1  0
  4  1  1  0
  4  8  1  0
  5  3  1  0
  5  2  1  0
  6  5  1  0
  8  7  1  0
  9  2  1  0
  9 18  1  0
 10 16  1  0
 10 18  1  0
 11 16  1  0
 12 13  1  0
 12 11  1  0
 14 13  1  0
 14 23  1  0
 14 15  1  0
 16 15  1  0
 17 10  2  0
 18 19  1  0
 20 21  2  0
 21 40  1  0
 22 21  1  0
 22 25  1  0
 23 24  1  0
 23 20  1  0
 24 22  2  0
 25 26  1  0
 26 27  2  0
 28 31  1  0
 28 27  1  0
 29 28  2  0
 30 29  1  0
 30 25  2  0
 31 32  1  0
 32 33  1  0
 33 34  2  0
 35 34  1  0
 35 39  1  0
 36 35  2  0
 37 32  2  0
 37 36  1  0
 38 37  1  0
 40 41  1  0
 41 44  1  0
 41 43  1  0
 42 40  2  0
 45 46  1  0
 45 20  1  0
 47 45  1  0
 48 49  1  0
 50 61  2  0
 51 49  1  0
 51 56  1  0
 52 60  1  0
 52 62  1  0
 53 59  1  0
 53 55  1  0
 54 60  1  0
 55 54  1  0
 56 55  2  0
 57 58  1  0
 57 51  2  0
 58 53  2  0
 59 52  1  0
 60 50  1  0
 62 64  2  0
 63 62  1  0
 65 63  1  0
 66 75  2  0
 66 71  1  0
 67 63  1  0
 67 71  1  0
 68 67  1  0
 69 70  1  0
 69 68  1  0
 70 66  1  0
 71 72  2  0
 72 73  1  0
 74 73  2  0
 75 74  1  0
 76 50  1  0
 76 81  1  0
 76 77  1  0
 77 80  1  1
 77 78  1  0
 79 77  1  0
 81 84  1  0
 82 86  1  0
 82 81  1  0
 83 82  2  0
 86 85  1  0
 88 86  1  0
 88 89  1  0
 88 87  1  0
M  ISO  4  10 100  18 100  48 101  49 101
M  END
>  <TORSDO>  (83) 
F 19

>  <SCORE>  (83) 
-14.573

>  <name>  (83) 
84

>  <ligand_id>  (83) 
84

>  <original_smiles>  (83) 
[H]c1c([H])c([H])c2c(c1[H])C([H])([H])C([H])([H])C([H])([H])C2([H])N([H])C(=O)C1([H])N(C(=O)C([H])(N([H])C(=O)C([H])(N([H])C([H])([H])[H])C([H])([H])[H])C(C([H])([H])[H])(C([H])([H])[H])C([H])([H])[H])C([H])([H])c2c([H])c(OC([H])([H])c3n(C([H])([H])C([H])([H])[H])c([H])c(C([H])([H])N([H])C(=O)N4C([H])([H])C([H])([H])C([H])([H])C([H])(n5nc(-c6c([H])c([H])c(Oc7c([H])c([H])c(F)c([H])c7F)c([H])c6[H])c(C(=O)N([H])[H])c5N([H])[H])C4([H])[H])[n+]3[H])c([H])c([H])c2C1([H])[H]

>  <smiles>  (83) 
[H]c1c([H])c([H])c2c(c1[H])C([H])([H])C([H])([H])C([H])([H])C2([H])N([H])C(=O)C1([H])N(C(=O)C([H])(N([H])C(=O)C([H])(N([H])C([H])([H])[H])C([H])([H])[H])C(C([H])([H])[H])(C([H])([H])[H])C([H])([H])[H])C([H])([H])c2c([H])c(OC([H])([H])c3n(C([H])([H])C([H])([H])[H])c([H])c(C([H])([H])N([H])C(=O)N4C([H])([H])C([H])([H])C([H])([H])C([H])(n5nc(-c6c([H])c([H])c(Oc7c([H])c([H])c(F)c([H])c7F)c([H])c6[H])c(C(=O)N([H])[H])c5N([H])[H])C4([H])[H])[n+]3[H])c([H])c([H])c2C1([H])[H]

$$$$
85:0:0
     RDKit          3D

 89 97  0  0  1  0  0  0  0  0999 V2000
  -29.6330  -20.4070   20.9600 C   0  0  0  0  0  3  0  0  0  0  0  0
  -28.4180  -21.5380   19.5670 C   0  0  0  0  0  3  0  0  0  0  0  0
  -29.1160  -19.5180   20.0250 C   0  0  0  0  0  0  0  0  0  0  0  0
  -28.3470  -20.2760   19.1340 N   0  0  0  0  0  0  0  0  0  0  0  0
  -29.1830  -21.7080   20.6550 N   0  0  0  0  0  0  0  0  0  0  0  0
  -29.1940  -17.9870   19.8350 C   0  0  0  0  0  2  0  0  0  0  0  0
  -30.0580  -17.1100   20.8160 C   0  0  0  0  0  2  0  0  0  0  0  0
  -30.5930  -14.5970   20.4380 C   0  0  0  0  0  0  0  0  0  0  0  0
  -30.3690  -12.3870   19.3430 C   0  0  0  0  0  2  0  0  0  0  0  0
  -29.4180  -12.5440   18.1370 C   0  0  0  0  0  2  0  0  0  0  0  0
  -27.9460  -12.3920   18.5700 C   0  0  0  0  0  2  0  0  0  0  0  0
  -27.6020  -13.2420   19.8200 C   0  0  0  0  0  3  0  0  0  0  0  0
  -28.6600  -13.0480   20.9280 C   0  0  0  0  0  2  0  0  0  0  0  0
  -29.9700  -13.3840   20.3480 N   0  0  0  0  0  0  0  0  0  0  0  0
  -31.7600  -14.7670   20.0780 O   0  0  0  0  0  0  0  0  0  0  0  0
  -29.7790  -15.6400   20.7480 N   0  0  0  0  0  0  0  0  0  0  0  0
  -28.8300  -15.3640   20.9540 H   0  0  0  0  0  0  0  0  0  0  0  0
  -25.2090  -13.8560   20.5280 C   0  0  0  0  0  0  0  0  0  0  0  0
  -24.1370  -13.0880   20.8980 C   0  0  0  0  0  0  0  0  0  0  0  0
  -24.5960  -11.7360   20.8720 C   0  0  0  0  0  0  0  0  0  0  0  0
  -26.2510  -12.9720   20.3020 N   0  0  0  0  0  0  0  0  0  0  0  0
  -25.8880  -11.6920   20.5680 N   0  0  0  0  0  0  0  0  0  0  0  0
  -23.8680  -10.4750   21.0670 C   0  0  0  0  0  0  0  0  0  0  0  0
  -24.3090   -9.5020   21.9900 C   0  0  0  0  0  3  0  0  0  0  0  0
  -23.5830   -8.3060   22.1690 C   0  0  0  0  0  3  0  0  0  0  0  0
  -22.4030   -8.0740   21.4240 C   0  0  0  0  0  0  0  0  0  0  0  0
  -21.9820   -9.0350   20.4880 C   0  0  0  0  0  3  0  0  0  0  0  0
  -22.7080  -10.2240   20.3080 C   0  0  0  0  0  3  0  0  0  0  0  0
  -21.6480   -6.9290   21.5130 O   0  0  0  0  0  0  0  0  0  0  0  0
  -21.6170   -6.1730   22.6560 C   0  0  0  0  0  0  0  0  0  0  0  0
  -21.2300   -6.7190   23.9010 C   0  0  0  0  0  3  0  0  0  0  0  0
  -21.1470   -5.8910   25.0370 C   0  0  0  0  0  3  0  0  0  0  0  0
  -21.4440   -4.5180   24.9320 C   0  0  0  0  0  0  0  0  0  0  0  0
  -21.8260   -3.9730   23.6930 C   0  0  0  0  0  3  0  0  0  0  0  0
  -21.9100   -4.7990   22.5590 C   0  0  0  0  0  0  0  0  0  0  0  0
  -22.2580   -4.2640   21.3630 F   0  0  0  0  0  0  0  0  0  0  0  0
  -21.3560   -3.7200   26.0210 F   0  0  0  0  0  0  0  0  0  0  0  0
  -22.7410  -13.5690   21.1660 C   0  0  0  0  0  0  0  0  0  0  0  0
  -22.0110  -12.8740   22.0330 N   0  0  0  0  0  0  0  0  0  0  0  0
  -22.3070  -14.5950   20.6440 O   0  0  0  0  0  0  0  0  0  0  0  0
  -22.3810  -12.0440   22.4730 H   0  0  0  0  0  0  0  0  0  0  0  0
  -21.0760  -13.1750   22.2610 H   0  0  0  0  0  0  0  0  0  0  0  0
  -25.3790  -15.2250   20.3430 N   0  0  0  0  0  0  0  0  0  0  0  0
  -24.6120  -15.8800   20.4420 H   0  0  0  0  0  0  0  0  0  0  0  0
  -26.2180  -15.6510   19.9680 H   0  0  0  0  0  0  0  0  0  0  0  0
  -29.4220  -22.9380   21.4500 C   0  0  0  0  0  2  0  0  0  0  0  0
  -29.5020  -24.3560   20.7490 C   0  0  0  0  0  2  0  0  0  0  0  0
  -28.1820  -25.1650   20.5250 C   0  0  0  0  0  2  0  0  0  0  0  0
  -28.3730  -26.5890   20.2520 O   0  0  0  0  0  0  0  0  0  0  0  0
  -24.5950  -31.8890   23.2390 C   0  0  0  0  0  0  0  0  0  0  0  0
  -27.2260  -27.3790   20.2070 C   0  0  0  0  0  0  0  0  0  0  0  0
  -23.3920  -30.4860   21.5980 C   0  0  0  0  0  3  0  0  0  0  0  0
  -24.8450  -28.9400   20.1830 C   0  0  0  0  0  0  0  0  0  0  0  0
  -25.9220  -30.8290   21.4070 C   0  0  0  0  0  2  0  0  0  0  0  0
  -26.0100  -29.4520   20.7700 C   0  0  0  0  0  0  0  0  0  0  0  0
  -27.2040  -28.6830   20.7720 C   0  0  0  0  0  3  0  0  0  0  0  0
  -26.0390  -26.8990   19.6060 C   0  0  0  0  0  3  0  0  0  0  0  0
  -24.8580  -27.6630   19.5980 C   0  0  0  0  0  3  0  0  0  0  0  0
  -23.6050  -29.8040   20.2200 C   0  0  0  0  0  2  0  0  0  0  0  0
  -24.6560  -31.0820   22.1410 N   0  0  0  0  0  0  0  0  0  0  0  0
  -23.5130  -32.1650   23.7780 O   0  0  0  0  0  0  0  0  0  0  0  0
  -22.7300  -29.4730   22.5600 C   0  0  0  0  0  0  0  0  0  0  0  0
  -21.4020  -29.2990   22.4350 N   0  0  0  0  0  0  0  0  0  0  0  0
  -23.4100  -28.8440   23.3750 O   0  0  0  0  0  0  0  0  0  0  0  0
  -20.9150  -29.8590   21.7490 H   0  0  0  0  0  0  0  0  0  0  0  0
  -18.0250  -28.1210   22.9500 C   0  0  0  0  0  0  0  0  0  0  0  0
  -20.5860  -28.3670   23.2130 C   0  0  0  0  0  3  0  0  0  0  0  0
  -20.6790  -26.9330   22.6420 C   0  0  0  0  0  2  0  0  0  0  0  0
  -19.5730  -26.6160   21.6310 C   0  0  0  0  0  2  0  0  0  0  0  0
  -18.1930  -26.7720   22.2750 C   0  0  0  0  0  2  0  0  0  0  0  0
  -19.1490  -28.8780   23.3770 C   0  0  0  0  0  0  0  0  0  0  0  0
  -18.9390  -30.1440   23.9660 C   0  0  0  0  0  3  0  0  0  0  0  0
  -17.6360  -30.6520   24.1360 C   0  0  0  0  0  3  0  0  0  0  0  0
  -16.5270  -29.8930   23.7250 C   0  0  0  0  0  3  0  0  0  0  0  0
  -16.7230  -28.6310   23.1370 C   0  0  0  0  0  3  0  0  0  0  0  0
  -25.8810  -32.5210   23.8540 C   0  0  0  0  0  3  0  0  0  0  0  0
  -25.5710  -33.9190   24.1810 N   0  0  0  0  0  0  0  0  0  0  0  0
  -25.9080  -34.9720   23.4240 C   0  0  0  0  0  0  0  0  0  0  0  0
  -26.5760  -34.8660   22.3930 O   0  0  0  0  0  0  0  0  0  0  0  0
  -24.9750  -34.0710   24.9810 H   0  0  0  0  0  0  0  0  0  0  0  0
  -24.1790  -36.7680   23.0720 C   0  0  0  0  0  1  0  0  0  0  0  0
  -25.4210  -36.3600   23.8840 C   0  0  0  0  0  3  0  0  0  0  0  0
  -27.5570  -37.2430   24.7140 C   0  0  0  0  0  1  0  0  0  0  0  0
  -26.4540  -37.4130   23.7730 N   0  0  0  0  0  0  0  0  0  0  0  0
  -26.0470  -38.3300   23.9250 H   0  0  0  0  0  0  0  0  0  0  0  0
  -26.4000  -31.7500   25.1290 C   0  0  1  0  0  0  0  0  0  0  0  0
  -25.3080  -31.5160   26.1990 C   0  0  0  0  0  1  0  0  0  0  0  0
  -26.9810  -30.3700   24.7390 C   0  0  0  0  0  1  0  0  0  0  0  0
  -27.5510  -32.5470   25.7870 C   0  0  0  0  0  1  0  0  0  0  0  0
  2  5  1  0
  3  1  2  0
  4  2  2  0
  4  3  1  0
  5  1  1  0
  5 46  1  0
  6  3  1  0
  6  7  1  0
  8 16  1  0
  9 14  1  0
 10 11  1  0
 10  9  1  0
 12 11  1  0
 12 21  1  0
 12 13  1  0
 14  8  1  0
 14 13  1  0
 15  8  2  0
 16  7  1  0
 16 17  1  0
 18 19  2  0
 19 38  1  0
 20 19  1  0
 20 23  1  0
 21 18  1  0
 21 22  1  0
 22 20  2  0
 23 24  1  0
 24 25  2  0
 26 29  1  0
 26 25  1  0
 27 26  2  0
 28 27  1  0
 28 23  2  0
 29 30  1  0
 30 31  1  0
 31 32  2  0
 33 32  1  0
 33 37  1  0
 34 33  2  0
 35 30  2  0
 35 34  1  0
 36 35  1  0
 38 39  1  0
 39 42  1  0
 39 41  1  0
 40 38  2  0
 43 44  1  0
 43 18  1  0
 45 43  1  0
 47 46  1  0
 48 47  1  0
 49 48  1  0
 50 61  2  0
 51 49  1  0
 51 56  1  0
 52 60  1  0
 52 62  1  0
 53 59  1  0
 53 55  1  0
 54 60  1  0
 55 56  2  0
 55 54  1  0
 57 51  2  0
 58 57  1  0
 58 53  2  0
 59 52  1  0
 60 50  1  0
 62 64  2  0
 63 62  1  0
 65 63  1  0
 66 75  2  0
 66 71  1  0
 67 63  1  0
 67 71  1  0
 68 67  1  0
 69 70  1  0
 69 68  1  0
 70 66  1  0
 71 72  2  0
 72 73  1  0
 74 73  2  0
 75 74  1  0
 76 50  1  0
 76 77  1  0
 76 86  1  0
 77 80  1  0
 78 82  1  0
 78 77  1  0
 79 78  2  0
 82 81  1  0
 84 82  1  0
 84 85  1  0
 84 83  1  0
 86 89  1  1
 86 87  1  0
 88 86  1  0
M  ISO  4   8 100  16 100  48 101  49 101
M  END
>  <TORSDO>  (84) 
F 21

>  <SCORE>  (84) 
-13.531

>  <name>  (84) 
85

>  <ligand_id>  (84) 
85

>  <original_smiles>  (84) 
[H]c1c([H])c([H])c2c(c1[H])C([H])([H])C([H])([H])C([H])([H])C2([H])N([H])C(=O)C1([H])N(C(=O)C([H])(N([H])C(=O)C([H])(N([H])C([H])([H])[H])C([H])([H])[H])C(C([H])([H])[H])(C([H])([H])[H])C([H])([H])[H])C([H])([H])c2c([H])c(OC([H])([H])C([H])([H])C([H])([H])n3c([H])nc(C([H])([H])C([H])([H])N([H])C(=O)N4C([H])([H])C([H])([H])C([H])([H])C([H])(n5nc(-c6c([H])c([H])c(Oc7c([H])c([H])c(F)c([H])c7F)c([H])c6[H])c(C(=O)N([H])[H])c5N([H])[H])C4([H])[H])c3[H])c([H])c([H])c2C1([H])[H]

>  <smiles>  (84) 
[H]c1c([H])c([H])c2c(c1[H])C([H])([H])C([H])([H])C([H])([H])C2([H])N([H])C(=O)C1([H])N(C(=O)C([H])(N([H])C(=O)C([H])(N([H])C([H])([H])[H])C([H])([H])[H])C(C([H])([H])[H])(C([H])([H])[H])C([H])([H])[H])C([H])([H])c2c([H])c(OC([H])([H])C([H])([H])C([H])([H])n3c([H])nc(C([H])([H])C([H])([H])N([H])C(=O)N4C([H])([H])C([H])([H])C([H])([H])C([H])(n5nc(-c6c([H])c([H])c(Oc7c([H])c([H])c(F)c([H])c7F)c([H])c6[H])c(C(=O)N([H])[H])c5N([H])[H])C4([H])[H])c3[H])c([H])c([H])c2C1([H])[H]

$$$$
86:0:0
     RDKit          3D

 89 97  0  0  1  0  0  0  0  0999 V2000
  -29.5920  -21.3810   19.7100 C   0  0  0  0  0  3  0  0  0  0  0  0
  -30.5940  -14.6310   20.3100 C   0  0  0  0  0  0  0  0  0  0  0  0
  -30.3540  -12.4180   19.2030 C   0  0  0  0  0  2  0  0  0  0  0  0
  -29.3970  -12.5850   18.0010 C   0  0  0  0  0  2  0  0  0  0  0  0
  -27.9270  -12.4300   18.4410 C   0  0  0  0  0  2  0  0  0  0  0  0
  -27.5920  -13.2680   19.7030 C   0  0  0  0  0  3  0  0  0  0  0  0
  -28.6600  -13.0750   20.8030 C   0  0  0  0  0  2  0  0  0  0  0  0
  -29.9690  -13.4140   20.2220 N   0  0  0  0  0  0  0  0  0  0  0  0
  -31.7460  -14.7890   19.8930 O   0  0  0  0  0  0  0  0  0  0  0  0
  -30.9300  -19.1710   20.1030 C   0  0  0  0  0  3  0  0  0  0  0  0
  -28.6770  -17.8510   20.6910 C   0  0  0  0  0  3  0  0  0  0  0  0
  -29.7050  -19.8920   20.1980 C   0  0  0  0  0  0  0  0  0  0  0  0
  -29.8900  -17.1080   20.5550 C   0  0  0  0  0  0  0  0  0  0  0  0
  -28.5720  -19.2040   20.5000 N   0  0  0  0  0  0  0  0  0  0  0  0
  -31.0240  -17.8130   20.2730 N   0  0  0  0  0  0  0  0  0  0  0  0
  -29.8030  -15.6640   20.7280 N   0  0  0  0  0  0  0  0  0  0  0  0
  -28.9060  -15.3480   21.0600 H   0  0  0  0  0  0  0  0  0  0  0  0
  -25.2050  -13.8760   20.4370 C   0  0  0  0  0  0  0  0  0  0  0  0
  -24.1390  -13.1060   20.8190 C   0  0  0  0  0  0  0  0  0  0  0  0
  -24.5980  -11.7530   20.7840 C   0  0  0  0  0  0  0  0  0  0  0  0
  -26.2440  -12.9930   20.1950 N   0  0  0  0  0  0  0  0  0  0  0  0
  -25.8860  -11.7120   20.4640 N   0  0  0  0  0  0  0  0  0  0  0  0
  -23.8710  -10.4930   20.9800 C   0  0  0  0  0  0  0  0  0  0  0  0
  -24.2970   -9.5340   21.9250 C   0  0  0  0  0  3  0  0  0  0  0  0
  -23.5710   -8.3370   22.1090 C   0  0  0  0  0  3  0  0  0  0  0  0
  -22.4030   -8.0930   21.3470 C   0  0  0  0  0  0  0  0  0  0  0  0
  -21.9950   -9.0410   20.3920 C   0  0  0  0  0  3  0  0  0  0  0  0
  -22.7230  -10.2290   20.2060 C   0  0  0  0  0  3  0  0  0  0  0  0
  -21.6480   -6.9470   21.4400 O   0  0  0  0  0  0  0  0  0  0  0  0
  -21.5800   -6.2230   22.6030 C   0  0  0  0  0  0  0  0  0  0  0  0
  -21.1120   -6.7920   23.8080 C   0  0  0  0  0  3  0  0  0  0  0  0
  -20.9900   -5.9930   24.9620 C   0  0  0  0  0  3  0  0  0  0  0  0
  -21.3270   -4.6270   24.9140 C   0  0  0  0  0  0  0  0  0  0  0  0
  -21.7880   -4.0580   23.7130 C   0  0  0  0  0  3  0  0  0  0  0  0
  -21.9100   -4.8540   22.5600 C   0  0  0  0  0  0  0  0  0  0  0  0
  -22.3350   -4.2960   21.4010 F   0  0  0  0  0  0  0  0  0  0  0  0
  -21.2030   -3.8580   26.0200 F   0  0  0  0  0  0  0  0  0  0  0  0
  -22.7460  -13.5870   21.1020 C   0  0  0  0  0  0  0  0  0  0  0  0
  -22.0190  -12.8890   21.9690 N   0  0  0  0  0  0  0  0  0  0  0  0
  -22.3080  -14.6170   20.5900 O   0  0  0  0  0  0  0  0  0  0  0  0
  -22.3870  -12.0580   22.4060 H   0  0  0  0  0  0  0  0  0  0  0  0
  -21.0850  -13.1940   22.2000 H   0  0  0  0  0  0  0  0  0  0  0  0
  -25.3680  -15.2460   20.2520 N   0  0  0  0  0  0  0  0  0  0  0  0
  -24.5860  -15.8860   20.3400 H   0  0  0  0  0  0  0  0  0  0  0  0
  -26.1800  -15.6720   19.8260 H   0  0  0  0  0  0  0  0  0  0  0  0
  -28.9530  -22.5230   20.6050 C   0  0  0  0  0  3  0  0  0  0  0  0
  -29.0110  -23.9980   19.9950 C   0  0  0  0  0  3  0  0  0  0  0  0
  -28.2570  -25.1670   20.7530 C   0  0  0  0  0  3  0  0  0  0  0  0
  -28.4170  -26.5460   20.2480 O   0  0  0  0  0  0  0  0  0  0  0  0
  -24.6010  -31.8760   23.2370 C   0  0  0  0  0  0  0  0  0  0  0  0
  -27.2820  -27.3600   20.2210 C   0  0  0  0  0  0  0  0  0  0  0  0
  -23.4240  -30.4750   21.5780 C   0  0  0  0  0  3  0  0  0  0  0  0
  -24.9030  -28.9320   20.1730 C   0  0  0  0  0  0  0  0  0  0  0  0
  -25.9610  -30.8160   21.4240 C   0  0  0  0  0  2  0  0  0  0  0  0
  -26.0580  -29.4380   20.7830 C   0  0  0  0  0  0  0  0  0  0  0  0
  -27.2540  -28.6650   20.7950 C   0  0  0  0  0  3  0  0  0  0  0  0
  -26.1090  -26.8960   19.5880 C   0  0  0  0  0  3  0  0  0  0  0  0
  -24.9290  -27.6650   19.5660 C   0  0  0  0  0  3  0  0  0  0  0  0
  -23.6600  -29.7970   20.2010 C   0  0  0  0  0  2  0  0  0  0  0  0
  -24.6800  -31.0720   22.1380 N   0  0  0  0  0  0  0  0  0  0  0  0
  -23.5100  -32.1490   23.7590 O   0  0  0  0  0  0  0  0  0  0  0  0
  -22.7540  -29.4550   22.5290 C   0  0  0  0  0  0  0  0  0  0  0  0
  -21.4280  -29.2810   22.3890 N   0  0  0  0  0  0  0  0  0  0  0  0
  -23.4250  -28.8240   23.3500 O   0  0  0  0  0  0  0  0  0  0  0  0
  -20.9480  -29.8430   21.7010 H   0  0  0  0  0  0  0  0  0  0  0  0
  -18.0430  -28.1090   22.8690 C   0  0  0  0  0  0  0  0  0  0  0  0
  -20.6010  -28.3420   23.1480 C   0  0  0  0  0  3  0  0  0  0  0  0
  -20.6920  -26.9170   22.5570 C   0  0  0  0  0  2  0  0  0  0  0  0
  -19.5900  -26.6150   21.5370 C   0  0  0  0  0  2  0  0  0  0  0  0
  -18.2080  -26.7650   22.1790 C   0  0  0  0  0  2  0  0  0  0  0  0
  -19.1670  -28.8570   23.3100 C   0  0  0  0  0  0  0  0  0  0  0  0
  -18.9570  -30.1150   23.9150 C   0  0  0  0  0  3  0  0  0  0  0  0
  -17.6570  -30.6260   24.0830 C   0  0  0  0  0  3  0  0  0  0  0  0
  -16.5460  -29.8750   23.6580 C   0  0  0  0  0  3  0  0  0  0  0  0
  -16.7400  -28.6190   23.0580 C   0  0  0  0  0  3  0  0  0  0  0  0
  -25.8750  -32.5110   23.8780 C   0  0  0  0  0  3  0  0  0  0  0  0
  -26.3710  -31.7450   25.1660 C   0  0  1  0  0  0  0  0  0  0  0  0
  -25.2600  -31.5120   26.2170 C   0  0  0  0  0  1  0  0  0  0  0  0
  -26.9600  -30.3660   24.7870 C   0  0  0  0  0  1  0  0  0  0  0  0
  -27.5100  -32.5420   25.8440 C   0  0  0  0  0  1  0  0  0  0  0  0
  -25.5610  -33.9110   24.1970 N   0  0  0  0  0  0  0  0  0  0  0  0
  -25.9030  -34.9600   23.4380 C   0  0  0  0  0  0  0  0  0  0  0  0
  -26.5860  -34.8520   22.4160 O   0  0  0  0  0  0  0  0  0  0  0  0
  -24.9560  -34.0680   24.9900 H   0  0  0  0  0  0  0  0  0  0  0  0
  -24.1830  -36.7550   23.0490 C   0  0  0  0  0  1  0  0  0  0  0  0
  -25.4100  -36.3510   23.8830 C   0  0  0  0  0  3  0  0  0  0  0  0
  -27.5290  -37.2400   24.7500 C   0  0  0  0  0  1  0  0  0  0  0  0
  -26.4460  -37.4020   23.7830 N   0  0  0  0  0  0  0  0  0  0  0  0
  -26.0380  -38.3240   23.9150 H   0  0  0  0  0  0  0  0  0  0  0  0
  1 12  1  0
  1 46  2  0
  2 16  1  0
  3  8  1  0
  4  5  1  0
  4  3  1  0
  6  5  1  0
  6 21  1  0
  6  7  1  0
  8  2  1  0
  8  7  1  0
  9  2  2  0
 10 12  2  0
 10 15  1  0
 12 14  1  0
 13 11  1  0
 13 16  1  0
 14 11  2  0
 15 13  2  0
 16 17  1  0
 18 19  2  0
 19 38  1  0
 20 19  1  0
 20 23  1  0
 21 18  1  0
 21 22  1  0
 22 20  2  0
 23 24  1  0
 24 25  2  0
 26 29  1  0
 26 25  1  0
 27 26  2  0
 28 27  1  0
 28 23  2  0
 29 30  1  0
 30 31  1  0
 31 32  2  0
 33 32  1  0
 33 37  1  0
 34 33  2  0
 35 30  2  0
 35 34  1  0
 36 35  1  0
 38 39  1  0
 39 42  1  0
 39 41  1  0
 40 38  2  0
 43 44  1  0
 43 18  1  0
 45 43  1  0
 47 46  1  0
 47 48  2  0
 49 48  1  0
 50 61  2  0
 51 49  1  0
 51 56  1  0
 52 60  1  0
 52 62  1  0
 53 59  1  0
 53 55  1  0
 54 60  1  0
 55 56  2  0
 55 54  1  0
 57 51  2  0
 58 57  1  0
 58 53  2  0
 59 52  1  0
 60 50  1  0
 62 64  2  0
 63 62  1  0
 65 63  1  0
 66 75  2  0
 66 71  1  0
 67 63  1  0
 67 71  1  0
 68 67  1  0
 69 70  1  0
 69 68  1  0
 70 66  1  0
 71 72  2  0
 72 73  1  0
 74 73  2  0
 75 74  1  0
 76 50  1  0
 76 81  1  0
 76 77  1  0
 77 80  1  1
 77 78  1  0
 79 77  1  0
 81 84  1  0
 82 86  1  0
 82 81  1  0
 83 82  2  0
 86 85  1  0
 88 86  1  0
 88 89  1  0
 88 87  1  0
M  ISO  4   2 100  16 100  48 101  49 101
M  END
>  <TORSDO>  (85) 
F 19

>  <SCORE>  (85) 
-14.234

>  <name>  (85) 
86

>  <ligand_id>  (85) 
86

>  <original_smiles>  (85) 
[H]c1nc(C([H])([H])C([H])([H])C([H])([H])C([H])([H])Oc2c([H])c([H])c3c(c2[H])C([H])([H])N(C(=O)C([H])(N([H])C(=O)C([H])(N([H])C([H])([H])[H])C([H])([H])[H])C(C([H])([H])[H])(C([H])([H])[H])C([H])([H])[H])C([H])(C(=O)N([H])C2([H])c4c([H])c([H])c([H])c([H])c4C([H])([H])C([H])([H])C2([H])[H])C3([H])[H])c([H])nc1N([H])C(=O)N1C([H])([H])C([H])([H])C([H])([H])C([H])(n2nc(-c3c([H])c([H])c(Oc4c([H])c([H])c(F)c([H])c4F)c([H])c3[H])c(C(=O)N([H])[H])c2N([H])[H])C1([H])[H]

>  <smiles>  (85) 
[H]c1nc(C([H])([H])C([H])([H])C([H])([H])C([H])([H])Oc2c([H])c([H])c3c(c2[H])C([H])([H])N(C(=O)C([H])(N([H])C(=O)C([H])(N([H])C([H])([H])[H])C([H])([H])[H])C(C([H])([H])[H])(C([H])([H])[H])C([H])([H])[H])C([H])(C(=O)N([H])C2([H])c4c([H])c([H])c([H])c([H])c4C([H])([H])C([H])([H])C2([H])[H])C3([H])[H])c([H])nc1N([H])C(=O)N1C([H])([H])C([H])([H])C([H])([H])C([H])(n2nc(-c3c([H])c([H])c(Oc4c([H])c([H])c(F)c([H])c4F)c([H])c3[H])c(C(=O)N([H])[H])c2N([H])[H])C1([H])[H]

$$$$
87:0:0
     RDKit          3D

 89 97  0  0  1  0  0  0  0  0999 V2000
  -30.0300  -20.5250   20.2690 C   0  0  0  0  0  3  0  0  0  0  0  0
  -28.1430  -19.5310   20.6070 C   0  0  0  0  0  3  0  0  0  0  0  0
  -29.0110  -21.4350   20.0190 C   0  0  0  0  0  0  0  0  0  0  0  0
  -27.8030  -20.7720   20.2400 N   0  0  0  0  0  0  0  0  0  0  0  0
  -29.4650  -19.2870   20.6270 N   0  0  0  0  0  0  0  0  0  0  0  0
  -29.0800  -22.8540   19.4270 C   0  0  0  0  0  2  0  0  0  0  0  0
  -28.5830  -24.0840   20.2720 C   0  0  0  0  0  2  0  0  0  0  0  0
  -28.7320  -25.4560   19.5150 C   0  0  0  0  0  2  0  0  0  0  0  0
  -28.5200  -26.6880   20.2620 O   0  0  0  0  0  0  0  0  0  0  0  0
  -24.5820  -31.8590   23.2430 C   0  0  0  0  0  0  0  0  0  0  0  0
  -27.3350  -27.4160   20.1940 C   0  0  0  0  0  0  0  0  0  0  0  0
  -23.4300  -30.4610   21.5600 C   0  0  0  0  0  3  0  0  0  0  0  0
  -24.9320  -28.9440   20.1560 C   0  0  0  0  0  0  0  0  0  0  0  0
  -25.9610  -30.8300   21.4300 C   0  0  0  0  0  2  0  0  0  0  0  0
  -26.0740  -29.4610   20.7780 C   0  0  0  0  0  0  0  0  0  0  0  0
  -27.2740  -28.7040   20.7920 C   0  0  0  0  0  3  0  0  0  0  0  0
  -26.1650  -26.9230   19.5730 C   0  0  0  0  0  3  0  0  0  0  0  0
  -24.9750  -27.6770   19.5500 C   0  0  0  0  0  3  0  0  0  0  0  0
  -23.6820  -29.7960   20.1790 C   0  0  0  0  0  2  0  0  0  0  0  0
  -24.6750  -31.0660   22.1350 N   0  0  0  0  0  0  0  0  0  0  0  0
  -23.4860  -32.1170   23.7580 O   0  0  0  0  0  0  0  0  0  0  0  0
  -22.7630  -29.4260   22.4960 C   0  0  0  0  0  0  0  0  0  0  0  0
  -21.4390  -29.2500   22.3530 N   0  0  0  0  0  0  0  0  0  0  0  0
  -23.4360  -28.7850   23.3080 O   0  0  0  0  0  0  0  0  0  0  0  0
  -20.9570  -29.8200   21.6720 H   0  0  0  0  0  0  0  0  0  0  0  0
  -18.0510  -28.0830   22.8260 C   0  0  0  0  0  0  0  0  0  0  0  0
  -20.6130  -28.3000   23.0970 C   0  0  0  0  0  3  0  0  0  0  0  0
  -20.6970  -26.8850   22.4800 C   0  0  0  0  0  2  0  0  0  0  0  0
  -19.5890  -26.6060   21.4590 C   0  0  0  0  0  2  0  0  0  0  0  0
  -18.2100  -26.7500   22.1100 C   0  0  0  0  0  2  0  0  0  0  0  0
  -19.1800  -28.8170   23.2750 C   0  0  0  0  0  0  0  0  0  0  0  0
  -18.9790  -30.0650   23.9030 C   0  0  0  0  0  3  0  0  0  0  0  0
  -17.6820  -30.5800   24.0830 C   0  0  0  0  0  3  0  0  0  0  0  0
  -16.5670  -29.8420   23.6510 C   0  0  0  0  0  3  0  0  0  0  0  0
  -16.7520  -28.5940   23.0280 C   0  0  0  0  0  3  0  0  0  0  0  0
  -25.8450  -32.4980   23.8990 C   0  0  0  0  0  3  0  0  0  0  0  0
  -25.5260  -33.9000   24.2020 N   0  0  0  0  0  0  0  0  0  0  0  0
  -25.8810  -34.9420   23.4380 C   0  0  0  0  0  0  0  0  0  0  0  0
  -26.5820  -34.8240   22.4290 O   0  0  0  0  0  0  0  0  0  0  0  0
  -24.9090  -34.0650   24.9830 H   0  0  0  0  0  0  0  0  0  0  0  0
  -24.1670  -36.7300   23.0040 C   0  0  0  0  0  1  0  0  0  0  0  0
  -25.3800  -36.3350   23.8610 C   0  0  0  0  0  3  0  0  0  0  0  0
  -27.4820  -37.2350   24.7580 C   0  0  0  0  0  1  0  0  0  0  0  0
  -26.4170  -37.3860   23.7690 N   0  0  0  0  0  0  0  0  0  0  0  0
  -26.0050  -38.3080   23.8880 H   0  0  0  0  0  0  0  0  0  0  0  0
  -26.3200  -31.7410   25.2000 C   0  0  1  0  0  0  0  0  0  0  0  0
  -25.1900  -31.5100   26.2300 C   0  0  0  0  0  1  0  0  0  0  0  0
  -26.9200  -30.3610   24.8420 C   0  0  0  0  0  1  0  0  0  0  0  0
  -27.4460  -32.5440   25.8920 C   0  0  0  0  0  1  0  0  0  0  0  0
  -30.1850  -18.0550   21.0530 C   0  0  0  0  0  2  0  0  0  0  0  0
  -29.4540  -16.6580   20.9300 C   0  0  0  0  0  2  0  0  0  0  0  0
  -30.7080  -14.6420   19.9800 C   0  0  0  0  0  0  0  0  0  0  0  0
  -30.3590  -12.4380   18.9190 C   0  0  0  0  0  2  0  0  0  0  0  0
  -29.3460  -12.5990   17.7640 C   0  0  0  0  0  2  0  0  0  0  0  0
  -27.9010  -12.4750   18.2860 C   0  0  0  0  0  2  0  0  0  0  0  0
  -27.6350  -13.3270   19.5560 C   0  0  0  0  0  3  0  0  0  0  0  0
  -28.7610  -13.1600   20.6000 C   0  0  0  0  0  2  0  0  0  0  0  0
  -30.0320  -13.4570   19.9310 N   0  0  0  0  0  0  0  0  0  0  0  0
  -31.8890  -14.7200   19.6280 O   0  0  0  0  0  0  0  0  0  0  0  0
  -29.8880  -16.4250   18.5350 C   0  0  0  0  0  1  0  0  0  0  0  0
  -29.9220  -15.7580   19.8420 N   0  0  0  0  0  0  0  0  0  0  0  0
  -25.3020  -13.9380   20.4440 C   0  0  0  0  0  0  0  0  0  0  0  0
  -24.2520  -13.1670   20.8630 C   0  0  0  0  0  0  0  0  0  0  0  0
  -24.6960  -11.8130   20.7760 C   0  0  0  0  0  0  0  0  0  0  0  0
  -26.3200  -13.0520   20.1250 N   0  0  0  0  0  0  0  0  0  0  0  0
  -25.9640  -11.7680   20.3870 N   0  0  0  0  0  0  0  0  0  0  0  0
  -23.9680  -10.5540   20.9830 C   0  0  0  0  0  0  0  0  0  0  0  0
  -24.4290   -9.5760   21.8930 C   0  0  0  0  0  3  0  0  0  0  0  0
  -23.7020   -8.3810   22.0880 C   0  0  0  0  0  3  0  0  0  0  0  0
  -22.5000   -8.1580   21.3750 C   0  0  0  0  0  0  0  0  0  0  0  0
  -22.0590   -9.1240   20.4540 C   0  0  0  0  0  3  0  0  0  0  0  0
  -22.7850  -10.3090   20.2560 C   0  0  0  0  0  3  0  0  0  0  0  0
  -21.7410   -7.0180   21.4830 O   0  0  0  0  0  0  0  0  0  0  0  0
  -21.7150   -6.2770   22.6380 C   0  0  0  0  0  0  0  0  0  0  0  0
  -21.2870   -6.8250   23.8670 C   0  0  0  0  0  3  0  0  0  0  0  0
  -21.2100   -6.0100   25.0130 C   0  0  0  0  0  3  0  0  0  0  0  0
  -21.5500   -4.6470   24.9320 C   0  0  0  0  0  0  0  0  0  0  0  0
  -21.9720   -4.0970   23.7080 C   0  0  0  0  0  3  0  0  0  0  0  0
  -22.0510   -4.9100   22.5640 C   0  0  0  0  0  0  0  0  0  0  0  0
  -22.4380   -4.3710   21.3820 F   0  0  0  0  0  0  0  0  0  0  0  0
  -21.4690   -3.8600   26.0310 F   0  0  0  0  0  0  0  0  0  0  0  0
  -22.8800  -13.6530   21.2300 C   0  0  0  0  0  0  0  0  0  0  0  0
  -22.1970  -12.9450   22.1220 N   0  0  0  0  0  0  0  0  0  0  0  0
  -22.4220  -14.6940   20.7590 O   0  0  0  0  0  0  0  0  0  0  0  0
  -22.5790  -12.1020   22.5240 H   0  0  0  0  0  0  0  0  0  0  0  0
  -21.2780  -13.2520   22.4080 H   0  0  0  0  0  0  0  0  0  0  0  0
  -25.4720  -15.3100   20.2840 N   0  0  0  0  0  0  0  0  0  0  0  0
  -24.7210  -15.9700   20.4500 H   0  0  0  0  0  0  0  0  0  0  0  0
  -26.3060  -15.7410   19.9070 H   0  0  0  0  0  0  0  0  0  0  0  0
  1  5  1  0
  2  5  1  0
  3  4  1  0
  3  1  2  0
  4  2  2  0
  5 50  1  0
  6  3  1  0
  6  7  1  0
  8  9  1  0
  8  7  1  0
 10 21  2  0
 11  9  1  0
 11 16  1  0
 12 20  1  0
 12 22  1  0
 13 19  1  0
 13 15  1  0
 14 20  1  0
 15 16  2  0
 15 14  1  0
 17 11  2  0
 18 17  1  0
 18 13  2  0
 19 12  1  0
 20 10  1  0
 22 24  2  0
 23 22  1  0
 25 23  1  0
 26 35  2  0
 26 31  1  0
 27 23  1  0
 27 31  1  0
 28 27  1  0
 29 30  1  0
 29 28  1  0
 30 26  1  0
 31 32  2  0
 32 33  1  0
 34 33  2  0
 35 34  1  0
 36 10  1  0
 36 37  1  0
 36 46  1  0
 37 40  1  0
 38 42  1  0
 38 37  1  0
 39 38  2  0
 42 41  1  0
 44 42  1  0
 44 45  1  0
 44 43  1  0
 46 49  1  1
 46 47  1  0
 48 46  1  0
 51 50  1  0
 53 58  1  0
 54 55  1  0
 54 53  1  0
 56 55  1  0
 56 65  1  0
 56 57  1  0
 58 52  1  0
 58 57  1  0
 59 52  2  0
 60 61  1  0
 61 52  1  0
 61 51  1  0
 62 63  2  0
 63 82  1  0
 64 63  1  0
 64 67  1  0
 65 66  1  0
 65 62  1  0
 66 64  2  0
 67 68  1  0
 68 69  2  0
 70 73  1  0
 70 69  1  0
 71 70  2  0
 72 71  1  0
 72 67  2  0
 73 74  1  0
 74 75  1  0
 75 76  2  0
 77 76  1  0
 77 81  1  0
 78 77  2  0
 79 74  2  0
 79 78  1  0
 80 79  1  0
 82 83  1  0
 83 86  1  0
 83 85  1  0
 84 82  2  0
 87 62  1  0
 87 88  1  0
 89 87  1  0
M  ISO  4   8 101   9 101  52 100  61 100
M  END
>  <TORSDO>  (86) 
F 21

>  <SCORE>  (86) 
-12.977

>  <name>  (86) 
87

>  <ligand_id>  (86) 
87

>  <original_smiles>  (86) 
[H]c1c([H])c([H])c2c(c1[H])C([H])([H])C([H])([H])C([H])([H])C2([H])N([H])C(=O)C1([H])N(C(=O)C([H])(N([H])C(=O)C([H])(N([H])C([H])([H])[H])C([H])([H])[H])C(C([H])([H])[H])(C([H])([H])[H])C([H])([H])[H])C([H])([H])c2c([H])c(OC([H])([H])C([H])([H])C([H])([H])c3nc([H])n(C([H])([H])C([H])([H])N(C(=O)N4C([H])([H])C([H])([H])C([H])([H])C([H])(n5nc(-c6c([H])c([H])c(Oc7c([H])c([H])c(F)c([H])c7F)c([H])c6[H])c(C(=O)N([H])[H])c5N([H])[H])C4([H])[H])C([H])([H])[H])c3[H])c([H])c([H])c2C1([H])[H]

>  <smiles>  (86) 
[H]c1c([H])c([H])c2c(c1[H])C([H])([H])C([H])([H])C([H])([H])C2([H])N([H])C(=O)C1([H])N(C(=O)C([H])(N([H])C(=O)C([H])(N([H])C([H])([H])[H])C([H])([H])[H])C(C([H])([H])[H])(C([H])([H])[H])C([H])([H])[H])C([H])([H])c2c([H])c(OC([H])([H])C([H])([H])C([H])([H])c3nc([H])n(C([H])([H])C([H])([H])N(C(=O)N4C([H])([H])C([H])([H])C([H])([H])C([H])(n5nc(-c6c([H])c([H])c(Oc7c([H])c([H])c(F)c([H])c7F)c([H])c6[H])c(C(=O)N([H])[H])c5N([H])[H])C4([H])[H])C([H])([H])[H])c3[H])c([H])c([H])c2C1([H])[H]

$$$$
88:0:0
     RDKit          3D

 97105  0  0  1  0  0  0  0  0999 V2000
  -32.0620  -19.7060   18.0580 C   0  0  0  0  0  3  0  0  0  0  0  0
  -30.3030  -19.7490   19.7120 C   0  0  0  0  0  3  0  0  0  0  0  0
  -31.0850  -20.4370   18.7570 C   0  0  0  0  0  0  0  0  0  0  0  0
  -32.2480  -18.3460   18.3630 C   0  0  0  0  0  0  0  0  0  0  0  0
  -30.5500  -18.3800   19.9480 C   0  0  0  0  0  0  0  0  0  0  0  0
  -31.5130  -17.7010   19.2940 N   0  0  0  0  0  0  0  0  0  0  0  0
  -30.9540  -21.9420   18.5310 C   0  0  0  0  0  2  0  0  0  0  0  0
  -28.6530  -22.1270   17.6530 C   0  0  0  0  0  1  0  0  0  0  0  0
  -29.5740  -22.4300   18.7740 N   0  0  2  0  0  4  0  0  0  0  0  0
  -29.2720  -21.8630   19.5510 H   0  0  0  0  0  0  0  0  0  0  0  0
  -29.5260  -23.8490   19.2310 C   0  0  0  0  0  2  0  0  0  0  0  0
  -28.2100  -24.1900   19.9590 C   0  0  0  0  0  2  0  0  0  0  0  0
  -28.2950  -25.4190   20.8930 C   0  0  0  0  0  2  0  0  0  0  0  0
  -28.4150  -26.6820   20.2230 O   0  0  0  0  0  0  0  0  0  0  0  0
  -24.5850  -31.8690   23.2530 C   0  0  0  0  0  0  0  0  0  0  0  0
  -27.2580  -27.4270   20.2080 C   0  0  0  0  0  0  0  0  0  0  0  0
  -23.3990  -30.4630   21.6000 C   0  0  0  0  0  3  0  0  0  0  0  0
  -24.8680  -28.9280   20.1950 C   0  0  0  0  0  0  0  0  0  0  0  0
  -25.9250  -30.8250   21.4300 C   0  0  0  0  0  2  0  0  0  0  0  0
  -26.0200  -29.4540   20.7930 C   0  0  0  0  0  0  0  0  0  0  0  0
  -27.2240  -28.7140   20.7930 C   0  0  0  0  0  3  0  0  0  0  0  0
  -26.0910  -26.9120   19.6090 C   0  0  0  0  0  3  0  0  0  0  0  0
  -24.8980  -27.6570   19.5960 C   0  0  0  0  0  3  0  0  0  0  0  0
  -23.6230  -29.7840   20.2240 C   0  0  0  0  0  2  0  0  0  0  0  0
  -24.6550  -31.0670   22.1540 N   0  0  0  0  0  0  0  0  0  0  0  0
  -23.4970  -32.1450   23.7750 O   0  0  0  0  0  0  0  0  0  0  0  0
  -22.7340  -29.4430   22.5520 C   0  0  0  0  0  0  0  0  0  0  0  0
  -21.4100  -29.2690   22.4120 N   0  0  0  0  0  0  0  0  0  0  0  0
  -23.4090  -28.8090   23.3680 O   0  0  0  0  0  0  0  0  0  0  0  0
  -20.9280  -29.8350   21.7270 H   0  0  0  0  0  0  0  0  0  0  0  0
  -18.0220  -28.1040   22.8820 C   0  0  0  0  0  0  0  0  0  0  0  0
  -20.5820  -28.3350   23.1720 C   0  0  0  0  0  3  0  0  0  0  0  0
  -20.6720  -26.9040   22.5920 C   0  0  0  0  0  2  0  0  0  0  0  0
  -19.5730  -26.5970   21.5690 C   0  0  0  0  0  2  0  0  0  0  0  0
  -18.1900  -26.7550   22.2030 C   0  0  0  0  0  2  0  0  0  0  0  0
  -19.1460  -28.8530   23.3230 C   0  0  0  0  0  0  0  0  0  0  0  0
  -18.9360  -30.1170   23.9150 C   0  0  0  0  0  3  0  0  0  0  0  0
  -17.6350  -30.6310   24.0720 C   0  0  0  0  0  3  0  0  0  0  0  0
  -16.5270  -29.8790   23.6490 C   0  0  0  0  0  3  0  0  0  0  0  0
  -16.7210  -28.6180   23.0590 C   0  0  0  0  0  3  0  0  0  0  0  0
  -25.8650  -32.4960   23.8890 C   0  0  0  0  0  3  0  0  0  0  0  0
  -26.3750  -31.7170   25.1630 C   0  0  1  0  0  0  0  0  0  0  0  0
  -25.2730  -31.4700   26.2210 C   0  0  0  0  0  1  0  0  0  0  0  0
  -26.9650  -30.3440   24.7610 C   0  0  0  0  0  1  0  0  0  0  0  0
  -27.5210  -32.5090   25.8370 C   0  0  0  0  0  1  0  0  0  0  0  0
  -25.5510  -33.8920   24.2240 N   0  0  0  0  0  0  0  0  0  0  0  0
  -25.8890  -34.9460   23.4700 C   0  0  0  0  0  0  0  0  0  0  0  0
  -26.5660  -34.8440   22.4420 O   0  0  0  0  0  0  0  0  0  0  0  0
  -24.9580  -34.0470   25.0250 H   0  0  0  0  0  0  0  0  0  0  0  0
  -24.1630  -36.7350   23.0980 C   0  0  0  0  0  1  0  0  0  0  0  0
  -25.3940  -36.3310   23.9250 C   0  0  0  0  0  3  0  0  0  0  0  0
  -27.5190  -37.2130   24.7840 C   0  0  0  0  0  1  0  0  0  0  0  0
  -26.4270  -37.3860   23.8300 N   0  0  0  0  0  0  0  0  0  0  0  0
  -26.0180  -38.3050   23.9820 H   0  0  0  0  0  0  0  0  0  0  0  0
  -33.3550  -17.5540   17.6890 C   0  0  0  0  0  2  0  0  0  0  0  0
  -35.8810  -17.1100   17.8800 C   0  0  0  0  0  1  0  0  0  0  0  0
  -34.5520  -17.3070   18.6260 C   0  0  0  0  0  2  0  0  0  0  0  0
  -29.8330  -17.6560   21.0840 C   0  0  0  0  0  2  0  0  0  0  0  0
  -29.3100  -16.2220   20.7890 C   0  0  0  0  0  2  0  0  0  0  0  0
  -30.6870  -14.2810   20.1550 C   0  0  0  0  0  0  0  0  0  0  0  0
  -30.2320  -12.2160   18.8830 C   0  0  0  0  0  2  0  0  0  0  0  0
  -29.2200  -12.4830   17.7520 C   0  0  0  0  0  2  0  0  0  0  0  0
  -27.7760  -12.3390   18.2710 C   0  0  0  0  0  2  0  0  0  0  0  0
  -27.5300  -13.1380   19.5780 C   0  0  0  0  0  3  0  0  0  0  0  0
  -28.6450  -12.8590   20.6090 C   0  0  0  0  0  2  0  0  0  0  0  0
  -29.9430  -13.1560   19.9740 N   0  0  0  0  0  0  0  0  0  0  0  0
  -31.7360  -14.4970   19.5410 O   0  0  0  0  0  0  0  0  0  0  0  0
  -30.9750  -15.2220   22.3740 C   0  0  0  0  0  1  0  0  0  0  0  0
  -30.2460  -15.1260   21.1100 N   0  0  0  0  0  0  0  0  0  0  0  0
  -25.1750  -13.7550   20.4170 C   0  0  0  0  0  0  0  0  0  0  0  0
  -24.1250  -12.9850   20.8410 C   0  0  0  0  0  0  0  0  0  0  0  0
  -24.5780  -11.6320   20.7820 C   0  0  0  0  0  0  0  0  0  0  0  0
  -26.2020  -12.8700   20.1270 N   0  0  0  0  0  0  0  0  0  0  0  0
  -25.8490  -11.5880   20.4030 N   0  0  0  0  0  0  0  0  0  0  0  0
  -23.8590  -10.3720   21.0070 C   0  0  0  0  0  0  0  0  0  0  0  0
  -24.3290   -9.4070   21.9260 C   0  0  0  0  0  3  0  0  0  0  0  0
  -23.6100   -8.2120   22.1390 C   0  0  0  0  0  3  0  0  0  0  0  0
  -22.4070   -7.9720   21.4340 C   0  0  0  0  0  0  0  0  0  0  0  0
  -21.9560   -8.9250   20.5040 C   0  0  0  0  0  3  0  0  0  0  0  0
  -22.6750  -10.1120   20.2890 C   0  0  0  0  0  3  0  0  0  0  0  0
  -21.6560   -6.8280   21.5570 O   0  0  0  0  0  0  0  0  0  0  0  0
  -21.6470   -6.0950   22.7170 C   0  0  0  0  0  0  0  0  0  0  0  0
  -21.2700   -6.6610   23.9540 C   0  0  0  0  0  3  0  0  0  0  0  0
  -21.2070   -5.8550   25.1080 C   0  0  0  0  0  3  0  0  0  0  0  0
  -21.5110   -4.4830   25.0270 C   0  0  0  0  0  0  0  0  0  0  0  0
  -21.8810   -3.9160   23.7940 C   0  0  0  0  0  3  0  0  0  0  0  0
  -21.9460   -4.7190   22.6420 C   0  0  0  0  0  0  0  0  0  0  0  0
  -22.2830   -4.1630   21.4540 F   0  0  0  0  0  0  0  0  0  0  0  0
  -21.4430   -3.7060   26.1330 F   0  0  0  0  0  0  0  0  0  0  0  0
  -22.7460  -13.4670   21.1910 C   0  0  0  0  0  0  0  0  0  0  0  0
  -22.0660  -12.7730   22.0960 N   0  0  0  0  0  0  0  0  0  0  0  0
  -22.2830  -14.4950   20.6980 O   0  0  0  0  0  0  0  0  0  0  0  0
  -22.4550  -11.9410   22.5160 H   0  0  0  0  0  0  0  0  0  0  0  0
  -21.1440  -13.0760   22.3730 H   0  0  0  0  0  0  0  0  0  0  0  0
  -25.3370  -15.1240   20.2330 N   0  0  0  0  0  0  0  0  0  0  0  0
  -24.5840  -15.7860   20.3830 H   0  0  0  0  0  0  0  0  0  0  0  0
  -26.1740  -15.5550   19.8590 H   0  0  0  0  0  0  0  0  0  0  0  0
  1  4  2  0
  1  3  1  0
  2  5  1  0
  3  2  2  0
  4  6  1  0
  5 58  1  0
  6  5  2  0
  7  3  1  0
  7  9  1  0
  8  9  1  0
  9 11  1  0
  9 10  1  1
 11 12  1  0
 12 13  1  0
 14 13  1  0
 15 26  2  0
 16 14  1  0
 16 21  1  0
 17 25  1  0
 17 27  1  0
 18 24  1  0
 18 20  1  0
 19 25  1  0
 20 21  2  0
 20 19  1  0
 22 16  2  0
 23 22  1  0
 23 18  2  0
 24 17  1  0
 25 15  1  0
 27 29  2  0
 28 27  1  0
 30 28  1  0
 31 40  2  0
 31 36  1  0
 32 28  1  0
 32 36  1  0
 33 32  1  0
 34 35  1  0
 34 33  1  0
 35 31  1  0
 36 37  2  0
 37 38  1  0
 39 38  2  0
 40 39  1  0
 41 15  1  0
 41 46  1  0
 41 42  1  0
 42 45  1  1
 42 43  1  0
 44 42  1  0
 46 49  1  0
 47 51  1  0
 47 46  1  0
 48 47  2  0
 51 50  1  0
 53 51  1  0
 53 54  1  0
 53 52  1  0
 55  4  1  0
 55 57  1  0
 56 57  1  0
 59 58  1  0
 59 69  1  0
 60 69  1  0
 61 66  1  0
 62 63  1  0
 62 61  1  0
 64 63  1  0
 64 73  1  0
 64 65  1  0
 66 60  1  0
 66 65  1  0
 67 60  2  0
 69 68  1  0
 70 71  2  0
 71 90  1  0
 72 71  1  0
 72 75  1  0
 73 74  1  0
 73 70  1  0
 74 72  2  0
 75 76  1  0
 76 77  2  0
 78 81  1  0
 78 77  1  0
 79 78  2  0
 80 79  1  0
 80 75  2  0
 81 82  1  0
 82 83  1  0
 83 84  2  0
 85 84  1  0
 85 89  1  0
 86 85  2  0
 87 82  2  0
 87 86  1  0
 88 87  1  0
 90 91  1  0
 91 94  1  0
 91 93  1  0
 92 90  2  0
 95 96  1  0
 95 70  1  0
 97 95  1  0
M  ISO  4  13 101  14 101  60 100  69 100
M  END
>  <TORSDO>  (87) 
F 25

>  <SCORE>  (87) 
-11.636

>  <name>  (87) 
88

>  <ligand_id>  (87) 
88

>  <original_smiles>  (87) 
[H]c1c([H])c([H])c2c(c1[H])C([H])([H])C([H])([H])C([H])([H])C2([H])N([H])C(=O)C1([H])N(C(=O)C([H])(N([H])C(=O)C([H])(N([H])C([H])([H])[H])C([H])([H])[H])C(C([H])([H])[H])(C([H])([H])[H])C([H])([H])[H])C([H])([H])c2c([H])c(OC([H])([H])C([H])([H])C([H])([H])[N+]([H])(C([H])([H])[H])C([H])([H])c3c([H])c(C([H])([H])C([H])([H])N(C(=O)N4C([H])([H])C([H])([H])C([H])([H])C([H])(n5nc(-c6c([H])c([H])c(Oc7c([H])c([H])c(F)c([H])c7F)c([H])c6[H])c(C(=O)N([H])[H])c5N([H])[H])C4([H])[H])C([H])([H])[H])nc(C([H])([H])C([H])([H])C([H])([H])[H])c3[H])c([H])c([H])c2C1([H])[H]

>  <smiles>  (87) 
[H]c1c([H])c([H])c2c(c1[H])C([H])([H])C([H])([H])C([H])([H])C2([H])N([H])C(=O)C1([H])N(C(=O)C([H])(N([H])C(=O)C([H])(N([H])C([H])([H])[H])C([H])([H])[H])C(C([H])([H])[H])(C([H])([H])[H])C([H])([H])[H])C([H])([H])c2c([H])c(OC([H])([H])C([H])([H])C([H])([H])[N+]([H])(C([H])([H])[H])C([H])([H])c3c([H])c(C([H])([H])C([H])([H])N(C(=O)N4C([H])([H])C([H])([H])C([H])([H])C([H])(n5nc(-c6c([H])c([H])c(Oc7c([H])c([H])c(F)c([H])c7F)c([H])c6[H])c(C(=O)N([H])[H])c5N([H])[H])C4([H])[H])C([H])([H])[H])nc(C([H])([H])C([H])([H])C([H])([H])[H])c3[H])c([H])c([H])c2C1([H])[H]

$$$$
89:0:0
     RDKit          3D

 91 99  0  0  1  0  0  0  0  0999 V2000
  -29.7710  -19.5330   19.4810 C   0  0  0  0  0  3  0  0  0  0  0  0
  -29.6740  -20.8500   20.1130 C   0  0  0  0  0  0  0  0  0  0  0  0
  -30.2000  -18.5900   20.4260 C   0  0  0  0  0  0  0  0  0  0  0  0
  -30.7030  -18.9960   22.9110 C   0  0  0  0  0  1  0  0  0  0  0  0
  -30.0760  -20.7170   21.3640 N   0  0  0  0  0  0  0  0  0  0  0  0
  -30.3680  -19.3970   21.5550 N   0  0  0  0  0  0  0  0  0  0  0  0
  -28.9280  -22.1900   19.6950 C   0  0  0  0  0  2  0  0  0  0  0  0
  -29.4740  -23.6970   19.9350 C   0  0  0  0  0  3  0  0  0  0  0  0
  -28.3910  -24.8790   19.6960 C   0  0  0  0  0  3  0  0  0  0  0  0
  -28.6210  -26.3580   19.8710 O   0  0  0  0  0  0  0  0  0  0  0  0
  -24.6720  -31.5620   23.0450 C   0  0  0  0  0  0  0  0  0  0  0  0
  -27.5000  -27.2240   19.8140 C   0  0  0  0  0  0  0  0  0  0  0  0
  -23.5510  -30.2010   21.3220 C   0  0  0  0  0  3  0  0  0  0  0  0
  -25.0820  -28.7890   19.8380 C   0  0  0  0  0  0  0  0  0  0  0  0
  -26.0840  -30.6200   21.1940 C   0  0  0  0  0  2  0  0  0  0  0  0
  -26.2290  -29.2770   20.4770 C   0  0  0  0  0  0  0  0  0  0  0  0
  -27.4390  -28.5100   20.4560 C   0  0  0  0  0  3  0  0  0  0  0  0
  -26.3240  -26.8120   19.1410 C   0  0  0  0  0  3  0  0  0  0  0  0
  -25.1360  -27.5630   19.1650 C   0  0  0  0  0  3  0  0  0  0  0  0
  -23.8140  -29.6170   19.9120 C   0  0  0  0  0  2  0  0  0  0  0  0
  -24.7870  -30.8090   21.9120 N   0  0  0  0  0  0  0  0  0  0  0  0
  -23.5710  -31.7640   23.5800 O   0  0  0  0  0  0  0  0  0  0  0  0
  -22.9180  -29.1060   22.2160 C   0  0  0  0  0  0  0  0  0  0  0  0
  -21.6030  -28.8750   22.0630 N   0  0  0  0  0  0  0  0  0  0  0  0
  -23.6110  -28.4730   23.0150 O   0  0  0  0  0  0  0  0  0  0  0  0
  -21.0970  -29.4340   21.3920 H   0  0  0  0  0  0  0  0  0  0  0  0
  -18.2800  -27.5010   22.4650 C   0  0  0  0  0  0  0  0  0  0  0  0
  -20.8210  -27.8670   22.7830 C   0  0  0  0  0  3  0  0  0  0  0  0
  -20.9980  -26.4680   22.1440 C   0  0  0  0  0  2  0  0  0  0  0  0
  -19.9210  -26.1410   21.1040 C   0  0  0  0  0  2  0  0  0  0  0  0
  -18.5270  -26.1950   21.7310 C   0  0  0  0  0  2  0  0  0  0  0  0
  -19.3570  -28.2940   22.9460 C   0  0  0  0  0  0  0  0  0  0  0  0
  -19.0690  -29.5160   23.5910 C   0  0  0  0  0  3  0  0  0  0  0  0
  -17.7390  -29.9450   23.7620 C   0  0  0  0  0  3  0  0  0  0  0  0
  -16.6800  -29.1510   23.2930 C   0  0  0  0  0  3  0  0  0  0  0  0
  -16.9500  -27.9320   22.6470 C   0  0  0  0  0  3  0  0  0  0  0  0
  -25.9150  -32.2200   23.7160 C   0  0  0  0  0  3  0  0  0  0  0  0
  -25.5340  -33.5810   24.1200 N   0  0  0  0  0  0  0  0  0  0  0  0
  -25.8200  -34.6910   23.4260 C   0  0  0  0  0  0  0  0  0  0  0  0
  -26.4980  -34.6770   22.3960 O   0  0  0  0  0  0  0  0  0  0  0  0
  -24.9320  -33.6650   24.9280 H   0  0  0  0  0  0  0  0  0  0  0  0
  -24.0050  -36.4150   23.1630 C   0  0  0  0  0  1  0  0  0  0  0  0
  -25.2630  -36.0280   23.9580 C   0  0  0  0  0  3  0  0  0  0  0  0
  -27.3450  -36.9740   24.8500 C   0  0  0  0  0  1  0  0  0  0  0  0
  -26.2410  -37.1340   23.9060 N   0  0  0  0  0  0  0  0  0  0  0  0
  -25.7930  -38.0240   24.0990 H   0  0  0  0  0  0  0  0  0  0  0  0
  -26.4560  -31.4070   24.9540 C   0  0  1  0  0  0  0  0  0  0  0  0
  -25.3630  -31.0580   25.9920 C   0  0  0  0  0  1  0  0  0  0  0  0
  -27.1080  -30.0830   24.4940 C   0  0  0  0  0  1  0  0  0  0  0  0
  -27.5610  -32.2200   25.6670 C   0  0  0  0  0  1  0  0  0  0  0  0
  -30.3770  -17.0000   20.5810 C   0  0  0  0  0  2  0  0  0  0  0  0
  -31.6300  -14.7920   19.8980 C   0  0  0  0  0  0  0  0  0  0  0  0
  -31.1410  -12.5620   18.8900 C   0  0  0  0  0  2  0  0  0  0  0  0
  -30.1760  -12.7010   17.6980 C   0  0  0  0  0  2  0  0  0  0  0  0
  -28.7200  -12.6220   18.1890 C   0  0  0  0  0  2  0  0  0  0  0  0
  -28.4450  -13.5360   19.4130 C   0  0  0  0  0  3  0  0  0  0  0  0
  -29.5480  -13.4260   20.4870 C   0  0  0  0  0  2  0  0  0  0  0  0
  -30.8270  -13.6760   19.8160 N   0  0  0  0  0  0  0  0  0  0  0  0
  -32.8330  -14.6390   19.6740 O   0  0  0  0  0  0  0  0  0  0  0  0
  -31.0960  -16.0590   19.6210 N   0  0  0  0  0  0  0  0  0  0  0  0
  -26.1300  -14.2490   20.2520 C   0  0  0  0  0  0  0  0  0  0  0  0
  -25.0370  -13.5320   20.6550 C   0  0  0  0  0  0  0  0  0  0  0  0
  -25.4230  -12.1560   20.6000 C   0  0  0  0  0  0  0  0  0  0  0  0
  -27.1120  -13.3150   19.9670 N   0  0  0  0  0  0  0  0  0  0  0  0
  -26.6970  -12.0510   20.2440 N   0  0  0  0  0  0  0  0  0  0  0  0
  -24.6320  -10.9360   20.8100 C   0  0  0  0  0  0  0  0  0  0  0  0
  -24.9830   -9.9890   21.7970 C   0  0  0  0  0  3  0  0  0  0  0  0
  -24.1970   -8.8330   21.9940 C   0  0  0  0  0  3  0  0  0  0  0  0
  -23.0450   -8.6160   21.2030 C   0  0  0  0  0  0  0  0  0  0  0  0
  -22.7140   -9.5480   20.2030 C   0  0  0  0  0  3  0  0  0  0  0  0
  -23.4990  -10.6960   20.0060 C   0  0  0  0  0  3  0  0  0  0  0  0
  -22.2360   -7.5080   21.3040 O   0  0  0  0  0  0  0  0  0  0  0  0
  -22.0130   -6.8890   22.5070 C   0  0  0  0  0  0  0  0  0  0  0  0
  -21.4480   -7.5720   23.6060 C   0  0  0  0  0  3  0  0  0  0  0  0
  -21.1740   -6.8770   24.8010 C   0  0  0  0  0  3  0  0  0  0  0  0
  -21.4520   -5.5010   24.8960 C   0  0  0  0  0  0  0  0  0  0  0  0
  -22.0100   -4.8180   23.8000 C   0  0  0  0  0  3  0  0  0  0  0  0
  -22.2860   -5.5090   22.6080 C   0  0  0  0  0  0  0  0  0  0  0  0
  -22.8030   -4.8420   21.5490 F   0  0  0  0  0  0  0  0  0  0  0  0
  -21.1810   -4.8300   26.0410 F   0  0  0  0  0  0  0  0  0  0  0  0
  -23.6770  -14.0830   20.9720 C   0  0  0  0  0  0  0  0  0  0  0  0
  -22.9480  -13.4360   21.8740 N   0  0  0  0  0  0  0  0  0  0  0  0
  -23.2720  -15.1240   20.4510 O   0  0  0  0  0  0  0  0  0  0  0  0
  -23.2930  -12.6000   22.3210 H   0  0  0  0  0  0  0  0  0  0  0  0
  -22.0320  -13.7820   22.1240 H   0  0  0  0  0  0  0  0  0  0  0  0
  -26.3630  -15.6100   20.0800 N   0  0  0  0  0  0  0  0  0  0  0  0
  -25.6340  -16.2980   20.2400 H   0  0  0  0  0  0  0  0  0  0  0  0
  -27.2080  -16.0090   19.6950 H   0  0  0  0  0  0  0  0  0  0  0  0
  -31.5470  -16.7160   18.3770 C   0  0  0  0  0  2  0  0  0  0  0  0
  -33.2560  -18.2600   17.2390 C   0  0  0  0  0  1  0  0  0  0  0  0
  -32.9200  -17.4250   18.4830 C   0  0  0  0  0  2  0  0  0  0  0  0
  1  2  1  0
  1  3  2  0
  2  5  2  0
  3 51  1  0
  3  6  1  0
  5  6  1  0
  6  4  1  0
  7  8  1  0
  7  2  1  0
  9 10  1  0
  9  8  2  0
 11 22  2  0
 12 10  1  0
 12 17  1  0
 13 21  1  0
 13 23  1  0
 14 20  1  0
 14 16  1  0
 15 21  1  0
 16 15  1  0
 17 16  2  0
 18 19  1  0
 18 12  2  0
 19 14  2  0
 20 13  1  0
 21 11  1  0
 23 25  2  0
 24 23  1  0
 26 24  1  0
 27 36  2  0
 27 32  1  0
 28 24  1  0
 28 32  1  0
 29 28  1  0
 30 31  1  0
 30 29  1  0
 31 27  1  0
 32 33  2  0
 33 34  1  0
 35 34  2  0
 36 35  1  0
 37 11  1  0
 37 38  1  0
 37 47  1  0
 38 41  1  0
 39 43  1  0
 39 38  1  0
 40 39  2  0
 43 42  1  0
 45 43  1  0
 45 46  1  0
 45 44  1  0
 47 50  1  1
 47 48  1  0
 49 47  1  0
 53 58  1  0
 54 55  1  0
 54 53  1  0
 56 55  1  0
 56 64  1  0
 56 57  1  0
 58 52  1  0
 58 57  1  0
 59 52  2  0
 60 52  1  0
 60 51  1  0
 61 62  2  0
 62 81  1  0
 63 62  1  0
 63 66  1  0
 64 65  1  0
 64 61  1  0
 65 63  2  0
 66 67  1  0
 67 68  2  0
 69 72  1  0
 69 68  1  0
 70 69  2  0
 71 70  1  0
 71 66  2  0
 72 73  1  0
 73 78  2  0
 73 74  1  0
 74 75  2  0
 75 76  1  0
 76 80  1  0
 77 76  2  0
 78 77  1  0
 79 78  1  0
 81 82  1  0
 82 85  1  0
 82 84  1  0
 83 81  2  0
 86 87  1  0
 86 61  1  0
 88 86  1  0
 89 91  1  0
 89 60  1  0
 90 91  1  0
M  ISO  4   9 101  10 101  52 100  60 100
M  END
>  <TORSDO>  (88) 
F 22

>  <SCORE>  (88) 
-11.225

>  <name>  (88) 
89

>  <ligand_id>  (88) 
89

>  <original_smiles>  (88) 
[H]c1c([H])c([H])c2c(c1[H])C([H])([H])C([H])([H])C([H])([H])C2([H])N([H])C(=O)C1([H])N(C(=O)C([H])(N([H])C(=O)C([H])(N([H])C([H])([H])[H])C([H])([H])[H])C(C([H])([H])[H])(C([H])([H])[H])C([H])([H])[H])C([H])([H])c2c([H])c(OC([H])([H])C([H])([H])C([H])([H])c3nn(C([H])([H])[H])c(C([H])([H])N(C(=O)N4C([H])([H])C([H])([H])C([H])([H])C([H])(n5nc(-c6c([H])c([H])c(Oc7c([H])c([H])c(F)c([H])c7F)c([H])c6[H])c(C(=O)N([H])[H])c5N([H])[H])C4([H])[H])C([H])([H])C([H])([H])C([H])([H])[H])c3[H])c([H])c([H])c2C1([H])[H]

>  <smiles>  (88) 
[H]c1c([H])c([H])c2c(c1[H])C([H])([H])C([H])([H])C([H])([H])C2([H])N([H])C(=O)C1([H])N(C(=O)C([H])(N([H])C(=O)C([H])(N([H])C([H])([H])[H])C([H])([H])[H])C(C([H])([H])[H])(C([H])([H])[H])C([H])([H])[H])C([H])([H])c2c([H])c(OC([H])([H])C([H])([H])C([H])([H])c3nn(C([H])([H])[H])c(C([H])([H])N(C(=O)N4C([H])([H])C([H])([H])C([H])([H])C([H])(n5nc(-c6c([H])c([H])c(Oc7c([H])c([H])c(F)c([H])c7F)c([H])c6[H])c(C(=O)N([H])[H])c5N([H])[H])C4([H])[H])C([H])([H])C([H])([H])C([H])([H])[H])c3[H])c([H])c([H])c2C1([H])[H]

$$$$
90:0:0
     RDKit          3D

 91 99  0  0  1  0  0  0  0  0999 V2000
  -27.3350  -21.2890   19.8050 C   0  0  0  0  0  3  0  0  0  0  0  0
  -29.2250  -20.4690   21.0700 C   0  0  0  0  0  3  0  0  0  0  0  0
  -28.4460  -21.5730   20.6280 C   0  0  0  0  0  0  0  0  0  0  0  0
  -27.0510  -19.9510   19.4700 C   0  0  0  0  0  0  0  0  0  0  0  0
  -28.8640  -19.1500   20.6900 C   0  0  0  0  0  0  0  0  0  0  0  0
  -25.8370  -19.5880   18.6410 C   0  0  0  0  0  1  0  0  0  0  0  0
  -27.7940  -18.9130   19.9030 N   0  0  0  0  0  0  0  0  0  0  0  0
  -28.7400  -23.0040   21.1160 C   0  0  0  0  0  2  0  0  0  0  0  0
  -28.3290  -24.1960   20.1970 C   0  0  0  0  0  2  0  0  0  0  0  0
  -28.5160  -25.5770   20.8830 C   0  0  0  0  0  2  0  0  0  0  0  0
  -28.4320  -26.7130   20.0020 O   0  0  0  0  0  0  0  0  0  0  0  0
  -24.4840  -31.7700   23.1470 C   0  0  0  0  0  0  0  0  0  0  0  0
  -27.2530  -27.4230   20.0390 C   0  0  0  0  0  0  0  0  0  0  0  0
  -23.3240  -30.3730   21.4660 C   0  0  0  0  0  3  0  0  0  0  0  0
  -24.8260  -28.8810   20.0410 C   0  0  0  0  0  0  0  0  0  0  0  0
  -25.8450  -30.7830   21.3040 C   0  0  0  0  0  2  0  0  0  0  0  0
  -25.9680  -29.4220   20.6470 C   0  0  0  0  0  0  0  0  0  0  0  0
  -27.1850  -28.7030   20.6380 C   0  0  0  0  0  3  0  0  0  0  0  0
  -26.0990  -26.8960   19.4230 C   0  0  0  0  0  3  0  0  0  0  0  0
  -24.8870  -27.6150   19.4270 C   0  0  0  0  0  3  0  0  0  0  0  0
  -23.5650  -29.7150   20.0820 C   0  0  0  0  0  2  0  0  0  0  0  0
  -24.5680  -30.9900   22.0330 N   0  0  0  0  0  0  0  0  0  0  0  0
  -23.3920  -32.0120   23.6800 O   0  0  0  0  0  0  0  0  0  0  0  0
  -22.6810  -29.3250   22.4040 C   0  0  0  0  0  0  0  0  0  0  0  0
  -21.3630  -29.1140   22.2530 N   0  0  0  0  0  0  0  0  0  0  0  0
  -23.3650  -28.7010   23.2180 O   0  0  0  0  0  0  0  0  0  0  0  0
  -20.8720  -29.6770   21.5730 H   0  0  0  0  0  0  0  0  0  0  0  0
  -18.0070  -27.8390   22.6760 C   0  0  0  0  0  0  0  0  0  0  0  0
  -20.5550  -28.1470   22.9960 C   0  0  0  0  0  3  0  0  0  0  0  0
  -20.6970  -26.7260   22.4010 C   0  0  0  0  0  2  0  0  0  0  0  0
  -19.6200  -26.3980   21.3630 C   0  0  0  0  0  2  0  0  0  0  0  0
  -18.2250  -26.5030   21.9840 C   0  0  0  0  0  2  0  0  0  0  0  0
  -19.1020  -28.6170   23.1370 C   0  0  0  0  0  0  0  0  0  0  0  0
  -18.8500  -29.8670   23.7410 C   0  0  0  0  0  3  0  0  0  0  0  0
  -17.5330  -30.3410   23.8890 C   0  0  0  0  0  3  0  0  0  0  0  0
  -16.4510  -29.5600   23.4490 C   0  0  0  0  0  3  0  0  0  0  0  0
  -16.6890  -28.3110   22.8480 C   0  0  0  0  0  3  0  0  0  0  0  0
  -25.7510  -32.4130   23.7930 C   0  0  0  0  0  3  0  0  0  0  0  0
  -25.4160  -33.8020   24.1340 N   0  0  0  0  0  0  0  0  0  0  0  0
  -25.7440  -34.8670   23.3910 C   0  0  0  0  0  0  0  0  0  0  0  0
  -26.4320  -34.7830   22.3680 O   0  0  0  0  0  0  0  0  0  0  0  0
  -24.8030  -33.9380   24.9230 H   0  0  0  0  0  0  0  0  0  0  0  0
  -23.9900  -36.6320   23.0270 C   0  0  0  0  0  1  0  0  0  0  0  0
  -25.2260  -36.2430   23.8520 C   0  0  0  0  0  3  0  0  0  0  0  0
  -27.3320  -37.1570   24.7220 C   0  0  0  0  0  1  0  0  0  0  0  0
  -26.2420  -37.3140   23.7640 N   0  0  0  0  0  0  0  0  0  0  0  0
  -25.8190  -38.2260   23.9110 H   0  0  0  0  0  0  0  0  0  0  0  0
  -26.2620  -31.6350   25.0670 C   0  0  1  0  0  0  0  0  0  0  0  0
  -25.1590  -31.3670   26.1180 C   0  0  0  0  0  1  0  0  0  0  0  0
  -26.8720  -30.2720   24.6640 C   0  0  0  0  0  1  0  0  0  0  0  0
  -27.3890  -32.4400   25.7550 C   0  0  0  0  0  1  0  0  0  0  0  0
  -29.5400  -17.8850   21.2520 C   0  0  0  0  0  2  0  0  0  0  0  0
  -30.1220  -16.9010   20.1930 C   0  0  0  0  0  2  0  0  0  0  0  0
  -30.8430  -14.4910   20.0860 C   0  0  0  0  0  0  0  0  0  0  0  0
  -30.5290  -12.3250   18.9500 C   0  0  0  0  0  2  0  0  0  0  0  0
  -29.5430  -12.5480   17.7820 C   0  0  0  0  0  2  0  0  0  0  0  0
  -28.0830  -12.4230   18.2610 C   0  0  0  0  0  2  0  0  0  0  0  0
  -27.8020  -13.2490   19.5450 C   0  0  0  0  0  3  0  0  0  0  0  0
  -28.8910  -12.9890   20.6120 C   0  0  0  0  0  2  0  0  0  0  0  0
  -30.2000  -13.2940   20.0070 N   0  0  0  0  0  0  0  0  0  0  0  0
  -31.9310  -14.7100   19.5450 O   0  0  0  0  0  0  0  0  0  0  0  0
  -30.1030  -15.4850   20.6180 N   0  0  0  0  0  0  0  0  0  0  0  0
  -29.2610  -15.1750   21.0810 H   0  0  0  0  0  0  0  0  0  0  0  0
  -25.4380  -13.8910   20.3320 C   0  0  0  0  0  0  0  0  0  0  0  0
  -24.3730  -13.1340   20.7400 C   0  0  0  0  0  0  0  0  0  0  0  0
  -24.8150  -11.7760   20.6980 C   0  0  0  0  0  0  0  0  0  0  0  0
  -26.4620  -12.9940   20.0670 N   0  0  0  0  0  0  0  0  0  0  0  0
  -26.0910  -11.7180   20.3420 N   0  0  0  0  0  0  0  0  0  0  0  0
  -24.0810  -10.5240   20.9190 C   0  0  0  0  0  0  0  0  0  0  0  0
  -24.4920   -9.5910   21.8970 C   0  0  0  0  0  3  0  0  0  0  0  0
  -23.7590   -8.4020   22.1040 C   0  0  0  0  0  3  0  0  0  0  0  0
  -22.6030   -8.1370   21.3310 C   0  0  0  0  0  0  0  0  0  0  0  0
  -22.2120   -9.0580   20.3440 C   0  0  0  0  0  3  0  0  0  0  0  0
  -22.9440  -10.2390   20.1360 C   0  0  0  0  0  3  0  0  0  0  0  0
  -21.8440   -6.9970   21.4450 O   0  0  0  0  0  0  0  0  0  0  0  0
  -21.7070   -6.3400   22.6420 C   0  0  0  0  0  0  0  0  0  0  0  0
  -21.1830   -6.9800   23.7860 C   0  0  0  0  0  3  0  0  0  0  0  0
  -20.9940   -6.2490   24.9760 C   0  0  0  0  0  3  0  0  0  0  0  0
  -21.3160   -4.8800   25.0210 C   0  0  0  0  0  0  0  0  0  0  0  0
  -21.8310   -4.2390   23.8800 C   0  0  0  0  0  3  0  0  0  0  0  0
  -22.0220   -4.9680   22.6930 C   0  0  0  0  0  0  0  0  0  0  0  0
  -22.5000   -4.3420   21.5900 F   0  0  0  0  0  0  0  0  0  0  0  0
  -21.1270   -4.1750   26.1610 F   0  0  0  0  0  0  0  0  0  0  0  0
  -22.9930  -13.6300   21.0650 C   0  0  0  0  0  0  0  0  0  0  0  0
  -22.2930  -12.9460   21.9640 N   0  0  0  0  0  0  0  0  0  0  0  0
  -22.5450  -14.6570   20.5570 O   0  0  0  0  0  0  0  0  0  0  0  0
  -22.6680  -12.1150   22.3960 H   0  0  0  0  0  0  0  0  0  0  0  0
  -21.3670  -13.2560   22.2240 H   0  0  0  0  0  0  0  0  0  0  0  0
  -25.6150  -15.2590   20.1480 N   0  0  0  0  0  0  0  0  0  0  0  0
  -24.8640  -15.9260   20.2850 H   0  0  0  0  0  0  0  0  0  0  0  0
  -26.4670  -15.6910   19.8120 H   0  0  0  0  0  0  0  0  0  0  0  0
  1  3  1  0
  3  2  2  0
  3  8  1  0
  4  1  2  0
  4  7  1  0
  5  2  1  0
  5 52  1  0
  6  4  1  0
  7  5  2  0
  9 10  1  0
  9  8  1  0
 11 13  1  0
 11 10  1  0
 12 23  2  0
 13 18  1  0
 14 22  1  0
 14 24  1  0
 15 21  1  0
 15 17  1  0
 16 22  1  0
 17 16  1  0
 18 17  2  0
 19 20  1  0
 19 13  2  0
 20 15  2  0
 21 14  1  0
 22 12  1  0
 24 26  2  0
 25 24  1  0
 27 25  1  0
 28 37  2  0
 28 33  1  0
 29 25  1  0
 29 33  1  0
 30 29  1  0
 31 32  1  0
 31 30  1  0
 32 28  1  0
 33 34  2  0
 34 35  1  0
 36 35  2  0
 37 36  1  0
 38 12  1  0
 38 39  1  0
 38 48  1  0
 39 42  1  0
 40 44  1  0
 40 39  1  0
 41 40  2  0
 44 43  1  0
 46 44  1  0
 46 47  1  0
 46 45  1  0
 48 51  1  1
 48 49  1  0
 50 48  1  0
 53 62  1  0
 53 52  1  0
 54 62  1  0
 55 60  1  0
 56 57  1  0
 56 55  1  0
 58 57  1  0
 58 67  1  0
 58 59  1  0
 60 54  1  0
 60 59  1  0
 61 54  2  0
 62 63  1  0
 64 65  2  0
 65 84  1  0
 66 65  1  0
 66 69  1  0
 67 64  1  0
 67 68  1  0
 68 66  2  0
 69 70  1  0
 70 71  2  0
 72 75  1  0
 72 71  1  0
 73 72  2  0
 74 73  1  0
 74 69  2  0
 75 76  1  0
 76 81  2  0
 76 77  1  0
 77 78  2  0
 78 79  1  0
 79 83  1  0
 80 79  2  0
 81 80  1  0
 82 81  1  0
 84 85  1  0
 85 88  1  0
 85 87  1  0
 86 84  2  0
 89 90  1  0
 89 64  1  0
 91 89  1  0
M  ISO  4  10 101  11 101  54 100  62 100
M  END
>  <TORSDO>  (89) 
F 21

>  <SCORE>  (89) 
-12.341

>  <name>  (89) 
90

>  <ligand_id>  (89) 
90

>  <original_smiles>  (89) 
[H]c1c([H])c([H])c2c(c1[H])C([H])([H])C([H])([H])C([H])([H])C2([H])N([H])C(=O)C1([H])N(C(=O)C([H])(N([H])C(=O)C([H])(N([H])C([H])([H])[H])C([H])([H])[H])C(C([H])([H])[H])(C([H])([H])[H])C([H])([H])[H])C([H])([H])c2c([H])c(OC([H])([H])C([H])([H])C([H])([H])c3c([H])c(C([H])([H])[H])nc(C([H])([H])C([H])([H])N([H])C(=O)N4C([H])([H])C([H])([H])C([H])([H])C([H])(n5nc(-c6c([H])c([H])c(Oc7c([H])c([H])c(F)c([H])c7F)c([H])c6[H])c(C(=O)N([H])[H])c5N([H])[H])C4([H])[H])c3[H])c([H])c([H])c2C1([H])[H]

>  <smiles>  (89) 
[H]c1c([H])c([H])c2c(c1[H])C([H])([H])C([H])([H])C([H])([H])C2([H])N([H])C(=O)C1([H])N(C(=O)C([H])(N([H])C(=O)C([H])(N([H])C([H])([H])[H])C([H])([H])[H])C(C([H])([H])[H])(C([H])([H])[H])C([H])([H])[H])C([H])([H])c2c([H])c(OC([H])([H])C([H])([H])C([H])([H])c3c([H])c(C([H])([H])[H])nc(C([H])([H])C([H])([H])N([H])C(=O)N4C([H])([H])C([H])([H])C([H])([H])C([H])(n5nc(-c6c([H])c([H])c(Oc7c([H])c([H])c(F)c([H])c7F)c([H])c6[H])c(C(=O)N([H])[H])c5N([H])[H])C4([H])[H])c3[H])c([H])c([H])c2C1([H])[H]

$$$$
91:0:0
     RDKit          3D

 94102  0  0  1  0  0  0  0  0999 V2000
  -28.8330  -21.3910   22.0170 C   0  0  0  0  0  2  0  0  0  0  0  0
  -29.9420  -19.1960   21.3560 C   0  0  0  0  0  3  0  0  0  0  0  0
  -29.9960  -18.1260   20.4590 C   0  0  0  0  0  0  0  0  0  0  0  0
  -28.9850  -20.1860   21.1080 C   0  0  0  0  0  0  0  0  0  0  0  0
  -28.2830  -19.0430   19.2510 C   0  0  0  0  0  0  0  0  0  0  0  0
  -27.3410  -18.9740   18.0660 C   0  0  0  0  0  1  0  0  0  0  0  0
  -29.1450  -18.0380   19.4160 N   0  0  0  0  0  0  0  0  0  0  0  0
  -28.1770  -20.1160   20.0320 N   0  0  0  0  0  0  0  0  0  0  0  0
  -31.0520  -17.0520   20.6000 C   0  0  0  0  0  2  0  0  0  0  0  0
  -31.1590  -14.6460   20.2050 C   0  0  0  0  0  0  0  0  0  0  0  0
  -30.7380  -12.5330   19.0410 C   0  0  0  0  0  2  0  0  0  0  0  0
  -29.7680  -12.8160   17.8790 C   0  0  0  0  0  2  0  0  0  0  0  0
  -28.3070  -12.7190   18.3500 C   0  0  0  0  0  2  0  0  0  0  0  0
  -28.0400  -13.5440   19.6370 C   0  0  0  0  0  3  0  0  0  0  0  0
  -29.1180  -13.2580   20.7060 C   0  0  0  0  0  2  0  0  0  0  0  0
  -30.4350  -13.5030   20.0990 N   0  0  0  0  0  0  0  0  0  0  0  0
  -32.3010  -14.7690   19.7560 O   0  0  0  0  0  0  0  0  0  0  0  0
  -30.4910  -15.7120   20.6470 N   0  0  0  0  0  0  0  0  0  0  0  0
  -29.5140  -15.6370   20.8810 H   0  0  0  0  0  0  0  0  0  0  0  0
  -25.6890  -14.2150   20.4400 C   0  0  0  0  0  0  0  0  0  0  0  0
  -24.6060  -13.4710   20.8150 C   0  0  0  0  0  0  0  0  0  0  0  0
  -25.0150  -12.1050   20.7300 C   0  0  0  0  0  0  0  0  0  0  0  0
  -26.6950  -13.3070   20.1520 N   0  0  0  0  0  0  0  0  0  0  0  0
  -26.2920  -12.0300   20.3810 N   0  0  0  0  0  0  0  0  0  0  0  0
  -24.2480  -10.8660   20.9010 C   0  0  0  0  0  0  0  0  0  0  0  0
  -24.6480   -9.8650   21.8150 C   0  0  0  0  0  3  0  0  0  0  0  0
  -23.8800   -8.6910   21.9720 C   0  0  0  0  0  3  0  0  0  0  0  0
  -22.6980   -8.5080   21.2150 C   0  0  0  0  0  0  0  0  0  0  0  0
  -22.3190   -9.4970   20.2900 C   0  0  0  0  0  3  0  0  0  0  0  0
  -23.0880  -10.6620   20.1300 C   0  0  0  0  0  3  0  0  0  0  0  0
  -21.9020   -7.3910   21.2850 O   0  0  0  0  0  0  0  0  0  0  0  0
  -21.8000   -6.6500   22.4360 C   0  0  0  0  0  0  0  0  0  0  0  0
  -21.3470   -7.2160   23.6480 C   0  0  0  0  0  3  0  0  0  0  0  0
  -21.1860   -6.4010   24.7870 C   0  0  0  0  0  3  0  0  0  0  0  0
  -21.4720   -5.0250   24.7160 C   0  0  0  0  0  0  0  0  0  0  0  0
  -21.9220   -4.4610   23.5110 C   0  0  0  0  0  3  0  0  0  0  0  0
  -22.0830   -5.2710   22.3730 C   0  0  0  0  0  0  0  0  0  0  0  0
  -22.4940   -4.7180   21.2070 F   0  0  0  0  0  0  0  0  0  0  0  0
  -21.3130   -4.2420   25.8080 F   0  0  0  0  0  0  0  0  0  0  0  0
  -23.2350  -13.9910   21.1420 C   0  0  0  0  0  0  0  0  0  0  0  0
  -22.5090  -13.3010   22.0130 N   0  0  0  0  0  0  0  0  0  0  0  0
  -22.8200  -15.0450   20.6620 O   0  0  0  0  0  0  0  0  0  0  0  0
  -22.8570  -12.4440   22.4210 H   0  0  0  0  0  0  0  0  0  0  0  0
  -21.5920  -13.6340   22.2730 H   0  0  0  0  0  0  0  0  0  0  0  0
  -25.8980  -15.5850   20.3000 N   0  0  0  0  0  0  0  0  0  0  0  0
  -25.1570  -16.2580   20.4590 H   0  0  0  0  0  0  0  0  0  0  0  0
  -26.7570  -16.0080   19.9710 H   0  0  0  0  0  0  0  0  0  0  0  0
  -29.1440  -22.6410   21.3050 N   0  0  0  0  0  4  0  0  0  0  0  0
  -30.1050  -22.5950   21.0150 H   0  0  0  0  0  0  0  0  0  0  0  0
  -28.5670  -22.6200   20.4780 H   0  0  0  0  0  0  0  0  0  0  0  0
  -28.8710  -23.8400   22.1340 C   0  0  0  0  0  2  0  0  0  0  0  0
  -29.4080  -25.1770   21.5730 C   0  0  0  0  0  2  0  0  0  0  0  0
  -28.7850  -25.6330   20.2450 C   0  0  0  0  0  2  0  0  0  0  0  0
  -28.7580  -27.0610   20.2180 O   0  0  0  0  0  0  0  0  0  0  0  0
  -24.6770  -31.9810   23.3230 C   0  0  0  0  0  0  0  0  0  0  0  0
  -27.5340  -27.6890   20.2300 C   0  0  0  0  0  0  0  0  0  0  0  0
  -23.5490  -30.5590   21.6390 C   0  0  0  0  0  3  0  0  0  0  0  0
  -25.0810  -29.0920   20.2280 C   0  0  0  0  0  0  0  0  0  0  0  0
  -26.0640  -31.0100   21.4970 C   0  0  0  0  0  2  0  0  0  0  0  0
  -26.2060  -29.6510   20.8430 C   0  0  0  0  0  0  0  0  0  0  0  0
  -27.4370  -28.9600   20.8360 C   0  0  0  0  0  3  0  0  0  0  0  0
  -26.3880  -27.1400   19.6100 C   0  0  0  0  0  3  0  0  0  0  0  0
  -25.1650  -27.8340   19.6100 C   0  0  0  0  0  3  0  0  0  0  0  0
  -23.8080  -29.9030   20.2570 C   0  0  0  0  0  2  0  0  0  0  0  0
  -24.7800  -31.1970   22.2130 N   0  0  0  0  0  0  0  0  0  0  0  0
  -23.5800  -32.2080   23.8490 O   0  0  0  0  0  0  0  0  0  0  0  0
  -22.9120  -29.5050   22.5720 C   0  0  0  0  0  0  0  0  0  0  0  0
  -21.5980  -29.2780   22.4150 N   0  0  0  0  0  0  0  0  0  0  0  0
  -23.5990  -28.8920   23.3950 O   0  0  0  0  0  0  0  0  0  0  0  0
  -21.1010  -29.8180   21.7170 H   0  0  0  0  0  0  0  0  0  0  0  0
  -18.2500  -27.9960   22.8660 C   0  0  0  0  0  0  0  0  0  0  0  0
  -20.7960  -28.3110   23.1660 C   0  0  0  0  0  3  0  0  0  0  0  0
  -20.9380  -26.8890   22.5760 C   0  0  0  0  0  2  0  0  0  0  0  0
  -19.8590  -26.5630   21.5360 C   0  0  0  0  0  2  0  0  0  0  0  0
  -18.4650  -26.6690   22.1590 C   0  0  0  0  0  2  0  0  0  0  0  0
  -19.3440  -28.7750   23.3220 C   0  0  0  0  0  0  0  0  0  0  0  0
  -19.0910  -30.0210   23.9380 C   0  0  0  0  0  3  0  0  0  0  0  0
  -17.7710  -30.4890   24.0970 C   0  0  0  0  0  3  0  0  0  0  0  0
  -16.6920  -29.7050   23.6600 C   0  0  0  0  0  3  0  0  0  0  0  0
  -16.9310  -28.4600   23.0520 C   0  0  0  0  0  3  0  0  0  0  0  0
  -25.9310  -32.6430   23.9750 C   0  0  0  0  0  3  0  0  0  0  0  0
  -25.5940  -34.0440   24.2590 N   0  0  0  0  0  0  0  0  0  0  0  0
  -25.9330  -35.0800   23.4810 C   0  0  0  0  0  0  0  0  0  0  0  0
  -26.6380  -34.9630   22.4740 O   0  0  0  0  0  0  0  0  0  0  0  0
  -24.9740  -34.2110   25.0370 H   0  0  0  0  0  0  0  0  0  0  0  0
  -24.1870  -36.8310   23.0250 C   0  0  0  0  0  1  0  0  0  0  0  0
  -25.4100  -36.4720   23.8830 C   0  0  0  0  0  3  0  0  0  0  0  0
  -27.5000  -37.4200   24.7530 C   0  0  0  0  0  1  0  0  0  0  0  0
  -26.4260  -37.5390   23.7710 N   0  0  0  0  0  0  0  0  0  0  0  0
  -25.9990  -38.4540   23.8750 H   0  0  0  0  0  0  0  0  0  0  0  0
  -26.4150  -31.9080   25.2840 C   0  0  1  0  0  0  0  0  0  0  0  0
  -25.2860  -31.6620   26.3110 C   0  0  0  0  0  1  0  0  0  0  0  0
  -27.0470  -30.5380   24.9390 C   0  0  0  0  0  1  0  0  0  0  0  0
  -27.5180  -32.7430   25.9800 C   0  0  0  0  0  1  0  0  0  0  0  0
  3  9  1  0
  3  2  2  0
  4  2  1  0
  4  1  1  0
  5  7  2  0
  5  8  1  0
  6  5  1  0
  7  3  1  0
  8  4  2  0
  9 18  1  0
 10 18  1  0
 11 16  1  0
 12 13  1  0
 12 11  1  0
 14 13  1  0
 14 23  1  0
 14 15  1  0
 16 10  1  0
 16 15  1  0
 17 10  2  0
 18 19  1  0
 20 21  2  0
 21 40  1  0
 22 21  1  0
 22 25  1  0
 23 24  1  0
 23 20  1  0
 24 22  2  0
 25 26  1  0
 26 27  2  0
 28 31  1  0
 28 27  1  0
 29 28  2  0
 30 29  1  0
 30 25  2  0
 31 32  1  0
 32 33  1  0
 33 34  2  0
 35 34  1  0
 35 39  1  0
 36 35  2  0
 37 32  2  0
 37 36  1  0
 38 37  1  0
 40 41  1  0
 41 44  1  0
 41 43  1  0
 42 40  2  0
 45 20  1  0
 45 46  1  0
 47 45  1  0
 48  1  1  0
 48 51  1  0
 49 48  1  0
 50 48  1  0
 52 51  1  0
 53 52  1  0
 54 56  1  0
 54 53  1  0
 55 66  2  0
 56 61  1  0
 57 65  1  0
 57 67  1  0
 58 64  1  0
 58 60  1  0
 59 65  1  0
 60 59  1  0
 61 60  2  0
 62 56  2  0
 63 62  1  0
 63 58  2  0
 64 57  1  0
 65 55  1  0
 67 69  2  0
 68 67  1  0
 70 68  1  0
 71 80  2  0
 71 76  1  0
 72 68  1  0
 72 76  1  0
 73 72  1  0
 74 75  1  0
 74 73  1  0
 75 71  1  0
 76 77  2  0
 77 78  1  0
 79 78  2  0
 80 79  1  0
 81 55  1  0
 81 82  1  0
 81 91  1  0
 82 85  1  0
 83 87  1  0
 83 82  1  0
 84 83  2  0
 87 86  1  0
 89 90  1  0
 89 87  1  0
 89 88  1  0
 91 94  1  1
 91 92  1  0
 93 91  1  0
M  ISO  4  10 100  18 100  53 101  54 101
M  END
>  <TORSDO>  (90) 
F 22

>  <SCORE>  (90) 
-12.412

>  <name>  (90) 
91

>  <ligand_id>  (90) 
91

>  <original_smiles>  (90) 
[H]c1c(C([H])([H])N([H])C(=O)N2C([H])([H])C([H])([H])C([H])([H])C([H])(n3nc(-c4c([H])c([H])c(Oc5c([H])c([H])c(F)c([H])c5F)c([H])c4[H])c(C(=O)N([H])[H])c3N([H])[H])C2([H])[H])nc(C([H])([H])[H])nc1C([H])([H])[N+]([H])([H])C([H])([H])C([H])([H])C([H])([H])Oc1c([H])c([H])c2c(c1[H])C([H])([H])N(C(=O)C([H])(N([H])C(=O)C([H])(N([H])C([H])([H])[H])C([H])([H])[H])C(C([H])([H])[H])(C([H])([H])[H])C([H])([H])[H])C([H])(C(=O)N([H])C1([H])c3c([H])c([H])c([H])c([H])c3C([H])([H])C([H])([H])C1([H])[H])C2([H])[H]

>  <smiles>  (90) 
[H]c1c(C([H])([H])N([H])C(=O)N2C([H])([H])C([H])([H])C([H])([H])C([H])(n3nc(-c4c([H])c([H])c(Oc5c([H])c([H])c(F)c([H])c5F)c([H])c4[H])c(C(=O)N([H])[H])c3N([H])[H])C2([H])[H])nc(C([H])([H])[H])nc1C([H])([H])[N+]([H])([H])C([H])([H])C([H])([H])C([H])([H])Oc1c([H])c([H])c2c(c1[H])C([H])([H])N(C(=O)C([H])(N([H])C(=O)C([H])(N([H])C([H])([H])[H])C([H])([H])[H])C(C([H])([H])[H])(C([H])([H])[H])C([H])([H])[H])C([H])(C(=O)N([H])C1([H])c3c([H])c([H])c([H])c([H])c3C([H])([H])C([H])([H])C1([H])[H])C2([H])[H]

$$$$
92:0:0
     RDKit          3D

 95103  0  0  1  0  0  0  0  0999 V2000
  -30.4770  -22.2670   20.1410 C   0  0  0  0  0  3  0  0  0  0  0  0
  -31.2240  -23.4520   20.1880 C   0  0  0  0  0  0  0  0  0  0  0  0
  -29.1110  -22.3600   20.4500 C   0  0  0  0  0  0  0  0  0  0  0  0
  -29.3590  -24.6200   20.8210 C   0  0  0  0  0  0  0  0  0  0  0  0
  -32.7020  -23.4740   19.8580 C   0  0  0  0  0  1  0  0  0  0  0  0
  -30.6580  -24.6230   20.5290 N   0  0  0  0  0  0  0  0  0  0  0  0
  -28.5690  -23.5470   20.7910 N   0  0  0  0  0  0  0  0  0  0  0  0
  -28.1400  -21.1800   20.4030 C   0  0  0  0  0  2  0  0  0  0  0  0
  -28.5870  -19.9600   19.7290 N   0  0  0  0  0  0  0  0  0  0  0  0
  -27.4920  -19.3940   18.9560 F   0  0  0  0  0  0  0  0  0  0  0  0
  -29.1640  -19.0130   20.6920 C   0  0  0  0  0  2  0  0  0  0  0  0
  -31.2040  -18.2620   19.4070 C   0  0  0  0  0  1  0  0  0  0  0  0
  -29.0610  -17.0270   19.0390 C   0  0  0  0  0  1  0  0  0  0  0  0
  -29.9150  -17.7730   20.0980 C   0  0  2  0  0  0  0  0  0  0  0  0
  -30.3230  -16.8370   21.2960 C   0  0  0  0  0  2  0  0  0  0  0  0
  -30.6710  -14.4550   20.5510 C   0  0  0  0  0  0  0  0  0  0  0  0
  -30.3740  -12.3230   19.3480 C   0  0  0  0  0  2  0  0  0  0  0  0
  -29.4340  -12.5570   18.1480 C   0  0  0  0  0  2  0  0  0  0  0  0
  -27.9570  -12.4180   18.5700 C   0  0  0  0  0  2  0  0  0  0  0  0
  -27.6210  -13.2350   19.8450 C   0  0  0  0  0  3  0  0  0  0  0  0
  -28.6700  -12.9750   20.9500 C   0  0  0  0  0  2  0  0  0  0  0  0
  -30.0010  -13.2820   20.3960 N   0  0  0  0  0  0  0  0  0  0  0  0
  -31.7800  -14.6760   20.0600 O   0  0  0  0  0  0  0  0  0  0  0  0
  -29.9660  -15.4200   21.1590 N   0  0  0  0  0  0  0  0  0  0  0  0
  -29.0610  -15.1460   21.5110 H   0  0  0  0  0  0  0  0  0  0  0  0
  -25.2130  -13.8470   20.5220 C   0  0  0  0  0  0  0  0  0  0  0  0
  -24.1420  -13.0750   20.8890 C   0  0  0  0  0  0  0  0  0  0  0  0
  -24.6060  -11.7240   20.8710 C   0  0  0  0  0  0  0  0  0  0  0  0
  -26.2630  -12.9650   20.3100 N   0  0  0  0  0  0  0  0  0  0  0  0
  -25.8990  -11.6840   20.5740 N   0  0  0  0  0  0  0  0  0  0  0  0
  -23.8800  -10.4620   21.0620 C   0  0  0  0  0  0  0  0  0  0  0  0
  -24.3230   -9.4880   21.9860 C   0  0  0  0  0  3  0  0  0  0  0  0
  -23.6000   -8.2900   22.1650 C   0  0  0  0  0  3  0  0  0  0  0  0
  -22.4200   -8.0560   21.4220 C   0  0  0  0  0  0  0  0  0  0  0  0
  -21.9950   -9.0170   20.4880 C   0  0  0  0  0  3  0  0  0  0  0  0
  -22.7180  -10.2080   20.3060 C   0  0  0  0  0  3  0  0  0  0  0  0
  -21.6660   -6.9110   21.5120 O   0  0  0  0  0  0  0  0  0  0  0  0
  -21.6470   -6.1490   22.6530 C   0  0  0  0  0  0  0  0  0  0  0  0
  -21.2720   -6.6880   23.9040 C   0  0  0  0  0  3  0  0  0  0  0  0
  -21.2010   -5.8540   25.0370 C   0  0  0  0  0  3  0  0  0  0  0  0
  -21.4940   -4.4820   24.9220 C   0  0  0  0  0  0  0  0  0  0  0  0
  -21.8630   -3.9420   23.6770 C   0  0  0  0  0  3  0  0  0  0  0  0
  -21.9360   -4.7740   22.5460 C   0  0  0  0  0  0  0  0  0  0  0  0
  -22.2720   -4.2460   21.3450 F   0  0  0  0  0  0  0  0  0  0  0  0
  -21.4180   -3.6780   26.0080 F   0  0  0  0  0  0  0  0  0  0  0  0
  -22.7420  -13.5510   21.1490 C   0  0  0  0  0  0  0  0  0  0  0  0
  -22.0090  -12.8600   22.0150 N   0  0  0  0  0  0  0  0  0  0  0  0
  -22.3050  -14.5720   20.6190 O   0  0  0  0  0  0  0  0  0  0  0  0
  -22.3730  -12.0320   22.4640 H   0  0  0  0  0  0  0  0  0  0  0  0
  -21.0700  -13.1640   22.2320 H   0  0  0  0  0  0  0  0  0  0  0  0
  -25.3740  -15.2160   20.3340 N   0  0  0  0  0  0  0  0  0  0  0  0
  -24.6010  -15.8660   20.4190 H   0  0  0  0  0  0  0  0  0  0  0  0
  -26.2190  -15.6510   19.9850 H   0  0  0  0  0  0  0  0  0  0  0  0
  -28.7150  -25.9550   21.1960 C   0  0  0  0  0  2  0  0  0  0  0  0
  -28.4550  -26.7690   20.0510 O   0  0  0  0  0  0  0  0  0  0  0  0
  -24.6550  -31.9020   23.2360 C   0  0  0  0  0  0  0  0  0  0  0  0
  -27.2920  -27.4910   20.1250 C   0  0  0  0  0  0  0  0  0  0  0  0
  -23.4380  -30.4940   21.6060 C   0  0  0  0  0  3  0  0  0  0  0  0
  -24.8850  -28.9590   20.1720 C   0  0  0  0  0  0  0  0  0  0  0  0
  -25.9560  -30.8670   21.3810 C   0  0  0  0  0  2  0  0  0  0  0  0
  -26.0440  -29.4950   20.7490 C   0  0  0  0  0  0  0  0  0  0  0  0
  -27.2540  -28.7650   20.7310 C   0  0  0  0  0  3  0  0  0  0  0  0
  -26.1240  -26.9600   19.5460 C   0  0  0  0  0  3  0  0  0  0  0  0
  -24.9170  -27.6880   19.5700 C   0  0  0  0  0  3  0  0  0  0  0  0
  -23.6360  -29.8090   20.2260 C   0  0  0  0  0  2  0  0  0  0  0  0
  -24.7020  -31.1020   22.1330 N   0  0  0  0  0  0  0  0  0  0  0  0
  -23.5790  -32.1690   23.7880 O   0  0  0  0  0  0  0  0  0  0  0  0
  -22.8000  -29.4710   22.5730 C   0  0  0  0  0  0  0  0  0  0  0  0
  -21.4760  -29.2840   22.4560 N   0  0  0  0  0  0  0  0  0  0  0  0
  -23.4920  -28.8500   23.3830 O   0  0  0  0  0  0  0  0  0  0  0  0
  -20.9790  -29.8380   21.7720 H   0  0  0  0  0  0  0  0  0  0  0  0
  -18.1120  -28.0700   22.9670 C   0  0  0  0  0  0  0  0  0  0  0  0
  -20.6680  -28.3430   23.2320 C   0  0  0  0  0  3  0  0  0  0  0  0
  -20.7790  -26.9110   22.6600 C   0  0  0  0  0  2  0  0  0  0  0  0
  -19.6760  -26.5780   21.6520 C   0  0  0  0  0  2  0  0  0  0  0  0
  -18.2950  -26.7180   22.2980 C   0  0  0  0  0  2  0  0  0  0  0  0
  -19.2270  -28.8400   23.3920 C   0  0  0  0  0  0  0  0  0  0  0  0
  -19.0030  -30.1050   23.9780 C   0  0  0  0  0  3  0  0  0  0  0  0
  -17.6960  -30.6010   24.1430 C   0  0  0  0  0  3  0  0  0  0  0  0
  -16.5950  -29.8280   23.7360 C   0  0  0  0  0  3  0  0  0  0  0  0
  -16.8040  -28.5640   23.1540 C   0  0  0  0  0  3  0  0  0  0  0  0
  -25.9470  -32.5350   23.8430 C   0  0  0  0  0  3  0  0  0  0  0  0
  -25.6360  -33.9280   24.1890 N   0  0  0  0  0  0  0  0  0  0  0  0
  -25.9510  -34.9870   23.4320 C   0  0  0  0  0  0  0  0  0  0  0  0
  -26.6060  -34.8940   22.3900 O   0  0  0  0  0  0  0  0  0  0  0  0
  -25.0530  -34.0730   25.0000 H   0  0  0  0  0  0  0  0  0  0  0  0
  -24.2040  -36.7680   23.1140 C   0  0  0  0  0  1  0  0  0  0  0  0
  -25.4590  -36.3690   23.9050 C   0  0  0  0  0  3  0  0  0  0  0  0
  -27.6020  -37.2600   24.7070 C   0  0  0  0  0  1  0  0  0  0  0  0
  -26.4830  -37.4300   23.7840 N   0  0  0  0  0  0  0  0  0  0  0  0
  -26.0730  -38.3450   23.9460 H   0  0  0  0  0  0  0  0  0  0  0  0
  -26.4910  -31.7540   25.1020 C   0  0  1  0  0  0  0  0  0  0  0  0
  -25.4180  -31.4980   26.1860 C   0  0  0  0  0  1  0  0  0  0  0  0
  -27.0740  -30.3850   24.6820 C   0  0  0  0  0  1  0  0  0  0  0  0
  -27.6490  -32.5480   25.7510 C   0  0  0  0  0  1  0  0  0  0  0  0
  1  2  2  0
  1  3  1  0
  2  6  1  0
  3  7  2  0
  4 54  1  0
  5  2  1  0
  6  4  2  0
  7  4  1  0
  8  3  1  0
  9  8  1  0
  9 11  1  0
 10  9  1  0
 14 12  1  6
 13 14  1  0
 14 11  1  0
 14 15  1  0
 16 24  1  0
 17 22  1  0
 18 19  1  0
 18 17  1  0
 20 19  1  0
 20 29  1  0
 20 21  1  0
 22 16  1  0
 22 21  1  0
 23 16  2  0
 24 15  1  0
 24 25  1  0
 26 27  2  0
 27 46  1  0
 28 27  1  0
 28 31  1  0
 29 26  1  0
 29 30  1  0
 30 28  2  0
 31 32  1  0
 32 33  2  0
 34 37  1  0
 34 33  1  0
 35 34  2  0
 36 35  1  0
 36 31  2  0
 37 38  1  0
 38 39  1  0
 39 40  2  0
 41 40  1  0
 41 45  1  0
 42 41  2  0
 43 38  2  0
 43 42  1  0
 44 43  1  0
 46 47  1  0
 47 50  1  0
 47 49  1  0
 48 46  2  0
 51 52  1  0
 51 26  1  0
 53 51  1  0
 55 57  1  0
 55 54  1  0
 56 67  2  0
 57 62  1  0
 58 66  1  0
 58 68  1  0
 59 65  1  0
 59 61  1  0
 60 66  1  0
 61 60  1  0
 62 61  2  0
 63 64  1  0
 63 57  2  0
 64 59  2  0
 65 58  1  0
 66 56  1  0
 68 70  2  0
 69 68  1  0
 71 69  1  0
 72 81  2  0
 72 77  1  0
 73 69  1  0
 73 77  1  0
 74 73  1  0
 75 76  1  0
 75 74  1  0
 76 72  1  0
 77 78  2  0
 78 79  1  0
 80 79  2  0
 81 80  1  0
 82 56  1  0
 82 83  1  0
 82 92  1  0
 83 86  1  0
 84 88  1  0
 84 83  1  0
 85 84  2  0
 88 87  1  0
 90 88  1  0
 90 91  1  0
 90 89  1  0
 92 95  1  1
 92 93  1  0
 94 92  1  0
M  ISO  4  16 100  24 100  54 101  55 101
M  END
>  <TORSDO>  (91) 
F 22

>  <SCORE>  (91) 
-13.405

>  <name>  (91) 
92

>  <ligand_id>  (91) 
92

>  <original_smiles>  (91) 
[H]c1c(C([H])([H])[H])nc(C([H])([H])Oc2c([H])c([H])c3c(c2[H])C([H])([H])N(C(=O)C([H])(N([H])C(=O)C([H])(N([H])C([H])([H])[H])C([H])([H])[H])C(C([H])([H])[H])(C([H])([H])[H])C([H])([H])[H])C([H])(C(=O)N([H])C2([H])c4c([H])c([H])c([H])c([H])c4C([H])([H])C([H])([H])C2([H])[H])C3([H])[H])nc1C([H])([H])N(F)C([H])([H])C(C([H])([H])[H])(C([H])([H])[H])C([H])([H])N([H])C(=O)N1C([H])([H])C([H])([H])C([H])([H])C([H])(n2nc(-c3c([H])c([H])c(Oc4c([H])c([H])c(F)c([H])c4F)c([H])c3[H])c(C(=O)N([H])[H])c2N([H])[H])C1([H])[H]

>  <smiles>  (91) 
[H]c1c(C([H])([H])[H])nc(C([H])([H])Oc2c([H])c([H])c3c(c2[H])C([H])([H])N(C(=O)C([H])(N([H])C(=O)C([H])(N([H])C([H])([H])[H])C([H])([H])[H])C(C([H])([H])[H])(C([H])([H])[H])C([H])([H])[H])C([H])(C(=O)N([H])C2([H])c4c([H])c([H])c([H])c([H])c4C([H])([H])C([H])([H])C2([H])[H])C3([H])[H])nc1C([H])([H])N(F)C([H])([H])C(C([H])([H])[H])(C([H])([H])[H])C([H])([H])N([H])C(=O)N1C([H])([H])C([H])([H])C([H])([H])C([H])(n2nc(-c3c([H])c([H])c(Oc4c([H])c([H])c(F)c([H])c4F)c([H])c3[H])c(C(=O)N([H])[H])c2N([H])[H])C1([H])[H]

$$$$
93:0:0
     RDKit          3D

 90 98  0  0  1  0  0  0  0  0999 V2000
  -30.4400  -19.5500   21.2770 C   0  0  0  0  0  3  0  0  0  0  0  0
  -29.0180  -18.4120   20.0080 C   0  0  0  0  0  3  0  0  0  0  0  0
  -30.1340  -18.2380   20.7790 C   0  0  0  0  0  0  0  0  0  0  0  0
  -29.5240  -20.4700   20.8230 C   0  0  0  0  0  0  0  0  0  0  0  0
  -27.4960  -20.2820   19.3060 C   0  0  0  0  0  1  0  0  0  0  0  0
  -28.6410  -19.7510   20.0250 N   0  0  0  0  0  0  0  0  0  0  0  0
  -30.9240  -16.9510   21.0690 C   0  0  0  0  0  2  0  0  0  0  0  0
  -30.8990  -14.5990   20.1710 C   0  0  0  0  0  0  0  0  0  0  0  0
  -30.5260  -12.4410   19.0180 C   0  0  0  0  0  2  0  0  0  0  0  0
  -29.5460  -12.6640   17.8490 C   0  0  0  0  0  2  0  0  0  0  0  0
  -28.0880  -12.5270   18.3330 C   0  0  0  0  0  2  0  0  0  0  0  0
  -27.8050  -13.3520   19.6190 C   0  0  0  0  0  3  0  0  0  0  0  0
  -28.9030  -13.1320   20.6830 C   0  0  0  0  0  2  0  0  0  0  0  0
  -30.2000  -13.4340   20.0590 N   0  0  0  0  0  0  0  0  0  0  0  0
  -32.0060  -14.7450   19.6430 O   0  0  0  0  0  0  0  0  0  0  0  0
  -30.2900  -15.6360   20.7930 N   0  0  0  0  0  0  0  0  0  0  0  0
  -29.3660  -15.4800   21.1630 H   0  0  0  0  0  0  0  0  0  0  0  0
  -25.4500  -13.9670   20.4470 C   0  0  0  0  0  0  0  0  0  0  0  0
  -24.3890  -13.2000   20.8480 C   0  0  0  0  0  0  0  0  0  0  0  0
  -24.8310  -11.8440   20.7690 C   0  0  0  0  0  0  0  0  0  0  0  0
  -26.4720  -13.0790   20.1520 N   0  0  0  0  0  0  0  0  0  0  0  0
  -26.1070  -11.7950   20.4040 N   0  0  0  0  0  0  0  0  0  0  0  0
  -24.0970  -10.5870   20.9670 C   0  0  0  0  0  0  0  0  0  0  0  0
  -24.5380   -9.6100   21.8870 C   0  0  0  0  0  3  0  0  0  0  0  0
  -23.8040   -8.4180   22.0720 C   0  0  0  0  0  3  0  0  0  0  0  0
  -22.6150   -8.1950   21.3370 C   0  0  0  0  0  0  0  0  0  0  0  0
  -22.1930   -9.1620   20.4070 C   0  0  0  0  0  3  0  0  0  0  0  0
  -22.9280  -10.3440   20.2190 C   0  0  0  0  0  3  0  0  0  0  0  0
  -21.8520   -7.0560   21.4330 O   0  0  0  0  0  0  0  0  0  0  0  0
  -21.7930   -6.3230   22.5900 C   0  0  0  0  0  0  0  0  0  0  0  0
  -21.3430   -6.8860   23.8050 C   0  0  0  0  0  3  0  0  0  0  0  0
  -21.2330   -6.0790   24.9560 C   0  0  0  0  0  3  0  0  0  0  0  0
  -21.5600   -4.7110   24.8920 C   0  0  0  0  0  0  0  0  0  0  0  0
  -22.0020   -4.1480   23.6820 C   0  0  0  0  0  3  0  0  0  0  0  0
  -22.1150   -4.9520   22.5340 C   0  0  0  0  0  0  0  0  0  0  0  0
  -22.5220   -4.4000   21.3650 F   0  0  0  0  0  0  0  0  0  0  0  0
  -21.4470   -3.9350   25.9950 F   0  0  0  0  0  0  0  0  0  0  0  0
  -23.0130  -13.6900   21.1930 C   0  0  0  0  0  0  0  0  0  0  0  0
  -22.3150  -12.9880   22.0810 N   0  0  0  0  0  0  0  0  0  0  0  0
  -22.5640  -14.7290   20.7110 O   0  0  0  0  0  0  0  0  0  0  0  0
  -22.6920  -12.1490   22.4960 H   0  0  0  0  0  0  0  0  0  0  0  0
  -21.3910  -13.2960   22.3480 H   0  0  0  0  0  0  0  0  0  0  0  0
  -25.6220  -15.3380   20.2860 N   0  0  0  0  0  0  0  0  0  0  0  0
  -24.8590  -15.9900   20.4180 H   0  0  0  0  0  0  0  0  0  0  0  0
  -26.4520  -15.7680   19.8980 H   0  0  0  0  0  0  0  0  0  0  0  0
  -29.3800  -21.9650   21.1110 C   0  0  0  0  0  3  0  0  0  0  0  0
  -29.6850  -22.9370   19.9370 C   0  0  0  0  0  3  0  0  0  0  0  0
  -29.8080  -24.4660   20.2790 C   0  0  0  0  0  2  0  0  0  0  0  0
  -28.4910  -25.2880   20.3040 C   0  0  0  0  0  2  0  0  0  0  0  0
  -28.6780  -26.7270   20.1750 O   0  0  0  0  0  0  0  0  0  0  0  0
  -24.5590  -31.7440   23.1740 C   0  0  0  0  0  0  0  0  0  0  0  0
  -27.5150  -27.4800   20.1000 C   0  0  0  0  0  0  0  0  0  0  0  0
  -23.4940  -30.3570   21.4280 C   0  0  0  0  0  3  0  0  0  0  0  0
  -25.0770  -28.9370   20.0220 C   0  0  0  0  0  0  0  0  0  0  0  0
  -26.0130  -30.8140   21.3710 C   0  0  0  0  0  2  0  0  0  0  0  0
  -26.1860  -29.4670   20.6940 C   0  0  0  0  0  0  0  0  0  0  0  0
  -27.4100  -28.7470   20.7330 C   0  0  0  0  0  3  0  0  0  0  0  0
  -26.3910  -26.9970   19.3880 C   0  0  0  0  0  3  0  0  0  0  0  0
  -25.1800  -27.7060   19.3570 C   0  0  0  0  0  3  0  0  0  0  0  0
  -23.7990  -29.7440   20.0370 C   0  0  0  0  0  2  0  0  0  0  0  0
  -24.7030  -30.9860   22.0500 N   0  0  0  0  0  0  0  0  0  0  0  0
  -23.4420  -31.9500   23.6700 O   0  0  0  0  0  0  0  0  0  0  0  0
  -22.8400  -29.2740   22.3200 C   0  0  0  0  0  0  0  0  0  0  0  0
  -21.5190  -29.0860   22.1700 N   0  0  0  0  0  0  0  0  0  0  0  0
  -23.5210  -28.6110   23.1070 O   0  0  0  0  0  0  0  0  0  0  0  0
  -21.0320  -29.6570   21.4930 H   0  0  0  0  0  0  0  0  0  0  0  0
  -18.1390  -27.8990   22.6460 C   0  0  0  0  0  0  0  0  0  0  0  0
  -20.7050  -28.1060   22.8890 C   0  0  0  0  0  3  0  0  0  0  0  0
  -20.7740  -26.7210   22.2120 C   0  0  0  0  0  2  0  0  0  0  0  0
  -19.6520  -26.4880   21.1930 C   0  0  0  0  0  2  0  0  0  0  0  0
  -18.2870  -26.5960   21.8770 C   0  0  0  0  0  2  0  0  0  0  0  0
  -19.2740  -28.6140   23.1110 C   0  0  0  0  0  0  0  0  0  0  0  0
  -19.0820  -29.8310   23.8030 C   0  0  0  0  0  3  0  0  0  0  0  0
  -17.7870  -30.3340   24.0250 C   0  0  0  0  0  3  0  0  0  0  0  0
  -16.6660  -29.6170   23.5720 C   0  0  0  0  0  3  0  0  0  0  0  0
  -16.8420  -28.4000   22.8890 C   0  0  0  0  0  3  0  0  0  0  0  0
  -25.7850  -32.4060   23.8770 C   0  0  0  0  0  3  0  0  0  0  0  0
  -25.4190  -33.7950   24.1870 N   0  0  0  0  0  0  0  0  0  0  0  0
  -25.7630  -34.8560   23.4430 C   0  0  0  0  0  0  0  0  0  0  0  0
  -26.4930  -34.7700   22.4520 O   0  0  0  0  0  0  0  0  0  0  0  0
  -24.7760  -33.9330   24.9540 H   0  0  0  0  0  0  0  0  0  0  0  0
  -24.0010  -36.5930   22.9930 C   0  0  0  0  0  1  0  0  0  0  0  0
  -25.2110  -36.2290   23.8680 C   0  0  0  0  0  3  0  0  0  0  0  0
  -27.2680  -37.1870   24.8080 C   0  0  0  0  0  1  0  0  0  0  0  0
  -26.2160  -37.3120   23.8010 N   0  0  0  0  0  0  0  0  0  0  0  0
  -25.7750  -38.2220   23.9170 H   0  0  0  0  0  0  0  0  0  0  0  0
  -26.2420  -31.6420   25.1780 C   0  0  1  0  0  0  0  0  0  0  0  0
  -25.0920  -31.3750   26.1780 C   0  0  0  0  0  1  0  0  0  0  0  0
  -26.8790  -30.2800   24.8140 C   0  0  0  0  0  1  0  0  0  0  0  0
  -27.3340  -32.4590   25.9080 C   0  0  0  0  0  1  0  0  0  0  0  0
  2  6  1  0
  2  3  2  0
  3  7  1  0
  3  1  1  0
  4 46  1  0
  4  1  2  0
  5  6  1  0
  6  4  1  0
  8 16  1  0
  9 14  1  0
 10 11  1  0
 10  9  1  0
 12 11  1  0
 12 21  1  0
 12 13  1  0
 14  8  1  0
 14 13  1  0
 15  8  2  0
 16  7  1  0
 16 17  1  0
 18 19  2  0
 19 38  1  0
 20 19  1  0
 20 23  1  0
 21 22  1  0
 21 18  1  0
 22 20  2  0
 23 24  1  0
 24 25  2  0
 26 29  1  0
 26 25  1  0
 27 26  2  0
 28 27  1  0
 28 23  2  0
 29 30  1  0
 30 31  1  0
 31 32  2  0
 33 32  1  0
 33 37  1  0
 34 33  2  0
 35 30  2  0
 35 34  1  0
 36 35  1  0
 38 39  1  0
 39 42  1  0
 39 41  1  0
 40 38  2  0
 43 44  1  0
 43 18  1  0
 45 43  1  0
 47 48  1  0
 47 46  2  0
 48 49  1  0
 50 49  1  0
 51 62  2  0
 52 50  1  0
 52 57  1  0
 53 61  1  0
 53 63  1  0
 54 60  1  0
 54 56  1  0
 55 61  1  0
 56 57  2  0
 56 55  1  0
 58 52  2  0
 59 58  1  0
 59 54  2  0
 60 53  1  0
 61 51  1  0
 63 65  2  0
 64 63  1  0
 66 64  1  0
 67 76  2  0
 67 72  1  0
 68 64  1  0
 68 72  1  0
 69 68  1  0
 70 71  1  0
 70 69  1  0
 71 67  1  0
 72 73  2  0
 73 74  1  0
 75 74  2  0
 76 75  1  0
 77 51  1  0
 77 78  1  0
 77 87  1  0
 78 81  1  0
 79 83  1  0
 79 78  1  0
 80 79  2  0
 83 82  1  0
 85 83  1  0
 85 86  1  0
 85 84  1  0
 87 90  1  1
 87 88  1  0
 89 87  1  0
M  ISO  4   8 100  16 100  49 101  50 101
M  END
>  <TORSDO>  (92) 
F 21

>  <SCORE>  (92) 
-13.348

>  <name>  (92) 
93

>  <ligand_id>  (92) 
93

>  <original_smiles>  (92) 
[H]c1c([H])c([H])c2c(c1[H])C([H])([H])C([H])([H])C([H])([H])C2([H])N([H])C(=O)C1([H])N(C(=O)C([H])(N([H])C(=O)C([H])(N([H])C([H])([H])[H])C([H])([H])[H])C(C([H])([H])[H])(C([H])([H])[H])C([H])([H])[H])C([H])([H])c2c([H])c(OC([H])([H])C([H])([H])C([H])([H])C([H])([H])c3c([H])c(C([H])([H])N([H])C(=O)N4C([H])([H])C([H])([H])C([H])([H])C([H])(n5nc(-c6c([H])c([H])c(Oc7c([H])c([H])c(F)c([H])c7F)c([H])c6[H])c(C(=O)N([H])[H])c5N([H])[H])C4([H])[H])c([H])n3C([H])([H])[H])c([H])c([H])c2C1([H])[H]

>  <smiles>  (92) 
[H]c1c([H])c([H])c2c(c1[H])C([H])([H])C([H])([H])C([H])([H])C2([H])N([H])C(=O)C1([H])N(C(=O)C([H])(N([H])C(=O)C([H])(N([H])C([H])([H])[H])C([H])([H])[H])C(C([H])([H])[H])(C([H])([H])[H])C([H])([H])[H])C([H])([H])c2c([H])c(OC([H])([H])C([H])([H])C([H])([H])C([H])([H])c3c([H])c(C([H])([H])N([H])C(=O)N4C([H])([H])C([H])([H])C([H])([H])C([H])(n5nc(-c6c([H])c([H])c(Oc7c([H])c([H])c(F)c([H])c7F)c([H])c6[H])c(C(=O)N([H])[H])c5N([H])[H])C4([H])[H])c([H])n3C([H])([H])[H])c([H])c([H])c2C1([H])[H]

$$$$
94:0:0
     RDKit          3D

 92100  0  0  1  0  0  0  0  0999 V2000
  -29.3810  -23.3090   21.4280 C   0  0  0  0  0  3  0  0  0  0  0  0
  -28.8210  -23.7710   20.2060 C   0  0  0  0  0  0  0  0  0  0  0  0
  -29.8410  -21.1820   20.5140 C   0  0  0  0  0  0  0  0  0  0  0  0
  -29.2530  -21.6350   19.2990 C   0  0  0  0  0  0  0  0  0  0  0  0
  -29.8970  -22.0440   21.5740 N   0  0  0  0  0  0  0  0  0  0  0  0
  -28.7700  -22.9020   19.1550 N   0  0  0  0  0  0  0  0  0  0  0  0
  -30.5780  -19.8070   20.6450 C   0  0  0  0  0  2  0  0  0  0  0  0
  -29.7850  -18.4510   20.8640 C   0  0  0  0  0  2  0  0  0  0  0  0
  -30.6810  -17.1600   20.6610 C   0  0  0  0  0  2  0  0  0  0  0  0
  -30.7540  -14.6470   20.4670 C   0  0  0  0  0  0  0  0  0  0  0  0
  -30.4470  -12.4410   19.3830 C   0  0  0  0  0  2  0  0  0  0  0  0
  -29.5220  -12.6030   18.1600 C   0  0  0  0  0  2  0  0  0  0  0  0
  -28.0490  -12.4510   18.5820 C   0  0  0  0  0  2  0  0  0  0  0  0
  -27.6890  -13.3040   19.8270 C   0  0  0  0  0  3  0  0  0  0  0  0
  -28.7440  -13.1680   20.9490 C   0  0  0  0  0  2  0  0  0  0  0  0
  -30.0580  -13.4710   20.3680 N   0  0  0  0  0  0  0  0  0  0  0  0
  -31.9200  -14.7290   20.0800 O   0  0  0  0  0  0  0  0  0  0  0  0
  -30.0820  -15.7880   20.8010 N   0  0  0  0  0  0  0  0  0  0  0  0
  -29.1160  -15.7060   21.0820 H   0  0  0  0  0  0  0  0  0  0  0  0
  -25.2870  -13.8860   20.5280 C   0  0  0  0  0  0  0  0  0  0  0  0
  -24.2220  -13.1060   20.8850 C   0  0  0  0  0  0  0  0  0  0  0  0
  -24.6910  -11.7570   20.8570 C   0  0  0  0  0  0  0  0  0  0  0  0
  -26.3400  -13.0120   20.3030 N   0  0  0  0  0  0  0  0  0  0  0  0
  -25.9850  -11.7260   20.5630 N   0  0  0  0  0  0  0  0  0  0  0  0
  -23.9680  -10.4910   21.0410 C   0  0  0  0  0  0  0  0  0  0  0  0
  -24.3830   -9.5330   21.9920 C   0  0  0  0  0  3  0  0  0  0  0  0
  -23.6600   -8.3340   22.1640 C   0  0  0  0  0  3  0  0  0  0  0  0
  -22.5080   -8.0820   21.3830 C   0  0  0  0  0  0  0  0  0  0  0  0
  -22.1110   -9.0280   20.4220 C   0  0  0  0  0  3  0  0  0  0  0  0
  -22.8350  -10.2200   20.2480 C   0  0  0  0  0  3  0  0  0  0  0  0
  -21.7580   -6.9340   21.4620 O   0  0  0  0  0  0  0  0  0  0  0  0
  -21.6650   -6.2130   22.6260 C   0  0  0  0  0  0  0  0  0  0  0  0
  -21.1660   -6.7840   23.8170 C   0  0  0  0  0  3  0  0  0  0  0  0
  -21.0210   -5.9900   24.9720 C   0  0  0  0  0  3  0  0  0  0  0  0
  -21.3650   -4.6260   24.9360 C   0  0  0  0  0  0  0  0  0  0  0  0
  -21.8570   -4.0540   23.7510 C   0  0  0  0  0  3  0  0  0  0  0  0
  -22.0030   -4.8460   22.5970 C   0  0  0  0  0  0  0  0  0  0  0  0
  -22.4570   -4.2840   21.4510 F   0  0  0  0  0  0  0  0  0  0  0  0
  -21.2200   -3.8610   26.0440 F   0  0  0  0  0  0  0  0  0  0  0  0
  -22.8200  -13.5760   21.1460 C   0  0  0  0  0  0  0  0  0  0  0  0
  -22.0920  -12.8780   22.0100 N   0  0  0  0  0  0  0  0  0  0  0  0
  -22.3800  -14.5980   20.6210 O   0  0  0  0  0  0  0  0  0  0  0  0
  -22.4600  -12.0490   22.4530 H   0  0  0  0  0  0  0  0  0  0  0  0
  -21.1520  -13.1770   22.2330 H   0  0  0  0  0  0  0  0  0  0  0  0
  -25.4460  -15.2580   20.3540 N   0  0  0  0  0  0  0  0  0  0  0  0
  -24.6740  -15.9080   20.4590 H   0  0  0  0  0  0  0  0  0  0  0  0
  -26.2950  -15.7050   20.0320 H   0  0  0  0  0  0  0  0  0  0  0  0
  -29.0880  -20.7460   18.0740 C   0  0  0  0  0  2  0  0  0  0  0  0
  -27.4890  -19.3190   16.6890 C   0  0  0  0  0  1  0  0  0  0  0  0
  -27.6660  -20.1710   17.9520 C   0  0  0  0  0  2  0  0  0  0  0  0
  -27.9040  -25.0290   20.0520 C   0  0  0  0  0  2  0  0  0  0  0  0
  -28.3200  -26.4480   20.1750 O   0  0  0  0  0  0  0  0  0  0  0  0
  -24.6370  -31.8660   23.2410 C   0  0  0  0  0  0  0  0  0  0  0  0
  -27.2370  -27.3520   20.1130 C   0  0  0  0  0  0  0  0  0  0  0  0
  -23.4350  -30.4980   21.5810 C   0  0  0  0  0  3  0  0  0  0  0  0
  -24.8860  -28.9910   20.1300 C   0  0  0  0  0  0  0  0  0  0  0  0
  -25.9800  -30.8150   21.4100 C   0  0  0  0  0  2  0  0  0  0  0  0
  -26.0590  -29.4510   20.7400 C   0  0  0  0  0  0  0  0  0  0  0  0
  -27.2400  -28.6440   20.7270 C   0  0  0  0  0  3  0  0  0  0  0  0
  -26.0340  -26.9720   19.4610 C   0  0  0  0  0  3  0  0  0  0  0  0
  -24.8760  -27.7550   19.4810 C   0  0  0  0  0  3  0  0  0  0  0  0
  -23.6500  -29.8620   20.1880 C   0  0  0  0  0  2  0  0  0  0  0  0
  -24.7030  -31.0740   22.1340 N   0  0  0  0  0  0  0  0  0  0  0  0
  -23.5520  -32.1360   23.7770 O   0  0  0  0  0  0  0  0  0  0  0  0
  -22.7740  -29.4560   22.5170 C   0  0  0  0  0  0  0  0  0  0  0  0
  -21.4460  -29.2860   22.3920 N   0  0  0  0  0  0  0  0  0  0  0  0
  -23.4540  -28.8090   23.3170 O   0  0  0  0  0  0  0  0  0  0  0  0
  -20.9560  -29.8660   21.7240 H   0  0  0  0  0  0  0  0  0  0  0  0
  -18.0600  -28.1200   22.9010 C   0  0  0  0  0  0  0  0  0  0  0  0
  -20.6250  -28.3390   23.1480 C   0  0  0  0  0  3  0  0  0  0  0  0
  -20.7020  -26.9190   22.5390 C   0  0  0  0  0  2  0  0  0  0  0  0
  -19.5830  -26.6340   21.5310 C   0  0  0  0  0  2  0  0  0  0  0  0
  -18.2100  -26.7830   22.1930 C   0  0  0  0  0  2  0  0  0  0  0  0
  -19.1940  -28.8560   23.3360 C   0  0  0  0  0  0  0  0  0  0  0  0
  -18.9980  -30.1090   23.9580 C   0  0  0  0  0  3  0  0  0  0  0  0
  -17.7030  -30.6220   24.1510 C   0  0  0  0  0  3  0  0  0  0  0  0
  -16.5840  -29.8820   23.7330 C   0  0  0  0  0  3  0  0  0  0  0  0
  -16.7630  -28.6320   23.1140 C   0  0  0  0  0  3  0  0  0  0  0  0
  -25.9180  -32.4900   23.8710 C   0  0  0  0  0  3  0  0  0  0  0  0
  -25.6100  -33.8860   24.2120 N   0  0  0  0  0  0  0  0  0  0  0  0
  -25.9200  -34.9410   23.4480 C   0  0  0  0  0  0  0  0  0  0  0  0
  -26.5670  -34.8430   22.4010 O   0  0  0  0  0  0  0  0  0  0  0  0
  -25.0410  -34.0350   25.0320 H   0  0  0  0  0  0  0  0  0  0  0  0
  -24.1680  -36.7200   23.1420 C   0  0  0  0  0  1  0  0  0  0  0  0
  -25.4350  -36.3260   23.9180 C   0  0  0  0  0  3  0  0  0  0  0  0
  -27.5860  -37.2280   24.6870 C   0  0  0  0  0  1  0  0  0  0  0  0
  -26.4560  -37.3880   23.7750 N   0  0  0  0  0  0  0  0  0  0  0  0
  -26.0480  -38.3040   23.9340 H   0  0  0  0  0  0  0  0  0  0  0  0
  -26.4260  -31.7060   25.1420 C   0  0  1  0  0  0  0  0  0  0  0  0
  -25.3270  -31.4580   26.2020 C   0  0  0  0  0  1  0  0  0  0  0  0
  -27.0120  -30.3310   24.7400 C   0  0  0  0  0  1  0  0  0  0  0  0
  -27.5740  -32.4940   25.8180 C   0  0  0  0  0  1  0  0  0  0  0  0
  1  5  1  0
  2  1  2  0
  3  7  1  0
  3  5  2  0
  4  3  1  0
  6  4  2  0
  6  2  1  0
  7  8  1  0
  9 18  1  0
  9  8  1  0
 10 18  1  0
 11 16  1  0
 12 13  1  0
 12 11  1  0
 14 13  1  0
 14 23  1  0
 14 15  1  0
 16 10  1  0
 16 15  1  0
 17 10  2  0
 18 19  1  0
 20 21  2  0
 21 40  1  0
 22 21  1  0
 22 25  1  0
 23 20  1  0
 23 24  1  0
 24 22  2  0
 25 26  1  0
 26 27  2  0
 28 31  1  0
 28 27  1  0
 29 28  2  0
 30 29  1  0
 30 25  2  0
 31 32  1  0
 32 33  1  0
 33 34  2  0
 35 34  1  0
 35 39  1  0
 36 35  2  0
 37 32  2  0
 37 36  1  0
 38 37  1  0
 40 41  1  0
 41 44  1  0
 41 43  1  0
 42 40  2  0
 45 46  1  0
 45 20  1  0
 47 45  1  0
 48  4  1  0
 49 50  1  0
 50 48  1  0
 51 52  1  0
 51  2  1  0
 53 64  2  0
 54 52  1  0
 54 59  1  0
 55 63  1  0
 55 65  1  0
 56 62  1  0
 56 58  1  0
 57 63  1  0
 58 57  1  0
 59 58  2  0
 60 61  1  0
 60 54  2  0
 61 56  2  0
 62 55  1  0
 63 53  1  0
 65 67  2  0
 66 65  1  0
 68 66  1  0
 69 78  2  0
 69 74  1  0
 70 66  1  0
 70 74  1  0
 71 70  1  0
 72 73  1  0
 72 71  1  0
 73 69  1  0
 74 75  2  0
 75 76  1  0
 77 76  2  0
 78 77  1  0
 79 53  1  0
 79 80  1  0
 79 89  1  0
 80 83  1  0
 81 85  1  0
 81 80  1  0
 82 81  2  0
 85 84  1  0
 87 85  1  0
 87 88  1  0
 87 86  1  0
 89 92  1  1
 89 90  1  0
 91 89  1  0
M  ISO  4  10 100  18 100  51 101  52 101
M  END
>  <TORSDO>  (93) 
F 22

>  <SCORE>  (93) 
-13.254

>  <name>  (93) 
94

>  <ligand_id>  (93) 
94

>  <original_smiles>  (93) 
[H]c1nc(C([H])([H])C([H])([H])C([H])([H])N([H])C(=O)N2C([H])([H])C([H])([H])C([H])([H])C([H])(n3nc(-c4c([H])c([H])c(Oc5c([H])c([H])c(F)c([H])c5F)c([H])c4[H])c(C(=O)N([H])[H])c3N([H])[H])C2([H])[H])c(C([H])([H])C([H])([H])C([H])([H])[H])nc1C([H])([H])Oc1c([H])c([H])c2c(c1[H])C([H])([H])N(C(=O)C([H])(N([H])C(=O)C([H])(N([H])C([H])([H])[H])C([H])([H])[H])C(C([H])([H])[H])(C([H])([H])[H])C([H])([H])[H])C([H])(C(=O)N([H])C1([H])c3c([H])c([H])c([H])c([H])c3C([H])([H])C([H])([H])C1([H])[H])C2([H])[H]

>  <smiles>  (93) 
[H]c1nc(C([H])([H])C([H])([H])C([H])([H])N([H])C(=O)N2C([H])([H])C([H])([H])C([H])([H])C([H])(n3nc(-c4c([H])c([H])c(Oc5c([H])c([H])c(F)c([H])c5F)c([H])c4[H])c(C(=O)N([H])[H])c3N([H])[H])C2([H])[H])c(C([H])([H])C([H])([H])C([H])([H])[H])nc1C([H])([H])Oc1c([H])c([H])c2c(c1[H])C([H])([H])N(C(=O)C([H])(N([H])C(=O)C([H])(N([H])C([H])([H])[H])C([H])([H])[H])C(C([H])([H])[H])(C([H])([H])[H])C([H])([H])[H])C([H])(C(=O)N([H])C1([H])c3c([H])c([H])c([H])c([H])c3C([H])([H])C([H])([H])C1([H])[H])C2([H])[H]

$$$$
