0:0:0
     RDKit          3D

 91 99  0  0  1  0  0  0  0  0999 V2000
  -28.4120  -23.0340   20.0470 C   0  0  0  0  0  3  0  0  0  0  0  0
  -29.5190  -24.3320   21.4820 C   0  0  0  0  0  3  0  0  0  0  0  0
  -28.8330  -24.3750   20.2990 C   0  0  0  0  0  0  0  0  0  0  0  0
  -28.8310  -22.2250   21.0710 C   0  0  0  0  0  0  0  0  0  0  0  0
  -30.1570  -22.6090   23.2020 C   0  0  0  0  0  1  0  0  0  0  0  0
  -29.5260  -23.0330   21.9610 N   0  0  0  0  0  0  0  0  0  0  0  0
  -28.6290  -25.5870   19.4080 C   0  0  0  0  0  2  0  0  0  0  0  0
  -28.4230  -26.8010   20.1420 O   0  0  0  0  0  0  0  0  0  0  0  0
  -24.5730  -31.9070   23.2370 C   0  0  0  0  0  0  0  0  0  0  0  0
  -27.2070  -27.4590   20.1470 C   0  0  0  0  0  0  0  0  0  0  0  0
  -23.3590  -30.5100   21.5980 C   0  0  0  0  0  3  0  0  0  0  0  0
  -24.8010  -28.9610   20.1780 C   0  0  0  0  0  0  0  0  0  0  0  0
  -25.8810  -30.8640   21.3860 C   0  0  0  0  0  2  0  0  0  0  0  0
  -25.9610  -29.4860   20.7580 C   0  0  0  0  0  0  0  0  0  0  0  0
  -27.1600  -28.7410   20.7420 C   0  0  0  0  0  3  0  0  0  0  0  0
  -26.0150  -26.9350   19.5870 C   0  0  0  0  0  3  0  0  0  0  0  0
  -24.8210  -27.6830   19.5950 C   0  0  0  0  0  3  0  0  0  0  0  0
  -23.5610  -29.8260   20.2200 C   0  0  0  0  0  2  0  0  0  0  0  0
  -24.6240  -31.1090   22.1340 N   0  0  0  0  0  0  0  0  0  0  0  0
  -23.4930  -32.1810   23.7800 O   0  0  0  0  0  0  0  0  0  0  0  0
  -22.7060  -29.4920   22.5620 C   0  0  0  0  0  0  0  0  0  0  0  0
  -21.3820  -29.3070   22.4290 N   0  0  0  0  0  0  0  0  0  0  0  0
  -23.3880  -28.8710   23.3820 O   0  0  0  0  0  0  0  0  0  0  0  0
  -20.8960  -29.8630   21.7400 H   0  0  0  0  0  0  0  0  0  0  0  0
  -18.0110  -28.0980   22.8990 C   0  0  0  0  0  0  0  0  0  0  0  0
  -20.5640  -28.3710   23.1970 C   0  0  0  0  0  3  0  0  0  0  0  0
  -20.6810  -26.9360   22.6330 C   0  0  0  0  0  2  0  0  0  0  0  0
  -19.5900  -26.6010   21.6090 C   0  0  0  0  0  2  0  0  0  0  0  0
  -18.2020  -26.7430   22.2370 C   0  0  0  0  0  2  0  0  0  0  0  0
  -19.1210  -28.8680   23.3360 C   0  0  0  0  0  0  0  0  0  0  0  0
  -18.8900  -30.1350   23.9140 C   0  0  0  0  0  3  0  0  0  0  0  0
  -17.5800  -30.6320   24.0610 C   0  0  0  0  0  3  0  0  0  0  0  0
  -16.4850  -29.8590   23.6400 C   0  0  0  0  0  3  0  0  0  0  0  0
  -16.7010  -28.5930   23.0660 C   0  0  0  0  0  3  0  0  0  0  0  0
  -25.8610  -32.5360   23.8560 C   0  0  0  0  0  3  0  0  0  0  0  0
  -25.5630  -33.9390   24.1690 N   0  0  0  0  0  0  0  0  0  0  0  0
  -25.9080  -34.9790   23.3970 C   0  0  0  0  0  0  0  0  0  0  0  0
  -26.5800  -34.8560   22.3700 O   0  0  0  0  0  0  0  0  0  0  0  0
  -24.9690  -34.1080   24.9670 H   0  0  0  0  0  0  0  0  0  0  0  0
  -24.1940  -36.7780   23.0140 C   0  0  0  0  0  1  0  0  0  0  0  0
  -25.4300  -36.3770   23.8340 C   0  0  0  0  0  3  0  0  0  0  0  0
  -27.5670  -37.2570   24.6610 C   0  0  0  0  0  1  0  0  0  0  0  0
  -26.4710  -37.4210   23.7110 N   0  0  0  0  0  0  0  0  0  0  0  0
  -26.0700  -38.3460   23.8410 H   0  0  0  0  0  0  0  0  0  0  0  0
  -26.3680  -31.7720   25.1410 C   0  0  1  0  0  0  0  0  0  0  0  0
  -25.2700  -31.5500   26.2070 C   0  0  0  0  0  1  0  0  0  0  0  0
  -26.9410  -30.3900   24.7540 C   0  0  0  0  0  1  0  0  0  0  0  0
  -27.5210  -32.5650   25.8010 C   0  0  0  0  0  1  0  0  0  0  0  0
  -28.6430  -20.7480   21.3020 C   0  0  0  0  0  2  0  0  0  0  0  0
  -29.8150  -19.8880   20.7860 C   0  0  0  0  0  2  0  0  0  0  0  0
  -29.7850  -18.4150   21.2480 C   0  0  0  0  0  2  0  0  0  0  0  0
  -31.0720  -17.6670   20.8430 C   0  0  0  0  0  2  0  0  0  0  0  0
  -31.3350  -16.3500   21.6040 C   0  0  0  0  0  2  0  0  0  0  0  0
  -31.0310  -14.3620   20.1320 C   0  0  0  0  0  0  0  0  0  0  0  0
  -30.6370  -12.2360   18.9400 C   0  0  0  0  0  2  0  0  0  0  0  0
  -29.6750  -12.4260   17.7510 C   0  0  0  0  0  2  0  0  0  0  0  0
  -28.2070  -12.3190   18.2100 C   0  0  0  0  0  2  0  0  0  0  0  0
  -27.9060  -13.1890   19.4580 C   0  0  0  0  0  3  0  0  0  0  0  0
  -28.9700  -12.9650   20.5540 C   0  0  0  0  0  2  0  0  0  0  0  0
  -30.2970  -13.2290   19.9680 N   0  0  0  0  0  0  0  0  0  0  0  0
  -32.0550  -14.6000   19.4870 O   0  0  0  0  0  0  0  0  0  0  0  0
  -30.5930  -15.2010   21.0830 N   0  0  0  0  0  0  0  0  0  0  0  0
  -29.7520  -14.9310   21.5730 H   0  0  0  0  0  0  0  0  0  0  0  0
  -25.5320  -13.8510   20.2090 C   0  0  0  0  0  0  0  0  0  0  0  0
  -24.4560  -13.1030   20.6080 C   0  0  0  0  0  0  0  0  0  0  0  0
  -24.8900  -11.7410   20.5770 C   0  0  0  0  0  0  0  0  0  0  0  0
  -26.5550  -12.9470   19.9640 N   0  0  0  0  0  0  0  0  0  0  0  0
  -26.1710  -11.6730   20.2400 N   0  0  0  0  0  0  0  0  0  0  0  0
  -24.1440  -10.4950   20.7910 C   0  0  0  0  0  0  0  0  0  0  0  0
  -24.5390   -9.5560   21.7690 C   0  0  0  0  0  3  0  0  0  0  0  0
  -23.7940   -8.3740   21.9700 C   0  0  0  0  0  3  0  0  0  0  0  0
  -22.6390   -8.1230   21.1910 C   0  0  0  0  0  0  0  0  0  0  0  0
  -22.2630   -9.0500   20.2030 C   0  0  0  0  0  3  0  0  0  0  0  0
  -23.0090  -10.2230   20.0010 C   0  0  0  0  0  3  0  0  0  0  0  0
  -21.8680   -6.9900   21.2990 O   0  0  0  0  0  0  0  0  0  0  0  0
  -21.7380   -6.3180   22.4880 C   0  0  0  0  0  0  0  0  0  0  0  0
  -21.2360   -6.9450   23.6490 C   0  0  0  0  0  3  0  0  0  0  0  0
  -21.0540   -6.1990   24.8300 C   0  0  0  0  0  3  0  0  0  0  0  0
  -21.3620   -4.8260   24.8500 C   0  0  0  0  0  0  0  0  0  0  0  0
  -21.8570   -4.1990   23.6940 C   0  0  0  0  0  3  0  0  0  0  0  0
  -22.0410   -4.9420   22.5150 C   0  0  0  0  0  0  0  0  0  0  0  0
  -22.4980   -4.3280   21.3980 F   0  0  0  0  0  0  0  0  0  0  0  0
  -21.1800   -4.1070   25.9820 F   0  0  0  0  0  0  0  0  0  0  0  0
  -23.0750  -13.6090   20.9080 C   0  0  0  0  0  0  0  0  0  0  0  0
  -22.3510  -12.9290   21.7900 N   0  0  0  0  0  0  0  0  0  0  0  0
  -22.6480  -14.6420   20.3950 O   0  0  0  0  0  0  0  0  0  0  0  0
  -22.7090  -12.0920   22.2270 H   0  0  0  0  0  0  0  0  0  0  0  0
  -21.4240  -13.2480   22.0320 H   0  0  0  0  0  0  0  0  0  0  0  0
  -25.7230  -15.2150   20.0180 N   0  0  0  0  0  0  0  0  0  0  0  0
  -24.9800  -15.8930   20.1450 H   0  0  0  0  0  0  0  0  0  0  0  0
  -26.5840  -15.6300   19.6810 H   0  0  0  0  0  0  0  0  0  0  0  0
  1  3  1  0
  1  4  2  0
  2  6  1  0
  3  2  2  0
  4 49  1  0
  4  6  1  0
  6  5  1  0
  7  8  1  0
  7  3  1  0
  8 10  1  0
  9 20  2  0
 10 15  1  0
 11 19  1  0
 11 21  1  0
 12 18  1  0
 12 14  1  0
 13 19  1  0
 14 13  1  0
 15 14  2  0
 16 17  1  0
 16 10  2  0
 17 12  2  0
 18 11  1  0
 19  9  1  0
 21 23  2  0
 22 21  1  0
 24 22  1  0
 25 34  2  0
 25 30  1  0
 26 22  1  0
 26 30  1  0
 27 26  1  0
 28 29  1  0
 28 27  1  0
 29 25  1  0
 30 31  2  0
 31 32  1  0
 33 32  2  0
 34 33  1  0
 35  9  1  0
 35 36  1  0
 35 45  1  0
 36 39  1  0
 37 41  1  0
 37 36  1  0
 38 37  2  0
 41 40  1  0
 43 41  1  0
 43 44  1  0
 43 42  1  0
 45 48  1  1
 45 46  1  0
 47 45  1  0
 50 51  1  0
 50 49  1  0
 52 51  1  0
 52 53  1  0
 54 62  1  0
 55 60  1  0
 56 57  1  0
 56 55  1  0
 58 57  1  0
 58 67  1  0
 58 59  1  0
 60 54  1  0
 60 59  1  0
 61 54  2  0
 62 63  1  0
 62 53  1  0
 64 65  2  0
 65 84  1  0
 66 65  1  0
 66 69  1  0
 67 64  1  0
 67 68  1  0
 68 66  2  0
 69 70  1  0
 70 71  2  0
 72 75  1  0
 72 71  1  0
 73 72  2  0
 74 73  1  0
 74 69  2  0
 75 76  1  0
 76 81  2  0
 76 77  1  0
 77 78  2  0
 78 79  1  0
 79 83  1  0
 80 79  2  0
 81 80  1  0
 82 81  1  0
 84 85  1  0
 85 88  1  0
 85 87  1  0
 86 84  2  0
 89 90  1  0
 89 64  1  0
 91 89  1  0
M  ISO  4   7 101   8 101  54 100  62 100
M  END
>  <TORSDO>  (1) 
F 22

>  <SCORE>  (1) 
-12.744

>  <name>  (1) 
0

>  <ligand_id>  (1) 
0

>  <original_smiles>  (1) 
[H]c1c([H])c([H])c2c(c1[H])C([H])([H])C([H])([H])C([H])([H])C2([H])N([H])C(=O)C1([H])N(C(=O)C([H])(N([H])C(=O)C([H])(N([H])C([H])([H])[H])C([H])([H])[H])C(C([H])([H])[H])(C([H])([H])[H])C([H])([H])[H])C([H])([H])c2c([H])c(OC([H])([H])c3c([H])c(C([H])([H])C([H])([H])C([H])([H])C([H])([H])C([H])([H])N([H])C(=O)N4C([H])([H])C([H])([H])C([H])([H])C([H])(n5nc(-c6c([H])c([H])c(Oc7c([H])c([H])c(F)c([H])c7F)c([H])c6[H])c(C(=O)N([H])[H])c5N([H])[H])C4([H])[H])n(C([H])([H])[H])c3[H])c([H])c([H])c2C1([H])[H]

>  <smiles>  (1) 
[H]c1c([H])c([H])c2c(c1[H])C([H])([H])C([H])([H])C([H])([H])C2([H])N([H])C(=O)C1([H])N(C(=O)C([H])(N([H])C(=O)C([H])(N([H])C([H])([H])[H])C([H])([H])[H])C(C([H])([H])[H])(C([H])([H])[H])C([H])([H])[H])C([H])([H])c2c([H])c(OC([H])([H])c3c([H])c(C([H])([H])C([H])([H])C([H])([H])C([H])([H])C([H])([H])N([H])C(=O)N4C([H])([H])C([H])([H])C([H])([H])C([H])(n5nc(-c6c([H])c([H])c(Oc7c([H])c([H])c(F)c([H])c7F)c([H])c6[H])c(C(=O)N([H])[H])c5N([H])[H])C4([H])[H])n(C([H])([H])[H])c3[H])c([H])c([H])c2C1([H])[H]

$$$$
1:0:0
     RDKit          3D

 91 99  0  0  1  0  0  0  0  0999 V2000
  -27.3160  -20.5560   20.6340 C   0  0  0  0  0  3  0  0  0  0  0  0
  -28.6820  -20.3590   20.9730 C   0  0  0  0  0  0  0  0  0  0  0  0
  -27.1760  -21.9100   20.5110 C   0  0  0  0  0  0  0  0  0  0  0  0
  -25.9320  -22.7070   20.2770 C   0  0  0  0  0  1  0  0  0  0  0  0
  -29.3540  -21.5040   20.9560 N   0  0  0  0  0  0  0  0  0  0  0  0
  -28.4330  -22.4660   20.7030 N   0  0  0  0  0  0  0  0  0  0  0  0
  -29.3490  -19.0730   21.4210 C   0  0  0  0  0  2  0  0  0  0  0  0
  -29.7680  -18.0870   20.2760 C   0  0  0  0  0  2  0  0  0  0  0  0
  -31.0740  -17.2290   20.1160 C   0  0  0  0  0  2  0  0  0  0  0  0
  -31.5050  -14.7560   19.7080 C   0  0  0  0  0  0  0  0  0  0  0  0
  -31.2290  -12.4200   18.9530 C   0  0  0  0  0  2  0  0  0  0  0  0
  -30.2410  -12.3900   17.7690 C   0  0  0  0  0  2  0  0  0  0  0  0
  -28.7810  -12.3270   18.2660 C   0  0  0  0  0  2  0  0  0  0  0  0
  -28.4780  -13.3800   19.3640 C   0  0  0  0  0  3  0  0  0  0  0  0
  -29.5650  -13.3440   20.4620 C   0  0  0  0  0  2  0  0  0  0  0  0
  -30.8720  -13.5610   19.8090 N   0  0  0  0  0  0  0  0  0  0  0  0
  -32.5750  -14.9160   19.1110 O   0  0  0  0  0  0  0  0  0  0  0  0
  -30.8080  -15.7840   20.2190 N   0  0  0  0  0  0  0  0  0  0  0  0
  -29.9550  -15.5150   20.6890 H   0  0  0  0  0  0  0  0  0  0  0  0
  -26.1820  -14.1560   20.2350 C   0  0  0  0  0  0  0  0  0  0  0  0
  -25.0840  -13.4580   20.6620 C   0  0  0  0  0  0  0  0  0  0  0  0
  -25.4370  -12.0780   20.5760 C   0  0  0  0  0  0  0  0  0  0  0  0
  -27.1410  -13.2050   19.9240 N   0  0  0  0  0  0  0  0  0  0  0  0
  -26.6970  -11.9480   20.1820 N   0  0  0  0  0  0  0  0  0  0  0  0
  -24.6310  -10.8700   20.7910 C   0  0  0  0  0  0  0  0  0  0  0  0
  -24.9820   -9.9130   21.7690 C   0  0  0  0  0  3  0  0  0  0  0  0
  -24.1820   -8.7680   21.9690 C   0  0  0  0  0  3  0  0  0  0  0  0
  -23.0170   -8.5730   21.1880 C   0  0  0  0  0  0  0  0  0  0  0  0
  -22.6850   -9.5180   20.2010 C   0  0  0  0  0  3  0  0  0  0  0  0
  -23.4860  -10.6550   20.0000 C   0  0  0  0  0  3  0  0  0  0  0  0
  -22.1950   -7.4780   21.2930 O   0  0  0  0  0  0  0  0  0  0  0  0
  -21.9750   -6.8550   22.4950 C   0  0  0  0  0  0  0  0  0  0  0  0
  -21.4310   -7.5440   23.6010 C   0  0  0  0  0  3  0  0  0  0  0  0
  -21.1550   -6.8500   24.7960 C   0  0  0  0  0  3  0  0  0  0  0  0
  -21.4140   -5.4690   24.8850 C   0  0  0  0  0  0  0  0  0  0  0  0
  -21.9490   -4.7810   23.7820 C   0  0  0  0  0  3  0  0  0  0  0  0
  -22.2260   -5.4700   22.5890 C   0  0  0  0  0  0  0  0  0  0  0  0
  -22.7210   -4.7970   21.5230 F   0  0  0  0  0  0  0  0  0  0  0  0
  -21.1430   -4.8010   26.0310 F   0  0  0  0  0  0  0  0  0  0  0  0
  -23.7510  -14.0350   21.0410 C   0  0  0  0  0  0  0  0  0  0  0  0
  -23.0370  -13.3810   21.9500 N   0  0  0  0  0  0  0  0  0  0  0  0
  -23.3550  -15.1000   20.5670 O   0  0  0  0  0  0  0  0  0  0  0  0
  -23.3710  -12.5170   22.3510 H   0  0  0  0  0  0  0  0  0  0  0  0
  -22.1470  -13.7530   22.2510 H   0  0  0  0  0  0  0  0  0  0  0  0
  -26.4350  -15.5150   20.0700 N   0  0  0  0  0  0  0  0  0  0  0  0
  -25.7220  -16.2160   20.2400 H   0  0  0  0  0  0  0  0  0  0  0  0
  -27.2800  -15.9020   19.6690 H   0  0  0  0  0  0  0  0  0  0  0  0
  -28.8350  -23.8680   20.8130 C   0  0  0  0  0  2  0  0  0  0  0  0
  -28.4820  -24.7430   19.5930 C   0  0  0  0  0  2  0  0  0  0  0  0
  -28.8120  -26.2290   19.8260 C   0  0  0  0  0  2  0  0  0  0  0  0
  -28.3540  -27.0260   18.7340 O   0  0  0  0  0  0  0  0  0  0  0  0
  -24.6650  -31.4800   22.8760 C   0  0  0  0  0  0  0  0  0  0  0  0
  -27.1680  -27.6700   18.9730 C   0  0  0  0  0  0  0  0  0  0  0  0
  -23.3530  -30.2460   21.1780 C   0  0  0  0  0  3  0  0  0  0  0  0
  -24.7180  -28.9920   19.4270 C   0  0  0  0  0  0  0  0  0  0  0  0
  -25.8270  -30.7730   20.7930 C   0  0  0  0  0  2  0  0  0  0  0  0
  -25.9030  -29.5070   19.9690 C   0  0  0  0  0  0  0  0  0  0  0  0
  -27.1330  -28.8520   19.7400 C   0  0  0  0  0  3  0  0  0  0  0  0
  -25.9710  -27.1590   18.4300 C   0  0  0  0  0  3  0  0  0  0  0  0
  -24.7450  -27.8150   18.6560 C   0  0  0  0  0  3  0  0  0  0  0  0
  -23.4490  -29.7640   19.7060 C   0  0  0  0  0  2  0  0  0  0  0  0
  -24.6380  -30.8410   21.6740 N   0  0  0  0  0  0  0  0  0  0  0  0
  -23.6350  -31.6190   23.5500 O   0  0  0  0  0  0  0  0  0  0  0  0
  -22.8450  -29.0750   22.0480 C   0  0  0  0  0  0  0  0  0  0  0  0
  -21.5270  -28.8190   21.9980 N   0  0  0  0  0  0  0  0  0  0  0  0
  -23.6290  -28.4010   22.7210 O   0  0  0  0  0  0  0  0  0  0  0  0
  -20.9490  -29.4210   21.4260 H   0  0  0  0  0  0  0  0  0  0  0  0
  -18.2920  -27.3100   22.5320 C   0  0  0  0  0  0  0  0  0  0  0  0
  -20.8340  -27.7460   22.7070 C   0  0  0  0  0  3  0  0  0  0  0  0
  -21.0110  -26.3930   21.9840 C   0  0  0  0  0  2  0  0  0  0  0  0
  -19.8860  -26.0850   20.9880 C   0  0  0  0  0  2  0  0  0  0  0  0
  -18.5340  -26.0560   21.7090 C   0  0  0  0  0  2  0  0  0  0  0  0
  -19.3720  -28.1140   22.9850 C   0  0  0  0  0  0  0  0  0  0  0  0
  -19.0920  -29.2890   23.7140 C   0  0  0  0  0  3  0  0  0  0  0  0
  -17.7660  -29.6620   23.9990 C   0  0  0  0  0  3  0  0  0  0  0  0
  -16.7010  -28.8530   23.5660 C   0  0  0  0  0  3  0  0  0  0  0  0
  -16.9660  -27.6780   22.8380 C   0  0  0  0  0  3  0  0  0  0  0  0
  -25.9810  -32.0890   23.4510 C   0  0  0  0  0  3  0  0  0  0  0  0
  -25.6560  -33.4200   23.9810 N   0  0  0  0  0  0  0  0  0  0  0  0
  -25.9240  -34.5750   23.3550 C   0  0  0  0  0  0  0  0  0  0  0  0
  -26.5390  -34.6290   22.2880 O   0  0  0  0  0  0  0  0  0  0  0  0
  -25.0950  -33.4500   24.8190 H   0  0  0  0  0  0  0  0  0  0  0  0
  -24.1440  -36.3550   23.3140 C   0  0  0  0  0  1  0  0  0  0  0  0
  -25.4260  -35.8760   24.0160 C   0  0  0  0  0  3  0  0  0  0  0  0
  -27.5750  -36.6920   24.8790 C   0  0  0  0  0  1  0  0  0  0  0  0
  -26.4320  -36.9600   24.0090 N   0  0  0  0  0  0  0  0  0  0  0  0
  -26.0140  -37.8410   24.2960 H   0  0  0  0  0  0  0  0  0  0  0  0
  -26.6490  -31.1900   24.5630 C   0  0  1  0  0  0  0  0  0  0  0  0
  -25.6800  -30.7810   25.6940 C   0  0  0  0  0  1  0  0  0  0  0  0
  -27.2280  -29.8950   23.9430 C   0  0  0  0  0  1  0  0  0  0  0  0
  -27.8390  -31.9440   25.2020 C   0  0  0  0  0  1  0  0  0  0  0  0
  1  2  1  0
  2  7  1  0
  3  1  2  0
  3  6  1  0
  4  3  1  0
  5  2  2  0
  6 48  1  0
  6  5  1  0
  8  7  1  0
  9 18  1  0
  9  8  1  0
 10 16  1  0
 10 18  1  0
 11 16  1  0
 12 13  1  0
 12 11  1  0
 14 13  1  0
 14 23  1  0
 14 15  1  0
 16 15  1  0
 17 10  2  0
 18 19  1  0
 20 21  2  0
 21 40  1  0
 22 21  1  0
 22 25  1  0
 23 24  1  0
 23 20  1  0
 24 22  2  0
 25 26  1  0
 26 27  2  0
 28 31  1  0
 28 27  1  0
 29 28  2  0
 30 29  1  0
 30 25  2  0
 31 32  1  0
 32 37  2  0
 32 33  1  0
 33 34  2  0
 34 35  1  0
 35 39  1  0
 36 35  2  0
 37 36  1  0
 38 37  1  0
 40 41  1  0
 41 44  1  0
 41 43  1  0
 42 40  2  0
 45 20  1  0
 45 46  1  0
 47 45  1  0
 49 50  1  0
 49 48  1  0
 51 53  1  0
 51 50  1  0
 52 63  2  0
 53 58  1  0
 54 62  1  0
 54 64  1  0
 55 61  1  0
 55 57  1  0
 56 62  1  0
 57 56  1  0
 58 57  2  0
 59 60  1  0
 59 53  2  0
 60 55  2  0
 61 54  1  0
 62 52  1  0
 64 66  2  0
 65 64  1  0
 67 65  1  0
 68 77  2  0
 68 73  1  0
 69 65  1  0
 69 73  1  0
 70 69  1  0
 71 72  1  0
 71 70  1  0
 72 68  1  0
 73 74  2  0
 74 75  1  0
 76 75  2  0
 77 76  1  0
 78 52  1  0
 78 79  1  0
 78 88  1  0
 79 82  1  0
 80 79  1  0
 80 84  1  0
 81 80  2  0
 84 83  1  0
 86 84  1  0
 86 87  1  0
 86 85  1  0
 88 91  1  1
 88 89  1  0
 90 88  1  0
M  ISO  4  10 100  18 100  50 101  51 101
M  END
>  <TORSDO>  (2) 
F 22

>  <SCORE>  (2) 
-8.985

>  <name>  (2) 
1

>  <ligand_id>  (2) 
1

>  <original_smiles>  (2) 
[H]c1c([H])c([H])c2c(c1[H])C([H])([H])C([H])([H])C([H])([H])C2([H])N([H])C(=O)C1([H])N(C(=O)C([H])(N([H])C(=O)C([H])(N([H])C([H])([H])[H])C([H])([H])[H])C(C([H])([H])[H])(C([H])([H])[H])C([H])([H])[H])C([H])([H])c2c([H])c(OC([H])([H])C([H])([H])C([H])([H])n3nc(C([H])([H])C([H])([H])C([H])([H])N([H])C(=O)N4C([H])([H])C([H])([H])C([H])([H])C([H])(n5nc(-c6c([H])c([H])c(Oc7c([H])c([H])c(F)c([H])c7F)c([H])c6[H])c(C(=O)N([H])[H])c5N([H])[H])C4([H])[H])c([H])c3C([H])([H])[H])c([H])c([H])c2C1([H])[H]

>  <smiles>  (2) 
[H]c1c([H])c([H])c2c(c1[H])C([H])([H])C([H])([H])C([H])([H])C2([H])N([H])C(=O)C1([H])N(C(=O)C([H])(N([H])C(=O)C([H])(N([H])C([H])([H])[H])C([H])([H])[H])C(C([H])([H])[H])(C([H])([H])[H])C([H])([H])[H])C([H])([H])c2c([H])c(OC([H])([H])C([H])([H])C([H])([H])n3nc(C([H])([H])C([H])([H])C([H])([H])N([H])C(=O)N4C([H])([H])C([H])([H])C([H])([H])C([H])(n5nc(-c6c([H])c([H])c(Oc7c([H])c([H])c(F)c([H])c7F)c([H])c6[H])c(C(=O)N([H])[H])c5N([H])[H])C4([H])[H])c([H])c3C([H])([H])[H])c([H])c([H])c2C1([H])[H]

$$$$
2:0:0
     RDKit          3D

 92100  0  0  1  0  0  0  0  0999 V2000
  -28.8960  -21.7920   21.0220 C   0  0  0  0  0  3  0  0  0  0  0  0
  -29.8490  -20.7290   21.0380 C   0  0  0  0  0  0  0  0  0  0  0  0
  -31.1870  -21.0510   20.7060 C   0  0  0  0  0  0  0  0  0  0  0  0
  -29.3120  -23.1150   20.7020 C   0  0  0  0  0  0  0  0  0  0  0  0
  -31.4970  -22.3840   20.3610 C   0  0  0  0  0  0  0  0  0  0  0  0
  -32.9050  -22.7890   19.9710 C   0  0  0  0  0  1  0  0  0  0  0  0
  -30.5940  -23.3850   20.3820 N   0  0  0  0  0  0  0  0  0  0  0  0
  -32.4440  -19.8620   20.7850 Cl  0  0  0  0  0  0  0  0  0  0  0  0
  -29.4930  -19.3180   21.5520 C   0  0  0  0  0  2  0  0  0  0  0  0
  -29.6840  -18.0940   20.5850 C   0  0  0  0  0  2  0  0  0  0  0  0
  -30.4750  -16.8770   21.1840 C   0  0  0  0  0  2  0  0  0  0  0  0
  -30.7250  -14.5500   20.1390 C   0  0  0  0  0  0  0  0  0  0  0  0
  -30.4040  -12.4050   18.9430 C   0  0  0  0  0  2  0  0  0  0  0  0
  -29.3990  -12.5990   17.7880 C   0  0  0  0  0  2  0  0  0  0  0  0
  -27.9490  -12.4400   18.2860 C   0  0  0  0  0  2  0  0  0  0  0  0
  -27.6600  -13.2740   19.5630 C   0  0  0  0  0  3  0  0  0  0  0  0
  -28.7620  -13.0460   20.6200 C   0  0  0  0  0  2  0  0  0  0  0  0
  -30.0570  -13.3700   19.9980 N   0  0  0  0  0  0  0  0  0  0  0  0
  -31.8460  -14.7430   19.6590 O   0  0  0  0  0  0  0  0  0  0  0  0
  -30.0230  -15.5400   20.7390 N   0  0  0  0  0  0  0  0  0  0  0  0
  -29.0840  -15.2820   21.0020 H   0  0  0  0  0  0  0  0  0  0  0  0
  -25.3020  -13.8860   20.3930 C   0  0  0  0  0  0  0  0  0  0  0  0
  -24.2470  -13.1150   20.8010 C   0  0  0  0  0  0  0  0  0  0  0  0
  -24.6980  -11.7620   20.7320 C   0  0  0  0  0  0  0  0  0  0  0  0
  -26.3290  -13.0020   20.1010 N   0  0  0  0  0  0  0  0  0  0  0  0
  -25.9710  -11.7190   20.3630 N   0  0  0  0  0  0  0  0  0  0  0  0
  -23.9730  -10.5010   20.9380 C   0  0  0  0  0  0  0  0  0  0  0  0
  -24.4190   -9.5390   21.8710 C   0  0  0  0  0  3  0  0  0  0  0  0
  -23.6970   -8.3420   22.0660 C   0  0  0  0  0  3  0  0  0  0  0  0
  -22.5140   -8.0980   21.3270 C   0  0  0  0  0  0  0  0  0  0  0  0
  -22.0870   -9.0500   20.3840 C   0  0  0  0  0  3  0  0  0  0  0  0
  -22.8100  -10.2380   20.1880 C   0  0  0  0  0  3  0  0  0  0  0  0
  -21.7640   -6.9520   21.4300 O   0  0  0  0  0  0  0  0  0  0  0  0
  -21.7070   -6.2310   22.5950 C   0  0  0  0  0  0  0  0  0  0  0  0
  -21.2460   -6.8010   23.8020 C   0  0  0  0  0  3  0  0  0  0  0  0
  -21.1390   -6.0060   24.9600 C   0  0  0  0  0  3  0  0  0  0  0  0
  -21.4800   -4.6410   24.9120 C   0  0  0  0  0  0  0  0  0  0  0  0
  -21.9320   -4.0700   23.7100 C   0  0  0  0  0  3  0  0  0  0  0  0
  -22.0420   -4.8620   22.5530 C   0  0  0  0  0  0  0  0  0  0  0  0
  -22.4580   -4.3020   21.3930 F   0  0  0  0  0  0  0  0  0  0  0  0
  -21.3670   -3.8750   26.0220 F   0  0  0  0  0  0  0  0  0  0  0  0
  -22.8680  -13.5980   21.1450 C   0  0  0  0  0  0  0  0  0  0  0  0
  -22.1720  -12.8890   22.0290 N   0  0  0  0  0  0  0  0  0  0  0  0
  -22.4140  -14.6350   20.6650 O   0  0  0  0  0  0  0  0  0  0  0  0
  -22.5530  -12.0520   22.4430 H   0  0  0  0  0  0  0  0  0  0  0  0
  -21.2440  -13.1890   22.2960 H   0  0  0  0  0  0  0  0  0  0  0  0
  -25.4690  -15.2570   20.2260 N   0  0  0  0  0  0  0  0  0  0  0  0
  -24.7130  -15.9180   20.3770 H   0  0  0  0  0  0  0  0  0  0  0  0
  -26.3030  -15.6910   19.8510 H   0  0  0  0  0  0  0  0  0  0  0  0
  -28.4250  -24.3660   20.8760 C   0  0  0  0  0  2  0  0  0  0  0  0
  -28.4350  -25.3820   19.6930 C   0  0  0  0  0  2  0  0  0  0  0  0
  -28.3230  -26.7580   20.1160 O   0  0  0  0  0  0  0  0  0  0  0  0
  -24.5170  -31.8940   23.2390 C   0  0  0  0  0  0  0  0  0  0  0  0
  -27.1210  -27.4410   20.1230 C   0  0  0  0  0  0  0  0  0  0  0  0
  -23.2930  -30.5070   21.5960 C   0  0  0  0  0  3  0  0  0  0  0  0
  -24.7290  -28.9670   20.1570 C   0  0  0  0  0  0  0  0  0  0  0  0
  -25.8210  -30.8520   21.3850 C   0  0  0  0  0  2  0  0  0  0  0  0
  -25.8930  -29.4840   20.7360 C   0  0  0  0  0  0  0  0  0  0  0  0
  -27.0900  -28.7300   20.7070 C   0  0  0  0  0  3  0  0  0  0  0  0
  -25.9320  -26.9310   19.5550 C   0  0  0  0  0  3  0  0  0  0  0  0
  -24.7440  -27.6920   19.5640 C   0  0  0  0  0  3  0  0  0  0  0  0
  -23.4930  -29.8350   20.2110 C   0  0  0  0  0  2  0  0  0  0  0  0
  -24.5620  -31.1010   22.1300 N   0  0  0  0  0  0  0  0  0  0  0  0
  -23.4400  -32.1670   23.7880 O   0  0  0  0  0  0  0  0  0  0  0  0
  -22.6450  -29.4820   22.5550 C   0  0  0  0  0  0  0  0  0  0  0  0
  -21.3240  -29.2800   22.4160 N   0  0  0  0  0  0  0  0  0  0  0  0
  -23.3280  -28.8720   23.3800 O   0  0  0  0  0  0  0  0  0  0  0  0
  -20.8250  -29.8260   21.7280 H   0  0  0  0  0  0  0  0  0  0  0  0
  -17.9700  -28.0260   22.8700 C   0  0  0  0  0  0  0  0  0  0  0  0
  -20.5150  -28.3350   23.1860 C   0  0  0  0  0  3  0  0  0  0  0  0
  -20.6540  -26.8980   22.6270 C   0  0  0  0  0  2  0  0  0  0  0  0
  -19.5790  -26.5450   21.5960 C   0  0  0  0  0  2  0  0  0  0  0  0
  -18.1820  -26.6730   22.2110 C   0  0  0  0  0  2  0  0  0  0  0  0
  -19.0640  -28.8140   23.3120 C   0  0  0  0  0  0  0  0  0  0  0  0
  -18.8080  -30.0820   23.8780 C   0  0  0  0  0  3  0  0  0  0  0  0
  -17.4910  -30.5620   24.0070 C   0  0  0  0  0  3  0  0  0  0  0  0
  -16.4110  -29.7710   23.5810 C   0  0  0  0  0  3  0  0  0  0  0  0
  -16.6500  -28.5030   23.0230 C   0  0  0  0  0  3  0  0  0  0  0  0
  -25.8090  -32.5190   23.8520 C   0  0  0  0  0  3  0  0  0  0  0  0
  -25.5180  -33.9230   24.1660 N   0  0  0  0  0  0  0  0  0  0  0  0
  -25.8680  -34.9640   23.3990 C   0  0  0  0  0  0  0  0  0  0  0  0
  -26.5410  -34.8430   22.3710 O   0  0  0  0  0  0  0  0  0  0  0  0
  -24.9320  -34.0950   24.9700 H   0  0  0  0  0  0  0  0  0  0  0  0
  -24.1720  -36.7770   23.0020 C   0  0  0  0  0  1  0  0  0  0  0  0
  -25.3930  -36.3610   23.8400 C   0  0  0  0  0  3  0  0  0  0  0  0
  -27.5240  -37.2210   24.7040 C   0  0  0  0  0  1  0  0  0  0  0  0
  -26.4420  -37.3990   23.7400 N   0  0  0  0  0  0  0  0  0  0  0  0
  -26.0440  -38.3250   23.8750 H   0  0  0  0  0  0  0  0  0  0  0  0
  -26.3240  -31.7530   25.1340 C   0  0  1  0  0  0  0  0  0  0  0  0
  -25.2340  -31.5320   26.2080 C   0  0  0  0  0  1  0  0  0  0  0  0
  -26.8940  -30.3680   24.7470 C   0  0  0  0  0  1  0  0  0  0  0  0
  -27.4790  -32.5470   25.7890 C   0  0  0  0  0  1  0  0  0  0  0  0
  1  2  1  0
  2  9  1  0
  3  8  1  0
  3  2  2  0
  4 50  1  0
  4  1  2  0
  5  7  2  0
  5  3  1  0
  6  5  1  0
  7  4  1  0
 10 11  1  0
 10  9  1  0
 12 20  1  0
 13 18  1  0
 14 15  1  0
 14 13  1  0
 16 15  1  0
 16 25  1  0
 16 17  1  0
 18 12  1  0
 18 17  1  0
 19 12  2  0
 20 21  1  0
 20 11  1  0
 22 23  2  0
 23 42  1  0
 24 23  1  0
 24 27  1  0
 25 26  1  0
 25 22  1  0
 26 24  2  0
 27 28  1  0
 28 29  2  0
 30 33  1  0
 30 29  1  0
 31 30  2  0
 32 31  1  0
 32 27  2  0
 33 34  1  0
 34 35  1  0
 35 36  2  0
 37 36  1  0
 37 41  1  0
 38 37  2  0
 39 34  2  0
 39 38  1  0
 40 39  1  0
 42 43  1  0
 43 46  1  0
 43 45  1  0
 44 42  2  0
 47 48  1  0
 47 22  1  0
 49 47  1  0
 51 52  1  0
 51 50  1  0
 52 54  1  0
 53 64  2  0
 54 59  1  0
 55 63  1  0
 55 65  1  0
 56 62  1  0
 56 58  1  0
 57 63  1  0
 58 57  1  0
 59 58  2  0
 60 61  1  0
 60 54  2  0
 61 56  2  0
 62 55  1  0
 63 53  1  0
 65 67  2  0
 66 65  1  0
 68 66  1  0
 69 78  2  0
 69 74  1  0
 70 66  1  0
 70 74  1  0
 71 70  1  0
 72 73  1  0
 72 71  1  0
 73 69  1  0
 74 75  2  0
 75 76  1  0
 77 76  2  0
 78 77  1  0
 79 53  1  0
 79 80  1  0
 79 89  1  0
 80 83  1  0
 81 85  1  0
 81 80  1  0
 82 81  2  0
 85 84  1  0
 87 85  1  0
 87 88  1  0
 87 86  1  0
 89 92  1  1
 89 90  1  0
 91 89  1  0
M  ISO  4  12 100  20 100  51 101  52 101
M  END
>  <TORSDO>  (3) 
F 21

>  <SCORE>  (3) 
-13.054

>  <name>  (3) 
2

>  <ligand_id>  (3) 
2

>  <original_smiles>  (3) 
[H]c1c([H])c([H])c2c(c1[H])C([H])([H])C([H])([H])C([H])([H])C2([H])N([H])C(=O)C1([H])N(C(=O)C([H])(N([H])C(=O)C([H])(N([H])C([H])([H])[H])C([H])([H])[H])C(C([H])([H])[H])(C([H])([H])[H])C([H])([H])[H])C([H])([H])c2c([H])c(OC([H])([H])C([H])([H])c3nc(C([H])([H])[H])c(Cl)c(C([H])([H])C([H])([H])C([H])([H])N([H])C(=O)N4C([H])([H])C([H])([H])C([H])([H])C([H])(n5nc(-c6c([H])c([H])c(Oc7c([H])c([H])c(F)c([H])c7F)c([H])c6[H])c(C(=O)N([H])[H])c5N([H])[H])C4([H])[H])c3[H])c([H])c([H])c2C1([H])[H]

>  <smiles>  (3) 
[H]c1c([H])c([H])c2c(c1[H])C([H])([H])C([H])([H])C([H])([H])C2([H])N([H])C(=O)C1([H])N(C(=O)C([H])(N([H])C(=O)C([H])(N([H])C([H])([H])[H])C([H])([H])[H])C(C([H])([H])[H])(C([H])([H])[H])C([H])([H])[H])C([H])([H])c2c([H])c(OC([H])([H])C([H])([H])c3nc(C([H])([H])[H])c(Cl)c(C([H])([H])C([H])([H])C([H])([H])N([H])C(=O)N4C([H])([H])C([H])([H])C([H])([H])C([H])(n5nc(-c6c([H])c([H])c(Oc7c([H])c([H])c(F)c([H])c7F)c([H])c6[H])c(C(=O)N([H])[H])c5N([H])[H])C4([H])[H])c3[H])c([H])c([H])c2C1([H])[H]

$$$$
3:0:0
     RDKit          3D

 95103  0  0  1  0  0  0  0  0999 V2000
  -29.9540  -20.8280   21.7110 C   0  0  0  0  0  3  0  0  0  0  0  0
  -29.8600  -19.6680   20.9880 C   0  0  0  0  0  0  0  0  0  0  0  0
  -29.1380  -20.0670   19.8250 C   0  0  0  0  0  0  0  0  0  0  0  0
  -28.8030  -21.3580   19.8550 N   0  0  0  0  0  0  0  0  0  0  0  0
  -29.2940  -21.8290   21.0260 N   0  0  0  0  0  0  0  0  0  0  0  0
  -30.3610  -18.2870   21.3710 C   0  0  0  0  0  2  0  0  0  0  0  0
  -31.7280  -17.9740   20.7420 C   0  0  0  0  0  2  0  0  0  0  0  0
  -32.5130  -16.8260   21.4180 C   0  0  0  0  0  2  0  0  0  0  0  0
  -32.5270  -14.3860   20.9060 C   0  0  0  0  0  0  0  0  0  0  0  0
  -32.4160  -11.9630   20.4730 C   0  0  0  0  0  2  0  0  0  0  0  0
  -31.8490  -11.6810   19.0680 C   0  0  0  0  0  2  0  0  0  0  0  0
  -30.3100  -11.6270   19.1040 C   0  0  0  0  0  2  0  0  0  0  0  0
  -29.6890  -12.8420   19.8480 C   0  0  0  0  0  3  0  0  0  0  0  0
  -30.3830  -13.0750   21.2090 C   0  0  0  0  0  2  0  0  0  0  0  0
  -31.8290  -13.2200   20.9670 N   0  0  0  0  0  0  0  0  0  0  0  0
  -33.7000  -14.4370   20.5260 O   0  0  0  0  0  0  0  0  0  0  0  0
  -31.8820  -15.4980   21.3020 N   0  0  0  0  0  0  0  0  0  0  0  0
  -30.9280  -15.3970   21.6190 H   0  0  0  0  0  0  0  0  0  0  0  0
  -27.2130  -13.5240   19.6050 C   0  0  0  0  0  0  0  0  0  0  0  0
  -26.0530  -12.8770   19.9250 C   0  0  0  0  0  0  0  0  0  0  0  0
  -26.4420  -11.6270   20.4960 C   0  0  0  0  0  0  0  0  0  0  0  0
  -28.2420  -12.6810   20.0010 N   0  0  0  0  0  0  0  0  0  0  0  0
  -27.7630  -11.5520   20.5820 N   0  0  0  0  0  0  0  0  0  0  0  0
  -25.6360  -10.4730   20.9100 C   0  0  0  0  0  0  0  0  0  0  0  0
  -25.5990  -10.0410   22.2560 C   0  0  0  0  0  3  0  0  0  0  0  0
  -24.8000   -8.9370   22.6300 C   0  0  0  0  0  3  0  0  0  0  0  0
  -24.0240   -8.2600   21.6580 C   0  0  0  0  0  0  0  0  0  0  0  0
  -24.0880   -8.6780   20.3160 C   0  0  0  0  0  3  0  0  0  0  0  0
  -24.8870   -9.7710   19.9440 C   0  0  0  0  0  3  0  0  0  0  0  0
  -23.2410   -7.1650   21.9220 O   0  0  0  0  0  0  0  0  0  0  0  0
  -22.5000   -7.0760   23.0750 C   0  0  0  0  0  0  0  0  0  0  0  0
  -21.5380   -8.0490   23.4190 C   0  0  0  0  0  3  0  0  0  0  0  0
  -20.7470   -7.8820   24.5730 C   0  0  0  0  0  3  0  0  0  0  0  0
  -20.9140   -6.7400   25.3820 C   0  0  0  0  0  0  0  0  0  0  0  0
  -21.8670   -5.7660   25.0370 C   0  0  0  0  0  3  0  0  0  0  0  0
  -22.6560   -5.9320   23.8860 C   0  0  0  0  0  0  0  0  0  0  0  0
  -23.5590   -4.9810   23.5480 F   0  0  0  0  0  0  0  0  0  0  0  0
  -20.1500   -6.5750   26.4860 F   0  0  0  0  0  0  0  0  0  0  0  0
  -24.6550  -13.3400   19.6270 C   0  0  0  0  0  0  0  0  0  0  0  0
  -23.7000  -13.0040   20.4820 N   0  0  0  0  0  0  0  0  0  0  0  0
  -24.4130  -14.0580   18.6530 O   0  0  0  0  0  0  0  0  0  0  0  0
  -23.9000  -12.4240   21.2840 H   0  0  0  0  0  0  0  0  0  0  0  0
  -22.7530  -13.3240   20.3340 H   0  0  0  0  0  0  0  0  0  0  0  0
  -27.4800  -14.7510   18.9990 N   0  0  0  0  0  0  0  0  0  0  0  0
  -26.7390  -15.3010   18.5790 H   0  0  0  0  0  0  0  0  0  0  0  0
  -28.3970  -15.0190   18.6660 H   0  0  0  0  0  0  0  0  0  0  0  0
  -28.9200  -23.1520   21.5330 C   0  0  0  0  0  2  0  0  0  0  0  0
  -29.4450  -24.4140   20.7830 C   0  0  0  0  0  2  0  0  0  0  0  0
  -28.3200  -25.4360   20.5290 C   0  0  0  0  0  2  0  0  0  0  0  0
  -28.6910  -26.7690   20.1040 O   0  0  0  0  0  0  0  0  0  0  0  0
  -24.8230  -31.6830   23.5250 C   0  0  0  0  0  0  0  0  0  0  0  0
  -27.5890  -27.5970   20.0640 C   0  0  0  0  0  0  0  0  0  0  0  0
  -23.6920  -30.4730   21.6920 C   0  0  0  0  0  3  0  0  0  0  0  0
  -25.2040  -29.1060   20.1570 C   0  0  0  0  0  0  0  0  0  0  0  0
  -26.2230  -30.8470   21.6330 C   0  0  0  0  0  2  0  0  0  0  0  0
  -26.3380  -29.5580   20.8410 C   0  0  0  0  0  0  0  0  0  0  0  0
  -27.5450  -28.8190   20.7800 C   0  0  0  0  0  3  0  0  0  0  0  0
  -26.4410  -27.1740   19.3580 C   0  0  0  0  0  3  0  0  0  0  0  0
  -25.2510  -27.9210   19.4020 C   0  0  0  0  0  3  0  0  0  0  0  0
  -23.9530  -29.9450   20.2580 C   0  0  0  0  0  2  0  0  0  0  0  0
  -24.9310  -31.0140   22.3410 N   0  0  0  0  0  0  0  0  0  0  0  0
  -23.7190  -31.8900   24.0450 O   0  0  0  0  0  0  0  0  0  0  0  0
  -23.0010  -29.3580   22.5080 C   0  0  0  0  0  0  0  0  0  0  0  0
  -21.6780  -29.2210   22.3260 N   0  0  0  0  0  0  0  0  0  0  0  0
  -23.6520  -28.6260   23.2580 O   0  0  0  0  0  0  0  0  0  0  0  0
  -21.2270  -29.8560   21.6810 H   0  0  0  0  0  0  0  0  0  0  0  0
  -18.2800  -28.0060   22.5680 C   0  0  0  0  0  0  0  0  0  0  0  0
  -20.8300  -28.2090   22.9510 C   0  0  0  0  0  3  0  0  0  0  0  0
  -20.9490  -26.8590   22.2090 C   0  0  0  0  0  2  0  0  0  0  0  0
  -19.8800  -26.6740   21.1280 C   0  0  0  0  0  2  0  0  0  0  0  0
  -18.4800  -26.7390   21.7470 C   0  0  0  0  0  2  0  0  0  0  0  0
  -19.3880  -28.7030   23.1190 C   0  0  0  0  0  0  0  0  0  0  0  0
  -19.1580  -29.8890   23.8470 C   0  0  0  0  0  3  0  0  0  0  0  0
  -17.8500  -30.3780   24.0260 C   0  0  0  0  0  3  0  0  0  0  0  0
  -16.7570  -29.6770   23.4940 C   0  0  0  0  0  3  0  0  0  0  0  0
  -16.9710  -28.4900   22.7740 C   0  0  0  0  0  3  0  0  0  0  0  0
  -26.0780  -32.2400   24.2690 C   0  0  0  0  0  3  0  0  0  0  0  0
  -26.4870  -31.3770   25.5230 C   0  0  1  0  0  0  0  0  0  0  0  0
  -25.3180  -31.0830   26.4940 C   0  0  0  0  0  1  0  0  0  0  0  0
  -27.0710  -30.0180   25.0760 C   0  0  0  0  0  1  0  0  0  0  0  0
  -27.6050  -32.0980   26.3160 C   0  0  0  0  0  1  0  0  0  0  0  0
  -25.7760  -33.6210   24.6700 N   0  0  0  0  0  0  0  0  0  0  0  0
  -26.2000  -34.7100   24.0130 C   0  0  0  0  0  0  0  0  0  0  0  0
  -26.9560  -34.6530   23.0380 O   0  0  0  0  0  0  0  0  0  0  0  0
  -25.1130  -33.7430   25.4210 H   0  0  0  0  0  0  0  0  0  0  0  0
  -24.5850  -36.5980   23.6080 C   0  0  0  0  0  1  0  0  0  0  0  0
  -25.7120  -36.0830   24.5190 C   0  0  0  0  0  3  0  0  0  0  0  0
  -27.7610  -36.8070   25.6600 C   0  0  0  0  0  1  0  0  0  0  0  0
  -26.7910  -37.0930   24.6060 N   0  0  0  0  0  0  0  0  0  0  0  0
  -26.4020  -38.0190   24.7730 H   0  0  0  0  0  0  0  0  0  0  0  0
  -28.6780  -19.1710   18.6960 C   0  0  0  0  0  2  0  0  0  0  0  0
  -28.1480  -17.8130   19.2010 C   0  0  0  0  0  2  0  0  0  0  0  0
  -26.7260  -17.8950   19.7760 C   0  0  0  0  0  2  0  0  0  0  0  0
  -24.8280  -16.6670   20.9490 C   0  0  0  0  0  1  0  0  0  0  0  0
  -26.2900  -16.6050   20.4930 C   0  0  0  0  0  2  0  0  0  0  0  0
  2  6  1  0
  2  1  2  0
  3  4  2  0
  3  2  1  0
  4  5  1  0
  5 47  1  0
  5  1  1  0
  7  6  1  0
  7  8  1  0
  9 15  1  0
  9 17  1  0
 10 15  1  0
 11 12  1  0
 11 10  1  0
 13 12  1  0
 13 22  1  0
 13 14  1  0
 15 14  1  0
 16  9  2  0
 17  8  1  0
 17 18  1  0
 19 20  2  0
 19 22  1  0
 20 21  1  0
 21 23  2  0
 21 24  1  0
 22 23  1  0
 24 25  1  0
 25 26  2  0
 27 30  1  0
 27 26  1  0
 28 27  2  0
 29 28  1  0
 29 24  2  0
 30 31  1  0
 31 32  2  0
 31 36  1  0
 32 33  1  0
 33 34  2  0
 34 38  1  0
 35 34  1  0
 36 35  2  0
 37 36  1  0
 39 20  1  0
 39 40  1  0
 40 42  1  0
 41 39  2  0
 43 40  1  0
 44 19  1  0
 45 44  1  0
 46 44  1  0
 48 47  1  0
 49 48  1  0
 50 49  1  0
 51 62  2  0
 52 50  1  0
 52 57  1  0
 53 61  1  0
 53 63  1  0
 54 60  1  0
 54 56  1  0
 55 61  1  0
 56 55  1  0
 57 56  2  0
 58 59  1  0
 58 52  2  0
 59 54  2  0
 60 53  1  0
 61 51  1  0
 63 65  2  0
 64 63  1  0
 66 64  1  0
 67 76  2  0
 67 72  1  0
 68 64  1  0
 68 72  1  0
 69 68  1  0
 70 71  1  0
 70 69  1  0
 71 67  1  0
 72 73  2  0
 73 74  1  0
 75 74  2  0
 76 75  1  0
 77 51  1  0
 77 82  1  0
 77 78  1  0
 78 81  1  1
 78 79  1  0
 80 78  1  0
 82 85  1  0
 83 87  1  0
 83 82  1  0
 84 83  2  0
 87 86  1  0
 87 89  1  0
 89 90  1  0
 89 88  1  0
 91 92  1  0
 91  3  1  0
 92 93  1  0
 93 95  1  0
 95 94  1  0
M  ISO  4   9 100  17 100  49 101  50 101
M  END
>  <TORSDO>  (4) 
F 26

>  <SCORE>  (4) 
-4.474

>  <name>  (4) 
3

>  <ligand_id>  (4) 
3

>  <original_smiles>  (4) 
[H]c1c([H])c([H])c2c(c1[H])C([H])([H])C([H])([H])C([H])([H])C2([H])N([H])C(=O)C1([H])N(C(=O)C([H])(N([H])C(=O)C([H])(N([H])C([H])([H])[H])C([H])([H])[H])C(C([H])([H])[H])(C([H])([H])[H])C([H])([H])[H])C([H])([H])c2c([H])c(OC([H])([H])C([H])([H])C([H])([H])n3nc(C([H])([H])C([H])([H])C([H])([H])C([H])([H])C([H])([H])[H])c(C([H])([H])C([H])([H])C([H])([H])N([H])C(=O)N4C([H])([H])C([H])([H])C([H])([H])C([H])(n5nc(-c6c([H])c([H])c(Oc7c([H])c([H])c(F)c([H])c7F)c([H])c6[H])c(C(=O)N([H])[H])c5N([H])[H])C4([H])[H])c3[H])c([H])c([H])c2C1([H])[H]

>  <smiles>  (4) 
[H]c1c([H])c([H])c2c(c1[H])C([H])([H])C([H])([H])C([H])([H])C2([H])N([H])C(=O)C1([H])N(C(=O)C([H])(N([H])C(=O)C([H])(N([H])C([H])([H])[H])C([H])([H])[H])C(C([H])([H])[H])(C([H])([H])[H])C([H])([H])[H])C([H])([H])c2c([H])c(OC([H])([H])C([H])([H])C([H])([H])n3nc(C([H])([H])C([H])([H])C([H])([H])C([H])([H])C([H])([H])[H])c(C([H])([H])C([H])([H])C([H])([H])N([H])C(=O)N4C([H])([H])C([H])([H])C([H])([H])C([H])(n5nc(-c6c([H])c([H])c(Oc7c([H])c([H])c(F)c([H])c7F)c([H])c6[H])c(C(=O)N([H])[H])c5N([H])[H])C4([H])[H])c3[H])c([H])c([H])c2C1([H])[H]

$$$$
4:0:0
     RDKit          3D

 94102  0  0  1  0  0  0  0  0999 V2000
  -28.2440  -23.4540   19.4870 C   0  0  0  0  0  0  0  0  0  0  0  0
  -27.5120  -22.8560   20.4950 C   0  0  0  0  0  0  0  0  0  0  0  0
  -28.4540  -24.6830   21.2440 C   0  0  0  0  0  0  0  0  0  0  0  0
  -28.4290  -23.0400   18.0550 C   0  0  0  0  0  1  0  0  0  0  0  0
  -27.2690  -23.3130   22.9860 C   0  0  0  0  0  1  0  0  0  0  0  0
  -28.8450  -24.6150   19.9750 N   0  0  0  0  0  0  0  0  0  0  0  0
  -27.7410  -23.6130   21.6440 N   0  0  0  0  0  0  0  0  0  0  0  0
  -28.6420  -25.7370   22.0630 O   0  0  0  0  0  0  0  0  0  0  0  0
  -24.0990  -28.2560   26.9370 C   0  0  0  0  0  0  0  0  0  0  0  0
  -27.5450  -26.5320   22.3220 C   0  0  0  0  0  0  0  0  0  0  0  0
  -23.4900  -28.6250   24.5870 C   0  0  0  0  0  3  0  0  0  0  0  0
  -25.2910  -28.1420   22.8560 C   0  0  0  0  0  0  0  0  0  0  0  0
  -25.9350  -28.4100   25.2560 C   0  0  0  0  0  2  0  0  0  0  0  0
  -26.2000  -27.8450   23.8790 C   0  0  0  0  0  0  0  0  0  0  0  0
  -27.3260  -27.0360   23.6220 C   0  0  0  0  0  3  0  0  0  0  0  0
  -26.6270  -26.8560   21.2940 C   0  0  0  0  0  3  0  0  0  0  0  0
  -25.4970  -27.6460   21.5590 C   0  0  0  0  0  3  0  0  0  0  0  0
  -24.1130  -29.0120   23.2190 C   0  0  0  0  0  2  0  0  0  0  0  0
  -24.5080  -28.3950   25.6470 N   0  0  0  0  0  0  0  0  0  0  0  0
  -22.9040  -28.3590   27.2480 O   0  0  0  0  0  0  0  0  0  0  0  0
  -22.5440  -27.4260   24.3800 C   0  0  0  0  0  0  0  0  0  0  0  0
  -21.3760  -27.7750   23.8540 N   0  0  0  0  0  0  0  0  0  0  0  0
  -22.8740  -26.2650   24.6380 O   0  0  0  0  0  0  0  0  0  0  0  0
  -21.2320  -28.7720   23.7810 H   0  0  0  0  0  0  0  0  0  0  0  0
  -18.0620  -27.2930   22.1960 C   0  0  0  0  0  0  0  0  0  0  0  0
  -20.3540  -27.0160   23.1810 C   0  0  0  0  0  3  0  0  0  0  0  0
  -20.6930  -25.9460   22.1370 C   0  0  0  0  0  2  0  0  0  0  0  0
  -20.0440  -26.3530   20.7970 C   0  0  0  0  0  2  0  0  0  0  0  0
  -18.5210  -26.5730   20.9270 C   0  0  0  0  0  2  0  0  0  0  0  0
  -18.9050  -27.4100   23.3270 C   0  0  0  0  0  0  0  0  0  0  0  0
  -18.4510  -28.0680   24.4880 C   0  0  0  0  0  3  0  0  0  0  0  0
  -17.1720  -28.6550   24.5070 C   0  0  0  0  0  3  0  0  0  0  0  0
  -16.3420  -28.5680   23.3760 C   0  0  0  0  0  3  0  0  0  0  0  0
  -16.7800  -27.8750   22.2300 C   0  0  0  0  0  3  0  0  0  0  0  0
  -25.1160  -27.9860   28.0840 C   0  0  0  0  0  3  0  0  0  0  0  0
  -24.6400  -28.7010   29.2750 N   0  0  0  0  0  0  0  0  0  0  0  0
  -25.1230  -29.8780   29.6950 C   0  0  0  0  0  0  0  0  0  0  0  0
  -26.0850  -30.4380   29.1600 O   0  0  0  0  0  0  0  0  0  0  0  0
  -23.8180  -28.3290   29.7280 H   0  0  0  0  0  0  0  0  0  0  0  0
  -23.5020  -31.6530   30.4270 C   0  0  0  0  0  1  0  0  0  0  0  0
  -24.4390  -30.5340   30.9070 C   0  0  0  0  0  3  0  0  0  0  0  0
  -26.1430  -30.0380   32.6010 C   0  0  0  0  0  1  0  0  0  0  0  0
  -25.3920  -31.0750   31.8980 N   0  0  0  0  0  0  0  0  0  0  0  0
  -24.9080  -31.6390   32.5910 H   0  0  0  0  0  0  0  0  0  0  0  0
  -25.3020  -26.4510   28.3880 C   0  0  1  0  0  0  0  0  0  0  0  0
  -23.9720  -25.6960   28.6180 C   0  0  0  0  0  1  0  0  0  0  0  0
  -26.0490  -25.7500   27.2280 C   0  0  0  0  0  1  0  0  0  0  0  0
  -26.1780  -26.2760   29.6510 C   0  0  0  0  0  1  0  0  0  0  0  0
  -26.6420  -21.6230   20.5170 C   0  0  0  0  0  2  0  0  0  0  0  0
  -25.9690  -21.2770   19.1770 C   0  0  0  0  0  2  0  0  0  0  0  0
  -25.7920  -19.7660   18.8980 C   0  0  0  0  0  2  0  0  0  0  0  0
  -26.9260  -18.8340   19.3840 C   0  0  0  0  0  2  0  0  0  0  0  0
  -28.1650  -19.5740   19.9200 C   0  0  0  0  0  2  0  0  0  0  0  0
  -29.5190  -19.1450   19.3390 C   0  0  0  0  0  2  0  0  0  0  0  0
  -30.6520  -19.5360   20.3030 C   0  0  0  0  0  2  0  0  0  0  0  0
  -32.0320  -19.6000   19.6450 C   0  0  0  0  0  2  0  0  0  0  0  0
  -34.2950  -19.1980   20.7960 C   0  0  0  0  0  0  0  0  0  0  0  0
  -36.5680  -19.5560   19.9430 C   0  0  0  0  0  2  0  0  0  0  0  0
  -36.8140  -21.0660   19.7640 C   0  0  0  0  0  2  0  0  0  0  0  0
  -36.3330  -21.5380   18.3780 C   0  0  0  0  0  2  0  0  0  0  0  0
  -34.9000  -21.0490   18.0400 C   0  0  0  0  0  3  0  0  0  0  0  0
  -34.7950  -19.5300   18.3130 C   0  0  0  0  0  2  0  0  0  0  0  0
  -35.1320  -19.3130   19.7280 N   0  0  0  0  0  0  0  0  0  0  0  0
  -34.7010  -18.9760   21.9390 O   0  0  0  0  0  0  0  0  0  0  0  0
  -33.0380  -19.6520   20.6990 N   0  0  0  0  0  0  0  0  0  0  0  0
  -32.6350  -19.8130   21.6120 H   0  0  0  0  0  0  0  0  0  0  0  0
  -33.9880  -22.5550   16.1640 C   0  0  0  0  0  0  0  0  0  0  0  0
  -33.8990  -22.3720   14.8080 C   0  0  0  0  0  0  0  0  0  0  0  0
  -34.4050  -21.0620   14.5540 C   0  0  0  0  0  0  0  0  0  0  0  0
  -34.5290  -21.3830   16.6680 N   0  0  0  0  0  0  0  0  0  0  0  0
  -34.7320  -20.4630   15.6910 N   0  0  0  0  0  0  0  0  0  0  0  0
  -34.6580  -20.3630   13.2860 C   0  0  0  0  0  0  0  0  0  0  0  0
  -33.9090  -19.2310   12.9040 C   0  0  0  0  0  3  0  0  0  0  0  0
  -34.1600  -18.5870   11.6740 C   0  0  0  0  0  3  0  0  0  0  0  0
  -35.1700  -19.0760   10.8110 C   0  0  0  0  0  0  0  0  0  0  0  0
  -35.9270  -20.1930   11.2040 C   0  0  0  0  0  3  0  0  0  0  0  0
  -35.6760  -20.8300   12.4310 C   0  0  0  0  0  3  0  0  0  0  0  0
  -35.5010  -18.5020    9.6090 O   0  0  0  0  0  0  0  0  0  0  0  0
  -34.5410  -18.0510    8.7380 C   0  0  0  0  0  0  0  0  0  0  0  0
  -33.5250  -18.8970    8.2450 C   0  0  0  0  0  3  0  0  0  0  0  0
  -32.6020  -18.4100    7.2990 C   0  0  0  0  0  3  0  0  0  0  0  0
  -32.6930  -17.0830    6.8390 C   0  0  0  0  0  0  0  0  0  0  0  0
  -33.7090  -16.2400    7.3250 C   0  0  0  0  0  3  0  0  0  0  0  0
  -34.6300  -16.7230    8.2700 C   0  0  0  0  0  0  0  0  0  0  0  0
  -35.6180  -15.9140    8.7210 F   0  0  0  0  0  0  0  0  0  0  0  0
  -31.8100  -16.6170    5.9250 F   0  0  0  0  0  0  0  0  0  0  0  0
  -33.4510  -23.3880   13.7960 C   0  0  0  0  0  0  0  0  0  0  0  0
  -32.8680  -22.9350   12.6900 N   0  0  0  0  0  0  0  0  0  0  0  0
  -33.5660  -24.5940   14.0000 O   0  0  0  0  0  0  0  0  0  0  0  0
  -32.7500  -21.9460   12.5270 H   0  0  0  0  0  0  0  0  0  0  0  0
  -32.5250  -23.5870   11.9980 H   0  0  0  0  0  0  0  0  0  0  0  0
  -33.6810  -23.6230   17.0010 N   0  0  0  0  0  0  0  0  0  0  0  0
  -33.3350  -24.5090   16.6540 H   0  0  0  0  0  0  0  0  0  0  0  0
  -33.8600  -23.6270   17.9970 H   0  0  0  0  0  0  0  0  0  0  0  0
  1  6  1  0
  1  2  2  0
  2 49  1  0
  2  7  1  0
  3  7  1  0
  3  8  1  0
  4  1  1  0
  6  3  2  0
  7  5  1  0
  8 10  1  0
  9 20  2  0
 10 15  1  0
 11 21  1  0
 11 19  1  0
 12 18  1  0
 12 14  1  0
 13 19  1  0
 14 13  1  0
 15 14  2  0
 16 17  1  0
 16 10  2  0
 17 12  2  0
 18 11  1  0
 19  9  1  0
 21 23  2  0
 22 21  1  0
 24 22  1  0
 25 34  2  0
 25 30  1  0
 26 30  1  0
 26 22  1  0
 27 26  1  0
 28 29  1  0
 28 27  1  0
 29 25  1  0
 30 31  2  0
 31 32  1  0
 33 32  2  0
 34 33  1  0
 35  9  1  0
 35 45  1  0
 35 36  1  0
 36 37  1  0
 36 39  1  0
 37 41  1  0
 38 37  2  0
 41 40  1  0
 41 43  1  0
 43 44  1  0
 43 42  1  0
 45 46  1  1
 45 48  1  0
 47 45  1  0
 50 49  1  0
 51 50  1  0
 51 52  1  0
 52 53  1  0
 54 53  1  0
 54 55  1  0
 56 55  1  0
 56 65  1  0
 57 64  2  0
 59 58  1  0
 60 59  1  0
 61 70  1  0
 61 62  1  0
 61 60  1  0
 62 63  1  0
 63 58  1  0
 63 57  1  0
 65 57  1  0
 65 66  1  0
 67 70  1  0
 67 92  1  0
 68 67  2  0
 69 68  1  0
 69 71  2  0
 71 70  1  0
 72 69  1  0
 73 72  1  0
 74 73  2  0
 75 76  2  0
 75 74  1  0
 76 77  1  0
 77 72  2  0
 78 75  1  0
 79 78  1  0
 80 79  2  0
 81 80  1  0
 82 81  2  0
 82 83  1  0
 83 84  2  0
 84 85  1  0
 84 79  1  0
 86 82  1  0
 87 89  2  0
 87 68  1  0
 88 87  1  0
 90 88  1  0
 91 88  1  0
 92 94  1  0
 93 92  1  0
M  ISO  4   3 101   8 101  57 100  65 100
M  END
>  <TORSDO>  (5) 
F 24

>  <SCORE>  (5) 
5.705

>  <name>  (5) 
4

>  <ligand_id>  (5) 
4

>  <original_smiles>  (5) 
[H]c1c([H])c([H])c2c(c1[H])C([H])([H])C([H])([H])C([H])([H])C2([H])N([H])C(=O)C1([H])N(C(=O)C([H])(N([H])C(=O)C([H])(N([H])C([H])([H])[H])C([H])([H])[H])C(C([H])([H])[H])(C([H])([H])[H])C([H])([H])[H])C([H])([H])c2c([H])c(Oc3nc(C([H])([H])[H])c(C([H])([H])C([H])([H])C([H])([H])C([H])([H])C([H])([H])C([H])([H])C([H])([H])C([H])([H])N([H])C(=O)N4C([H])([H])C([H])([H])C([H])([H])C([H])(n5nc(-c6c([H])c([H])c(Oc7c([H])c([H])c(F)c([H])c7F)c([H])c6[H])c(C(=O)N([H])[H])c5N([H])[H])C4([H])[H])n3C([H])([H])[H])c([H])c([H])c2C1([H])[H]

>  <smiles>  (5) 
[H]c1c([H])c([H])c2c(c1[H])C([H])([H])C([H])([H])C([H])([H])C2([H])N([H])C(=O)C1([H])N(C(=O)C([H])(N([H])C(=O)C([H])(N([H])C([H])([H])[H])C([H])([H])[H])C(C([H])([H])[H])(C([H])([H])[H])C([H])([H])[H])C([H])([H])c2c([H])c(Oc3nc(C([H])([H])[H])c(C([H])([H])C([H])([H])C([H])([H])C([H])([H])C([H])([H])C([H])([H])C([H])([H])C([H])([H])N([H])C(=O)N4C([H])([H])C([H])([H])C([H])([H])C([H])(n5nc(-c6c([H])c([H])c(Oc7c([H])c([H])c(F)c([H])c7F)c([H])c6[H])c(C(=O)N([H])[H])c5N([H])[H])C4([H])[H])n3C([H])([H])[H])c([H])c([H])c2C1([H])[H]

$$$$
5:0:0
     RDKit          3D

 92100  0  0  1  0  0  0  0  0999 V2000
  -30.6930  -22.8090   20.8790 C   0  0  0  0  0  0  0  0  0  0  0  0
  -28.1100  -22.6060   20.1420 C   0  0  0  0  0  0  0  0  0  0  0  0
  -30.0840  -21.5350   20.6600 C   0  0  0  0  0  0  0  0  0  0  0  0
  -28.7160  -23.8840   20.3310 C   0  0  0  0  0  0  0  0  0  0  0  0
  -32.1380  -22.9460   21.3160 C   0  0  0  0  0  1  0  0  0  0  0  0
  -26.6430  -22.4280   19.7790 C   0  0  0  0  0  1  0  0  0  0  0  0
  -28.7930  -21.4510   20.2810 N   0  0  0  0  0  0  0  0  0  0  0  0
  -30.0160  -23.9840   20.7040 N   0  0  0  0  0  0  0  0  0  0  0  0
  -30.8080  -20.1800   20.7300 C   0  0  0  0  0  2  0  0  0  0  0  0
  -30.2270  -19.1880   21.7770 C   0  0  0  0  0  2  0  0  0  0  0  0
  -29.7100  -17.8210   21.2460 C   0  0  0  0  0  2  0  0  0  0  0  0
  -30.7920  -16.7720   20.9030 C   0  0  0  0  0  2  0  0  0  0  0  0
  -30.7940  -14.4140   20.0710 C   0  0  0  0  0  0  0  0  0  0  0  0
  -30.3580  -12.2760   18.9230 C   0  0  0  0  0  2  0  0  0  0  0  0
  -29.3450  -12.4900   17.7790 C   0  0  0  0  0  2  0  0  0  0  0  0
  -27.9000  -12.3860   18.2990 C   0  0  0  0  0  2  0  0  0  0  0  0
  -27.6550  -13.2300   19.5780 C   0  0  0  0  0  3  0  0  0  0  0  0
  -28.7730  -12.9950   20.6200 C   0  0  0  0  0  2  0  0  0  0  0  0
  -30.0700  -13.2670   19.9720 N   0  0  0  0  0  0  0  0  0  0  0  0
  -31.8660  -14.5830   19.4850 O   0  0  0  0  0  0  0  0  0  0  0  0
  -30.2270  -15.4190   20.7600 N   0  0  0  0  0  0  0  0  0  0  0  0
  -29.3380  -15.2280   21.1960 H   0  0  0  0  0  0  0  0  0  0  0  0
  -25.3200  -13.8720   20.4490 C   0  0  0  0  0  0  0  0  0  0  0  0
  -24.2570  -13.1150   20.8660 C   0  0  0  0  0  0  0  0  0  0  0  0
  -24.6810  -11.7540   20.7730 C   0  0  0  0  0  0  0  0  0  0  0  0
  -26.3280  -12.9720   20.1350 N   0  0  0  0  0  0  0  0  0  0  0  0
  -25.9480  -11.6920   20.3850 N   0  0  0  0  0  0  0  0  0  0  0  0
  -23.9350  -10.5040   20.9760 C   0  0  0  0  0  0  0  0  0  0  0  0
  -24.3780   -9.5170   21.8840 C   0  0  0  0  0  3  0  0  0  0  0  0
  -23.6340   -8.3330   22.0750 C   0  0  0  0  0  3  0  0  0  0  0  0
  -22.4320   -8.1290   21.3570 C   0  0  0  0  0  0  0  0  0  0  0  0
  -22.0080   -9.1020   20.4350 C   0  0  0  0  0  3  0  0  0  0  0  0
  -22.7540  -10.2780   20.2440 C   0  0  0  0  0  3  0  0  0  0  0  0
  -21.6580   -6.9980   21.4590 O   0  0  0  0  0  0  0  0  0  0  0  0
  -21.6040   -6.2630   22.6160 C   0  0  0  0  0  0  0  0  0  0  0  0
  -21.1750   -6.8270   23.8370 C   0  0  0  0  0  3  0  0  0  0  0  0
  -21.0710   -6.0190   24.9870 C   0  0  0  0  0  3  0  0  0  0  0  0
  -21.3860   -4.6500   24.9150 C   0  0  0  0  0  0  0  0  0  0  0  0
  -21.8080   -4.0850   23.7000 C   0  0  0  0  0  3  0  0  0  0  0  0
  -21.9140   -4.8890   22.5520 C   0  0  0  0  0  0  0  0  0  0  0  0
  -22.3030   -4.3370   21.3770 F   0  0  0  0  0  0  0  0  0  0  0  0
  -21.2770   -3.8710   26.0180 F   0  0  0  0  0  0  0  0  0  0  0  0
  -22.8920  -13.6180   21.2410 C   0  0  0  0  0  0  0  0  0  0  0  0
  -22.2010  -12.9100   22.1290 N   0  0  0  0  0  0  0  0  0  0  0  0
  -22.4500  -14.6700   20.7840 O   0  0  0  0  0  0  0  0  0  0  0  0
  -22.5770  -12.0590   22.5180 H   0  0  0  0  0  0  0  0  0  0  0  0
  -21.2910  -13.2250   22.4300 H   0  0  0  0  0  0  0  0  0  0  0  0
  -25.5050  -15.2420   20.2920 N   0  0  0  0  0  0  0  0  0  0  0  0
  -24.7630  -15.9130   20.4590 H   0  0  0  0  0  0  0  0  0  0  0  0
  -26.3480  -15.6670   19.9250 H   0  0  0  0  0  0  0  0  0  0  0  0
  -27.8660  -25.1250   20.0290 C   0  0  0  0  0  2  0  0  0  0  0  0
  -28.2690  -26.5040   20.2790 O   0  0  0  0  0  0  0  0  0  0  0  0
  -24.5240  -31.8720   23.2030 C   0  0  0  0  0  0  0  0  0  0  0  0
  -27.1830  -27.3790   20.1570 C   0  0  0  0  0  0  0  0  0  0  0  0
  -23.3480  -30.4870   21.5340 C   0  0  0  0  0  3  0  0  0  0  0  0
  -24.8230  -28.9710   20.1200 C   0  0  0  0  0  0  0  0  0  0  0  0
  -25.8920  -30.8150   21.4030 C   0  0  0  0  0  2  0  0  0  0  0  0
  -25.9800  -29.4490   20.7480 C   0  0  0  0  0  0  0  0  0  0  0  0
  -27.1640  -28.6600   20.7740 C   0  0  0  0  0  3  0  0  0  0  0  0
  -26.0060  -26.9780   19.4640 C   0  0  0  0  0  3  0  0  0  0  0  0
  -24.8340  -27.7360   19.4710 C   0  0  0  0  0  3  0  0  0  0  0  0
  -23.5850  -29.8360   20.1510 C   0  0  0  0  0  2  0  0  0  0  0  0
  -24.6050  -31.0710   22.1030 N   0  0  0  0  0  0  0  0  0  0  0  0
  -23.4310  -32.1490   23.7150 O   0  0  0  0  0  0  0  0  0  0  0  0
  -22.6730  -29.4550   22.4690 C   0  0  0  0  0  0  0  0  0  0  0  0
  -21.3480  -29.2900   22.3250 N   0  0  0  0  0  0  0  0  0  0  0  0
  -23.3390  -28.8110   23.2830 O   0  0  0  0  0  0  0  0  0  0  0  0
  -20.8730  -29.8630   21.6400 H   0  0  0  0  0  0  0  0  0  0  0  0
  -17.9470  -28.1530   22.7950 C   0  0  0  0  0  0  0  0  0  0  0  0
  -20.5090  -28.3560   23.0760 C   0  0  0  0  0  3  0  0  0  0  0  0
  -20.5850  -26.9330   22.4770 C   0  0  0  0  0  2  0  0  0  0  0  0
  -19.4790  -26.6480   21.4560 C   0  0  0  0  0  2  0  0  0  0  0  0
  -18.0980  -26.8100   22.0990 C   0  0  0  0  0  2  0  0  0  0  0  0
  -19.0800  -28.8850   23.2390 C   0  0  0  0  0  0  0  0  0  0  0  0
  -18.8850  -30.1430   23.8500 C   0  0  0  0  0  3  0  0  0  0  0  0
  -17.5910  -30.6690   24.0180 C   0  0  0  0  0  3  0  0  0  0  0  0
  -16.4720  -29.9340   23.5890 C   0  0  0  0  0  3  0  0  0  0  0  0
  -16.6510  -28.6770   22.9850 C   0  0  0  0  0  3  0  0  0  0  0  0
  -25.7990  -32.4960   23.8490 C   0  0  0  0  0  3  0  0  0  0  0  0
  -25.4820  -33.8890   24.1890 N   0  0  0  0  0  0  0  0  0  0  0  0
  -25.8150  -34.9480   23.4390 C   0  0  0  0  0  0  0  0  0  0  0  0
  -26.4930  -34.8550   22.4110 O   0  0  0  0  0  0  0  0  0  0  0  0
  -24.8800  -34.0350   24.9860 H   0  0  0  0  0  0  0  0  0  0  0  0
  -24.0830  -36.7360   23.0770 C   0  0  0  0  0  1  0  0  0  0  0  0
  -25.3170  -36.3300   23.9010 C   0  0  0  0  0  3  0  0  0  0  0  0
  -27.4380  -37.2160   24.7640 C   0  0  0  0  0  1  0  0  0  0  0  0
  -26.3460  -37.3890   23.8090 N   0  0  0  0  0  0  0  0  0  0  0  0
  -25.9350  -38.3060   23.9580 H   0  0  0  0  0  0  0  0  0  0  0  0
  -26.2960  -31.7080   25.1220 C   0  0  1  0  0  0  0  0  0  0  0  0
  -25.1840  -31.4500   26.1670 C   0  0  0  0  0  1  0  0  0  0  0  0
  -26.8920  -30.3380   24.7210 C   0  0  0  0  0  1  0  0  0  0  0  0
  -27.4310  -32.4970   25.8130 C   0  0  0  0  0  1  0  0  0  0  0  0
  1  5  1  0
  2  7  2  0
  2  4  1  0
  3  9  1  0
  3  1  2  0
  4  8  2  0
  6  2  1  0
  7  3  1  0
  8  1  1  0
  9 10  1  0
 11 10  1  0
 12 11  1  0
 13 21  1  0
 14 19  1  0
 15 16  1  0
 15 14  1  0
 17 16  1  0
 17 26  1  0
 17 18  1  0
 19 13  1  0
 19 18  1  0
 20 13  2  0
 21 12  1  0
 21 22  1  0
 23 24  2  0
 24 43  1  0
 25 24  1  0
 25 28  1  0
 26 27  1  0
 26 23  1  0
 27 25  2  0
 28 29  1  0
 29 30  2  0
 31 34  1  0
 31 30  1  0
 32 31  2  0
 33 32  1  0
 33 28  2  0
 34 35  1  0
 35 36  1  0
 36 37  2  0
 38 37  1  0
 38 42  1  0
 39 38  2  0
 40 35  2  0
 40 39  1  0
 41 40  1  0
 43 44  1  0
 44 47  1  0
 44 46  1  0
 45 43  2  0
 48 23  1  0
 48 49  1  0
 50 48  1  0
 51 52  1  0
 51  4  1  0
 53 64  2  0
 54 52  1  0
 54 59  1  0
 55 63  1  0
 55 65  1  0
 56 62  1  0
 56 58  1  0
 57 63  1  0
 58 59  2  0
 58 57  1  0
 60 61  1  0
 60 54  2  0
 61 56  2  0
 62 55  1  0
 63 53  1  0
 65 67  2  0
 66 65  1  0
 68 66  1  0
 69 78  2  0
 69 74  1  0
 70 66  1  0
 70 74  1  0
 71 70  1  0
 72 73  1  0
 72 71  1  0
 73 69  1  0
 74 75  2  0
 75 76  1  0
 77 76  2  0
 78 77  1  0
 79 53  1  0
 79 80  1  0
 79 89  1  0
 80 83  1  0
 81 85  1  0
 81 80  1  0
 82 81  2  0
 85 84  1  0
 87 85  1  0
 87 88  1  0
 87 86  1  0
 89 92  1  1
 89 90  1  0
 91 89  1  0
M  ISO  4  13 100  21 100  51 101  52 101
M  END
>  <TORSDO>  (6) 
F 21

>  <SCORE>  (6) 
-12.527

>  <name>  (6) 
5

>  <ligand_id>  (6) 
5

>  <original_smiles>  (6) 
[H]c1c([H])c([H])c2c(c1[H])C([H])([H])C([H])([H])C([H])([H])C2([H])N([H])C(=O)C1([H])N(C(=O)C([H])(N([H])C(=O)C([H])(N([H])C([H])([H])[H])C([H])([H])[H])C(C([H])([H])[H])(C([H])([H])[H])C([H])([H])[H])C([H])([H])c2c([H])c(OC([H])([H])c3nc(C([H])([H])[H])c(C([H])([H])C([H])([H])C([H])([H])C([H])([H])N([H])C(=O)N4C([H])([H])C([H])([H])C([H])([H])C([H])(n5nc(-c6c([H])c([H])c(Oc7c([H])c([H])c(F)c([H])c7F)c([H])c6[H])c(C(=O)N([H])[H])c5N([H])[H])C4([H])[H])nc3C([H])([H])[H])c([H])c([H])c2C1([H])[H]

>  <smiles>  (6) 
[H]c1c([H])c([H])c2c(c1[H])C([H])([H])C([H])([H])C([H])([H])C2([H])N([H])C(=O)C1([H])N(C(=O)C([H])(N([H])C(=O)C([H])(N([H])C([H])([H])[H])C([H])([H])[H])C(C([H])([H])[H])(C([H])([H])[H])C([H])([H])[H])C([H])([H])c2c([H])c(OC([H])([H])c3nc(C([H])([H])[H])c(C([H])([H])C([H])([H])C([H])([H])C([H])([H])N([H])C(=O)N4C([H])([H])C([H])([H])C([H])([H])C([H])(n5nc(-c6c([H])c([H])c(Oc7c([H])c([H])c(F)c([H])c7F)c([H])c6[H])c(C(=O)N([H])[H])c5N([H])[H])C4([H])[H])nc3C([H])([H])[H])c([H])c([H])c2C1([H])[H]

$$$$
6:0:0
     RDKit          3D

 95103  0  0  1  0  0  0  0  0999 V2000
  -27.0230  -20.5100   19.0090 C   0  0  0  0  0  0  0  0  0  0  0  0
  -29.0560  -22.1630   18.3000 C   0  0  0  0  0  0  0  0  0  0  0  0
  -27.9100  -20.1840   17.9420 C   0  0  0  0  0  0  0  0  0  0  0  0
  -28.1630  -22.4950   19.3520 C   0  0  0  0  0  0  0  0  0  0  0  0
  -25.8680  -19.6310   19.4630 C   0  0  0  0  0  1  0  0  0  0  0  0
  -30.1550  -23.0990   17.8240 C   0  0  0  0  0  1  0  0  0  0  0  0
  -28.9330  -21.0090   17.6030 N   0  0  0  0  0  0  0  0  0  0  0  0
  -27.1610  -21.6600   19.7100 N   0  0  0  0  0  0  0  0  0  0  0  0
  -27.8330  -18.8840   17.1420 C   0  0  0  0  0  2  0  0  0  0  0  0
  -28.9720  -17.9050   17.4990 C   0  0  0  0  0  2  0  0  0  0  0  0
  -29.1170  -17.7450   19.0260 C   0  0  0  0  0  2  0  0  0  0  0  0
  -30.2290  -16.7990   19.4800 C   0  0  0  0  0  2  0  0  0  0  0  0
  -30.0310  -16.3050   20.9390 C   0  0  0  0  0  2  0  0  0  0  0  0
  -31.6950  -14.4450   20.8160 C   0  0  0  0  0  0  0  0  0  0  0  0
  -31.4760  -12.1620   19.8950 C   0  0  0  0  0  2  0  0  0  0  0  0
  -30.6360  -12.1500   18.6050 C   0  0  0  0  0  2  0  0  0  0  0  0
  -29.1280  -12.0610   18.9240 C   0  0  0  0  0  2  0  0  0  0  0  0
  -28.6810  -13.1190   19.9580 C   0  0  0  0  0  3  0  0  0  0  0  0
  -29.6130  -13.0530   21.1780 C   0  0  0  0  0  2  0  0  0  0  0  0
  -31.0010  -13.2800   20.7230 N   0  0  0  0  0  0  0  0  0  0  0  0
  -32.8440  -14.5820   20.3890 O   0  0  0  0  0  0  0  0  0  0  0  0
  -31.1000  -15.4520   21.4750 N   0  0  0  0  0  0  0  0  0  0  0  0
  -31.7460  -15.9890   22.0320 H   0  0  0  0  0  0  0  0  0  0  0  0
  -26.3080  -13.9330   20.5170 C   0  0  0  0  0  0  0  0  0  0  0  0
  -25.1610  -13.2530   20.8120 C   0  0  0  0  0  0  0  0  0  0  0  0
  -25.5120  -11.8650   20.8150 C   0  0  0  0  0  0  0  0  0  0  0  0
  -27.2870  -12.9670   20.3400 N   0  0  0  0  0  0  0  0  0  0  0  0
  -26.8090  -11.7220   20.5740 N   0  0  0  0  0  0  0  0  0  0  0  0
  -24.6840  -10.6660   20.9590 C   0  0  0  0  0  0  0  0  0  0  0  0
  -24.9370   -9.7120   21.9700 C   0  0  0  0  0  3  0  0  0  0  0  0
  -24.1210   -8.5650   22.0910 C   0  0  0  0  0  3  0  0  0  0  0  0
  -23.0320   -8.3700   21.2100 C   0  0  0  0  0  0  0  0  0  0  0  0
  -22.7980   -9.3150   20.1930 C   0  0  0  0  0  3  0  0  0  0  0  0
  -23.6160  -10.4490   20.0630 C   0  0  0  0  0  3  0  0  0  0  0  0
  -22.2030   -7.2720   21.2390 O   0  0  0  0  0  0  0  0  0  0  0  0
  -21.8780   -6.6540   22.4200 C   0  0  0  0  0  0  0  0  0  0  0  0
  -21.2110   -7.3320   23.4650 C   0  0  0  0  0  3  0  0  0  0  0  0
  -20.8400   -6.6320   24.6330 C   0  0  0  0  0  3  0  0  0  0  0  0
  -21.1270   -5.2600   24.7540 C   0  0  0  0  0  0  0  0  0  0  0  0
  -21.7740   -4.5810   23.7070 C   0  0  0  0  0  3  0  0  0  0  0  0
  -22.1480   -5.2770   22.5440 C   0  0  0  0  0  0  0  0  0  0  0  0
  -22.7590   -4.6160   21.5310 F   0  0  0  0  0  0  0  0  0  0  0  0
  -20.7670   -4.5860   25.8730 F   0  0  0  0  0  0  0  0  0  0  0  0
  -23.7890  -13.8380   20.9930 C   0  0  0  0  0  0  0  0  0  0  0  0
  -22.9660  -13.2100   21.8240 N   0  0  0  0  0  0  0  0  0  0  0  0
  -23.4590  -14.8810   20.4230 O   0  0  0  0  0  0  0  0  0  0  0  0
  -23.2560  -12.3610   22.2910 H   0  0  0  0  0  0  0  0  0  0  0  0
  -22.0370  -13.5710   21.9820 H   0  0  0  0  0  0  0  0  0  0  0  0
  -26.5920  -15.2870   20.3570 N   0  0  0  0  0  0  0  0  0  0  0  0
  -25.8560  -15.9890   20.3430 H   0  0  0  0  0  0  0  0  0  0  0  0
  -27.5030  -15.6430   20.1060 H   0  0  0  0  0  0  0  0  0  0  0  0
  -28.1040  -23.8790   19.9870 C   0  0  0  0  0  2  0  0  0  0  0  0
  -28.8500  -24.0780   21.3190 C   0  0  0  0  0  2  0  0  0  0  0  0
  -28.7450  -25.5370   21.8120 C   0  0  0  0  0  2  0  0  0  0  0  0
  -28.8500  -26.4770   20.7360 O   0  0  0  0  0  0  0  0  0  0  0  0
  -24.9860  -31.7870   23.4220 C   0  0  0  0  0  0  0  0  0  0  0  0
  -27.7210  -27.2470   20.6130 C   0  0  0  0  0  0  0  0  0  0  0  0
  -23.8330  -30.3190   21.7970 C   0  0  0  0  0  3  0  0  0  0  0  0
  -25.3340  -28.7280   20.4870 C   0  0  0  0  0  0  0  0  0  0  0  0
  -26.3660  -30.6680   21.6840 C   0  0  0  0  0  2  0  0  0  0  0  0
  -26.4660  -29.2750   21.1080 C   0  0  0  0  0  0  0  0  0  0  0  0
  -27.6630  -28.5330   21.1870 C   0  0  0  0  0  3  0  0  0  0  0  0
  -26.5930  -26.7360   19.9430 C   0  0  0  0  0  3  0  0  0  0  0  0
  -25.3860  -27.4530   19.9050 C   0  0  0  0  0  3  0  0  0  0  0  0
  -24.0950  -29.5900   20.4540 C   0  0  0  0  0  2  0  0  0  0  0  0
  -25.0770  -30.9370   22.3620 N   0  0  0  0  0  0  0  0  0  0  0  0
  -23.8890  -32.0850   23.9160 O   0  0  0  0  0  0  0  0  0  0  0  0
  -23.1500  -29.3310   22.7700 C   0  0  0  0  0  0  0  0  0  0  0  0
  -21.8530  -29.0710   22.5390 N   0  0  0  0  0  0  0  0  0  0  0  0
  -23.7790  -28.8060   23.6910 O   0  0  0  0  0  0  0  0  0  0  0  0
  -21.4100  -29.5420   21.7650 H   0  0  0  0  0  0  0  0  0  0  0  0
  -18.5040  -27.7510   22.8210 C   0  0  0  0  0  0  0  0  0  0  0  0
  -21.0100  -28.1560   23.3010 C   0  0  0  0  0  3  0  0  0  0  0  0
  -21.2290  -26.6930   22.8510 C   0  0  0  0  0  2  0  0  0  0  0  0
  -20.2420  -26.2400   21.7700 C   0  0  0  0  0  2  0  0  0  0  0  0
  -18.8010  -26.3640   22.2740 C   0  0  0  0  0  2  0  0  0  0  0  0
  -19.5440  -28.5970   23.2890 C   0  0  0  0  0  0  0  0  0  0  0  0
  -19.2190  -29.8880   23.7550 C   0  0  0  0  0  3  0  0  0  0  0  0
  -17.8860  -30.3380   23.7590 C   0  0  0  0  0  3  0  0  0  0  0  0
  -16.8570  -29.4890   23.3100 C   0  0  0  0  0  3  0  0  0  0  0  0
  -17.1690  -28.1970   22.8460 C   0  0  0  0  0  3  0  0  0  0  0  0
  -26.2560  -32.4350   24.0590 C   0  0  0  0  0  3  0  0  0  0  0  0
  -25.9380  -33.8420   24.3370 N   0  0  0  0  0  0  0  0  0  0  0  0
  -26.2720  -34.8660   23.5400 C   0  0  0  0  0  0  0  0  0  0  0  0
  -26.9520  -34.7250   22.5190 O   0  0  0  0  0  0  0  0  0  0  0  0
  -25.3350  -34.0240   25.1270 H   0  0  0  0  0  0  0  0  0  0  0  0
  -24.5270  -36.6220   23.1030 C   0  0  0  0  0  1  0  0  0  0  0  0
  -25.7700  -36.2660   23.9370 C   0  0  0  0  0  3  0  0  0  0  0  0
  -27.8850  -37.2090   24.7480 C   0  0  0  0  0  1  0  0  0  0  0  0
  -26.7950  -37.3220   23.7840 N   0  0  0  0  0  0  0  0  0  0  0  0
  -26.3780  -38.2450   23.8820 H   0  0  0  0  0  0  0  0  0  0  0  0
  -26.7370  -31.7010   25.3700 C   0  0  1  0  0  0  0  0  0  0  0  0
  -25.5980  -31.4070   26.3720 C   0  0  0  0  0  1  0  0  0  0  0  0
  -27.4280  -30.3610   25.0250 C   0  0  0  0  0  1  0  0  0  0  0  0
  -27.7930  -32.5650   26.0940 C   0  0  0  0  0  1  0  0  0  0  0  0
  1  5  1  0
  1  8  1  0
  2  4  1  0
  3  1  2  0
  4  8  2  0
  4 52  1  0
  6  2  1  0
  7  3  1  0
  7  2  2  0
  9 10  1  0
  9  3  1  0
 10 11  1  0
 11 12  1  0
 12 13  1  0
 13 22  1  0
 14 22  1  0
 15 20  1  0
 16 17  1  0
 16 15  1  0
 18 17  1  0
 18 27  1  0
 18 19  1  0
 20 14  1  0
 20 19  1  0
 21 14  2  0
 22 23  1  0
 24 25  2  0
 25 26  1  0
 25 44  1  0
 26 29  1  0
 27 24  1  0
 27 28  1  0
 28 26  2  0
 29 30  1  0
 30 31  2  0
 32 35  1  0
 32 31  1  0
 33 32  2  0
 34 33  1  0
 34 29  2  0
 35 36  1  0
 36 41  2  0
 36 37  1  0
 37 38  2  0
 38 39  1  0
 39 43  1  0
 40 39  2  0
 41 40  1  0
 42 41  1  0
 44 45  1  0
 45 48  1  0
 45 47  1  0
 46 44  2  0
 49 24  1  0
 50 49  1  0
 51 49  1  0
 52 53  1  0
 53 54  1  0
 55 54  1  0
 56 67  2  0
 57 55  1  0
 57 62  1  0
 58 66  1  0
 58 68  1  0
 59 61  1  0
 60 66  1  0
 61 62  2  0
 61 60  1  0
 63 57  2  0
 64 63  1  0
 64 59  2  0
 65 59  1  0
 65 58  1  0
 66 56  1  0
 68 70  2  0
 69 68  1  0
 71 69  1  0
 72 81  2  0
 72 77  1  0
 73 69  1  0
 74 73  1  0
 75 76  1  0
 75 74  1  0
 76 72  1  0
 77 73  1  0
 77 78  2  0
 78 79  1  0
 80 79  2  0
 81 80  1  0
 82 56  1  0
 82 83  1  0
 82 92  1  0
 83 86  1  0
 84 88  1  0
 84 83  1  0
 85 84  2  0
 88 87  1  0
 90 91  1  0
 90 88  1  0
 90 89  1  0
 92 95  1  1
 92 93  1  0
 94 92  1  0
M  ISO  4  14 100  22 100  54 101  55 101
M  END
>  <TORSDO>  (7) 
F 24

>  <SCORE>  (7) 
-10.168

>  <name>  (7) 
6

>  <ligand_id>  (7) 
6

>  <original_smiles>  (7) 
[H]c1c([H])c([H])c2c(c1[H])C([H])([H])C([H])([H])C([H])([H])C2([H])N([H])C(=O)C1([H])N(C(=O)C([H])(N([H])C(=O)C([H])(N([H])C([H])([H])[H])C([H])([H])[H])C(C([H])([H])[H])(C([H])([H])[H])C([H])([H])[H])C([H])([H])c2c([H])c(OC([H])([H])C([H])([H])C([H])([H])c3nc(C([H])([H])[H])c(C([H])([H])C([H])([H])C([H])([H])C([H])([H])C([H])([H])N([H])C(=O)N4C([H])([H])C([H])([H])C([H])([H])C([H])(n5nc(-c6c([H])c([H])c(Oc7c([H])c([H])c(F)c([H])c7F)c([H])c6[H])c(C(=O)N([H])[H])c5N([H])[H])C4([H])[H])nc3C([H])([H])[H])c([H])c([H])c2C1([H])[H]

>  <smiles>  (7) 
[H]c1c([H])c([H])c2c(c1[H])C([H])([H])C([H])([H])C([H])([H])C2([H])N([H])C(=O)C1([H])N(C(=O)C([H])(N([H])C(=O)C([H])(N([H])C([H])([H])[H])C([H])([H])[H])C(C([H])([H])[H])(C([H])([H])[H])C([H])([H])[H])C([H])([H])c2c([H])c(OC([H])([H])C([H])([H])C([H])([H])c3nc(C([H])([H])[H])c(C([H])([H])C([H])([H])C([H])([H])C([H])([H])C([H])([H])N([H])C(=O)N4C([H])([H])C([H])([H])C([H])([H])C([H])(n5nc(-c6c([H])c([H])c(Oc7c([H])c([H])c(F)c([H])c7F)c([H])c6[H])c(C(=O)N([H])[H])c5N([H])[H])C4([H])[H])nc3C([H])([H])[H])c([H])c([H])c2C1([H])[H]

$$$$
7:0:0
     RDKit          3D

 94102  0  0  1  0  0  0  0  0999 V2000
  -29.3610  -23.2590   18.9940 C   0  0  0  0  0  3  0  0  0  0  0  0
  -30.3370  -20.0370   21.1760 C   0  0  0  0  0  2  0  0  0  0  0  0
  -30.6990  -19.5910   18.7230 C   0  0  0  0  0  2  0  0  0  0  0  0
  -29.5840  -21.3520   20.8200 C   0  0  0  0  0  2  0  0  0  0  0  0
  -29.9220  -20.8690   18.3860 C   0  0  0  0  0  2  0  0  0  0  0  0
  -30.2690  -18.9590   20.0600 C   0  0  0  0  0  3  0  0  0  0  0  0
  -30.0650  -21.9510   19.4780 C   0  0  0  0  0  3  0  0  0  0  0  0
  -31.1590  -17.7110   20.3150 C   0  0  0  0  0  2  0  0  0  0  0  0
  -30.7340  -16.7290   21.4410 C   0  0  0  0  0  2  0  0  0  0  0  0
  -30.8640  -14.4500   20.3360 C   0  0  0  0  0  0  0  0  0  0  0  0
  -30.5040  -12.3440   19.0990 C   0  0  0  0  0  2  0  0  0  0  0  0
  -29.5360  -12.5830   17.9220 C   0  0  0  0  0  2  0  0  0  0  0  0
  -28.0680  -12.4560   18.3830 C   0  0  0  0  0  2  0  0  0  0  0  0
  -27.7700  -13.2640   19.6780 C   0  0  0  0  0  3  0  0  0  0  0  0
  -28.8460  -12.9940   20.7520 C   0  0  0  0  0  2  0  0  0  0  0  0
  -30.1600  -13.2990   20.1600 N   0  0  0  0  0  0  0  0  0  0  0  0
  -31.9850  -14.6290   19.8550 O   0  0  0  0  0  0  0  0  0  0  0  0
  -30.2110  -15.4280   20.9900 N   0  0  0  0  0  0  0  0  0  0  0  0
  -29.2760  -15.1960   21.2940 H   0  0  0  0  0  0  0  0  0  0  0  0
  -25.3860  -13.8850   20.4280 C   0  0  0  0  0  0  0  0  0  0  0  0
  -24.3220  -13.1190   20.8180 C   0  0  0  0  0  0  0  0  0  0  0  0
  -24.7750  -11.7650   20.7800 C   0  0  0  0  0  0  0  0  0  0  0  0
  -26.4240  -12.9980   20.1810 N   0  0  0  0  0  0  0  0  0  0  0  0
  -26.0590  -11.7190   20.4500 N   0  0  0  0  0  0  0  0  0  0  0  0
  -24.0480  -10.5060   20.9810 C   0  0  0  0  0  0  0  0  0  0  0  0
  -24.4800   -9.5430   21.9200 C   0  0  0  0  0  3  0  0  0  0  0  0
  -23.7520   -8.3490   22.1080 C   0  0  0  0  0  3  0  0  0  0  0  0
  -22.5750   -8.1100   21.3600 C   0  0  0  0  0  0  0  0  0  0  0  0
  -22.1620   -9.0610   20.4110 C   0  0  0  0  0  3  0  0  0  0  0  0
  -22.8920  -10.2460   20.2200 C   0  0  0  0  0  3  0  0  0  0  0  0
  -21.8150   -6.9700   21.4600 O   0  0  0  0  0  0  0  0  0  0  0  0
  -21.7570   -6.2430   22.6220 C   0  0  0  0  0  0  0  0  0  0  0  0
  -21.3030   -6.8080   23.8340 C   0  0  0  0  0  3  0  0  0  0  0  0
  -21.1950   -6.0040   24.9880 C   0  0  0  0  0  3  0  0  0  0  0  0
  -21.5310   -4.6370   24.9280 C   0  0  0  0  0  0  0  0  0  0  0  0
  -21.9780   -4.0740   23.7200 C   0  0  0  0  0  3  0  0  0  0  0  0
  -22.0860   -4.8740   22.5690 C   0  0  0  0  0  0  0  0  0  0  0  0
  -22.4960   -4.3200   21.4020 F   0  0  0  0  0  0  0  0  0  0  0  0
  -21.4190   -3.8630   26.0320 F   0  0  0  0  0  0  0  0  0  0  0  0
  -22.9320  -13.6040   21.1110 C   0  0  0  0  0  0  0  0  0  0  0  0
  -22.2110  -12.9110   21.9880 N   0  0  0  0  0  0  0  0  0  0  0  0
  -22.4920  -14.6330   20.6000 O   0  0  0  0  0  0  0  0  0  0  0  0
  -22.5740  -12.0770   22.4290 H   0  0  0  0  0  0  0  0  0  0  0  0
  -21.2780  -13.2190   22.2200 H   0  0  0  0  0  0  0  0  0  0  0  0
  -25.5570  -15.2570   20.2490 N   0  0  0  0  0  0  0  0  0  0  0  0
  -24.7980  -15.9160   20.3810 H   0  0  0  0  0  0  0  0  0  0  0  0
  -26.4110  -15.6970   19.9310 H   0  0  0  0  0  0  0  0  0  0  0  0
  -30.9460  -24.7070   20.4950 C   0  0  0  0  0  1  0  0  0  0  0  0
  -29.6410  -24.6460   19.6810 C   0  0  0  0  0  3  0  0  0  0  0  0
  -28.4680  -25.3070   20.4540 C   0  0  0  0  0  2  0  0  0  0  0  0
  -28.5280  -26.7410   20.2890 O   0  0  0  0  0  0  0  0  0  0  0  0
  -24.6310  -31.9270   23.2230 C   0  0  0  0  0  0  0  0  0  0  0  0
  -27.3420  -27.4530   20.2460 C   0  0  0  0  0  0  0  0  0  0  0  0
  -23.4590  -30.4980   21.5820 C   0  0  0  0  0  3  0  0  0  0  0  0
  -24.9430  -28.9620   20.1920 C   0  0  0  0  0  0  0  0  0  0  0  0
  -25.9870  -30.8690   21.4190 C   0  0  0  0  0  2  0  0  0  0  0  0
  -26.0890  -29.4920   20.7950 C   0  0  0  0  0  0  0  0  0  0  0  0
  -27.2910  -28.7480   20.8160 C   0  0  0  0  0  3  0  0  0  0  0  0
  -26.1780  -26.9520   19.6150 C   0  0  0  0  0  3  0  0  0  0  0  0
  -24.9840  -27.6920   19.5960 C   0  0  0  0  0  3  0  0  0  0  0  0
  -23.6920  -29.8110   20.2110 C   0  0  0  0  0  2  0  0  0  0  0  0
  -24.7100  -31.1140   22.1330 N   0  0  0  0  0  0  0  0  0  0  0  0
  -23.5410  -32.1980   23.7440 O   0  0  0  0  0  0  0  0  0  0  0  0
  -22.8050  -29.4800   22.5430 C   0  0  0  0  0  0  0  0  0  0  0  0
  -21.4880  -29.2690   22.3830 N   0  0  0  0  0  0  0  0  0  0  0  0
  -23.4780  -28.8820   23.3860 O   0  0  0  0  0  0  0  0  0  0  0  0
  -21.0060  -29.8020   21.6720 H   0  0  0  0  0  0  0  0  0  0  0  0
  -18.1250  -28.0210   22.8060 C   0  0  0  0  0  0  0  0  0  0  0  0
  -20.6670  -28.3320   23.1490 C   0  0  0  0  0  3  0  0  0  0  0  0
  -20.8140  -26.8930   22.6060 C   0  0  0  0  0  2  0  0  0  0  0  0
  -19.7490  -26.5280   21.5670 C   0  0  0  0  0  2  0  0  0  0  0  0
  -18.3470  -26.6620   22.1660 C   0  0  0  0  0  2  0  0  0  0  0  0
  -19.2160  -28.8120   23.2530 C   0  0  0  0  0  0  0  0  0  0  0  0
  -18.9570  -30.0840   23.8090 C   0  0  0  0  0  3  0  0  0  0  0  0
  -17.6400  -30.5650   23.9230 C   0  0  0  0  0  3  0  0  0  0  0  0
  -16.5620  -29.7710   23.4940 C   0  0  0  0  0  3  0  0  0  0  0  0
  -16.8050  -28.5010   22.9410 C   0  0  0  0  0  3  0  0  0  0  0  0
  -25.9040  -32.5730   23.8530 C   0  0  0  0  0  3  0  0  0  0  0  0
  -25.5780  -33.9700   24.1710 N   0  0  0  0  0  0  0  0  0  0  0  0
  -25.9050  -35.0200   23.4050 C   0  0  0  0  0  0  0  0  0  0  0  0
  -26.5850  -34.9170   22.3800 O   0  0  0  0  0  0  0  0  0  0  0  0
  -24.9710  -34.1230   24.9630 H   0  0  0  0  0  0  0  0  0  0  0  0
  -24.1600  -36.7890   23.0170 C   0  0  0  0  0  1  0  0  0  0  0  0
  -25.3940  -36.4050   23.8480 C   0  0  0  0  0  3  0  0  0  0  0  0
  -27.5050  -37.3170   24.7080 C   0  0  0  0  0  1  0  0  0  0  0  0
  -26.4160  -37.4690   23.7450 N   0  0  0  0  0  0  0  0  0  0  0  0
  -25.9970  -38.3850   23.8830 H   0  0  0  0  0  0  0  0  0  0  0  0
  -26.4160  -31.8140   25.1390 C   0  0  1  0  0  0  0  0  0  0  0  0
  -25.3140  -31.5680   26.1940 C   0  0  0  0  0  1  0  0  0  0  0  0
  -27.0210  -30.4430   24.7580 C   0  0  0  0  0  1  0  0  0  0  0  0
  -27.5490  -32.6270   25.8110 C   0  0  0  0  0  1  0  0  0  0  0  0
  -27.9700  -22.9890   18.8310 O   0  0  0  0  0  0  0  0  0  0  0  0
  -25.8770  -23.4340   17.7300 C   0  0  0  0  0  1  0  0  0  0  0  0
  -27.3950  -23.6030   17.6840 C   0  0  0  0  0  2  0  0  0  0  0  0
  1 92  1  0
  1 49  1  0
  3  6  1  0
  4  2  1  0
  5  3  1  0
  5  7  1  0
  6  8  1  0
  6  2  1  0
  7  1  1  0
  7  4  1  0
  8  9  1  0
 10 18  1  0
 11 16  1  0
 12 13  1  0
 12 11  1  0
 14 13  1  0
 14 23  1  0
 14 15  1  0
 16 10  1  0
 16 15  1  0
 17 10  2  0
 18 19  1  0
 18  9  1  0
 20 21  2  0
 21 40  1  0
 22 21  1  0
 22 25  1  0
 23 20  1  0
 23 24  1  0
 24 22  2  0
 25 26  1  0
 26 27  2  0
 28 31  1  0
 28 27  1  0
 29 28  2  0
 30 29  1  0
 30 25  2  0
 31 32  1  0
 32 33  1  0
 33 34  2  0
 35 34  1  0
 35 39  1  0
 36 35  2  0
 37 32  2  0
 37 36  1  0
 38 37  1  0
 40 41  1  0
 41 44  1  0
 41 43  1  0
 42 40  2  0
 45 46  1  0
 45 20  1  0
 47 45  1  0
 49 50  1  0
 49 48  1  0
 51 50  1  0
 52 63  2  0
 53 51  1  0
 53 58  1  0
 54 62  1  0
 54 64  1  0
 55 61  1  0
 55 57  1  0
 56 62  1  0
 57 58  2  0
 57 56  1  0
 59 53  2  0
 60 59  1  0
 60 55  2  0
 61 54  1  0
 62 52  1  0
 64 66  2  0
 65 64  1  0
 67 65  1  0
 68 77  2  0
 68 73  1  0
 69 65  1  0
 69 73  1  0
 70 69  1  0
 71 72  1  0
 71 70  1  0
 72 68  1  0
 73 74  2  0
 74 75  1  0
 76 75  2  0
 77 76  1  0
 78 52  1  0
 78 79  1  0
 78 88  1  0
 79 82  1  0
 80 84  1  0
 80 79  1  0
 81 80  2  0
 84 83  1  0
 86 84  1  0
 86 87  1  0
 86 85  1  0
 88 91  1  1
 88 89  1  0
 90 88  1  0
 94 93  1  0
 94 92  1  0
M  ISO  4  10 100  18 100  50 101  51 101
M  END
>  <TORSDO>  (8) 
F 23

>  <SCORE>  (8) 
-12.907

>  <name>  (8) 
7

>  <ligand_id>  (8) 
7

>  <original_smiles>  (8) 
[H]c1c([H])c([H])c2c(c1[H])C([H])([H])C([H])([H])C([H])([H])C2([H])N([H])C(=O)C1([H])N(C(=O)C([H])(N([H])C(=O)C([H])(N([H])C([H])([H])[H])C([H])([H])[H])C(C([H])([H])[H])(C([H])([H])[H])C([H])([H])[H])C([H])([H])c2c([H])c(OC([H])([H])C([H])(C([H])([H])[H])C([H])(OC([H])([H])C([H])([H])[H])C3([H])C([H])([H])C([H])([H])C([H])(C([H])([H])C([H])([H])N([H])C(=O)N4C([H])([H])C([H])([H])C([H])([H])C([H])(n5nc(-c6c([H])c([H])c(Oc7c([H])c([H])c(F)c([H])c7F)c([H])c6[H])c(C(=O)N([H])[H])c5N([H])[H])C4([H])[H])C([H])([H])C3([H])[H])c([H])c([H])c2C1([H])[H]

>  <smiles>  (8) 
[H]c1c([H])c([H])c2c(c1[H])C([H])([H])C([H])([H])C([H])([H])C2([H])N([H])C(=O)C1([H])N(C(=O)C([H])(N([H])C(=O)C([H])(N([H])C([H])([H])[H])C([H])([H])[H])C(C([H])([H])[H])(C([H])([H])[H])C([H])([H])[H])C([H])([H])c2c([H])c(OC([H])([H])C([H])(C([H])([H])[H])C([H])(OC([H])([H])C([H])([H])[H])C3([H])C([H])([H])C([H])([H])C([H])(C([H])([H])C([H])([H])N([H])C(=O)N4C([H])([H])C([H])([H])C([H])([H])C([H])(n5nc(-c6c([H])c([H])c(Oc7c([H])c([H])c(F)c([H])c7F)c([H])c6[H])c(C(=O)N([H])[H])c5N([H])[H])C4([H])[H])C([H])([H])C3([H])[H])c([H])c([H])c2C1([H])[H]

$$$$
8:0:0
     RDKit          3D

 91 99  0  0  1  0  0  0  0  0999 V2000
  -29.1430  -22.0110   21.2530 C   0  0  0  0  0  0  0  0  0  0  0  0
  -28.3140  -22.8660   20.4530 C   0  0  0  0  0  0  0  0  0  0  0  0
  -28.9480  -20.7330   20.7660 C   0  0  0  0  0  0  0  0  0  0  0  0
  -29.9670  -22.4590   22.4340 C   0  0  0  0  0  1  0  0  0  0  0  0
  -27.5420  -19.8960   18.7720 C   0  0  0  0  0  1  0  0  0  0  0  0
  -27.7390  -22.1790   19.4800 N   0  0  0  0  0  0  0  0  0  0  0  0
  -28.0990  -20.8860   19.6750 N   0  0  0  0  0  0  0  0  0  0  0  0
  -27.9380  -24.3320   20.6860 C   0  0  0  0  0  2  0  0  0  0  0  0
  -28.5780  -25.3870   19.7400 C   0  0  0  0  0  2  0  0  0  0  0  0
  -28.4710  -26.7540   20.2060 O   0  0  0  0  0  0  0  0  0  0  0  0
  -24.5860  -31.8980   23.2420 C   0  0  0  0  0  0  0  0  0  0  0  0
  -27.2720  -27.4490   20.1760 C   0  0  0  0  0  0  0  0  0  0  0  0
  -23.3910  -30.4850   21.5960 C   0  0  0  0  0  3  0  0  0  0  0  0
  -24.8580  -28.9510   20.1820 C   0  0  0  0  0  0  0  0  0  0  0  0
  -25.9140  -30.8590   21.4020 C   0  0  0  0  0  2  0  0  0  0  0  0
  -26.0130  -29.4830   20.7680 C   0  0  0  0  0  0  0  0  0  0  0  0
  -27.2190  -28.7420   20.7540 C   0  0  0  0  0  3  0  0  0  0  0  0
  -26.0940  -26.9320   19.5880 C   0  0  0  0  0  3  0  0  0  0  0  0
  -24.8980  -27.6760   19.5890 C   0  0  0  0  0  3  0  0  0  0  0  0
  -23.6090  -29.8020   20.2200 C   0  0  0  0  0  2  0  0  0  0  0  0
  -24.6490  -31.0990   22.1380 N   0  0  0  0  0  0  0  0  0  0  0  0
  -23.5010  -32.1630   23.7770 O   0  0  0  0  0  0  0  0  0  0  0  0
  -22.7440  -29.4630   22.5580 C   0  0  0  0  0  0  0  0  0  0  0  0
  -21.4200  -29.2790   22.4310 N   0  0  0  0  0  0  0  0  0  0  0  0
  -23.4300  -28.8400   23.3740 O   0  0  0  0  0  0  0  0  0  0  0  0
  -20.9290  -29.8410   21.7490 H   0  0  0  0  0  0  0  0  0  0  0  0
  -18.0450  -28.0840   22.9370 C   0  0  0  0  0  0  0  0  0  0  0  0
  -20.6040  -28.3360   23.1980 C   0  0  0  0  0  3  0  0  0  0  0  0
  -20.7000  -26.9080   22.6120 C   0  0  0  0  0  2  0  0  0  0  0  0
  -19.5940  -26.5930   21.6000 C   0  0  0  0  0  2  0  0  0  0  0  0
  -18.2140  -26.7400   22.2470 C   0  0  0  0  0  2  0  0  0  0  0  0
  -19.1680  -28.8400   23.3680 C   0  0  0  0  0  0  0  0  0  0  0  0
  -18.9580  -30.0980   23.9700 C   0  0  0  0  0  3  0  0  0  0  0  0
  -17.6560  -30.6030   24.1480 C   0  0  0  0  0  3  0  0  0  0  0  0
  -16.5490  -29.8420   23.7360 C   0  0  0  0  0  3  0  0  0  0  0  0
  -16.7420  -28.5860   23.1340 C   0  0  0  0  0  3  0  0  0  0  0  0
  -25.8650  -32.5370   23.8680 C   0  0  0  0  0  3  0  0  0  0  0  0
  -25.5530  -33.9370   24.1830 N   0  0  0  0  0  0  0  0  0  0  0  0
  -25.8880  -34.9850   23.4190 C   0  0  0  0  0  0  0  0  0  0  0  0
  -26.5730  -34.8790   22.3980 O   0  0  0  0  0  0  0  0  0  0  0  0
  -24.9620  -34.0980   24.9860 H   0  0  0  0  0  0  0  0  0  0  0  0
  -24.1660  -36.7730   23.0200 C   0  0  0  0  0  1  0  0  0  0  0  0
  -25.3870  -36.3740   23.8610 C   0  0  0  0  0  3  0  0  0  0  0  0
  -27.5120  -37.2570   24.7210 C   0  0  0  0  0  1  0  0  0  0  0  0
  -26.4160  -37.4340   23.7730 N   0  0  0  0  0  0  0  0  0  0  0  0
  -26.0000  -38.3470   23.9410 H   0  0  0  0  0  0  0  0  0  0  0  0
  -26.3750  -31.7790   25.1550 C   0  0  1  0  0  0  0  0  0  0  0  0
  -25.2740  -31.5480   26.2180 C   0  0  0  0  0  1  0  0  0  0  0  0
  -26.9660  -30.4010   24.7760 C   0  0  0  0  0  1  0  0  0  0  0  0
  -27.5180  -32.5840   25.8200 C   0  0  0  0  0  1  0  0  0  0  0  0
  -29.4550  -19.4040   21.3500 C   0  0  0  0  0  2  0  0  0  0  0  0
  -29.4280  -18.0780   20.5080 C   0  0  0  0  0  2  0  0  0  0  0  0
  -30.3170  -16.9420   21.1160 C   0  0  0  0  0  2  0  0  0  0  0  0
  -30.7850  -14.5800   20.2150 C   0  0  0  0  0  0  0  0  0  0  0  0
  -30.5520  -12.3970   19.0660 C   0  0  0  0  0  2  0  0  0  0  0  0
  -29.5740  -12.5650   17.8840 C   0  0  0  0  0  2  0  0  0  0  0  0
  -28.1060  -12.4300   18.3440 C   0  0  0  0  0  2  0  0  0  0  0  0
  -27.7900  -13.2690   19.6100 C   0  0  0  0  0  3  0  0  0  0  0  0
  -28.8670  -13.0370   20.6910 C   0  0  0  0  0  2  0  0  0  0  0  0
  -30.1690  -13.3720   20.0960 N   0  0  0  0  0  0  0  0  0  0  0  0
  -31.9280  -14.7930   19.7990 O   0  0  0  0  0  0  0  0  0  0  0  0
  -29.9850  -15.5630   20.6940 N   0  0  0  0  0  0  0  0  0  0  0  0
  -29.0520  -15.2520   20.9170 H   0  0  0  0  0  0  0  0  0  0  0  0
  -25.4150  -13.8960   20.3750 C   0  0  0  0  0  0  0  0  0  0  0  0
  -24.3480  -13.1300   20.7630 C   0  0  0  0  0  0  0  0  0  0  0  0
  -24.8010  -11.7770   20.7230 C   0  0  0  0  0  0  0  0  0  0  0  0
  -26.4470  -13.0070   20.1200 N   0  0  0  0  0  0  0  0  0  0  0  0
  -26.0840  -11.7270   20.3880 N   0  0  0  0  0  0  0  0  0  0  0  0
  -24.0710  -10.5190   20.9270 C   0  0  0  0  0  0  0  0  0  0  0  0
  -24.4940   -9.5640   21.8770 C   0  0  0  0  0  3  0  0  0  0  0  0
  -23.7660   -8.3710   22.0660 C   0  0  0  0  0  3  0  0  0  0  0  0
  -22.5990   -8.1230   21.3050 C   0  0  0  0  0  0  0  0  0  0  0  0
  -22.1940   -9.0670   20.3450 C   0  0  0  0  0  3  0  0  0  0  0  0
  -22.9240  -10.2520   20.1530 C   0  0  0  0  0  3  0  0  0  0  0  0
  -21.8420   -6.9820   21.4040 O   0  0  0  0  0  0  0  0  0  0  0  0
  -21.7600   -6.2700   22.5740 C   0  0  0  0  0  0  0  0  0  0  0  0
  -21.2800   -6.8530   23.7670 C   0  0  0  0  0  3  0  0  0  0  0  0
  -21.1470   -6.0670   24.9290 C   0  0  0  0  0  3  0  0  0  0  0  0
  -21.4840   -4.6990   24.8980 C   0  0  0  0  0  0  0  0  0  0  0  0
  -21.9540   -4.1180   23.7100 C   0  0  0  0  0  3  0  0  0  0  0  0
  -22.0910   -4.9000   22.5490 C   0  0  0  0  0  0  0  0  0  0  0  0
  -22.5250   -4.3290   21.3990 F   0  0  0  0  0  0  0  0  0  0  0  0
  -21.3500   -3.9430   26.0140 F   0  0  0  0  0  0  0  0  0  0  0  0
  -22.9590  -13.6170   21.0630 C   0  0  0  0  0  0  0  0  0  0  0  0
  -22.2420  -12.9200   21.9360 N   0  0  0  0  0  0  0  0  0  0  0  0
  -22.5180  -14.6480   20.5560 O   0  0  0  0  0  0  0  0  0  0  0  0
  -22.6080  -12.0840   22.3670 H   0  0  0  0  0  0  0  0  0  0  0  0
  -21.3090  -13.2250   22.1780 H   0  0  0  0  0  0  0  0  0  0  0  0
  -25.5820  -15.2670   20.1970 N   0  0  0  0  0  0  0  0  0  0  0  0
  -24.8190  -15.9210   20.3200 H   0  0  0  0  0  0  0  0  0  0  0  0
  -26.4210  -15.7040   19.8410 H   0  0  0  0  0  0  0  0  0  0  0  0
  1  4  1  0
  2  8  1  0
  2  1  1  0
  3  1  2  0
  3 51  1  0
  5  7  1  0
  6  7  1  0
  6  2  2  0
  7  3  1  0
  9 10  1  0
  9  8  1  0
 11 22  2  0
 12 10  1  0
 12 17  1  0
 13 21  1  0
 13 23  1  0
 14 20  1  0
 14 16  1  0
 15 21  1  0
 16 15  1  0
 17 16  2  0
 18 19  1  0
 18 12  2  0
 19 14  2  0
 20 13  1  0
 21 11  1  0
 23 25  2  0
 24 23  1  0
 26 24  1  0
 27 36  2  0
 27 32  1  0
 28 24  1  0
 28 32  1  0
 29 28  1  0
 30 31  1  0
 30 29  1  0
 31 27  1  0
 32 33  2  0
 33 34  1  0
 35 34  2  0
 36 35  1  0
 37 11  1  0
 37 38  1  0
 37 47  1  0
 38 41  1  0
 39 43  1  0
 39 38  1  0
 40 39  2  0
 43 42  1  0
 45 43  1  0
 45 46  1  0
 45 44  1  0
 47 50  1  1
 47 48  1  0
 49 47  1  0
 52 53  1  0
 52 51  1  0
 54 62  1  0
 55 60  1  0
 56 57  1  0
 56 55  1  0
 58 57  1  0
 58 67  1  0
 58 59  1  0
 60 54  1  0
 60 59  1  0
 61 54  2  0
 62 63  1  0
 62 53  1  0
 64 65  2  0
 65 84  1  0
 66 65  1  0
 66 69  1  0
 67 64  1  0
 67 68  1  0
 68 66  2  0
 69 70  1  0
 70 71  2  0
 72 75  1  0
 72 71  1  0
 73 72  2  0
 74 73  1  0
 74 69  2  0
 75 76  1  0
 76 77  1  0
 77 78  2  0
 79 78  1  0
 79 83  1  0
 80 79  2  0
 81 76  2  0
 81 80  1  0
 82 81  1  0
 84 85  1  0
 85 88  1  0
 85 87  1  0
 86 84  2  0
 89 90  1  0
 89 64  1  0
 91 89  1  0
M  ISO  4   9 101  10 101  54 100  62 100
M  END
>  <TORSDO>  (9) 
F 21

>  <SCORE>  (9) 
-13.408

>  <name>  (9) 
8

>  <ligand_id>  (9) 
8

>  <original_smiles>  (9) 
[H]c1c([H])c([H])c2c(c1[H])C([H])([H])C([H])([H])C([H])([H])C2([H])N([H])C(=O)C1([H])N(C(=O)C([H])(N([H])C(=O)C([H])(N([H])C([H])([H])[H])C([H])([H])[H])C(C([H])([H])[H])(C([H])([H])[H])C([H])([H])[H])C([H])([H])c2c([H])c(OC([H])([H])C([H])([H])c3nn(C([H])([H])[H])c(C([H])([H])C([H])([H])C([H])([H])N([H])C(=O)N4C([H])([H])C([H])([H])C([H])([H])C([H])(n5nc(-c6c([H])c([H])c(Oc7c([H])c([H])c(F)c([H])c7F)c([H])c6[H])c(C(=O)N([H])[H])c5N([H])[H])C4([H])[H])c3C([H])([H])[H])c([H])c([H])c2C1([H])[H]

>  <smiles>  (9) 
[H]c1c([H])c([H])c2c(c1[H])C([H])([H])C([H])([H])C([H])([H])C2([H])N([H])C(=O)C1([H])N(C(=O)C([H])(N([H])C(=O)C([H])(N([H])C([H])([H])[H])C([H])([H])[H])C(C([H])([H])[H])(C([H])([H])[H])C([H])([H])[H])C([H])([H])c2c([H])c(OC([H])([H])C([H])([H])c3nn(C([H])([H])[H])c(C([H])([H])C([H])([H])C([H])([H])N([H])C(=O)N4C([H])([H])C([H])([H])C([H])([H])C([H])(n5nc(-c6c([H])c([H])c(Oc7c([H])c([H])c(F)c([H])c7F)c([H])c6[H])c(C(=O)N([H])[H])c5N([H])[H])C4([H])[H])c3C([H])([H])[H])c([H])c([H])c2C1([H])[H]

$$$$
9:0:0
     RDKit          3D

 87 95  0  0  1  0  0  0  0  0999 V2000
  -28.0620  -19.7340   20.2140 C   0  0  0  0  0  3  0  0  0  0  0  0
  -29.9400  -20.6890   20.4030 C   0  0  0  0  0  3  0  0  0  0  0  0
  -29.4480  -19.3510   20.3450 C   0  0  0  0  0  0  0  0  0  0  0  0
  -27.7940  -21.0770   20.2110 N   0  0  0  0  0  0  0  0  0  0  0  0
  -28.9670  -21.7650   20.3150 N   0  0  0  0  0  0  0  0  0  0  0  0
  -30.2690  -17.8710   20.3930 C   0  0  0  0  0  2  0  0  0  0  0  0
  -30.5390  -15.1210   20.3030 C   0  0  0  0  0  0  0  0  0  0  0  0
  -30.4150  -12.7670   19.3400 C   0  0  0  0  0  2  0  0  0  0  0  0
  -29.4660  -12.7030   18.1210 C   0  0  0  0  0  2  0  0  0  0  0  0
  -28.0120  -12.4740   18.5750 C   0  0  0  0  0  2  0  0  0  0  0  0
  -27.6130  -13.3840   19.7670 C   0  0  0  0  0  3  0  0  0  0  0  0
  -28.6880  -13.4150   20.8740 C   0  0  0  0  0  2  0  0  0  0  0  0
  -29.9350  -13.8590   20.2390 N   0  0  0  0  0  0  0  0  0  0  0  0
  -31.7440  -15.1560   20.0310 O   0  0  0  0  0  0  0  0  0  0  0  0
  -29.7960  -16.3430   20.4550 N   0  0  0  0  0  0  0  0  0  0  0  0
  -28.8110  -16.2090   20.6230 H   0  0  0  0  0  0  0  0  0  0  0  0
  -25.2450  -13.9260   20.5620 C   0  0  0  0  0  0  0  0  0  0  0  0
  -24.1950  -13.1370   20.9370 C   0  0  0  0  0  0  0  0  0  0  0  0
  -24.6700  -11.7900   20.8780 C   0  0  0  0  0  0  0  0  0  0  0  0
  -26.2910  -13.0610   20.2880 N   0  0  0  0  0  0  0  0  0  0  0  0
  -25.9570  -11.7700   20.5470 N   0  0  0  0  0  0  0  0  0  0  0  0
  -23.9550  -10.5190   21.0560 C   0  0  0  0  0  0  0  0  0  0  0  0
  -24.3920   -9.5490   21.9840 C   0  0  0  0  0  3  0  0  0  0  0  0
  -23.6740   -8.3450   22.1530 C   0  0  0  0  0  3  0  0  0  0  0  0
  -22.5050   -8.1030   21.3930 C   0  0  0  0  0  0  0  0  0  0  0  0
  -22.0880   -9.0620   20.4530 C   0  0  0  0  0  3  0  0  0  0  0  0
  -22.8070  -10.2570   20.2830 C   0  0  0  0  0  3  0  0  0  0  0  0
  -21.7580   -6.9530   21.4730 O   0  0  0  0  0  0  0  0  0  0  0  0
  -21.6860   -6.2200   22.6300 C   0  0  0  0  0  0  0  0  0  0  0  0
  -21.1730   -6.7660   23.8270 C   0  0  0  0  0  3  0  0  0  0  0  0
  -21.0510   -5.9570   24.9740 C   0  0  0  0  0  3  0  0  0  0  0  0
  -21.4320   -4.6030   24.9260 C   0  0  0  0  0  0  0  0  0  0  0  0
  -21.9360   -4.0550   23.7320 C   0  0  0  0  0  3  0  0  0  0  0  0
  -22.0600   -4.8620   22.5870 C   0  0  0  0  0  0  0  0  0  0  0  0
  -22.5280   -4.3230   21.4350 F   0  0  0  0  0  0  0  0  0  0  0  0
  -21.3070   -3.8230   26.0240 F   0  0  0  0  0  0  0  0  0  0  0  0
  -22.7980  -13.5990   21.2340 C   0  0  0  0  0  0  0  0  0  0  0  0
  -22.0890  -12.8880   22.1040 N   0  0  0  0  0  0  0  0  0  0  0  0
  -22.3470  -14.6270   20.7330 O   0  0  0  0  0  0  0  0  0  0  0  0
  -22.4680  -12.0580   22.5340 H   0  0  0  0  0  0  0  0  0  0  0  0
  -21.1510  -13.1800   22.3440 H   0  0  0  0  0  0  0  0  0  0  0  0
  -25.3910  -15.3010   20.4020 N   0  0  0  0  0  0  0  0  0  0  0  0
  -24.6100  -15.9360   20.5260 H   0  0  0  0  0  0  0  0  0  0  0  0
  -26.2120  -15.7530   20.0210 H   0  0  0  0  0  0  0  0  0  0  0  0
  -29.1110  -23.3690   20.4360 C   0  0  0  0  0  3  0  0  0  0  0  0
  -28.0120  -24.6350   20.1060 C   0  0  0  0  0  3  0  0  0  0  0  0
  -28.2480  -26.1870   20.2990 O   0  0  0  0  0  0  0  0  0  0  0  0
  -24.6290  -31.9250   23.2790 C   0  0  0  0  0  0  0  0  0  0  0  0
  -27.1970  -27.1880   20.2350 C   0  0  0  0  0  0  0  0  0  0  0  0
  -23.4270  -30.5320   21.6390 C   0  0  0  0  0  3  0  0  0  0  0  0
  -24.8720  -28.9560   20.2080 C   0  0  0  0  0  0  0  0  0  0  0  0
  -25.9830  -30.7900   21.4730 C   0  0  0  0  0  2  0  0  0  0  0  0
  -26.0550  -29.3950   20.8150 C   0  0  0  0  0  0  0  0  0  0  0  0
  -27.2160  -28.5290   20.8100 C   0  0  0  0  0  3  0  0  0  0  0  0
  -25.9860  -26.8570   19.5890 C   0  0  0  0  0  3  0  0  0  0  0  0
  -24.8530  -27.7010   19.5780 C   0  0  0  0  0  3  0  0  0  0  0  0
  -23.6470  -29.8580   20.2590 C   0  0  0  0  0  2  0  0  0  0  0  0
  -24.7000  -31.1050   22.1850 N   0  0  0  0  0  0  0  0  0  0  0  0
  -23.5440  -32.2090   23.8080 O   0  0  0  0  0  0  0  0  0  0  0  0
  -22.7500  -29.5240   22.6020 C   0  0  0  0  0  0  0  0  0  0  0  0
  -21.4260  -29.3340   22.4610 N   0  0  0  0  0  0  0  0  0  0  0  0
  -23.4200  -28.9140   23.4400 O   0  0  0  0  0  0  0  0  0  0  0  0
  -20.9410  -29.8760   21.7600 H   0  0  0  0  0  0  0  0  0  0  0  0
  -18.0550  -28.0880   22.9350 C   0  0  0  0  0  0  0  0  0  0  0  0
  -20.6070  -28.3920   23.2310 C   0  0  0  0  0  3  0  0  0  0  0  0
  -20.7370  -26.9560   22.6700 C   0  0  0  0  0  2  0  0  0  0  0  0
  -19.6510  -26.6080   21.6460 C   0  0  0  0  0  2  0  0  0  0  0  0
  -18.2610  -26.7370   22.2710 C   0  0  0  0  0  2  0  0  0  0  0  0
  -19.1570  -28.8720   23.3720 C   0  0  0  0  0  0  0  0  0  0  0  0
  -18.9100  -30.1340   23.9530 C   0  0  0  0  0  3  0  0  0  0  0  0
  -17.5950  -30.6140   24.1030 C   0  0  0  0  0  3  0  0  0  0  0  0
  -16.5080  -29.8290   23.6810 C   0  0  0  0  0  3  0  0  0  0  0  0
  -16.7390  -28.5680   23.1030 C   0  0  0  0  0  3  0  0  0  0  0  0
  -25.9070  -32.5610   23.9060 C   0  0  0  0  0  3  0  0  0  0  0  0
  -26.4140  -31.7950   25.1910 C   0  0  1  0  0  0  0  0  0  0  0  0
  -25.3120  -31.5610   26.2510 C   0  0  0  0  0  1  0  0  0  0  0  0
  -27.0030  -30.4170   24.8140 C   0  0  0  0  0  1  0  0  0  0  0  0
  -27.5580  -32.5940   25.8580 C   0  0  0  0  0  1  0  0  0  0  0  0
  -25.5950  -33.9610   24.2360 N   0  0  0  0  0  0  0  0  0  0  0  0
  -25.9050  -35.0150   23.4700 C   0  0  0  0  0  0  0  0  0  0  0  0
  -26.5490  -34.9120   22.4230 O   0  0  0  0  0  0  0  0  0  0  0  0
  -25.0170  -34.1140   25.0500 H   0  0  0  0  0  0  0  0  0  0  0  0
  -24.1570  -36.8020   23.1670 C   0  0  0  0  0  1  0  0  0  0  0  0
  -25.4260  -36.4040   23.9380 C   0  0  0  0  0  3  0  0  0  0  0  0
  -27.5760  -37.3140   24.7020 C   0  0  0  0  0  1  0  0  0  0  0  0
  -26.4490  -37.4630   23.7850 N   0  0  0  0  0  0  0  0  0  0  0  0
  -26.0420  -38.3810   23.9290 H   0  0  0  0  0  0  0  0  0  0  0  0
  1  3  1  0
  3  6  1  0
  3  2  2  0
  4  1  2  0
  4  5  1  0
  5  2  1  0
  5 45  1  0
  6 15  1  0
  7 15  1  0
  8 13  1  0
  9 10  1  0
  9  8  1  0
 11 10  1  0
 11 20  1  0
 11 12  1  0
 13  7  1  0
 13 12  1  0
 14  7  2  0
 15 16  1  0
 17 18  2  0
 18 37  1  0
 19 18  1  0
 19 22  1  0
 20 21  1  0
 20 17  1  0
 21 19  2  0
 22 23  1  0
 23 24  2  0
 25 28  1  0
 25 24  1  0
 26 25  2  0
 27 26  1  0
 27 22  2  0
 28 29  1  0
 29 30  1  0
 30 31  2  0
 32 31  1  0
 32 36  1  0
 33 32  2  0
 34 29  2  0
 34 33  1  0
 35 34  1  0
 37 38  1  0
 38 41  1  0
 38 40  1  0
 39 37  2  0
 42 43  1  0
 42 17  1  0
 44 42  1  0
 46 47  1  0
 46 45  2  0
 48 59  2  0
 49 47  1  0
 49 54  1  0
 50 58  1  0
 50 60  1  0
 51 57  1  0
 51 53  1  0
 52 58  1  0
 53 52  1  0
 54 53  2  0
 55 49  2  0
 56 55  1  0
 56 51  2  0
 57 50  1  0
 58 48  1  0
 60 62  2  0
 61 60  1  0
 63 61  1  0
 64 73  2  0
 64 69  1  0
 65 61  1  0
 65 69  1  0
 66 65  1  0
 67 68  1  0
 67 66  1  0
 68 64  1  0
 69 70  2  0
 70 71  1  0
 72 71  2  0
 73 72  1  0
 74 48  1  0
 74 79  1  0
 74 75  1  0
 75 78  1  1
 75 76  1  0
 77 75  1  0
 79 82  1  0
 80 84  1  0
 80 79  1  0
 81 80  2  0
 84 83  1  0
 86 87  1  0
 86 84  1  0
 86 85  1  0
M  ISO  4   7 100  15 100  46 101  47 101
M  END
>  <TORSDO>  (10) 
F 19

>  <SCORE>  (10) 
-14.863

>  <name>  (10) 
9

>  <ligand_id>  (10) 
9

>  <original_smiles>  (10) 
[H]c1nn(C([H])([H])C([H])([H])Oc2c([H])c([H])c3c(c2[H])C([H])([H])N(C(=O)C([H])(N([H])C(=O)C([H])(N([H])C([H])([H])[H])C([H])([H])[H])C(C([H])([H])[H])(C([H])([H])[H])C([H])([H])[H])C([H])(C(=O)N([H])C2([H])c4c([H])c([H])c([H])c([H])c4C([H])([H])C([H])([H])C2([H])[H])C3([H])[H])c([H])c1C([H])([H])N([H])C(=O)N1C([H])([H])C([H])([H])C([H])([H])C([H])(n2nc(-c3c([H])c([H])c(Oc4c([H])c([H])c(F)c([H])c4F)c([H])c3[H])c(C(=O)N([H])[H])c2N([H])[H])C1([H])[H]

>  <smiles>  (10) 
[H]c1nn(C([H])([H])C([H])([H])Oc2c([H])c([H])c3c(c2[H])C([H])([H])N(C(=O)C([H])(N([H])C(=O)C([H])(N([H])C([H])([H])[H])C([H])([H])[H])C(C([H])([H])[H])(C([H])([H])[H])C([H])([H])[H])C([H])(C(=O)N([H])C2([H])c4c([H])c([H])c([H])c([H])c4C([H])([H])C([H])([H])C2([H])[H])C3([H])[H])c([H])c1C([H])([H])N([H])C(=O)N1C([H])([H])C([H])([H])C([H])([H])C([H])(n2nc(-c3c([H])c([H])c(Oc4c([H])c([H])c(F)c([H])c4F)c([H])c3[H])c(C(=O)N([H])[H])c2N([H])[H])C1([H])[H]

$$$$
10:0:0
     RDKit          3D

 94102  0  0  1  0  0  0  0  0999 V2000
  -31.8900  -22.6300   19.8640 C   0  0  0  0  0  3  0  0  0  0  0  0
  -31.5520  -21.2650   19.9130 C   0  0  0  0  0  0  0  0  0  0  0  0
  -30.9140  -23.6120   20.1040 C   0  0  0  0  0  0  0  0  0  0  0  0
  -30.2360  -20.8960   20.3100 C   0  0  0  0  0  0  0  0  0  0  0  0
  -29.5750  -23.1970   20.2860 C   0  0  0  0  0  0  0  0  0  0  0  0
  -32.6480  -20.2850   19.5190 C   0  0  0  0  0  1  0  0  0  0  0  0
  -29.2700  -21.8660   20.4220 N   0  0  0  0  0  0  0  0  0  0  0  0
  -31.3450  -25.0750   20.1750 C   0  0  0  0  0  2  0  0  0  0  0  0
  -31.4210  -27.1620   21.6560 C   0  0  0  0  0  1  0  0  0  0  0  0
  -31.1990  -25.6450   21.5970 C   0  0  0  0  0  2  0  0  0  0  0  0
  -29.7840  -19.4320   20.6570 C   0  0  0  0  0  2  0  0  0  0  0  0
  -30.8710  -18.3220   20.9640 C   0  0  0  0  0  2  0  0  0  0  0  0
  -30.5080  -17.0660   21.8400 C   0  0  0  0  0  2  0  0  0  0  0  0
  -30.9190  -14.7510   20.7770 C   0  0  0  0  0  0  0  0  0  0  0  0
  -30.7080  -12.5740   19.5990 C   0  0  0  0  0  2  0  0  0  0  0  0
  -29.8110  -12.7570   18.3570 C   0  0  0  0  0  2  0  0  0  0  0  0
  -28.3180  -12.6130   18.7230 C   0  0  0  0  0  2  0  0  0  0  0  0
  -27.9250  -13.4400   19.9780 C   0  0  0  0  0  3  0  0  0  0  0  0
  -28.9400  -13.2280   21.1220 C   0  0  0  0  0  2  0  0  0  0  0  0
  -30.2740  -13.5630   20.5980 N   0  0  0  0  0  0  0  0  0  0  0  0
  -32.0980  -14.9220   20.4600 O   0  0  0  0  0  0  0  0  0  0  0  0
  -30.1350  -15.7810   21.1900 N   0  0  0  0  0  0  0  0  0  0  0  0
  -29.1590  -15.5360   21.2690 H   0  0  0  0  0  0  0  0  0  0  0  0
  -25.5140  -14.0470   20.6350 C   0  0  0  0  0  0  0  0  0  0  0  0
  -24.4290  -13.2740   20.9460 C   0  0  0  0  0  0  0  0  0  0  0  0
  -24.8790  -11.9200   20.8900 C   0  0  0  0  0  0  0  0  0  0  0  0
  -26.5580  -13.1620   20.4090 N   0  0  0  0  0  0  0  0  0  0  0  0
  -26.1790  -11.8760   20.6230 N   0  0  0  0  0  0  0  0  0  0  0  0
  -24.1350  -10.6600   21.0180 C   0  0  0  0  0  0  0  0  0  0  0  0
  -24.5370   -9.6520   21.9230 C   0  0  0  0  0  3  0  0  0  0  0  0
  -23.7950   -8.4560   22.0390 C   0  0  0  0  0  3  0  0  0  0  0  0
  -22.6370   -8.2610   21.2500 C   0  0  0  0  0  0  0  0  0  0  0  0
  -22.2540   -9.2580   20.3360 C   0  0  0  0  0  3  0  0  0  0  0  0
  -22.9980  -10.4440   20.2160 C   0  0  0  0  0  3  0  0  0  0  0  0
  -21.8670   -7.1240   21.2790 O   0  0  0  0  0  0  0  0  0  0  0  0
  -21.7840   -6.3400   22.4020 C   0  0  0  0  0  0  0  0  0  0  0  0
  -21.3210   -6.8490   23.6350 C   0  0  0  0  0  3  0  0  0  0  0  0
  -21.1840   -5.9910   24.7450 C   0  0  0  0  0  3  0  0  0  0  0  0
  -21.5000   -4.6260   24.6230 C   0  0  0  0  0  0  0  0  0  0  0  0
  -21.9560   -4.1150   23.3940 C   0  0  0  0  0  3  0  0  0  0  0  0
  -22.0940   -4.9690   22.2870 C   0  0  0  0  0  0  0  0  0  0  0  0
  -22.5130   -4.4680   21.0990 F   0  0  0  0  0  0  0  0  0  0  0  0
  -21.3620   -3.7990   25.6860 F   0  0  0  0  0  0  0  0  0  0  0  0
  -23.0260  -13.7560   21.1830 C   0  0  0  0  0  0  0  0  0  0  0  0
  -22.2660  -13.0490   22.0100 N   0  0  0  0  0  0  0  0  0  0  0  0
  -22.6130  -14.7960   20.6700 O   0  0  0  0  0  0  0  0  0  0  0  0
  -22.6120  -12.2080   22.4470 H   0  0  0  0  0  0  0  0  0  0  0  0
  -21.3210  -13.3500   22.2060 H   0  0  0  0  0  0  0  0  0  0  0  0
  -25.6960  -15.4210   20.5010 N   0  0  0  0  0  0  0  0  0  0  0  0
  -24.9330  -16.0800   20.6100 H   0  0  0  0  0  0  0  0  0  0  0  0
  -26.5500  -15.8620   20.1820 H   0  0  0  0  0  0  0  0  0  0  0  0
  -28.4400  -24.2550   20.3820 C   0  0  0  0  0  2  0  0  0  0  0  0
  -28.2450  -25.1840   19.1310 C   0  0  0  0  0  2  0  0  0  0  0  0
  -28.2120  -26.6130   19.4260 O   0  0  0  0  0  0  0  0  0  0  0  0
  -24.6100  -31.6050   23.0480 C   0  0  0  0  0  0  0  0  0  0  0  0
  -27.0360  -27.3530   19.5010 C   0  0  0  0  0  0  0  0  0  0  0  0
  -23.3130  -30.3670   21.3470 C   0  0  0  0  0  3  0  0  0  0  0  0
  -24.6760  -28.9300   19.7360 C   0  0  0  0  0  0  0  0  0  0  0  0
  -25.8380  -30.6930   21.0700 C   0  0  0  0  0  2  0  0  0  0  0  0
  -25.8690  -29.3750   20.3160 C   0  0  0  0  0  0  0  0  0  0  0  0
  -27.0470  -28.5950   20.1910 C   0  0  0  0  0  3  0  0  0  0  0  0
  -25.8150  -26.9350   18.9200 C   0  0  0  0  0  3  0  0  0  0  0  0
  -24.6470  -27.7150   19.0340 C   0  0  0  0  0  3  0  0  0  0  0  0
  -23.4540  -29.8050   19.9070 C   0  0  0  0  0  2  0  0  0  0  0  0
  -24.6090  -30.8990   21.8800 N   0  0  0  0  0  0  0  0  0  0  0  0
  -23.5570  -31.8450   23.6540 O   0  0  0  0  0  0  0  0  0  0  0  0
  -22.6810  -29.2780   22.2430 C   0  0  0  0  0  0  0  0  0  0  0  0
  -21.3470  -29.1330   22.1660 N   0  0  0  0  0  0  0  0  0  0  0  0
  -23.3850  -28.5670   22.9660 O   0  0  0  0  0  0  0  0  0  0  0  0
  -20.8400  -29.7600   21.5560 H   0  0  0  0  0  0  0  0  0  0  0  0
  -17.9720  -27.9650   22.7210 C   0  0  0  0  0  0  0  0  0  0  0  0
  -20.5460  -28.1450   22.8870 C   0  0  0  0  0  3  0  0  0  0  0  0
  -20.5840  -26.7710   22.1790 C   0  0  0  0  0  2  0  0  0  0  0  0
  -19.4280  -26.5650   21.1970 C   0  0  0  0  0  2  0  0  0  0  0  0
  -18.0830  -26.6780   21.9200 C   0  0  0  0  0  2  0  0  0  0  0  0
  -19.1280  -28.6620   23.1630 C   0  0  0  0  0  0  0  0  0  0  0  0
  -18.9690  -29.8700   23.8750 C   0  0  0  0  0  3  0  0  0  0  0  0
  -17.6870  -30.3800   24.1480 C   0  0  0  0  0  3  0  0  0  0  0  0
  -16.5450  -29.6800   23.7210 C   0  0  0  0  0  3  0  0  0  0  0  0
  -16.6890  -28.4730   23.0140 C   0  0  0  0  0  3  0  0  0  0  0  0
  -25.9300  -32.1620   23.6650 C   0  0  0  0  0  3  0  0  0  0  0  0
  -25.6520  -33.5200   24.1530 N   0  0  0  0  0  0  0  0  0  0  0  0
  -26.0130  -34.6440   23.5210 C   0  0  0  0  0  0  0  0  0  0  0  0
  -26.6850  -34.6430   22.4850 O   0  0  0  0  0  0  0  0  0  0  0  0
  -25.0590  -33.5970   24.9680 H   0  0  0  0  0  0  0  0  0  0  0  0
  -24.3400  -36.5150   23.3510 C   0  0  0  0  0  1  0  0  0  0  0  0
  -25.5550  -35.9830   24.1290 C   0  0  0  0  0  3  0  0  0  0  0  0
  -27.6960  -36.7040   25.0930 C   0  0  0  0  0  1  0  0  0  0  0  0
  -26.6180  -37.0110   24.1560 N   0  0  0  0  0  0  0  0  0  0  0  0
  -26.2350  -37.9210   24.4010 H   0  0  0  0  0  0  0  0  0  0  0  0
  -26.5020  -31.2580   24.8250 C   0  0  1  0  0  0  0  0  0  0  0  0
  -25.4640  -30.9250   25.9220 C   0  0  0  0  0  1  0  0  0  0  0  0
  -27.0390  -29.9230   24.2600 C   0  0  0  0  0  1  0  0  0  0  0  0
  -27.7010  -31.9660   25.4990 C   0  0  0  0  0  1  0  0  0  0  0  0
  1  2  2  0
  1  3  1  0
  2  4  1  0
  3  8  1  0
  3  5  2  0
  4  7  2  0
  4 11  1  0
  5 52  1  0
  5  7  1  0
  6  2  1  0
  8 10  1  0
 10  9  1  0
 11 12  1  0
 12 13  1  0
 14 22  1  0
 15 20  1  0
 16 17  1  0
 16 15  1  0
 18 17  1  0
 18 27  1  0
 18 19  1  0
 20 14  1  0
 20 19  1  0
 21 14  2  0
 22 23  1  0
 22 13  1  0
 24 25  2  0
 25 44  1  0
 26 25  1  0
 26 29  1  0
 27 28  1  0
 27 24  1  0
 28 26  2  0
 29 30  1  0
 30 31  2  0
 32 35  1  0
 32 31  1  0
 33 32  2  0
 34 33  1  0
 34 29  2  0
 35 36  1  0
 36 37  1  0
 37 38  2  0
 39 38  1  0
 39 43  1  0
 40 39  2  0
 41 36  2  0
 41 40  1  0
 42 41  1  0
 44 45  1  0
 45 48  1  0
 45 47  1  0
 46 44  2  0
 49 50  1  0
 49 24  1  0
 51 49  1  0
 53 54  1  0
 53 52  1  0
 54 56  1  0
 55 66  2  0
 56 61  1  0
 57 65  1  0
 57 67  1  0
 58 64  1  0
 58 60  1  0
 59 65  1  0
 60 59  1  0
 61 60  2  0
 62 63  1  0
 62 56  2  0
 63 58  2  0
 64 57  1  0
 65 55  1  0
 67 69  2  0
 68 67  1  0
 70 68  1  0
 71 80  2  0
 71 76  1  0
 72 68  1  0
 72 76  1  0
 73 72  1  0
 74 75  1  0
 74 73  1  0
 75 71  1  0
 76 77  2  0
 77 78  1  0
 79 78  2  0
 80 79  1  0
 81 55  1  0
 81 82  1  0
 81 91  1  0
 82 85  1  0
 83 87  1  0
 83 82  1  0
 84 83  2  0
 87 86  1  0
 87 89  1  0
 89 90  1  0
 89 88  1  0
 91 94  1  1
 91 92  1  0
 93 91  1  0
M  ISO  4  14 100  22 100  53 101  54 101
M  END
>  <TORSDO>  (11) 
F 23

>  <SCORE>  (11) 
-12.193

>  <name>  (11) 
10

>  <ligand_id>  (11) 
10

>  <original_smiles>  (11) 
[H]c1c([H])c([H])c2c(c1[H])C([H])([H])C([H])([H])C([H])([H])C2([H])N([H])C(=O)C1([H])N(C(=O)C([H])(N([H])C(=O)C([H])(N([H])C([H])([H])[H])C([H])([H])[H])C(C([H])([H])[H])(C([H])([H])[H])C([H])([H])[H])C([H])([H])c2c([H])c(OC([H])([H])C([H])([H])c3nc(C([H])([H])C([H])([H])C([H])([H])N([H])C(=O)N4C([H])([H])C([H])([H])C([H])([H])C([H])(n5nc(-c6c([H])c([H])c(Oc7c([H])c([H])c(F)c([H])c7F)c([H])c6[H])c(C(=O)N([H])[H])c5N([H])[H])C4([H])[H])c(C([H])([H])[H])c([H])c3C([H])([H])C([H])([H])C([H])([H])[H])c([H])c([H])c2C1([H])[H]

>  <smiles>  (11) 
[H]c1c([H])c([H])c2c(c1[H])C([H])([H])C([H])([H])C([H])([H])C2([H])N([H])C(=O)C1([H])N(C(=O)C([H])(N([H])C(=O)C([H])(N([H])C([H])([H])[H])C([H])([H])[H])C(C([H])([H])[H])(C([H])([H])[H])C([H])([H])[H])C([H])([H])c2c([H])c(OC([H])([H])C([H])([H])c3nc(C([H])([H])C([H])([H])C([H])([H])N([H])C(=O)N4C([H])([H])C([H])([H])C([H])([H])C([H])(n5nc(-c6c([H])c([H])c(Oc7c([H])c([H])c(F)c([H])c7F)c([H])c6[H])c(C(=O)N([H])[H])c5N([H])[H])C4([H])[H])c(C([H])([H])[H])c([H])c3C([H])([H])C([H])([H])C([H])([H])[H])c([H])c([H])c2C1([H])[H]

$$$$
11:0:0
     RDKit          3D

 89 97  0  0  1  0  0  0  0  0999 V2000
  -30.4530  -21.9310   21.1100 C   0  0  0  0  0  3  0  0  0  0  0  0
  -29.1800  -21.7710   20.5230 C   0  0  0  0  0  0  0  0  0  0  0  0
  -30.9540  -19.6270   21.0590 C   0  0  0  0  0  0  0  0  0  0  0  0
  -29.7210  -19.2790   20.4460 C   0  0  0  0  0  0  0  0  0  0  0  0
  -32.0160  -18.5830   21.3540 C   0  0  0  0  0  1  0  0  0  0  0  0
  -31.3010  -20.9040   21.3770 N   0  0  0  0  0  0  0  0  0  0  0  0
  -28.8440  -20.4030   20.1940 N   0  0  0  0  0  0  0  0  0  0  0  0
  -28.1980  -23.1350   20.5350 C   0  0  0  0  0  2  0  0  0  0  0  0
  -28.4410  -24.6910   19.8470 C   0  0  0  0  0  2  0  0  0  0  0  0
  -28.2740  -26.1740   20.3780 O   0  0  0  0  0  0  0  0  0  0  0  0
  -24.6250  -31.9060   23.2370 C   0  0  0  0  0  0  0  0  0  0  0  0
  -27.1990  -27.1400   20.2360 C   0  0  0  0  0  0  0  0  0  0  0  0
  -23.4220  -30.4960   21.6090 C   0  0  0  0  0  3  0  0  0  0  0  0
  -24.8660  -28.9000   20.1860 C   0  0  0  0  0  0  0  0  0  0  0  0
  -25.9740  -30.7530   21.4370 C   0  0  0  0  0  2  0  0  0  0  0  0
  -26.0440  -29.3520   20.7940 C   0  0  0  0  0  0  0  0  0  0  0  0
  -27.2030  -28.4840   20.8030 C   0  0  0  0  0  3  0  0  0  0  0  0
  -25.9980  -26.7960   19.5790 C   0  0  0  0  0  3  0  0  0  0  0  0
  -24.8590  -27.6390   19.5620 C   0  0  0  0  0  3  0  0  0  0  0  0
  -23.6390  -29.8020   20.2350 C   0  0  0  0  0  2  0  0  0  0  0  0
  -24.6940  -31.0750   22.1490 N   0  0  0  0  0  0  0  0  0  0  0  0
  -23.5410  -32.1950   23.7660 O   0  0  0  0  0  0  0  0  0  0  0  0
  -22.7430  -29.5020   22.5840 C   0  0  0  0  0  0  0  0  0  0  0  0
  -21.4140  -29.3310   22.4640 N   0  0  0  0  0  0  0  0  0  0  0  0
  -23.4170  -28.8840   23.4130 O   0  0  0  0  0  0  0  0  0  0  0  0
  -20.9250  -29.8820   21.7730 H   0  0  0  0  0  0  0  0  0  0  0  0
  -18.0390  -28.1170   22.9760 C   0  0  0  0  0  0  0  0  0  0  0  0
  -20.5950  -28.3990   23.2460 C   0  0  0  0  0  3  0  0  0  0  0  0
  -20.7060  -26.9600   22.6910 C   0  0  0  0  0  2  0  0  0  0  0  0
  -19.6110  -26.6170   21.6760 C   0  0  0  0  0  2  0  0  0  0  0  0
  -18.2270  -26.7610   22.3150 C   0  0  0  0  0  2  0  0  0  0  0  0
  -19.1510  -28.8920   23.3980 C   0  0  0  0  0  0  0  0  0  0  0  0
  -18.9200  -30.1580   23.9780 C   0  0  0  0  0  3  0  0  0  0  0  0
  -17.6110  -30.6510   24.1370 C   0  0  0  0  0  3  0  0  0  0  0  0
  -16.5140  -29.8730   23.7280 C   0  0  0  0  0  3  0  0  0  0  0  0
  -16.7280  -28.6070   23.1550 C   0  0  0  0  0  3  0  0  0  0  0  0
  -25.9050  -32.5480   23.8570 C   0  0  0  0  0  3  0  0  0  0  0  0
  -26.4230  -31.7840   25.1390 C   0  0  1  0  0  0  0  0  0  0  0  0
  -25.3320  -31.5570   26.2110 C   0  0  0  0  0  1  0  0  0  0  0  0
  -27.0030  -30.4020   24.7600 C   0  0  0  0  0  1  0  0  0  0  0  0
  -27.5770  -32.5820   25.7930 C   0  0  0  0  0  1  0  0  0  0  0  0
  -25.5900  -33.9470   24.1900 N   0  0  0  0  0  0  0  0  0  0  0  0
  -25.9150  -35.0060   23.4340 C   0  0  0  0  0  0  0  0  0  0  0  0
  -26.5740  -34.9050   22.3960 O   0  0  0  0  0  0  0  0  0  0  0  0
  -25.0040  -34.0970   24.9970 H   0  0  0  0  0  0  0  0  0  0  0  0
  -24.1780  -36.7980   23.1140 C   0  0  0  0  0  1  0  0  0  0  0  0
  -25.4340  -36.3940   23.9020 C   0  0  0  0  0  3  0  0  0  0  0  0
  -27.5810  -37.2840   24.6980 C   0  0  0  0  0  1  0  0  0  0  0  0
  -26.4620  -37.4500   23.7730 N   0  0  0  0  0  0  0  0  0  0  0  0
  -26.0560  -38.3680   23.9270 H   0  0  0  0  0  0  0  0  0  0  0  0
  -29.5480  -17.7170   19.8530 C   0  0  0  0  0  2  0  0  0  0  0  0
  -30.4380  -15.0700   20.2450 C   0  0  0  0  0  0  0  0  0  0  0  0
  -30.3400  -12.6940   19.3260 C   0  0  0  0  0  2  0  0  0  0  0  0
  -29.4000  -12.6400   18.0950 C   0  0  0  0  0  2  0  0  0  0  0  0
  -27.9390  -12.4240   18.5300 C   0  0  0  0  0  2  0  0  0  0  0  0
  -27.5410  -13.3310   19.7230 C   0  0  0  0  0  3  0  0  0  0  0  0
  -28.6060  -13.3450   20.8430 C   0  0  0  0  0  2  0  0  0  0  0  0
  -29.8680  -13.7860   20.2360 N   0  0  0  0  0  0  0  0  0  0  0  0
  -31.6080  -15.1450   19.8500 O   0  0  0  0  0  0  0  0  0  0  0  0
  -29.6660  -16.2510   20.5070 N   0  0  0  0  0  0  0  0  0  0  0  0
  -28.8100  -16.0130   20.9840 H   0  0  0  0  0  0  0  0  0  0  0  0
  -25.1620  -13.8900   20.4740 C   0  0  0  0  0  0  0  0  0  0  0  0
  -24.1060  -13.1090   20.8570 C   0  0  0  0  0  0  0  0  0  0  0  0
  -24.5800  -11.7610   20.8260 C   0  0  0  0  0  0  0  0  0  0  0  0
  -26.2090  -13.0190   20.2290 N   0  0  0  0  0  0  0  0  0  0  0  0
  -25.8690  -11.7340   20.5080 N   0  0  0  0  0  0  0  0  0  0  0  0
  -23.8600  -10.4960   21.0240 C   0  0  0  0  0  0  0  0  0  0  0  0
  -24.3110   -9.5280   21.9500 C   0  0  0  0  0  3  0  0  0  0  0  0
  -23.5910   -8.3280   22.1380 C   0  0  0  0  0  3  0  0  0  0  0  0
  -22.4070   -8.0870   21.4020 C   0  0  0  0  0  0  0  0  0  0  0  0
  -21.9760   -9.0430   20.4640 C   0  0  0  0  0  3  0  0  0  0  0  0
  -22.6960  -10.2350   20.2740 C   0  0  0  0  0  3  0  0  0  0  0  0
  -21.6560   -6.9400   21.5020 O   0  0  0  0  0  0  0  0  0  0  0  0
  -21.6380   -6.1880   22.6490 C   0  0  0  0  0  0  0  0  0  0  0  0
  -21.2480   -6.7340   23.8920 C   0  0  0  0  0  3  0  0  0  0  0  0
  -21.1790   -5.9090   25.0320 C   0  0  0  0  0  3  0  0  0  0  0  0
  -21.4850   -4.5390   24.9310 C   0  0  0  0  0  0  0  0  0  0  0  0
  -21.8670   -3.9930   23.6930 C   0  0  0  0  0  3  0  0  0  0  0  0
  -21.9400   -4.8150   22.5550 C   0  0  0  0  0  0  0  0  0  0  0  0
  -22.2870   -4.2770   21.3600 F   0  0  0  0  0  0  0  0  0  0  0  0
  -21.4110   -3.7440   26.0240 F   0  0  0  0  0  0  0  0  0  0  0  0
  -22.7080  -13.5780   21.1330 C   0  0  0  0  0  0  0  0  0  0  0  0
  -21.9880  -12.8800   22.0050 N   0  0  0  0  0  0  0  0  0  0  0  0
  -22.2610  -14.6000   20.6110 O   0  0  0  0  0  0  0  0  0  0  0  0
  -22.3640  -12.0550   22.4490 H   0  0  0  0  0  0  0  0  0  0  0  0
  -21.0500  -13.1750   22.2330 H   0  0  0  0  0  0  0  0  0  0  0  0
  -25.3140  -15.2630   20.2900 N   0  0  0  0  0  0  0  0  0  0  0  0
  -24.5450  -15.9120   20.4080 H   0  0  0  0  0  0  0  0  0  0  0  0
  -26.1420  -15.6960   19.9040 H   0  0  0  0  0  0  0  0  0  0  0  0
  1  6  1  0
  2  8  1  0
  2  1  2  0
  3  5  1  0
  3  6  2  0
  4  3  1  0
  7  4  2  0
  7  2  1  0
  9 10  1  0
  9  8  1  0
 11 22  2  0
 12 10  1  0
 12 17  1  0
 13 21  1  0
 13 23  1  0
 14 20  1  0
 14 16  1  0
 15 21  1  0
 16 17  2  0
 16 15  1  0
 18 12  2  0
 19 18  1  0
 19 14  2  0
 20 13  1  0
 21 11  1  0
 23 25  2  0
 24 23  1  0
 26 24  1  0
 27 36  2  0
 27 32  1  0
 28 24  1  0
 28 32  1  0
 29 28  1  0
 30 31  1  0
 30 29  1  0
 31 27  1  0
 32 33  2  0
 33 34  1  0
 35 34  2  0
 36 35  1  0
 37 11  1  0
 37 42  1  0
 37 38  1  0
 38 41  1  1
 38 39  1  0
 40 38  1  0
 42 45  1  0
 43 47  1  0
 43 42  1  0
 44 43  2  0
 47 46  1  0
 49 47  1  0
 49 50  1  0
 49 48  1  0
 51  4  1  0
 51 60  1  0
 52 60  1  0
 53 58  1  0
 54 55  1  0
 54 53  1  0
 56 55  1  0
 56 65  1  0
 56 57  1  0
 58 52  1  0
 58 57  1  0
 59 52  2  0
 60 61  1  0
 62 63  2  0
 63 82  1  0
 64 63  1  0
 64 67  1  0
 65 62  1  0
 65 66  1  0
 66 64  2  0
 67 68  1  0
 68 69  2  0
 70 73  1  0
 70 69  1  0
 71 70  2  0
 72 71  1  0
 72 67  2  0
 73 74  1  0
 74 75  1  0
 75 76  2  0
 77 76  1  0
 77 81  1  0
 78 77  2  0
 79 74  2  0
 79 78  1  0
 80 79  1  0
 82 83  1  0
 83 86  1  0
 83 85  1  0
 84 82  2  0
 87 88  1  0
 87 62  1  0
 89 87  1  0
M  ISO  4   9 101  10 101  52 100  60 100
M  END
>  <TORSDO>  (12) 
F 19

>  <SCORE>  (12) 
-15.155

>  <name>  (12) 
11

>  <ligand_id>  (12) 
11

>  <original_smiles>  (12) 
[H]c1nc(C([H])([H])[H])c(C([H])([H])N([H])C(=O)N2C([H])([H])C([H])([H])C([H])([H])C([H])(n3nc(-c4c([H])c([H])c(Oc5c([H])c([H])c(F)c([H])c5F)c([H])c4[H])c(C(=O)N([H])[H])c3N([H])[H])C2([H])[H])nc1C([H])([H])C([H])([H])Oc1c([H])c([H])c2c(c1[H])C([H])([H])N(C(=O)C([H])(N([H])C(=O)C([H])(N([H])C([H])([H])[H])C([H])([H])[H])C(C([H])([H])[H])(C([H])([H])[H])C([H])([H])[H])C([H])(C(=O)N([H])C1([H])c3c([H])c([H])c([H])c([H])c3C([H])([H])C([H])([H])C1([H])[H])C2([H])[H]

>  <smiles>  (12) 
[H]c1nc(C([H])([H])[H])c(C([H])([H])N([H])C(=O)N2C([H])([H])C([H])([H])C([H])([H])C([H])(n3nc(-c4c([H])c([H])c(Oc5c([H])c([H])c(F)c([H])c5F)c([H])c4[H])c(C(=O)N([H])[H])c3N([H])[H])C2([H])[H])nc1C([H])([H])C([H])([H])Oc1c([H])c([H])c2c(c1[H])C([H])([H])N(C(=O)C([H])(N([H])C(=O)C([H])(N([H])C([H])([H])[H])C([H])([H])[H])C(C([H])([H])[H])(C([H])([H])[H])C([H])([H])[H])C([H])(C(=O)N([H])C1([H])c3c([H])c([H])c([H])c([H])c3C([H])([H])C([H])([H])C1([H])[H])C2([H])[H]

$$$$
12:0:0
     RDKit          3D

 95103  0  0  1  0  0  0  0  0999 V2000
  -30.6100  -20.9460   19.1090 C   0  0  0  0  0  3  0  0  0  0  0  0
  -29.5990  -20.8750   20.0910 C   0  0  0  0  0  0  0  0  0  0  0  0
  -30.0100  -23.1170   18.5890 C   0  0  0  0  0  0  0  0  0  0  0  0
  -29.0040  -23.0970   19.5970 C   0  0  0  0  0  0  0  0  0  0  0  0
  -30.8160  -22.0530   18.3620 N   0  0  0  0  0  0  0  0  0  0  0  0
  -28.8050  -21.9650   20.3500 N   0  0  0  0  0  0  0  0  0  0  0  0
  -29.4570  -19.5960   20.9510 C   0  0  0  0  0  2  0  0  0  0  0  0
  -29.5000  -18.2010   20.2240 C   0  0  0  0  0  2  0  0  0  0  0  0
  -30.1990  -17.0630   21.0530 C   0  0  0  0  0  2  0  0  0  0  0  0
  -30.5940  -14.6730   20.1940 C   0  0  0  0  0  0  0  0  0  0  0  0
  -30.3630  -12.4980   19.0300 C   0  0  0  0  0  2  0  0  0  0  0  0
  -29.3760  -12.6650   17.8540 C   0  0  0  0  0  2  0  0  0  0  0  0
  -27.9160  -12.4910   18.3250 C   0  0  0  0  0  2  0  0  0  0  0  0
  -27.5930  -13.3130   19.6030 C   0  0  0  0  0  3  0  0  0  0  0  0
  -28.6860  -13.1050   20.6760 C   0  0  0  0  0  2  0  0  0  0  0  0
  -29.9770  -13.4650   20.0710 N   0  0  0  0  0  0  0  0  0  0  0  0
  -31.7220  -14.8910   19.7440 O   0  0  0  0  0  0  0  0  0  0  0  0
  -29.8260  -15.6650   20.7140 N   0  0  0  0  0  0  0  0  0  0  0  0
  -28.9000  -15.3780   20.9950 H   0  0  0  0  0  0  0  0  0  0  0  0
  -25.2060  -13.8750   20.3800 C   0  0  0  0  0  0  0  0  0  0  0  0
  -24.1650  -13.0860   20.7850 C   0  0  0  0  0  0  0  0  0  0  0  0
  -24.6490  -11.7430   20.7470 C   0  0  0  0  0  0  0  0  0  0  0  0
  -26.2610  -13.0140   20.1220 N   0  0  0  0  0  0  0  0  0  0  0  0
  -25.9310  -11.7280   20.4020 N   0  0  0  0  0  0  0  0  0  0  0  0
  -23.9540  -10.4680   20.9640 C   0  0  0  0  0  0  0  0  0  0  0  0
  -24.3850   -9.5550   21.9510 C   0  0  0  0  0  3  0  0  0  0  0  0
  -23.6940   -8.3400   22.1530 C   0  0  0  0  0  3  0  0  0  0  0  0
  -22.5560   -8.0310   21.3690 C   0  0  0  0  0  0  0  0  0  0  0  0
  -22.1460   -8.9340   20.3730 C   0  0  0  0  0  3  0  0  0  0  0  0
  -22.8360  -10.1400   20.1690 C   0  0  0  0  0  3  0  0  0  0  0  0
  -21.8360   -6.8680   21.4790 O   0  0  0  0  0  0  0  0  0  0  0  0
  -21.7180   -6.2050   22.6740 C   0  0  0  0  0  0  0  0  0  0  0  0
  -21.1550   -6.8180   23.8150 C   0  0  0  0  0  3  0  0  0  0  0  0
  -20.9900   -6.0750   25.0000 C   0  0  0  0  0  3  0  0  0  0  0  0
  -21.3760   -4.7220   25.0460 C   0  0  0  0  0  0  0  0  0  0  0  0
  -21.9300   -4.1090   23.9070 C   0  0  0  0  0  3  0  0  0  0  0  0
  -22.0970   -4.8490   22.7240 C   0  0  0  0  0  0  0  0  0  0  0  0
  -22.6150   -4.2490   21.6230 F   0  0  0  0  0  0  0  0  0  0  0  0
  -21.2080   -4.0050   26.1810 F   0  0  0  0  0  0  0  0  0  0  0  0
  -22.7670  -13.5360   21.0950 C   0  0  0  0  0  0  0  0  0  0  0  0
  -22.0750  -12.8270   21.9800 N   0  0  0  0  0  0  0  0  0  0  0  0
  -22.2960  -14.5520   20.5850 O   0  0  0  0  0  0  0  0  0  0  0  0
  -22.4670  -12.0070   22.4210 H   0  0  0  0  0  0  0  0  0  0  0  0
  -21.1350  -13.1120   22.2150 H   0  0  0  0  0  0  0  0  0  0  0  0
  -25.3410  -15.2480   20.1890 N   0  0  0  0  0  0  0  0  0  0  0  0
  -24.5660  -15.8900   20.3140 H   0  0  0  0  0  0  0  0  0  0  0  0
  -26.1670  -15.6970   19.8150 H   0  0  0  0  0  0  0  0  0  0  0  0
  -30.1880  -24.2720   17.6100 C   0  0  0  0  0  2  0  0  0  0  0  0
  -29.5000  -23.9550   16.2690 C   0  0  0  0  0  2  0  0  0  0  0  0
  -29.7180  -25.0110   15.1730 C   0  0  0  0  0  2  0  0  0  0  0  0
  -29.2220  -25.6390   12.7370 C   0  0  0  0  0  1  0  0  0  0  0  0
  -28.9940  -24.6300   13.8690 C   0  0  0  0  0  2  0  0  0  0  0  0
  -28.0420  -24.2950   19.7860 C   0  0  0  0  0  2  0  0  0  0  0  0
  -28.5240  -25.4880   20.6840 C   0  0  0  0  0  2  0  0  0  0  0  0
  -28.5570  -26.8320   20.1240 O   0  0  0  0  0  0  0  0  0  0  0  0
  -24.6490  -31.9660   23.2740 C   0  0  0  0  0  0  0  0  0  0  0  0
  -27.3880  -27.5750   20.1590 C   0  0  0  0  0  0  0  0  0  0  0  0
  -23.4880  -30.5760   21.5930 C   0  0  0  0  0  3  0  0  0  0  0  0
  -24.9810  -29.0780   20.1640 C   0  0  0  0  0  0  0  0  0  0  0  0
  -26.0160  -30.9630   21.4360 C   0  0  0  0  0  2  0  0  0  0  0  0
  -26.1290  -29.6000   20.7750 C   0  0  0  0  0  0  0  0  0  0  0  0
  -27.3380  -28.8580   20.7630 C   0  0  0  0  0  3  0  0  0  0  0  0
  -26.2200  -27.0790   19.5420 C   0  0  0  0  0  3  0  0  0  0  0  0
  -25.0240  -27.8190   19.5460 C   0  0  0  0  0  3  0  0  0  0  0  0
  -23.7280  -29.9260   20.2060 C   0  0  0  0  0  2  0  0  0  0  0  0
  -24.7360  -31.1840   22.1590 N   0  0  0  0  0  0  0  0  0  0  0  0
  -23.5570  -32.2080   23.8050 O   0  0  0  0  0  0  0  0  0  0  0  0
  -22.8390  -29.5280   22.5270 C   0  0  0  0  0  0  0  0  0  0  0  0
  -21.5180  -29.3350   22.3870 N   0  0  0  0  0  0  0  0  0  0  0  0
  -23.5240  -28.8910   23.3320 O   0  0  0  0  0  0  0  0  0  0  0  0
  -21.0250  -29.8990   21.7090 H   0  0  0  0  0  0  0  0  0  0  0  0
  -18.1480  -28.1210   22.8720 C   0  0  0  0  0  0  0  0  0  0  0  0
  -20.7070  -28.3720   23.1340 C   0  0  0  0  0  3  0  0  0  0  0  0
  -20.8080  -26.9610   22.5130 C   0  0  0  0  0  2  0  0  0  0  0  0
  -19.7000  -26.6690   21.4960 C   0  0  0  0  0  2  0  0  0  0  0  0
  -18.3210  -26.7930   22.1530 C   0  0  0  0  0  2  0  0  0  0  0  0
  -19.2690  -28.8690   23.3200 C   0  0  0  0  0  0  0  0  0  0  0  0
  -19.0540  -30.1120   23.9520 C   0  0  0  0  0  3  0  0  0  0  0  0
  -17.7500  -30.6070   24.1420 C   0  0  0  0  0  3  0  0  0  0  0  0
  -16.6430  -29.8560   23.7120 C   0  0  0  0  0  3  0  0  0  0  0  0
  -16.8430  -28.6140   23.0820 C   0  0  0  0  0  3  0  0  0  0  0  0
  -25.9150  -32.6090   23.9190 C   0  0  0  0  0  3  0  0  0  0  0  0
  -26.4100  -31.8450   25.2090 C   0  0  1  0  0  0  0  0  0  0  0  0
  -25.2950  -31.5970   26.2510 C   0  0  0  0  0  1  0  0  0  0  0  0
  -27.0150  -30.4730   24.8310 C   0  0  0  0  0  1  0  0  0  0  0  0
  -27.5360  -32.6530   25.8950 C   0  0  0  0  0  1  0  0  0  0  0  0
  -25.5900  -34.0060   24.2370 N   0  0  0  0  0  0  0  0  0  0  0  0
  -25.9220  -35.0570   23.4770 C   0  0  0  0  0  0  0  0  0  0  0  0
  -26.6110  -34.9550   22.4570 O   0  0  0  0  0  0  0  0  0  0  0  0
  -24.9830  -34.1570   25.0300 H   0  0  0  0  0  0  0  0  0  0  0  0
  -24.1840  -36.8320   23.0830 C   0  0  0  0  0  1  0  0  0  0  0  0
  -25.4150  -36.4440   23.9180 C   0  0  0  0  0  3  0  0  0  0  0  0
  -27.5240  -37.3570   24.7830 C   0  0  0  0  0  1  0  0  0  0  0  0
  -26.4400  -37.5060   23.8150 N   0  0  0  0  0  0  0  0  0  0  0  0
  -26.0230  -38.4230   23.9460 H   0  0  0  0  0  0  0  0  0  0  0  0
  1  2  1  0
  2  6  2  0
  2  7  1  0
  3  4  2  0
  4 53  1  0
  4  6  1  0
  5  3  1  0
  5  1  2  0
  8  7  1  0
  8  9  1  0
 10 18  1  0
 11 16  1  0
 12 13  1  0
 12 11  1  0
 14 13  1  0
 14 23  1  0
 14 15  1  0
 16 10  1  0
 16 15  1  0
 17 10  2  0
 18 19  1  0
 18  9  1  0
 20 21  2  0
 21 40  1  0
 22 21  1  0
 22 25  1  0
 23 20  1  0
 23 24  1  0
 24 22  2  0
 25 26  1  0
 26 27  2  0
 28 31  1  0
 28 27  1  0
 29 28  2  0
 30 29  1  0
 30 25  2  0
 31 32  1  0
 32 37  2  0
 32 33  1  0
 33 34  2  0
 34 35  1  0
 35 39  1  0
 36 35  2  0
 37 36  1  0
 38 37  1  0
 40 41  1  0
 41 44  1  0
 41 43  1  0
 42 40  2  0
 45 46  1  0
 45 20  1  0
 47 45  1  0
 48  3  1  0
 49 48  1  0
 50 49  1  0
 51 52  1  0
 52 50  1  0
 53 54  1  0
 55 57  1  0
 55 54  1  0
 56 67  2  0
 57 62  1  0
 58 66  1  0
 58 68  1  0
 59 65  1  0
 59 61  1  0
 60 66  1  0
 61 60  1  0
 62 61  2  0
 63 64  1  0
 63 57  2  0
 64 59  2  0
 65 58  1  0
 66 56  1  0
 68 70  2  0
 69 68  1  0
 71 69  1  0
 72 81  2  0
 72 77  1  0
 73 69  1  0
 73 77  1  0
 74 73  1  0
 75 76  1  0
 75 74  1  0
 76 72  1  0
 77 78  2  0
 78 79  1  0
 80 79  2  0
 81 80  1  0
 82 56  1  0
 82 87  1  0
 82 83  1  0
 83 86  1  1
 83 84  1  0
 85 83  1  0
 87 90  1  0
 88 92  1  0
 88 87  1  0
 89 88  2  0
 92 91  1  0
 94 92  1  0
 94 95  1  0
 94 93  1  0
M  ISO  4  10 100  18 100  54 101  55 101
M  END
>  <TORSDO>  (13) 
F 25

>  <SCORE>  (13) 
-11.970

>  <name>  (13) 
12

>  <ligand_id>  (13) 
12

>  <original_smiles>  (13) 
[H]c1nc(C([H])([H])C([H])([H])C([H])([H])C([H])([H])C([H])([H])[H])c(C([H])([H])C([H])([H])Oc2c([H])c([H])c3c(c2[H])C([H])([H])N(C(=O)C([H])(N([H])C(=O)C([H])(N([H])C([H])([H])[H])C([H])([H])[H])C(C([H])([H])[H])(C([H])([H])[H])C([H])([H])[H])C([H])(C(=O)N([H])C2([H])c4c([H])c([H])c([H])c([H])c4C([H])([H])C([H])([H])C2([H])[H])C3([H])[H])nc1C([H])([H])C([H])([H])C([H])([H])N([H])C(=O)N1C([H])([H])C([H])([H])C([H])([H])C([H])(n2nc(-c3c([H])c([H])c(Oc4c([H])c([H])c(F)c([H])c4F)c([H])c3[H])c(C(=O)N([H])[H])c2N([H])[H])C1([H])[H]

>  <smiles>  (13) 
[H]c1nc(C([H])([H])C([H])([H])C([H])([H])C([H])([H])C([H])([H])[H])c(C([H])([H])C([H])([H])Oc2c([H])c([H])c3c(c2[H])C([H])([H])N(C(=O)C([H])(N([H])C(=O)C([H])(N([H])C([H])([H])[H])C([H])([H])[H])C(C([H])([H])[H])(C([H])([H])[H])C([H])([H])[H])C([H])(C(=O)N([H])C2([H])c4c([H])c([H])c([H])c([H])c4C([H])([H])C([H])([H])C2([H])[H])C3([H])[H])nc1C([H])([H])C([H])([H])C([H])([H])N([H])C(=O)N1C([H])([H])C([H])([H])C([H])([H])C([H])(n2nc(-c3c([H])c([H])c(Oc4c([H])c([H])c(F)c([H])c4F)c([H])c3[H])c(C(=O)N([H])[H])c2N([H])[H])C1([H])[H]

$$$$
13:0:0
     RDKit          3D

 94103  0  0  1  0  0  0  0  0999 V2000
  -25.7140  -19.7520   17.9980 C   0  0  0  0  0  3  0  0  0  0  0  0
  -24.9900  -20.7520   17.3040 C   0  0  0  0  0  0  0  0  0  0  0  0
  -26.7620  -20.3910   18.6170 C   0  0  0  0  0  0  0  0  0  0  0  0
  -27.4800  -22.6870   18.6790 C   0  0  0  0  0  3  0  0  0  0  0  0
  -28.4270  -22.3690   19.6390 C   0  0  0  0  0  0  0  0  0  0  0  0
  -28.5400  -20.9120   19.9820 C   0  0  0  0  0  0  0  0  0  0  0  0
  -23.6880  -20.6170   16.5820 C   0  0  0  0  0  1  0  0  0  0  0  0
  -25.5720  -21.9270   17.3920 N   0  0  0  0  0  0  0  0  0  0  0  0
  -27.7310  -19.9870   19.4580 N   0  0  0  0  0  0  0  0  0  0  0  0
  -26.6430  -21.7270   18.2250 N   0  0  0  0  0  0  0  0  0  0  0  0
  -29.2350  -23.6480   20.1390 C   0  0  0  0  0  2  0  0  0  0  0  0
  -28.4210  -25.0370   20.5380 C   0  0  0  0  0  2  0  0  0  0  0  0
  -28.7380  -26.4670   20.1170 O   0  0  0  0  0  0  0  0  0  0  0  0
  -24.6830  -31.6200   23.3110 C   0  0  0  0  0  0  0  0  0  0  0  0
  -27.6320  -27.3520   20.0820 C   0  0  0  0  0  0  0  0  0  0  0  0
  -23.6250  -30.2510   21.5520 C   0  0  0  0  0  3  0  0  0  0  0  0
  -25.2160  -28.8930   20.0580 C   0  0  0  0  0  0  0  0  0  0  0  0
  -26.1500  -30.7190   21.4790 C   0  0  0  0  0  2  0  0  0  0  0  0
  -26.3320  -29.3800   20.7540 C   0  0  0  0  0  0  0  0  0  0  0  0
  -27.5480  -28.6220   20.7550 C   0  0  0  0  0  3  0  0  0  0  0  0
  -26.5010  -26.9560   19.3430 C   0  0  0  0  0  3  0  0  0  0  0  0
  -25.2970  -27.6850   19.3530 C   0  0  0  0  0  3  0  0  0  0  0  0
  -23.9280  -29.6920   20.1320 C   0  0  0  0  0  2  0  0  0  0  0  0
  -24.8400  -30.8830   22.1740 N   0  0  0  0  0  0  0  0  0  0  0  0
  -23.5650  -31.8010   23.8150 O   0  0  0  0  0  0  0  0  0  0  0  0
  -23.0020  -29.1400   22.4240 C   0  0  0  0  0  0  0  0  0  0  0  0
  -21.6980  -28.8770   22.2230 N   0  0  0  0  0  0  0  0  0  0  0  0
  -23.6900  -28.5100   23.2290 O   0  0  0  0  0  0  0  0  0  0  0  0
  -21.1890  -29.4530   21.5640 H   0  0  0  0  0  0  0  0  0  0  0  0
  -18.3890  -27.4250   22.5070 C   0  0  0  0  0  0  0  0  0  0  0  0
  -20.9140  -27.8370   22.8970 C   0  0  0  0  0  3  0  0  0  0  0  0
  -21.1350  -26.4580   22.2330 C   0  0  0  0  0  2  0  0  0  0  0  0
  -20.0860  -26.1360   21.1580 C   0  0  0  0  0  2  0  0  0  0  0  0
  -18.6790  -26.1410   21.7600 C   0  0  0  0  0  2  0  0  0  0  0  0
  -19.4400  -28.2330   23.0250 C   0  0  0  0  0  0  0  0  0  0  0  0
  -19.1070  -29.4330   23.6780 C   0  0  0  0  0  3  0  0  0  0  0  0
  -17.7610  -29.8300   23.8210 C   0  0  0  0  0  3  0  0  0  0  0  0
  -16.7260  -29.0290   23.3250 C   0  0  0  0  0  3  0  0  0  0  0  0
  -17.0460  -27.8270   22.6710 C   0  0  0  0  0  3  0  0  0  0  0  0
  -25.9050  -32.2950   24.0100 C   0  0  0  0  0  3  0  0  0  0  0  0
  -25.5410  -33.6930   24.2810 N   0  0  0  0  0  0  0  0  0  0  0  0
  -25.8850  -34.7330   23.5110 C   0  0  0  0  0  0  0  0  0  0  0  0
  -26.6050  -34.6220   22.5140 O   0  0  0  0  0  0  0  0  0  0  0  0
  -24.9080  -33.8510   25.0490 H   0  0  0  0  0  0  0  0  0  0  0  0
  -24.1110  -36.4560   23.0530 C   0  0  0  0  0  1  0  0  0  0  0  0
  -25.3430  -36.1200   23.9050 C   0  0  0  0  0  3  0  0  0  0  0  0
  -27.4180  -37.1130   24.7670 C   0  0  0  0  0  1  0  0  0  0  0  0
  -26.3460  -37.1990   23.7820 N   0  0  0  0  0  0  0  0  0  0  0  0
  -25.9030  -38.1090   23.8770 H   0  0  0  0  0  0  0  0  0  0  0  0
  -26.3360  -31.5590   25.3370 C   0  0  1  0  0  0  0  0  0  0  0  0
  -25.1690  -31.3220   26.3240 C   0  0  0  0  0  1  0  0  0  0  0  0
  -26.9740  -30.1830   25.0220 C   0  0  0  0  0  1  0  0  0  0  0  0
  -27.4160  -32.3920   26.0660 C   0  0  0  0  0  1  0  0  0  0  0  0
  -29.6560  -20.2120   20.8480 C   0  0  0  0  0  2  0  0  0  0  0  0
  -29.7750  -18.6300   21.2290 C   0  0  0  0  0  2  0  0  0  0  0  0
  -29.6530  -17.3120   20.3000 C   0  0  0  0  0  2  0  0  0  0  0  0
  -30.9310  -14.9380   20.2000 C   0  0  0  0  0  0  0  0  0  0  0  0
  -30.6690  -12.6460   19.2170 C   0  0  0  0  0  2  0  0  0  0  0  0
  -29.7270  -12.7090   17.9930 C   0  0  0  0  0  2  0  0  0  0  0  0
  -28.2630  -12.5540   18.4530 C   0  0  0  0  0  2  0  0  0  0  0  0
  -27.9240  -13.4690   19.6570 C   0  0  0  0  0  3  0  0  0  0  0  0
  -28.9940  -13.4010   20.7630 C   0  0  0  0  0  2  0  0  0  0  0  0
  -30.2760  -13.7310   20.1530 N   0  0  0  0  0  0  0  0  0  0  0  0
  -32.0450  -15.0420   19.6970 O   0  0  0  0  0  0  0  0  0  0  0  0
  -30.3630  -16.0510   20.8270 N   0  0  0  0  0  0  0  0  0  0  0  0
  -31.1680  -16.4550   21.2790 H   0  0  0  0  0  0  0  0  0  0  0  0
  -25.5750  -14.0820   20.4640 C   0  0  0  0  0  0  0  0  0  0  0  0
  -24.4990  -13.3230   20.8400 C   0  0  0  0  0  0  0  0  0  0  0  0
  -24.9350  -11.9630   20.7640 C   0  0  0  0  0  0  0  0  0  0  0  0
  -26.5900  -13.1920   20.1780 N   0  0  0  0  0  0  0  0  0  0  0  0
  -26.2160  -11.9060   20.4160 N   0  0  0  0  0  0  0  0  0  0  0  0
  -24.1840  -10.7100   20.9240 C   0  0  0  0  0  0  0  0  0  0  0  0
  -24.5740   -9.7340   21.8690 C   0  0  0  0  0  3  0  0  0  0  0  0
  -23.8230   -8.5490   22.0210 C   0  0  0  0  0  3  0  0  0  0  0  0
  -22.6710   -8.3310   21.2260 C   0  0  0  0  0  0  0  0  0  0  0  0
  -22.3040   -9.2950   20.2740 C   0  0  0  0  0  3  0  0  0  0  0  0
  -23.0570  -10.4710   20.1210 C   0  0  0  0  0  3  0  0  0  0  0  0
  -21.8890   -7.2030   21.2930 O   0  0  0  0  0  0  0  0  0  0  0  0
  -21.7380   -6.5020   22.4620 C   0  0  0  0  0  0  0  0  0  0  0  0
  -21.1660   -7.0820   23.6160 C   0  0  0  0  0  3  0  0  0  0  0  0
  -20.9630   -6.3040   24.7730 C   0  0  0  0  0  3  0  0  0  0  0  0
  -21.3250   -4.9450   24.7830 C   0  0  0  0  0  0  0  0  0  0  0  0
  -21.8880   -4.3600   23.6330 C   0  0  0  0  0  3  0  0  0  0  0  0
  -22.0890   -5.1360   22.4800 C   0  0  0  0  0  0  0  0  0  0  0  0
  -22.6150   -4.5660   21.3700 F   0  0  0  0  0  0  0  0  0  0  0  0
  -21.1220   -4.1920   25.8870 F   0  0  0  0  0  0  0  0  0  0  0  0
  -23.1240  -13.8170   21.1560 C   0  0  0  0  0  0  0  0  0  0  0  0
  -22.4010  -13.1120   22.0220 N   0  0  0  0  0  0  0  0  0  0  0  0
  -22.6930  -14.8690   20.6830 O   0  0  0  0  0  0  0  0  0  0  0  0
  -22.7620  -12.2600   22.4240 H   0  0  0  0  0  0  0  0  0  0  0  0
  -21.4790  -13.4290   22.2810 H   0  0  0  0  0  0  0  0  0  0  0  0
  -25.7680  -15.4580   20.3260 N   0  0  0  0  0  0  0  0  0  0  0  0
  -25.0310  -16.1400   20.4850 H   0  0  0  0  0  0  0  0  0  0  0  0
  -26.6360  -15.8790   20.0060 H   0  0  0  0  0  0  0  0  0  0  0  0
  1  3  2  0
  2  8  2  0
  2  1  1  0
  3  9  1  0
  4  5  2  0
  5  6  1  0
  5 11  1  0
  6 54  1  0
  7  2  1  0
  8 10  1  0
  9  6  2  0
 10  3  1  0
 10  4  1  0
 11 12  1  0
 13 12  1  0
 14 25  2  0
 15 13  1  0
 15 20  1  0
 16 24  1  0
 16 26  1  0
 17 23  1  0
 17 19  1  0
 18 24  1  0
 19 20  2  0
 19 18  1  0
 21 22  1  0
 21 15  2  0
 22 17  2  0
 23 16  1  0
 24 14  1  0
 26 28  2  0
 27 26  1  0
 29 27  1  0
 30 39  2  0
 30 35  1  0
 31 27  1  0
 31 35  1  0
 32 31  1  0
 33 34  1  0
 33 32  1  0
 34 30  1  0
 35 36  2  0
 36 37  1  0
 38 37  2  0
 39 38  1  0
 40 14  1  0
 40 41  1  0
 40 50  1  0
 41 44  1  0
 42 46  1  0
 42 41  1  0
 43 42  2  0
 46 45  1  0
 48 49  1  0
 48 46  1  0
 48 47  1  0
 50 53  1  1
 50 51  1  0
 52 50  1  0
 54 55  1  0
 56 65  1  0
 56 55  1  0
 57 65  1  0
 58 63  1  0
 59 60  1  0
 59 58  1  0
 61 60  1  0
 61 70  1  0
 61 62  1  0
 63 57  1  0
 63 62  1  0
 64 57  2  0
 65 66  1  0
 67 68  2  0
 68 87  1  0
 69 68  1  0
 69 72  1  0
 70 71  1  0
 70 67  1  0
 71 69  2  0
 72 73  1  0
 73 74  2  0
 75 78  1  0
 75 74  1  0
 76 75  2  0
 77 76  1  0
 77 72  2  0
 78 79  1  0
 79 84  2  0
 79 80  1  0
 80 81  2  0
 81 82  1  0
 82 86  1  0
 83 82  2  0
 84 83  1  0
 85 84  1  0
 87 88  1  0
 88 91  1  0
 88 90  1  0
 89 87  2  0
 92 67  1  0
 92 93  1  0
 94 92  1  0
M  ISO  4  12 101  13 101  57 100  65 100
M  END
>  <TORSDO>  (14) 
F 21

>  <SCORE>  (14) 
-12.481

>  <name>  (14) 
13

>  <ligand_id>  (14) 
13

>  <original_smiles>  (14) 
[H]c1c([H])c([H])c2c(c1[H])C([H])([H])C([H])([H])C([H])([H])C2([H])N([H])C(=O)C1([H])N(C(=O)C([H])(N([H])C(=O)C([H])(N([H])C([H])([H])[H])C([H])([H])[H])C(C([H])([H])[H])(C([H])([H])[H])C([H])([H])[H])C([H])([H])c2c([H])c(OC([H])([H])C([H])([H])c3c(C([H])([H])C([H])([H])C([H])([H])N([H])C(=O)N4C([H])([H])C([H])([H])C([H])([H])C([H])(n5nc(-c6c([H])c([H])c(Oc7c([H])c([H])c(F)c([H])c7F)c([H])c6[H])c(C(=O)N([H])[H])c5N([H])[H])C4([H])[H])nc4c([H])c(C([H])([H])[H])nn4c3[H])c([H])c([H])c2C1([H])[H]

>  <smiles>  (14) 
[H]c1c([H])c([H])c2c(c1[H])C([H])([H])C([H])([H])C([H])([H])C2([H])N([H])C(=O)C1([H])N(C(=O)C([H])(N([H])C(=O)C([H])(N([H])C([H])([H])[H])C([H])([H])[H])C(C([H])([H])[H])(C([H])([H])[H])C([H])([H])[H])C([H])([H])c2c([H])c(OC([H])([H])C([H])([H])c3c(C([H])([H])C([H])([H])C([H])([H])N([H])C(=O)N4C([H])([H])C([H])([H])C([H])([H])C([H])(n5nc(-c6c([H])c([H])c(Oc7c([H])c([H])c(F)c([H])c7F)c([H])c6[H])c(C(=O)N([H])[H])c5N([H])[H])C4([H])[H])nc4c([H])c(C([H])([H])[H])nn4c3[H])c([H])c([H])c2C1([H])[H]

$$$$
14:0:0
     RDKit          3D

 89 97  0  0  1  0  0  0  0  0999 V2000
  -28.9550  -21.8760   19.3100 C   0  0  0  0  0  3  0  0  0  0  0  0
  -29.9680  -22.1000   21.4650 C   0  0  0  0  0  3  0  0  0  0  0  0
  -29.7160  -21.2820   20.3420 C   0  0  0  0  0  0  0  0  0  0  0  0
  -28.4770  -23.2080   19.4420 C   0  0  0  0  0  0  0  0  0  0  0  0
  -28.7660  -23.9480   20.6180 C   0  0  0  0  0  0  0  0  0  0  0  0
  -27.6330  -23.8010   18.3270 C   0  0  0  0  0  1  0  0  0  0  0  0
  -29.5090  -23.3740   21.6000 N   0  0  0  0  0  0  0  0  0  0  0  0
  -30.3820  -19.8850   20.1690 C   0  0  0  0  0  2  0  0  0  0  0  0
  -29.6970  -18.5930   20.7510 C   0  0  0  0  0  2  0  0  0  0  0  0
  -30.4800  -17.2550   20.4370 C   0  0  0  0  0  3  0  0  0  0  0  0
  -29.9170  -15.8820   20.9820 C   0  0  0  0  0  3  0  0  0  0  0  0
  -30.6460  -14.5870   20.4660 C   0  0  0  0  0  0  0  0  0  0  0  0
  -30.3800  -12.3880   19.3470 C   0  0  0  0  0  2  0  0  0  0  0  0
  -29.4510  -12.5700   18.1270 C   0  0  0  0  0  2  0  0  0  0  0  0
  -27.9740  -12.4240   18.5410 C   0  0  0  0  0  2  0  0  0  0  0  0
  -27.6190  -13.2740   19.7910 C   0  0  0  0  0  3  0  0  0  0  0  0
  -28.6660  -13.0940   20.9120 C   0  0  0  0  0  2  0  0  0  0  0  0
  -29.9910  -13.3930   20.3540 N   0  0  0  0  0  0  0  0  0  0  0  0
  -31.7970  -14.7160   20.0390 O   0  0  0  0  0  0  0  0  0  0  0  0
  -25.2170  -13.8850   20.4760 C   0  0  0  0  0  0  0  0  0  0  0  0
  -24.1440  -13.1180   20.8390 C   0  0  0  0  0  0  0  0  0  0  0  0
  -24.6050  -11.7650   20.8280 C   0  0  0  0  0  0  0  0  0  0  0  0
  -26.2630  -13.0010   20.2630 N   0  0  0  0  0  0  0  0  0  0  0  0
  -25.8990  -11.7210   20.5350 N   0  0  0  0  0  0  0  0  0  0  0  0
  -23.8750  -10.5050   21.0220 C   0  0  0  0  0  0  0  0  0  0  0  0
  -24.2990   -9.5430   21.9640 C   0  0  0  0  0  3  0  0  0  0  0  0
  -23.5690   -8.3480   22.1450 C   0  0  0  0  0  3  0  0  0  0  0  0
  -22.4000   -8.1080   21.3840 C   0  0  0  0  0  0  0  0  0  0  0  0
  -21.9960   -9.0580   20.4320 C   0  0  0  0  0  3  0  0  0  0  0  0
  -22.7260  -10.2450   20.2480 C   0  0  0  0  0  3  0  0  0  0  0  0
  -21.6440   -6.9650   21.4740 O   0  0  0  0  0  0  0  0  0  0  0  0
  -21.5900   -6.2260   22.6290 C   0  0  0  0  0  0  0  0  0  0  0  0
  -21.1700   -6.7870   23.8540 C   0  0  0  0  0  3  0  0  0  0  0  0
  -21.0640   -5.9750   25.0020 C   0  0  0  0  0  3  0  0  0  0  0  0
  -21.3660   -4.6030   24.9240 C   0  0  0  0  0  0  0  0  0  0  0  0
  -21.7800   -4.0410   23.7030 C   0  0  0  0  0  3  0  0  0  0  0  0
  -21.8880   -4.8500   22.5580 C   0  0  0  0  0  0  0  0  0  0  0  0
  -22.2660   -4.2990   21.3790 F   0  0  0  0  0  0  0  0  0  0  0  0
  -21.2570   -3.8210   26.0230 F   0  0  0  0  0  0  0  0  0  0  0  0
  -22.7450  -13.5990   21.0900 C   0  0  0  0  0  0  0  0  0  0  0  0
  -22.0050  -12.9120   21.9550 N   0  0  0  0  0  0  0  0  0  0  0  0
  -22.3130  -14.6190   20.5540 O   0  0  0  0  0  0  0  0  0  0  0  0
  -22.3670  -12.0870   22.4100 H   0  0  0  0  0  0  0  0  0  0  0  0
  -21.0660  -13.2180   22.1650 H   0  0  0  0  0  0  0  0  0  0  0  0
  -25.3870  -15.2540   20.2870 N   0  0  0  0  0  0  0  0  0  0  0  0
  -24.6220  -15.9130   20.3860 H   0  0  0  0  0  0  0  0  0  0  0  0
  -26.2460  -15.6890   19.9780 H   0  0  0  0  0  0  0  0  0  0  0  0
  -28.0850  -25.3090   20.9830 C   0  0  0  0  0  2  0  0  0  0  0  0
  -28.3270  -26.5180   20.1870 O   0  0  0  0  0  0  0  0  0  0  0  0
  -24.6070  -31.8740   23.2170 C   0  0  0  0  0  0  0  0  0  0  0  0
  -27.2300  -27.3720   20.1480 C   0  0  0  0  0  0  0  0  0  0  0  0
  -23.4020  -30.4760   21.5750 C   0  0  0  0  0  3  0  0  0  0  0  0
  -24.8560  -28.9400   20.1430 C   0  0  0  0  0  0  0  0  0  0  0  0
  -25.9370  -30.8150   21.3850 C   0  0  0  0  0  2  0  0  0  0  0  0
  -26.0210  -29.4420   20.7370 C   0  0  0  0  0  0  0  0  0  0  0  0
  -27.2160  -28.6690   20.7330 C   0  0  0  0  0  3  0  0  0  0  0  0
  -26.0480  -26.9150   19.5260 C   0  0  0  0  0  3  0  0  0  0  0  0
  -24.8680  -27.6780   19.5300 C   0  0  0  0  0  3  0  0  0  0  0  0
  -23.6140  -29.8030   20.1930 C   0  0  0  0  0  2  0  0  0  0  0  0
  -24.6670  -31.0720   22.1160 N   0  0  0  0  0  0  0  0  0  0  0  0
  -23.5240  -32.1490   23.7540 O   0  0  0  0  0  0  0  0  0  0  0  0
  -22.7460  -29.4550   22.5330 C   0  0  0  0  0  0  0  0  0  0  0  0
  -21.4200  -29.2750   22.4050 N   0  0  0  0  0  0  0  0  0  0  0  0
  -23.4270  -28.8290   23.3500 O   0  0  0  0  0  0  0  0  0  0  0  0
  -20.9310  -29.8320   21.7190 H   0  0  0  0  0  0  0  0  0  0  0  0
  -18.0450  -28.0740   22.8980 C   0  0  0  0  0  0  0  0  0  0  0  0
  -20.6020  -28.3370   23.1760 C   0  0  0  0  0  3  0  0  0  0  0  0
  -20.7080  -26.9050   22.6030 C   0  0  0  0  0  2  0  0  0  0  0  0
  -19.6090  -26.5800   21.5850 C   0  0  0  0  0  2  0  0  0  0  0  0
  -18.2260  -26.7240   22.2250 C   0  0  0  0  0  2  0  0  0  0  0  0
  -19.1610  -28.8390   23.3300 C   0  0  0  0  0  0  0  0  0  0  0  0
  -18.9390  -30.1020   23.9180 C   0  0  0  0  0  3  0  0  0  0  0  0
  -17.6330  -30.6030   24.0780 C   0  0  0  0  0  3  0  0  0  0  0  0
  -16.5310  -29.8350   23.6630 C   0  0  0  0  0  3  0  0  0  0  0  0
  -16.7380  -28.5720   23.0790 C   0  0  0  0  0  3  0  0  0  0  0  0
  -25.8910  -32.5060   23.8370 C   0  0  0  0  0  3  0  0  0  0  0  0
  -25.5810  -33.9030   24.1730 N   0  0  0  0  0  0  0  0  0  0  0  0
  -25.9090  -34.9580   23.4170 C   0  0  0  0  0  0  0  0  0  0  0  0
  -26.5780  -34.8590   22.3830 O   0  0  0  0  0  0  0  0  0  0  0  0
  -24.9870  -34.0530   24.9760 H   0  0  0  0  0  0  0  0  0  0  0  0
  -24.1790  -36.7500   23.0700 C   0  0  0  0  0  1  0  0  0  0  0  0
  -25.4210  -36.3450   23.8800 C   0  0  0  0  0  3  0  0  0  0  0  0
  -27.5560  -37.2280   24.7100 C   0  0  0  0  0  1  0  0  0  0  0  0
  -26.4520  -37.3990   23.7700 N   0  0  0  0  0  0  0  0  0  0  0  0
  -26.0460  -38.3180   23.9240 H   0  0  0  0  0  0  0  0  0  0  0  0
  -26.4130  -31.7300   25.1090 C   0  0  1  0  0  0  0  0  0  0  0  0
  -25.3220  -31.4880   26.1790 C   0  0  0  0  0  1  0  0  0  0  0  0
  -26.9940  -30.3540   24.7090 C   0  0  0  0  0  1  0  0  0  0  0  0
  -27.5640  -32.5230   25.7700 C   0  0  0  0  0  1  0  0  0  0  0  0
  1  4  2  0
  1  3  1  0
  2  7  1  0
  3  2  2  0
  4  5  1  0
  5 48  1  0
  5  7  2  0
  6  4  1  0
  8  3  1  0
  8  9  1  0
 10  9  1  0
 10 11  2  0
 12 11  1  0
 13 18  1  0
 14 15  1  0
 14 13  1  0
 16 15  1  0
 16 23  1  0
 16 17  1  0
 18 12  1  0
 18 17  1  0
 19 12  2  0
 20 21  2  0
 21 40  1  0
 22 21  1  0
 22 25  1  0
 23 20  1  0
 23 24  1  0
 24 22  2  0
 25 26  1  0
 26 27  2  0
 28 31  1  0
 28 27  1  0
 29 28  2  0
 30 29  1  0
 30 25  2  0
 31 32  1  0
 32 33  1  0
 33 34  2  0
 35 34  1  0
 35 39  1  0
 36 35  2  0
 37 32  2  0
 37 36  1  0
 38 37  1  0
 40 41  1  0
 41 44  1  0
 41 43  1  0
 42 40  2  0
 45 46  1  0
 45 20  1  0
 47 45  1  0
 49 48  1  0
 50 61  2  0
 51 49  1  0
 51 56  1  0
 52 60  1  0
 52 62  1  0
 53 59  1  0
 53 55  1  0
 54 60  1  0
 55 54  1  0
 56 55  2  0
 57 58  1  0
 57 51  2  0
 58 53  2  0
 59 52  1  0
 60 50  1  0
 62 64  2  0
 63 62  1  0
 65 63  1  0
 66 75  2  0
 66 71  1  0
 67 63  1  0
 67 71  1  0
 68 67  1  0
 69 70  1  0
 69 68  1  0
 70 66  1  0
 71 72  2  0
 72 73  1  0
 74 73  2  0
 75 74  1  0
 76 50  1  0
 76 77  1  0
 76 86  1  0
 77 80  1  0
 78 82  1  0
 78 77  1  0
 79 78  2  0
 82 81  1  0
 84 82  1  0
 84 85  1  0
 84 83  1  0
 86 89  1  1
 86 87  1  0
 88 86  1  0
M  ISO  4  11 100  12 100  48 101  49 101
M  END
>  <TORSDO>  (15) 
F 21

>  <SCORE>  (15) 
-13.453

>  <name>  (15) 
14

>  <ligand_id>  (15) 
14

>  <original_smiles>  (15) 
[H]c1nc(C([H])([H])Oc2c([H])c([H])c3c(c2[H])C([H])([H])N(C(=O)C([H])(N([H])C(=O)C([H])(N([H])C([H])([H])[H])C([H])([H])[H])C(C([H])([H])[H])(C([H])([H])[H])C([H])([H])[H])C([H])(C(=O)N([H])C2([H])c4c([H])c([H])c([H])c([H])c4C([H])([H])C([H])([H])C2([H])[H])C3([H])[H])c(C([H])([H])[H])c([H])c1C([H])([H])C([H])([H])C([H])([H])C([H])([H])C(=O)N1C([H])([H])C([H])([H])C([H])([H])C([H])(n2nc(-c3c([H])c([H])c(Oc4c([H])c([H])c(F)c([H])c4F)c([H])c3[H])c(C(=O)N([H])[H])c2N([H])[H])C1([H])[H]

>  <smiles>  (15) 
[H]c1nc(C([H])([H])Oc2c([H])c([H])c3c(c2[H])C([H])([H])N(C(=O)C([H])(N([H])C(=O)C([H])(N([H])C([H])([H])[H])C([H])([H])[H])C(C([H])([H])[H])(C([H])([H])[H])C([H])([H])[H])C([H])(C(=O)N([H])C2([H])c4c([H])c([H])c([H])c([H])c4C([H])([H])C([H])([H])C2([H])[H])C3([H])[H])c(C([H])([H])[H])c([H])c1C([H])([H])C([H])([H])C([H])([H])C([H])([H])C(=O)N1C([H])([H])C([H])([H])C([H])([H])C([H])(n2nc(-c3c([H])c([H])c(Oc4c([H])c([H])c(F)c([H])c4F)c([H])c3[H])c(C(=O)N([H])[H])c2N([H])[H])C1([H])[H]

$$$$
15:0:0
     RDKit          3D

 89 97  0  0  1  0  0  0  0  0999 V2000
  -28.5270  -19.1620   20.8380 C   0  0  0  0  0  3  0  0  0  0  0  0
  -29.7950  -18.7830   20.2910 C   0  0  0  0  0  0  0  0  0  0  0  0
  -30.2290  -20.0300   19.8290 C   0  0  0  0  0  0  0  0  0  0  0  0
  -31.5020  -20.3370   19.1010 C   0  0  0  0  0  1  0  0  0  0  0  0
  -28.2310  -20.4710   20.7110 N   0  0  0  0  0  0  0  0  0  0  0  0
  -29.2870  -21.0570   20.0960 N   0  0  0  0  0  0  0  0  0  0  0  0
  -30.5810  -17.3910   20.2210 C   0  0  0  0  0  2  0  0  0  0  0  0
  -30.6990  -14.8100   20.2240 C   0  0  0  0  0  0  0  0  0  0  0  0
  -30.4200  -12.5620   19.1860 C   0  0  0  0  0  2  0  0  0  0  0  0
  -29.4610  -12.6730   17.9820 C   0  0  0  0  0  2  0  0  0  0  0  0
  -28.0000  -12.5000   18.4390 C   0  0  0  0  0  2  0  0  0  0  0  0
  -27.6580  -13.3600   19.6860 C   0  0  0  0  0  3  0  0  0  0  0  0
  -28.7450  -13.2650   20.7800 C   0  0  0  0  0  2  0  0  0  0  0  0
  -30.0280  -13.6100   20.1560 N   0  0  0  0  0  0  0  0  0  0  0  0
  -31.8800  -14.8630   19.8810 O   0  0  0  0  0  0  0  0  0  0  0  0
  -30.0000  -15.9910   20.4380 N   0  0  0  0  0  0  0  0  0  0  0  0
  -29.0220  -15.9130   20.6660 H   0  0  0  0  0  0  0  0  0  0  0  0
  -25.2860  -13.9310   20.4750 C   0  0  0  0  0  0  0  0  0  0  0  0
  -24.2320  -13.1480   20.8630 C   0  0  0  0  0  0  0  0  0  0  0  0
  -24.7000  -11.8000   20.8070 C   0  0  0  0  0  0  0  0  0  0  0  0
  -26.3280  -13.0590   20.2060 N   0  0  0  0  0  0  0  0  0  0  0  0
  -25.9840  -11.7720   20.4700 N   0  0  0  0  0  0  0  0  0  0  0  0
  -23.9810  -10.5320   21.0000 C   0  0  0  0  0  0  0  0  0  0  0  0
  -24.4210   -9.5670   21.9320 C   0  0  0  0  0  3  0  0  0  0  0  0
  -23.7020   -8.3660   22.1140 C   0  0  0  0  0  3  0  0  0  0  0  0
  -22.5290   -8.1210   21.3630 C   0  0  0  0  0  0  0  0  0  0  0  0
  -22.1070   -9.0740   20.4180 C   0  0  0  0  0  3  0  0  0  0  0  0
  -22.8270  -10.2660   20.2350 C   0  0  0  0  0  3  0  0  0  0  0  0
  -21.7810   -6.9710   21.4530 O   0  0  0  0  0  0  0  0  0  0  0  0
  -21.7240   -6.2370   22.6100 C   0  0  0  0  0  0  0  0  0  0  0  0
  -21.2580   -6.7940   23.8220 C   0  0  0  0  0  3  0  0  0  0  0  0
  -21.1510   -5.9870   24.9720 C   0  0  0  0  0  3  0  0  0  0  0  0
  -21.4980   -4.6240   24.9120 C   0  0  0  0  0  0  0  0  0  0  0  0
  -21.9540   -4.0660   23.7040 C   0  0  0  0  0  3  0  0  0  0  0  0
  -22.0650   -4.8710   22.5570 C   0  0  0  0  0  0  0  0  0  0  0  0
  -22.4850   -4.3240   21.3910 F   0  0  0  0  0  0  0  0  0  0  0  0
  -21.3880   -3.8470   26.0140 F   0  0  0  0  0  0  0  0  0  0  0  0
  -22.8380  -13.6170   21.1650 C   0  0  0  0  0  0  0  0  0  0  0  0
  -22.1270  -12.9070   22.0340 N   0  0  0  0  0  0  0  0  0  0  0  0
  -22.3880  -14.6490   20.6670 O   0  0  0  0  0  0  0  0  0  0  0  0
  -22.5060  -12.0740   22.4610 H   0  0  0  0  0  0  0  0  0  0  0  0
  -21.1910  -13.2000   22.2780 H   0  0  0  0  0  0  0  0  0  0  0  0
  -25.4410  -15.3030   20.3060 N   0  0  0  0  0  0  0  0  0  0  0  0
  -24.6730  -15.9530   20.4370 H   0  0  0  0  0  0  0  0  0  0  0  0
  -26.2700  -15.7420   19.9270 H   0  0  0  0  0  0  0  0  0  0  0  0
  -29.2480  -22.5080   19.6040 C   0  0  0  0  0  2  0  0  0  0  0  0
  -28.6070  -23.7510   20.4160 C   0  0  0  0  0  3  0  0  0  0  0  0
  -28.5580  -25.1720   19.6350 C   0  0  0  0  0  3  0  0  0  0  0  0
  -28.4010  -26.5040   20.3010 O   0  0  0  0  0  0  0  0  0  0  0  0
  -24.6070  -31.9100   23.2390 C   0  0  0  0  0  0  0  0  0  0  0  0
  -27.2630  -27.3330   20.2040 C   0  0  0  0  0  0  0  0  0  0  0  0
  -23.4240  -30.5040   21.5910 C   0  0  0  0  0  3  0  0  0  0  0  0
  -24.8900  -28.9550   20.1730 C   0  0  0  0  0  0  0  0  0  0  0  0
  -25.9630  -30.8250   21.4280 C   0  0  0  0  0  2  0  0  0  0  0  0
  -26.0510  -29.4440   20.7830 C   0  0  0  0  0  0  0  0  0  0  0  0
  -27.2350  -28.6440   20.7900 C   0  0  0  0  0  3  0  0  0  0  0  0
  -26.0740  -26.9020   19.5730 C   0  0  0  0  0  3  0  0  0  0  0  0
  -24.9070  -27.6920   19.5580 C   0  0  0  0  0  3  0  0  0  0  0  0
  -23.6490  -29.8250   20.2130 C   0  0  0  0  0  2  0  0  0  0  0  0
  -24.6840  -31.0990   22.1420 N   0  0  0  0  0  0  0  0  0  0  0  0
  -23.5180  -32.1830   23.7640 O   0  0  0  0  0  0  0  0  0  0  0  0
  -22.7590  -29.4870   22.5490 C   0  0  0  0  0  0  0  0  0  0  0  0
  -21.4330  -29.3120   22.4210 N   0  0  0  0  0  0  0  0  0  0  0  0
  -23.4360  -28.8600   23.3690 O   0  0  0  0  0  0  0  0  0  0  0  0
  -20.9480  -29.8710   21.7340 H   0  0  0  0  0  0  0  0  0  0  0  0
  -18.0500  -28.1300   22.9280 C   0  0  0  0  0  0  0  0  0  0  0  0
  -20.6110  -28.3710   23.1860 C   0  0  0  0  0  3  0  0  0  0  0  0
  -20.7010  -26.9440   22.5970 C   0  0  0  0  0  2  0  0  0  0  0  0
  -19.5910  -26.6380   21.5870 C   0  0  0  0  0  2  0  0  0  0  0  0
  -18.2140  -26.7860   22.2390 C   0  0  0  0  0  2  0  0  0  0  0  0
  -19.1750  -28.8810   23.3590 C   0  0  0  0  0  0  0  0  0  0  0  0
  -18.9680  -30.1400   23.9630 C   0  0  0  0  0  3  0  0  0  0  0  0
  -17.6670  -30.6470   24.1420 C   0  0  0  0  0  3  0  0  0  0  0  0
  -16.5550  -29.8920   23.7270 C   0  0  0  0  0  3  0  0  0  0  0  0
  -16.7480  -28.6360   23.1250 C   0  0  0  0  0  3  0  0  0  0  0  0
  -25.8810  -32.5520   23.8720 C   0  0  0  0  0  3  0  0  0  0  0  0
  -26.3760  -31.7990   25.1660 C   0  0  1  0  0  0  0  0  0  0  0  0
  -25.2690  -31.5770   26.2230 C   0  0  0  0  0  1  0  0  0  0  0  0
  -26.9660  -30.4160   24.8020 C   0  0  0  0  0  1  0  0  0  0  0  0
  -27.5170  -32.6030   25.8340 C   0  0  0  0  0  1  0  0  0  0  0  0
  -25.5650  -33.9550   24.1820 N   0  0  0  0  0  0  0  0  0  0  0  0
  -25.9080  -35.0010   23.4170 C   0  0  0  0  0  0  0  0  0  0  0  0
  -26.5930  -34.8870   22.3980 O   0  0  0  0  0  0  0  0  0  0  0  0
  -24.9570  -34.1170   24.9710 H   0  0  0  0  0  0  0  0  0  0  0  0
  -24.1920  -36.7970   23.0170 C   0  0  0  0  0  1  0  0  0  0  0  0
  -25.4160  -36.3940   23.8540 C   0  0  0  0  0  3  0  0  0  0  0  0
  -27.5340  -37.2840   24.7230 C   0  0  0  0  0  1  0  0  0  0  0  0
  -26.4540  -37.4440   23.7530 N   0  0  0  0  0  0  0  0  0  0  0  0
  -26.0470  -38.3670   23.8790 H   0  0  0  0  0  0  0  0  0  0  0  0
  2  1  1  0
  3  6  1  0
  3  2  2  0
  4  3  1  0
  5  1  2  0
  6  5  1  0
  7  2  1  0
  7 16  1  0
  8 16  1  0
  9 14  1  0
 10 11  1  0
 10  9  1  0
 12 11  1  0
 12 21  1  0
 12 13  1  0
 14  8  1  0
 14 13  1  0
 15  8  2  0
 16 17  1  0
 18 19  2  0
 19 38  1  0
 20 19  1  0
 20 23  1  0
 21 22  1  0
 21 18  1  0
 22 20  2  0
 23 24  1  0
 24 25  2  0
 26 29  1  0
 26 25  1  0
 27 26  2  0
 28 27  1  0
 28 23  2  0
 29 30  1  0
 30 31  1  0
 31 32  2  0
 33 32  1  0
 33 37  1  0
 34 33  2  0
 35 30  2  0
 35 34  1  0
 36 35  1  0
 38 39  1  0
 39 42  1  0
 39 41  1  0
 40 38  2  0
 43 44  1  0
 43 18  1  0
 45 43  1  0
 46  6  1  0
 46 47  1  0
 48 49  1  0
 48 47  2  0
 50 61  2  0
 51 49  1  0
 51 56  1  0
 52 60  1  0
 52 62  1  0
 53 59  1  0
 53 55  1  0
 54 60  1  0
 55 56  2  0
 55 54  1  0
 57 51  2  0
 58 57  1  0
 58 53  2  0
 59 52  1  0
 60 50  1  0
 62 64  2  0
 63 62  1  0
 65 63  1  0
 66 75  2  0
 66 71  1  0
 67 63  1  0
 67 71  1  0
 68 67  1  0
 69 70  1  0
 69 68  1  0
 70 66  1  0
 71 72  2  0
 72 73  1  0
 74 73  2  0
 75 74  1  0
 76 50  1  0
 76 81  1  0
 76 77  1  0
 77 80  1  1
 77 78  1  0
 79 77  1  0
 81 84  1  0
 82 86  1  0
 82 81  1  0
 83 82  2  0
 86 85  1  0
 88 86  1  0
 88 89  1  0
 88 87  1  0
M  ISO  4   8 100  16 100  48 101  49 101
M  END
>  <TORSDO>  (16) 
F 20

>  <SCORE>  (16) 
-13.615

>  <name>  (16) 
15

>  <ligand_id>  (16) 
15

>  <original_smiles>  (16) 
[H]c1nn(C([H])([H])C([H])([H])C([H])([H])Oc2c([H])c([H])c3c(c2[H])C([H])([H])N(C(=O)C([H])(N([H])C(=O)C([H])(N([H])C([H])([H])[H])C([H])([H])[H])C(C([H])([H])[H])(C([H])([H])[H])C([H])([H])[H])C([H])(C(=O)N([H])C2([H])c4c([H])c([H])c([H])c([H])c4C([H])([H])C([H])([H])C2([H])[H])C3([H])[H])c(C([H])([H])[H])c1C([H])([H])N([H])C(=O)N1C([H])([H])C([H])([H])C([H])([H])C([H])(n2nc(-c3c([H])c([H])c(Oc4c([H])c([H])c(F)c([H])c4F)c([H])c3[H])c(C(=O)N([H])[H])c2N([H])[H])C1([H])[H]

>  <smiles>  (16) 
[H]c1nn(C([H])([H])C([H])([H])C([H])([H])Oc2c([H])c([H])c3c(c2[H])C([H])([H])N(C(=O)C([H])(N([H])C(=O)C([H])(N([H])C([H])([H])[H])C([H])([H])[H])C(C([H])([H])[H])(C([H])([H])[H])C([H])([H])[H])C([H])(C(=O)N([H])C2([H])c4c([H])c([H])c([H])c([H])c4C([H])([H])C([H])([H])C2([H])[H])C3([H])[H])c(C([H])([H])[H])c1C([H])([H])N([H])C(=O)N1C([H])([H])C([H])([H])C([H])([H])C([H])(n2nc(-c3c([H])c([H])c(Oc4c([H])c([H])c(F)c([H])c4F)c([H])c3[H])c(C(=O)N([H])[H])c2N([H])[H])C1([H])[H]

$$$$
16:0:0
     RDKit          3D

 94102  0  0  1  0  0  0  0  0999 V2000
  -29.0030  -21.1560   22.1760 C   0  0  0  0  0  3  0  0  0  0  0  0
  -29.2590  -20.3640   21.0420 C   0  0  0  0  0  0  0  0  0  0  0  0
  -29.2580  -21.0670   19.8160 C   0  0  0  0  0  0  0  0  0  0  0  0
  -28.6690  -23.0350   20.8830 C   0  0  0  0  0  0  0  0  0  0  0  0
  -28.7220  -22.4750   22.0910 N   0  0  0  0  0  0  0  0  0  0  0  0
  -28.9320  -22.3830   19.7500 N   0  0  0  0  0  0  0  0  0  0  0  0
  -29.3960  -18.8240   21.1760 C   0  0  0  0  0  2  0  0  0  0  0  0
  -30.8190  -18.2100   21.0490 C   0  0  0  0  0  2  0  0  0  0  0  0
  -31.0760  -16.9000   21.8620 C   0  0  0  0  0  2  0  0  0  0  0  0
  -31.0830  -14.6740   20.6660 C   0  0  0  0  0  0  0  0  0  0  0  0
  -30.7870  -12.5060   19.5000 C   0  0  0  0  0  2  0  0  0  0  0  0
  -29.8960  -12.6890   18.2550 C   0  0  0  0  0  2  0  0  0  0  0  0
  -28.4060  -12.5740   18.6290 C   0  0  0  0  0  2  0  0  0  0  0  0
  -28.0310  -13.4460   19.8560 C   0  0  0  0  0  3  0  0  0  0  0  0
  -29.0340  -13.2340   21.0110 C   0  0  0  0  0  2  0  0  0  0  0  0
  -30.3840  -13.5160   20.4950 N   0  0  0  0  0  0  0  0  0  0  0  0
  -32.2050  -14.8470   20.1820 O   0  0  0  0  0  0  0  0  0  0  0  0
  -30.4600  -15.6540   21.3550 N   0  0  0  0  0  0  0  0  0  0  0  0
  -29.5350  -15.4320   21.6950 H   0  0  0  0  0  0  0  0  0  0  0  0
  -25.6190  -14.1070   20.4620 C   0  0  0  0  0  0  0  0  0  0  0  0
  -24.5220  -13.3600   20.7960 C   0  0  0  0  0  0  0  0  0  0  0  0
  -24.9560  -11.9980   20.7980 C   0  0  0  0  0  0  0  0  0  0  0  0
  -26.6540  -13.2020   20.2830 N   0  0  0  0  0  0  0  0  0  0  0  0
  -26.2560  -11.9290   20.5420 N   0  0  0  0  0  0  0  0  0  0  0  0
  -24.1970  -10.7530   20.9730 C   0  0  0  0  0  0  0  0  0  0  0  0
  -24.5680   -9.7900   21.9370 C   0  0  0  0  0  3  0  0  0  0  0  0
  -23.8120   -8.6100   22.0980 C   0  0  0  0  0  3  0  0  0  0  0  0
  -22.6690   -8.3840   21.2930 C   0  0  0  0  0  0  0  0  0  0  0  0
  -22.3160   -9.3360   20.3210 C   0  0  0  0  0  3  0  0  0  0  0  0
  -23.0730  -10.5080   20.1580 C   0  0  0  0  0  3  0  0  0  0  0  0
  -21.8880   -7.2560   21.3620 O   0  0  0  0  0  0  0  0  0  0  0  0
  -21.7580   -6.5400   22.5250 C   0  0  0  0  0  0  0  0  0  0  0  0
  -21.2950   -7.1360   23.7190 C   0  0  0  0  0  3  0  0  0  0  0  0
  -21.1110   -6.3490   24.8740 C   0  0  0  0  0  3  0  0  0  0  0  0
  -21.3790   -4.9680   24.8340 C   0  0  0  0  0  0  0  0  0  0  0  0
  -21.8330   -4.3710   23.6460 C   0  0  0  0  0  3  0  0  0  0  0  0
  -22.0200   -5.1560   22.4940 C   0  0  0  0  0  0  0  0  0  0  0  0
  -22.4390   -4.5720   21.3450 F   0  0  0  0  0  0  0  0  0  0  0  0
  -21.1940   -4.2090   25.9410 F   0  0  0  0  0  0  0  0  0  0  0  0
  -23.1250  -13.8680   21.0070 C   0  0  0  0  0  0  0  0  0  0  0  0
  -22.3540  -13.2060   21.8630 N   0  0  0  0  0  0  0  0  0  0  0  0
  -22.7230  -14.8880   20.4490 O   0  0  0  0  0  0  0  0  0  0  0  0
  -22.6880  -12.3780   22.3370 H   0  0  0  0  0  0  0  0  0  0  0  0
  -21.4160  -13.5300   22.0490 H   0  0  0  0  0  0  0  0  0  0  0  0
  -25.8230  -15.4720   20.2760 N   0  0  0  0  0  0  0  0  0  0  0  0
  -25.0720  -16.1510   20.3480 H   0  0  0  0  0  0  0  0  0  0  0  0
  -26.6990  -15.8800   19.9760 H   0  0  0  0  0  0  0  0  0  0  0  0
  -29.6080  -20.4010   18.4950 C   0  0  0  0  0  2  0  0  0  0  0  0
  -28.3850  -19.9400   17.6880 C   0  0  0  0  0  2  0  0  0  0  0  0
  -27.5970  -18.8490   15.5060 C   0  0  0  0  0  1  0  0  0  0  0  0
  -28.7930  -19.2800   16.3600 C   0  0  0  0  0  2  0  0  0  0  0  0
  -28.1330  -24.4840   20.8110 C   0  0  0  0  0  2  0  0  0  0  0  0
  -28.9900  -25.5240   20.0280 C   0  0  0  0  0  2  0  0  0  0  0  0
  -28.8500  -26.9160   20.4200 O   0  0  0  0  0  0  0  0  0  0  0  0
  -24.7500  -31.9740   23.3060 C   0  0  0  0  0  0  0  0  0  0  0  0
  -27.6430  -27.5910   20.3330 C   0  0  0  0  0  0  0  0  0  0  0  0
  -23.6470  -30.5270   21.6290 C   0  0  0  0  0  3  0  0  0  0  0  0
  -25.1990  -29.0360   20.2520 C   0  0  0  0  0  0  0  0  0  0  0  0
  -26.1650  -30.9680   21.5120 C   0  0  0  0  0  2  0  0  0  0  0  0
  -26.3180  -29.5970   20.8780 C   0  0  0  0  0  0  0  0  0  0  0  0
  -27.5390  -28.8810   20.9130 C   0  0  0  0  0  3  0  0  0  0  0  0
  -26.5050  -27.0520   19.6930 C   0  0  0  0  0  3  0  0  0  0  0  0
  -25.2900  -27.7640   19.6560 C   0  0  0  0  0  3  0  0  0  0  0  0
  -23.9240  -29.8500   20.2590 C   0  0  0  0  0  2  0  0  0  0  0  0
  -24.8690  -31.1740   22.2070 N   0  0  0  0  0  0  0  0  0  0  0  0
  -23.6430  -32.2080   23.8090 O   0  0  0  0  0  0  0  0  0  0  0  0
  -23.0020  -29.4870   22.5730 C   0  0  0  0  0  0  0  0  0  0  0  0
  -21.6820  -29.2850   22.4290 N   0  0  0  0  0  0  0  0  0  0  0  0
  -23.6860  -28.8640   23.3880 O   0  0  0  0  0  0  0  0  0  0  0  0
  -21.1900  -29.8410   21.7430 H   0  0  0  0  0  0  0  0  0  0  0  0
  -18.3150  -28.0600   22.8970 C   0  0  0  0  0  0  0  0  0  0  0  0
  -20.8700  -28.3240   23.1760 C   0  0  0  0  0  3  0  0  0  0  0  0
  -20.9800  -26.9060   22.5650 C   0  0  0  0  0  2  0  0  0  0  0  0
  -19.8820  -26.6040   21.5430 C   0  0  0  0  0  2  0  0  0  0  0  0
  -18.4980  -26.7280   22.1880 C   0  0  0  0  0  2  0  0  0  0  0  0
  -19.4300  -28.8160   23.3450 C   0  0  0  0  0  0  0  0  0  0  0  0
  -19.2060  -30.0660   23.9650 C   0  0  0  0  0  3  0  0  0  0  0  0
  -17.9000  -30.5570   24.1420 C   0  0  0  0  0  3  0  0  0  0  0  0
  -16.7990  -29.7950   23.7140 C   0  0  0  0  0  3  0  0  0  0  0  0
  -17.0070  -28.5480   23.0970 C   0  0  0  0  0  3  0  0  0  0  0  0
  -25.9920  -32.6510   23.9660 C   0  0  0  0  0  3  0  0  0  0  0  0
  -25.6340  -34.0440   24.2600 N   0  0  0  0  0  0  0  0  0  0  0  0
  -25.9620  -35.0940   23.4940 C   0  0  0  0  0  0  0  0  0  0  0  0
  -26.6720  -34.9930   22.4890 O   0  0  0  0  0  0  0  0  0  0  0  0
  -25.0110  -34.1960   25.0410 H   0  0  0  0  0  0  0  0  0  0  0  0
  -24.1930  -36.8260   23.0540 C   0  0  0  0  0  1  0  0  0  0  0  0
  -25.4200  -36.4740   23.9100 C   0  0  0  0  0  3  0  0  0  0  0  0
  -27.5030  -37.4370   24.7820 C   0  0  0  0  0  1  0  0  0  0  0  0
  -26.4220  -37.5570   23.8080 N   0  0  0  0  0  0  0  0  0  0  0  0
  -25.9840  -38.4650   23.9340 H   0  0  0  0  0  0  0  0  0  0  0  0
  -26.4830  -31.9140   25.2730 C   0  0  1  0  0  0  0  0  0  0  0  0
  -25.3550  -31.6400   26.2970 C   0  0  0  0  0  1  0  0  0  0  0  0
  -27.1360  -30.5580   24.9210 C   0  0  0  0  0  1  0  0  0  0  0  0
  -27.5740  -32.7600   25.9730 C   0  0  0  0  0  1  0  0  0  0  0  0
  2  7  1  0
  2  1  2  0
  3  2  1  0
  4  5  2  0
  5  1  1  0
  6  3  2  0
  6  4  1  0
  8  7  1  0
  8  9  1  0
 10 18  1  0
 11 16  1  0
 12 13  1  0
 12 11  1  0
 14 13  1  0
 14 23  1  0
 14 15  1  0
 16 10  1  0
 16 15  1  0
 17 10  2  0
 18 19  1  0
 18  9  1  0
 20 21  2  0
 21 22  1  0
 21 40  1  0
 22 25  1  0
 23 20  1  0
 23 24  1  0
 24 22  2  0
 25 26  1  0
 26 27  2  0
 28 31  1  0
 28 27  1  0
 29 28  2  0
 30 29  1  0
 30 25  2  0
 31 32  1  0
 32 33  1  0
 33 34  2  0
 35 34  1  0
 35 39  1  0
 36 35  2  0
 37 32  2  0
 37 36  1  0
 38 37  1  0
 40 41  1  0
 41 44  1  0
 41 43  1  0
 42 40  2  0
 45 46  1  0
 45 20  1  0
 47 45  1  0
 48  3  1  0
 49 48  1  0
 50 51  1  0
 51 49  1  0
 52  4  1  0
 53 54  1  0
 53 52  1  0
 55 66  2  0
 56 54  1  0
 56 61  1  0
 57 65  1  0
 57 67  1  0
 58 64  1  0
 58 60  1  0
 59 65  1  0
 60 61  2  0
 60 59  1  0
 62 56  2  0
 63 62  1  0
 63 58  2  0
 64 57  1  0
 65 55  1  0
 67 69  2  0
 68 67  1  0
 70 68  1  0
 71 80  2  0
 71 76  1  0
 72 68  1  0
 72 76  1  0
 73 72  1  0
 74 75  1  0
 74 73  1  0
 75 71  1  0
 76 77  2  0
 77 78  1  0
 79 78  2  0
 80 79  1  0
 81 55  1  0
 81 82  1  0
 81 91  1  0
 82 85  1  0
 83 87  1  0
 83 82  1  0
 84 83  2  0
 87 86  1  0
 89 87  1  0
 89 90  1  0
 89 88  1  0
 91 94  1  1
 91 92  1  0
 93 91  1  0
M  ISO  4  10 100  18 100  53 101  54 101
M  END
>  <TORSDO>  (17) 
F 24

>  <SCORE>  (17) 
-11.912

>  <name>  (17) 
16

>  <ligand_id>  (17) 
16

>  <original_smiles>  (17) 
[H]c1nc(C([H])([H])C([H])([H])Oc2c([H])c([H])c3c(c2[H])C([H])([H])N(C(=O)C([H])(N([H])C(=O)C([H])(N([H])C([H])([H])[H])C([H])([H])[H])C(C([H])([H])[H])(C([H])([H])[H])C([H])([H])[H])C([H])(C(=O)N([H])C2([H])c4c([H])c([H])c([H])c([H])c4C([H])([H])C([H])([H])C2([H])[H])C3([H])[H])nc(C([H])([H])C([H])([H])C([H])([H])C([H])([H])[H])c1C([H])([H])C([H])([H])C([H])([H])N([H])C(=O)N1C([H])([H])C([H])([H])C([H])([H])C([H])(n2nc(-c3c([H])c([H])c(Oc4c([H])c([H])c(F)c([H])c4F)c([H])c3[H])c(C(=O)N([H])[H])c2N([H])[H])C1([H])[H]

>  <smiles>  (17) 
[H]c1nc(C([H])([H])C([H])([H])Oc2c([H])c([H])c3c(c2[H])C([H])([H])N(C(=O)C([H])(N([H])C(=O)C([H])(N([H])C([H])([H])[H])C([H])([H])[H])C(C([H])([H])[H])(C([H])([H])[H])C([H])([H])[H])C([H])(C(=O)N([H])C2([H])c4c([H])c([H])c([H])c([H])c4C([H])([H])C([H])([H])C2([H])[H])C3([H])[H])nc(C([H])([H])C([H])([H])C([H])([H])C([H])([H])[H])c1C([H])([H])C([H])([H])C([H])([H])N([H])C(=O)N1C([H])([H])C([H])([H])C([H])([H])C([H])(n2nc(-c3c([H])c([H])c(Oc4c([H])c([H])c(F)c([H])c4F)c([H])c3[H])c(C(=O)N([H])[H])c2N([H])[H])C1([H])[H]

$$$$
17:0:0
     RDKit          3D

 94102  0  0  1  0  0  0  0  0999 V2000
  -30.1450  -21.8270   19.9250 C   0  0  0  0  0  3  0  0  0  0  0  0
  -29.7310  -20.7760   20.8210 C   0  0  0  0  0  0  0  0  0  0  0  0
  -29.4770  -23.1040   19.9450 C   0  0  0  0  0  0  0  0  0  0  0  0
  -28.1360  -22.2380   21.6220 C   0  0  0  0  0  0  0  0  0  0  0  0
  -28.7190  -21.0430   21.6640 N   0  0  0  0  0  0  0  0  0  0  0  0
  -28.4530  -23.2560   20.8150 N   0  0  0  0  0  0  0  0  0  0  0  0
  -30.4370  -19.3750   21.0810 C   0  0  0  0  0  2  0  0  0  0  0  0
  -29.8890  -18.0370   20.3830 C   0  0  0  0  0  2  0  0  0  0  0  0
  -30.9340  -15.6590   20.8120 C   0  0  0  0  0  0  0  0  0  0  0  0
  -30.9880  -13.3550   19.8760 C   0  0  0  0  0  2  0  0  0  0  0  0
  -30.1440  -13.3530   18.5810 C   0  0  0  0  0  2  0  0  0  0  0  0
  -28.6530  -13.1150   18.8920 C   0  0  0  0  0  2  0  0  0  0  0  0
  -28.1370  -13.9980   20.0600 C   0  0  0  0  0  3  0  0  0  0  0  0
  -29.1050  -13.9640   21.2640 C   0  0  0  0  0  2  0  0  0  0  0  0
  -30.4300  -14.3820   20.7840 N   0  0  0  0  0  0  0  0  0  0  0  0
  -32.0870  -15.8910   20.4410 O   0  0  0  0  0  0  0  0  0  0  0  0
  -30.0390  -16.6750   21.0540 N   0  0  0  0  0  0  0  0  0  0  0  0
  -29.1890  -16.3390   21.4840 H   0  0  0  0  0  0  0  0  0  0  0  0
  -25.6860  -14.4730   20.6610 C   0  0  0  0  0  0  0  0  0  0  0  0
  -24.6280  -13.6450   20.9260 C   0  0  0  0  0  0  0  0  0  0  0  0
  -25.1350  -12.3140   20.8410 C   0  0  0  0  0  0  0  0  0  0  0  0
  -26.7720  -13.6410   20.4420 N   0  0  0  0  0  0  0  0  0  0  0  0
  -26.4420  -12.3340   20.6050 N   0  0  0  0  0  0  0  0  0  0  0  0
  -24.4410  -11.0230   20.9170 C   0  0  0  0  0  0  0  0  0  0  0  0
  -24.7340  -10.0840   21.9300 C   0  0  0  0  0  3  0  0  0  0  0  0
  -24.0400   -8.8560   21.9900 C   0  0  0  0  0  3  0  0  0  0  0  0
  -23.0390   -8.5590   21.0330 C   0  0  0  0  0  0  0  0  0  0  0  0
  -22.7690   -9.4880   20.0130 C   0  0  0  0  0  3  0  0  0  0  0  0
  -23.4640  -10.7070   19.9520 C   0  0  0  0  0  3  0  0  0  0  0  0
  -22.3300   -7.3830   21.0000 O   0  0  0  0  0  0  0  0  0  0  0  0
  -21.9440   -6.7440   22.1520 C   0  0  0  0  0  0  0  0  0  0  0  0
  -21.0840   -7.3550   23.0910 C   0  0  0  0  0  3  0  0  0  0  0  0
  -20.6560   -6.6350   24.2260 C   0  0  0  0  0  3  0  0  0  0  0  0
  -21.0760   -5.3050   24.4150 C   0  0  0  0  0  0  0  0  0  0  0  0
  -21.9250   -4.6920   23.4760 C   0  0  0  0  0  3  0  0  0  0  0  0
  -22.3560   -5.4100   22.3470 C   0  0  0  0  0  0  0  0  0  0  0  0
  -23.1570   -4.8090   21.4340 F   0  0  0  0  0  0  0  0  0  0  0  0
  -20.6600   -4.6100   25.5000 F   0  0  0  0  0  0  0  0  0  0  0  0
  -23.2030  -14.0650   21.1490 C   0  0  0  0  0  0  0  0  0  0  0  0
  -22.4510  -13.2890   21.9240 N   0  0  0  0  0  0  0  0  0  0  0  0
  -22.7640  -15.1150   20.6820 O   0  0  0  0  0  0  0  0  0  0  0  0
  -22.8180  -12.4370   22.3200 H   0  0  0  0  0  0  0  0  0  0  0  0
  -21.4970  -13.5510   22.1220 H   0  0  0  0  0  0  0  0  0  0  0  0
  -25.8080  -15.8560   20.5740 N   0  0  0  0  0  0  0  0  0  0  0  0
  -24.9990  -16.4620   20.6540 H   0  0  0  0  0  0  0  0  0  0  0  0
  -26.6500  -16.3500   20.3090 H   0  0  0  0  0  0  0  0  0  0  0  0
  -29.7230  -24.2920   18.9090 C   0  0  0  0  0  2  0  0  0  0  0  0
  -29.3000  -25.8130   19.2520 C   0  0  0  0  0  2  0  0  0  0  0  0
  -28.9130  -26.8130   18.1920 O   0  0  0  0  0  0  0  0  0  0  0  0
  -24.8870  -31.1370   22.4100 C   0  0  0  0  0  0  0  0  0  0  0  0
  -27.7330  -27.5620   18.3870 C   0  0  0  0  0  0  0  0  0  0  0  0
  -23.7230  -29.9250   20.6060 C   0  0  0  0  0  3  0  0  0  0  0  0
  -25.2160  -28.8650   18.8210 C   0  0  0  0  0  0  0  0  0  0  0  0
  -26.1900  -30.5910   20.3340 C   0  0  0  0  0  2  0  0  0  0  0  0
  -26.3720  -29.3750   19.4250 C   0  0  0  0  0  0  0  0  0  0  0  0
  -27.6350  -28.7420   19.1960 C   0  0  0  0  0  3  0  0  0  0  0  0
  -26.5480  -27.1290   17.7520 C   0  0  0  0  0  3  0  0  0  0  0  0
  -25.3070  -27.7510   17.9740 C   0  0  0  0  0  3  0  0  0  0  0  0
  -23.8960  -29.5530   19.1120 C   0  0  0  0  0  2  0  0  0  0  0  0
  -24.9550  -30.5610   21.1740 N   0  0  0  0  0  0  0  0  0  0  0  0
  -23.8240  -31.1710   23.0470 O   0  0  0  0  0  0  0  0  0  0  0  0
  -23.2590  -28.6730   21.3880 C   0  0  0  0  0  0  0  0  0  0  0  0
  -21.9570  -28.3520   21.3010 N   0  0  0  0  0  0  0  0  0  0  0  0
  -24.0680  -28.0000   22.0330 O   0  0  0  0  0  0  0  0  0  0  0  0
  -21.3550  -28.9580   20.7610 H   0  0  0  0  0  0  0  0  0  0  0  0
  -18.7670  -26.7510   21.9030 C   0  0  0  0  0  0  0  0  0  0  0  0
  -21.3150  -27.1910   21.9220 C   0  0  0  0  0  3  0  0  0  0  0  0
  -21.4310  -25.9420   21.0200 C   0  0  0  0  0  2  0  0  0  0  0  0
  -20.2250  -25.7480   20.0950 C   0  0  0  0  0  2  0  0  0  0  0  0
  -18.9380  -25.6110   20.9120 C   0  0  0  0  0  2  0  0  0  0  0  0
  -19.8810  -27.5030   22.3630 C   0  0  0  0  0  0  0  0  0  0  0  0
  -19.6600  -28.5720   23.2590 C   0  0  0  0  0  3  0  0  0  0  0  0
  -18.3600  -28.8980   23.6880 C   0  0  0  0  0  3  0  0  0  0  0  0
  -17.2630  -28.1400   23.2400 C   0  0  0  0  0  3  0  0  0  0  0  0
  -17.4690  -27.0660   22.3560 C   0  0  0  0  0  3  0  0  0  0  0  0
  -26.1330  -31.8010   23.0680 C   0  0  0  0  0  3  0  0  0  0  0  0
  -25.6940  -33.0750   23.6580 N   0  0  0  0  0  0  0  0  0  0  0  0
  -25.8570  -34.2750   23.0890 C   0  0  0  0  0  0  0  0  0  0  0  0
  -26.4600  -34.4330   22.0230 O   0  0  0  0  0  0  0  0  0  0  0  0
  -25.1250  -33.0130   24.4910 H   0  0  0  0  0  0  0  0  0  0  0  0
  -23.9080  -35.8660   23.1790 C   0  0  0  0  0  1  0  0  0  0  0  0
  -25.2580  -35.4950   23.8160 C   0  0  0  0  0  3  0  0  0  0  0  0
  -27.3330  -36.5070   24.6510 C   0  0  0  0  0  1  0  0  0  0  0  0
  -26.1480  -36.6760   23.8150 N   0  0  0  0  0  0  0  0  0  0  0  0
  -25.6490  -37.5020   24.1310 H   0  0  0  0  0  0  0  0  0  0  0  0
  -26.8180  -30.8910   24.1590 C   0  0  1  0  0  0  0  0  0  0  0  0
  -25.8360  -30.3480   25.2250 C   0  0  0  0  0  1  0  0  0  0  0  0
  -27.5180  -29.6790   23.5030 C   0  0  0  0  0  1  0  0  0  0  0  0
  -27.9200  -31.6960   24.8890 C   0  0  0  0  0  1  0  0  0  0  0  0
  -27.0210  -22.4510   22.6320 C   0  0  0  0  0  2  0  0  0  0  0  0
  -26.1610  -23.6950   22.3280 C   0  0  0  0  0  2  0  0  0  0  0  0
  -24.7410  -23.3470   21.8630 C   0  0  0  0  0  2  0  0  0  0  0  0
  -23.5840  -23.2610   19.5960 C   0  0  0  0  0  1  0  0  0  0  0  0
  -24.3020  -24.1430   20.6220 C   0  0  0  0  0  2  0  0  0  0  0  0
  1  3  1  0
  1  2  2  0
  2  7  1  0
  2  5  1  0
  3  6  2  0
  4  5  2  0
  4 90  1  0
  6  4  1  0
  8 17  1  0
  8  7  1  0
  9 17  1  0
 10 15  1  0
 11 12  1  0
 11 10  1  0
 13 12  1  0
 13 22  1  0
 13 14  1  0
 15  9  1  0
 15 14  1  0
 16  9  2  0
 17 18  1  0
 19 20  2  0
 20 39  1  0
 21 24  1  0
 21 20  1  0
 22 23  1  0
 22 19  1  0
 23 21  2  0
 24 25  1  0
 25 26  2  0
 27 26  1  0
 28 27  2  0
 29 28  1  0
 29 24  2  0
 30 27  1  0
 30 31  1  0
 31 36  2  0
 31 32  1  0
 32 33  2  0
 33 34  1  0
 34 38  1  0
 35 34  2  0
 36 35  1  0
 37 36  1  0
 39 40  1  0
 40 43  1  0
 40 42  1  0
 41 39  2  0
 44 45  1  0
 44 19  1  0
 46 44  1  0
 47 48  1  0
 47  3  1  0
 49 51  1  0
 49 48  1  0
 50 61  2  0
 51 56  1  0
 52 60  1  0
 52 62  1  0
 53 59  1  0
 53 55  1  0
 54 60  1  0
 55 54  1  0
 56 55  2  0
 57 58  1  0
 57 51  2  0
 58 53  2  0
 59 52  1  0
 60 50  1  0
 62 64  2  0
 63 62  1  0
 65 63  1  0
 66 75  2  0
 66 71  1  0
 67 63  1  0
 67 71  1  0
 68 67  1  0
 69 70  1  0
 69 68  1  0
 70 66  1  0
 71 72  2  0
 72 73  1  0
 74 73  2  0
 75 74  1  0
 76 50  1  0
 76 77  1  0
 76 86  1  0
 77 80  1  0
 78 77  1  0
 78 82  1  0
 79 78  2  0
 82 81  1  0
 84 82  1  0
 84 85  1  0
 84 83  1  0
 86 89  1  1
 86 87  1  0
 88 86  1  0
 91 90  1  0
 92 91  1  0
 93 94  1  0
 94 92  1  0
M  ISO  4   9 100  17 100  48 101  49 101
M  END
>  <TORSDO>  (18) 
F 24

>  <SCORE>  (18) 
-5.628

>  <name>  (18) 
17

>  <ligand_id>  (18) 
17

>  <original_smiles>  (18) 
[H]c1c(C([H])([H])C([H])([H])Oc2c([H])c([H])c3c(c2[H])C([H])([H])N(C(=O)C([H])(N([H])C(=O)C([H])(N([H])C([H])([H])[H])C([H])([H])[H])C(C([H])([H])[H])(C([H])([H])[H])C([H])([H])[H])C([H])(C(=O)N([H])C2([H])c4c([H])c([H])c([H])c([H])c4C([H])([H])C([H])([H])C2([H])[H])C3([H])[H])nc(C([H])([H])C([H])([H])C([H])([H])C([H])([H])C([H])([H])[H])nc1C([H])([H])C([H])([H])N([H])C(=O)N1C([H])([H])C([H])([H])C([H])([H])C([H])(n2nc(-c3c([H])c([H])c(Oc4c([H])c([H])c(F)c([H])c4F)c([H])c3[H])c(C(=O)N([H])[H])c2N([H])[H])C1([H])[H]

>  <smiles>  (18) 
[H]c1c(C([H])([H])C([H])([H])Oc2c([H])c([H])c3c(c2[H])C([H])([H])N(C(=O)C([H])(N([H])C(=O)C([H])(N([H])C([H])([H])[H])C([H])([H])[H])C(C([H])([H])[H])(C([H])([H])[H])C([H])([H])[H])C([H])(C(=O)N([H])C2([H])c4c([H])c([H])c([H])c([H])c4C([H])([H])C([H])([H])C2([H])[H])C3([H])[H])nc(C([H])([H])C([H])([H])C([H])([H])C([H])([H])C([H])([H])[H])nc1C([H])([H])C([H])([H])N([H])C(=O)N1C([H])([H])C([H])([H])C([H])([H])C([H])(n2nc(-c3c([H])c([H])c(Oc4c([H])c([H])c(F)c([H])c4F)c([H])c3[H])c(C(=O)N([H])[H])c2N([H])[H])C1([H])[H]

$$$$
18:0:0
     RDKit          3D

 91 99  0  0  1  0  0  0  0  0999 V2000
  -29.6210  -24.1110   20.3910 C   0  0  0  0  0  3  0  0  0  0  0  0
  -29.4060  -25.0720   21.4180 C   0  0  0  0  0  0  0  0  0  0  0  0
  -30.0850  -23.0010   21.0380 C   0  0  0  0  0  0  0  0  0  0  0  0
  -30.5390  -22.4950   23.5030 C   0  0  0  0  0  1  0  0  0  0  0  0
  -29.7100  -24.5830   22.6140 N   0  0  0  0  0  0  0  0  0  0  0  0
  -30.1280  -23.3180   22.3830 N   0  0  0  0  0  0  0  0  0  0  0  0
  -28.8800  -26.4800   21.2820 C   0  0  0  0  0  2  0  0  0  0  0  0
  -28.2160  -26.6560   20.0320 O   0  0  0  0  0  0  0  0  0  0  0  0
  -24.3390  -31.7640   23.1520 C   0  0  0  0  0  0  0  0  0  0  0  0
  -27.0800  -27.4290   20.0470 C   0  0  0  0  0  0  0  0  0  0  0  0
  -23.1750  -30.3920   21.4510 C   0  0  0  0  0  3  0  0  0  0  0  0
  -24.6700  -28.8960   20.0290 C   0  0  0  0  0  0  0  0  0  0  0  0
  -25.6970  -30.7770   21.3160 C   0  0  0  0  0  2  0  0  0  0  0  0
  -25.8060  -29.4210   20.6580 C   0  0  0  0  0  0  0  0  0  0  0  0
  -27.0130  -28.6950   20.6730 C   0  0  0  0  0  3  0  0  0  0  0  0
  -25.9370  -26.9160   19.4030 C   0  0  0  0  0  3  0  0  0  0  0  0
  -24.7290  -27.6390   19.3990 C   0  0  0  0  0  3  0  0  0  0  0  0
  -23.4180  -29.7400   20.0630 C   0  0  0  0  0  2  0  0  0  0  0  0
  -24.4200  -30.9910   22.0340 N   0  0  0  0  0  0  0  0  0  0  0  0
  -23.2450  -32.0200   23.6750 O   0  0  0  0  0  0  0  0  0  0  0  0
  -22.5080  -29.3490   22.3760 C   0  0  0  0  0  0  0  0  0  0  0  0
  -21.1820  -29.1950   22.2430 N   0  0  0  0  0  0  0  0  0  0  0  0
  -23.1820  -28.6830   23.1670 O   0  0  0  0  0  0  0  0  0  0  0  0
  -20.7010  -29.7840   21.5770 H   0  0  0  0  0  0  0  0  0  0  0  0
  -17.7760  -28.1080   22.7590 C   0  0  0  0  0  0  0  0  0  0  0  0
  -20.3470  -28.2450   22.9790 C   0  0  0  0  0  3  0  0  0  0  0  0
  -20.3780  -26.8490   22.3160 C   0  0  0  0  0  2  0  0  0  0  0  0
  -19.2390  -26.6320   21.3140 C   0  0  0  0  0  2  0  0  0  0  0  0
  -17.8800  -26.7960   22.0010 C   0  0  0  0  0  2  0  0  0  0  0  0
  -18.9350  -28.7970   23.2040 C   0  0  0  0  0  0  0  0  0  0  0  0
  -18.7840  -30.0320   23.8710 C   0  0  0  0  0  3  0  0  0  0  0  0
  -17.5050  -30.5760   24.0990 C   0  0  0  0  0  3  0  0  0  0  0  0
  -16.3600  -29.8820   23.6700 C   0  0  0  0  0  3  0  0  0  0  0  0
  -16.4970  -28.6500   23.0060 C   0  0  0  0  0  3  0  0  0  0  0  0
  -25.6100  -32.3840   23.8130 C   0  0  0  0  0  3  0  0  0  0  0  0
  -25.3110  -33.7910   24.1120 N   0  0  0  0  0  0  0  0  0  0  0  0
  -25.6730  -34.8240   23.3400 C   0  0  0  0  0  0  0  0  0  0  0  0
  -26.3650  -34.6940   22.3260 O   0  0  0  0  0  0  0  0  0  0  0  0
  -24.7030  -33.9680   24.8980 H   0  0  0  0  0  0  0  0  0  0  0  0
  -23.9620  -36.6170   22.9240 C   0  0  0  0  0  1  0  0  0  0  0  0
  -25.1920  -36.2250   23.7590 C   0  0  0  0  0  3  0  0  0  0  0  0
  -27.3200  -37.1200   24.5950 C   0  0  0  0  0  1  0  0  0  0  0  0
  -26.2330  -37.2680   23.6310 N   0  0  0  0  0  0  0  0  0  0  0  0
  -25.8320  -38.1940   23.7470 H   0  0  0  0  0  0  0  0  0  0  0  0
  -26.0690  -31.6220   25.1160 C   0  0  1  0  0  0  0  0  0  0  0  0
  -24.9320  -31.4080   26.1440 C   0  0  0  0  0  1  0  0  0  0  0  0
  -26.6500  -30.2340   24.7570 C   0  0  0  0  0  1  0  0  0  0  0  0
  -27.2000  -32.4110   25.8150 C   0  0  0  0  0  1  0  0  0  0  0  0
  -30.5060  -21.6770   20.4810 C   0  0  0  0  0  2  0  0  0  0  0  0
  -29.6740  -20.4780   20.9690 C   0  0  0  0  0  2  0  0  0  0  0  0
  -30.1210  -19.1760   20.2860 C   0  0  0  0  0  2  0  0  0  0  0  0
  -29.5100  -17.8930   20.8850 C   0  0  0  0  0  2  0  0  0  0  0  0
  -28.9500  -16.5040   18.8200 C   0  0  0  0  0  1  0  0  0  0  0  0
  -29.8710  -16.6410   20.0530 C   0  0  0  0  0  3  0  0  0  0  0  0
  -29.8770  -15.3340   20.8970 C   0  0  0  0  0  2  0  0  0  0  0  0
  -30.4690  -14.1340   20.1230 C   0  0  0  0  0  0  0  0  0  0  0  0
  -30.0800  -12.0200   18.9230 C   0  0  0  0  0  2  0  0  0  0  0  0
  -29.0460  -12.2700   17.8060 C   0  0  0  0  0  2  0  0  0  0  0  0
  -27.6090  -12.1200   18.3440 C   0  0  0  0  0  2  0  0  0  0  0  0
  -27.3760  -12.9110   19.6600 C   0  0  0  0  0  3  0  0  0  0  0  0
  -28.5140  -12.6370   20.6670 C   0  0  0  0  0  2  0  0  0  0  0  0
  -29.7890  -12.9640   20.0120 N   0  0  0  0  0  0  0  0  0  0  0  0
  -31.5350  -14.3230   19.5290 O   0  0  0  0  0  0  0  0  0  0  0  0
  -25.0320  -13.4890   20.5570 C   0  0  0  0  0  0  0  0  0  0  0  0
  -23.9990  -12.7020   20.9920 C   0  0  0  0  0  0  0  0  0  0  0  0
  -24.4650  -11.3550   20.8980 C   0  0  0  0  0  0  0  0  0  0  0  0
  -26.0630  -12.6190   20.2320 N   0  0  0  0  0  0  0  0  0  0  0  0
  -25.7270  -11.3290   20.4890 N   0  0  0  0  0  0  0  0  0  0  0  0
  -23.7630  -10.0830   21.1200 C   0  0  0  0  0  0  0  0  0  0  0  0
  -24.2380   -9.1290   22.0460 C   0  0  0  0  0  3  0  0  0  0  0  0
  -23.5360   -7.9230   22.2560 C   0  0  0  0  0  3  0  0  0  0  0  0
  -22.3450   -7.6610   21.5370 C   0  0  0  0  0  0  0  0  0  0  0  0
  -21.8890   -8.6030   20.5990 C   0  0  0  0  0  3  0  0  0  0  0  0
  -22.5920   -9.8020   20.3880 C   0  0  0  0  0  3  0  0  0  0  0  0
  -21.6120   -6.5050   21.6550 O   0  0  0  0  0  0  0  0  0  0  0  0
  -21.5730   -5.7930   22.8280 C   0  0  0  0  0  0  0  0  0  0  0  0
  -21.1100   -6.3660   24.0320 C   0  0  0  0  0  3  0  0  0  0  0  0
  -21.0220   -5.5790   25.1980 C   0  0  0  0  0  3  0  0  0  0  0  0
  -21.3860   -4.2200   25.1590 C   0  0  0  0  0  0  0  0  0  0  0  0
  -21.8410   -3.6460   23.9590 C   0  0  0  0  0  3  0  0  0  0  0  0
  -21.9310   -4.4300   22.7960 C   0  0  0  0  0  0  0  0  0  0  0  0
  -22.3500   -3.8670   21.6370 F   0  0  0  0  0  0  0  0  0  0  0  0
  -21.2940   -3.4610   26.2770 F   0  0  0  0  0  0  0  0  0  0  0  0
  -22.6250  -13.1630   21.3830 C   0  0  0  0  0  0  0  0  0  0  0  0
  -21.9680  -12.4400   22.2830 N   0  0  0  0  0  0  0  0  0  0  0  0
  -22.1440  -14.1990   20.9250 O   0  0  0  0  0  0  0  0  0  0  0  0
  -22.3710  -11.6020   22.6740 H   0  0  0  0  0  0  0  0  0  0  0  0
  -21.0490  -12.7300   22.5850 H   0  0  0  0  0  0  0  0  0  0  0  0
  -25.1760  -14.8640   20.3960 N   0  0  0  0  0  0  0  0  0  0  0  0
  -24.4200  -15.5140   20.5830 H   0  0  0  0  0  0  0  0  0  0  0  0
  -26.0080  -15.3130   20.0360 H   0  0  0  0  0  0  0  0  0  0  0  0
  1  3  2  0
  1  2  1  0
  2  5  2  0
  3  6  1  0
  6  5  1  0
  6  4  1  0
  7  2  1  0
  8 10  1  0
  8  7  1  0
  9 20  2  0
 10 15  1  0
 11 19  1  0
 11 21  1  0
 12 18  1  0
 12 14  1  0
 13 19  1  0
 14 15  2  0
 14 13  1  0
 16 10  2  0
 17 16  1  0
 17 12  2  0
 18 11  1  0
 19  9  1  0
 21 23  2  0
 22 21  1  0
 24 22  1  0
 25 34  2  0
 25 30  1  0
 26 22  1  0
 26 30  1  0
 27 26  1  0
 28 29  1  0
 28 27  1  0
 29 25  1  0
 30 31  2  0
 31 32  1  0
 33 32  2  0
 34 33  1  0
 35  9  1  0
 35 36  1  0
 35 45  1  0
 36 39  1  0
 37 41  1  0
 37 36  1  0
 38 37  2  0
 41 40  1  0
 43 44  1  0
 43 41  1  0
 43 42  1  0
 45 48  1  1
 45 46  1  0
 47 45  1  0
 49 50  1  0
 49  3  1  0
 51 52  1  0
 51 50  1  0
 54 53  1  0
 54 52  1  0
 54 55  1  0
 56 55  1  0
 57 62  1  0
 58 59  1  0
 58 57  1  0
 60 59  1  0
 60 67  1  0
 60 61  1  0
 62 56  1  0
 62 61  1  0
 63 56  2  0
 64 65  2  0
 65 84  1  0
 66 65  1  0
 66 69  1  0
 67 68  1  0
 67 64  1  0
 68 66  2  0
 69 70  1  0
 70 71  2  0
 72 75  1  0
 72 71  1  0
 73 72  2  0
 74 73  1  0
 74 69  2  0
 75 76  1  0
 76 77  1  0
 77 78  2  0
 79 78  1  0
 79 83  1  0
 80 79  2  0
 81 76  2  0
 81 80  1  0
 82 81  1  0
 84 85  1  0
 85 88  1  0
 85 87  1  0
 86 84  2  0
 89 64  1  0
 89 90  1  0
 91 89  1  0
M  ISO  4   7 101   8 101  55 100  56 100
M  END
>  <TORSDO>  (19) 
F 23

>  <SCORE>  (19) 
-12.058

>  <name>  (19) 
18

>  <ligand_id>  (19) 
18

>  <original_smiles>  (19) 
[H]c1c([H])c([H])c2c(c1[H])C([H])([H])C([H])([H])C([H])([H])C2([H])N([H])C(=O)C1([H])N(C(=O)C([H])(N([H])C(=O)C([H])(N([H])C([H])([H])[H])C([H])([H])[H])C(C([H])([H])[H])(C([H])([H])[H])C([H])([H])[H])C([H])([H])c2c([H])c(OC([H])([H])c3nn(C([H])([H])[H])c(C([H])([H])C([H])([H])C([H])([H])C([H])([H])C([H])(C([H])([H])[H])C([H])([H])C(=O)N4C([H])([H])C([H])([H])C([H])([H])C([H])(n5nc(-c6c([H])c([H])c(Oc7c([H])c([H])c(F)c([H])c7F)c([H])c6[H])c(C(=O)N([H])[H])c5N([H])[H])C4([H])[H])c3[H])c([H])c([H])c2C1([H])[H]

>  <smiles>  (19) 
[H]c1c([H])c([H])c2c(c1[H])C([H])([H])C([H])([H])C([H])([H])C2([H])N([H])C(=O)C1([H])N(C(=O)C([H])(N([H])C(=O)C([H])(N([H])C([H])([H])[H])C([H])([H])[H])C(C([H])([H])[H])(C([H])([H])[H])C([H])([H])[H])C([H])([H])c2c([H])c(OC([H])([H])c3nn(C([H])([H])[H])c(C([H])([H])C([H])([H])C([H])([H])C([H])([H])C([H])(C([H])([H])[H])C([H])([H])C(=O)N4C([H])([H])C([H])([H])C([H])([H])C([H])(n5nc(-c6c([H])c([H])c(Oc7c([H])c([H])c(F)c([H])c7F)c([H])c6[H])c(C(=O)N([H])[H])c5N([H])[H])C4([H])[H])c3[H])c([H])c([H])c2C1([H])[H]

$$$$
19:0:0
     RDKit          3D

 93101  0  0  1  0  0  0  0  0999 V2000
  -30.6190  -20.2390   19.8260 C   0  0  0  0  0  3  0  0  0  0  0  0
  -31.2040  -20.2240   21.1040 C   0  0  0  0  0  0  0  0  0  0  0  0
  -30.7940  -21.2450   21.9840 C   0  0  0  0  0  0  0  0  0  0  0  0
  -29.3440  -22.0400   20.4000 C   0  0  0  0  0  0  0  0  0  0  0  0
  -31.3770  -21.4330   23.3720 C   0  0  0  0  0  1  0  0  0  0  0  0
  -29.6960  -21.1550   19.4760 N   0  0  0  0  0  0  0  0  0  0  0  0
  -29.8530  -22.1340   21.6220 N   0  0  0  0  0  0  0  0  0  0  0  0
  -32.2600  -19.1850   21.4670 C   0  0  0  0  0  2  0  0  0  0  0  0
  -31.8380  -18.2220   22.6000 C   0  0  0  0  0  2  0  0  0  0  0  0
  -31.5020  -16.7900   22.1530 C   0  0  0  0  0  2  0  0  0  0  0  0
  -30.1430  -16.6500   21.4410 C   0  0  0  0  0  2  0  0  0  0  0  0
  -30.2820  -14.4410   20.2830 C   0  0  0  0  0  0  0  0  0  0  0  0
  -29.9410  -12.4020   18.9440 C   0  0  0  0  0  2  0  0  0  0  0  0
  -28.9250  -12.6770   17.8190 C   0  0  0  0  0  2  0  0  0  0  0  0
  -27.4850  -12.4630   18.3200 C   0  0  0  0  0  2  0  0  0  0  0  0
  -27.2030  -13.1930   19.6600 C   0  0  0  0  0  3  0  0  0  0  0  0
  -28.3200  -12.9040   20.6870 C   0  0  0  0  0  2  0  0  0  0  0  0
  -29.6130  -13.2780   20.0820 N   0  0  0  0  0  0  0  0  0  0  0  0
  -31.2780  -14.7670   19.6300 O   0  0  0  0  0  0  0  0  0  0  0  0
  -29.7600  -15.2550   21.2100 N   0  0  0  0  0  0  0  0  0  0  0  0
  -28.9530  -14.9100   21.7100 H   0  0  0  0  0  0  0  0  0  0  0  0
  -24.7880  -13.6610   20.4270 C   0  0  0  0  0  0  0  0  0  0  0  0
  -23.7840  -12.8280   20.8440 C   0  0  0  0  0  0  0  0  0  0  0  0
  -24.3300  -11.5090   20.8210 C   0  0  0  0  0  0  0  0  0  0  0  0
  -25.8830  -12.8450   20.1840 N   0  0  0  0  0  0  0  0  0  0  0  0
  -25.6090  -11.5470   20.4720 N   0  0  0  0  0  0  0  0  0  0  0  0
  -23.6940  -10.2060   21.0540 C   0  0  0  0  0  0  0  0  0  0  0  0
  -24.1810   -9.3140   22.0340 C   0  0  0  0  0  3  0  0  0  0  0  0
  -23.5430   -8.0740   22.2540 C   0  0  0  0  0  3  0  0  0  0  0  0
  -22.4030   -7.7180   21.4930 C   0  0  0  0  0  0  0  0  0  0  0  0
  -21.9360   -8.6010   20.5040 C   0  0  0  0  0  3  0  0  0  0  0  0
  -22.5750   -9.8320   20.2830 C   0  0  0  0  0  3  0  0  0  0  0  0
  -21.7330   -6.5270   21.6220 O   0  0  0  0  0  0  0  0  0  0  0  0
  -21.6870   -5.8510   22.8160 C   0  0  0  0  0  0  0  0  0  0  0  0
  -21.1510   -6.4380   23.9840 C   0  0  0  0  0  3  0  0  0  0  0  0
  -21.0580   -5.6820   25.1710 C   0  0  0  0  0  3  0  0  0  0  0  0
  -21.4920   -4.3430   25.1900 C   0  0  0  0  0  0  0  0  0  0  0  0
  -22.0180   -3.7560   24.0260 C   0  0  0  0  0  3  0  0  0  0  0  0
  -22.1120   -4.5080   22.8410 C   0  0  0  0  0  0  0  0  0  0  0  0
  -22.6020   -3.9320   21.7170 F   0  0  0  0  0  0  0  0  0  0  0  0
  -21.3960   -3.6150   26.3260 F   0  0  0  0  0  0  0  0  0  0  0  0
  -22.3680  -13.2180   21.1570 C   0  0  0  0  0  0  0  0  0  0  0  0
  -21.7140  -12.4930   22.0570 N   0  0  0  0  0  0  0  0  0  0  0  0
  -21.8460  -14.2040   20.6360 O   0  0  0  0  0  0  0  0  0  0  0  0
  -22.1470  -11.6970   22.5030 H   0  0  0  0  0  0  0  0  0  0  0  0
  -20.7660  -12.7370   22.3050 H   0  0  0  0  0  0  0  0  0  0  0  0
  -24.8590  -15.0360   20.2180 N   0  0  0  0  0  0  0  0  0  0  0  0
  -24.0570  -15.6450   20.3370 H   0  0  0  0  0  0  0  0  0  0  0  0
  -25.6760  -15.5210   19.8670 H   0  0  0  0  0  0  0  0  0  0  0  0
  -28.2700  -23.0500   20.0470 C   0  0  0  0  0  2  0  0  0  0  0  0
  -28.8100  -24.4610   19.7300 C   0  0  0  0  0  2  0  0  0  0  0  0
  -28.0770  -25.5300   20.5520 C   0  0  0  0  0  2  0  0  0  0  0  0
  -28.1930  -26.8260   19.9610 O   0  0  0  0  0  0  0  0  0  0  0  0
  -24.4930  -31.9250   23.2450 C   0  0  0  0  0  0  0  0  0  0  0  0
  -27.0340  -27.5620   19.9990 C   0  0  0  0  0  0  0  0  0  0  0  0
  -23.2360  -30.5730   21.6000 C   0  0  0  0  0  3  0  0  0  0  0  0
  -24.6470  -29.0620   20.1050 C   0  0  0  0  0  0  0  0  0  0  0  0
  -25.7590  -30.9240   21.3480 C   0  0  0  0  0  2  0  0  0  0  0  0
  -25.8220  -29.5710   20.6740 C   0  0  0  0  0  0  0  0  0  0  0  0
  -27.0220  -28.8320   20.6130 C   0  0  0  0  0  3  0  0  0  0  0  0
  -25.8470  -27.0630   19.4210 C   0  0  0  0  0  3  0  0  0  0  0  0
  -24.6540  -27.8070   19.4730 C   0  0  0  0  0  3  0  0  0  0  0  0
  -23.4080  -29.9240   20.2000 C   0  0  0  0  0  2  0  0  0  0  0  0
  -24.5160  -31.1510   22.1240 N   0  0  0  0  0  0  0  0  0  0  0  0
  -23.4260  -32.1930   23.8160 O   0  0  0  0  0  0  0  0  0  0  0  0
  -22.5990  -29.5320   22.5460 C   0  0  0  0  0  0  0  0  0  0  0  0
  -21.2740  -29.3510   22.4330 N   0  0  0  0  0  0  0  0  0  0  0  0
  -23.2940  -28.8900   23.3390 O   0  0  0  0  0  0  0  0  0  0  0  0
  -20.7730  -29.9230   21.7690 H   0  0  0  0  0  0  0  0  0  0  0  0
  -17.9070  -28.1510   22.9430 C   0  0  0  0  0  0  0  0  0  0  0  0
  -20.4670  -28.4010   23.1960 C   0  0  0  0  0  3  0  0  0  0  0  0
  -20.5630  -26.9780   22.5960 C   0  0  0  0  0  2  0  0  0  0  0  0
  -19.4510  -26.6740   21.5870 C   0  0  0  0  0  2  0  0  0  0  0  0
  -18.0760  -26.8110   22.2460 C   0  0  0  0  0  2  0  0  0  0  0  0
  -19.0300  -28.9050   23.3760 C   0  0  0  0  0  0  0  0  0  0  0  0
  -18.8190  -30.1610   23.9850 C   0  0  0  0  0  3  0  0  0  0  0  0
  -17.5170  -30.6630   24.1670 C   0  0  0  0  0  3  0  0  0  0  0  0
  -16.4080  -29.9060   23.7540 C   0  0  0  0  0  3  0  0  0  0  0  0
  -16.6030  -28.6520   23.1470 C   0  0  0  0  0  3  0  0  0  0  0  0
  -25.7980  -32.5320   23.8500 C   0  0  0  0  0  3  0  0  0  0  0  0
  -25.5160  -33.9300   24.1940 N   0  0  0  0  0  0  0  0  0  0  0  0
  -25.8700  -34.9830   23.4440 C   0  0  0  0  0  0  0  0  0  0  0  0
  -26.5370  -34.8760   22.4110 O   0  0  0  0  0  0  0  0  0  0  0  0
  -24.9320  -34.0890   25.0010 H   0  0  0  0  0  0  0  0  0  0  0  0
  -24.1840  -36.8160   23.1000 C   0  0  0  0  0  1  0  0  0  0  0  0
  -25.4100  -36.3760   23.9150 C   0  0  0  0  0  3  0  0  0  0  0  0
  -27.5560  -37.2030   24.7750 C   0  0  0  0  0  1  0  0  0  0  0  0
  -26.4680  -37.4060   23.8210 N   0  0  0  0  0  0  0  0  0  0  0  0
  -26.0810  -38.3320   23.9830 H   0  0  0  0  0  0  0  0  0  0  0  0
  -26.3270  -31.7400   25.1080 C   0  0  1  0  0  0  0  0  0  0  0  0
  -25.2480  -31.5030   26.1910 C   0  0  0  0  0  1  0  0  0  0  0  0
  -26.8840  -30.3610   24.6860 C   0  0  0  0  0  1  0  0  0  0  0  0
  -27.5020  -32.5080   25.7570 C   0  0  0  0  0  1  0  0  0  0  0  0
  1  2  2  0
  2  8  1  0
  2  3  1  0
  3  5  1  0
  4  7  1  0
  6  1  1  0
  6  4  2  0
  7  3  2  0
  8  9  1  0
 10  9  1  0
 11 10  1  0
 12 20  1  0
 13 18  1  0
 14 15  1  0
 14 13  1  0
 16 15  1  0
 16 25  1  0
 16 17  1  0
 18 12  1  0
 18 17  1  0
 19 12  2  0
 20 11  1  0
 20 21  1  0
 22 23  2  0
 23 42  1  0
 24 23  1  0
 24 27  1  0
 25 22  1  0
 25 26  1  0
 26 24  2  0
 27 28  1  0
 28 29  2  0
 30 33  1  0
 30 29  1  0
 31 30  2  0
 32 31  1  0
 32 27  2  0
 33 34  1  0
 34 39  2  0
 34 35  1  0
 35 36  2  0
 36 37  1  0
 37 41  1  0
 38 37  2  0
 39 38  1  0
 40 39  1  0
 42 43  1  0
 43 46  1  0
 43 45  1  0
 44 42  2  0
 47 48  1  0
 47 22  1  0
 49 47  1  0
 50  4  1  0
 51 50  1  0
 51 52  1  0
 53 55  1  0
 53 52  1  0
 54 65  2  0
 55 60  1  0
 56 64  1  0
 56 66  1  0
 57 63  1  0
 57 59  1  0
 58 64  1  0
 59 58  1  0
 60 59  2  0
 61 62  1  0
 61 55  2  0
 62 57  2  0
 63 56  1  0
 64 54  1  0
 66 68  2  0
 67 66  1  0
 69 67  1  0
 70 79  2  0
 70 75  1  0
 71 67  1  0
 71 75  1  0
 72 71  1  0
 73 74  1  0
 73 72  1  0
 74 70  1  0
 75 76  2  0
 76 77  1  0
 78 77  2  0
 79 78  1  0
 80 54  1  0
 80 81  1  0
 80 90  1  0
 81 84  1  0
 82 86  1  0
 82 81  1  0
 83 82  2  0
 86 85  1  0
 88 86  1  0
 88 89  1  0
 88 87  1  0
 90 93  1  1
 90 91  1  0
 92 90  1  0
M  ISO  4  12 100  20 100  52 101  53 101
M  END
>  <TORSDO>  (20) 
F 23

>  <SCORE>  (20) 
-11.536

>  <name>  (20) 
19

>  <ligand_id>  (20) 
19

>  <original_smiles>  (20) 
[H]c1nc(C([H])([H])C([H])([H])C([H])([H])Oc2c([H])c([H])c3c(c2[H])C([H])([H])N(C(=O)C([H])(N([H])C(=O)C([H])(N([H])C([H])([H])[H])C([H])([H])[H])C(C([H])([H])[H])(C([H])([H])[H])C([H])([H])[H])C([H])(C(=O)N([H])C2([H])c4c([H])c([H])c([H])c([H])c4C([H])([H])C([H])([H])C2([H])[H])C3([H])[H])nc(C([H])([H])[H])c1C([H])([H])C([H])([H])C([H])([H])C([H])([H])N([H])C(=O)N1C([H])([H])C([H])([H])C([H])([H])C([H])(n2nc(-c3c([H])c([H])c(Oc4c([H])c([H])c(F)c([H])c4F)c([H])c3[H])c(C(=O)N([H])[H])c2N([H])[H])C1([H])[H]

>  <smiles>  (20) 
[H]c1nc(C([H])([H])C([H])([H])C([H])([H])Oc2c([H])c([H])c3c(c2[H])C([H])([H])N(C(=O)C([H])(N([H])C(=O)C([H])(N([H])C([H])([H])[H])C([H])([H])[H])C(C([H])([H])[H])(C([H])([H])[H])C([H])([H])[H])C([H])(C(=O)N([H])C2([H])c4c([H])c([H])c([H])c([H])c4C([H])([H])C([H])([H])C2([H])[H])C3([H])[H])nc(C([H])([H])[H])c1C([H])([H])C([H])([H])C([H])([H])C([H])([H])N([H])C(=O)N1C([H])([H])C([H])([H])C([H])([H])C([H])(n2nc(-c3c([H])c([H])c(Oc4c([H])c([H])c(F)c([H])c4F)c([H])c3[H])c(C(=O)N([H])[H])c2N([H])[H])C1([H])[H]

$$$$
20:0:0
     RDKit          3D

 91 99  0  0  1  0  0  0  0  0999 V2000
  -30.3960  -21.8000   20.5810 C   0  0  0  0  0  3  0  0  0  0  0  0
  -30.0940  -20.4610   20.4980 C   0  0  0  0  0  0  0  0  0  0  0  0
  -29.4300  -20.3710   19.2300 C   0  0  0  0  0  0  0  0  0  0  0  0
  -28.8870  -19.1760   18.4960 C   0  0  0  0  0  1  0  0  0  0  0  0
  -29.3450  -21.5520   18.6210 N   0  0  0  0  0  0  0  0  0  0  0  0
  -29.9460  -22.4360   19.4420 N   0  0  0  0  0  0  0  0  0  0  0  0
  -30.4800  -19.4310   21.5660 C   0  0  0  0  0  2  0  0  0  0  0  0
  -29.8440  -18.0070   21.5620 C   0  0  0  0  0  3  0  0  0  0  0  0
  -30.6710  -16.9140   20.8340 C   0  0  0  0  0  3  0  0  0  0  0  0
  -30.7110  -14.4900   20.2930 C   0  0  0  0  0  0  0  0  0  0  0  0
  -30.3130  -12.3720   19.1000 C   0  0  0  0  0  2  0  0  0  0  0  0
  -29.3440  -12.6150   17.9240 C   0  0  0  0  0  2  0  0  0  0  0  0
  -27.8840  -12.4760   18.3900 C   0  0  0  0  0  2  0  0  0  0  0  0
  -27.5890  -13.2930   19.6760 C   0  0  0  0  0  3  0  0  0  0  0  0
  -28.6730  -13.0550   20.7540 C   0  0  0  0  0  2  0  0  0  0  0  0
  -29.9860  -13.3440   20.1570 N   0  0  0  0  0  0  0  0  0  0  0  0
  -31.8150  -14.6380   19.7670 O   0  0  0  0  0  0  0  0  0  0  0  0
  -30.1130  -15.5410   20.8970 N   0  0  0  0  0  0  0  0  0  0  0  0
  -29.2070  -15.4010   21.3150 H   0  0  0  0  0  0  0  0  0  0  0  0
  -25.2090  -13.9060   20.4420 C   0  0  0  0  0  0  0  0  0  0  0  0
  -24.1460  -13.1370   20.8330 C   0  0  0  0  0  0  0  0  0  0  0  0
  -24.6000  -11.7830   20.7860 C   0  0  0  0  0  0  0  0  0  0  0  0
  -26.2450  -13.0200   20.1850 N   0  0  0  0  0  0  0  0  0  0  0  0
  -25.8830  -11.7390   20.4480 N   0  0  0  0  0  0  0  0  0  0  0  0
  -23.8700  -10.5240   20.9910 C   0  0  0  0  0  0  0  0  0  0  0  0
  -24.3180   -9.5520   21.9130 C   0  0  0  0  0  3  0  0  0  0  0  0
  -23.5910   -8.3580   22.1040 C   0  0  0  0  0  3  0  0  0  0  0  0
  -22.4010   -8.1270   21.3740 C   0  0  0  0  0  0  0  0  0  0  0  0
  -21.9720   -9.0870   20.4410 C   0  0  0  0  0  3  0  0  0  0  0  0
  -22.6990  -10.2730   20.2470 C   0  0  0  0  0  3  0  0  0  0  0  0
  -21.6440   -6.9850   21.4730 O   0  0  0  0  0  0  0  0  0  0  0  0
  -21.6160   -6.2410   22.6260 C   0  0  0  0  0  0  0  0  0  0  0  0
  -21.2220   -6.7960   23.8620 C   0  0  0  0  0  3  0  0  0  0  0  0
  -21.1370   -5.9780   25.0070 C   0  0  0  0  0  3  0  0  0  0  0  0
  -21.4400   -4.6050   24.9150 C   0  0  0  0  0  0  0  0  0  0  0  0
  -21.8300   -4.0510   23.6840 C   0  0  0  0  0  3  0  0  0  0  0  0
  -21.9140   -4.8670   22.5420 C   0  0  0  0  0  0  0  0  0  0  0  0
  -22.2690   -4.3220   21.3520 F   0  0  0  0  0  0  0  0  0  0  0  0
  -21.3540   -3.8170   26.0120 F   0  0  0  0  0  0  0  0  0  0  0  0
  -22.7580  -13.6230   21.1370 C   0  0  0  0  0  0  0  0  0  0  0  0
  -22.0440  -12.9310   22.0190 N   0  0  0  0  0  0  0  0  0  0  0  0
  -22.3130  -14.6510   20.6290 O   0  0  0  0  0  0  0  0  0  0  0  0
  -22.4180  -12.1040   22.4590 H   0  0  0  0  0  0  0  0  0  0  0  0
  -21.1130  -13.2390   22.2600 H   0  0  0  0  0  0  0  0  0  0  0  0
  -25.3770  -15.2760   20.2650 N   0  0  0  0  0  0  0  0  0  0  0  0
  -24.6140  -15.9330   20.3870 H   0  0  0  0  0  0  0  0  0  0  0  0
  -26.2190  -15.7090   19.9070 H   0  0  0  0  0  0  0  0  0  0  0  0
  -30.1680  -23.8160   18.9990 C   0  0  0  0  0  2  0  0  0  0  0  0
  -28.9020  -24.7050   18.8820 C   0  0  0  0  0  2  0  0  0  0  0  0
  -28.4020  -25.3050   20.2140 C   0  0  0  0  0  2  0  0  0  0  0  0
  -28.4120  -26.7430   20.1970 O   0  0  0  0  0  0  0  0  0  0  0  0
  -24.5620  -31.8940   23.2460 C   0  0  0  0  0  0  0  0  0  0  0  0
  -27.2140  -27.4310   20.1910 C   0  0  0  0  0  0  0  0  0  0  0  0
  -23.3580  -30.4880   21.6030 C   0  0  0  0  0  3  0  0  0  0  0  0
  -24.8130  -28.9340   20.1920 C   0  0  0  0  0  0  0  0  0  0  0  0
  -25.8830  -30.8400   21.4120 C   0  0  0  0  0  2  0  0  0  0  0  0
  -25.9680  -29.4620   20.7840 C   0  0  0  0  0  0  0  0  0  0  0  0
  -27.1680  -28.7170   20.7810 C   0  0  0  0  0  3  0  0  0  0  0  0
  -26.0430  -26.9180   19.5910 C   0  0  0  0  0  3  0  0  0  0  0  0
  -24.8450  -27.6600   19.5960 C   0  0  0  0  0  3  0  0  0  0  0  0
  -23.5710  -29.7950   20.2280 C   0  0  0  0  0  2  0  0  0  0  0  0
  -24.6190  -31.0900   22.1440 N   0  0  0  0  0  0  0  0  0  0  0  0
  -23.4810  -32.1690   23.7830 O   0  0  0  0  0  0  0  0  0  0  0  0
  -22.7030  -29.4760   22.5690 C   0  0  0  0  0  0  0  0  0  0  0  0
  -21.3770  -29.2960   22.4380 N   0  0  0  0  0  0  0  0  0  0  0  0
  -23.3810  -28.8530   23.3900 O   0  0  0  0  0  0  0  0  0  0  0  0
  -20.8930  -29.8500   21.7460 H   0  0  0  0  0  0  0  0  0  0  0  0
  -18.0000  -28.1120   22.9290 C   0  0  0  0  0  0  0  0  0  0  0  0
  -20.5570  -28.3640   23.2100 C   0  0  0  0  0  3  0  0  0  0  0  0
  -20.6590  -26.9300   22.6380 C   0  0  0  0  0  2  0  0  0  0  0  0
  -19.5590  -26.6080   21.6210 C   0  0  0  0  0  2  0  0  0  0  0  0
  -18.1750  -26.7590   22.2590 C   0  0  0  0  0  2  0  0  0  0  0  0
  -19.1190  -28.8710   23.3600 C   0  0  0  0  0  0  0  0  0  0  0  0
  -18.9020  -30.1380   23.9460 C   0  0  0  0  0  3  0  0  0  0  0  0
  -17.5980  -30.6430   24.1050 C   0  0  0  0  0  3  0  0  0  0  0  0
  -16.4930  -29.8810   23.6880 C   0  0  0  0  0  3  0  0  0  0  0  0
  -16.6950  -28.6170   23.1040 C   0  0  0  0  0  3  0  0  0  0  0  0
  -25.8490  -32.5250   23.8670 C   0  0  0  0  0  3  0  0  0  0  0  0
  -25.5450  -33.9260   24.1840 N   0  0  0  0  0  0  0  0  0  0  0  0
  -25.8880  -34.9720   23.4210 C   0  0  0  0  0  0  0  0  0  0  0  0
  -26.5680  -34.8590   22.3970 O   0  0  0  0  0  0  0  0  0  0  0  0
  -24.9490  -34.0860   24.9830 H   0  0  0  0  0  0  0  0  0  0  0  0
  -24.1740  -36.7720   23.0300 C   0  0  0  0  0  1  0  0  0  0  0  0
  -25.4010  -36.3660   23.8620 C   0  0  0  0  0  3  0  0  0  0  0  0
  -27.5310  -37.2430   24.7140 C   0  0  0  0  0  1  0  0  0  0  0  0
  -26.4410  -37.4140   23.7550 N   0  0  0  0  0  0  0  0  0  0  0  0
  -26.0410  -38.3380   23.8890 H   0  0  0  0  0  0  0  0  0  0  0  0
  -26.3560  -31.7600   25.1500 C   0  0  1  0  0  0  0  0  0  0  0  0
  -25.2580  -31.5370   26.2170 C   0  0  0  0  0  1  0  0  0  0  0  0
  -26.9320  -30.3770   24.7690 C   0  0  0  0  0  1  0  0  0  0  0  0
  -27.5060  -32.5540   25.8140 C   0  0  0  0  0  1  0  0  0  0  0  0
  2  1  2  0
  2  7  1  0
  3  2  1  0
  4  3  1  0
  5  3  2  0
  5  6  1  0
  6  1  1  0
  8  7  1  0
  9 18  1  0
  9  8  2  0
 10 18  1  0
 11 16  1  0
 12 13  1  0
 12 11  1  0
 14 13  1  0
 14 23  1  0
 14 15  1  0
 16 10  1  0
 16 15  1  0
 17 10  2  0
 18 19  1  0
 20 21  2  0
 21 40  1  0
 22 21  1  0
 22 25  1  0
 23 20  1  0
 23 24  1  0
 24 22  2  0
 25 26  1  0
 26 27  2  0
 28 31  1  0
 28 27  1  0
 29 28  2  0
 30 29  1  0
 30 25  2  0
 31 32  1  0
 32 33  1  0
 33 34  2  0
 35 34  1  0
 35 39  1  0
 36 35  2  0
 37 32  2  0
 37 36  1  0
 38 37  1  0
 40 41  1  0
 41 44  1  0
 41 43  1  0
 42 40  2  0
 45 46  1  0
 45 20  1  0
 47 45  1  0
 48  6  1  0
 49 48  1  0
 49 50  1  0
 51 50  1  0
 52 63  2  0
 53 51  1  0
 53 58  1  0
 54 62  1  0
 54 64  1  0
 55 61  1  0
 55 57  1  0
 56 62  1  0
 57 56  1  0
 58 57  2  0
 59 60  1  0
 59 53  2  0
 60 55  2  0
 61 54  1  0
 62 52  1  0
 64 66  2  0
 65 64  1  0
 67 65  1  0
 68 77  2  0
 68 73  1  0
 69 65  1  0
 69 73  1  0
 70 69  1  0
 71 72  1  0
 71 70  1  0
 72 68  1  0
 73 74  2  0
 74 75  1  0
 76 75  2  0
 77 76  1  0
 78 52  1  0
 78 79  1  0
 78 88  1  0
 79 82  1  0
 80 84  1  0
 80 79  1  0
 81 80  2  0
 84 83  1  0
 86 84  1  0
 86 87  1  0
 86 85  1  0
 88 91  1  1
 88 89  1  0
 90 88  1  0
M  ISO  4  10 100  18 100  50 101  51 101
M  END
>  <TORSDO>  (21) 
F 22

>  <SCORE>  (21) 
-12.927

>  <name>  (21) 
20

>  <ligand_id>  (21) 
20

>  <original_smiles>  (21) 
[H]c1c([H])c([H])c2c(c1[H])C([H])([H])C([H])([H])C([H])([H])C2([H])N([H])C(=O)C1([H])N(C(=O)C([H])(N([H])C(=O)C([H])(N([H])C([H])([H])[H])C([H])([H])[H])C(C([H])([H])[H])(C([H])([H])[H])C([H])([H])[H])C([H])([H])c2c([H])c(OC([H])([H])C([H])([H])C([H])([H])n3nc(C([H])([H])[H])c(C([H])([H])C([H])([H])C([H])([H])N([H])C(=O)N4C([H])([H])C([H])([H])C([H])([H])C([H])(n5nc(-c6c([H])c([H])c(Oc7c([H])c([H])c(F)c([H])c7F)c([H])c6[H])c(C(=O)N([H])[H])c5N([H])[H])C4([H])[H])c3[H])c([H])c([H])c2C1([H])[H]

>  <smiles>  (21) 
[H]c1c([H])c([H])c2c(c1[H])C([H])([H])C([H])([H])C([H])([H])C2([H])N([H])C(=O)C1([H])N(C(=O)C([H])(N([H])C(=O)C([H])(N([H])C([H])([H])[H])C([H])([H])[H])C(C([H])([H])[H])(C([H])([H])[H])C([H])([H])[H])C([H])([H])c2c([H])c(OC([H])([H])C([H])([H])C([H])([H])n3nc(C([H])([H])[H])c(C([H])([H])C([H])([H])C([H])([H])N([H])C(=O)N4C([H])([H])C([H])([H])C([H])([H])C([H])(n5nc(-c6c([H])c([H])c(Oc7c([H])c([H])c(F)c([H])c7F)c([H])c6[H])c(C(=O)N([H])[H])c5N([H])[H])C4([H])[H])c3[H])c([H])c([H])c2C1([H])[H]

$$$$
21:0:0
     RDKit          3D

 91 99  0  0  1  0  0  0  0  0999 V2000
  -30.1300  -22.2730   19.6990 C   0  0  0  0  0  3  0  0  0  0  0  0
  -29.7410  -20.9570   19.7680 C   0  0  0  0  0  0  0  0  0  0  0  0
  -28.3290  -21.0310   19.5530 C   0  0  0  0  0  0  0  0  0  0  0  0
  -27.3370  -19.9100   19.4330 C   0  0  0  0  0  1  0  0  0  0  0  0
  -27.9080  -22.2800   19.3830 N   0  0  0  0  0  0  0  0  0  0  0  0
  -29.0160  -23.0510   19.4570 N   0  0  0  0  0  0  0  0  0  0  0  0
  -30.6700  -19.7620   19.9330 C   0  0  0  0  0  2  0  0  0  0  0  0
  -30.1730  -18.5430   20.7530 C   0  0  0  0  0  2  0  0  0  0  0  0
  -31.3480  -17.5680   21.0210 C   0  0  0  0  0  2  0  0  0  0  0  0
  -31.0700  -16.3140   21.8890 C   0  0  0  0  0  2  0  0  0  0  0  0
  -30.7310  -14.4380   20.2660 C   0  0  0  0  0  0  0  0  0  0  0  0
  -30.2810  -12.4040   18.9360 C   0  0  0  0  0  2  0  0  0  0  0  0
  -29.2740  -12.6780   17.8040 C   0  0  0  0  0  2  0  0  0  0  0  0
  -27.8290  -12.5220   18.3130 C   0  0  0  0  0  2  0  0  0  0  0  0
  -27.5750  -13.3030   19.6280 C   0  0  0  0  0  3  0  0  0  0  0  0
  -28.6820  -13.0120   20.6640 C   0  0  0  0  0  2  0  0  0  0  0  0
  -29.9840  -13.3240   20.0450 N   0  0  0  0  0  0  0  0  0  0  0  0
  -31.7590  -14.6910   19.6320 O   0  0  0  0  0  0  0  0  0  0  0  0
  -30.2940  -15.2490   21.2430 N   0  0  0  0  0  0  0  0  0  0  0  0
  -29.4380  -14.9700   21.6990 H   0  0  0  0  0  0  0  0  0  0  0  0
  -25.2160  -13.9010   20.4700 C   0  0  0  0  0  0  0  0  0  0  0  0
  -24.1660  -13.1230   20.8770 C   0  0  0  0  0  0  0  0  0  0  0  0
  -24.6210  -11.7710   20.7960 C   0  0  0  0  0  0  0  0  0  0  0  0
  -26.2470  -13.0230   20.1690 N   0  0  0  0  0  0  0  0  0  0  0  0
  -25.8940  -11.7360   20.4200 N   0  0  0  0  0  0  0  0  0  0  0  0
  -23.9030  -10.5060   20.9970 C   0  0  0  0  0  0  0  0  0  0  0  0
  -24.3580   -9.5390   21.9210 C   0  0  0  0  0  3  0  0  0  0  0  0
  -23.6390   -8.3390   22.1100 C   0  0  0  0  0  3  0  0  0  0  0  0
  -22.4550   -8.0970   21.3750 C   0  0  0  0  0  0  0  0  0  0  0  0
  -22.0200   -9.0520   20.4420 C   0  0  0  0  0  3  0  0  0  0  0  0
  -22.7370  -10.2450   20.2500 C   0  0  0  0  0  3  0  0  0  0  0  0
  -21.7070   -6.9480   21.4740 O   0  0  0  0  0  0  0  0  0  0  0  0
  -21.6650   -6.2140   22.6320 C   0  0  0  0  0  0  0  0  0  0  0  0
  -21.2090   -6.7680   23.8490 C   0  0  0  0  0  3  0  0  0  0  0  0
  -21.1160   -5.9590   24.9990 C   0  0  0  0  0  3  0  0  0  0  0  0
  -21.4680   -4.5970   24.9340 C   0  0  0  0  0  0  0  0  0  0  0  0
  -21.9160   -4.0430   23.7220 C   0  0  0  0  0  3  0  0  0  0  0  0
  -22.0110   -4.8490   22.5740 C   0  0  0  0  0  0  0  0  0  0  0  0
  -22.4240   -4.3050   21.4030 F   0  0  0  0  0  0  0  0  0  0  0  0
  -21.3710   -3.8180   26.0360 F   0  0  0  0  0  0  0  0  0  0  0  0
  -22.7860  -13.5960   21.2310 C   0  0  0  0  0  0  0  0  0  0  0  0
  -22.0980  -12.8780   22.1120 N   0  0  0  0  0  0  0  0  0  0  0  0
  -22.3280  -14.6380   20.7630 O   0  0  0  0  0  0  0  0  0  0  0  0
  -22.4860  -12.0370   22.5140 H   0  0  0  0  0  0  0  0  0  0  0  0
  -21.1730  -13.1740   22.3900 H   0  0  0  0  0  0  0  0  0  0  0  0
  -25.3760  -15.2740   20.3130 N   0  0  0  0  0  0  0  0  0  0  0  0
  -24.6190  -15.9300   20.4760 H   0  0  0  0  0  0  0  0  0  0  0  0
  -26.2170  -15.7170   19.9650 H   0  0  0  0  0  0  0  0  0  0  0  0
  -28.9350  -24.4930   19.2110 C   0  0  0  0  0  2  0  0  0  0  0  0
  -28.3420  -25.2870   20.3930 C   0  0  0  0  0  2  0  0  0  0  0  0
  -28.3940  -26.7120   20.1900 O   0  0  0  0  0  0  0  0  0  0  0  0
  -24.5100  -31.8640   23.2160 C   0  0  0  0  0  0  0  0  0  0  0  0
  -27.2040  -27.4090   20.1910 C   0  0  0  0  0  0  0  0  0  0  0  0
  -23.3250  -30.4480   21.5710 C   0  0  0  0  0  3  0  0  0  0  0  0
  -24.7980  -28.9010   20.1740 C   0  0  0  0  0  0  0  0  0  0  0  0
  -25.8510  -30.8100   21.3970 C   0  0  0  0  0  2  0  0  0  0  0  0
  -25.9470  -29.4350   20.7700 C   0  0  0  0  0  0  0  0  0  0  0  0
  -27.1530  -28.6990   20.7700 C   0  0  0  0  0  3  0  0  0  0  0  0
  -26.0370  -26.8870   19.5910 C   0  0  0  0  0  3  0  0  0  0  0  0
  -24.8380  -27.6260   19.5790 C   0  0  0  0  0  3  0  0  0  0  0  0
  -23.5500  -29.7550   20.2000 C   0  0  0  0  0  2  0  0  0  0  0  0
  -24.5790  -31.0580   22.1190 N   0  0  0  0  0  0  0  0  0  0  0  0
  -23.4240  -32.1400   23.7420 O   0  0  0  0  0  0  0  0  0  0  0  0
  -22.6650  -29.4350   22.5320 C   0  0  0  0  0  0  0  0  0  0  0  0
  -21.3400  -29.2590   22.3980 N   0  0  0  0  0  0  0  0  0  0  0  0
  -23.3400  -28.8100   23.3520 O   0  0  0  0  0  0  0  0  0  0  0  0
  -20.8600  -29.8140   21.7040 H   0  0  0  0  0  0  0  0  0  0  0  0
  -17.9540  -28.1010   22.8930 C   0  0  0  0  0  0  0  0  0  0  0  0
  -20.5140  -28.3290   23.1650 C   0  0  0  0  0  3  0  0  0  0  0  0
  -20.5990  -26.8980   22.5850 C   0  0  0  0  0  2  0  0  0  0  0  0
  -19.4940  -26.5920   21.5700 C   0  0  0  0  0  2  0  0  0  0  0  0
  -18.1140  -26.7520   22.2140 C   0  0  0  0  0  2  0  0  0  0  0  0
  -19.0800  -28.8480   23.3260 C   0  0  0  0  0  0  0  0  0  0  0  0
  -18.8790  -30.1120   23.9210 C   0  0  0  0  0  3  0  0  0  0  0  0
  -17.5800  -30.6300   24.0870 C   0  0  0  0  0  3  0  0  0  0  0  0
  -16.4660  -29.8780   23.6710 C   0  0  0  0  0  3  0  0  0  0  0  0
  -16.6540  -28.6160   23.0810 C   0  0  0  0  0  3  0  0  0  0  0  0
  -25.7900  -32.5000   23.8480 C   0  0  0  0  0  3  0  0  0  0  0  0
  -25.4760  -33.8990   24.1700 N   0  0  0  0  0  0  0  0  0  0  0  0
  -25.8180  -34.9500   23.4130 C   0  0  0  0  0  0  0  0  0  0  0  0
  -26.5030  -34.8440   22.3920 O   0  0  0  0  0  0  0  0  0  0  0  0
  -24.8700  -34.0550   24.9610 H   0  0  0  0  0  0  0  0  0  0  0  0
  -24.1020  -36.7430   23.0180 C   0  0  0  0  0  1  0  0  0  0  0  0
  -25.3220  -36.3380   23.8590 C   0  0  0  0  0  3  0  0  0  0  0  0
  -27.4320  -37.2190   24.7480 C   0  0  0  0  0  1  0  0  0  0  0  0
  -26.3580  -37.3890   23.7720 N   0  0  0  0  0  0  0  0  0  0  0  0
  -25.9500  -38.3110   23.9060 H   0  0  0  0  0  0  0  0  0  0  0  0
  -26.2990  -31.7340   25.1300 C   0  0  1  0  0  0  0  0  0  0  0  0
  -25.1970  -31.4910   26.1890 C   0  0  0  0  0  1  0  0  0  0  0  0
  -26.8920  -30.3600   24.7410 C   0  0  0  0  0  1  0  0  0  0  0  0
  -27.4430  -32.5340   25.7990 C   0  0  0  0  0  1  0  0  0  0  0  0
  1  2  2  0
  2  7  1  0
  3  2  1  0
  4  3  1  0
  5  6  1  0
  5  3  2  0
  6  1  1  0
  7  8  1  0
  8  9  1  0
  9 10  1  0
 11 19  1  0
 12 17  1  0
 13 14  1  0
 13 12  1  0
 15 14  1  0
 15 24  1  0
 15 16  1  0
 17 11  1  0
 17 16  1  0
 18 11  2  0
 19 20  1  0
 19 10  1  0
 21 22  2  0
 22 41  1  0
 23 22  1  0
 23 26  1  0
 24 25  1  0
 24 21  1  0
 25 23  2  0
 26 27  1  0
 27 28  2  0
 29 32  1  0
 29 28  1  0
 30 29  2  0
 31 30  1  0
 31 26  2  0
 32 33  1  0
 33 34  1  0
 34 35  2  0
 36 35  1  0
 36 40  1  0
 37 36  2  0
 38 33  2  0
 38 37  1  0
 39 38  1  0
 41 42  1  0
 42 45  1  0
 42 44  1  0
 43 41  2  0
 46 21  1  0
 46 47  1  0
 48 46  1  0
 49  6  1  0
 49 50  1  0
 51 53  1  0
 51 50  1  0
 52 63  2  0
 53 58  1  0
 54 62  1  0
 54 64  1  0
 55 61  1  0
 55 57  1  0
 56 62  1  0
 57 56  1  0
 58 57  2  0
 59 53  2  0
 60 59  1  0
 60 55  2  0
 61 54  1  0
 62 52  1  0
 64 66  2  0
 65 64  1  0
 67 65  1  0
 68 77  2  0
 68 73  1  0
 69 65  1  0
 69 73  1  0
 70 69  1  0
 71 72  1  0
 71 70  1  0
 72 68  1  0
 73 74  2  0
 74 75  1  0
 76 75  2  0
 77 76  1  0
 78 52  1  0
 78 79  1  0
 78 88  1  0
 79 82  1  0
 80 84  1  0
 80 79  1  0
 81 80  2  0
 84 83  1  0
 86 84  1  0
 86 87  1  0
 86 85  1  0
 88 91  1  1
 88 89  1  0
 90 88  1  0
M  ISO  4  11 100  19 100  50 101  51 101
M  END
>  <TORSDO>  (22) 
F 22

>  <SCORE>  (22) 
-13.099

>  <name>  (22) 
21

>  <ligand_id>  (22) 
21

>  <original_smiles>  (22) 
[H]c1c([H])c([H])c2c(c1[H])C([H])([H])C([H])([H])C([H])([H])C2([H])N([H])C(=O)C1([H])N(C(=O)C([H])(N([H])C(=O)C([H])(N([H])C([H])([H])[H])C([H])([H])[H])C(C([H])([H])[H])(C([H])([H])[H])C([H])([H])[H])C([H])([H])c2c([H])c(OC([H])([H])C([H])([H])n3nc(C([H])([H])[H])c(C([H])([H])C([H])([H])C([H])([H])C([H])([H])N([H])C(=O)N4C([H])([H])C([H])([H])C([H])([H])C([H])(n5nc(-c6c([H])c([H])c(Oc7c([H])c([H])c(F)c([H])c7F)c([H])c6[H])c(C(=O)N([H])[H])c5N([H])[H])C4([H])[H])c3[H])c([H])c([H])c2C1([H])[H]

>  <smiles>  (22) 
[H]c1c([H])c([H])c2c(c1[H])C([H])([H])C([H])([H])C([H])([H])C2([H])N([H])C(=O)C1([H])N(C(=O)C([H])(N([H])C(=O)C([H])(N([H])C([H])([H])[H])C([H])([H])[H])C(C([H])([H])[H])(C([H])([H])[H])C([H])([H])[H])C([H])([H])c2c([H])c(OC([H])([H])C([H])([H])n3nc(C([H])([H])[H])c(C([H])([H])C([H])([H])C([H])([H])C([H])([H])N([H])C(=O)N4C([H])([H])C([H])([H])C([H])([H])C([H])(n5nc(-c6c([H])c([H])c(Oc7c([H])c([H])c(F)c([H])c7F)c([H])c6[H])c(C(=O)N([H])[H])c5N([H])[H])C4([H])[H])c3[H])c([H])c([H])c2C1([H])[H]

$$$$
22:0:0
     RDKit          3D

 91 99  0  0  1  0  0  0  0  0999 V2000
  -28.7100  -21.8470   19.5540 C   0  0  0  0  0  0  0  0  0  0  0  0
  -29.0870  -23.0320   21.9390 C   0  0  0  0  0  0  0  0  0  0  0  0
  -29.0330  -21.0390   20.6930 C   0  0  0  0  0  0  0  0  0  0  0  0
  -28.7550  -23.8530   20.8100 C   0  0  0  0  0  0  0  0  0  0  0  0
  -28.4200  -21.1960   18.2170 C   0  0  0  0  0  1  0  0  0  0  0  0
  -29.1690  -23.5810   23.3530 C   0  0  0  0  0  1  0  0  0  0  0  0
  -29.2490  -21.6760   21.8690 N   0  0  0  0  0  0  0  0  0  0  0  0
  -28.5870  -23.2240   19.6050 N   0  0  0  0  0  0  0  0  0  0  0  0
  -28.9220  -19.4610   20.7840 C   0  0  0  0  0  2  0  0  0  0  0  0
  -30.0260  -18.4810   20.1890 C   0  0  0  0  0  2  0  0  0  0  0  0
  -30.4620  -17.1640   20.9960 C   0  0  0  0  0  2  0  0  0  0  0  0
  -30.7660  -14.6870   20.2420 C   0  0  0  0  0  0  0  0  0  0  0  0
  -30.5090  -12.4640   19.1490 C   0  0  0  0  0  2  0  0  0  0  0  0
  -29.5440  -12.5930   17.9510 C   0  0  0  0  0  2  0  0  0  0  0  0
  -28.0790  -12.4400   18.4090 C   0  0  0  0  0  2  0  0  0  0  0  0
  -27.7470  -13.3060   19.6550 C   0  0  0  0  0  3  0  0  0  0  0  0
  -28.8230  -13.1480   20.7490 C   0  0  0  0  0  2  0  0  0  0  0  0
  -30.1180  -13.4850   20.1410 N   0  0  0  0  0  0  0  0  0  0  0  0
  -31.9400  -14.8120   19.8820 O   0  0  0  0  0  0  0  0  0  0  0  0
  -30.0120  -15.7790   20.5980 N   0  0  0  0  0  0  0  0  0  0  0  0
  -29.0470  -15.5620   20.8000 H   0  0  0  0  0  0  0  0  0  0  0  0
  -25.3730  -13.9240   20.4150 C   0  0  0  0  0  0  0  0  0  0  0  0
  -24.3080  -13.1600   20.8050 C   0  0  0  0  0  0  0  0  0  0  0  0
  -24.7610  -11.8060   20.7700 C   0  0  0  0  0  0  0  0  0  0  0  0
  -26.4080  -13.0350   20.1650 N   0  0  0  0  0  0  0  0  0  0  0  0
  -26.0440  -11.7550   20.4400 N   0  0  0  0  0  0  0  0  0  0  0  0
  -24.0280  -10.5490   20.9740 C   0  0  0  0  0  0  0  0  0  0  0  0
  -24.4660   -9.5810   21.9040 C   0  0  0  0  0  3  0  0  0  0  0  0
  -23.7350   -8.3880   22.0960 C   0  0  0  0  0  3  0  0  0  0  0  0
  -22.5510   -8.1570   21.3570 C   0  0  0  0  0  0  0  0  0  0  0  0
  -22.1300   -9.1130   20.4140 C   0  0  0  0  0  3  0  0  0  0  0  0
  -22.8630  -10.2960   20.2210 C   0  0  0  0  0  3  0  0  0  0  0  0
  -21.7880   -7.0180   21.4590 O   0  0  0  0  0  0  0  0  0  0  0  0
  -21.7460   -6.2800   22.6140 C   0  0  0  0  0  0  0  0  0  0  0  0
  -21.3440   -6.8450   23.8450 C   0  0  0  0  0  3  0  0  0  0  0  0
  -21.2480   -6.0330   24.9930 C   0  0  0  0  0  3  0  0  0  0  0  0
  -21.5470   -4.6590   24.9130 C   0  0  0  0  0  0  0  0  0  0  0  0
  -21.9410   -4.0950   23.6880 C   0  0  0  0  0  3  0  0  0  0  0  0
  -22.0390   -4.9040   22.5410 C   0  0  0  0  0  0  0  0  0  0  0  0
  -22.3990   -4.3510   21.3580 F   0  0  0  0  0  0  0  0  0  0  0  0
  -21.4480   -3.8770   26.0120 F   0  0  0  0  0  0  0  0  0  0  0  0
  -22.9190  -13.6480   21.0960 C   0  0  0  0  0  0  0  0  0  0  0  0
  -22.1980  -12.9600   21.9750 N   0  0  0  0  0  0  0  0  0  0  0  0
  -22.4800  -14.6750   20.5800 O   0  0  0  0  0  0  0  0  0  0  0  0
  -22.5640  -12.1280   22.4130 H   0  0  0  0  0  0  0  0  0  0  0  0
  -21.2640  -13.2680   22.2110 H   0  0  0  0  0  0  0  0  0  0  0  0
  -25.5450  -15.2940   20.2300 N   0  0  0  0  0  0  0  0  0  0  0  0
  -24.7790  -15.9490   20.3420 H   0  0  0  0  0  0  0  0  0  0  0  0
  -26.3900  -15.7290   19.8830 H   0  0  0  0  0  0  0  0  0  0  0  0
  -28.3750  -25.3800   21.0330 C   0  0  0  0  0  2  0  0  0  0  0  0
  -28.5280  -26.4580   20.0270 O   0  0  0  0  0  0  0  0  0  0  0  0
  -24.6760  -31.7380   23.1180 C   0  0  0  0  0  0  0  0  0  0  0  0
  -27.4370  -27.3340   19.9850 C   0  0  0  0  0  0  0  0  0  0  0  0
  -23.5210  -30.3220   21.4530 C   0  0  0  0  0  3  0  0  0  0  0  0
  -25.0250  -28.8570   19.9920 C   0  0  0  0  0  0  0  0  0  0  0  0
  -26.0440  -30.7480   21.2630 C   0  0  0  0  0  2  0  0  0  0  0  0
  -26.1770  -29.3830   20.5960 C   0  0  0  0  0  0  0  0  0  0  0  0
  -27.3910  -28.6320   20.5860 C   0  0  0  0  0  3  0  0  0  0  0  0
  -26.2690  -26.8650   19.3520 C   0  0  0  0  0  3  0  0  0  0  0  0
  -25.0740  -27.6050   19.3570 C   0  0  0  0  0  3  0  0  0  0  0  0
  -23.7580  -29.6820   20.0590 C   0  0  0  0  0  2  0  0  0  0  0  0
  -24.7660  -30.9540   22.0020 N   0  0  0  0  0  0  0  0  0  0  0  0
  -23.5870  -31.9590   23.6650 O   0  0  0  0  0  0  0  0  0  0  0  0
  -22.9010  -29.2650   22.3970 C   0  0  0  0  0  0  0  0  0  0  0  0
  -21.5850  -29.0330   22.2680 N   0  0  0  0  0  0  0  0  0  0  0  0
  -23.6070  -28.6570   23.2080 O   0  0  0  0  0  0  0  0  0  0  0  0
  -21.0720  -29.5730   21.5860 H   0  0  0  0  0  0  0  0  0  0  0  0
  -18.2650  -27.6680   22.7320 C   0  0  0  0  0  0  0  0  0  0  0  0
  -20.8070  -28.0510   23.0270 C   0  0  0  0  0  3  0  0  0  0  0  0
  -20.9860  -26.6300   22.4440 C   0  0  0  0  0  2  0  0  0  0  0  0
  -19.9090  -26.2620   21.4160 C   0  0  0  0  0  2  0  0  0  0  0  0
  -18.5150  -26.3360   22.0460 C   0  0  0  0  0  2  0  0  0  0  0  0
  -19.3420  -28.4820   23.1780 C   0  0  0  0  0  0  0  0  0  0  0  0
  -19.0550  -29.7270   23.7750 C   0  0  0  0  0  3  0  0  0  0  0  0
  -17.7260  -30.1630   23.9330 C   0  0  0  0  0  3  0  0  0  0  0  0
  -16.6650  -29.3470   23.5030 C   0  0  0  0  0  3  0  0  0  0  0  0
  -16.9360  -28.1010   22.9090 C   0  0  0  0  0  3  0  0  0  0  0  0
  -25.9380  -32.4080   23.7450 C   0  0  0  0  0  3  0  0  0  0  0  0
  -26.4930  -31.6310   25.0010 C   0  0  1  0  0  0  0  0  0  0  0  0
  -25.4180  -31.3340   26.0710 C   0  0  0  0  0  1  0  0  0  0  0  0
  -27.1210  -30.2840   24.5770 C   0  0  0  0  0  1  0  0  0  0  0  0
  -27.6210  -32.4500   25.6720 C   0  0  0  0  0  1  0  0  0  0  0  0
  -25.5790  -33.7880   24.1080 N   0  0  0  0  0  0  0  0  0  0  0  0
  -25.8590  -34.8670   23.3680 C   0  0  0  0  0  0  0  0  0  0  0  0
  -26.5170  -34.8140   22.3250 O   0  0  0  0  0  0  0  0  0  0  0  0
  -25.0080  -33.9030   24.9320 H   0  0  0  0  0  0  0  0  0  0  0  0
  -24.0530  -36.5880   23.0640 C   0  0  0  0  0  1  0  0  0  0  0  0
  -25.3180  -36.2240   23.8570 C   0  0  0  0  0  3  0  0  0  0  0  0
  -27.4210  -37.1780   24.6880 C   0  0  0  0  0  1  0  0  0  0  0  0
  -26.3020  -37.3220   23.7590 N   0  0  0  0  0  0  0  0  0  0  0  0
  -25.8580  -38.2190   23.9370 H   0  0  0  0  0  0  0  0  0  0  0  0
  1  8  2  0
  1  3  1  0
  2  6  1  0
  3  9  1  0
  3  7  2  0
  4 50  1  0
  4  2  2  0
  5  1  1  0
  7  2  1  0
  8  4  1  0
 10  9  1  0
 10 11  1  0
 12 20  1  0
 13 18  1  0
 14 15  1  0
 14 13  1  0
 16 15  1  0
 16 25  1  0
 16 17  1  0
 18 12  1  0
 18 17  1  0
 19 12  2  0
 20 21  1  0
 20 11  1  0
 22 23  2  0
 23 42  1  0
 24 23  1  0
 24 27  1  0
 25 22  1  0
 25 26  1  0
 26 24  2  0
 27 28  1  0
 28 29  2  0
 30 33  1  0
 30 29  1  0
 31 30  2  0
 32 31  1  0
 32 27  2  0
 33 34  1  0
 34 35  1  0
 35 36  2  0
 37 36  1  0
 37 41  1  0
 38 37  2  0
 39 34  2  0
 39 38  1  0
 40 39  1  0
 42 43  1  0
 43 46  1  0
 43 45  1  0
 44 42  2  0
 47 48  1  0
 47 22  1  0
 49 47  1  0
 51 50  1  0
 52 63  2  0
 53 51  1  0
 53 58  1  0
 54 62  1  0
 54 64  1  0
 55 61  1  0
 55 57  1  0
 56 62  1  0
 57 56  1  0
 58 57  2  0
 59 60  1  0
 59 53  2  0
 60 55  2  0
 61 54  1  0
 62 52  1  0
 64 66  2  0
 65 64  1  0
 67 65  1  0
 68 77  2  0
 68 73  1  0
 69 65  1  0
 69 73  1  0
 70 69  1  0
 71 72  1  0
 71 70  1  0
 72 68  1  0
 73 74  2  0
 74 75  1  0
 76 75  2  0
 77 76  1  0
 78 52  1  0
 78 83  1  0
 78 79  1  0
 79 82  1  1
 79 80  1  0
 81 79  1  0
 83 86  1  0
 84 88  1  0
 84 83  1  0
 85 84  2  0
 88 87  1  0
 90 88  1  0
 90 91  1  0
 90 89  1  0
M  ISO  4  12 100  20 100  50 101  51 101
M  END
>  <TORSDO>  (23) 
F 20

>  <SCORE>  (23) 
-13.325

>  <name>  (23) 
22

>  <ligand_id>  (23) 
22

>  <original_smiles>  (23) 
[H]c1c([H])c([H])c2c(c1[H])C([H])([H])C([H])([H])C([H])([H])C2([H])N([H])C(=O)C1([H])N(C(=O)C([H])(N([H])C(=O)C([H])(N([H])C([H])([H])[H])C([H])([H])[H])C(C([H])([H])[H])(C([H])([H])[H])C([H])([H])[H])C([H])([H])c2c([H])c(OC([H])([H])c3nc(C([H])([H])[H])c(C([H])([H])C([H])([H])C([H])([H])N([H])C(=O)N4C([H])([H])C([H])([H])C([H])([H])C([H])(n5nc(-c6c([H])c([H])c(Oc7c([H])c([H])c(F)c([H])c7F)c([H])c6[H])c(C(=O)N([H])[H])c5N([H])[H])C4([H])[H])nc3C([H])([H])[H])c([H])c([H])c2C1([H])[H]

>  <smiles>  (23) 
[H]c1c([H])c([H])c2c(c1[H])C([H])([H])C([H])([H])C([H])([H])C2([H])N([H])C(=O)C1([H])N(C(=O)C([H])(N([H])C(=O)C([H])(N([H])C([H])([H])[H])C([H])([H])[H])C(C([H])([H])[H])(C([H])([H])[H])C([H])([H])[H])C([H])([H])c2c([H])c(OC([H])([H])c3nc(C([H])([H])[H])c(C([H])([H])C([H])([H])C([H])([H])N([H])C(=O)N4C([H])([H])C([H])([H])C([H])([H])C([H])(n5nc(-c6c([H])c([H])c(Oc7c([H])c([H])c(F)c([H])c7F)c([H])c6[H])c(C(=O)N([H])[H])c5N([H])[H])C4([H])[H])nc3C([H])([H])[H])c([H])c([H])c2C1([H])[H]

$$$$
23:0:0
     RDKit          3D

 95103  0  0  1  0  0  0  0  0999 V2000
  -29.2600  -20.1000   20.3220 C   0  0  0  0  0  3  0  0  0  0  0  0
  -27.4290  -18.9860   19.2270 C   0  0  0  0  0  3  0  0  0  0  0  0
  -28.0100  -20.1830   19.6810 C   0  0  0  0  0  0  0  0  0  0  0  0
  -29.8630  -18.8320   20.5200 C   0  0  0  0  0  0  0  0  0  0  0  0
  -29.2040  -17.6850   20.0040 C   0  0  0  0  0  0  0  0  0  0  0  0
  -28.0020  -17.7770   19.3910 N   0  0  0  0  0  0  0  0  0  0  0  0
  -27.2230  -21.4870   19.5260 C   0  0  0  0  0  2  0  0  0  0  0  0
  -27.9710  -22.8340   19.6890 C   0  0  0  0  0  2  0  0  0  0  0  0
  -27.0330  -24.0180   19.3590 C   0  0  0  0  0  2  0  0  0  0  0  0
  -27.4810  -25.8400   17.7250 C   0  0  0  0  0  0  0  0  0  0  0  0
  -28.3060  -27.4510   16.0580 C   0  0  0  0  0  2  0  0  0  0  0  0
  -29.5920  -26.9160   15.4000 C   0  0  0  0  0  2  0  0  0  0  0  0
  -30.8310  -27.3090   16.2250 C   0  0  0  0  0  2  0  0  0  0  0  0
  -30.6700  -26.9910   17.7370 C   0  0  0  0  0  3  0  0  0  0  0  0
  -29.3110  -27.4980   18.2710 C   0  0  0  0  0  2  0  0  0  0  0  0
  -28.2490  -26.9210   17.4300 N   0  0  0  0  0  0  0  0  0  0  0  0
  -26.6430  -25.3880   16.9430 O   0  0  0  0  0  0  0  0  0  0  0  0
  -27.7310  -25.2280   18.8950 N   0  0  0  0  0  0  0  0  0  0  0  0
  -28.4370  -25.6330   19.4920 H   0  0  0  0  0  0  0  0  0  0  0  0
  -32.5390  -26.9150   19.5070 C   0  0  0  0  0  0  0  0  0  0  0  0
  -33.5090  -27.8170   19.8530 C   0  0  0  0  0  0  0  0  0  0  0  0
  -33.3000  -28.9610   19.0230 C   0  0  0  0  0  0  0  0  0  0  0  0
  -31.7890  -27.5250   18.5120 N   0  0  0  0  0  0  0  0  0  0  0  0
  -32.2270  -28.7870   18.2610 N   0  0  0  0  0  0  0  0  0  0  0  0
  -34.0910  -30.1880   18.8660 C   0  0  0  0  0  0  0  0  0  0  0  0
  -33.5000  -31.4670   18.9660 C   0  0  0  0  0  3  0  0  0  0  0  0
  -34.2870  -32.6310   18.8310 C   0  0  0  0  0  3  0  0  0  0  0  0
  -35.6790  -32.5250   18.5980 C   0  0  0  0  0  0  0  0  0  0  0  0
  -36.2570  -31.2490   18.4760 C   0  0  0  0  0  3  0  0  0  0  0  0
  -35.4730  -30.0910   18.6040 C   0  0  0  0  0  3  0  0  0  0  0  0
  -36.5170  -33.6010   18.4260 O   0  0  0  0  0  0  0  0  0  0  0  0
  -36.2100  -34.8390   18.9310 C   0  0  0  0  0  0  0  0  0  0  0  0
  -36.0070  -35.0510   20.3110 C   0  0  0  0  0  3  0  0  0  0  0  0
  -35.7640  -36.3520   20.7950 C   0  0  0  0  0  3  0  0  0  0  0  0
  -35.7290  -37.4410   19.9020 C   0  0  0  0  0  0  0  0  0  0  0  0
  -35.9350  -37.2300   18.5280 C   0  0  0  0  0  3  0  0  0  0  0  0
  -36.1780  -35.9340   18.0440 C   0  0  0  0  0  0  0  0  0  0  0  0
  -36.3970  -35.7400   16.7210 F   0  0  0  0  0  0  0  0  0  0  0  0
  -35.5020  -38.6920   20.3660 F   0  0  0  0  0  0  0  0  0  0  0  0
  -34.6270  -27.5980   20.8320 C   0  0  0  0  0  0  0  0  0  0  0  0
  -35.0310  -28.6430   21.5450 N   0  0  0  0  0  0  0  0  0  0  0  0
  -35.1150  -26.4820   21.0040 O   0  0  0  0  0  0  0  0  0  0  0  0
  -34.6140  -29.5540   21.4190 H   0  0  0  0  0  0  0  0  0  0  0  0
  -35.7650  -28.5290   22.2300 H   0  0  0  0  0  0  0  0  0  0  0  0
  -32.2410  -25.6270   19.9420 N   0  0  0  0  0  0  0  0  0  0  0  0
  -32.8050  -25.1510   20.6360 H   0  0  0  0  0  0  0  0  0  0  0  0
  -31.5010  -25.0480   19.5650 H   0  0  0  0  0  0  0  0  0  0  0  0
  -31.1710  -18.7100   21.3050 C   0  0  0  0  0  2  0  0  0  0  0  0
  -31.8540  -20.0400   21.6910 C   0  0  0  0  0  2  0  0  0  0  0  0
  -34.2480  -19.6370   20.9030 C   0  0  0  0  0  1  0  0  0  0  0  0
  -33.8110  -21.1010   22.9110 C   0  0  0  0  0  1  0  0  0  0  0  0
  -33.3300  -19.8790   22.1120 C   0  0  0  0  0  3  0  0  0  0  0  0
  -29.7120  -16.2470   20.2150 C   0  0  0  0  0  2  0  0  0  0  0  0
  -29.5380  -15.3040   19.0030 C   0  0  0  0  0  2  0  0  0  0  0  0
  -30.1350  -14.0250   19.2460 O   0  0  0  0  0  0  0  0  0  0  0  0
  -35.8120  -10.1460   21.0120 C   0  0  0  0  0  0  0  0  0  0  0  0
  -31.4700  -13.7870   18.9900 C   0  0  0  0  0  0  0  0  0  0  0  0
  -36.2390  -11.9840   19.4090 C   0  0  0  0  0  3  0  0  0  0  0  0
  -34.1660  -13.1160   18.4470 C   0  0  0  0  0  0  0  0  0  0  0  0
  -33.9380  -10.8790   19.5430 C   0  0  0  0  0  2  0  0  0  0  0  0
  -33.3420  -12.2080   19.1200 C   0  0  0  0  0  0  0  0  0  0  0  0
  -31.9960  -12.5380   19.3880 C   0  0  0  0  0  3  0  0  0  0  0  0
  -32.3170  -14.6990   18.3180 C   0  0  0  0  0  3  0  0  0  0  0  0
  -33.6600  -14.3670   18.0470 C   0  0  0  0  0  3  0  0  0  0  0  0
  -35.5910  -12.6830   18.1830 C   0  0  0  0  0  2  0  0  0  0  0  0
  -35.3280  -10.9790   20.0470 N   0  0  0  0  0  0  0  0  0  0  0  0
  -37.0070  -10.1750   21.3410 O   0  0  0  0  0  0  0  0  0  0  0  0
  -36.7310  -13.0710   20.3910 C   0  0  0  0  0  0  0  0  0  0  0  0
  -37.8870  -13.6770   20.0800 N   0  0  0  0  0  0  0  0  0  0  0  0
  -36.0660  -13.3710   21.3860 O   0  0  0  0  0  0  0  0  0  0  0  0
  -38.3770  -13.3650   19.2530 H   0  0  0  0  0  0  0  0  0  0  0  0
  -40.7620  -15.8650   20.1660 C   0  0  0  0  0  0  0  0  0  0  0  0
  -38.5220  -14.7570   20.8350 C   0  0  0  0  0  3  0  0  0  0  0  0
  -37.8680  -16.1210   20.5150 C   0  0  0  0  0  2  0  0  0  0  0  0
  -38.5760  -16.8810   19.3890 C   0  0  0  0  0  2  0  0  0  0  0  0
  -40.0410  -17.1380   19.7520 C   0  0  0  0  0  2  0  0  0  0  0  0
  -40.0470  -14.7420   20.6600 C   0  0  0  0  0  0  0  0  0  0  0  0
  -40.7590  -13.5700   20.9950 C   0  0  0  0  0  3  0  0  0  0  0  0
  -42.1580  -13.5120   20.8510 C   0  0  0  0  0  3  0  0  0  0  0  0
  -42.8610  -14.6310   20.3780 C   0  0  0  0  0  3  0  0  0  0  0  0
  -42.1650  -15.8060   20.0380 C   0  0  0  0  0  3  0  0  0  0  0  0
  -34.8980   -9.1020   21.7250 C   0  0  0  0  0  3  0  0  0  0  0  0
  -35.6880   -7.8790   21.9150 N   0  0  0  0  0  0  0  0  0  0  0  0
  -35.6920   -6.8380   21.0710 C   0  0  0  0  0  0  0  0  0  0  0  0
  -34.9670   -6.7790   20.0740 O   0  0  0  0  0  0  0  0  0  0  0  0
  -36.3500   -7.8820   22.6770 H   0  0  0  0  0  0  0  0  0  0  0  0
  -37.9460   -5.8450   20.5600 C   0  0  0  0  0  1  0  0  0  0  0  0
  -36.6570   -5.6790   21.3820 C   0  0  0  0  0  3  0  0  0  0  0  0
  -34.9900   -4.0010   22.0430 C   0  0  0  0  0  1  0  0  0  0  0  0
  -36.0750   -4.3440   21.1270 N   0  0  0  0  0  0  0  0  0  0  0  0
  -36.7880   -3.6220   21.1970 H   0  0  0  0  0  0  0  0  0  0  0  0
  -34.3220   -9.6150   23.1010 C   0  0  1  0  0  0  0  0  0  0  0  0
  -35.4010  -10.1820   24.0520 C   0  0  0  0  0  1  0  0  0  0  0  0
  -33.2690  -10.7230   22.8690 C   0  0  0  0  0  1  0  0  0  0  0  0
  -33.5990   -8.4600   23.8320 C   0  0  0  0  0  1  0  0  0  0  0  0
  1  4  1  0
  2  6  2  0
  2  3  1  0
  3  1  2  0
  4 48  1  0
  5 53  1  0
  5  4  2  0
  6  5  1  0
  7  3  1  0
  7  8  1  0
  9  8  1  0
 10 18  1  0
 11 16  1  0
 12 11  1  0
 12 13  1  0
 14 13  1  0
 14 15  1  0
 14 23  1  0
 16 10  1  0
 16 15  1  0
 17 10  2  0
 18  9  1  0
 18 19  1  0
 20 21  2  0
 20 45  1  0
 21 40  1  0
 22 21  1  0
 23 20  1  0
 24 23  1  0
 24 22  2  0
 25 26  1  0
 25 22  1  0
 27 26  2  0
 28 27  1  0
 29 28  2  0
 29 30  1  0
 30 25  2  0
 31 28  1  0
 31 32  1  0
 32 33  1  0
 33 34  2  0
 35 39  1  0
 35 34  1  0
 36 35  2  0
 37 36  1  0
 37 32  2  0
 38 37  1  0
 40 42  2  0
 40 41  1  0
 41 44  1  0
 43 41  1  0
 45 46  1  0
 47 45  1  0
 48 49  1  0
 49 52  1  0
 50 52  1  0
 52 51  1  0
 54 55  1  0
 54 53  1  0
 56 67  2  0
 57 55  1  0
 57 62  1  0
 58 66  1  0
 58 68  1  0
 59 61  1  0
 60 66  1  0
 61 62  2  0
 61 60  1  0
 63 57  2  0
 64 63  1  0
 64 59  2  0
 65 59  1  0
 65 58  1  0
 66 56  1  0
 68 70  2  0
 69 68  1  0
 71 69  1  0
 72 77  1  0
 73 69  1  0
 74 73  1  0
 75 76  1  0
 75 74  1  0
 76 72  1  0
 77 73  1  0
 77 78  2  0
 79 78  1  0
 80 79  2  0
 81 72  2  0
 81 80  1  0
 82 56  1  0
 82 83  1  0
 82 92  1  0
 83 86  1  0
 84 88  1  0
 84 83  1  0
 85 84  2  0
 88 87  1  0
 90 91  1  0
 90 88  1  0
 90 89  1  0
 92 95  1  1
 92 93  1  0
 94 92  1  0
M  ISO  4  10 100  18 100  54 101  55 101
M  END
>  <TORSDO>  (24) 
F 24

>  <SCORE>  (24) 
-4.000

>  <name>  (24) 
23

>  <ligand_id>  (24) 
23

>  <original_smiles>  (24) 
[H]c1nc(C([H])([H])C([H])([H])Oc2c([H])c([H])c3c(c2[H])C([H])([H])N(C(=O)C([H])(N([H])C(=O)C([H])(N([H])C([H])([H])[H])C([H])([H])[H])C(C([H])([H])[H])(C([H])([H])[H])C([H])([H])[H])C([H])(C(=O)N([H])C2([H])c4c([H])c([H])c([H])c([H])c4C([H])([H])C([H])([H])C2([H])[H])C3([H])[H])c(C([H])([H])C([H])([H])C([H])(C([H])([H])[H])C([H])([H])[H])c([H])c1C([H])([H])C([H])([H])C([H])([H])N([H])C(=O)N1C([H])([H])C([H])([H])C([H])([H])C([H])(n2nc(-c3c([H])c([H])c(Oc4c([H])c([H])c(F)c([H])c4F)c([H])c3[H])c(C(=O)N([H])[H])c2N([H])[H])C1([H])[H]

>  <smiles>  (24) 
[H]c1nc(C([H])([H])C([H])([H])Oc2c([H])c([H])c3c(c2[H])C([H])([H])N(C(=O)C([H])(N([H])C(=O)C([H])(N([H])C([H])([H])[H])C([H])([H])[H])C(C([H])([H])[H])(C([H])([H])[H])C([H])([H])[H])C([H])(C(=O)N([H])C2([H])c4c([H])c([H])c([H])c([H])c4C([H])([H])C([H])([H])C2([H])[H])C3([H])[H])c(C([H])([H])C([H])([H])C([H])(C([H])([H])[H])C([H])([H])[H])c([H])c1C([H])([H])C([H])([H])C([H])([H])N([H])C(=O)N1C([H])([H])C([H])([H])C([H])([H])C([H])(n2nc(-c3c([H])c([H])c(Oc4c([H])c([H])c(F)c([H])c4F)c([H])c3[H])c(C(=O)N([H])[H])c2N([H])[H])C1([H])[H]

$$$$
24:0:0
     RDKit          3D

 92100  0  0  1  0  0  0  0  0999 V2000
  -30.6930  -22.8090   20.8790 C   0  0  0  0  0  0  0  0  0  0  0  0
  -28.1100  -22.6060   20.1420 C   0  0  0  0  0  0  0  0  0  0  0  0
  -30.0840  -21.5350   20.6600 C   0  0  0  0  0  0  0  0  0  0  0  0
  -28.7160  -23.8840   20.3310 C   0  0  0  0  0  0  0  0  0  0  0  0
  -32.1380  -22.9460   21.3160 C   0  0  0  0  0  1  0  0  0  0  0  0
  -26.6430  -22.4280   19.7790 C   0  0  0  0  0  1  0  0  0  0  0  0
  -28.7930  -21.4510   20.2810 N   0  0  0  0  0  0  0  0  0  0  0  0
  -30.0160  -23.9840   20.7040 N   0  0  0  0  0  0  0  0  0  0  0  0
  -30.8080  -20.1800   20.7300 C   0  0  0  0  0  2  0  0  0  0  0  0
  -30.2270  -19.1880   21.7770 C   0  0  0  0  0  2  0  0  0  0  0  0
  -29.7100  -17.8210   21.2460 C   0  0  0  0  0  2  0  0  0  0  0  0
  -30.7920  -16.7720   20.9030 C   0  0  0  0  0  2  0  0  0  0  0  0
  -30.7940  -14.4140   20.0710 C   0  0  0  0  0  0  0  0  0  0  0  0
  -30.3580  -12.2760   18.9230 C   0  0  0  0  0  2  0  0  0  0  0  0
  -29.3450  -12.4900   17.7790 C   0  0  0  0  0  2  0  0  0  0  0  0
  -27.9000  -12.3860   18.2990 C   0  0  0  0  0  2  0  0  0  0  0  0
  -27.6550  -13.2300   19.5780 C   0  0  0  0  0  3  0  0  0  0  0  0
  -28.7730  -12.9950   20.6200 C   0  0  0  0  0  2  0  0  0  0  0  0
  -30.0700  -13.2670   19.9720 N   0  0  0  0  0  0  0  0  0  0  0  0
  -31.8660  -14.5830   19.4850 O   0  0  0  0  0  0  0  0  0  0  0  0
  -30.2270  -15.4190   20.7600 N   0  0  0  0  0  0  0  0  0  0  0  0
  -29.3380  -15.2280   21.1960 H   0  0  0  0  0  0  0  0  0  0  0  0
  -25.3200  -13.8720   20.4490 C   0  0  0  0  0  0  0  0  0  0  0  0
  -24.2570  -13.1150   20.8660 C   0  0  0  0  0  0  0  0  0  0  0  0
  -24.6810  -11.7540   20.7730 C   0  0  0  0  0  0  0  0  0  0  0  0
  -26.3280  -12.9720   20.1350 N   0  0  0  0  0  0  0  0  0  0  0  0
  -25.9480  -11.6920   20.3850 N   0  0  0  0  0  0  0  0  0  0  0  0
  -23.9350  -10.5040   20.9760 C   0  0  0  0  0  0  0  0  0  0  0  0
  -24.3780   -9.5170   21.8840 C   0  0  0  0  0  3  0  0  0  0  0  0
  -23.6340   -8.3330   22.0750 C   0  0  0  0  0  3  0  0  0  0  0  0
  -22.4320   -8.1290   21.3570 C   0  0  0  0  0  0  0  0  0  0  0  0
  -22.0080   -9.1020   20.4350 C   0  0  0  0  0  3  0  0  0  0  0  0
  -22.7540  -10.2780   20.2440 C   0  0  0  0  0  3  0  0  0  0  0  0
  -21.6580   -6.9980   21.4590 O   0  0  0  0  0  0  0  0  0  0  0  0
  -21.6040   -6.2630   22.6160 C   0  0  0  0  0  0  0  0  0  0  0  0
  -21.1750   -6.8270   23.8370 C   0  0  0  0  0  3  0  0  0  0  0  0
  -21.0710   -6.0190   24.9870 C   0  0  0  0  0  3  0  0  0  0  0  0
  -21.3860   -4.6500   24.9150 C   0  0  0  0  0  0  0  0  0  0  0  0
  -21.8080   -4.0850   23.7000 C   0  0  0  0  0  3  0  0  0  0  0  0
  -21.9140   -4.8890   22.5520 C   0  0  0  0  0  0  0  0  0  0  0  0
  -22.3030   -4.3370   21.3770 F   0  0  0  0  0  0  0  0  0  0  0  0
  -21.2770   -3.8710   26.0180 F   0  0  0  0  0  0  0  0  0  0  0  0
  -22.8920  -13.6180   21.2410 C   0  0  0  0  0  0  0  0  0  0  0  0
  -22.2010  -12.9100   22.1290 N   0  0  0  0  0  0  0  0  0  0  0  0
  -22.4500  -14.6700   20.7840 O   0  0  0  0  0  0  0  0  0  0  0  0
  -22.5770  -12.0590   22.5180 H   0  0  0  0  0  0  0  0  0  0  0  0
  -21.2910  -13.2250   22.4300 H   0  0  0  0  0  0  0  0  0  0  0  0
  -25.5050  -15.2420   20.2920 N   0  0  0  0  0  0  0  0  0  0  0  0
  -24.7630  -15.9130   20.4590 H   0  0  0  0  0  0  0  0  0  0  0  0
  -26.3480  -15.6670   19.9250 H   0  0  0  0  0  0  0  0  0  0  0  0
  -27.8660  -25.1250   20.0290 C   0  0  0  0  0  2  0  0  0  0  0  0
  -28.2690  -26.5040   20.2790 O   0  0  0  0  0  0  0  0  0  0  0  0
  -24.5240  -31.8720   23.2030 C   0  0  0  0  0  0  0  0  0  0  0  0
  -27.1830  -27.3790   20.1570 C   0  0  0  0  0  0  0  0  0  0  0  0
  -23.3480  -30.4870   21.5340 C   0  0  0  0  0  3  0  0  0  0  0  0
  -24.8230  -28.9710   20.1200 C   0  0  0  0  0  0  0  0  0  0  0  0
  -25.8920  -30.8150   21.4030 C   0  0  0  0  0  2  0  0  0  0  0  0
  -25.9800  -29.4490   20.7480 C   0  0  0  0  0  0  0  0  0  0  0  0
  -27.1640  -28.6600   20.7740 C   0  0  0  0  0  3  0  0  0  0  0  0
  -26.0060  -26.9780   19.4640 C   0  0  0  0  0  3  0  0  0  0  0  0
  -24.8340  -27.7360   19.4710 C   0  0  0  0  0  3  0  0  0  0  0  0
  -23.5850  -29.8360   20.1510 C   0  0  0  0  0  2  0  0  0  0  0  0
  -24.6050  -31.0710   22.1030 N   0  0  0  0  0  0  0  0  0  0  0  0
  -23.4310  -32.1490   23.7150 O   0  0  0  0  0  0  0  0  0  0  0  0
  -22.6730  -29.4550   22.4690 C   0  0  0  0  0  0  0  0  0  0  0  0
  -21.3480  -29.2900   22.3250 N   0  0  0  0  0  0  0  0  0  0  0  0
  -23.3390  -28.8110   23.2830 O   0  0  0  0  0  0  0  0  0  0  0  0
  -20.8730  -29.8630   21.6400 H   0  0  0  0  0  0  0  0  0  0  0  0
  -17.9470  -28.1530   22.7950 C   0  0  0  0  0  0  0  0  0  0  0  0
  -20.5090  -28.3560   23.0760 C   0  0  0  0  0  3  0  0  0  0  0  0
  -20.5850  -26.9330   22.4770 C   0  0  0  0  0  2  0  0  0  0  0  0
  -19.4790  -26.6480   21.4560 C   0  0  0  0  0  2  0  0  0  0  0  0
  -18.0980  -26.8100   22.0990 C   0  0  0  0  0  2  0  0  0  0  0  0
  -19.0800  -28.8850   23.2390 C   0  0  0  0  0  0  0  0  0  0  0  0
  -18.8850  -30.1430   23.8500 C   0  0  0  0  0  3  0  0  0  0  0  0
  -17.5910  -30.6690   24.0180 C   0  0  0  0  0  3  0  0  0  0  0  0
  -16.4720  -29.9340   23.5890 C   0  0  0  0  0  3  0  0  0  0  0  0
  -16.6510  -28.6770   22.9850 C   0  0  0  0  0  3  0  0  0  0  0  0
  -25.7990  -32.4960   23.8490 C   0  0  0  0  0  3  0  0  0  0  0  0
  -25.4820  -33.8890   24.1890 N   0  0  0  0  0  0  0  0  0  0  0  0
  -25.8150  -34.9480   23.4390 C   0  0  0  0  0  0  0  0  0  0  0  0
  -26.4930  -34.8550   22.4110 O   0  0  0  0  0  0  0  0  0  0  0  0
  -24.8800  -34.0350   24.9860 H   0  0  0  0  0  0  0  0  0  0  0  0
  -24.0830  -36.7360   23.0770 C   0  0  0  0  0  1  0  0  0  0  0  0
  -25.3170  -36.3300   23.9010 C   0  0  0  0  0  3  0  0  0  0  0  0
  -27.4380  -37.2160   24.7640 C   0  0  0  0  0  1  0  0  0  0  0  0
  -26.3460  -37.3890   23.8090 N   0  0  0  0  0  0  0  0  0  0  0  0
  -25.9350  -38.3060   23.9580 H   0  0  0  0  0  0  0  0  0  0  0  0
  -26.2960  -31.7080   25.1220 C   0  0  1  0  0  0  0  0  0  0  0  0
  -25.1840  -31.4500   26.1670 C   0  0  0  0  0  1  0  0  0  0  0  0
  -26.8920  -30.3380   24.7210 C   0  0  0  0  0  1  0  0  0  0  0  0
  -27.4310  -32.4970   25.8130 C   0  0  0  0  0  1  0  0  0  0  0  0
  1  5  1  0
  2  7  2  0
  2  4  1  0
  3  9  1  0
  3  1  2  0
  4  8  2  0
  6  2  1  0
  7  3  1  0
  8  1  1  0
  9 10  1  0
 11 10  1  0
 12 11  1  0
 13 21  1  0
 14 19  1  0
 15 16  1  0
 15 14  1  0
 17 16  1  0
 17 26  1  0
 17 18  1  0
 19 13  1  0
 19 18  1  0
 20 13  2  0
 21 12  1  0
 21 22  1  0
 23 24  2  0
 24 43  1  0
 25 24  1  0
 25 28  1  0
 26 27  1  0
 26 23  1  0
 27 25  2  0
 28 29  1  0
 29 30  2  0
 31 34  1  0
 31 30  1  0
 32 31  2  0
 33 32  1  0
 33 28  2  0
 34 35  1  0
 35 36  1  0
 36 37  2  0
 38 37  1  0
 38 42  1  0
 39 38  2  0
 40 35  2  0
 40 39  1  0
 41 40  1  0
 43 44  1  0
 44 47  1  0
 44 46  1  0
 45 43  2  0
 48 23  1  0
 48 49  1  0
 50 48  1  0
 51 52  1  0
 51  4  1  0
 53 64  2  0
 54 52  1  0
 54 59  1  0
 55 63  1  0
 55 65  1  0
 56 62  1  0
 56 58  1  0
 57 63  1  0
 58 59  2  0
 58 57  1  0
 60 61  1  0
 60 54  2  0
 61 56  2  0
 62 55  1  0
 63 53  1  0
 65 67  2  0
 66 65  1  0
 68 66  1  0
 69 78  2  0
 69 74  1  0
 70 66  1  0
 70 74  1  0
 71 70  1  0
 72 73  1  0
 72 71  1  0
 73 69  1  0
 74 75  2  0
 75 76  1  0
 77 76  2  0
 78 77  1  0
 79 53  1  0
 79 80  1  0
 79 89  1  0
 80 83  1  0
 81 85  1  0
 81 80  1  0
 82 81  2  0
 85 84  1  0
 87 85  1  0
 87 88  1  0
 87 86  1  0
 89 92  1  1
 89 90  1  0
 91 89  1  0
M  ISO  4  13 100  21 100  51 101  52 101
M  END
>  <TORSDO>  (25) 
F 21

>  <SCORE>  (25) 
-12.527

>  <name>  (25) 
24

>  <ligand_id>  (25) 
24

>  <original_smiles>  (25) 
[H]c1c([H])c([H])c2c(c1[H])C([H])([H])C([H])([H])C([H])([H])C2([H])N([H])C(=O)C1([H])N(C(=O)C([H])(N([H])C(=O)C([H])(N([H])C([H])([H])[H])C([H])([H])[H])C(C([H])([H])[H])(C([H])([H])[H])C([H])([H])[H])C([H])([H])c2c([H])c(OC([H])([H])c3nc(C([H])([H])[H])c(C([H])([H])C([H])([H])C([H])([H])C([H])([H])N([H])C(=O)N4C([H])([H])C([H])([H])C([H])([H])C([H])(n5nc(-c6c([H])c([H])c(Oc7c([H])c([H])c(F)c([H])c7F)c([H])c6[H])c(C(=O)N([H])[H])c5N([H])[H])C4([H])[H])nc3C([H])([H])[H])c([H])c([H])c2C1([H])[H]

>  <smiles>  (25) 
[H]c1c([H])c([H])c2c(c1[H])C([H])([H])C([H])([H])C([H])([H])C2([H])N([H])C(=O)C1([H])N(C(=O)C([H])(N([H])C(=O)C([H])(N([H])C([H])([H])[H])C([H])([H])[H])C(C([H])([H])[H])(C([H])([H])[H])C([H])([H])[H])C([H])([H])c2c([H])c(OC([H])([H])c3nc(C([H])([H])[H])c(C([H])([H])C([H])([H])C([H])([H])C([H])([H])N([H])C(=O)N4C([H])([H])C([H])([H])C([H])([H])C([H])(n5nc(-c6c([H])c([H])c(Oc7c([H])c([H])c(F)c([H])c7F)c([H])c6[H])c(C(=O)N([H])[H])c5N([H])[H])C4([H])[H])nc3C([H])([H])[H])c([H])c([H])c2C1([H])[H]

$$$$
25:0:0
     RDKit          3D

 93101  0  0  1  0  0  0  0  0999 V2000
  -29.3040  -24.1550   21.7180 C   0  0  0  0  0  3  0  0  0  0  0  0
  -31.0740  -23.6240   20.1690 C   0  0  0  0  0  3  0  0  0  0  0  0
  -30.3380  -24.5940   20.8670 C   0  0  0  0  0  0  0  0  0  0  0  0
  -29.0480  -22.7720   21.8270 C   0  0  0  0  0  0  0  0  0  0  0  0
  -29.8430  -21.8760   21.0730 C   0  0  0  0  0  0  0  0  0  0  0  0
  -27.9440  -22.2900   22.7570 C   0  0  0  0  0  1  0  0  0  0  0  0
  -30.8370  -22.3020   20.2690 N   0  0  0  0  0  0  0  0  0  0  0  0
  -30.7100  -26.0700   20.7040 C   0  0  0  0  0  2  0  0  0  0  0  0
  -29.5780  -27.0880   20.9350 C   0  0  0  0  0  2  0  0  0  0  0  0
  -28.4900  -26.7630   20.0790 O   0  0  0  0  0  0  0  0  0  0  0  0
  -24.6020  -31.8950   23.2160 C   0  0  0  0  0  0  0  0  0  0  0  0
  -27.3470  -27.5300   20.1440 C   0  0  0  0  0  0  0  0  0  0  0  0
  -23.4270  -30.4800   21.5590 C   0  0  0  0  0  3  0  0  0  0  0  0
  -24.9160  -28.9730   20.1390 C   0  0  0  0  0  0  0  0  0  0  0  0
  -25.9420  -30.8880   21.3770 C   0  0  0  0  0  2  0  0  0  0  0  0
  -26.0550  -29.5190   20.7430 C   0  0  0  0  0  0  0  0  0  0  0  0
  -27.2700  -28.8030   20.7570 C   0  0  0  0  0  3  0  0  0  0  0  0
  -26.1940  -26.9940   19.5380 C   0  0  0  0  0  3  0  0  0  0  0  0
  -24.9780  -27.7040   19.5360 C   0  0  0  0  0  3  0  0  0  0  0  0
  -23.6540  -29.8040   20.1800 C   0  0  0  0  0  2  0  0  0  0  0  0
  -24.6740  -31.1020   22.1090 N   0  0  0  0  0  0  0  0  0  0  0  0
  -23.5160  -32.1490   23.7530 O   0  0  0  0  0  0  0  0  0  0  0  0
  -22.7900  -29.4440   22.5140 C   0  0  0  0  0  0  0  0  0  0  0  0
  -21.4670  -29.2550   22.3890 N   0  0  0  0  0  0  0  0  0  0  0  0
  -23.4810  -28.8160   23.3200 O   0  0  0  0  0  0  0  0  0  0  0  0
  -20.9720  -29.8080   21.7030 H   0  0  0  0  0  0  0  0  0  0  0  0
  -18.0970  -28.0640   22.9070 C   0  0  0  0  0  0  0  0  0  0  0  0
  -20.6580  -28.3060   23.1530 C   0  0  0  0  0  3  0  0  0  0  0  0
  -20.7500  -26.8860   22.5460 C   0  0  0  0  0  2  0  0  0  0  0  0
  -19.6340  -26.5880   21.5410 C   0  0  0  0  0  2  0  0  0  0  0  0
  -18.2600  -26.7250   22.2040 C   0  0  0  0  0  2  0  0  0  0  0  0
  -19.2240  -28.8130   23.3360 C   0  0  0  0  0  0  0  0  0  0  0  0
  -19.0170  -30.0670   23.9510 C   0  0  0  0  0  3  0  0  0  0  0  0
  -17.7160  -30.5710   24.1410 C   0  0  0  0  0  3  0  0  0  0  0  0
  -16.6050  -29.8170   23.7290 C   0  0  0  0  0  3  0  0  0  0  0  0
  -16.7950  -28.5660   23.1160 C   0  0  0  0  0  3  0  0  0  0  0  0
  -25.8770  -32.5410   23.8420 C   0  0  0  0  0  3  0  0  0  0  0  0
  -25.5560  -33.9380   24.1620 N   0  0  0  0  0  0  0  0  0  0  0  0
  -25.8990  -34.9880   23.4070 C   0  0  0  0  0  0  0  0  0  0  0  0
  -26.5910  -34.8860   22.3910 O   0  0  0  0  0  0  0  0  0  0  0  0
  -24.9470  -34.0910   24.9530 H   0  0  0  0  0  0  0  0  0  0  0  0
  -24.1780  -36.7720   22.9910 C   0  0  0  0  0  1  0  0  0  0  0  0
  -25.3900  -36.3740   23.8470 C   0  0  0  0  0  3  0  0  0  0  0  0
  -27.4920  -37.2650   24.7520 C   0  0  0  0  0  1  0  0  0  0  0  0
  -26.4220  -37.4310   23.7710 N   0  0  0  0  0  0  0  0  0  0  0  0
  -26.0070  -38.3500   23.9070 H   0  0  0  0  0  0  0  0  0  0  0  0
  -26.3950  -31.7790   25.1220 C   0  0  1  0  0  0  0  0  0  0  0  0
  -25.2980  -31.5270   26.1830 C   0  0  0  0  0  1  0  0  0  0  0  0
  -26.9970  -30.4090   24.7310 C   0  0  0  0  0  1  0  0  0  0  0  0
  -27.5290  -32.5890   25.7920 C   0  0  0  0  0  1  0  0  0  0  0  0
  -29.6740  -20.3580   21.1130 C   0  0  0  0  0  2  0  0  0  0  0  0
  -29.0300  -19.8050   19.8240 C   0  0  0  0  0  2  0  0  0  0  0  0
  -29.0470  -18.2660   19.6920 C   0  0  0  0  0  2  0  0  0  0  0  0
  -30.4670  -17.6610   19.6630 C   0  0  0  0  0  2  0  0  0  0  0  0
  -30.8890  -16.9770   20.9820 C   0  0  0  0  0  2  0  0  0  0  0  0
  -31.0910  -14.5570   20.4780 C   0  0  0  0  0  0  0  0  0  0  0  0
  -30.7750  -12.3680   19.4020 C   0  0  0  0  0  2  0  0  0  0  0  0
  -29.8740  -12.5510   18.1640 C   0  0  0  0  0  2  0  0  0  0  0  0
  -28.3880  -12.4500   18.5580 C   0  0  0  0  0  2  0  0  0  0  0  0
  -28.0270  -13.3420   19.7780 C   0  0  0  0  0  3  0  0  0  0  0  0
  -29.0460  -13.1500   20.9250 C   0  0  0  0  0  2  0  0  0  0  0  0
  -30.3940  -13.3960   20.3810 N   0  0  0  0  0  0  0  0  0  0  0  0
  -32.2070  -14.7180   19.9760 O   0  0  0  0  0  0  0  0  0  0  0  0
  -30.4350  -15.5850   21.0390 N   0  0  0  0  0  0  0  0  0  0  0  0
  -29.5160  -15.4020   21.4140 H   0  0  0  0  0  0  0  0  0  0  0  0
  -25.6250  -14.0110   20.4120 C   0  0  0  0  0  0  0  0  0  0  0  0
  -24.5290  -13.2660   20.7630 C   0  0  0  0  0  0  0  0  0  0  0  0
  -24.9620  -11.9050   20.7580 C   0  0  0  0  0  0  0  0  0  0  0  0
  -26.6560  -13.1050   20.2230 N   0  0  0  0  0  0  0  0  0  0  0  0
  -26.2580  -11.8340   20.4840 N   0  0  0  0  0  0  0  0  0  0  0  0
  -24.2040  -10.6630   20.9490 C   0  0  0  0  0  0  0  0  0  0  0  0
  -24.5770   -9.7110   21.9230 C   0  0  0  0  0  3  0  0  0  0  0  0
  -23.8210   -8.5320   22.0980 C   0  0  0  0  0  3  0  0  0  0  0  0
  -22.6770   -8.2960   21.2980 C   0  0  0  0  0  0  0  0  0  0  0  0
  -22.3250   -9.2350   20.3150 C   0  0  0  0  0  3  0  0  0  0  0  0
  -23.0810  -10.4060   20.1380 C   0  0  0  0  0  3  0  0  0  0  0  0
  -21.8980   -7.1670   21.3780 O   0  0  0  0  0  0  0  0  0  0  0  0
  -21.7600   -6.4700   22.5520 C   0  0  0  0  0  0  0  0  0  0  0  0
  -21.2580   -7.0760   23.7230 C   0  0  0  0  0  3  0  0  0  0  0  0
  -21.0650   -6.3060   24.8870 C   0  0  0  0  0  3  0  0  0  0  0  0
  -21.3680   -4.9310   24.8800 C   0  0  0  0  0  0  0  0  0  0  0  0
  -21.8650   -4.3250   23.7120 C   0  0  0  0  0  3  0  0  0  0  0  0
  -22.0590   -5.0920   22.5520 C   0  0  0  0  0  0  0  0  0  0  0  0
  -22.5160   -4.5000   21.4220 F   0  0  0  0  0  0  0  0  0  0  0  0
  -21.1810   -4.1900   25.9970 F   0  0  0  0  0  0  0  0  0  0  0  0
  -23.1380  -13.7770   20.9980 C   0  0  0  0  0  0  0  0  0  0  0  0
  -22.3840  -13.1130   21.8680 N   0  0  0  0  0  0  0  0  0  0  0  0
  -22.7260  -14.7970   20.4470 O   0  0  0  0  0  0  0  0  0  0  0  0
  -22.7310  -12.2890   22.3370 H   0  0  0  0  0  0  0  0  0  0  0  0
  -21.4470  -13.4320   22.0700 H   0  0  0  0  0  0  0  0  0  0  0  0
  -25.8190  -15.3750   20.2180 N   0  0  0  0  0  0  0  0  0  0  0  0
  -25.0600  -16.0430   20.3010 H   0  0  0  0  0  0  0  0  0  0  0  0
  -26.6860  -15.7970   19.9130 H   0  0  0  0  0  0  0  0  0  0  0  0
  1  4  1  0
  2  7  2  0
  2  3  1  0
  3  1  2  0
  4  6  1  0
  5 51  1  0
  5  4  2  0
  7  5  1  0
  8  3  1  0
  8  9  1  0
 10 12  1  0
 10  9  1  0
 11 22  2  0
 12 17  1  0
 13 21  1  0
 13 23  1  0
 14 20  1  0
 14 16  1  0
 15 21  1  0
 16 17  2  0
 16 15  1  0
 18 12  2  0
 19 18  1  0
 19 14  2  0
 20 13  1  0
 21 11  1  0
 23 25  2  0
 24 23  1  0
 26 24  1  0
 27 36  2  0
 27 32  1  0
 28 24  1  0
 28 32  1  0
 29 28  1  0
 30 31  1  0
 30 29  1  0
 31 27  1  0
 32 33  2  0
 33 34  1  0
 35 34  2  0
 36 35  1  0
 37 11  1  0
 37 38  1  0
 37 47  1  0
 38 41  1  0
 39 43  1  0
 39 38  1  0
 40 39  2  0
 43 42  1  0
 45 43  1  0
 45 46  1  0
 45 44  1  0
 47 50  1  1
 47 48  1  0
 49 47  1  0
 52 51  1  0
 53 52  1  0
 54 53  1  0
 54 55  1  0
 55 64  1  0
 56 64  1  0
 57 62  1  0
 58 59  1  0
 58 57  1  0
 60 59  1  0
 60 69  1  0
 60 61  1  0
 62 56  1  0
 62 61  1  0
 63 56  2  0
 64 65  1  0
 66 67  2  0
 67 86  1  0
 68 67  1  0
 68 71  1  0
 69 66  1  0
 69 70  1  0
 70 68  2  0
 71 72  1  0
 72 73  2  0
 74 77  1  0
 74 73  1  0
 75 74  2  0
 76 75  1  0
 76 71  2  0
 77 78  1  0
 78 83  2  0
 78 79  1  0
 79 80  2  0
 81 80  1  0
 81 85  1  0
 82 81  2  0
 83 82  1  0
 84 83  1  0
 86 87  1  0
 87 90  1  0
 87 89  1  0
 88 86  2  0
 91 92  1  0
 91 66  1  0
 93 91  1  0
M  ISO  4   9 101  10 101  56 100  64 100
M  END
>  <TORSDO>  (26) 
F 23

>  <SCORE>  (26) 
-11.853

>  <name>  (26) 
25

>  <ligand_id>  (26) 
25

>  <original_smiles>  (26) 
[H]c1nc(C([H])([H])C([H])([H])C([H])([H])C([H])([H])C([H])([H])N([H])C(=O)N2C([H])([H])C([H])([H])C([H])([H])C([H])(n3nc(-c4c([H])c([H])c(Oc5c([H])c([H])c(F)c([H])c5F)c([H])c4[H])c(C(=O)N([H])[H])c3N([H])[H])C2([H])[H])c(C([H])([H])[H])c([H])c1C([H])([H])C([H])([H])Oc1c([H])c([H])c2c(c1[H])C([H])([H])N(C(=O)C([H])(N([H])C(=O)C([H])(N([H])C([H])([H])[H])C([H])([H])[H])C(C([H])([H])[H])(C([H])([H])[H])C([H])([H])[H])C([H])(C(=O)N([H])C1([H])c3c([H])c([H])c([H])c([H])c3C([H])([H])C([H])([H])C1([H])[H])C2([H])[H]

>  <smiles>  (26) 
[H]c1nc(C([H])([H])C([H])([H])C([H])([H])C([H])([H])C([H])([H])N([H])C(=O)N2C([H])([H])C([H])([H])C([H])([H])C([H])(n3nc(-c4c([H])c([H])c(Oc5c([H])c([H])c(F)c([H])c5F)c([H])c4[H])c(C(=O)N([H])[H])c3N([H])[H])C2([H])[H])c(C([H])([H])[H])c([H])c1C([H])([H])C([H])([H])Oc1c([H])c([H])c2c(c1[H])C([H])([H])N(C(=O)C([H])(N([H])C(=O)C([H])(N([H])C([H])([H])[H])C([H])([H])[H])C(C([H])([H])[H])(C([H])([H])[H])C([H])([H])[H])C([H])(C(=O)N([H])C1([H])c3c([H])c([H])c([H])c([H])c3C([H])([H])C([H])([H])C1([H])[H])C2([H])[H]

$$$$
26:0:0
     RDKit          3D

 90 98  0  0  1  0  0  0  0  0999 V2000
  -27.0880  -23.1000   20.1690 C   0  0  0  0  0  3  0  0  0  0  0  0
  -28.4210  -22.9390   20.4640 C   0  0  0  0  0  0  0  0  0  0  0  0
  -28.6380  -21.5100   20.1510 C   0  0  0  0  0  0  0  0  0  0  0  0
  -27.5100  -20.9710   19.6990 N   0  0  0  0  0  0  0  0  0  0  0  0
  -26.5750  -21.9240   19.6990 N   0  0  0  0  0  0  0  0  0  0  0  0
  -24.7320  -22.6340   18.2020 C   0  0  0  0  0  1  0  0  0  0  0  0
  -25.2240  -21.6280   19.2530 C   0  0  0  0  0  2  0  0  0  0  0  0
  -29.2900  -24.1640   20.9280 C   0  0  0  0  0  2  0  0  0  0  0  0
  -28.4850  -25.3950   21.5760 C   0  0  0  0  0  2  0  0  0  0  0  0
  -28.7530  -26.8080   21.2200 O   0  0  0  0  0  0  0  0  0  0  0  0
  -24.5390  -32.1840   23.5520 C   0  0  0  0  0  0  0  0  0  0  0  0
  -27.6210  -27.6120   21.0270 C   0  0  0  0  0  0  0  0  0  0  0  0
  -23.5500  -30.6270   21.9090 C   0  0  0  0  0  3  0  0  0  0  0  0
  -25.1930  -29.0760   20.7100 C   0  0  0  0  0  0  0  0  0  0  0  0
  -26.0750  -31.0740   21.9190 C   0  0  0  0  0  2  0  0  0  0  0  0
  -26.2780  -29.6670   21.3710 C   0  0  0  0  0  0  0  0  0  0  0  0
  -27.4990  -28.9450   21.5200 C   0  0  0  0  0  3  0  0  0  0  0  0
  -26.5200  -27.0730   20.3250 C   0  0  0  0  0  3  0  0  0  0  0  0
  -25.3160  -27.7840   20.1770 C   0  0  0  0  0  3  0  0  0  0  0  0
  -23.9140  -29.8820   20.5990 C   0  0  0  0  0  2  0  0  0  0  0  0
  -24.7350  -31.3160   22.5170 N   0  0  0  0  0  0  0  0  0  0  0  0
  -23.4030  -32.4360   23.9750 O   0  0  0  0  0  0  0  0  0  0  0  0
  -22.8560  -29.6380   22.8750 C   0  0  0  0  0  0  0  0  0  0  0  0
  -21.5630  -29.3630   22.6330 N   0  0  0  0  0  0  0  0  0  0  0  0
  -23.4840  -29.1170   23.8000 O   0  0  0  0  0  0  0  0  0  0  0  0
  -21.1140  -29.8420   21.8650 H   0  0  0  0  0  0  0  0  0  0  0  0
  -18.2140  -28.0300   22.9320 C   0  0  0  0  0  0  0  0  0  0  0  0
  -20.7270  -28.4260   23.3870 C   0  0  0  0  0  3  0  0  0  0  0  0
  -20.9400  -26.9760   22.8970 C   0  0  0  0  0  2  0  0  0  0  0  0
  -19.9380  -26.5520   21.8200 C   0  0  0  0  0  2  0  0  0  0  0  0
  -18.5050  -26.6590   22.3470 C   0  0  0  0  0  2  0  0  0  0  0  0
  -19.2600  -28.8670   23.4050 C   0  0  0  0  0  0  0  0  0  0  0  0
  -18.9380  -30.1470   23.9060 C   0  0  0  0  0  3  0  0  0  0  0  0
  -17.6040  -30.5940   23.9390 C   0  0  0  0  0  3  0  0  0  0  0  0
  -16.5710  -29.7560   23.4820 C   0  0  0  0  0  3  0  0  0  0  0  0
  -16.8770  -28.4760   22.9850 C   0  0  0  0  0  3  0  0  0  0  0  0
  -25.7330  -32.9190   24.2380 C   0  0  0  0  0  3  0  0  0  0  0  0
  -25.3560  -34.3310   24.3900 N   0  0  0  0  0  0  0  0  0  0  0  0
  -25.7060  -35.3080   23.5420 C   0  0  0  0  0  0  0  0  0  0  0  0
  -26.4480  -35.1190   22.5740 O   0  0  0  0  0  0  0  0  0  0  0  0
  -24.7050  -34.5480   25.1290 H   0  0  0  0  0  0  0  0  0  0  0  0
  -23.9250  -36.9680   22.9090 C   0  0  0  0  0  1  0  0  0  0  0  0
  -25.1430  -36.7170   23.8110 C   0  0  0  0  0  3  0  0  0  0  0  0
  -27.2090  -37.7810   24.6060 C   0  0  0  0  0  1  0  0  0  0  0  0
  -26.1380  -37.7940   23.6140 N   0  0  0  0  0  0  0  0  0  0  0  0
  -25.6900  -38.7080   23.6420 H   0  0  0  0  0  0  0  0  0  0  0  0
  -26.1270  -32.2960   25.6340 C   0  0  1  0  0  0  0  0  0  0  0  0
  -24.9230  -32.0760   26.5790 C   0  0  0  0  0  1  0  0  0  0  0  0
  -26.8310  -30.9320   25.4450 C   0  0  0  0  0  1  0  0  0  0  0  0
  -27.1360  -33.2190   26.3530 C   0  0  0  0  0  1  0  0  0  0  0  0
  -29.8340  -20.4980   20.1240 C   0  0  0  0  0  3  0  0  0  0  0  0
  -29.4430  -18.9420   20.2820 C   0  0  0  0  0  3  0  0  0  0  0  0
  -30.4700  -17.7520   20.0110 C   0  0  0  0  0  3  0  0  0  0  0  0
  -30.0020  -16.3010   20.4970 C   0  0  0  0  0  3  0  0  0  0  0  0
  -30.7830  -15.0120   20.0080 C   0  0  0  0  0  0  0  0  0  0  0  0
  -30.5970  -12.7110   19.0680 C   0  0  0  0  0  2  0  0  0  0  0  0
  -29.6160  -12.7490   17.8750 C   0  0  0  0  0  2  0  0  0  0  0  0
  -28.1600  -12.5790   18.3560 C   0  0  0  0  0  2  0  0  0  0  0  0
  -27.8170  -13.5080   19.5530 C   0  0  0  0  0  3  0  0  0  0  0  0
  -28.9100  -13.4410   20.6430 C   0  0  0  0  0  2  0  0  0  0  0  0
  -30.1940  -13.7730   20.0110 N   0  0  0  0  0  0  0  0  0  0  0  0
  -31.9100  -15.1640   19.5270 O   0  0  0  0  0  0  0  0  0  0  0  0
  -25.4780  -14.1170   20.4300 C   0  0  0  0  0  0  0  0  0  0  0  0
  -24.4120  -13.3470   20.8120 C   0  0  0  0  0  0  0  0  0  0  0  0
  -24.8400  -11.9900   20.6830 C   0  0  0  0  0  0  0  0  0  0  0  0
  -26.4870  -13.2290   20.0920 N   0  0  0  0  0  0  0  0  0  0  0  0
  -26.1110  -11.9410   20.3050 N   0  0  0  0  0  0  0  0  0  0  0  0
  -24.0940  -10.7340   20.8430 C   0  0  0  0  0  0  0  0  0  0  0  0
  -24.5340   -9.7220   21.7250 C   0  0  0  0  0  3  0  0  0  0  0  0
  -23.7910   -8.5320   21.8760 C   0  0  0  0  0  3  0  0  0  0  0  0
  -22.5940   -8.3450   21.1450 C   0  0  0  0  0  0  0  0  0  0  0  0
  -22.1720   -9.3460   20.2520 C   0  0  0  0  0  3  0  0  0  0  0  0
  -22.9170  -10.5280   20.0980 C   0  0  0  0  0  3  0  0  0  0  0  0
  -21.8220   -7.2090   21.2070 O   0  0  0  0  0  0  0  0  0  0  0  0
  -21.7760   -6.4320   22.3350 C   0  0  0  0  0  0  0  0  0  0  0  0
  -21.3580   -6.9510   23.5810 C   0  0  0  0  0  3  0  0  0  0  0  0
  -21.2560   -6.1000   24.7000 C   0  0  0  0  0  3  0  0  0  0  0  0
  -21.5640   -4.7310   24.5740 C   0  0  0  0  0  0  0  0  0  0  0  0
  -21.9740   -4.2120   23.3340 C   0  0  0  0  0  3  0  0  0  0  0  0
  -22.0760   -5.0600   22.2180 C   0  0  0  0  0  0  0  0  0  0  0  0
  -22.4530   -4.5510   21.0190 F   0  0  0  0  0  0  0  0  0  0  0  0
  -21.4590   -3.9120   25.6470 F   0  0  0  0  0  0  0  0  0  0  0  0
  -23.0420  -13.8370   21.1840 C   0  0  0  0  0  0  0  0  0  0  0  0
  -22.3450  -13.1140   22.0530 N   0  0  0  0  0  0  0  0  0  0  0  0
  -22.6010  -14.8970   20.7400 O   0  0  0  0  0  0  0  0  0  0  0  0
  -22.7160  -12.2570   22.4340 H   0  0  0  0  0  0  0  0  0  0  0  0
  -21.4280  -13.4240   22.3410 H   0  0  0  0  0  0  0  0  0  0  0  0
  -25.6650  -15.4910   20.3230 N   0  0  0  0  0  0  0  0  0  0  0  0
  -24.9240  -16.1530   20.5270 H   0  0  0  0  0  0  0  0  0  0  0  0
  -26.5150  -15.9350   20.0010 H   0  0  0  0  0  0  0  0  0  0  0  0
  1  2  2  0
  2  8  1  0
  3  2  1  0
  4  5  1  0
  4  3  2  0
  5  1  1  0
  6  7  1  0
  7  5  1  0
  8  9  1  0
 10  9  1  0
 11 22  2  0
 12 10  1  0
 12 17  1  0
 13 21  1  0
 13 23  1  0
 14 16  1  0
 15 21  1  0
 16 17  2  0
 16 15  1  0
 18 12  2  0
 19 18  1  0
 19 14  2  0
 20 14  1  0
 20 13  1  0
 21 11  1  0
 23 25  2  0
 24 23  1  0
 26 24  1  0
 27 36  2  0
 27 32  1  0
 28 24  1  0
 28 32  1  0
 29 28  1  0
 30 31  1  0
 30 29  1  0
 31 27  1  0
 32 33  2  0
 33 34  1  0
 35 34  2  0
 36 35  1  0
 37 11  1  0
 37 38  1  0
 37 47  1  0
 38 41  1  0
 39 43  1  0
 39 38  1  0
 40 39  2  0
 43 42  1  0
 45 46  1  0
 45 43  1  0
 45 44  1  0
 47 50  1  1
 47 48  1  0
 49 47  1  0
 51  3  1  0
 51 52  2  0
 53 52  1  0
 53 54  2  0
 55 61  1  0
 55 54  1  0
 56 61  1  0
 57 58  1  0
 57 56  1  0
 59 58  1  0
 59 66  1  0
 59 60  1  0
 61 60  1  0
 62 55  2  0
 63 64  2  0
 64 83  1  0
 65 64  1  0
 65 68  1  0
 66 67  1  0
 66 63  1  0
 67 65  2  0
 68 69  1  0
 69 70  2  0
 71 74  1  0
 71 70  1  0
 72 71  2  0
 73 72  1  0
 73 68  2  0
 74 75  1  0
 75 76  1  0
 76 77  2  0
 78 77  1  0
 78 82  1  0
 79 78  2  0
 80 75  2  0
 80 79  1  0
 81 80  1  0
 83 84  1  0
 84 87  1  0
 84 86  1  0
 85 83  2  0
 88 63  1  0
 88 89  1  0
 90 88  1  0
M  ISO  4   9 101  10 101  54 100  55 100
M  END
>  <TORSDO>  (27) 
F 23

>  <SCORE>  (27) 
-10.818

>  <name>  (27) 
26

>  <ligand_id>  (27) 
26

>  <original_smiles>  (27) 
[H]c1c([H])c([H])c2c(c1[H])C([H])([H])C([H])([H])C([H])([H])C2([H])N([H])C(=O)C1([H])N(C(=O)C([H])(N([H])C(=O)C([H])(N([H])C([H])([H])[H])C([H])([H])[H])C(C([H])([H])[H])(C([H])([H])[H])C([H])([H])[H])C([H])([H])c2c([H])c(OC([H])([H])C([H])([H])c3c(C([H])([H])C([H])([H])C([H])([H])C([H])([H])C(=O)N4C([H])([H])C([H])([H])C([H])([H])C([H])(n5nc(-c6c([H])c([H])c(Oc7c([H])c([H])c(F)c([H])c7F)c([H])c6[H])c(C(=O)N([H])[H])c5N([H])[H])C4([H])[H])nn(C([H])([H])C([H])([H])[H])c3[H])c([H])c([H])c2C1([H])[H]

>  <smiles>  (27) 
[H]c1c([H])c([H])c2c(c1[H])C([H])([H])C([H])([H])C([H])([H])C2([H])N([H])C(=O)C1([H])N(C(=O)C([H])(N([H])C(=O)C([H])(N([H])C([H])([H])[H])C([H])([H])[H])C(C([H])([H])[H])(C([H])([H])[H])C([H])([H])[H])C([H])([H])c2c([H])c(OC([H])([H])C([H])([H])c3c(C([H])([H])C([H])([H])C([H])([H])C([H])([H])C(=O)N4C([H])([H])C([H])([H])C([H])([H])C([H])(n5nc(-c6c([H])c([H])c(Oc7c([H])c([H])c(F)c([H])c7F)c([H])c6[H])c(C(=O)N([H])[H])c5N([H])[H])C4([H])[H])nn(C([H])([H])C([H])([H])[H])c3[H])c([H])c([H])c2C1([H])[H]

$$$$
27:0:0
     RDKit          3D

 93 89  0  0  1  0  0  0  0  0999 V2000
  -21.9840  -25.2460   23.3650 C   0  0  0  0  0  2  0  0  0  0  0  0
  -19.4840  -25.3950   21.2720 C   0  0  0  0  0  3  0  0  0  0  0  0
  -22.0470  -24.1970   22.0120 C   0  0  0  0  0  2  0  0  0  0  0  0
  -20.6010  -24.2360   21.3410 C   0  0  0  0  0  0  0  0  0  0  0  0
  -21.0520  -26.6980   23.6000 C   0  0  0  0  0  1  0  0  0  0  0  0
  -20.3650  -23.1250   20.3350 C   0  0  0  0  0  1  0  0  0  0  0  0
  -19.5360  -26.7490   22.0950 N   0  0  0  0  0  1  0  0  0  0  0  0
  -23.5250  -23.2050   21.0680 C   0  0  0  0  0 15  0  0  0  0  0  0
  -25.3210  -23.2110   19.9480 C   0  0  0  0  0 15  0  0  0  0  0  0
  -26.5330  -22.2980   18.4640 C   0  0  0  0  0 15  0  0  0  0  0  0
  -28.4630  -21.7620   17.7790 C   0  0  0  0  0  1  0  0  0  0  0  0
  -30.9040  -20.8240   15.4800 C   0  0  0  0  0  0  0  0  0  0  0  0
  -33.0690  -21.0950   13.7530 C   0  0  0  0  0  2  0  0  0  0  0  0
  -34.0310  -22.3110   14.0260 C   0  0  0  0  0  2  0  0  0  0  0  0
  -33.3450  -23.6500   13.7020 C   0  0  0  0  0  2  0  0  0  0  0  0
  -31.8670  -23.5590   14.1240 C   0  0  0  0  0  3  0  0  0  0  0  0
  -31.1410  -22.3780   13.4950 C   0  0  0  0  0  2  0  0  0  0  0  0
  -31.6240  -21.3150   14.3040 N   0  0  0  0  0  0  0  0  0  0  0  0
  -31.5670  -19.7620   15.7260 O   0  0  0  0  0  0  0  0  0  0  0  0
  -29.6470  -21.5450   16.2860 N   0  0  0  0  0  0  0  0  0  0  0  0
  -29.4390  -22.3450   15.7000 H   0  0  0  0  0  0  0  0  0  0  0  0
  -30.1330  -25.2530   14.7150 C   0  0  0  0  0  0  0  0  0  0  0  0
  -29.6320  -26.3110   14.0230 C   0  0  0  0  0  0  0  0  0  0  0  0
  -30.2930  -26.3070   12.7560 C   0  0  0  0  0  0  0  0  0  0  0  0
  -31.0760  -24.7060   13.8730 N   0  0  0  0  0  0  0  0  0  0  0  0
  -31.1160  -25.2810   12.6550 N   0  0  0  0  0  0  0  0  0  0  0  0
  -30.2580  -27.2650   11.6590 C   0  0  0  0  0  0  0  0  0  0  0  0
  -30.0150  -26.8590   10.3300 C   0  0  0  0  0  3  0  0  0  0  0  0
  -29.9740  -27.8150    9.2950 C   0  0  0  0  0  3  0  0  0  0  0  0
  -30.1760  -29.1850    9.5900 C   0  0  0  0  0  0  0  0  0  0  0  0
  -30.4450  -29.5750   10.9130 C   0  0  0  0  0  3  0  0  0  0  0  0
  -30.4900  -28.6230   11.9410 C   0  0  0  0  0  3  0  0  0  0  0  0
  -30.1730  -30.1830    8.6490 O   0  0  0  0  0  0  0  0  0  0  0  0
  -29.5080  -30.0440    7.4590 C   0  0  0  0  0  0  0  0  0  0  0  0
  -28.1250  -29.7630    7.4060 C   0  0  0  0  0  3  0  0  0  0  0  0
  -27.4680  -29.6980    6.1610 C   0  0  0  0  0  3  0  0  0  0  0  0
  -28.1880  -29.9230    4.9720 C   0  0  0  0  0  0  0  0  0  0  0  0
  -29.5650  -30.2050    5.0240 C   0  0  0  0  0  3  0  0  0  0  0  0
  -30.2210  -30.2690    6.2650 C   0  0  0  0  0  0  0  0  0  0  0  0
  -31.5440  -30.5620    6.3130 F   0  0  0  0  0  0  0  0  0  0  0  0
  -27.5560  -29.8700    3.7770 F   0  0  0  0  0  0  0  0  0  0  0  0
  -28.6770  -27.3300   14.5580 C   0  0  0  0  0  0  0  0  0  0  0  0
  -27.8470  -27.8990   13.6940 N   0  0  0  0  0  0  0  0  0  0  0  0
  -28.6360  -27.5910   15.7590 O   0  0  0  0  0  0  0  0  0  0  0  0
  -27.8730  -27.6660   12.7120 H   0  0  0  0  0  0  0  0  0  0  0  0
  -27.1740  -28.5790   14.0200 H   0  0  0  0  0  0  0  0  0  0  0  0
  -29.8890  -24.7270   15.9820 N   0  0  0  0  0  0  0  0  0  0  0  0
  -29.2990  -25.2390   16.6290 H   0  0  0  0  0  0  0  0  0  0  0  0
  -30.5430  -24.1190   16.4590 H   0  0  0  0  0  0  0  0  0  0  0  0
  -21.3110  -28.2920   24.8910 C   0  0  0  0  0 15  0  0  0  0  0  0
  -21.8280  -30.3360   23.9620 C   0  0  0  0  0 15  0  0  0  0  0  0
  -22.9560  -30.3180   21.9370 C   0  0  0  0  0 15  0  0  0  0  0  0
  -24.1510  -28.9050   21.2640 O   0  0  0  0  0  1  0  0  0  0  0  0
  -25.1470  -28.3100   26.3200 C   0  0  0  0  0  0  0  0  0  0  0  0
  -25.5450  -28.5180   20.8770 C   0  0  0  0  0  3  0  0  0  0  0  0
  -24.2460  -29.1530   24.3150 C   0  0  0  0  0  3  0  0  0  0  0  0
  -25.7890  -30.2740   22.5740 C   0  0  0  0  0  3  0  0  0  0  0  0
  -26.6370  -28.7290   24.3270 C   0  0  0  0  0  2  0  0  0  0  0  0
  -26.4630  -29.0950   22.8730 C   0  0  0  0  0  3  0  0  0  0  0  0
  -26.5230  -28.1650   21.8480 C   0  0  0  0  0  2  0  0  0  0  0  0
  -25.9240  -29.6370   20.2050 C   0  0  0  0  0  2  0  0  0  0  0  0
  -25.6520  -30.6450   21.1690 C   0  0  0  0  0  2  0  0  0  0  0  0
  -24.9110  -30.5640   23.7750 C   0  0  0  0  0  2  0  0  0  0  0  0
  -25.3350  -28.6250   25.0280 N   0  0  0  0  0  0  0  0  0  0  0  0
  -24.0550  -28.3910   26.9200 O   0  0  0  0  0  0  0  0  0  0  0  0
  -23.3960  -27.8510   23.4950 C   0  0  0  0  0  0  0  0  0  0  0  0
  -22.4640  -27.9260   22.3070 N   0  0  0  0  0  0  0  0  0  0  0  0
  -23.4090  -26.7660   24.0180 O   0  0  0  0  0  0  0  0  0  0  0  0
  -22.3310  -26.9970   21.9310 H   0  0  0  0  0  0  0  0  0  0  0  0
  -17.9630  -28.2750   21.6940 C   0  0  0  0  0  2  0  0  0  0  0  0
  -21.2140  -29.1140   21.5780 C   0  0  0  0  0  2  0  0  0  0  0  0
  -21.8080  -28.9950   20.1600 C   0  0  0  0  0  2  0  0  0  0  0  0
  -21.4210  -27.5680   19.5530 C   0  0  0  0  0  1  0  0  0  0  0  0
  -18.2640  -26.8200   20.3860 C   0  0  0  0  0 15  0  0  0  0  0  0
  -19.1640  -29.2350   22.2020 C   0  0  0  0  0  2  0  0  0  0  0  0
  -18.7020  -29.6890   23.5680 C   0  0  0  0  0  3  0  0  0  0  0  0
  -17.4110  -29.6860   24.1500 C   0  0  0  0  0  3  0  0  0  0  0  0
  -16.3540  -29.4130   23.3040 C   0  0  0  0  0  3  0  0  0  0  0  0
  -16.6480  -28.7280   22.0980 C   0  0  0  0  0  3  0  0  0  0  0  0
  -26.3590  -27.7600   27.0400 C   0  0  0  0  0  3  0  0  0  0  0  0
  -26.2330  -28.1550   28.4410 N   0  0  0  0  0  0  0  0  0  0  0  0
  -26.8460  -29.2200   28.9720 C   0  0  0  0  0  0  0  0  0  0  0  0
  -27.6320  -29.9300   28.3370 O   0  0  0  0  0  0  0  0  0  0  0  0
  -25.5690  -27.6480   29.0060 H   0  0  0  0  0  0  0  0  0  0  0  0
  -25.6180  -30.7250   30.5700 C   0  0  0  0  0  1  0  0  0  0  0  0
  -26.5640  -29.5200   30.4530 C   0  0  0  0  0  3  0  0  0  0  0  0
  -28.6290  -28.5720   31.3810 C   0  0  0  0  0  1  0  0  0  0  0  0
  -27.7920  -29.7610   31.2390 N   0  0  0  0  0  0  0  0  0  0  0  0
  -27.5630  -30.1010   32.1690 H   0  0  0  0  0  0  0  0  0  0  0  0
  -26.4240  -26.2090   26.8360 C   0  0  1  0  0  0  0  0  0  0  0  0
  -25.1150  -25.4720   27.2040 C   0  0  0  0  0  1  0  0  0  0  0  0
  -26.7720  -25.8000   25.3820 C   0  0  0  0  0  1  0  0  0  0  0  0
  -27.5740  -25.6760   27.7080 C   0  0  0  0  0  1  0  0  0  0  0  0
  1  5  1  0
  2  4  2  0
  2  7  1  0
  3  1  1  0
  4  3  1  0
  6  4  1  0
 12 19  2  0
 12 20  1  0
 13 14  1  0
 13 18  1  0
 15 14  1  0
 15 16  1  0
 16 17  1  0
 17 18  1  0
 18 12  1  0
 20 11  1  0
 21 20  1  0
 22 47  1  0
 23 42  1  0
 23 22  2  0
 24 23  1  0
 25 16  1  0
 25 22  1  0
 26 24  2  0
 26 25  1  0
 27 32  1  0
 27 24  1  0
 28 27  2  0
 29 30  2  0
 29 28  1  0
 30 31  1  0
 31 32  2  0
 33 30  1  0
 34 33  1  0
 35 34  1  0
 36 35  2  0
 37 38  2  0
 37 36  1  0
 38 39  1  0
 39 40  1  0
 39 34  2  0
 41 37  1  0
 42 44  2  0
 43 46  1  0
 43 42  1  0
 45 43  1  0
 47 49  1  0
 47 48  1  0
 54 65  2  0
 55 53  1  0
 55 60  1  0
 56 66  1  0
 56 64  1  0
 57 62  1  0
 57 59  1  0
 57 63  1  0
 58 64  1  0
 59 60  1  0
 59 58  1  0
 61 55  1  0
 61 62  1  0
 63 56  1  0
 64 54  1  0
 66 68  2  0
 67 66  1  0
 69 67  1  0
 70 79  1  0
 70 75  1  0
 71 67  1  0
 72 71  1  0
 73 72  1  0
 75 76  1  0
 76 77  2  0
 78 77  1  0
 79 78  2  0
 80 54  1  0
 80 81  1  0
 81 82  1  0
 81 84  1  0
 82 86  1  0
 83 82  2  0
 86 85  1  0
 86 88  1  0
 88 87  1  0
 88 89  1  0
 90 80  1  0
 90 91  1  1
 90 93  1  0
 92 90  1  0
M  ISO  4  12 100  20 100  52 101  53 101
M  END
>  <TORSDO>  (28) 
F 23

>  <SCORE>  (28) 
1.770

>  <name>  (28) 
27

>  <ligand_id>  (28) 
27

>  <original_smiles>  (28) 
[H]c1nc(C([H])([H])C([H])([H])C([H])([H])Oc2c([H])c([H])c3c(c2[H])C([H])([H])N(C(=O)C([H])(N([H])C(=O)C([H])(N([H])C([H])([H])[H])C([H])([H])[H])C(C([H])([H])[H])(C([H])([H])[H])C([H])([H])[H])C([H])(C(=O)N([H])C2([H])c4c([H])c([H])c([H])c([H])c4C([H])([H])C([H])([H])C2([H])[H])C3([H])[H])c([H])c(C([H])([H])C([H])([H])C([H])([H])C([H])([H])N([H])C(=O)N2C([H])([H])C([H])([H])C([H])([H])C([H])(n3nc(-c4c([H])c([H])c(Oc5c([H])c([H])c(F)c([H])c5F)c([H])c4[H])c(C(=O)N([H])[H])c3N([H])[H])C2([H])[H])c1C([H])([H])[H]

>  <smiles>  (28) 
[H]c1nc(C([H])([H])C([H])([H])C([H])([H])Oc2c([H])c([H])c3c(c2[H])C([H])([H])N(C(=O)C([H])(N([H])C(=O)C([H])(N([H])C([H])([H])[H])C([H])([H])[H])C(C([H])([H])[H])(C([H])([H])[H])C([H])([H])[H])C([H])(C(=O)N([H])C2([H])c4c([H])c([H])c([H])c([H])c4C([H])([H])C([H])([H])C2([H])[H])C3([H])[H])c([H])c(C([H])([H])C([H])([H])C([H])([H])C([H])([H])N([H])C(=O)N2C([H])([H])C([H])([H])C([H])([H])C([H])(n3nc(-c4c([H])c([H])c(Oc5c([H])c([H])c(F)c([H])c5F)c([H])c4[H])c(C(=O)N([H])[H])c3N([H])[H])C2([H])[H])c1C([H])([H])[H]

$$$$
28:0:0
     RDKit          3D

 95103  0  0  1  0  0  0  0  0999 V2000
  -25.8080  -24.3660   21.2570 C   0  0  0  0  0  3  0  0  0  0  0  0
  -27.7720  -23.8350   19.4980 C   0  0  0  0  0  0  0  0  0  0  0  0
  -26.8540  -22.8470   19.9180 C   0  0  0  0  0  0  0  0  0  0  0  0
  -27.6210  -25.1160   20.0750 C   0  0  0  0  0  0  0  0  0  0  0  0
  -25.8770  -23.1260   20.7980 N   0  0  0  0  0  0  0  0  0  0  0  0
  -26.6140  -25.3650   20.9320 N   0  0  0  0  0  0  0  0  0  0  0  0
  -26.5830  -21.4070   17.8500 C   0  0  0  0  0  1  0  0  0  0  0  0
  -26.8350  -21.4300   19.3630 C   0  0  0  0  0  2  0  0  0  0  0  0
  -28.8080  -23.5390   18.4160 C   0  0  0  0  0  2  0  0  0  0  0  0
  -30.2420  -23.4100   18.9620 C   0  0  0  0  0  2  0  0  0  0  0  0
  -30.8530  -22.0580   18.5730 C   0  0  0  0  0  2  0  0  0  0  0  0
  -32.1430  -21.6980   19.3270 C   0  0  0  0  0  2  0  0  0  0  0  0
  -32.2560  -20.1750   19.4770 C   0  0  0  0  0  2  0  0  0  0  0  0
  -34.1090  -18.6870   20.0310 C   0  0  0  0  0  0  0  0  0  0  0  0
  -34.1680  -16.2430   19.7010 C   0  0  0  0  0  2  0  0  0  0  0  0
  -33.4690  -15.8400   18.3880 C   0  0  0  0  0  2  0  0  0  0  0  0
  -31.9520  -15.6640   18.6010 C   0  0  0  0  0  2  0  0  0  0  0  0
  -31.3150  -16.8610   19.3520 C   0  0  0  0  0  3  0  0  0  0  0  0
  -32.1380  -17.2050   20.6180 C   0  0  0  0  0  2  0  0  0  0  0  0
  -33.5260  -17.4680   20.2000 N   0  0  0  0  0  0  0  0  0  0  0  0
  -35.2720  -18.8320   19.6510 O   0  0  0  0  0  0  0  0  0  0  0  0
  -33.3740  -19.7680   20.3270 N   0  0  0  0  0  0  0  0  0  0  0  0
  -33.9570  -20.5550   20.5780 H   0  0  0  0  0  0  0  0  0  0  0  0
  -28.8650  -17.5170   19.8040 C   0  0  0  0  0  0  0  0  0  0  0  0
  -27.7430  -16.7620   20.0170 C   0  0  0  0  0  0  0  0  0  0  0  0
  -28.1730  -15.4010   19.9780 C   0  0  0  0  0  0  0  0  0  0  0  0
  -29.9090  -16.6160   19.6620 N   0  0  0  0  0  0  0  0  0  0  0  0
  -29.4870  -15.3360   19.8190 N   0  0  0  0  0  0  0  0  0  0  0  0
  -27.4030  -14.1530   20.0260 C   0  0  0  0  0  0  0  0  0  0  0  0
  -27.5690  -13.2240   21.0760 C   0  0  0  0  0  3  0  0  0  0  0  0
  -26.8050  -12.0380   21.1110 C   0  0  0  0  0  3  0  0  0  0  0  0
  -25.8610  -11.7740   20.0910 C   0  0  0  0  0  0  0  0  0  0  0  0
  -25.7160  -12.6890   19.0340 C   0  0  0  0  0  3  0  0  0  0  0  0
  -26.4810  -13.8680   18.9980 C   0  0  0  0  0  3  0  0  0  0  0  0
  -25.0920  -10.6370   20.0280 O   0  0  0  0  0  0  0  0  0  0  0  0
  -24.4900  -10.1140   21.1450 C   0  0  0  0  0  0  0  0  0  0  0  0
  -23.5580  -10.8530   21.9050 C   0  0  0  0  0  3  0  0  0  0  0  0
  -22.9120  -10.2520   23.0030 C   0  0  0  0  0  3  0  0  0  0  0  0
  -23.1880   -8.9120   23.3380 C   0  0  0  0  0  0  0  0  0  0  0  0
  -24.1130   -8.1740   22.5790 C   0  0  0  0  0  3  0  0  0  0  0  0
  -24.7590   -8.7720   21.4830 C   0  0  0  0  0  0  0  0  0  0  0  0
  -25.6320   -8.0490   20.7410 F   0  0  0  0  0  0  0  0  0  0  0  0
  -22.5620   -8.3320   24.3880 F   0  0  0  0  0  0  0  0  0  0  0  0
  -26.3350  -17.2660   20.1480 C   0  0  0  0  0  0  0  0  0  0  0  0
  -25.5010  -16.5670   20.9110 N   0  0  0  0  0  0  0  0  0  0  0  0
  -25.9780  -18.3130   19.6110 O   0  0  0  0  0  0  0  0  0  0  0  0
  -25.7980  -15.7150   21.3650 H   0  0  0  0  0  0  0  0  0  0  0  0
  -24.5510  -16.8830   21.0360 H   0  0  0  0  0  0  0  0  0  0  0  0
  -29.0790  -18.8890   19.6960 N   0  0  0  0  0  0  0  0  0  0  0  0
  -28.3120  -19.5520   19.7180 H   0  0  0  0  0  0  0  0  0  0  0  0
  -29.9590  -19.3080   19.4290 H   0  0  0  0  0  0  0  0  0  0  0  0
  -28.4710  -26.3220   19.6750 C   0  0  0  0  0  2  0  0  0  0  0  0
  -29.3370  -26.9020   20.8110 C   0  0  0  0  0  2  0  0  0  0  0  0
  -30.4960  -27.7770   20.2870 C   0  0  0  0  0  2  0  0  0  0  0  0
  -30.5130  -29.0630   20.9100 O   0  0  0  0  0  0  0  0  0  0  0  0
  -27.2040  -32.7940   25.9500 C   0  0  0  0  0  0  0  0  0  0  0  0
  -29.3130  -29.6210   21.3010 C   0  0  0  0  0  0  0  0  0  0  0  0
  -25.7340  -31.7690   24.2450 C   0  0  0  0  0  3  0  0  0  0  0  0
  -26.9110  -30.8140   22.1970 C   0  0  0  0  0  0  0  0  0  0  0  0
  -28.1450  -32.4110   23.6760 C   0  0  0  0  0  2  0  0  0  0  0  0
  -28.1440  -31.2770   22.6730 C   0  0  0  0  0  0  0  0  0  0  0  0
  -29.3440  -30.6900   22.2200 C   0  0  0  0  0  3  0  0  0  0  0  0
  -28.0580  -29.1630   20.8320 C   0  0  0  0  0  3  0  0  0  0  0  0
  -26.8630  -29.7540   21.2770 C   0  0  0  0  0  3  0  0  0  0  0  0
  -25.6720  -31.5030   22.7170 C   0  0  0  0  0  2  0  0  0  0  0  0
  -27.0560  -32.3250   24.6780 N   0  0  0  0  0  0  0  0  0  0  0  0
  -26.2500  -32.8090   26.7390 O   0  0  0  0  0  0  0  0  0  0  0  0
  -25.3410  -30.4710   24.9870 C   0  0  0  0  0  0  0  0  0  0  0  0
  -24.4360  -29.6870   24.3790 N   0  0  0  0  0  0  0  0  0  0  0  0
  -25.8640  -30.1750   26.0640 O   0  0  0  0  0  0  0  0  0  0  0  0
  -24.0480  -30.0070   23.5020 H   0  0  0  0  0  0  0  0  0  0  0  0
  -22.8580  -26.6000   23.3670 C   0  0  0  0  0  0  0  0  0  0  0  0
  -23.9400  -28.4020   24.8690 C   0  0  0  0  0  3  0  0  0  0  0  0
  -25.0990  -27.3970   25.0660 C   0  0  0  0  0  2  0  0  0  0  0  0
  -25.3420  -26.5090   23.8410 C   0  0  0  0  0  2  0  0  0  0  0  0
  -24.0820  -25.7090   23.5000 C   0  0  0  0  0  2  0  0  0  0  0  0
  -22.7990  -27.8700   23.9950 C   0  0  0  0  0  0  0  0  0  0  0  0
  -21.6520  -28.6730   23.8090 C   0  0  0  0  0  3  0  0  0  0  0  0
  -20.5790  -28.2230   23.0190 C   0  0  0  0  0  3  0  0  0  0  0  0
  -20.6370  -26.9570   22.4120 C   0  0  0  0  0  3  0  0  0  0  0  0
  -21.7730  -26.1470   22.5880 C   0  0  0  0  0  3  0  0  0  0  0  0
  -28.5680  -33.3530   26.4620 C   0  0  0  0  0  3  0  0  0  0  0  0
  -28.9450  -32.8510   27.9100 C   0  0  1  0  0  0  0  0  0  0  0  0
  -27.7630  -32.8820   28.9070 C   0  0  0  0  0  1  0  0  0  0  0  0
  -29.4810  -31.4000   27.8610 C   0  0  0  0  0  1  0  0  0  0  0  0
  -30.0850  -33.7230   28.4890 C   0  0  0  0  0  1  0  0  0  0  0  0
  -28.4830  -34.8190   26.4280 N   0  0  0  0  0  0  0  0  0  0  0  0
  -29.0000  -35.5870   25.4600 C   0  0  0  0  0  0  0  0  0  0  0  0
  -29.6680  -35.1310   24.5270 O   0  0  0  0  0  0  0  0  0  0  0  0
  -27.9040  -35.2570   27.1280 H   0  0  0  0  0  0  0  0  0  0  0  0
  -27.5900  -37.4740   24.5780 C   0  0  0  0  0  1  0  0  0  0  0  0
  -28.7320  -37.1020   25.5390 C   0  0  0  0  0  3  0  0  0  0  0  0
  -30.9890  -37.7780   26.2260 C   0  0  0  0  0  1  0  0  0  0  0  0
  -29.9220  -37.9270   25.2400 N   0  0  0  0  0  0  0  0  0  0  0  0
  -29.6740  -38.9120   25.1850 H   0  0  0  0  0  0  0  0  0  0  0  0
  2  3  2  0
  2  4  1  0
  3  5  1  0
  4  6  2  0
  5  1  2  0
  6  1  1  0
  7  8  1  0
  8  3  1  0
  9 10  1  0
  9  2  1  0
 11 10  1  0
 11 12  1  0
 12 13  1  0
 13 22  1  0
 14 20  1  0
 14 22  1  0
 15 20  1  0
 16 17  1  0
 16 15  1  0
 18 17  1  0
 18 27  1  0
 18 19  1  0
 20 19  1  0
 21 14  2  0
 22 23  1  0
 24 25  2  0
 25 44  1  0
 26 25  1  0
 26 29  1  0
 27 24  1  0
 27 28  1  0
 28 26  2  0
 29 30  1  0
 30 31  2  0
 32 31  1  0
 33 32  2  0
 34 33  1  0
 34 29  2  0
 35 32  1  0
 35 36  1  0
 36 41  2  0
 36 37  1  0
 37 38  2  0
 38 39  1  0
 39 43  1  0
 40 39  2  0
 41 40  1  0
 42 41  1  0
 44 45  1  0
 45 48  1  0
 45 47  1  0
 46 44  2  0
 49 50  1  0
 49 24  1  0
 51 49  1  0
 52  4  1  0
 52 53  1  0
 54 53  1  0
 54 55  1  0
 55 57  1  0
 56 67  2  0
 57 62  1  0
 58 66  1  0
 58 68  1  0
 59 61  1  0
 59 65  1  0
 60 66  1  0
 61 60  1  0
 62 61  2  0
 63 64  1  0
 63 57  2  0
 64 59  2  0
 65 58  1  0
 66 56  1  0
 68 70  2  0
 69 68  1  0
 71 69  1  0
 72 76  1  0
 72 77  1  0
 73 69  1  0
 73 74  1  0
 75 74  1  0
 76 75  1  0
 77 73  1  0
 78 77  2  0
 79 78  1  0
 80 81  1  0
 80 79  2  0
 81 72  2  0
 82 56  1  0
 82 83  1  0
 83 86  1  1
 83 84  1  0
 85 83  1  0
 87 82  1  0
 87 90  1  0
 88 92  1  0
 88 87  1  0
 89 88  2  0
 92 91  1  0
 94 92  1  0
 94 93  1  0
 95 94  1  0
M  ISO  4  14 100  22 100  54 101  55 101
M  END
>  <TORSDO>  (29) 
F 25

>  <SCORE>  (29) 
-1.408

>  <name>  (29) 
28

>  <ligand_id>  (29) 
28

>  <original_smiles>  (29) 
[H]c1nc(C([H])([H])C([H])([H])[H])c(C([H])([H])C([H])([H])C([H])([H])C([H])([H])C([H])([H])N([H])C(=O)N2C([H])([H])C([H])([H])C([H])([H])C([H])(n3nc(-c4c([H])c([H])c(Oc5c([H])c([H])c(F)c([H])c5F)c([H])c4[H])c(C(=O)N([H])[H])c3N([H])[H])C2([H])[H])c(C([H])([H])C([H])([H])C([H])([H])Oc2c([H])c([H])c3c(c2[H])C([H])([H])N(C(=O)C([H])(N([H])C(=O)C([H])(N([H])C([H])([H])[H])C([H])([H])[H])C(C([H])([H])[H])(C([H])([H])[H])C([H])([H])[H])C([H])(C(=O)N([H])C2([H])c4c([H])c([H])c([H])c([H])c4C([H])([H])C([H])([H])C2([H])[H])C3([H])[H])n1

>  <smiles>  (29) 
[H]c1nc(C([H])([H])C([H])([H])[H])c(C([H])([H])C([H])([H])C([H])([H])C([H])([H])C([H])([H])N([H])C(=O)N2C([H])([H])C([H])([H])C([H])([H])C([H])(n3nc(-c4c([H])c([H])c(Oc5c([H])c([H])c(F)c([H])c5F)c([H])c4[H])c(C(=O)N([H])[H])c3N([H])[H])C2([H])[H])c(C([H])([H])C([H])([H])C([H])([H])Oc2c([H])c([H])c3c(c2[H])C([H])([H])N(C(=O)C([H])(N([H])C(=O)C([H])(N([H])C([H])([H])[H])C([H])([H])[H])C(C([H])([H])[H])(C([H])([H])[H])C([H])([H])[H])C([H])(C(=O)N([H])C2([H])c4c([H])c([H])c([H])c([H])c4C([H])([H])C([H])([H])C2([H])[H])C3([H])[H])n1

$$$$
29:0:0
     RDKit          3D

 92100  0  0  1  0  0  0  0  0999 V2000
  -29.8880  -21.9550   18.1850 C   0  0  0  0  0  3  0  0  0  0  0  0
  -30.3890  -19.2830   18.2360 C   0  0  0  0  0  3  0  0  0  0  0  0
  -29.4320  -21.2610   19.3290 C   0  0  0  0  0  0  0  0  0  0  0  0
  -29.7170  -19.8090   19.3660 C   0  0  0  0  0  0  0  0  0  0  0  0
  -30.5760  -21.3020   17.1540 C   0  0  0  0  0  0  0  0  0  0  0  0
  -30.8190  -19.9870   17.1750 N   0  0  0  0  0  0  0  0  0  0  0  0
  -30.1900  -21.7330   14.6820 C   0  0  0  0  0  1  0  0  0  0  0  0
  -31.0390  -22.0570   15.9200 C   0  0  0  0  0  2  0  0  0  0  0  0
  -28.6200  -22.1870   20.3170 C   0  0  0  0  0  2  0  0  0  0  0  0
  -28.9580  -23.7850   20.4410 C   0  0  0  0  0  3  0  0  0  0  0  0
  -27.9740  -24.9430   19.8930 C   0  0  0  0  0  3  0  0  0  0  0  0
  -28.2210  -26.4050   20.1660 O   0  0  0  0  0  0  0  0  0  0  0  0
  -24.5940  -31.9000   23.2550 C   0  0  0  0  0  0  0  0  0  0  0  0
  -27.1370  -27.3140   20.1210 C   0  0  0  0  0  0  0  0  0  0  0  0
  -23.3730  -30.5420   21.5960 C   0  0  0  0  0  3  0  0  0  0  0  0
  -24.8020  -28.9940   20.1430 C   0  0  0  0  0  0  0  0  0  0  0  0
  -25.9210  -30.8170   21.4220 C   0  0  0  0  0  2  0  0  0  0  0  0
  -25.9820  -29.4460   20.7480 C   0  0  0  0  0  0  0  0  0  0  0  0
  -27.1510  -28.6190   20.7260 C   0  0  0  0  0  3  0  0  0  0  0  0
  -25.9330  -26.9380   19.4820 C   0  0  0  0  0  3  0  0  0  0  0  0
  -24.7830  -27.7480   19.5010 C   0  0  0  0  0  3  0  0  0  0  0  0
  -23.5800  -29.8890   20.2060 C   0  0  0  0  0  2  0  0  0  0  0  0
  -24.6490  -31.1040   22.1460 N   0  0  0  0  0  0  0  0  0  0  0  0
  -23.5130  -32.1840   23.7920 O   0  0  0  0  0  0  0  0  0  0  0  0
  -22.6960  -29.5190   22.5410 C   0  0  0  0  0  0  0  0  0  0  0  0
  -21.3720  -29.3410   22.3960 N   0  0  0  0  0  0  0  0  0  0  0  0
  -23.3630  -28.8890   23.3660 O   0  0  0  0  0  0  0  0  0  0  0  0
  -20.8900  -29.9050   21.7090 H   0  0  0  0  0  0  0  0  0  0  0  0
  -17.9920  -28.1250   22.8420 C   0  0  0  0  0  0  0  0  0  0  0  0
  -20.5450  -28.3990   23.1530 C   0  0  0  0  0  3  0  0  0  0  0  0
  -20.6620  -26.9670   22.5780 C   0  0  0  0  0  2  0  0  0  0  0  0
  -19.5800  -26.6400   21.5460 C   0  0  0  0  0  2  0  0  0  0  0  0
  -18.1880  -26.7780   22.1660 C   0  0  0  0  0  2  0  0  0  0  0  0
  -19.0990  -28.8920   23.2910 C   0  0  0  0  0  0  0  0  0  0  0  0
  -18.8640  -30.1520   23.8810 C   0  0  0  0  0  3  0  0  0  0  0  0
  -17.5540  -30.6470   24.0250 C   0  0  0  0  0  3  0  0  0  0  0  0
  -16.4600  -29.8770   23.5920 C   0  0  0  0  0  3  0  0  0  0  0  0
  -16.6810  -28.6180   23.0060 C   0  0  0  0  0  3  0  0  0  0  0  0
  -25.8840  -32.5090   23.8850 C   0  0  0  0  0  3  0  0  0  0  0  0
  -25.6040  -33.9180   24.1960 N   0  0  0  0  0  0  0  0  0  0  0  0
  -25.9740  -34.9550   23.4320 C   0  0  0  0  0  0  0  0  0  0  0  0
  -26.6560  -34.8220   22.4120 O   0  0  0  0  0  0  0  0  0  0  0  0
  -24.9990  -34.0970   24.9850 H   0  0  0  0  0  0  0  0  0  0  0  0
  -24.3100  -36.7980   23.0240 C   0  0  0  0  0  1  0  0  0  0  0  0
  -25.5160  -36.3600   23.8690 C   0  0  0  0  0  3  0  0  0  0  0  0
  -27.6500  -37.1920   24.7560 C   0  0  0  0  0  1  0  0  0  0  0  0
  -26.5830  -37.3820   23.7780 N   0  0  0  0  0  0  0  0  0  0  0  0
  -26.1980  -38.3150   23.9040 H   0  0  0  0  0  0  0  0  0  0  0  0
  -26.3650  -31.7420   25.1780 C   0  0  1  0  0  0  0  0  0  0  0  0
  -25.2520  -31.5420   26.2330 C   0  0  0  0  0  1  0  0  0  0  0  0
  -26.9210  -30.3450   24.8140 C   0  0  0  0  0  1  0  0  0  0  0  0
  -27.5260  -32.5170   25.8430 C   0  0  0  0  0  1  0  0  0  0  0  0
  -29.3050  -18.6750   20.4020 C   0  0  0  0  0  2  0  0  0  0  0  0
  -30.3150  -17.4080   20.6500 C   0  0  0  0  0  2  0  0  0  0  0  0
  -30.5760  -14.8090   20.5430 C   0  0  0  0  0  0  0  0  0  0  0  0
  -30.3880  -12.5410   19.5170 C   0  0  0  0  0  2  0  0  0  0  0  0
  -29.4670  -12.6100   18.2790 C   0  0  0  0  0  2  0  0  0  0  0  0
  -27.9940  -12.4260   18.6910 C   0  0  0  0  0  2  0  0  0  0  0  0
  -27.5960  -13.3050   19.9080 C   0  0  0  0  0  3  0  0  0  0  0  0
  -28.6420  -13.2280   21.0410 C   0  0  0  0  0  2  0  0  0  0  0  0
  -29.9400  -13.5910   20.4620 N   0  0  0  0  0  0  0  0  0  0  0  0
  -31.7690  -14.8990   20.2450 O   0  0  0  0  0  0  0  0  0  0  0  0
  -29.8240  -15.9610   20.7380 N   0  0  0  0  0  0  0  0  0  0  0  0
  -28.8430  -15.8210   20.9280 H   0  0  0  0  0  0  0  0  0  0  0  0
  -25.1880  -13.8630   20.5910 C   0  0  0  0  0  0  0  0  0  0  0  0
  -24.1270  -13.0760   20.9470 C   0  0  0  0  0  0  0  0  0  0  0  0
  -24.6110  -11.7320   20.9350 C   0  0  0  0  0  0  0  0  0  0  0  0
  -26.2490  -12.9990   20.3790 N   0  0  0  0  0  0  0  0  0  0  0  0
  -25.9070  -11.7120   20.6500 N   0  0  0  0  0  0  0  0  0  0  0  0
  -23.8990  -10.4600   21.1200 C   0  0  0  0  0  0  0  0  0  0  0  0
  -24.3120   -9.5170   22.0870 C   0  0  0  0  0  3  0  0  0  0  0  0
  -23.5990   -8.3120   22.2600 C   0  0  0  0  0  3  0  0  0  0  0  0
  -22.4610   -8.0390   21.4650 C   0  0  0  0  0  0  0  0  0  0  0  0
  -22.0670   -8.9710   20.4890 C   0  0  0  0  0  3  0  0  0  0  0  0
  -22.7810  -10.1690   20.3140 C   0  0  0  0  0  3  0  0  0  0  0  0
  -21.7220   -6.8830   21.5450 O   0  0  0  0  0  0  0  0  0  0  0  0
  -21.6310   -6.1660   22.7110 C   0  0  0  0  0  0  0  0  0  0  0  0
  -21.1030   -6.7300   23.8930 C   0  0  0  0  0  3  0  0  0  0  0  0
  -20.9640   -5.9370   25.0490 C   0  0  0  0  0  3  0  0  0  0  0  0
  -21.3440   -4.5810   25.0240 C   0  0  0  0  0  0  0  0  0  0  0  0
  -21.8640   -4.0170   23.8460 C   0  0  0  0  0  3  0  0  0  0  0  0
  -22.0050   -4.8070   22.6920 C   0  0  0  0  0  0  0  0  0  0  0  0
  -22.4870   -4.2530   21.5540 F   0  0  0  0  0  0  0  0  0  0  0  0
  -21.2030   -3.8170   26.1320 F   0  0  0  0  0  0  0  0  0  0  0  0
  -22.7180  -13.5350   21.1880 C   0  0  0  0  0  0  0  0  0  0  0  0
  -21.9820  -12.8300   22.0410 N   0  0  0  0  0  0  0  0  0  0  0  0
  -22.2780  -14.5530   20.6560 O   0  0  0  0  0  0  0  0  0  0  0  0
  -22.3510  -12.0060   22.4910 H   0  0  0  0  0  0  0  0  0  0  0  0
  -21.0350  -13.1190   22.2440 H   0  0  0  0  0  0  0  0  0  0  0  0
  -25.3350  -15.2340   20.4060 N   0  0  0  0  0  0  0  0  0  0  0  0
  -24.5540  -15.8760   20.4970 H   0  0  0  0  0  0  0  0  0  0  0  0
  -26.1750  -15.6820   20.0620 H   0  0  0  0  0  0  0  0  0  0  0  0
  1  3  1  0
  2  4  1  0
  3  4  2  0
  3  9  1  0
  4 53  1  0
  5  6  1  0
  5  1  2  0
  6  2  2  0
  7  8  1  0
  8  5  1  0
  9 10  1  0
 11 12  1  0
 11 10  2  0
 13 24  2  0
 14 12  1  0
 14 19  1  0
 15 23  1  0
 15 25  1  0
 16 22  1  0
 16 18  1  0
 17 23  1  0
 18 17  1  0
 19 18  2  0
 20 21  1  0
 20 14  2  0
 21 16  2  0
 22 15  1  0
 23 13  1  0
 25 27  2  0
 26 25  1  0
 28 26  1  0
 29 38  2  0
 29 34  1  0
 30 26  1  0
 30 34  1  0
 31 30  1  0
 32 33  1  0
 32 31  1  0
 33 29  1  0
 34 35  2  0
 35 36  1  0
 37 36  2  0
 38 37  1  0
 39 13  1  0
 39 40  1  0
 39 49  1  0
 40 43  1  0
 41 45  1  0
 41 40  1  0
 42 41  2  0
 45 44  1  0
 47 45  1  0
 47 48  1  0
 47 46  1  0
 49 52  1  1
 49 50  1  0
 51 49  1  0
 53 54  1  0
 54 63  1  0
 55 63  1  0
 56 61  1  0
 57 58  1  0
 57 56  1  0
 59 58  1  0
 59 68  1  0
 59 60  1  0
 61 55  1  0
 61 60  1  0
 62 55  2  0
 63 64  1  0
 65 66  2  0
 66 85  1  0
 67 66  1  0
 67 70  1  0
 68 65  1  0
 68 69  1  0
 69 67  2  0
 70 71  1  0
 71 72  2  0
 73 76  1  0
 73 72  1  0
 74 73  2  0
 75 74  1  0
 75 70  2  0
 76 77  1  0
 77 78  1  0
 78 79  2  0
 80 79  1  0
 80 84  1  0
 81 80  2  0
 82 77  2  0
 82 81  1  0
 83 82  1  0
 85 86  1  0
 86 89  1  0
 86 88  1  0
 87 85  2  0
 90 91  1  0
 90 65  1  0
 92 90  1  0
M  ISO  4  11 101  12 101  55 100  63 100
M  END
>  <TORSDO>  (30) 
F 22

>  <SCORE>  (30) 
-13.010

>  <name>  (30) 
29

>  <ligand_id>  (30) 
29

>  <original_smiles>  (30) 
[H]c1nc(C([H])([H])C([H])([H])[H])c([H])c(C([H])([H])C([H])([H])C([H])([H])Oc2c([H])c([H])c3c(c2[H])C([H])([H])N(C(=O)C([H])(N([H])C(=O)C([H])(N([H])C([H])([H])[H])C([H])([H])[H])C(C([H])([H])[H])(C([H])([H])[H])C([H])([H])[H])C([H])(C(=O)N([H])C2([H])c4c([H])c([H])c([H])c([H])c4C([H])([H])C([H])([H])C2([H])[H])C3([H])[H])c1C([H])([H])C([H])([H])N([H])C(=O)N1C([H])([H])C([H])([H])C([H])([H])C([H])(n2nc(-c3c([H])c([H])c(Oc4c([H])c([H])c(F)c([H])c4F)c([H])c3[H])c(C(=O)N([H])[H])c2N([H])[H])C1([H])[H]

>  <smiles>  (30) 
[H]c1nc(C([H])([H])C([H])([H])[H])c([H])c(C([H])([H])C([H])([H])C([H])([H])Oc2c([H])c([H])c3c(c2[H])C([H])([H])N(C(=O)C([H])(N([H])C(=O)C([H])(N([H])C([H])([H])[H])C([H])([H])[H])C(C([H])([H])[H])(C([H])([H])[H])C([H])([H])[H])C([H])(C(=O)N([H])C2([H])c4c([H])c([H])c([H])c([H])c4C([H])([H])C([H])([H])C2([H])[H])C3([H])[H])c1C([H])([H])C([H])([H])N([H])C(=O)N1C([H])([H])C([H])([H])C([H])([H])C([H])(n2nc(-c3c([H])c([H])c(Oc4c([H])c([H])c(F)c([H])c4F)c([H])c3[H])c(C(=O)N([H])[H])c2N([H])[H])C1([H])[H]

$$$$
30:0:0
     RDKit          3D

 93101  0  0  1  0  0  0  0  0999 V2000
  -27.9430  -21.4050   19.5820 C   0  0  0  0  0  3  0  0  0  0  0  0
  -27.5250  -23.7920   19.9950 C   0  0  0  0  0  3  0  0  0  0  0  0
  -29.5780  -22.7790   20.7700 C   0  0  0  0  0  3  0  0  0  0  0  0
  -27.1160  -22.5570   19.4600 C   0  0  0  0  0  0  0  0  0  0  0  0
  -29.1890  -21.4700   20.2650 C   0  0  0  0  0  0  0  0  0  0  0  0
  -28.7580  -23.9690   20.6400 C   0  0  0  0  0  0  0  0  0  0  0  0
  -25.7460  -22.5710   18.7850 C   0  0  0  0  0  2  0  0  0  0  0  0
  -25.3660  -21.4120   17.8530 C   0  0  0  0  0  2  0  0  0  0  0  0
  -23.6850  -20.7240   16.0260 C   0  0  0  0  0  1  0  0  0  0  0  0
  -24.0980  -21.7760   17.0560 C   0  0  0  0  0  2  0  0  0  0  0  0
  -30.1230  -20.1830   20.3870 C   0  0  0  0  0  2  0  0  0  0  0  0
  -29.5750  -18.6580   20.4880 C   0  0  0  0  0  3  0  0  0  0  0  0
  -30.6580  -17.4490   20.4440 C   0  0  0  0  0  3  0  0  0  0  0  0
  -31.0190  -14.8500   20.5200 C   0  0  0  0  0  0  0  0  0  0  0  0
  -30.8280  -12.5680   19.5300 C   0  0  0  0  0  2  0  0  0  0  0  0
  -29.9490  -12.6590   18.2620 C   0  0  0  0  0  2  0  0  0  0  0  0
  -28.4500  -12.5550   18.6160 C   0  0  0  0  0  2  0  0  0  0  0  0
  -28.0430  -13.4530   19.8150 C   0  0  0  0  0  3  0  0  0  0  0  0
  -29.0440  -13.3290   20.9870 C   0  0  0  0  0  2  0  0  0  0  0  0
  -30.3780  -13.6350   20.4570 N   0  0  0  0  0  0  0  0  0  0  0  0
  -32.2180  -14.9310   20.2320 O   0  0  0  0  0  0  0  0  0  0  0  0
  -30.2510  -15.9920   20.6840 N   0  0  0  0  0  0  0  0  0  0  0  0
  -29.2850  -15.8260   20.9250 H   0  0  0  0  0  0  0  0  0  0  0  0
  -25.6300  -14.1140   20.3950 C   0  0  0  0  0  0  0  0  0  0  0  0
  -24.5340  -13.3740   20.7410 C   0  0  0  0  0  0  0  0  0  0  0  0
  -24.9660  -12.0140   20.7670 C   0  0  0  0  0  0  0  0  0  0  0  0
  -26.6650  -13.2070   20.2340 N   0  0  0  0  0  0  0  0  0  0  0  0
  -26.2670  -11.9390   20.5160 N   0  0  0  0  0  0  0  0  0  0  0  0
  -24.2030  -10.7750   20.9540 C   0  0  0  0  0  0  0  0  0  0  0  0
  -24.5820   -9.8150   21.9170 C   0  0  0  0  0  3  0  0  0  0  0  0
  -23.8200   -8.6450   22.0950 C   0  0  0  0  0  3  0  0  0  0  0  0
  -22.6680   -8.4200   21.3000 C   0  0  0  0  0  0  0  0  0  0  0  0
  -22.3120   -9.3650   20.3240 C   0  0  0  0  0  3  0  0  0  0  0  0
  -23.0680  -10.5360   20.1520 C   0  0  0  0  0  3  0  0  0  0  0  0
  -21.8870   -7.2920   21.3800 O   0  0  0  0  0  0  0  0  0  0  0  0
  -21.8140   -6.5480   22.5280 C   0  0  0  0  0  0  0  0  0  0  0  0
  -21.4150   -7.1090   23.7610 C   0  0  0  0  0  3  0  0  0  0  0  0
  -21.2890   -6.2910   24.9000 C   0  0  0  0  0  3  0  0  0  0  0  0
  -21.5500   -4.9110   24.8110 C   0  0  0  0  0  0  0  0  0  0  0  0
  -21.9460   -4.3500   23.5840 C   0  0  0  0  0  3  0  0  0  0  0  0
  -22.0780   -5.1660   22.4470 C   0  0  0  0  0  0  0  0  0  0  0  0
  -22.4400   -4.6150   21.2640 F   0  0  0  0  0  0  0  0  0  0  0  0
  -21.4200   -4.1210   25.9040 F   0  0  0  0  0  0  0  0  0  0  0  0
  -23.1350  -13.8840   20.9340 C   0  0  0  0  0  0  0  0  0  0  0  0
  -22.3590  -13.2490   21.8060 N   0  0  0  0  0  0  0  0  0  0  0  0
  -22.7400  -14.8920   20.3480 O   0  0  0  0  0  0  0  0  0  0  0  0
  -22.6950  -12.4570   22.3360 H   0  0  0  0  0  0  0  0  0  0  0  0
  -21.4270  -13.5920   21.9840 H   0  0  0  0  0  0  0  0  0  0  0  0
  -25.8380  -15.4740   20.1870 N   0  0  0  0  0  0  0  0  0  0  0  0
  -25.0740  -16.1420   20.1960 H   0  0  0  0  0  0  0  0  0  0  0  0
  -26.7040  -15.8610   19.8380 H   0  0  0  0  0  0  0  0  0  0  0  0
  -29.0120  -25.3650   21.3430 C   0  0  0  0  0  2  0  0  0  0  0  0
  -28.9670  -26.6620   20.6170 O   0  0  0  0  0  0  0  0  0  0  0  0
  -24.8620  -31.9800   23.4080 C   0  0  0  0  0  0  0  0  0  0  0  0
  -27.8100  -27.4580   20.6050 C   0  0  0  0  0  0  0  0  0  0  0  0
  -23.8190  -30.5310   21.7050 C   0  0  0  0  0  3  0  0  0  0  0  0
  -25.4080  -28.9990   20.4150 C   0  0  0  0  0  0  0  0  0  0  0  0
  -26.3570  -30.9120   21.7060 C   0  0  0  0  0  2  0  0  0  0  0  0
  -26.5170  -29.5240   21.0930 C   0  0  0  0  0  0  0  0  0  0  0  0
  -27.7220  -28.7630   21.1820 C   0  0  0  0  0  3  0  0  0  0  0  0
  -26.6930  -26.9970   19.8790 C   0  0  0  0  0  3  0  0  0  0  0  0
  -25.4980  -27.7390   19.7990 C   0  0  0  0  0  3  0  0  0  0  0  0
  -24.1530  -29.8470   20.3530 C   0  0  0  0  0  2  0  0  0  0  0  0
  -25.0270  -31.1610   22.3310 N   0  0  0  0  0  0  0  0  0  0  0  0
  -23.7330  -32.2330   23.8560 O   0  0  0  0  0  0  0  0  0  0  0  0
  -23.1170  -29.5070   22.6260 C   0  0  0  0  0  0  0  0  0  0  0  0
  -21.8040  -29.3030   22.4140 N   0  0  0  0  0  0  0  0  0  0  0  0
  -23.7530  -28.8970   23.4870 O   0  0  0  0  0  0  0  0  0  0  0  0
  -21.3520  -29.8460   21.6910 H   0  0  0  0  0  0  0  0  0  0  0  0
  -18.4100  -28.1070   22.7710 C   0  0  0  0  0  0  0  0  0  0  0  0
  -20.9570  -28.3530   23.1350 C   0  0  0  0  0  3  0  0  0  0  0  0
  -21.0780  -26.9340   22.5330 C   0  0  0  0  0  2  0  0  0  0  0  0
  -20.0100  -26.6340   21.4740 C   0  0  0  0  0  2  0  0  0  0  0  0
  -18.6070  -26.7700   22.0730 C   0  0  0  0  0  2  0  0  0  0  0  0
  -19.5140  -28.8570   23.2550 C   0  0  0  0  0  0  0  0  0  0  0  0
  -19.2760  -30.1060   23.8660 C   0  0  0  0  0  3  0  0  0  0  0  0
  -17.9670  -30.6070   23.9970 C   0  0  0  0  0  3  0  0  0  0  0  0
  -16.8770  -29.8540   23.5290 C   0  0  0  0  0  3  0  0  0  0  0  0
  -17.0980  -28.6040   22.9210 C   0  0  0  0  0  3  0  0  0  0  0  0
  -26.0760  -32.6590   24.1120 C   0  0  0  0  0  3  0  0  0  0  0  0
  -25.6980  -34.0460   24.4180 N   0  0  0  0  0  0  0  0  0  0  0  0
  -26.0100  -35.1070   23.6600 C   0  0  0  0  0  0  0  0  0  0  0  0
  -26.7120  -35.0200   22.6480 O   0  0  0  0  0  0  0  0  0  0  0  0
  -25.0780  -34.1840   25.2030 H   0  0  0  0  0  0  0  0  0  0  0  0
  -24.2070  -36.8120   23.2520 C   0  0  0  0  0  1  0  0  0  0  0  0
  -25.4540  -36.4790   24.0880 C   0  0  0  0  0  3  0  0  0  0  0  0
  -27.5440  -37.4630   24.9220 C   0  0  0  0  0  1  0  0  0  0  0  0
  -26.4420  -37.5750   23.9700 N   0  0  0  0  0  0  0  0  0  0  0  0
  -25.9960  -38.4790   24.1030 H   0  0  0  0  0  0  0  0  0  0  0  0
  -26.5290  -31.9070   25.4240 C   0  0  1  0  0  0  0  0  0  0  0  0
  -25.3610  -31.5540   26.3740 C   0  0  0  0  0  1  0  0  0  0  0  0
  -27.2660  -30.5940   25.0780 C   0  0  0  0  0  1  0  0  0  0  0  0
  -27.5350  -32.7850   26.2060 C   0  0  0  0  0  1  0  0  0  0  0  0
  1  5  1  0
  2  6  2  0
  4  1  2  0
  4  2  1  0
  5 11  1  0
  5  3  2  0
  6  3  1  0
  6 52  1  0
  7  4  1  0
  8  7  1  0
  9 10  1  0
 10  8  1  0
 11 12  1  0
 13 12  2  0
 13 22  1  0
 14 22  1  0
 15 20  1  0
 16 17  1  0
 16 15  1  0
 18 17  1  0
 18 27  1  0
 18 19  1  0
 20 14  1  0
 20 19  1  0
 21 14  2  0
 22 23  1  0
 24 25  2  0
 25 26  1  0
 25 44  1  0
 26 29  1  0
 27 24  1  0
 27 28  1  0
 28 26  2  0
 29 30  1  0
 30 31  2  0
 32 35  1  0
 32 31  1  0
 33 32  2  0
 34 33  1  0
 34 29  2  0
 35 36  1  0
 36 37  1  0
 37 38  2  0
 39 38  1  0
 39 43  1  0
 40 39  2  0
 41 36  2  0
 41 40  1  0
 42 41  1  0
 44 45  1  0
 45 48  1  0
 45 47  1  0
 46 44  2  0
 49 50  1  0
 49 24  1  0
 51 49  1  0
 53 52  1  0
 54 65  2  0
 55 53  1  0
 55 60  1  0
 56 64  1  0
 56 66  1  0
 57 59  1  0
 58 64  1  0
 59 60  2  0
 59 58  1  0
 61 55  2  0
 62 61  1  0
 62 57  2  0
 63 57  1  0
 63 56  1  0
 64 54  1  0
 66 68  2  0
 67 66  1  0
 69 67  1  0
 70 79  2  0
 70 75  1  0
 71 67  1  0
 71 75  1  0
 72 71  1  0
 73 74  1  0
 73 72  1  0
 74 70  1  0
 75 76  2  0
 76 77  1  0
 78 77  2  0
 79 78  1  0
 80 54  1  0
 80 81  1  0
 80 90  1  0
 81 84  1  0
 82 86  1  0
 82 81  1  0
 83 82  2  0
 86 85  1  0
 88 86  1  0
 88 89  1  0
 88 87  1  0
 90 93  1  1
 90 91  1  0
 92 90  1  0
M  ISO  4  14 100  22 100  52 101  53 101
M  END
>  <TORSDO>  (31) 
F 23

>  <SCORE>  (31) 
-12.569

>  <name>  (31) 
30

>  <ligand_id>  (31) 
30

>  <original_smiles>  (31) 
[H]c1c([H])c([H])c2c(c1[H])C([H])([H])C([H])([H])C([H])([H])C2([H])N([H])C(=O)C1([H])N(C(=O)C([H])(N([H])C(=O)C([H])(N([H])C([H])([H])[H])C([H])([H])[H])C(C([H])([H])[H])(C([H])([H])[H])C([H])([H])[H])C([H])([H])c2c([H])c(OC([H])([H])c3c([H])c(C([H])([H])C([H])([H])C([H])([H])N([H])C(=O)N4C([H])([H])C([H])([H])C([H])([H])C([H])(n5nc(-c6c([H])c([H])c(Oc7c([H])c([H])c(F)c([H])c7F)c([H])c6[H])c(C(=O)N([H])[H])c5N([H])[H])C4([H])[H])c([H])c(C([H])([H])C([H])([H])C([H])([H])C([H])([H])[H])c3[H])c([H])c([H])c2C1([H])[H]

>  <smiles>  (31) 
[H]c1c([H])c([H])c2c(c1[H])C([H])([H])C([H])([H])C([H])([H])C2([H])N([H])C(=O)C1([H])N(C(=O)C([H])(N([H])C(=O)C([H])(N([H])C([H])([H])[H])C([H])([H])[H])C(C([H])([H])[H])(C([H])([H])[H])C([H])([H])[H])C([H])([H])c2c([H])c(OC([H])([H])c3c([H])c(C([H])([H])C([H])([H])C([H])([H])N([H])C(=O)N4C([H])([H])C([H])([H])C([H])([H])C([H])(n5nc(-c6c([H])c([H])c(Oc7c([H])c([H])c(F)c([H])c7F)c([H])c6[H])c(C(=O)N([H])[H])c5N([H])[H])C4([H])[H])c([H])c(C([H])([H])C([H])([H])C([H])([H])C([H])([H])[H])c3[H])c([H])c([H])c2C1([H])[H]

$$$$
31:0:0
     RDKit          3D

 90 98  0  0  1  0  0  0  0  0999 V2000
  -27.5400  -21.1700   19.7050 C   0  0  0  0  0  3  0  0  0  0  0  0
  -27.0350  -23.5490   19.7340 C   0  0  0  0  0  3  0  0  0  0  0  0
  -26.6750  -22.2320   19.3870 C   0  0  0  0  0  0  0  0  0  0  0  0
  -28.7490  -21.4240   20.3720 C   0  0  0  0  0  0  0  0  0  0  0  0
  -28.2460  -23.8190   20.3980 C   0  0  0  0  0  0  0  0  0  0  0  0
  -25.3520  -21.9490   18.7080 C   0  0  0  0  0  1  0  0  0  0  0  0
  -29.0840  -22.7410   20.7050 N   0  0  0  0  0  0  0  0  0  0  0  0
  -29.6890  -20.1920   20.7340 C   0  0  0  0  0  2  0  0  0  0  0  0
  -29.2270  -18.6540   20.4500 C   0  0  0  0  0  3  0  0  0  0  0  0
  -30.2780  -17.4350   20.6560 C   0  0  0  0  0  3  0  0  0  0  0  0
  -30.6130  -14.8690   20.1080 C   0  0  0  0  0  0  0  0  0  0  0  0
  -30.3600  -12.6380   19.0000 C   0  0  0  0  0  2  0  0  0  0  0  0
  -29.3620  -12.7750   17.8320 C   0  0  0  0  0  2  0  0  0  0  0  0
  -27.9160  -12.5700   18.3300 C   0  0  0  0  0  2  0  0  0  0  0  0
  -27.6060  -13.3950   19.6100 C   0  0  0  0  0  3  0  0  0  0  0  0
  -28.7280  -13.2710   20.6660 C   0  0  0  0  0  2  0  0  0  0  0  0
  -29.9860  -13.6480   20.0140 N   0  0  0  0  0  0  0  0  0  0  0  0
  -31.7790  -14.9970   19.7230 O   0  0  0  0  0  0  0  0  0  0  0  0
  -29.8550  -15.9760   20.4630 N   0  0  0  0  0  0  0  0  0  0  0  0
  -28.8850  -15.7760   20.6620 H   0  0  0  0  0  0  0  0  0  0  0  0
  -25.2640  -13.9370   20.4900 C   0  0  0  0  0  0  0  0  0  0  0  0
  -24.2260  -13.1420   20.8990 C   0  0  0  0  0  0  0  0  0  0  0  0
  -24.7010  -11.8000   20.8050 C   0  0  0  0  0  0  0  0  0  0  0  0
  -26.2980  -13.0760   20.1700 N   0  0  0  0  0  0  0  0  0  0  0  0
  -25.9740  -11.7830   20.4270 N   0  0  0  0  0  0  0  0  0  0  0  0
  -23.9950  -10.5290   20.9950 C   0  0  0  0  0  0  0  0  0  0  0  0
  -24.4500   -9.5730   21.9270 C   0  0  0  0  0  3  0  0  0  0  0  0
  -23.7490   -8.3620   22.1060 C   0  0  0  0  0  3  0  0  0  0  0  0
  -22.5780   -8.1000   21.3530 C   0  0  0  0  0  0  0  0  0  0  0  0
  -22.1430   -9.0510   20.4110 C   0  0  0  0  0  3  0  0  0  0  0  0
  -22.8440  -10.2540   20.2330 C   0  0  0  0  0  3  0  0  0  0  0  0
  -21.8440   -6.9430   21.4470 O   0  0  0  0  0  0  0  0  0  0  0  0
  -21.7900   -6.2140   22.6100 C   0  0  0  0  0  0  0  0  0  0  0  0
  -21.2730   -6.7550   23.8070 C   0  0  0  0  0  3  0  0  0  0  0  0
  -21.1670   -5.9480   24.9580 C   0  0  0  0  0  3  0  0  0  0  0  0
  -21.5720   -4.6000   24.9130 C   0  0  0  0  0  0  0  0  0  0  0  0
  -22.0780   -4.0550   23.7200 C   0  0  0  0  0  3  0  0  0  0  0  0
  -22.1850   -4.8610   22.5700 C   0  0  0  0  0  0  0  0  0  0  0  0
  -22.6540   -4.3240   21.4200 F   0  0  0  0  0  0  0  0  0  0  0  0
  -21.4660   -3.8220   26.0170 F   0  0  0  0  0  0  0  0  0  0  0  0
  -22.8360  -13.5950   21.2450 C   0  0  0  0  0  0  0  0  0  0  0  0
  -22.1380  -12.8530   22.1000 N   0  0  0  0  0  0  0  0  0  0  0  0
  -22.3740  -14.6400   20.7890 O   0  0  0  0  0  0  0  0  0  0  0  0
  -21.1960  -13.1230   22.3460 H   0  0  0  0  0  0  0  0  0  0  0  0
  -22.5080  -11.9880   22.4670 H   0  0  0  0  0  0  0  0  0  0  0  0
  -25.4010  -15.3130   20.3370 N   0  0  0  0  0  0  0  0  0  0  0  0
  -24.6280  -15.9470   20.5030 H   0  0  0  0  0  0  0  0  0  0  0  0
  -26.2090  -15.7770   19.9440 H   0  0  0  0  0  0  0  0  0  0  0  0
  -28.4970  -25.2920   20.9830 C   0  0  0  0  0  2  0  0  0  0  0  0
  -28.4280  -26.5540   20.1740 O   0  0  0  0  0  0  0  0  0  0  0  0
  -24.6200  -31.9360   23.2880 C   0  0  0  0  0  0  0  0  0  0  0  0
  -27.3050  -27.4020   20.2270 C   0  0  0  0  0  0  0  0  0  0  0  0
  -23.4470  -30.5340   21.6290 C   0  0  0  0  0  3  0  0  0  0  0  0
  -24.9270  -29.0090   20.2060 C   0  0  0  0  0  0  0  0  0  0  0  0
  -25.9850  -30.8750   21.4760 C   0  0  0  0  0  2  0  0  0  0  0  0
  -26.0850  -29.4960   20.8270 C   0  0  0  0  0  0  0  0  0  0  0  0
  -27.2760  -28.7010   20.8360 C   0  0  0  0  0  3  0  0  0  0  0  0
  -26.1380  -26.9960   19.5530 C   0  0  0  0  0  3  0  0  0  0  0  0
  -24.9580  -27.7650   19.5590 C   0  0  0  0  0  3  0  0  0  0  0  0
  -23.6810  -29.8710   20.2470 C   0  0  0  0  0  2  0  0  0  0  0  0
  -24.7010  -31.1340   22.1860 N   0  0  0  0  0  0  0  0  0  0  0  0
  -23.5290  -32.1950   23.8180 O   0  0  0  0  0  0  0  0  0  0  0  0
  -22.7920  -29.5000   22.5780 C   0  0  0  0  0  0  0  0  0  0  0  0
  -21.4690  -29.3060   22.4420 N   0  0  0  0  0  0  0  0  0  0  0  0
  -23.4740  -28.8770   23.3940 O   0  0  0  0  0  0  0  0  0  0  0  0
  -20.9750  -29.8590   21.7540 H   0  0  0  0  0  0  0  0  0  0  0  0
  -18.0990  -28.0900   22.9460 C   0  0  0  0  0  0  0  0  0  0  0  0
  -20.6590  -28.3510   23.2010 C   0  0  0  0  0  3  0  0  0  0  0  0
  -20.7600  -26.9310   22.5970 C   0  0  0  0  0  2  0  0  0  0  0  0
  -19.6510  -26.6250   21.5860 C   0  0  0  0  0  2  0  0  0  0  0  0
  -18.2740  -26.7550   22.2430 C   0  0  0  0  0  2  0  0  0  0  0  0
  -19.2190  -28.8470   23.3820 C   0  0  0  0  0  0  0  0  0  0  0  0
  -19.0020  -30.0970   24.0000 C   0  0  0  0  0  3  0  0  0  0  0  0
  -17.6980  -30.5910   24.1850 C   0  0  0  0  0  3  0  0  0  0  0  0
  -16.5910  -29.8320   23.7660 C   0  0  0  0  0  3  0  0  0  0  0  0
  -16.7940  -28.5820   23.1520 C   0  0  0  0  0  3  0  0  0  0  0  0
  -25.8890  -32.5830   23.9220 C   0  0  0  0  0  3  0  0  0  0  0  0
  -26.3840  -31.8340   25.2200 C   0  0  1  0  0  0  0  0  0  0  0  0
  -25.2690  -31.6010   26.2670 C   0  0  0  0  0  1  0  0  0  0  0  0
  -26.9880  -30.4550   24.8660 C   0  0  0  0  0  1  0  0  0  0  0  0
  -27.5120  -32.6490   25.8960 C   0  0  0  0  0  1  0  0  0  0  0  0
  -25.5710  -33.9840   24.2230 N   0  0  0  0  0  0  0  0  0  0  0  0
  -25.9110  -35.0260   23.4520 C   0  0  0  0  0  0  0  0  0  0  0  0
  -26.5950  -34.9080   22.4320 O   0  0  0  0  0  0  0  0  0  0  0  0
  -24.9630  -34.1500   25.0120 H   0  0  0  0  0  0  0  0  0  0  0  0
  -24.1900  -36.8150   23.0360 C   0  0  0  0  0  1  0  0  0  0  0  0
  -25.4140  -36.4210   23.8800 C   0  0  0  0  0  3  0  0  0  0  0  0
  -27.5200  -37.3280   24.7550 C   0  0  0  0  0  1  0  0  0  0  0  0
  -26.4490  -37.4730   23.7760 N   0  0  0  0  0  0  0  0  0  0  0  0
  -26.0370  -38.3960   23.8890 H   0  0  0  0  0  0  0  0  0  0  0  0
  1  4  1  0
  2  5  2  0
  3  1  2  0
  3  2  1  0
  4  7  2  0
  4  8  1  0
  5  7  1  0
  5 49  1  0
  6  3  1  0
  9 10  2  0
  9  8  1  0
 11 19  1  0
 12 17  1  0
 13 14  1  0
 13 12  1  0
 15 14  1  0
 15 24  1  0
 15 16  1  0
 17 11  1  0
 17 16  1  0
 18 11  2  0
 19 10  1  0
 19 20  1  0
 21 22  2  0
 22 41  1  0
 23 22  1  0
 23 26  1  0
 24 25  1  0
 24 21  1  0
 25 23  2  0
 26 27  1  0
 27 28  2  0
 29 32  1  0
 29 28  1  0
 30 29  2  0
 31 30  1  0
 31 26  2  0
 32 33  1  0
 33 34  1  0
 34 35  2  0
 36 35  1  0
 36 40  1  0
 37 36  2  0
 38 33  2  0
 38 37  1  0
 39 38  1  0
 41 42  1  0
 42 44  1  0
 42 45  1  0
 43 41  2  0
 46 21  1  0
 46 47  1  0
 48 46  1  0
 50 52  1  0
 50 49  1  0
 51 62  2  0
 52 57  1  0
 53 61  1  0
 53 63  1  0
 54 60  1  0
 54 56  1  0
 55 61  1  0
 56 57  2  0
 56 55  1  0
 58 59  1  0
 58 52  2  0
 59 54  2  0
 60 53  1  0
 61 51  1  0
 63 65  2  0
 64 63  1  0
 66 64  1  0
 67 76  2  0
 67 72  1  0
 68 64  1  0
 68 72  1  0
 69 68  1  0
 70 71  1  0
 70 69  1  0
 71 67  1  0
 72 73  2  0
 73 74  1  0
 75 74  2  0
 76 75  1  0
 77 51  1  0
 77 82  1  0
 77 78  1  0
 78 81  1  1
 78 79  1  0
 80 78  1  0
 82 85  1  0
 83 87  1  0
 83 82  1  0
 84 83  2  0
 87 86  1  0
 89 87  1  0
 89 90  1  0
 89 88  1  0
M  ISO  4  11 100  19 100  49 101  50 101
M  END
>  <TORSDO>  (32) 
F 20

>  <SCORE>  (32) 
-13.634

>  <name>  (32) 
31

>  <ligand_id>  (32) 
31

>  <original_smiles>  (32) 
[H]c1c([H])c([H])c2c(c1[H])C([H])([H])C([H])([H])C([H])([H])C2([H])N([H])C(=O)C1([H])N(C(=O)C([H])(N([H])C(=O)C([H])(N([H])C([H])([H])[H])C([H])([H])[H])C(C([H])([H])[H])(C([H])([H])[H])C([H])([H])[H])C([H])([H])c2c([H])c(OC([H])([H])c3nc(C([H])([H])C([H])([H])C([H])([H])N([H])C(=O)N4C([H])([H])C([H])([H])C([H])([H])C([H])(n5nc(-c6c([H])c([H])c(Oc7c([H])c([H])c(F)c([H])c7F)c([H])c6[H])c(C(=O)N([H])[H])c5N([H])[H])C4([H])[H])c([H])c(C([H])([H])[H])c3[H])c([H])c([H])c2C1([H])[H]

>  <smiles>  (32) 
[H]c1c([H])c([H])c2c(c1[H])C([H])([H])C([H])([H])C([H])([H])C2([H])N([H])C(=O)C1([H])N(C(=O)C([H])(N([H])C(=O)C([H])(N([H])C([H])([H])[H])C([H])([H])[H])C(C([H])([H])[H])(C([H])([H])[H])C([H])([H])[H])C([H])([H])c2c([H])c(OC([H])([H])c3nc(C([H])([H])C([H])([H])C([H])([H])N([H])C(=O)N4C([H])([H])C([H])([H])C([H])([H])C([H])(n5nc(-c6c([H])c([H])c(Oc7c([H])c([H])c(F)c([H])c7F)c([H])c6[H])c(C(=O)N([H])[H])c5N([H])[H])C4([H])[H])c([H])c(C([H])([H])[H])c3[H])c([H])c([H])c2C1([H])[H]

$$$$
32:0:0
     RDKit          3D

 98106  0  0  1  0  0  0  0  0999 V2000
  -29.9930  -19.8860   21.0290 C   0  0  0  0  0  3  0  0  0  0  0  0
  -29.9090  -21.2960   21.0160 C   0  0  0  0  0  0  0  0  0  0  0  0
  -29.2240  -21.9740   19.9390 C   0  0  0  0  0  0  0  0  0  0  0  0
  -29.3760  -19.1360   20.0240 C   0  0  0  0  0  0  0  0  0  0  0  0
  -28.5090  -21.0880   19.0520 C   0  0  0  0  0  0  0  0  0  0  0  0
  -28.6240  -19.7400   19.0940 N   0  0  0  0  0  0  0  0  0  0  0  0
  -28.7930  -24.0810   18.4000 C   0  0  0  0  0  1  0  0  0  0  0  0
  -29.2950  -23.5530   19.7680 C   0  0  2  0  0  0  0  0  0  0  0  0
  -31.7320  -23.3580   18.7870 C   0  0  0  0  0  1  0  0  0  0  0  0
  -30.7830  -24.0470   19.7880 C   0  0  0  0  0  2  0  0  0  0  0  0
  -28.4060  -24.2720   20.8450 C   0  0  0  0  0  2  0  0  0  0  0  0
  -28.0240  -26.0880   22.5940 C   0  0  0  0  0  1  0  0  0  0  0  0
  -28.7240  -25.7450   21.2600 C   0  0  0  0  0  3  0  0  0  0  0  0
  -28.5180  -26.7350   20.2230 O   0  0  0  0  0  0  0  0  0  0  0  0
  -24.5920  -31.8760   23.2160 C   0  0  0  0  0  0  0  0  0  0  0  0
  -27.3410  -27.4540   20.2150 C   0  0  0  0  0  0  0  0  0  0  0  0
  -23.4280  -30.4530   21.5580 C   0  0  0  0  0  3  0  0  0  0  0  0
  -24.9250  -28.9240   20.1660 C   0  0  0  0  0  0  0  0  0  0  0  0
  -25.9500  -30.8470   21.3970 C   0  0  0  0  0  2  0  0  0  0  0  0
  -26.0650  -29.4740   20.7650 C   0  0  0  0  0  0  0  0  0  0  0  0
  -27.2780  -28.7500   20.7790 C   0  0  0  0  0  3  0  0  0  0  0  0
  -26.1900  -26.9140   19.6080 C   0  0  0  0  0  3  0  0  0  0  0  0
  -24.9820  -27.6430   19.5840 C   0  0  0  0  0  3  0  0  0  0  0  0
  -23.6660  -29.7630   20.1870 C   0  0  0  0  0  2  0  0  0  0  0  0
  -24.6740  -31.0740   22.1160 N   0  0  0  0  0  0  0  0  0  0  0  0
  -23.5000  -32.1370   23.7400 O   0  0  0  0  0  0  0  0  0  0  0  0
  -22.7730  -29.4310   22.5150 C   0  0  0  0  0  0  0  0  0  0  0  0
  -21.4480  -29.2560   22.3860 N   0  0  0  0  0  0  0  0  0  0  0  0
  -23.4540  -28.7980   23.3260 O   0  0  0  0  0  0  0  0  0  0  0  0
  -20.9610  -29.8150   21.6990 H   0  0  0  0  0  0  0  0  0  0  0  0
  -18.0610  -28.1180   22.9140 C   0  0  0  0  0  0  0  0  0  0  0  0
  -20.6280  -28.3160   23.1480 C   0  0  0  0  0  3  0  0  0  0  0  0
  -20.6920  -26.8980   22.5360 C   0  0  0  0  0  2  0  0  0  0  0  0
  -19.5660  -26.6230   21.5350 C   0  0  0  0  0  2  0  0  0  0  0  0
  -18.1990  -26.7820   22.2060 C   0  0  0  0  0  2  0  0  0  0  0  0
  -19.2020  -28.8460   23.3430 C   0  0  0  0  0  0  0  0  0  0  0  0
  -19.0200  -30.1010   23.9650 C   0  0  0  0  0  3  0  0  0  0  0  0
  -17.7290  -30.6250   24.1640 C   0  0  0  0  0  3  0  0  0  0  0  0
  -16.6030  -29.8930   23.7530 C   0  0  0  0  0  3  0  0  0  0  0  0
  -16.7700  -28.6420   23.1320 C   0  0  0  0  0  3  0  0  0  0  0  0
  -25.8620  -32.5220   23.8550 C   0  0  0  0  0  3  0  0  0  0  0  0
  -25.5350  -33.9170   24.1750 N   0  0  0  0  0  0  0  0  0  0  0  0
  -25.8740  -34.9710   23.4190 C   0  0  0  0  0  0  0  0  0  0  0  0
  -26.5640  -34.8700   22.4010 O   0  0  0  0  0  0  0  0  0  0  0  0
  -24.9210  -34.0700   24.9610 H   0  0  0  0  0  0  0  0  0  0  0  0
  -24.1510  -36.7550   23.0070 C   0  0  0  0  0  1  0  0  0  0  0  0
  -25.3640  -36.3550   23.8620 C   0  0  0  0  0  3  0  0  0  0  0  0
  -27.4560  -37.2520   24.7800 C   0  0  0  0  0  1  0  0  0  0  0  0
  -26.3950  -37.4120   23.7890 N   0  0  0  0  0  0  0  0  0  0  0  0
  -25.9790  -38.3310   23.9160 H   0  0  0  0  0  0  0  0  0  0  0  0
  -26.3700  -31.7590   25.1400 C   0  0  1  0  0  0  0  0  0  0  0  0
  -25.2630  -31.5070   26.1900 C   0  0  0  0  0  1  0  0  0  0  0  0
  -26.9770  -30.3880   24.7560 C   0  0  0  0  0  1  0  0  0  0  0  0
  -27.4970  -32.5700   25.8220 C   0  0  0  0  0  1  0  0  0  0  0  0
  -26.0900  -21.8350   18.8100 C   0  0  0  0  0  1  0  0  0  0  0  0
  -27.3830  -21.4540   18.0760 C   0  0  0  0  0  2  0  0  0  0  0  0
  -32.0520  -21.6690   22.3930 C   0  0  0  0  0  1  0  0  0  0  0  0
  -30.5460  -21.9570   22.2440 C   0  0  0  0  0  2  0  0  0  0  0  0
  -29.4370  -17.6030   19.9200 C   0  0  0  0  0  2  0  0  0  0  0  0
  -30.2150  -16.8380   21.0210 C   0  0  0  0  0  2  0  0  0  0  0  0
  -30.6440  -14.4620   20.2530 C   0  0  0  0  0  0  0  0  0  0  0  0
  -30.2920  -12.3670   18.9890 C   0  0  0  0  0  2  0  0  0  0  0  0
  -29.2890  -12.6470   17.8500 C   0  0  0  0  0  2  0  0  0  0  0  0
  -27.8360  -12.5070   18.3450 C   0  0  0  0  0  2  0  0  0  0  0  0
  -27.5770  -13.2740   19.6690 C   0  0  0  0  0  3  0  0  0  0  0  0
  -28.6790  -12.9530   20.7050 C   0  0  0  0  0  2  0  0  0  0  0  0
  -29.9800  -13.2850   20.0970 N   0  0  0  0  0  0  0  0  0  0  0  0
  -31.7120  -14.7230   19.6910 O   0  0  0  0  0  0  0  0  0  0  0  0
  -29.9730  -15.3870   20.9610 N   0  0  0  0  0  0  0  0  0  0  0  0
  -29.1340  -15.0550   21.4180 H   0  0  0  0  0  0  0  0  0  0  0  0
  -25.2120  -13.8840   20.4850 C   0  0  0  0  0  0  0  0  0  0  0  0
  -24.1550  -13.1110   20.8780 C   0  0  0  0  0  0  0  0  0  0  0  0
  -24.6020  -11.7570   20.7950 C   0  0  0  0  0  0  0  0  0  0  0  0
  -26.2410  -13.0000   20.1920 N   0  0  0  0  0  0  0  0  0  0  0  0
  -25.8770  -11.7140   20.4290 N   0  0  0  0  0  0  0  0  0  0  0  0
  -23.8740  -10.4970   20.9860 C   0  0  0  0  0  0  0  0  0  0  0  0
  -24.3070   -9.5260   21.9160 C   0  0  0  0  0  3  0  0  0  0  0  0
  -23.5800   -8.3310   22.0960 C   0  0  0  0  0  3  0  0  0  0  0  0
  -22.4060   -8.0950   21.3410 C   0  0  0  0  0  0  0  0  0  0  0  0
  -21.9910   -9.0540   20.4000 C   0  0  0  0  0  3  0  0  0  0  0  0
  -22.7180  -10.2410   20.2200 C   0  0  0  0  0  3  0  0  0  0  0  0
  -21.6520   -6.9490   21.4260 O   0  0  0  0  0  0  0  0  0  0  0  0
  -21.5750   -6.2250   22.5890 C   0  0  0  0  0  0  0  0  0  0  0  0
  -21.0640   -6.7830   23.7810 C   0  0  0  0  0  3  0  0  0  0  0  0
  -20.9370   -5.9830   24.9330 C   0  0  0  0  0  3  0  0  0  0  0  0
  -21.3120   -4.6260   24.8960 C   0  0  0  0  0  0  0  0  0  0  0  0
  -21.8150   -4.0680   23.7080 C   0  0  0  0  0  3  0  0  0  0  0  0
  -21.9440   -4.8650   22.5560 C   0  0  0  0  0  0  0  0  0  0  0  0
  -22.4100   -4.3170   21.4090 F   0  0  0  0  0  0  0  0  0  0  0  0
  -21.1850   -3.8550   26.0010 F   0  0  0  0  0  0  0  0  0  0  0  0
  -22.7760  -13.5900   21.2280 C   0  0  0  0  0  0  0  0  0  0  0  0
  -22.0790  -12.8690   22.0980 N   0  0  0  0  0  0  0  0  0  0  0  0
  -22.3280  -14.6390   20.7640 O   0  0  0  0  0  0  0  0  0  0  0  0
  -22.4570  -12.0170   22.4850 H   0  0  0  0  0  0  0  0  0  0  0  0
  -21.1580  -13.1730   22.3790 H   0  0  0  0  0  0  0  0  0  0  0  0
  -25.3810  -15.2570   20.3290 N   0  0  0  0  0  0  0  0  0  0  0  0
  -24.6190  -15.9110   20.4700 H   0  0  0  0  0  0  0  0  0  0  0  0
  -26.2050  -15.6900   19.9360 H   0  0  0  0  0  0  0  0  0  0  0  0
  2  1  1  0
  2 58  1  0
  3  2  2  0
  4  1  2  0
  5  6  2  0
  5  3  1  0
  6  4  1  0
  8  7  1  6
  8 10  1  0
  8  3  1  0
  8 11  1  0
  9 10  1  0
 11 13  1  0
 13 12  1  0
 14 13  1  0
 15 26  2  0
 16 14  1  0
 16 21  1  0
 17 25  1  0
 17 27  1  0
 18 24  1  0
 18 20  1  0
 19 25  1  0
 20 21  2  0
 20 19  1  0
 22 16  2  0
 23 22  1  0
 23 18  2  0
 24 17  1  0
 25 15  1  0
 27 29  2  0
 28 27  1  0
 30 28  1  0
 31 40  2  0
 31 36  1  0
 32 28  1  0
 32 36  1  0
 33 32  1  0
 34 35  1  0
 34 33  1  0
 35 31  1  0
 36 37  2  0
 37 38  1  0
 39 38  2  0
 40 39  1  0
 41 15  1  0
 41 42  1  0
 41 51  1  0
 42 45  1  0
 43 47  1  0
 43 42  1  0
 44 43  2  0
 47 46  1  0
 49 47  1  0
 49 50  1  0
 49 48  1  0
 51 54  1  1
 51 52  1  0
 53 51  1  0
 56 55  1  0
 56  5  1  0
 58 57  1  0
 59  4  1  0
 59 60  1  0
 61 69  1  0
 62 67  1  0
 63 64  1  0
 63 62  1  0
 65 64  1  0
 65 74  1  0
 65 66  1  0
 67 61  1  0
 67 66  1  0
 68 61  2  0
 69 60  1  0
 69 70  1  0
 71 72  2  0
 72 91  1  0
 73 72  1  0
 73 76  1  0
 74 75  1  0
 74 71  1  0
 75 73  2  0
 76 77  1  0
 77 78  2  0
 79 82  1  0
 79 78  1  0
 80 79  2  0
 81 80  1  0
 81 76  2  0
 82 83  1  0
 83 84  1  0
 84 85  2  0
 86 85  1  0
 86 90  1  0
 87 86  2  0
 88 83  2  0
 88 87  1  0
 89 88  1  0
 91 92  1  0
 92 95  1  0
 92 94  1  0
 93 91  2  0
 96 97  1  0
 96 71  1  0
 98 96  1  0
M  ISO  4  13 101  14 101  61 100  69 100
M  END
>  <TORSDO>  (33) 
F 24

>  <SCORE>  (33) 
-12.724

>  <name>  (33) 
32

>  <ligand_id>  (33) 
32

>  <original_smiles>  (33) 
[H]c1c([H])c([H])c2c(c1[H])C([H])([H])C([H])([H])C([H])([H])C2([H])N([H])C(=O)C1([H])N(C(=O)C([H])(N([H])C(=O)C([H])(N([H])C([H])([H])[H])C([H])([H])[H])C(C([H])([H])[H])(C([H])([H])[H])C([H])([H])[H])C([H])([H])c2c([H])c(OC([H])(C([H])([H])[H])C([H])([H])C(c3c(C([H])([H])C([H])([H])[H])nc(C([H])([H])C([H])([H])N([H])C(=O)N4C([H])([H])C([H])([H])C([H])([H])C([H])(n5nc(-c6c([H])c([H])c(Oc7c([H])c([H])c(F)c([H])c7F)c([H])c6[H])c(C(=O)N([H])[H])c5N([H])[H])C4([H])[H])c([H])c3C([H])([H])C([H])([H])[H])(C([H])([H])[H])C([H])([H])C([H])([H])[H])c([H])c([H])c2C1([H])[H]

>  <smiles>  (33) 
[H]c1c([H])c([H])c2c(c1[H])C([H])([H])C([H])([H])C([H])([H])C2([H])N([H])C(=O)C1([H])N(C(=O)C([H])(N([H])C(=O)C([H])(N([H])C([H])([H])[H])C([H])([H])[H])C(C([H])([H])[H])(C([H])([H])[H])C([H])([H])[H])C([H])([H])c2c([H])c(OC([H])(C([H])([H])[H])C([H])([H])C(c3c(C([H])([H])C([H])([H])[H])nc(C([H])([H])C([H])([H])N([H])C(=O)N4C([H])([H])C([H])([H])C([H])([H])C([H])(n5nc(-c6c([H])c([H])c(Oc7c([H])c([H])c(F)c([H])c7F)c([H])c6[H])c(C(=O)N([H])[H])c5N([H])[H])C4([H])[H])c([H])c3C([H])([H])C([H])([H])[H])(C([H])([H])[H])C([H])([H])C([H])([H])[H])c([H])c([H])c2C1([H])[H]

$$$$
33:0:0
     RDKit          3D

 91 99  0  0  1  0  0  0  0  0999 V2000
  -29.6830  -18.8210   20.5010 C   0  0  0  0  0  3  0  0  0  0  0  0
  -32.1630  -19.0850   21.5510 C   0  0  0  0  0  3  0  0  0  0  0  0
  -31.3570  -20.2400   21.4660 C   0  0  0  0  0  0  0  0  0  0  0  0
  -30.0830  -20.1500   20.8620 C   0  0  0  0  0  0  0  0  0  0  0  0
  -30.4940  -17.6400   20.7640 C   0  0  0  0  0  0  0  0  0  0  0  0
  -31.8260  -21.5180   22.1470 C   0  0  0  0  0  1  0  0  0  0  0  0
  -31.7520  -17.8340   21.2290 N   0  0  0  0  0  0  0  0  0  0  0  0
  -28.3680  -16.2990   20.7540 C   0  0  0  0  0  1  0  0  0  0  0  0
  -29.8890  -16.1510   20.9190 C   0  0  2  0  0  0  0  0  0  0  0  0
  -30.0180  -15.9060   22.2270 F   0  0  0  0  0  0  0  0  0  0  0  0
  -30.5300  -14.8380   20.1620 C   0  0  0  0  0  0  0  0  0  0  0  0
  -30.2760  -12.6290   18.9640 C   0  0  0  0  0  2  0  0  0  0  0  0
  -29.2210  -12.7000   17.8280 C   0  0  0  0  0  2  0  0  0  0  0  0
  -27.7880  -12.4850   18.3500 C   0  0  0  0  0  2  0  0  0  0  0  0
  -27.5120  -13.3140   19.6230 C   0  0  0  0  0  3  0  0  0  0  0  0
  -28.6590  -13.1160   20.6520 C   0  0  0  0  0  2  0  0  0  0  0  0
  -29.9020  -13.5980   20.0240 N   0  0  0  0  0  0  0  0  0  0  0  0
  -31.6470  -14.9510   19.6350 O   0  0  0  0  0  0  0  0  0  0  0  0
  -25.1520  -13.9110   20.4610 C   0  0  0  0  0  0  0  0  0  0  0  0
  -24.1080  -13.1290   20.8760 C   0  0  0  0  0  0  0  0  0  0  0  0
  -24.5750  -11.7810   20.7980 C   0  0  0  0  0  0  0  0  0  0  0  0
  -26.1910  -13.0350   20.1770 N   0  0  0  0  0  0  0  0  0  0  0  0
  -25.8510  -11.7520   20.4370 N   0  0  0  0  0  0  0  0  0  0  0  0
  -23.8630  -10.5140   20.9950 C   0  0  0  0  0  0  0  0  0  0  0  0
  -24.3340   -9.5400   21.9020 C   0  0  0  0  0  3  0  0  0  0  0  0
  -23.6250   -8.3340   22.0900 C   0  0  0  0  0  3  0  0  0  0  0  0
  -22.4300   -8.0980   21.3720 C   0  0  0  0  0  0  0  0  0  0  0  0
  -21.9770   -9.0590   20.4510 C   0  0  0  0  0  3  0  0  0  0  0  0
  -22.6880  -10.2570   20.2620 C   0  0  0  0  0  3  0  0  0  0  0  0
  -21.6860   -6.9470   21.4750 O   0  0  0  0  0  0  0  0  0  0  0  0
  -21.6580   -6.2100   22.6300 C   0  0  0  0  0  0  0  0  0  0  0  0
  -21.2370   -6.7650   23.8590 C   0  0  0  0  0  3  0  0  0  0  0  0
  -21.1640   -5.9540   25.0100 C   0  0  0  0  0  3  0  0  0  0  0  0
  -21.5020   -4.5900   24.9300 C   0  0  0  0  0  0  0  0  0  0  0  0
  -21.9110   -4.0330   23.7050 C   0  0  0  0  0  3  0  0  0  0  0  0
  -21.9900   -4.8420   22.5580 C   0  0  0  0  0  0  0  0  0  0  0  0
  -22.3700   -4.2980   21.3760 F   0  0  0  0  0  0  0  0  0  0  0  0
  -21.4190   -3.8050   26.0300 F   0  0  0  0  0  0  0  0  0  0  0  0
  -22.7290  -13.6000   21.2330 C   0  0  0  0  0  0  0  0  0  0  0  0
  -22.0570  -12.8750   22.1230 N   0  0  0  0  0  0  0  0  0  0  0  0
  -22.2570  -14.6330   20.7660 O   0  0  0  0  0  0  0  0  0  0  0  0
  -22.4560  -12.0360   22.5140 H   0  0  0  0  0  0  0  0  0  0  0  0
  -21.1340  -13.1630   22.4160 H   0  0  0  0  0  0  0  0  0  0  0  0
  -25.2920  -15.2790   20.2740 N   0  0  0  0  0  0  0  0  0  0  0  0
  -24.5340  -15.9410   20.4090 H   0  0  0  0  0  0  0  0  0  0  0  0
  -26.1180  -15.6940   19.8680 H   0  0  0  0  0  0  0  0  0  0  0  0
  -29.1740  -21.2370   20.8130 O   0  0  0  0  0  0  0  0  0  0  0  0
  -29.4850  -22.5490   20.2050 C   0  0  0  0  0  2  0  0  0  0  0  0
  -28.8100  -23.8800   20.8200 C   0  0  0  0  0  2  0  0  0  0  0  0
  -28.6330  -25.1680   19.8720 C   0  0  0  0  0  2  0  0  0  0  0  0
  -28.4420  -26.5520   20.4000 O   0  0  0  0  0  0  0  0  0  0  0  0
  -24.6190  -31.9310   23.2480 C   0  0  0  0  0  0  0  0  0  0  0  0
  -27.2750  -27.3370   20.2800 C   0  0  0  0  0  0  0  0  0  0  0  0
  -23.4220  -30.5100   21.6140 C   0  0  0  0  0  3  0  0  0  0  0  0
  -24.8860  -28.9400   20.2120 C   0  0  0  0  0  0  0  0  0  0  0  0
  -25.9550  -30.8430   21.4250 C   0  0  0  0  0  2  0  0  0  0  0  0
  -26.0450  -29.4500   20.8070 C   0  0  0  0  0  0  0  0  0  0  0  0
  -27.2320  -28.6580   20.8300 C   0  0  0  0  0  3  0  0  0  0  0  0
  -26.0880  -26.8750   19.6600 C   0  0  0  0  0  3  0  0  0  0  0  0
  -24.9130  -27.6590   19.6280 C   0  0  0  0  0  3  0  0  0  0  0  0
  -23.6400  -29.8110   20.2440 C   0  0  0  0  0  2  0  0  0  0  0  0
  -24.6840  -31.1140   22.1550 N   0  0  0  0  0  0  0  0  0  0  0  0
  -23.5340  -32.2120   23.7760 O   0  0  0  0  0  0  0  0  0  0  0  0
  -22.7560  -29.5120   22.5880 C   0  0  0  0  0  0  0  0  0  0  0  0
  -21.4270  -29.3480   22.4710 N   0  0  0  0  0  0  0  0  0  0  0  0
  -23.4350  -28.8870   23.4080 O   0  0  0  0  0  0  0  0  0  0  0  0
  -20.9320  -29.9300   21.8100 H   0  0  0  0  0  0  0  0  0  0  0  0
  -18.0520  -28.1300   22.9630 C   0  0  0  0  0  0  0  0  0  0  0  0
  -20.6110  -28.3980   23.2330 C   0  0  0  0  0  3  0  0  0  0  0  0
  -20.7240  -26.9730   22.6400 C   0  0  0  0  0  2  0  0  0  0  0  0
  -19.6130  -26.6400   21.6410 C   0  0  0  0  0  2  0  0  0  0  0  0
  -18.2300  -26.7790   22.2890 C   0  0  0  0  0  2  0  0  0  0  0  0
  -19.1670  -28.8970   23.3910 C   0  0  0  0  0  0  0  0  0  0  0  0
  -18.9410  -30.1650   23.9720 C   0  0  0  0  0  3  0  0  0  0  0  0
  -17.6340  -30.6690   24.1260 C   0  0  0  0  0  3  0  0  0  0  0  0
  -16.5350  -29.8970   23.7080 C   0  0  0  0  0  3  0  0  0  0  0  0
  -16.7460  -28.6320   23.1330 C   0  0  0  0  0  3  0  0  0  0  0  0
  -25.8990  -32.5730   23.8680 C   0  0  0  0  0  3  0  0  0  0  0  0
  -25.5800  -33.9730   24.1990 N   0  0  0  0  0  0  0  0  0  0  0  0
  -25.9090  -35.0270   23.4400 C   0  0  0  0  0  0  0  0  0  0  0  0
  -26.5760  -34.9250   22.4070 O   0  0  0  0  0  0  0  0  0  0  0  0
  -24.9820  -34.1240   24.9980 H   0  0  0  0  0  0  0  0  0  0  0  0
  -24.1730  -36.8180   23.0930 C   0  0  0  0  0  1  0  0  0  0  0  0
  -25.4190  -36.4150   23.8980 C   0  0  0  0  0  3  0  0  0  0  0  0
  -27.5510  -37.3100   24.7220 C   0  0  0  0  0  1  0  0  0  0  0  0
  -26.4460  -37.4710   23.7810 N   0  0  0  0  0  0  0  0  0  0  0  0
  -26.0350  -38.3880   23.9320 H   0  0  0  0  0  0  0  0  0  0  0  0
  -26.4190  -31.8070   25.1470 C   0  0  1  0  0  0  0  0  0  0  0  0
  -25.3300  -31.5670   26.2180 C   0  0  0  0  0  1  0  0  0  0  0  0
  -27.0090  -30.4310   24.7560 C   0  0  0  0  0  1  0  0  0  0  0  0
  -27.5630  -32.6100   25.8090 C   0  0  0  0  0  1  0  0  0  0  0  0
  1  5  2  0
  1  4  1  0
  3  2  1  0
  3  6  1  0
  4  3  2  0
  5  9  1  0
  5  7  1  0
  7  2  2  0
  9  8  1  1
  9 10  1  0
 11  9  1  0
 12 17  1  0
 13 14  1  0
 13 12  1  0
 15 14  1  0
 15 22  1  0
 15 16  1  0
 17 11  1  0
 17 16  1  0
 18 11  2  0
 19 20  2  0
 20 39  1  0
 21 20  1  0
 21 24  1  0
 22 23  1  0
 22 19  1  0
 23 21  2  0
 24 25  1  0
 25 26  2  0
 27 30  1  0
 27 26  1  0
 28 27  2  0
 29 28  1  0
 29 24  2  0
 30 31  1  0
 31 32  1  0
 32 33  2  0
 34 33  1  0
 34 38  1  0
 35 34  2  0
 36 31  2  0
 36 35  1  0
 37 36  1  0
 39 40  1  0
 40 43  1  0
 40 42  1  0
 41 39  2  0
 44 45  1  0
 44 19  1  0
 46 44  1  0
 47  4  1  0
 48 47  1  0
 48 49  1  0
 50 51  1  0
 50 49  1  0
 52 63  2  0
 53 51  1  0
 53 58  1  0
 54 62  1  0
 54 64  1  0
 55 61  1  0
 55 57  1  0
 56 62  1  0
 57 58  2  0
 57 56  1  0
 59 53  2  0
 60 59  1  0
 60 55  2  0
 61 54  1  0
 62 52  1  0
 64 66  2  0
 65 64  1  0
 67 65  1  0
 68 77  2  0
 68 73  1  0
 69 65  1  0
 69 73  1  0
 70 69  1  0
 71 72  1  0
 71 70  1  0
 72 68  1  0
 73 74  2  0
 74 75  1  0
 76 75  2  0
 77 76  1  0
 78 52  1  0
 78 79  1  0
 78 88  1  0
 79 82  1  0
 80 84  1  0
 80 79  1  0
 81 80  2  0
 84 83  1  0
 86 84  1  0
 86 87  1  0
 86 85  1  0
 88 91  1  1
 88 89  1  0
 90 88  1  0
M  ISO  4   9 100  11 100  50 101  51 101
M  END
>  <TORSDO>  (34) 
F 21

>  <SCORE>  (34) 
-13.545

>  <name>  (34) 
33

>  <ligand_id>  (34) 
33

>  <original_smiles>  (34) 
[H]c1nc(C(F)(C(=O)N2C([H])([H])C([H])([H])C([H])([H])C([H])(n3nc(-c4c([H])c([H])c(Oc5c([H])c([H])c(F)c([H])c5F)c([H])c4[H])c(C(=O)N([H])[H])c3N([H])[H])C2([H])[H])C([H])([H])[H])c([H])c(OC([H])([H])C([H])([H])C([H])([H])Oc2c([H])c([H])c3c(c2[H])C([H])([H])N(C(=O)C([H])(N([H])C(=O)C([H])(N([H])C([H])([H])[H])C([H])([H])[H])C(C([H])([H])[H])(C([H])([H])[H])C([H])([H])[H])C([H])(C(=O)N([H])C2([H])c4c([H])c([H])c([H])c([H])c4C([H])([H])C([H])([H])C2([H])[H])C3([H])[H])c1C([H])([H])[H]

>  <smiles>  (34) 
[H]c1nc(C(F)(C(=O)N2C([H])([H])C([H])([H])C([H])([H])C([H])(n3nc(-c4c([H])c([H])c(Oc5c([H])c([H])c(F)c([H])c5F)c([H])c4[H])c(C(=O)N([H])[H])c3N([H])[H])C2([H])[H])C([H])([H])[H])c([H])c(OC([H])([H])C([H])([H])C([H])([H])Oc2c([H])c([H])c3c(c2[H])C([H])([H])N(C(=O)C([H])(N([H])C(=O)C([H])(N([H])C([H])([H])[H])C([H])([H])[H])C(C([H])([H])[H])(C([H])([H])[H])C([H])([H])[H])C([H])(C(=O)N([H])C2([H])c4c([H])c([H])c([H])c([H])c4C([H])([H])C([H])([H])C2([H])[H])C3([H])[H])c1C([H])([H])[H]

$$$$
34:0:0
     RDKit          3D

 92100  0  0  1  0  0  0  0  0999 V2000
  -29.5330  -21.7210   18.3630 C   0  0  0  0  0  3  0  0  0  0  0  0
  -29.8220  -24.1010   17.9260 C   0  0  0  0  0  3  0  0  0  0  0  0
  -30.1170  -23.2250   20.1850 C   0  0  0  0  0  3  0  0  0  0  0  0
  -29.5280  -22.8050   17.4670 C   0  0  0  0  0  0  0  0  0  0  0  0
  -29.8340  -21.9100   19.7340 C   0  0  0  0  0  0  0  0  0  0  0  0
  -30.1170  -24.3250   19.2860 C   0  0  0  0  0  0  0  0  0  0  0  0
  -29.2300  -22.5810   15.9980 C   0  0  0  0  0  1  0  0  0  0  0  0
  -29.8690  -20.7230   20.7180 C   0  0  0  0  0  2  0  0  0  0  0  0
  -29.8540  -19.3220   20.0510 C   0  0  0  0  0  2  0  0  0  0  0  0
  -29.9410  -18.0720   20.9650 C   0  0  0  0  0  2  0  0  0  0  0  0
  -29.9430  -16.7960   20.0860 C   0  0  0  0  0  2  0  0  0  0  0  0
  -30.6390  -14.4450   20.4130 C   0  0  0  0  0  0  0  0  0  0  0  0
  -30.3340  -12.2920   19.2740 C   0  0  0  0  0  2  0  0  0  0  0  0
  -29.3920  -12.5270   18.0720 C   0  0  0  0  0  2  0  0  0  0  0  0
  -27.9190  -12.3830   18.5020 C   0  0  0  0  0  2  0  0  0  0  0  0
  -27.5860  -13.2020   19.7800 C   0  0  0  0  0  3  0  0  0  0  0  0
  -28.6460  -12.9690   20.8860 C   0  0  0  0  0  2  0  0  0  0  0  0
  -29.9730  -13.2640   20.3190 N   0  0  0  0  0  0  0  0  0  0  0  0
  -31.7690  -14.6170   19.9530 O   0  0  0  0  0  0  0  0  0  0  0  0
  -29.8860  -15.5010   20.7860 N   0  0  0  0  0  0  0  0  0  0  0  0
  -29.0020  -15.2650   21.2100 H   0  0  0  0  0  0  0  0  0  0  0  0
  -25.1830  -13.7970   20.4830 C   0  0  0  0  0  0  0  0  0  0  0  0
  -24.1190  -13.0210   20.8580 C   0  0  0  0  0  0  0  0  0  0  0  0
  -24.5870  -11.6710   20.8350 C   0  0  0  0  0  0  0  0  0  0  0  0
  -26.2340  -12.9210   20.2580 N   0  0  0  0  0  0  0  0  0  0  0  0
  -25.8780  -11.6380   20.5270 N   0  0  0  0  0  0  0  0  0  0  0  0
  -23.8690  -10.4060   21.0340 C   0  0  0  0  0  0  0  0  0  0  0  0
  -24.3090   -9.4440   21.9700 C   0  0  0  0  0  3  0  0  0  0  0  0
  -23.5910   -8.2440   22.1550 C   0  0  0  0  0  3  0  0  0  0  0  0
  -22.4190   -7.9950   21.4010 C   0  0  0  0  0  0  0  0  0  0  0  0
  -21.9980   -8.9460   20.4530 C   0  0  0  0  0  3  0  0  0  0  0  0
  -22.7170  -10.1380   20.2670 C   0  0  0  0  0  3  0  0  0  0  0  0
  -21.6730   -6.8460   21.4940 O   0  0  0  0  0  0  0  0  0  0  0  0
  -21.6340   -6.1030   22.6470 C   0  0  0  0  0  0  0  0  0  0  0  0
  -21.2110   -6.6550   23.8750 C   0  0  0  0  0  3  0  0  0  0  0  0
  -21.1210   -5.8390   25.0210 C   0  0  0  0  0  3  0  0  0  0  0  0
  -21.4440   -4.4710   24.9380 C   0  0  0  0  0  0  0  0  0  0  0  0
  -21.8610   -3.9180   23.7150 C   0  0  0  0  0  3  0  0  0  0  0  0
  -21.9530   -4.7320   22.5710 C   0  0  0  0  0  0  0  0  0  0  0  0
  -22.3360   -4.1880   21.3900 F   0  0  0  0  0  0  0  0  0  0  0  0
  -21.3500   -3.6860   26.0370 F   0  0  0  0  0  0  0  0  0  0  0  0
  -22.7180  -13.4940   21.1250 C   0  0  0  0  0  0  0  0  0  0  0  0
  -21.9920  -12.7980   21.9940 N   0  0  0  0  0  0  0  0  0  0  0  0
  -22.2750  -14.5140   20.6000 O   0  0  0  0  0  0  0  0  0  0  0  0
  -22.3640  -11.9720   22.4390 H   0  0  0  0  0  0  0  0  0  0  0  0
  -21.0530  -13.0970   22.2190 H   0  0  0  0  0  0  0  0  0  0  0  0
  -25.3390  -15.1670   20.2960 N   0  0  0  0  0  0  0  0  0  0  0  0
  -24.5640  -15.8140   20.3920 H   0  0  0  0  0  0  0  0  0  0  0  0
  -26.1780  -15.6020   19.9330 H   0  0  0  0  0  0  0  0  0  0  0  0
  -30.5130  -25.7330   19.7420 C   0  0  0  0  0  2  0  0  0  0  0  0
  -29.4600  -26.8420   19.4950 C   0  0  0  0  0  2  0  0  0  0  0  0
  -28.3640  -26.6100   20.3590 O   0  0  0  0  0  0  0  0  0  0  0  0
  -24.5930  -31.8750   23.2790 C   0  0  0  0  0  0  0  0  0  0  0  0
  -27.2700  -27.4290   20.2470 C   0  0  0  0  0  0  0  0  0  0  0  0
  -23.4020  -30.4610   21.6340 C   0  0  0  0  0  3  0  0  0  0  0  0
  -24.8740  -28.9230   20.2250 C   0  0  0  0  0  0  0  0  0  0  0  0
  -25.9280  -30.8290   21.4530 C   0  0  0  0  0  2  0  0  0  0  0  0
  -26.0260  -29.4570   20.8180 C   0  0  0  0  0  0  0  0  0  0  0  0
  -27.2310  -28.7170   20.8300 C   0  0  0  0  0  3  0  0  0  0  0  0
  -26.1060  -26.9030   19.6570 C   0  0  0  0  0  3  0  0  0  0  0  0
  -24.9080  -27.6440   19.6370 C   0  0  0  0  0  3  0  0  0  0  0  0
  -23.6240  -29.7740   20.2600 C   0  0  0  0  0  2  0  0  0  0  0  0
  -24.6600  -31.0690   22.1820 N   0  0  0  0  0  0  0  0  0  0  0  0
  -23.5080  -32.1490   23.8080 O   0  0  0  0  0  0  0  0  0  0  0  0
  -22.7430  -29.4460   22.5960 C   0  0  0  0  0  0  0  0  0  0  0  0
  -21.4180  -29.2700   22.4640 N   0  0  0  0  0  0  0  0  0  0  0  0
  -23.4200  -28.8210   23.4160 O   0  0  0  0  0  0  0  0  0  0  0  0
  -20.9340  -29.8280   21.7740 H   0  0  0  0  0  0  0  0  0  0  0  0
  -18.0340  -28.1060   22.9600 C   0  0  0  0  0  0  0  0  0  0  0  0
  -20.5930  -28.3400   23.2340 C   0  0  0  0  0  3  0  0  0  0  0  0
  -20.6840  -26.9080   22.6570 C   0  0  0  0  0  2  0  0  0  0  0  0
  -19.5780  -26.5960   21.6410 C   0  0  0  0  0  2  0  0  0  0  0  0
  -18.1980  -26.7550   22.2840 C   0  0  0  0  0  2  0  0  0  0  0  0
  -19.1590  -28.8580   23.3910 C   0  0  0  0  0  0  0  0  0  0  0  0
  -18.9520  -30.1230   23.9810 C   0  0  0  0  0  3  0  0  0  0  0  0
  -17.6520  -30.6370   24.1460 C   0  0  0  0  0  3  0  0  0  0  0  0
  -16.5420  -29.8820   23.7300 C   0  0  0  0  0  3  0  0  0  0  0  0
  -16.7320  -28.6190   23.1440 C   0  0  0  0  0  3  0  0  0  0  0  0
  -25.8740  -32.5100   23.9060 C   0  0  0  0  0  3  0  0  0  0  0  0
  -25.5670  -33.9120   24.2150 N   0  0  0  0  0  0  0  0  0  0  0  0
  -25.9180  -34.9540   23.4490 C   0  0  0  0  0  0  0  0  0  0  0  0
  -26.6070  -34.8350   22.4320 O   0  0  0  0  0  0  0  0  0  0  0  0
  -24.9600  -34.0790   25.0040 H   0  0  0  0  0  0  0  0  0  0  0  0
  -24.2110  -36.7530   23.0340 C   0  0  0  0  0  1  0  0  0  0  0  0
  -25.4290  -36.3490   23.8810 C   0  0  0  0  0  3  0  0  0  0  0  0
  -27.5470  -37.2280   24.7560 C   0  0  0  0  0  1  0  0  0  0  0  0
  -26.4710  -37.3950   23.7830 N   0  0  0  0  0  0  0  0  0  0  0  0
  -26.0680  -38.3190   23.9110 H   0  0  0  0  0  0  0  0  0  0  0  0
  -26.3780  -31.7510   25.1950 C   0  0  1  0  0  0  0  0  0  0  0  0
  -25.2750  -31.5260   26.2550 C   0  0  0  0  0  1  0  0  0  0  0  0
  -26.9600  -30.3680   24.8200 C   0  0  0  0  0  1  0  0  0  0  0  0
  -27.5260  -32.5490   25.8580 C   0  0  0  0  0  1  0  0  0  0  0  0
  1  5  1  0
  2  6  2  0
  4  2  1  0
  4  1  2  0
  5  3  2  0
  5  8  1  0
  6 50  1  0
  6  3  1  0
  7  4  1  0
  9  8  1  0
  9 10  1  0
 11 20  1  0
 11 10  1  0
 12 20  1  0
 13 18  1  0
 14 15  1  0
 14 13  1  0
 16 15  1  0
 16 25  1  0
 16 17  1  0
 18 12  1  0
 18 17  1  0
 19 12  2  0
 20 21  1  0
 22 23  2  0
 23 42  1  0
 24 23  1  0
 24 27  1  0
 25 22  1  0
 25 26  1  0
 26 24  2  0
 27 28  1  0
 28 29  2  0
 30 33  1  0
 30 29  1  0
 31 30  2  0
 32 31  1  0
 32 27  2  0
 33 34  1  0
 34 35  1  0
 35 36  2  0
 37 36  1  0
 37 41  1  0
 38 37  2  0
 39 34  2  0
 39 38  1  0
 40 39  1  0
 42 43  1  0
 43 46  1  0
 43 45  1  0
 44 42  2  0
 47 48  1  0
 47 22  1  0
 49 47  1  0
 51 50  1  0
 51 52  1  0
 53 64  2  0
 54 52  1  0
 54 59  1  0
 55 63  1  0
 55 65  1  0
 56 62  1  0
 56 58  1  0
 57 63  1  0
 58 59  2  0
 58 57  1  0
 60 54  2  0
 61 60  1  0
 61 56  2  0
 62 55  1  0
 63 53  1  0
 65 67  2  0
 66 65  1  0
 68 66  1  0
 69 78  2  0
 69 74  1  0
 70 66  1  0
 70 74  1  0
 71 70  1  0
 72 73  1  0
 72 71  1  0
 73 69  1  0
 74 75  2  0
 75 76  1  0
 77 76  2  0
 78 77  1  0
 79 53  1  0
 79 80  1  0
 79 89  1  0
 80 83  1  0
 81 85  1  0
 81 80  1  0
 82 81  2  0
 85 84  1  0
 87 85  1  0
 87 88  1  0
 87 86  1  0
 89 92  1  1
 89 90  1  0
 91 89  1  0
M  ISO  4  12 100  20 100  51 101  52 101
M  END
>  <TORSDO>  (35) 
F 22

>  <SCORE>  (35) 
-12.686

>  <name>  (35) 
34

>  <ligand_id>  (35) 
34

>  <original_smiles>  (35) 
[H]c1c([H])c([H])c2c(c1[H])C([H])([H])C([H])([H])C([H])([H])C2([H])N([H])C(=O)C1([H])N(C(=O)C([H])(N([H])C(=O)C([H])(N([H])C([H])([H])[H])C([H])([H])[H])C(C([H])([H])[H])(C([H])([H])[H])C([H])([H])[H])C([H])([H])c2c([H])c(OC([H])([H])C([H])([H])c3c([H])c(C([H])([H])[H])c([H])c(C([H])([H])C([H])([H])C([H])([H])C([H])([H])N([H])C(=O)N4C([H])([H])C([H])([H])C([H])([H])C([H])(n5nc(-c6c([H])c([H])c(Oc7c([H])c([H])c(F)c([H])c7F)c([H])c6[H])c(C(=O)N([H])[H])c5N([H])[H])C4([H])[H])c3[H])c([H])c([H])c2C1([H])[H]

>  <smiles>  (35) 
[H]c1c([H])c([H])c2c(c1[H])C([H])([H])C([H])([H])C([H])([H])C2([H])N([H])C(=O)C1([H])N(C(=O)C([H])(N([H])C(=O)C([H])(N([H])C([H])([H])[H])C([H])([H])[H])C(C([H])([H])[H])(C([H])([H])[H])C([H])([H])[H])C([H])([H])c2c([H])c(OC([H])([H])C([H])([H])c3c([H])c(C([H])([H])[H])c([H])c(C([H])([H])C([H])([H])C([H])([H])C([H])([H])N([H])C(=O)N4C([H])([H])C([H])([H])C([H])([H])C([H])(n5nc(-c6c([H])c([H])c(Oc7c([H])c([H])c(F)c([H])c7F)c([H])c6[H])c(C(=O)N([H])[H])c5N([H])[H])C4([H])[H])c3[H])c([H])c([H])c2C1([H])[H]

$$$$
35:0:0
     RDKit          3D

 94102  0  0  1  0  0  0  0  0999 V2000
  -28.4960  -23.0860   21.7000 C   0  0  0  0  0  0  0  0  0  0  0  0
  -27.7150  -22.0070   21.2310 C   0  0  0  0  0  0  0  0  0  0  0  0
  -28.0220  -24.3760   21.3840 C   0  0  0  0  0  0  0  0  0  0  0  0
  -26.2950  -23.4650   20.1870 C   0  0  0  0  0  0  0  0  0  0  0  0
  -29.7630  -22.8810   22.5230 C   0  0  0  0  0  1  0  0  0  0  0  0
  -25.0800  -23.6710   19.3100 C   0  0  0  0  0  1  0  0  0  0  0  0
  -26.6240  -22.2130   20.4720 N   0  0  0  0  0  0  0  0  0  0  0  0
  -26.9310  -24.5460   20.6120 N   0  0  0  0  0  0  0  0  0  0  0  0
  -27.9920  -20.5500   21.5720 C   0  0  0  0  0  2  0  0  0  0  0  0
  -28.6480  -19.7690   20.4180 C   0  0  0  0  0  2  0  0  0  0  0  0
  -30.0760  -19.2860   20.7160 C   0  0  0  0  0  2  0  0  0  0  0  0
  -30.3070  -17.8870   20.1380 C   0  0  0  0  0  2  0  0  0  0  0  0
  -31.6560  -17.2620   20.5260 C   0  0  0  0  0  2  0  0  0  0  0  0
  -31.9010  -14.8590   19.8760 C   0  0  0  0  0  0  0  0  0  0  0  0
  -31.5120  -12.5270   19.1720 C   0  0  0  0  0  2  0  0  0  0  0  0
  -30.5600  -12.4630   17.9640 C   0  0  0  0  0  2  0  0  0  0  0  0
  -29.0860  -12.4790   18.4140 C   0  0  0  0  0  2  0  0  0  0  0  0
  -28.7830  -13.6100   19.4300 C   0  0  0  0  0  3  0  0  0  0  0  0
  -29.8290  -13.6010   20.5650 C   0  0  0  0  0  2  0  0  0  0  0  0
  -31.1790  -13.7140   19.9680 N   0  0  0  0  0  0  0  0  0  0  0  0
  -32.8870  -15.0040   19.1460 O   0  0  0  0  0  0  0  0  0  0  0  0
  -31.4450  -15.8320   20.6630 N   0  0  0  0  0  0  0  0  0  0  0  0
  -30.7080  -15.5500   21.2920 H   0  0  0  0  0  0  0  0  0  0  0  0
  -26.5170  -14.5090   20.2750 C   0  0  0  0  0  0  0  0  0  0  0  0
  -25.3660  -13.8710   20.6550 C   0  0  0  0  0  0  0  0  0  0  0  0
  -25.6320  -12.4730   20.5320 C   0  0  0  0  0  0  0  0  0  0  0  0
  -27.4210  -13.5060   19.9530 N   0  0  0  0  0  0  0  0  0  0  0  0
  -26.8890  -12.2730   20.1610 N   0  0  0  0  0  0  0  0  0  0  0  0
  -24.7440  -11.3150   20.6910 C   0  0  0  0  0  0  0  0  0  0  0  0
  -25.0620  -10.2560   21.5720 C   0  0  0  0  0  3  0  0  0  0  0  0
  -24.1840   -9.1610   21.7220 C   0  0  0  0  0  3  0  0  0  0  0  0
  -22.9720   -9.1180   20.9900 C   0  0  0  0  0  0  0  0  0  0  0  0
  -22.6740  -10.1620   20.0970 C   0  0  0  0  0  3  0  0  0  0  0  0
  -23.5520  -11.2480   19.9450 C   0  0  0  0  0  3  0  0  0  0  0  0
  -22.0710   -8.0830   21.0520 O   0  0  0  0  0  0  0  0  0  0  0  0
  -21.9160   -7.3310   22.1890 C   0  0  0  0  0  0  0  0  0  0  0  0
  -21.5730   -7.9150   23.4280 C   0  0  0  0  0  3  0  0  0  0  0  0
  -21.3540   -7.0980   24.5540 C   0  0  0  0  0  3  0  0  0  0  0  0
  -21.4690   -5.6990   24.4440 C   0  0  0  0  0  0  0  0  0  0  0  0
  -21.8070   -5.1160   23.2110 C   0  0  0  0  0  3  0  0  0  0  0  0
  -22.0260   -5.9300   22.0850 C   0  0  0  0  0  0  0  0  0  0  0  0
  -22.3300   -5.3610   20.8940 F   0  0  0  0  0  0  0  0  0  0  0  0
  -21.2520   -4.9130   25.5240 F   0  0  0  0  0  0  0  0  0  0  0  0
  -24.0600  -14.5180   21.0190 C   0  0  0  0  0  0  0  0  0  0  0  0
  -23.2850  -13.8880   21.8950 N   0  0  0  0  0  0  0  0  0  0  0  0
  -23.7400  -15.6140   20.5620 O   0  0  0  0  0  0  0  0  0  0  0  0
  -23.5550  -12.9980   22.2880 H   0  0  0  0  0  0  0  0  0  0  0  0
  -22.4070  -14.3030   22.1770 H   0  0  0  0  0  0  0  0  0  0  0  0
  -26.8630  -15.8520   20.1590 N   0  0  0  0  0  0  0  0  0  0  0  0
  -26.2010  -16.6010   20.3360 H   0  0  0  0  0  0  0  0  0  0  0  0
  -27.7590  -16.1850   19.8260 H   0  0  0  0  0  0  0  0  0  0  0  0
  -28.6340  -25.6580   21.9250 C   0  0  0  0  0  2  0  0  0  0  0  0
  -29.6430  -26.3160   20.9580 C   0  0  0  0  0  2  0  0  0  0  0  0
  -29.6510  -27.7410   21.1010 O   0  0  0  0  0  0  0  0  0  0  0  0
  -25.1120  -32.3000   24.0970 C   0  0  0  0  0  0  0  0  0  0  0  0
  -28.4280  -28.3660   20.9930 C   0  0  0  0  0  0  0  0  0  0  0  0
  -24.2030  -30.9520   22.2330 C   0  0  0  0  0  3  0  0  0  0  0  0
  -25.9200  -29.6590   20.8660 C   0  0  0  0  0  0  0  0  0  0  0  0
  -26.6960  -31.5200   22.3420 C   0  0  0  0  0  2  0  0  0  0  0  0
  -26.9630  -30.2230   21.6110 C   0  0  0  0  0  0  0  0  0  0  0  0
  -28.2200  -29.5840   21.6720 C   0  0  0  0  0  3  0  0  0  0  0  0
  -27.3660  -27.8110   20.2390 C   0  0  0  0  0  3  0  0  0  0  0  0
  -26.1150  -28.4500   20.1790 C   0  0  0  0  0  3  0  0  0  0  0  0
  -24.6110  -30.4100   20.8380 C   0  0  0  0  0  2  0  0  0  0  0  0
  -25.3480  -31.6000   22.9510 N   0  0  0  0  0  0  0  0  0  0  0  0
  -23.9620  -32.4450   24.5320 O   0  0  0  0  0  0  0  0  0  0  0  0
  -23.5470  -29.8070   23.0350 C   0  0  0  0  0  0  0  0  0  0  0  0
  -22.2650  -29.5330   22.7450 N   0  0  0  0  0  0  0  0  0  0  0  0
  -24.1920  -29.1700   23.8740 O   0  0  0  0  0  0  0  0  0  0  0  0
  -21.8060  -30.1040   22.0490 H   0  0  0  0  0  0  0  0  0  0  0  0
  -18.9560  -28.0850   22.8040 C   0  0  0  0  0  0  0  0  0  0  0  0
  -21.4520  -28.4770   23.3480 C   0  0  0  0  0  3  0  0  0  0  0  0
  -21.7120  -27.1160   22.6620 C   0  0  0  0  0  2  0  0  0  0  0  0
  -20.7340  -26.8200   21.5210 C   0  0  0  0  0  2  0  0  0  0  0  0
  -19.2910  -26.8170   22.0350 C   0  0  0  0  0  2  0  0  0  0  0  0
  -19.9720  -28.8720   23.4060 C   0  0  0  0  0  0  0  0  0  0  0  0
  -19.6110  -30.0600   24.0780 C   0  0  0  0  0  3  0  0  0  0  0  0
  -18.2650  -30.4610   24.1570 C   0  0  0  0  0  3  0  0  0  0  0  0
  -17.2600  -29.6700   23.5730 C   0  0  0  0  0  3  0  0  0  0  0  0
  -17.6070  -28.4830   22.9020 C   0  0  0  0  0  3  0  0  0  0  0  0
  -26.2710  -32.9700   24.8990 C   0  0  0  0  0  3  0  0  0  0  0  0
  -25.8980  -34.3720   25.1240 N   0  0  0  0  0  0  0  0  0  0  0  0
  -26.3320  -35.4030   24.3870 C   0  0  0  0  0  0  0  0  0  0  0  0
  -27.1600  -35.2750   23.4790 O   0  0  0  0  0  0  0  0  0  0  0  0
  -25.1830  -34.5440   25.8150 H   0  0  0  0  0  0  0  0  0  0  0  0
  -24.6570  -37.1450   23.6940 C   0  0  0  0  0  1  0  0  0  0  0  0
  -25.7590  -36.7970   24.7070 C   0  0  0  0  0  3  0  0  0  0  0  0
  -27.7450  -37.7310   25.8070 C   0  0  0  0  0  1  0  0  0  0  0  0
  -26.7820  -37.8650   24.7170 N   0  0  0  0  0  0  0  0  0  0  0  0
  -26.3460  -38.7800   24.7900 H   0  0  0  0  0  0  0  0  0  0  0  0
  -26.5830  -32.2450   26.2650 C   0  0  1  0  0  0  0  0  0  0  0  0
  -25.3270  -31.9670   27.1220 C   0  0  0  0  0  1  0  0  0  0  0  0
  -27.2940  -30.8940   26.0160 C   0  0  0  0  0  1  0  0  0  0  0  0
  -27.5550  -33.1070   27.1050 C   0  0  0  0  0  1  0  0  0  0  0  0
  1  5  1  0
  2  9  1  0
  2  1  2  0
  3  1  1  0
  3 52  1  0
  4  7  2  0
  4  8  1  0
  6  4  1  0
  7  2  1  0
  8  3  2  0
 10 11  1  0
 10  9  1  0
 12 13  1  0
 12 11  1  0
 13 22  1  0
 14 20  1  0
 14 22  1  0
 15 20  1  0
 16 17  1  0
 16 15  1  0
 18 17  1  0
 18 27  1  0
 18 19  1  0
 20 19  1  0
 21 14  2  0
 22 23  1  0
 24 25  2  0
 25 44  1  0
 26 25  1  0
 26 29  1  0
 27 28  1  0
 27 24  1  0
 28 26  2  0
 29 30  1  0
 30 31  2  0
 32 35  1  0
 32 31  1  0
 33 32  2  0
 34 33  1  0
 34 29  2  0
 35 36  1  0
 36 37  1  0
 37 38  2  0
 39 38  1  0
 39 43  1  0
 40 39  2  0
 41 36  2  0
 41 40  1  0
 42 41  1  0
 44 45  1  0
 45 48  1  0
 45 47  1  0
 46 44  2  0
 49 24  1  0
 49 50  1  0
 51 49  1  0
 53 54  1  0
 53 52  1  0
 55 66  2  0
 56 54  1  0
 56 61  1  0
 57 65  1  0
 57 67  1  0
 58 60  1  0
 59 65  1  0
 60 61  2  0
 60 59  1  0
 62 56  2  0
 63 62  1  0
 63 58  2  0
 64 58  1  0
 64 57  1  0
 65 55  1  0
 67 69  2  0
 68 67  1  0
 70 68  1  0
 71 80  2  0
 71 76  1  0
 72 68  1  0
 72 76  1  0
 73 72  1  0
 74 75  1  0
 74 73  1  0
 75 71  1  0
 76 77  2  0
 77 78  1  0
 79 78  2  0
 80 79  1  0
 81 55  1  0
 81 82  1  0
 81 91  1  0
 82 85  1  0
 83 87  1  0
 83 82  1  0
 84 83  2  0
 87 86  1  0
 87 89  1  0
 89 90  1  0
 89 88  1  0
 91 94  1  1
 91 92  1  0
 93 91  1  0
M  ISO  4  14 100  22 100  53 101  54 101
M  END
>  <TORSDO>  (36) 
F 23

>  <SCORE>  (36) 
-8.416

>  <name>  (36) 
35

>  <ligand_id>  (36) 
35

>  <original_smiles>  (36) 
[H]c1c([H])c([H])c2c(c1[H])C([H])([H])C([H])([H])C([H])([H])C2([H])N([H])C(=O)C1([H])N(C(=O)C([H])(N([H])C(=O)C([H])(N([H])C([H])([H])[H])C([H])([H])[H])C(C([H])([H])[H])(C([H])([H])[H])C([H])([H])[H])C([H])([H])c2c([H])c(OC([H])([H])C([H])([H])c3nc(C([H])([H])[H])nc(C([H])([H])C([H])([H])C([H])([H])C([H])([H])C([H])([H])N([H])C(=O)N4C([H])([H])C([H])([H])C([H])([H])C([H])(n5nc(-c6c([H])c([H])c(Oc7c([H])c([H])c(F)c([H])c7F)c([H])c6[H])c(C(=O)N([H])[H])c5N([H])[H])C4([H])[H])c3C([H])([H])[H])c([H])c([H])c2C1([H])[H]

>  <smiles>  (36) 
[H]c1c([H])c([H])c2c(c1[H])C([H])([H])C([H])([H])C([H])([H])C2([H])N([H])C(=O)C1([H])N(C(=O)C([H])(N([H])C(=O)C([H])(N([H])C([H])([H])[H])C([H])([H])[H])C(C([H])([H])[H])(C([H])([H])[H])C([H])([H])[H])C([H])([H])c2c([H])c(OC([H])([H])C([H])([H])c3nc(C([H])([H])[H])nc(C([H])([H])C([H])([H])C([H])([H])C([H])([H])C([H])([H])N([H])C(=O)N4C([H])([H])C([H])([H])C([H])([H])C([H])(n5nc(-c6c([H])c([H])c(Oc7c([H])c([H])c(F)c([H])c7F)c([H])c6[H])c(C(=O)N([H])[H])c5N([H])[H])C4([H])[H])c3C([H])([H])[H])c([H])c([H])c2C1([H])[H]

$$$$
36:0:0
     RDKit          3D

 96105  0  0  1  0  0  0  0  0999 V2000
  -30.3660  -20.2860   22.0420 C   0  0  0  0  0  3  0  0  0  0  0  0
  -29.4730  -21.3950   22.0810 C   0  0  0  0  0  0  0  0  0  0  0  0
  -30.0140  -19.5910   20.9130 C   0  0  0  0  0  0  0  0  0  0  0  0
  -28.5810  -21.3260   21.1020 N   0  0  0  0  0  0  0  0  0  0  0  0
  -28.9740  -20.2940   20.3330 N   0  0  0  0  0  0  0  0  0  0  0  0
  -27.1340  -19.1500   19.1210 C   0  0  0  0  0  1  0  0  0  0  0  0
  -28.3250  -20.1070   19.0450 C   0  0  0  0  0  2  0  0  0  0  0  0
  -29.4400  -22.5830   23.0170 C   0  0  0  0  0  2  0  0  0  0  0  0
  -28.8230  -25.1210   23.0150 C   0  0  0  0  0  2  0  0  0  0  0  0
  -30.5180  -24.3060   21.3990 C   0  0  0  0  0  2  0  0  0  0  0  0
  -28.2590  -26.1390   22.0120 C   0  0  0  0  0  2  0  0  0  0  0  0
  -30.0930  -25.3290   20.3380 C   0  0  0  0  0  2  0  0  0  0  0  0
  -29.2870  -23.8970   22.2190 C   0  0  0  0  0  3  0  0  0  0  0  0
  -29.2550  -26.5180   20.8710 C   0  0  0  0  0  3  0  0  0  0  0  0
  -28.5960  -26.9440   19.6780 O   0  0  0  0  0  0  0  0  0  0  0  0
  -24.5670  -31.7410   23.0690 C   0  0  0  0  0  0  0  0  0  0  0  0
  -27.4090  -27.6170   19.7860 C   0  0  0  0  0  0  0  0  0  0  0  0
  -23.4150  -30.3440   21.3810 C   0  0  0  0  0  3  0  0  0  0  0  0
  -24.9330  -28.9450   19.8880 C   0  0  0  0  0  0  0  0  0  0  0  0
  -25.9090  -30.8560   21.1730 C   0  0  0  0  0  2  0  0  0  0  0  0
  -26.0620  -29.5170   20.4890 C   0  0  0  0  0  0  0  0  0  0  0  0
  -27.3050  -28.8550   20.4510 C   0  0  0  0  0  3  0  0  0  0  0  0
  -26.2720  -27.0470   19.1790 C   0  0  0  0  0  3  0  0  0  0  0  0
  -25.0290  -27.7010   19.2390 C   0  0  0  0  0  3  0  0  0  0  0  0
  -23.6420  -29.7240   19.9760 C   0  0  0  0  0  2  0  0  0  0  0  0
  -24.6480  -30.9910   21.9330 N   0  0  0  0  0  0  0  0  0  0  0  0
  -23.4790  -31.9360   23.6280 O   0  0  0  0  0  0  0  0  0  0  0  0
  -22.8280  -29.2550   22.3060 C   0  0  0  0  0  0  0  0  0  0  0  0
  -21.5110  -29.0200   22.1880 N   0  0  0  0  0  0  0  0  0  0  0  0
  -23.5520  -28.6260   23.0810 O   0  0  0  0  0  0  0  0  0  0  0  0
  -20.9860  -29.5830   21.5350 H   0  0  0  0  0  0  0  0  0  0  0  0
  -18.1970  -27.6730   22.6880 C   0  0  0  0  0  0  0  0  0  0  0  0
  -20.7480  -28.0160   22.9280 C   0  0  0  0  0  3  0  0  0  0  0  0
  -20.8930  -26.6190   22.2820 C   0  0  0  0  0  2  0  0  0  0  0  0
  -19.7830  -26.3010   21.2740 C   0  0  0  0  0  2  0  0  0  0  0  0
  -18.4100  -26.3640   21.9470 C   0  0  0  0  0  2  0  0  0  0  0  0
  -19.2940  -28.4570   23.1330 C   0  0  0  0  0  0  0  0  0  0  0  0
  -19.0380  -29.6840   23.7830 C   0  0  0  0  0  3  0  0  0  0  0  0
  -17.7180  -30.1270   23.9930 C   0  0  0  0  0  3  0  0  0  0  0  0
  -16.6380  -29.3390   23.5640 C   0  0  0  0  0  3  0  0  0  0  0  0
  -16.8770  -28.1130   22.9180 C   0  0  0  0  0  3  0  0  0  0  0  0
  -25.8280  -32.4110   23.7000 C   0  0  0  0  0  3  0  0  0  0  0  0
  -25.4620  -33.7860   24.0630 N   0  0  0  0  0  0  0  0  0  0  0  0
  -25.7480  -34.8680   23.3260 C   0  0  0  0  0  0  0  0  0  0  0  0
  -26.4210  -34.8150   22.2920 O   0  0  0  0  0  0  0  0  0  0  0  0
  -24.8650  -33.8990   24.8700 H   0  0  0  0  0  0  0  0  0  0  0  0
  -23.9440  -36.5910   23.0120 C   0  0  0  0  0  1  0  0  0  0  0  0
  -25.2040  -36.2250   23.8130 C   0  0  0  0  0  3  0  0  0  0  0  0
  -27.3000  -37.1800   24.6580 C   0  0  0  0  0  1  0  0  0  0  0  0
  -26.1890  -37.3240   23.7210 N   0  0  0  0  0  0  0  0  0  0  0  0
  -25.7440  -38.2200   23.8950 H   0  0  0  0  0  0  0  0  0  0  0  0
  -26.3860  -31.6280   24.9520 C   0  0  1  0  0  0  0  0  0  0  0  0
  -25.3130  -31.3140   26.0200 C   0  0  0  0  0  1  0  0  0  0  0  0
  -27.0200  -30.2870   24.5180 C   0  0  0  0  0  1  0  0  0  0  0  0
  -27.5090  -32.4520   25.6240 C   0  0  0  0  0  1  0  0  0  0  0  0
  -30.5990  -18.3770   20.2510 C   0  0  0  0  0  2  0  0  0  0  0  0
  -31.6310  -17.5920   21.0820 C   0  0  0  0  0  2  0  0  0  0  0  0
  -31.0500  -16.5170   22.0320 C   0  0  0  0  0  2  0  0  0  0  0  0
  -30.7850  -14.5810   20.4390 C   0  0  0  0  0  0  0  0  0  0  0  0
  -30.3720  -12.5320   19.1200 C   0  0  0  0  0  2  0  0  0  0  0  0
  -29.3900  -12.7950   17.9630 C   0  0  0  0  0  2  0  0  0  0  0  0
  -27.9350  -12.6270   18.4370 C   0  0  0  0  0  2  0  0  0  0  0  0
  -27.6410  -13.4130   19.7420 C   0  0  0  0  0  3  0  0  0  0  0  0
  -28.7310  -13.1480   20.8050 C   0  0  0  0  0  2  0  0  0  0  0  0
  -30.0440  -13.4610   20.2130 N   0  0  0  0  0  0  0  0  0  0  0  0
  -31.8240  -14.8260   19.8230 O   0  0  0  0  0  0  0  0  0  0  0  0
  -30.3250  -15.4080   21.3930 N   0  0  0  0  0  0  0  0  0  0  0  0
  -29.4470  -15.1420   21.8150 H   0  0  0  0  0  0  0  0  0  0  0  0
  -25.2600  -13.9840   20.5350 C   0  0  0  0  0  0  0  0  0  0  0  0
  -24.2080  -13.1950   20.9150 C   0  0  0  0  0  0  0  0  0  0  0  0
  -24.6770  -11.8470   20.8380 C   0  0  0  0  0  0  0  0  0  0  0  0
  -26.3050  -13.1170   20.2530 N   0  0  0  0  0  0  0  0  0  0  0  0
  -25.9560  -11.8250   20.4900 N   0  0  0  0  0  0  0  0  0  0  0  0
  -23.9650  -10.5770   21.0220 C   0  0  0  0  0  0  0  0  0  0  0  0
  -24.4200   -9.5990   21.9340 C   0  0  0  0  0  3  0  0  0  0  0  0
  -23.7090   -8.3920   22.1050 C   0  0  0  0  0  3  0  0  0  0  0  0
  -22.5260   -8.1540   21.3630 C   0  0  0  0  0  0  0  0  0  0  0  0
  -22.0900   -9.1210   20.4390 C   0  0  0  0  0  3  0  0  0  0  0  0
  -22.8020  -10.3190   20.2670 C   0  0  0  0  0  3  0  0  0  0  0  0
  -21.7850   -7.0010   21.4450 O   0  0  0  0  0  0  0  0  0  0  0  0
  -21.7440   -6.2490   22.5920 C   0  0  0  0  0  0  0  0  0  0  0  0
  -21.3070   -6.7900   23.8220 C   0  0  0  0  0  3  0  0  0  0  0  0
  -21.2160   -5.9630   24.9600 C   0  0  0  0  0  3  0  0  0  0  0  0
  -21.5520   -4.6000   24.8690 C   0  0  0  0  0  0  0  0  0  0  0  0
  -21.9800   -4.0590   23.6440 C   0  0  0  0  0  3  0  0  0  0  0  0
  -22.0740   -4.8830   22.5070 C   0  0  0  0  0  0  0  0  0  0  0  0
  -22.4670   -4.3520   21.3260 F   0  0  0  0  0  0  0  0  0  0  0  0
  -21.4570   -3.8050   25.9610 F   0  0  0  0  0  0  0  0  0  0  0  0
  -22.8160  -13.6550   21.2420 C   0  0  0  0  0  0  0  0  0  0  0  0
  -22.1250  -12.9360   22.1200 N   0  0  0  0  0  0  0  0  0  0  0  0
  -22.3520  -14.6850   20.7560 O   0  0  0  0  0  0  0  0  0  0  0  0
  -22.5170  -12.1040   22.5370 H   0  0  0  0  0  0  0  0  0  0  0  0
  -21.1940  -13.2220   22.3860 H   0  0  0  0  0  0  0  0  0  0  0  0
  -25.4100  -15.3610   20.3870 N   0  0  0  0  0  0  0  0  0  0  0  0
  -24.6500  -16.0130   20.5450 H   0  0  0  0  0  0  0  0  0  0  0  0
  -26.2610  -15.8100   20.0780 H   0  0  0  0  0  0  0  0  0  0  0  0
  1  2  1  0
  2  8  1  0
  3  1  2  0
  4  2  2  0
  5  3  1  0
  5  4  1  0
  7  6  1  0
  7  5  1  0
 10 13  1  0
 11  9  1  0
 12 14  1  0
 12 10  1  0
 13  9  1  0
 13  8  1  0
 14 15  1  0
 14 11  1  0
 15 17  1  0
 16 27  2  0
 17 22  1  0
 18 26  1  0
 18 28  1  0
 19 25  1  0
 19 21  1  0
 20 26  1  0
 21 20  1  0
 22 21  2  0
 23 24  1  0
 23 17  2  0
 24 19  2  0
 25 18  1  0
 26 16  1  0
 28 30  2  0
 29 28  1  0
 31 29  1  0
 32 41  2  0
 32 37  1  0
 33 29  1  0
 33 37  1  0
 34 33  1  0
 35 36  1  0
 35 34  1  0
 36 32  1  0
 37 38  2  0
 38 39  1  0
 40 39  2  0
 41 40  1  0
 42 16  1  0
 42 43  1  0
 42 52  1  0
 43 46  1  0
 44 48  1  0
 44 43  1  0
 45 44  2  0
 48 47  1  0
 50 48  1  0
 50 51  1  0
 50 49  1  0
 52 55  1  1
 52 53  1  0
 54 52  1  0
 56  3  1  0
 56 57  1  0
 57 58  1  0
 59 67  1  0
 60 65  1  0
 61 62  1  0
 61 60  1  0
 63 62  1  0
 63 72  1  0
 63 64  1  0
 65 59  1  0
 65 64  1  0
 66 59  2  0
 67 68  1  0
 67 58  1  0
 69 70  2  0
 70 89  1  0
 71 70  1  0
 71 74  1  0
 72 73  1  0
 72 69  1  0
 73 71  2  0
 74 75  1  0
 75 76  2  0
 77 80  1  0
 77 76  1  0
 78 77  2  0
 79 78  1  0
 79 74  2  0
 80 81  1  0
 81 82  1  0
 82 83  2  0
 84 83  1  0
 84 88  1  0
 85 84  2  0
 86 81  2  0
 86 85  1  0
 87 86  1  0
 89 90  1  0
 90 93  1  0
 90 92  1  0
 91 89  2  0
 94 69  1  0
 94 95  1  0
 96 94  1  0
M  ISO  4  14 101  15 101  59 100  67 100
M  END
>  <TORSDO>  (37) 
F 22

>  <SCORE>  (37) 
-13.258

>  <name>  (37) 
36

>  <ligand_id>  (37) 
36

>  <original_smiles>  (37) 
[H]c1c([H])c([H])c2c(c1[H])C([H])([H])C([H])([H])C([H])([H])C2([H])N([H])C(=O)C1([H])N(C(=O)C([H])(N([H])C(=O)C([H])(N([H])C([H])([H])[H])C([H])([H])[H])C(C([H])([H])[H])(C([H])([H])[H])C([H])([H])[H])C([H])([H])c2c([H])c(OC3([H])C([H])([H])C([H])([H])C([H])(C([H])([H])c4nn(C([H])([H])C([H])([H])[H])c(C([H])([H])C([H])([H])C([H])([H])N([H])C(=O)N5C([H])([H])C([H])([H])C([H])([H])C([H])(n6nc(-c7c([H])c([H])c(Oc8c([H])c([H])c(F)c([H])c8F)c([H])c7[H])c(C(=O)N([H])[H])c6N([H])[H])C5([H])[H])c4[H])C([H])([H])C3([H])[H])c([H])c([H])c2C1([H])[H]

>  <smiles>  (37) 
[H]c1c([H])c([H])c2c(c1[H])C([H])([H])C([H])([H])C([H])([H])C2([H])N([H])C(=O)C1([H])N(C(=O)C([H])(N([H])C(=O)C([H])(N([H])C([H])([H])[H])C([H])([H])[H])C(C([H])([H])[H])(C([H])([H])[H])C([H])([H])[H])C([H])([H])c2c([H])c(OC3([H])C([H])([H])C([H])([H])C([H])(C([H])([H])c4nn(C([H])([H])C([H])([H])[H])c(C([H])([H])C([H])([H])C([H])([H])N([H])C(=O)N5C([H])([H])C([H])([H])C([H])([H])C([H])(n6nc(-c7c([H])c([H])c(Oc8c([H])c([H])c(F)c([H])c8F)c([H])c7[H])c(C(=O)N([H])[H])c6N([H])[H])C5([H])[H])c4[H])C([H])([H])C3([H])[H])c([H])c([H])c2C1([H])[H]

$$$$
37:0:0
     RDKit          3D

 90 98  0  0  1  0  0  0  0  0999 V2000
  -29.5040  -19.7200   18.3660 C   0  0  0  0  0  3  0  0  0  0  0  0
  -29.2370  -21.8230   18.1020 C   0  0  0  0  0  3  0  0  0  0  0  0
  -29.2410  -20.2420   19.6150 C   0  0  0  0  0  0  0  0  0  0  0  0
  -29.5160  -20.7280   17.4100 N   0  0  0  0  0  0  0  0  0  0  0  0
  -29.0420  -21.6370   19.4210 N   0  0  0  0  0  0  0  0  0  0  0  0
  -29.2010  -19.4900   20.9360 C   0  0  0  0  0  2  0  0  0  0  0  0
  -28.9750  -17.9310   20.8860 C   0  0  0  0  0  2  0  0  0  0  0  0
  -30.1940  -16.9940   20.5850 C   0  0  0  0  0  2  0  0  0  0  0  0
  -30.6250  -14.5080   20.2740 C   0  0  0  0  0  0  0  0  0  0  0  0
  -30.3320  -12.3490   19.1120 C   0  0  0  0  0  2  0  0  0  0  0  0
  -29.3580  -12.5590   17.9320 C   0  0  0  0  0  2  0  0  0  0  0  0
  -27.8910  -12.4300   18.3890 C   0  0  0  0  0  2  0  0  0  0  0  0
  -27.5890  -13.2470   19.6750 C   0  0  0  0  0  3  0  0  0  0  0  0
  -28.6650  -12.9980   20.7540 C   0  0  0  0  0  2  0  0  0  0  0  0
  -29.9720  -13.3180   20.1610 N   0  0  0  0  0  0  0  0  0  0  0  0
  -31.7630  -14.6840   19.8310 O   0  0  0  0  0  0  0  0  0  0  0  0
  -29.8700  -15.5480   20.7050 N   0  0  0  0  0  0  0  0  0  0  0  0
  -28.9500  -15.3110   21.0440 H   0  0  0  0  0  0  0  0  0  0  0  0
  -25.2090  -13.8750   20.4210 C   0  0  0  0  0  0  0  0  0  0  0  0
  -24.1420  -13.1120   20.8110 C   0  0  0  0  0  0  0  0  0  0  0  0
  -24.5900  -11.7570   20.7740 C   0  0  0  0  0  0  0  0  0  0  0  0
  -26.2430  -12.9850   20.1760 N   0  0  0  0  0  0  0  0  0  0  0  0
  -25.8760  -11.7060   20.4470 N   0  0  0  0  0  0  0  0  0  0  0  0
  -23.8570  -10.5000   20.9750 C   0  0  0  0  0  0  0  0  0  0  0  0
  -24.2950   -9.5360   21.9090 C   0  0  0  0  0  3  0  0  0  0  0  0
  -23.5670   -8.3410   22.0990 C   0  0  0  0  0  3  0  0  0  0  0  0
  -22.3860   -8.1050   21.3570 C   0  0  0  0  0  0  0  0  0  0  0  0
  -21.9670   -9.0570   20.4120 C   0  0  0  0  0  3  0  0  0  0  0  0
  -22.6960  -10.2440   20.2190 C   0  0  0  0  0  3  0  0  0  0  0  0
  -21.6270   -6.9650   21.4580 O   0  0  0  0  0  0  0  0  0  0  0  0
  -21.5830   -6.2300   22.6150 C   0  0  0  0  0  0  0  0  0  0  0  0
  -21.1550   -6.7900   23.8400 C   0  0  0  0  0  3  0  0  0  0  0  0
  -21.0590   -5.9810   24.9890 C   0  0  0  0  0  3  0  0  0  0  0  0
  -21.3780   -4.6100   24.9130 C   0  0  0  0  0  0  0  0  0  0  0  0
  -21.7960   -4.0500   23.6940 C   0  0  0  0  0  3  0  0  0  0  0  0
  -21.8950   -4.8580   22.5480 C   0  0  0  0  0  0  0  0  0  0  0  0
  -22.2780   -4.3070   21.3710 F   0  0  0  0  0  0  0  0  0  0  0  0
  -21.2770   -3.8320   26.0150 F   0  0  0  0  0  0  0  0  0  0  0  0
  -22.7520  -13.6010   21.1010 C   0  0  0  0  0  0  0  0  0  0  0  0
  -22.0300  -12.9120   21.9770 N   0  0  0  0  0  0  0  0  0  0  0  0
  -22.3130  -14.6270   20.5840 O   0  0  0  0  0  0  0  0  0  0  0  0
  -22.3950  -12.0830   22.4220 H   0  0  0  0  0  0  0  0  0  0  0  0
  -21.0940  -13.2180   22.2050 H   0  0  0  0  0  0  0  0  0  0  0  0
  -25.3810  -15.2440   20.2330 N   0  0  0  0  0  0  0  0  0  0  0  0
  -24.6170  -15.9000   20.3480 H   0  0  0  0  0  0  0  0  0  0  0  0
  -26.2190  -15.6720   19.8620 H   0  0  0  0  0  0  0  0  0  0  0  0
  -28.7040  -22.7120   20.3830 C   0  0  0  0  0  2  0  0  0  0  0  0
  -28.6090  -24.1550   19.7610 C   0  0  0  0  0  3  0  0  0  0  0  0
  -28.4230  -25.3230   20.7710 C   0  0  0  0  0  3  0  0  0  0  0  0
  -28.4790  -26.6520   20.1990 O   0  0  0  0  0  0  0  0  0  0  0  0
  -24.6090  -31.8480   23.2340 C   0  0  0  0  0  0  0  0  0  0  0  0
  -27.3100  -27.3900   20.2010 C   0  0  0  0  0  0  0  0  0  0  0  0
  -23.4320  -30.4440   21.5710 C   0  0  0  0  0  3  0  0  0  0  0  0
  -24.9130  -28.9010   20.1750 C   0  0  0  0  0  0  0  0  0  0  0  0
  -25.9600  -30.8080   21.4100 C   0  0  0  0  0  2  0  0  0  0  0  0
  -26.0630  -29.4320   20.7730 C   0  0  0  0  0  0  0  0  0  0  0  0
  -27.2680  -28.6860   20.7740 C   0  0  0  0  0  3  0  0  0  0  0  0
  -26.1410  -26.8760   19.6010 C   0  0  0  0  0  3  0  0  0  0  0  0
  -24.9460  -27.6220   19.5920 C   0  0  0  0  0  3  0  0  0  0  0  0
  -23.6650  -29.7550   20.2000 C   0  0  0  0  0  2  0  0  0  0  0  0
  -24.6860  -31.0470   22.1320 N   0  0  0  0  0  0  0  0  0  0  0  0
  -23.5180  -32.1180   23.7550 O   0  0  0  0  0  0  0  0  0  0  0  0
  -22.7630  -29.4260   22.5230 C   0  0  0  0  0  0  0  0  0  0  0  0
  -21.4400  -29.2460   22.3760 N   0  0  0  0  0  0  0  0  0  0  0  0
  -23.4340  -28.7960   23.3440 O   0  0  0  0  0  0  0  0  0  0  0  0
  -20.9600  -29.8090   21.6880 H   0  0  0  0  0  0  0  0  0  0  0  0
  -18.0560  -28.0590   22.8220 C   0  0  0  0  0  0  0  0  0  0  0  0
  -20.6110  -28.3050   23.1280 C   0  0  0  0  0  3  0  0  0  0  0  0
  -20.7150  -26.8770   22.5440 C   0  0  0  0  0  2  0  0  0  0  0  0
  -19.6270  -26.5660   21.5120 C   0  0  0  0  0  2  0  0  0  0  0  0
  -18.2370  -26.7130   22.1400 C   0  0  0  0  0  2  0  0  0  0  0  0
  -19.1720  -28.8140   23.2720 C   0  0  0  0  0  0  0  0  0  0  0  0
  -18.9500  -30.0740   23.8670 C   0  0  0  0  0  3  0  0  0  0  0  0
  -17.6460  -30.5820   24.0150 C   0  0  0  0  0  3  0  0  0  0  0  0
  -16.5450  -29.8230   23.5810 C   0  0  0  0  0  3  0  0  0  0  0  0
  -16.7500  -28.5630   22.9940 C   0  0  0  0  0  3  0  0  0  0  0  0
  -25.8810  -32.4810   23.8770 C   0  0  0  0  0  3  0  0  0  0  0  0
  -25.5690  -33.8810   24.1970 N   0  0  0  0  0  0  0  0  0  0  0  0
  -25.9190  -34.9290   23.4410 C   0  0  0  0  0  0  0  0  0  0  0  0
  -26.6080  -34.8210   22.4230 O   0  0  0  0  0  0  0  0  0  0  0  0
  -24.9590  -34.0400   24.9860 H   0  0  0  0  0  0  0  0  0  0  0  0
  -24.2000  -36.7230   23.0480 C   0  0  0  0  0  1  0  0  0  0  0  0
  -25.4260  -36.3210   23.8840 C   0  0  0  0  0  3  0  0  0  0  0  0
  -27.5460  -37.2050   24.7520 C   0  0  0  0  0  1  0  0  0  0  0  0
  -26.4630  -37.3720   23.7860 N   0  0  0  0  0  0  0  0  0  0  0  0
  -26.0570  -38.2930   23.9210 H   0  0  0  0  0  0  0  0  0  0  0  0
  -26.3750  -31.7140   25.1640 C   0  0  1  0  0  0  0  0  0  0  0  0
  -25.2630  -31.4820   26.2150 C   0  0  0  0  0  1  0  0  0  0  0  0
  -26.9640  -30.3360   24.7840 C   0  0  0  0  0  1  0  0  0  0  0  0
  -27.5150  -32.5090   25.8450 C   0  0  0  0  0  1  0  0  0  0  0  0
  1  3  2  0
  2  5  1  0
  3  6  1  0
  4  2  2  0
  4  1  1  0
  5  3  1  0
  5 47  1  0
  7  6  1  0
  8 17  1  0
  8  7  1  0
  9 17  1  0
 10 15  1  0
 11 12  1  0
 11 10  1  0
 13 12  1  0
 13 22  1  0
 13 14  1  0
 15  9  1  0
 15 14  1  0
 16  9  2  0
 17 18  1  0
 19 20  2  0
 20 39  1  0
 21 20  1  0
 21 24  1  0
 22 19  1  0
 22 23  1  0
 23 21  2  0
 24 25  1  0
 25 26  2  0
 27 30  1  0
 27 26  1  0
 28 27  2  0
 29 28  1  0
 29 24  2  0
 30 31  1  0
 31 32  1  0
 32 33  2  0
 34 33  1  0
 34 38  1  0
 35 34  2  0
 36 31  2  0
 36 35  1  0
 37 36  1  0
 39 40  1  0
 40 43  1  0
 40 42  1  0
 41 39  2  0
 44 45  1  0
 44 19  1  0
 46 44  1  0
 48 47  1  0
 48 49  2  0
 50 52  1  0
 50 49  1  0
 51 62  2  0
 52 57  1  0
 53 61  1  0
 53 63  1  0
 54 60  1  0
 54 56  1  0
 55 61  1  0
 56 57  2  0
 56 55  1  0
 58 52  2  0
 59 58  1  0
 59 54  2  0
 60 53  1  0
 61 51  1  0
 63 65  2  0
 64 63  1  0
 66 64  1  0
 67 76  2  0
 67 72  1  0
 68 64  1  0
 68 72  1  0
 69 68  1  0
 70 71  1  0
 70 69  1  0
 71 67  1  0
 72 73  2  0
 73 74  1  0
 75 74  2  0
 76 75  1  0
 77 51  1  0
 77 78  1  0
 77 87  1  0
 78 81  1  0
 79 83  1  0
 79 78  1  0
 80 79  2  0
 83 82  1  0
 85 83  1  0
 85 86  1  0
 85 84  1  0
 87 90  1  1
 87 88  1  0
 89 87  1  0
M  ISO  4   9 100  17 100  49 101  50 101
M  END
>  <TORSDO>  (38) 
F 22

>  <SCORE>  (38) 
-12.852

>  <name>  (38) 
37

>  <ligand_id>  (38) 
37

>  <original_smiles>  (38) 
[H]c1nc([H])n(C([H])([H])C([H])([H])C([H])([H])Oc2c([H])c([H])c3c(c2[H])C([H])([H])N(C(=O)C([H])(N([H])C(=O)C([H])(N([H])C([H])([H])[H])C([H])([H])[H])C(C([H])([H])[H])(C([H])([H])[H])C([H])([H])[H])C([H])(C(=O)N([H])C2([H])c4c([H])c([H])c([H])c([H])c4C([H])([H])C([H])([H])C2([H])[H])C3([H])[H])c1C([H])([H])C([H])([H])C([H])([H])N([H])C(=O)N1C([H])([H])C([H])([H])C([H])([H])C([H])(n2nc(-c3c([H])c([H])c(Oc4c([H])c([H])c(F)c([H])c4F)c([H])c3[H])c(C(=O)N([H])[H])c2N([H])[H])C1([H])[H]

>  <smiles>  (38) 
[H]c1nc([H])n(C([H])([H])C([H])([H])C([H])([H])Oc2c([H])c([H])c3c(c2[H])C([H])([H])N(C(=O)C([H])(N([H])C(=O)C([H])(N([H])C([H])([H])[H])C([H])([H])[H])C(C([H])([H])[H])(C([H])([H])[H])C([H])([H])[H])C([H])(C(=O)N([H])C2([H])c4c([H])c([H])c([H])c([H])c4C([H])([H])C([H])([H])C2([H])[H])C3([H])[H])c1C([H])([H])C([H])([H])C([H])([H])N([H])C(=O)N1C([H])([H])C([H])([H])C([H])([H])C([H])(n2nc(-c3c([H])c([H])c(Oc4c([H])c([H])c(F)c([H])c4F)c([H])c3[H])c(C(=O)N([H])[H])c2N([H])[H])C1([H])[H]

$$$$
38:0:0
     RDKit          3D

 93101  0  0  1  0  0  0  0  0999 V2000
  -27.5760  -22.2230   19.2800 C   0  0  0  0  0  3  0  0  0  0  0  0
  -27.6370  -20.8140   19.1910 C   0  0  0  0  0  0  0  0  0  0  0  0
  -28.8460  -20.2020   18.7570 C   0  0  0  0  0  0  0  0  0  0  0  0
  -28.7010  -22.9980   18.9540 C   0  0  0  0  0  0  0  0  0  0  0  0
  -29.9320  -21.0730   18.4610 C   0  0  0  0  0  0  0  0  0  0  0  0
  -26.3780  -20.0250   19.4970 C   0  0  0  0  0  1  0  0  0  0  0  0
  -31.2430  -20.5710   17.8780 C   0  0  0  0  0  1  0  0  0  0  0  0
  -29.8650  -22.4220   18.5830 N   0  0  0  0  0  0  0  0  0  0  0  0
  -28.9430  -18.6870   18.4370 C   0  0  0  0  0  2  0  0  0  0  0  0
  -28.6720  -17.6310   19.5420 C   0  0  0  0  0  2  0  0  0  0  0  0
  -29.5690  -17.6530   20.8010 C   0  0  0  0  0  2  0  0  0  0  0  0
  -30.7840  -16.6920   20.7920 C   0  0  0  0  0  2  0  0  0  0  0  0
  -31.0490  -14.2960   20.1060 C   0  0  0  0  0  0  0  0  0  0  0  0
  -30.6720  -12.1530   18.9450 C   0  0  0  0  0  2  0  0  0  0  0  0
  -29.7000  -12.4080   17.7740 C   0  0  0  0  0  2  0  0  0  0  0  0
  -28.2340  -12.3100   18.2440 C   0  0  0  0  0  2  0  0  0  0  0  0
  -27.9670  -13.1440   19.5270 C   0  0  0  0  0  3  0  0  0  0  0  0
  -29.0440  -12.8540   20.5980 C   0  0  0  0  0  2  0  0  0  0  0  0
  -30.3600  -13.1290   19.9980 N   0  0  0  0  0  0  0  0  0  0  0  0
  -32.1400  -14.4910   19.5620 O   0  0  0  0  0  0  0  0  0  0  0  0
  -30.3920  -15.2800   20.7420 N   0  0  0  0  0  0  0  0  0  0  0  0
  -29.5130  -15.0210   21.1650 H   0  0  0  0  0  0  0  0  0  0  0  0
  -25.6020  -13.8430   20.2700 C   0  0  0  0  0  0  0  0  0  0  0  0
  -24.5170  -13.1110   20.6720 C   0  0  0  0  0  0  0  0  0  0  0  0
  -24.9340  -11.7460   20.6500 C   0  0  0  0  0  0  0  0  0  0  0  0
  -26.6150  -12.9240   20.0360 N   0  0  0  0  0  0  0  0  0  0  0  0
  -26.2140  -11.6590   20.3170 N   0  0  0  0  0  0  0  0  0  0  0  0
  -24.1720  -10.5100   20.8760 C   0  0  0  0  0  0  0  0  0  0  0  0
  -24.5570   -9.5760   21.8630 C   0  0  0  0  0  3  0  0  0  0  0  0
  -23.7990   -8.4040   22.0730 C   0  0  0  0  0  3  0  0  0  0  0  0
  -22.6420   -8.1590   21.2970 C   0  0  0  0  0  0  0  0  0  0  0  0
  -22.2760   -9.0810   20.3000 C   0  0  0  0  0  3  0  0  0  0  0  0
  -23.0340  -10.2450   20.0880 C   0  0  0  0  0  3  0  0  0  0  0  0
  -21.8600   -7.0360   21.4110 O   0  0  0  0  0  0  0  0  0  0  0  0
  -21.7200   -6.3750   22.6050 C   0  0  0  0  0  0  0  0  0  0  0  0
  -21.1850   -7.0070   23.7490 C   0  0  0  0  0  3  0  0  0  0  0  0
  -20.9960   -6.2720   24.9350 C   0  0  0  0  0  3  0  0  0  0  0  0
  -21.3330   -4.9060   24.9800 C   0  0  0  0  0  0  0  0  0  0  0  0
  -21.8610   -4.2730   23.8410 C   0  0  0  0  0  3  0  0  0  0  0  0
  -22.0530   -5.0060   22.6560 C   0  0  0  0  0  0  0  0  0  0  0  0
  -22.5420   -4.3880   21.5550 F   0  0  0  0  0  0  0  0  0  0  0  0
  -21.1440   -4.1970   26.1170 F   0  0  0  0  0  0  0  0  0  0  0  0
  -23.1440  -13.6390   20.9690 C   0  0  0  0  0  0  0  0  0  0  0  0
  -22.4170  -12.9810   21.8650 N   0  0  0  0  0  0  0  0  0  0  0  0
  -22.7270  -14.6690   20.4420 O   0  0  0  0  0  0  0  0  0  0  0  0
  -22.7690  -12.1480   22.3110 H   0  0  0  0  0  0  0  0  0  0  0  0
  -21.4960  -13.3180   22.1060 H   0  0  0  0  0  0  0  0  0  0  0  0
  -25.8050  -15.2030   20.0640 N   0  0  0  0  0  0  0  0  0  0  0  0
  -25.0560  -15.8790   20.1620 H   0  0  0  0  0  0  0  0  0  0  0  0
  -26.6650  -15.6100   19.7200 H   0  0  0  0  0  0  0  0  0  0  0  0
  -28.6260  -24.5350   18.9040 C   0  0  0  0  0  2  0  0  0  0  0  0
  -28.4100  -25.2210   20.2800 C   0  0  0  0  0  2  0  0  0  0  0  0
  -28.4410  -26.6660   20.2830 O   0  0  0  0  0  0  0  0  0  0  0  0
  -24.4900  -31.8400   23.2360 C   0  0  0  0  0  0  0  0  0  0  0  0
  -27.2490  -27.3680   20.2720 C   0  0  0  0  0  0  0  0  0  0  0  0
  -23.3430  -30.4250   21.5660 C   0  0  0  0  0  3  0  0  0  0  0  0
  -24.8450  -28.8710   20.2090 C   0  0  0  0  0  0  0  0  0  0  0  0
  -25.8720  -30.7830   21.4460 C   0  0  0  0  0  2  0  0  0  0  0  0
  -25.9830  -29.4040   20.8260 C   0  0  0  0  0  0  0  0  0  0  0  0
  -27.1920  -28.6620   20.8450 C   0  0  0  0  0  3  0  0  0  0  0  0
  -26.0850  -26.8460   19.6690 C   0  0  0  0  0  3  0  0  0  0  0  0
  -24.8920  -27.5910   19.6290 C   0  0  0  0  0  3  0  0  0  0  0  0
  -23.5980  -29.7280   20.2040 C   0  0  0  0  0  2  0  0  0  0  0  0
  -24.5850  -31.0320   22.1420 N   0  0  0  0  0  0  0  0  0  0  0  0
  -23.3910  -32.1180   23.7370 O   0  0  0  0  0  0  0  0  0  0  0  0
  -22.6580  -29.4130   22.5120 C   0  0  0  0  0  0  0  0  0  0  0  0
  -21.3380  -29.2350   22.3410 N   0  0  0  0  0  0  0  0  0  0  0  0
  -23.3100  -28.7890   23.3510 O   0  0  0  0  0  0  0  0  0  0  0  0
  -20.8730  -29.7920   21.6380 H   0  0  0  0  0  0  0  0  0  0  0  0
  -17.9370  -28.0880   22.7600 C   0  0  0  0  0  0  0  0  0  0  0  0
  -20.4920  -28.3010   23.0850 C   0  0  0  0  0  3  0  0  0  0  0  0
  -20.5830  -26.8740   22.4970 C   0  0  0  0  0  2  0  0  0  0  0  0
  -19.4960  -26.5790   21.4590 C   0  0  0  0  0  2  0  0  0  0  0  0
  -18.1050  -26.7400   22.0790 C   0  0  0  0  0  2  0  0  0  0  0  0
  -19.0590  -28.8280   23.2180 C   0  0  0  0  0  0  0  0  0  0  0  0
  -18.8520  -30.0910   23.8130 C   0  0  0  0  0  3  0  0  0  0  0  0
  -17.5520  -30.6130   23.9580 C   0  0  0  0  0  3  0  0  0  0  0  0
  -16.4440  -29.8680   23.5180 C   0  0  0  0  0  3  0  0  0  0  0  0
  -16.6370  -28.6080   22.9240 C   0  0  0  0  0  3  0  0  0  0  0  0
  -25.7510  -32.4750   23.8970 C   0  0  0  0  0  3  0  0  0  0  0  0
  -25.4280  -33.8770   24.2070 N   0  0  0  0  0  0  0  0  0  0  0  0
  -25.7870  -34.9260   23.4550 C   0  0  0  0  0  0  0  0  0  0  0  0
  -26.4980  -34.8190   22.4530 O   0  0  0  0  0  0  0  0  0  0  0  0
  -24.7950  -34.0340   24.9770 H   0  0  0  0  0  0  0  0  0  0  0  0
  -24.0750  -36.7210   23.0230 C   0  0  0  0  0  1  0  0  0  0  0  0
  -25.2800  -36.3150   23.8870 C   0  0  0  0  0  3  0  0  0  0  0  0
  -27.3720  -37.2070   24.8130 C   0  0  0  0  0  1  0  0  0  0  0  0
  -26.3170  -37.3690   23.8170 N   0  0  0  0  0  0  0  0  0  0  0  0
  -25.9030  -38.2880   23.9460 H   0  0  0  0  0  0  0  0  0  0  0  0
  -26.2270  -31.7090   25.1930 C   0  0  1  0  0  0  0  0  0  0  0  0
  -25.0990  -31.4570   26.2210 C   0  0  0  0  0  1  0  0  0  0  0  0
  -26.8320  -30.3340   24.8190 C   0  0  0  0  0  1  0  0  0  0  0  0
  -27.3450  -32.5100   25.8970 C   0  0  0  0  0  1  0  0  0  0  0  0
  2  1  1  0
  2  6  1  0
  3  2  2  0
  4  1  2  0
  5  8  2  0
  5  3  1  0
  7  5  1  0
  8  4  1  0
  9  3  1  0
  9 10  1  0
 10 11  1  0
 12 11  1  0
 13 21  1  0
 14 19  1  0
 15 16  1  0
 15 14  1  0
 17 16  1  0
 17 26  1  0
 17 18  1  0
 19 13  1  0
 19 18  1  0
 20 13  2  0
 21 12  1  0
 21 22  1  0
 23 24  2  0
 24 43  1  0
 25 24  1  0
 25 28  1  0
 26 23  1  0
 26 27  1  0
 27 25  2  0
 28 29  1  0
 29 30  2  0
 31 34  1  0
 31 30  1  0
 32 31  2  0
 33 32  1  0
 33 28  2  0
 34 35  1  0
 35 40  2  0
 35 36  1  0
 36 37  2  0
 37 38  1  0
 38 42  1  0
 39 38  2  0
 40 39  1  0
 41 40  1  0
 43 44  1  0
 44 47  1  0
 44 46  1  0
 45 43  2  0
 48 49  1  0
 48 23  1  0
 50 48  1  0
 51  4  1  0
 51 52  1  0
 52 53  1  0
 54 65  2  0
 55 53  1  0
 55 60  1  0
 56 64  1  0
 56 66  1  0
 57 59  1  0
 58 64  1  0
 59 60  2  0
 59 58  1  0
 61 55  2  0
 62 61  1  0
 62 57  2  0
 63 57  1  0
 63 56  1  0
 64 54  1  0
 66 68  2  0
 67 66  1  0
 69 67  1  0
 70 79  2  0
 70 75  1  0
 71 67  1  0
 71 75  1  0
 72 71  1  0
 73 74  1  0
 73 72  1  0
 74 70  1  0
 75 76  2  0
 76 77  1  0
 78 77  2  0
 79 78  1  0
 80 54  1  0
 80 81  1  0
 80 90  1  0
 81 84  1  0
 82 86  1  0
 82 81  1  0
 83 82  2  0
 86 85  1  0
 88 86  1  0
 88 89  1  0
 88 87  1  0
 90 93  1  1
 90 91  1  0
 92 90  1  0
M  ISO  4  13 100  21 100  52 101  53 101
M  END
>  <TORSDO>  (39) 
F 22

>  <SCORE>  (39) 
-12.365

>  <name>  (39) 
38

>  <ligand_id>  (39) 
38

>  <original_smiles>  (39) 
[H]c1c([H])c([H])c2c(c1[H])C([H])([H])C([H])([H])C([H])([H])C2([H])N([H])C(=O)C1([H])N(C(=O)C([H])(N([H])C(=O)C([H])(N([H])C([H])([H])[H])C([H])([H])[H])C(C([H])([H])[H])(C([H])([H])[H])C([H])([H])[H])C([H])([H])c2c([H])c(OC([H])([H])C([H])([H])c3nc(C([H])([H])[H])c(C([H])([H])C([H])([H])C([H])([H])C([H])([H])N([H])C(=O)N4C([H])([H])C([H])([H])C([H])([H])C([H])(n5nc(-c6c([H])c([H])c(Oc7c([H])c([H])c(F)c([H])c7F)c([H])c6[H])c(C(=O)N([H])[H])c5N([H])[H])C4([H])[H])c(C([H])([H])[H])c3[H])c([H])c([H])c2C1([H])[H]

>  <smiles>  (39) 
[H]c1c([H])c([H])c2c(c1[H])C([H])([H])C([H])([H])C([H])([H])C2([H])N([H])C(=O)C1([H])N(C(=O)C([H])(N([H])C(=O)C([H])(N([H])C([H])([H])[H])C([H])([H])[H])C(C([H])([H])[H])(C([H])([H])[H])C([H])([H])[H])C([H])([H])c2c([H])c(OC([H])([H])C([H])([H])c3nc(C([H])([H])[H])c(C([H])([H])C([H])([H])C([H])([H])C([H])([H])N([H])C(=O)N4C([H])([H])C([H])([H])C([H])([H])C([H])(n5nc(-c6c([H])c([H])c(Oc7c([H])c([H])c(F)c([H])c7F)c([H])c6[H])c(C(=O)N([H])[H])c5N([H])[H])C4([H])[H])c(C([H])([H])[H])c3[H])c([H])c([H])c2C1([H])[H]

$$$$
39:0:0
     RDKit          3D

 91 99  0  0  1  0  0  0  0  0999 V2000
  -27.3160  -20.5560   20.6340 C   0  0  0  0  0  3  0  0  0  0  0  0
  -28.6820  -20.3590   20.9730 C   0  0  0  0  0  0  0  0  0  0  0  0
  -27.1760  -21.9100   20.5110 C   0  0  0  0  0  0  0  0  0  0  0  0
  -25.9320  -22.7070   20.2770 C   0  0  0  0  0  1  0  0  0  0  0  0
  -29.3540  -21.5040   20.9560 N   0  0  0  0  0  0  0  0  0  0  0  0
  -28.4330  -22.4660   20.7030 N   0  0  0  0  0  0  0  0  0  0  0  0
  -29.3490  -19.0730   21.4210 C   0  0  0  0  0  2  0  0  0  0  0  0
  -29.7680  -18.0870   20.2760 C   0  0  0  0  0  2  0  0  0  0  0  0
  -31.0740  -17.2290   20.1160 C   0  0  0  0  0  2  0  0  0  0  0  0
  -31.5050  -14.7560   19.7080 C   0  0  0  0  0  0  0  0  0  0  0  0
  -31.2290  -12.4200   18.9530 C   0  0  0  0  0  2  0  0  0  0  0  0
  -30.2410  -12.3900   17.7690 C   0  0  0  0  0  2  0  0  0  0  0  0
  -28.7810  -12.3270   18.2660 C   0  0  0  0  0  2  0  0  0  0  0  0
  -28.4780  -13.3800   19.3640 C   0  0  0  0  0  3  0  0  0  0  0  0
  -29.5650  -13.3440   20.4620 C   0  0  0  0  0  2  0  0  0  0  0  0
  -30.8720  -13.5610   19.8090 N   0  0  0  0  0  0  0  0  0  0  0  0
  -32.5750  -14.9160   19.1110 O   0  0  0  0  0  0  0  0  0  0  0  0
  -30.8080  -15.7840   20.2190 N   0  0  0  0  0  0  0  0  0  0  0  0
  -29.9550  -15.5150   20.6890 H   0  0  0  0  0  0  0  0  0  0  0  0
  -26.1820  -14.1560   20.2350 C   0  0  0  0  0  0  0  0  0  0  0  0
  -25.0840  -13.4580   20.6620 C   0  0  0  0  0  0  0  0  0  0  0  0
  -25.4370  -12.0780   20.5760 C   0  0  0  0  0  0  0  0  0  0  0  0
  -27.1410  -13.2050   19.9240 N   0  0  0  0  0  0  0  0  0  0  0  0
  -26.6970  -11.9480   20.1820 N   0  0  0  0  0  0  0  0  0  0  0  0
  -24.6310  -10.8700   20.7910 C   0  0  0  0  0  0  0  0  0  0  0  0
  -24.9820   -9.9130   21.7690 C   0  0  0  0  0  3  0  0  0  0  0  0
  -24.1820   -8.7680   21.9690 C   0  0  0  0  0  3  0  0  0  0  0  0
  -23.0170   -8.5730   21.1880 C   0  0  0  0  0  0  0  0  0  0  0  0
  -22.6850   -9.5180   20.2010 C   0  0  0  0  0  3  0  0  0  0  0  0
  -23.4860  -10.6550   20.0000 C   0  0  0  0  0  3  0  0  0  0  0  0
  -22.1950   -7.4780   21.2930 O   0  0  0  0  0  0  0  0  0  0  0  0
  -21.9750   -6.8550   22.4950 C   0  0  0  0  0  0  0  0  0  0  0  0
  -21.4310   -7.5440   23.6010 C   0  0  0  0  0  3  0  0  0  0  0  0
  -21.1550   -6.8500   24.7960 C   0  0  0  0  0  3  0  0  0  0  0  0
  -21.4140   -5.4690   24.8850 C   0  0  0  0  0  0  0  0  0  0  0  0
  -21.9490   -4.7810   23.7820 C   0  0  0  0  0  3  0  0  0  0  0  0
  -22.2260   -5.4700   22.5890 C   0  0  0  0  0  0  0  0  0  0  0  0
  -22.7210   -4.7970   21.5230 F   0  0  0  0  0  0  0  0  0  0  0  0
  -21.1430   -4.8010   26.0310 F   0  0  0  0  0  0  0  0  0  0  0  0
  -23.7510  -14.0350   21.0410 C   0  0  0  0  0  0  0  0  0  0  0  0
  -23.0370  -13.3810   21.9500 N   0  0  0  0  0  0  0  0  0  0  0  0
  -23.3550  -15.1000   20.5670 O   0  0  0  0  0  0  0  0  0  0  0  0
  -23.3710  -12.5170   22.3510 H   0  0  0  0  0  0  0  0  0  0  0  0
  -22.1470  -13.7530   22.2510 H   0  0  0  0  0  0  0  0  0  0  0  0
  -26.4350  -15.5150   20.0700 N   0  0  0  0  0  0  0  0  0  0  0  0
  -25.7220  -16.2160   20.2400 H   0  0  0  0  0  0  0  0  0  0  0  0
  -27.2800  -15.9020   19.6690 H   0  0  0  0  0  0  0  0  0  0  0  0
  -28.8350  -23.8680   20.8130 C   0  0  0  0  0  2  0  0  0  0  0  0
  -28.4820  -24.7430   19.5930 C   0  0  0  0  0  2  0  0  0  0  0  0
  -28.8120  -26.2290   19.8260 C   0  0  0  0  0  2  0  0  0  0  0  0
  -28.3540  -27.0260   18.7340 O   0  0  0  0  0  0  0  0  0  0  0  0
  -24.6650  -31.4800   22.8760 C   0  0  0  0  0  0  0  0  0  0  0  0
  -27.1680  -27.6700   18.9730 C   0  0  0  0  0  0  0  0  0  0  0  0
  -23.3530  -30.2460   21.1780 C   0  0  0  0  0  3  0  0  0  0  0  0
  -24.7180  -28.9920   19.4270 C   0  0  0  0  0  0  0  0  0  0  0  0
  -25.8270  -30.7730   20.7930 C   0  0  0  0  0  2  0  0  0  0  0  0
  -25.9030  -29.5070   19.9690 C   0  0  0  0  0  0  0  0  0  0  0  0
  -27.1330  -28.8520   19.7400 C   0  0  0  0  0  3  0  0  0  0  0  0
  -25.9710  -27.1590   18.4300 C   0  0  0  0  0  3  0  0  0  0  0  0
  -24.7450  -27.8150   18.6560 C   0  0  0  0  0  3  0  0  0  0  0  0
  -23.4490  -29.7640   19.7060 C   0  0  0  0  0  2  0  0  0  0  0  0
  -24.6380  -30.8410   21.6740 N   0  0  0  0  0  0  0  0  0  0  0  0
  -23.6350  -31.6190   23.5500 O   0  0  0  0  0  0  0  0  0  0  0  0
  -22.8450  -29.0750   22.0480 C   0  0  0  0  0  0  0  0  0  0  0  0
  -21.5270  -28.8190   21.9980 N   0  0  0  0  0  0  0  0  0  0  0  0
  -23.6290  -28.4010   22.7210 O   0  0  0  0  0  0  0  0  0  0  0  0
  -20.9490  -29.4210   21.4260 H   0  0  0  0  0  0  0  0  0  0  0  0
  -18.2920  -27.3100   22.5320 C   0  0  0  0  0  0  0  0  0  0  0  0
  -20.8340  -27.7460   22.7070 C   0  0  0  0  0  3  0  0  0  0  0  0
  -21.0110  -26.3930   21.9840 C   0  0  0  0  0  2  0  0  0  0  0  0
  -19.8860  -26.0850   20.9880 C   0  0  0  0  0  2  0  0  0  0  0  0
  -18.5340  -26.0560   21.7090 C   0  0  0  0  0  2  0  0  0  0  0  0
  -19.3720  -28.1140   22.9850 C   0  0  0  0  0  0  0  0  0  0  0  0
  -19.0920  -29.2890   23.7140 C   0  0  0  0  0  3  0  0  0  0  0  0
  -17.7660  -29.6620   23.9990 C   0  0  0  0  0  3  0  0  0  0  0  0
  -16.7010  -28.8530   23.5660 C   0  0  0  0  0  3  0  0  0  0  0  0
  -16.9660  -27.6780   22.8380 C   0  0  0  0  0  3  0  0  0  0  0  0
  -25.9810  -32.0890   23.4510 C   0  0  0  0  0  3  0  0  0  0  0  0
  -25.6560  -33.4200   23.9810 N   0  0  0  0  0  0  0  0  0  0  0  0
  -25.9240  -34.5750   23.3550 C   0  0  0  0  0  0  0  0  0  0  0  0
  -26.5390  -34.6290   22.2880 O   0  0  0  0  0  0  0  0  0  0  0  0
  -25.0950  -33.4500   24.8190 H   0  0  0  0  0  0  0  0  0  0  0  0
  -24.1440  -36.3550   23.3140 C   0  0  0  0  0  1  0  0  0  0  0  0
  -25.4260  -35.8760   24.0160 C   0  0  0  0  0  3  0  0  0  0  0  0
  -27.5750  -36.6920   24.8790 C   0  0  0  0  0  1  0  0  0  0  0  0
  -26.4320  -36.9600   24.0090 N   0  0  0  0  0  0  0  0  0  0  0  0
  -26.0140  -37.8410   24.2960 H   0  0  0  0  0  0  0  0  0  0  0  0
  -26.6490  -31.1900   24.5630 C   0  0  1  0  0  0  0  0  0  0  0  0
  -25.6800  -30.7810   25.6940 C   0  0  0  0  0  1  0  0  0  0  0  0
  -27.2280  -29.8950   23.9430 C   0  0  0  0  0  1  0  0  0  0  0  0
  -27.8390  -31.9440   25.2020 C   0  0  0  0  0  1  0  0  0  0  0  0
  1  2  1  0
  2  7  1  0
  3  1  2  0
  3  6  1  0
  4  3  1  0
  5  2  2  0
  6 48  1  0
  6  5  1  0
  8  7  1  0
  9 18  1  0
  9  8  1  0
 10 16  1  0
 10 18  1  0
 11 16  1  0
 12 13  1  0
 12 11  1  0
 14 13  1  0
 14 23  1  0
 14 15  1  0
 16 15  1  0
 17 10  2  0
 18 19  1  0
 20 21  2  0
 21 40  1  0
 22 21  1  0
 22 25  1  0
 23 24  1  0
 23 20  1  0
 24 22  2  0
 25 26  1  0
 26 27  2  0
 28 31  1  0
 28 27  1  0
 29 28  2  0
 30 29  1  0
 30 25  2  0
 31 32  1  0
 32 37  2  0
 32 33  1  0
 33 34  2  0
 34 35  1  0
 35 39  1  0
 36 35  2  0
 37 36  1  0
 38 37  1  0
 40 41  1  0
 41 44  1  0
 41 43  1  0
 42 40  2  0
 45 20  1  0
 45 46  1  0
 47 45  1  0
 49 50  1  0
 49 48  1  0
 51 53  1  0
 51 50  1  0
 52 63  2  0
 53 58  1  0
 54 62  1  0
 54 64  1  0
 55 61  1  0
 55 57  1  0
 56 62  1  0
 57 56  1  0
 58 57  2  0
 59 60  1  0
 59 53  2  0
 60 55  2  0
 61 54  1  0
 62 52  1  0
 64 66  2  0
 65 64  1  0
 67 65  1  0
 68 77  2  0
 68 73  1  0
 69 65  1  0
 69 73  1  0
 70 69  1  0
 71 72  1  0
 71 70  1  0
 72 68  1  0
 73 74  2  0
 74 75  1  0
 76 75  2  0
 77 76  1  0
 78 52  1  0
 78 79  1  0
 78 88  1  0
 79 82  1  0
 80 79  1  0
 80 84  1  0
 81 80  2  0
 84 83  1  0
 86 84  1  0
 86 87  1  0
 86 85  1  0
 88 91  1  1
 88 89  1  0
 90 88  1  0
M  ISO  4  10 100  18 100  50 101  51 101
M  END
>  <TORSDO>  (40) 
F 22

>  <SCORE>  (40) 
-8.985

>  <name>  (40) 
39

>  <ligand_id>  (40) 
39

>  <original_smiles>  (40) 
[H]c1c([H])c([H])c2c(c1[H])C([H])([H])C([H])([H])C([H])([H])C2([H])N([H])C(=O)C1([H])N(C(=O)C([H])(N([H])C(=O)C([H])(N([H])C([H])([H])[H])C([H])([H])[H])C(C([H])([H])[H])(C([H])([H])[H])C([H])([H])[H])C([H])([H])c2c([H])c(OC([H])([H])C([H])([H])C([H])([H])n3nc(C([H])([H])C([H])([H])C([H])([H])N([H])C(=O)N4C([H])([H])C([H])([H])C([H])([H])C([H])(n5nc(-c6c([H])c([H])c(Oc7c([H])c([H])c(F)c([H])c7F)c([H])c6[H])c(C(=O)N([H])[H])c5N([H])[H])C4([H])[H])c([H])c3C([H])([H])[H])c([H])c([H])c2C1([H])[H]

>  <smiles>  (40) 
[H]c1c([H])c([H])c2c(c1[H])C([H])([H])C([H])([H])C([H])([H])C2([H])N([H])C(=O)C1([H])N(C(=O)C([H])(N([H])C(=O)C([H])(N([H])C([H])([H])[H])C([H])([H])[H])C(C([H])([H])[H])(C([H])([H])[H])C([H])([H])[H])C([H])([H])c2c([H])c(OC([H])([H])C([H])([H])C([H])([H])n3nc(C([H])([H])C([H])([H])C([H])([H])N([H])C(=O)N4C([H])([H])C([H])([H])C([H])([H])C([H])(n5nc(-c6c([H])c([H])c(Oc7c([H])c([H])c(F)c([H])c7F)c([H])c6[H])c(C(=O)N([H])[H])c5N([H])[H])C4([H])[H])c([H])c3C([H])([H])[H])c([H])c([H])c2C1([H])[H]

$$$$
40:0:0
     RDKit          3D

100109  0  0  1  0  0  0  0  0999 V2000
  -27.8100  -28.0810   23.0530 C   0  0  0  0  0  2  0  0  0  0  0  0
  -27.7140  -26.7540   22.5900 C   0  0  0  0  0  0  0  0  0  0  0  0
  -26.3650  -27.6070   24.7830 C   0  0  0  0  0  0  0  0  0  0  0  0
  -26.3770  -26.2320   24.4100 C   0  0  0  0  0  0  0  0  0  0  0  0
  -27.1260  -28.5160   24.1350 N   0  0  0  0  0  0  0  0  0  0  0  0
  -27.0430  -25.8090   23.2990 N   0  0  0  0  0  0  0  0  0  0  0  0
  -28.2810  -26.3890   21.2110 C   0  0  0  0  0  2  0  0  0  0  0  0
  -27.2970  -26.2780   20.1650 O   0  0  0  0  0  0  0  0  0  0  0  0
  -24.7070  -32.1830   23.1660 C   0  0  0  0  0  0  0  0  0  0  0  0
  -26.3030  -27.2280   20.1820 C   0  0  0  0  0  0  0  0  0  0  0  0
  -23.1110  -30.8530   21.8160 C   0  0  0  0  0  3  0  0  0  0  0  0
  -24.1430  -29.0300   20.3600 C   0  0  0  0  0  0  0  0  0  0  0  0
  -25.6060  -30.8490   21.2640 C   0  0  0  0  0  2  0  0  0  0  0  0
  -25.4280  -29.4410   20.7360 C   0  0  0  0  0  0  0  0  0  0  0  0
  -26.5150  -28.5490   20.6340 C   0  0  0  0  0  3  0  0  0  0  0  0
  -25.0110  -26.8310   19.7870 C   0  0  0  0  0  3  0  0  0  0  0  0
  -23.9260  -27.7240   19.8840 C   0  0  0  0  0  3  0  0  0  0  0  0
  -23.0350  -30.0490   20.4910 C   0  0  0  0  0  2  0  0  0  0  0  0
  -24.5030  -31.3090   22.1380 N   0  0  0  0  0  0  0  0  0  0  0  0
  -23.7560  -32.6450   23.8120 O   0  0  0  0  0  0  0  0  0  0  0  0
  -22.4690  -30.0100   22.9400 C   0  0  0  0  0  0  0  0  0  0  0  0
  -21.1680  -29.7080   22.7990 N   0  0  0  0  0  0  0  0  0  0  0  0
  -23.1400  -29.6220   23.8960 O   0  0  0  0  0  0  0  0  0  0  0  0
  -20.6860  -30.0700   21.9870 H   0  0  0  0  0  0  0  0  0  0  0  0
  -17.9530  -28.1220   23.2240 C   0  0  0  0  0  0  0  0  0  0  0  0
  -20.3700  -28.8960   23.7160 C   0  0  0  0  0  3  0  0  0  0  0  0
  -20.7590  -27.4040   23.6160 C   0  0  0  0  0  2  0  0  0  0  0  0
  -19.8990  -26.6200   22.6190 C   0  0  0  0  0  2  0  0  0  0  0  0
  -18.4210  -26.6920   23.0160 C   0  0  0  0  0  2  0  0  0  0  0  0
  -18.8720  -29.1590   23.5380 C   0  0  0  0  0  0  0  0  0  0  0  0
  -18.3910  -30.4770   23.6910 C   0  0  0  0  0  3  0  0  0  0  0  0
  -17.0220  -30.7670   23.5360 C   0  0  0  0  0  3  0  0  0  0  0  0
  -16.1140  -29.7340   23.2430 C   0  0  0  0  0  3  0  0  0  0  0  0
  -16.5800  -28.4160   23.0930 C   0  0  0  0  0  3  0  0  0  0  0  0
  -26.1390  -32.6660   23.5630 C   0  0  0  0  0  3  0  0  0  0  0  0
  -26.0410  -34.0750   23.9650 N   0  0  0  0  0  0  0  0  0  0  0  0
  -26.4260  -35.1090   23.2050 C   0  0  0  0  0  0  0  0  0  0  0  0
  -26.9810  -34.9670   22.1110 O   0  0  0  0  0  0  0  0  0  0  0  0
  -25.5610  -34.2670   24.8320 H   0  0  0  0  0  0  0  0  0  0  0  0
  -24.9260  -37.1180   23.0350 C   0  0  0  0  0  1  0  0  0  0  0  0
  -26.1520  -36.5240   23.7450 C   0  0  0  0  0  3  0  0  0  0  0  0
  -28.4310  -37.0910   24.4610 C   0  0  0  0  0  1  0  0  0  0  0  0
  -27.3040  -37.4400   23.6020 N   0  0  0  0  0  0  0  0  0  0  0  0
  -27.0320  -38.3970   23.8140 H   0  0  0  0  0  0  0  0  0  0  0  0
  -26.7900  -31.8080   24.7150 C   0  0  1  0  0  0  0  0  0  0  0  0
  -25.8590  -31.5780   25.9260 C   0  0  0  0  0  1  0  0  0  0  0  0
  -27.2080  -30.4280   24.1770 C   0  0  0  0  0  2  0  0  0  0  0  0
  -28.0840  -32.4840   25.2260 C   0  0  0  0  0  1  0  0  0  0  0  0
  -25.6740  -25.1390   25.2120 C   0  0  0  0  0  2  0  0  0  0  0  0
  -26.3300  -24.8490   26.5850 C   0  0  0  0  0  2  0  0  0  0  0  0
  -27.4790  -23.8390   26.5540 C   0  0  0  0  0  2  0  0  0  0  0  0
  -28.5720  -24.2740   25.5720 C   0  0  0  0  0  2  0  0  0  0  0  0
  -29.7180  -23.2690   25.4840 C   0  0  0  0  0  2  0  0  0  0  0  0
  -30.1340  -23.0440   24.0290 C   0  0  0  0  0  2  0  0  0  0  0  0
  -30.6730  -21.6320   23.7890 C   0  0  0  0  0  2  0  0  0  0  0  0
  -30.4020  -21.1650   22.3550 C   0  0  0  0  0  2  0  0  0  0  0  0
  -30.5060  -19.6450   22.2100 C   0  0  0  0  0  2  0  0  0  0  0  0
  -30.4770  -19.2290   20.7320 C   0  0  0  0  0  2  0  0  0  0  0  0
  -31.2350  -17.9300   20.4480 C   0  0  0  0  0  2  0  0  0  0  0  0
  -30.3330  -15.9900   19.1630 C   0  0  0  0  0  0  0  0  0  0  0  0
  -30.5820  -13.5600   18.9940 C   0  0  0  0  0  2  0  0  0  0  0  0
  -29.6930  -12.8510   17.9660 C   0  0  0  0  0  2  0  0  0  0  0  0
  -28.3420  -12.4920   18.5990 C   0  0  0  0  0  2  0  0  0  0  0  0
  -27.6660  -13.7170   19.2660 C   0  0  0  0  0  3  0  0  0  0  0  0
  -28.6420  -14.4620   20.2070 C   0  0  0  0  0  2  0  0  0  0  0  0
  -29.8920  -14.7560   19.4840 N   0  0  0  0  0  0  0  0  0  0  0  0
  -30.9910  -16.2550   18.1510 O   0  0  0  0  0  0  0  0  0  0  0  0
  -30.3340  -16.7980   20.2280 N   0  0  0  0  0  0  0  0  0  0  0  0
  -29.8470  -16.4440   21.0380 H   0  0  0  0  0  0  0  0  0  0  0  0
  -25.4160  -14.1190   20.4580 C   0  0  0  0  0  0  0  0  0  0  0  0
  -24.4620  -13.2550   20.9290 C   0  0  0  0  0  0  0  0  0  0  0  0
  -24.9600  -11.9410   20.6710 C   0  0  0  0  0  0  0  0  0  0  0  0
  -26.4340  -13.3240   19.9540 N   0  0  0  0  0  0  0  0  0  0  0  0
  -26.1710  -12.0030   20.1340 N   0  0  0  0  0  0  0  0  0  0  0  0
  -24.3270  -10.6260   20.8540 C   0  0  0  0  0  0  0  0  0  0  0  0
  -24.7940   -9.7100   21.8220 C   0  0  0  0  0  3  0  0  0  0  0  0
  -24.1590   -8.4610   21.9910 C   0  0  0  0  0  3  0  0  0  0  0  0
  -23.0430   -8.1180   21.1910 C   0  0  0  0  0  0  0  0  0  0  0  0
  -22.5960   -9.0250   20.2140 C   0  0  0  0  0  3  0  0  0  0  0  0
  -23.2330  -10.2650   20.0430 C   0  0  0  0  0  3  0  0  0  0  0  0
  -22.3790   -6.9180   21.2680 O   0  0  0  0  0  0  0  0  0  0  0  0
  -22.1270   -6.3100   22.4730 C   0  0  0  0  0  0  0  0  0  0  0  0
  -21.3680   -6.9430   23.4810 C   0  0  0  0  0  3  0  0  0  0  0  0
  -21.0730   -6.2560   24.6750 C   0  0  0  0  0  3  0  0  0  0  0  0
  -21.5270   -4.9360   24.8610 C   0  0  0  0  0  0  0  0  0  0  0  0
  -22.2770   -4.3020   23.8550 C   0  0  0  0  0  3  0  0  0  0  0  0
  -22.5740   -4.9870   22.6630 C   0  0  0  0  0  0  0  0  0  0  0  0
  -23.2790   -4.3640   21.6880 F   0  0  0  0  0  0  0  0  0  0  0  0
  -21.2360   -4.2720   26.0040 F   0  0  0  0  0  0  0  0  0  0  0  0
  -23.1230  -13.6230   21.4990 C   0  0  0  0  0  0  0  0  0  0  0  0
  -22.6280  -12.8440   22.4560 N   0  0  0  0  0  0  0  0  0  0  0  0
  -22.5280  -14.6350   21.1320 O   0  0  0  0  0  0  0  0  0  0  0  0
  -23.1250  -12.0250   22.7710 H   0  0  0  0  0  0  0  0  0  0  0  0
  -21.7410  -13.0740   22.8800 H   0  0  0  0  0  0  0  0  0  0  0  0
  -25.4930  -15.5060   20.3990 N   0  0  0  0  0  0  0  0  0  0  0  0
  -24.7370  -16.1070   20.7110 H   0  0  0  0  0  0  0  0  0  0  0  0
  -26.2650  -16.0210   19.9940 H   0  0  0  0  0  0  0  0  0  0  0  0
  -25.4380  -28.1910   25.8440 C   0  0  0  0  0  2  0  0  0  0  0  0
  -25.1640  -29.8600   27.7550 C   0  0  0  0  0  1  0  0  0  0  0  0
  -26.1510  -29.0540   26.9000 C   0  0  0  0  0  2  0  0  0  0  0  0
  1  5  1  0
  2  1  1  0
  2  6  2  0
  3 98  1  0
  4  3  2  0
  4 49  1  0
  5 47  1  0
  5  3  1  0
  6  4  1  0
  7  2  1  0
  8 10  1  0
  8  7  1  0
  9 35  1  0
  9 20  2  0
 10 15  1  0
 11 19  1  0
 11 21  1  0
 12 18  1  0
 12 14  1  0
 13 19  1  0
 14 13  1  0
 15 14  2  0
 16 17  1  0
 16 10  2  0
 17 12  2  0
 18 11  1  0
 19  9  1  0
 21 23  2  0
 22 21  1  0
 24 22  1  0
 25 30  1  0
 26 22  1  0
 27 26  1  0
 28 29  1  0
 28 27  1  0
 29 25  1  0
 30 31  2  0
 30 26  1  0
 32 31  1  0
 33 32  2  0
 34 25  2  0
 34 33  1  0
 35 36  1  0
 35 45  1  0
 36 39  1  0
 37 41  1  0
 37 36  1  0
 38 37  2  0
 41 40  1  0
 43 41  1  0
 43 44  1  0
 43 42  1  0
 45 48  1  1
 45 46  1  0
 47 45  1  0
 49 50  1  0
 51 50  1  0
 52 51  1  0
 53 52  1  0
 54 53  1  0
 55 54  1  0
 56 55  1  0
 57 56  1  0
 58 57  1  0
 59 58  1  0
 60 66  1  0
 60 68  1  0
 61 66  1  0
 62 63  1  0
 62 61  1  0
 64 63  1  0
 64 73  1  0
 64 65  1  0
 66 65  1  0
 67 60  2  0
 68 59  1  0
 68 69  1  0
 70 71  2  0
 71 90  1  0
 72 75  1  0
 72 71  1  0
 73 74  1  0
 73 70  1  0
 74 72  2  0
 75 76  1  0
 76 77  2  0
 78 81  1  0
 78 77  1  0
 79 78  2  0
 80 79  1  0
 80 75  2  0
 81 82  1  0
 82 87  2  0
 82 83  1  0
 83 84  2  0
 84 85  1  0
 85 89  1  0
 86 85  2  0
 87 86  1  0
 88 87  1  0
 90 91  1  0
 91 93  1  0
 91 94  1  0
 92 90  2  0
 95 70  1  0
 95 96  1  0
 97 95  1  0
 98100  1  0
100 99  1  0
M  ISO  4   7 101   8 101  60 100  68 100
M  END
>  <TORSDO>  (41) 
F 30

>  <SCORE>  (41) 
-1.184

>  <name>  (41) 
40

>  <ligand_id>  (41) 
40

>  <original_smiles>  (41) 
[H]c1nc(C([H])([H])C([H])([H])C([H])([H])[H])c(C([H])([H])C([H])([H])C([H])([H])C([H])([H])C([H])([H])C([H])([H])C([H])([H])C([H])([H])C([H])([H])C([H])([H])C([H])([H])N([H])C(=O)N2C([H])([H])C([H])([H])C([H])([H])C([H])(n3nc(-c4c([H])c([H])c(Oc5c([H])c([H])c(F)c([H])c5F)c([H])c4[H])c(C(=O)N([H])[H])c3N([H])[H])C2([H])[H])nc1C([H])([H])Oc1c([H])c([H])c2c(c1[H])C([H])([H])N(C(=O)C([H])(N([H])C(=O)C([H])(N([H])C([H])([H])[H])C([H])([H])[H])C(C([H])([H])[H])(C([H])([H])[H])C([H])([H])[H])C([H])(C(=O)N([H])C1([H])c3c([H])c([H])c([H])c([H])c3C([H])([H])C([H])([H])C1([H])[H])C2([H])[H]

>  <smiles>  (41) 
[H]c1nc(C([H])([H])C([H])([H])C([H])([H])[H])c(C([H])([H])C([H])([H])C([H])([H])C([H])([H])C([H])([H])C([H])([H])C([H])([H])C([H])([H])C([H])([H])C([H])([H])C([H])([H])N([H])C(=O)N2C([H])([H])C([H])([H])C([H])([H])C([H])(n3nc(-c4c([H])c([H])c(Oc5c([H])c([H])c(F)c([H])c5F)c([H])c4[H])c(C(=O)N([H])[H])c3N([H])[H])C2([H])[H])nc1C([H])([H])Oc1c([H])c([H])c2c(c1[H])C([H])([H])N(C(=O)C([H])(N([H])C(=O)C([H])(N([H])C([H])([H])[H])C([H])([H])[H])C(C([H])([H])[H])(C([H])([H])[H])C([H])([H])[H])C([H])(C(=O)N([H])C1([H])c3c([H])c([H])c([H])c([H])c3C([H])([H])C([H])([H])C1([H])[H])C2([H])[H]

$$$$
41:0:0
     RDKit          3D

 93101  0  0  1  0  0  0  0  0999 V2000
  -28.7220  -22.7360   18.9290 C   0  0  0  0  0  3  0  0  0  0  0  0
  -28.9350  -21.3690   19.2560 C   0  0  0  0  0  0  0  0  0  0  0  0
  -29.3650  -21.0380   20.5780 C   0  0  0  0  0  0  0  0  0  0  0  0
  -28.8200  -23.7660   19.8880 C   0  0  0  0  0  0  0  0  0  0  0  0
  -29.5400  -22.1660   21.4510 C   0  0  0  0  0  0  0  0  0  0  0  0
  -29.9920  -21.9980   22.8910 C   0  0  0  0  0  1  0  0  0  0  0  0
  -29.2550  -23.4660   21.1310 N   0  0  0  0  0  0  0  0  0  0  0  0
  -29.8210  -19.9960   17.3200 C   0  0  0  0  0  1  0  0  0  0  0  0
  -27.3930  -20.6680   17.3080 C   0  0  0  0  0  1  0  0  0  0  0  0
  -28.5990  -20.3110   18.1990 C   0  0  0  0  0  3  0  0  0  0  0  0
  -29.4780  -19.5640   21.1630 C   0  0  0  0  0  3  0  0  0  0  0  0
  -30.0460  -18.2960   20.3860 C   0  0  0  0  0  3  0  0  0  0  0  0
  -30.4100  -17.0480   21.2940 C   0  0  0  0  0  2  0  0  0  0  0  0
  -30.7390  -14.6100   20.4750 C   0  0  0  0  0  0  0  0  0  0  0  0
  -30.4850  -12.4030   19.3640 C   0  0  0  0  0  2  0  0  0  0  0  0
  -29.5560  -12.5530   18.1410 C   0  0  0  0  0  2  0  0  0  0  0  0
  -28.0780  -12.4110   18.5550 C   0  0  0  0  0  2  0  0  0  0  0  0
  -27.7170  -13.2760   19.7920 C   0  0  0  0  0  3  0  0  0  0  0  0
  -28.7590  -13.1020   20.9190 C   0  0  0  0  0  2  0  0  0  0  0  0
  -30.0790  -13.4190   20.3500 N   0  0  0  0  0  0  0  0  0  0  0  0
  -31.9120  -14.7480   20.1190 O   0  0  0  0  0  0  0  0  0  0  0  0
  -29.9860  -15.6770   20.8640 N   0  0  0  0  0  0  0  0  0  0  0  0
  -29.0170  -15.4540   21.0340 H   0  0  0  0  0  0  0  0  0  0  0  0
  -25.3150  -13.9000   20.4560 C   0  0  0  0  0  0  0  0  0  0  0  0
  -24.2370  -13.1390   20.8170 C   0  0  0  0  0  0  0  0  0  0  0  0
  -24.6920  -11.7850   20.8170 C   0  0  0  0  0  0  0  0  0  0  0  0
  -26.3590  -13.0110   20.2590 N   0  0  0  0  0  0  0  0  0  0  0  0
  -25.9880  -11.7350   20.5350 N   0  0  0  0  0  0  0  0  0  0  0  0
  -23.9560  -10.5290   21.0160 C   0  0  0  0  0  0  0  0  0  0  0  0
  -24.3770   -9.5670   21.9610 C   0  0  0  0  0  3  0  0  0  0  0  0
  -23.6420   -8.3760   22.1450 C   0  0  0  0  0  3  0  0  0  0  0  0
  -22.4730   -8.1380   21.3850 C   0  0  0  0  0  0  0  0  0  0  0  0
  -22.0710   -9.0880   20.4290 C   0  0  0  0  0  3  0  0  0  0  0  0
  -22.8070  -10.2710   20.2430 C   0  0  0  0  0  3  0  0  0  0  0  0
  -21.7120   -6.9990   21.4780 O   0  0  0  0  0  0  0  0  0  0  0  0
  -21.6610   -6.2610   22.6330 C   0  0  0  0  0  0  0  0  0  0  0  0
  -21.2540   -6.8250   23.8610 C   0  0  0  0  0  3  0  0  0  0  0  0
  -21.1490   -6.0120   25.0080 C   0  0  0  0  0  3  0  0  0  0  0  0
  -21.4400   -4.6370   24.9270 C   0  0  0  0  0  0  0  0  0  0  0  0
  -21.8390   -4.0730   23.7040 C   0  0  0  0  0  3  0  0  0  0  0  0
  -21.9460   -4.8820   22.5580 C   0  0  0  0  0  0  0  0  0  0  0  0
  -22.3110   -4.3290   21.3770 F   0  0  0  0  0  0  0  0  0  0  0  0
  -21.3320   -3.8560   26.0270 F   0  0  0  0  0  0  0  0  0  0  0  0
  -22.8370  -13.6260   21.0550 C   0  0  0  0  0  0  0  0  0  0  0  0
  -22.0910  -12.9480   21.9200 N   0  0  0  0  0  0  0  0  0  0  0  0
  -22.4140  -14.6450   20.5110 O   0  0  0  0  0  0  0  0  0  0  0  0
  -22.4460  -12.1230   22.3790 H   0  0  0  0  0  0  0  0  0  0  0  0
  -21.1510  -13.2580   22.1250 H   0  0  0  0  0  0  0  0  0  0  0  0
  -25.4910  -15.2680   20.2600 N   0  0  0  0  0  0  0  0  0  0  0  0
  -24.7250  -15.9260   20.3430 H   0  0  0  0  0  0  0  0  0  0  0  0
  -26.3460  -15.6960   19.9310 H   0  0  0  0  0  0  0  0  0  0  0  0
  -28.0290  -25.0830   19.5940 C   0  0  0  0  0  2  0  0  0  0  0  0
  -28.2900  -26.4270   20.1560 O   0  0  0  0  0  0  0  0  0  0  0  0
  -24.6050  -31.8650   23.2030 C   0  0  0  0  0  0  0  0  0  0  0  0
  -27.1950  -27.3160   20.0970 C   0  0  0  0  0  0  0  0  0  0  0  0
  -23.3950  -30.4760   21.5660 C   0  0  0  0  0  3  0  0  0  0  0  0
  -24.8360  -28.9470   20.1240 C   0  0  0  0  0  0  0  0  0  0  0  0
  -25.9390  -30.7830   21.3830 C   0  0  0  0  0  2  0  0  0  0  0  0
  -26.0100  -29.4100   20.7300 C   0  0  0  0  0  0  0  0  0  0  0  0
  -27.1890  -28.6030   20.7220 C   0  0  0  0  0  3  0  0  0  0  0  0
  -25.9950  -26.9410   19.4340 C   0  0  0  0  0  3  0  0  0  0  0  0
  -24.8300  -27.7140   19.4720 C   0  0  0  0  0  3  0  0  0  0  0  0
  -23.6020  -29.8190   20.1810 C   0  0  0  0  0  2  0  0  0  0  0  0
  -24.6650  -31.0570   22.1050 N   0  0  0  0  0  0  0  0  0  0  0  0
  -23.5230  -32.1410   23.7400 O   0  0  0  0  0  0  0  0  0  0  0  0
  -22.7370  -29.4480   22.5180 C   0  0  0  0  0  0  0  0  0  0  0  0
  -21.4110  -29.2720   22.3950 N   0  0  0  0  0  0  0  0  0  0  0  0
  -23.4170  -28.8160   23.3300 O   0  0  0  0  0  0  0  0  0  0  0  0
  -20.9210  -29.8380   21.7150 H   0  0  0  0  0  0  0  0  0  0  0  0
  -18.0310  -28.0840   22.9000 C   0  0  0  0  0  0  0  0  0  0  0  0
  -20.5910  -28.3350   23.1650 C   0  0  0  0  0  3  0  0  0  0  0  0
  -20.6860  -26.9020   22.5900 C   0  0  0  0  0  2  0  0  0  0  0  0
  -19.5820  -26.5840   21.5760 C   0  0  0  0  0  2  0  0  0  0  0  0
  -18.2000  -26.7350   22.2230 C   0  0  0  0  0  2  0  0  0  0  0  0
  -19.1530  -28.8430   23.3290 C   0  0  0  0  0  0  0  0  0  0  0  0
  -18.9390  -30.1060   23.9220 C   0  0  0  0  0  3  0  0  0  0  0  0
  -17.6350  -30.6090   24.0910 C   0  0  0  0  0  3  0  0  0  0  0  0
  -16.5280  -29.8470   23.6790 C   0  0  0  0  0  3  0  0  0  0  0  0
  -16.7270  -28.5870   23.0880 C   0  0  0  0  0  3  0  0  0  0  0  0
  -25.8890  -32.4930   23.8210 C   0  0  0  0  0  3  0  0  0  0  0  0
  -25.5780  -33.8880   24.1630 N   0  0  0  0  0  0  0  0  0  0  0  0
  -25.9020  -34.9470   23.4100 C   0  0  0  0  0  0  0  0  0  0  0  0
  -26.5640  -34.8540   22.3720 O   0  0  0  0  0  0  0  0  0  0  0  0
  -24.9960  -34.0370   24.9750 H   0  0  0  0  0  0  0  0  0  0  0  0
  -24.1640  -36.7360   23.0830 C   0  0  0  0  0  1  0  0  0  0  0  0
  -25.4140  -36.3310   23.8820 C   0  0  0  0  0  3  0  0  0  0  0  0
  -27.5540  -37.2120   24.7000 C   0  0  0  0  0  1  0  0  0  0  0  0
  -26.4430  -37.3870   23.7700 N   0  0  0  0  0  0  0  0  0  0  0  0
  -26.0350  -38.3050   23.9330 H   0  0  0  0  0  0  0  0  0  0  0  0
  -26.4140  -31.7130   25.0890 C   0  0  1  0  0  0  0  0  0  0  0  0
  -25.3260  -31.4650   26.1600 C   0  0  0  0  0  1  0  0  0  0  0  0
  -26.9960  -30.3390   24.6830 C   0  0  0  0  0  1  0  0  0  0  0  0
  -27.5690  -32.5040   25.7470 C   0  0  0  0  0  1  0  0  0  0  0  0
  1  2  2  0
  1  4  1  0
  2  3  1  0
  3 11  1  0
  3  5  2  0
  4  7  2  0
  5  6  1  0
  7  5  1  0
  8 10  1  0
  9 10  1  0
 10  2  1  0
 12 11  2  0
 12 13  1  0
 14 22  1  0
 15 20  1  0
 16 17  1  0
 16 15  1  0
 18 17  1  0
 18 27  1  0
 18 19  1  0
 20 14  1  0
 20 19  1  0
 21 14  2  0
 22 23  1  0
 22 13  1  0
 24 25  2  0
 25 44  1  0
 26 25  1  0
 26 29  1  0
 27 24  1  0
 27 28  1  0
 28 26  2  0
 29 30  1  0
 30 31  2  0
 32 35  1  0
 32 31  1  0
 33 32  2  0
 34 33  1  0
 34 29  2  0
 35 36  1  0
 36 37  1  0
 37 38  2  0
 39 38  1  0
 39 43  1  0
 40 39  2  0
 41 36  2  0
 41 40  1  0
 42 41  1  0
 44 45  1  0
 45 48  1  0
 45 47  1  0
 46 44  2  0
 49 50  1  0
 49 24  1  0
 51 49  1  0
 52  4  1  0
 52 53  1  0
 54 65  2  0
 55 53  1  0
 55 60  1  0
 56 64  1  0
 56 66  1  0
 57 63  1  0
 57 59  1  0
 58 64  1  0
 59 58  1  0
 60 59  2  0
 61 62  1  0
 61 55  2  0
 62 57  2  0
 63 56  1  0
 64 54  1  0
 66 68  2  0
 67 66  1  0
 69 67  1  0
 70 79  2  0
 70 75  1  0
 71 67  1  0
 71 75  1  0
 72 71  1  0
 73 74  1  0
 73 72  1  0
 74 70  1  0
 75 76  2  0
 76 77  1  0
 78 77  2  0
 79 78  1  0
 80 54  1  0
 80 81  1  0
 80 90  1  0
 81 84  1  0
 82 86  1  0
 82 81  1  0
 83 82  2  0
 86 85  1  0
 88 86  1  0
 88 89  1  0
 88 87  1  0
 90 93  1  1
 90 91  1  0
 92 90  1  0
M  ISO  4  14 100  22 100  52 101  53 101
M  END
>  <TORSDO>  (42) 
F 21

>  <SCORE>  (42) 
-13.605

>  <name>  (42) 
41

>  <ligand_id>  (42) 
41

>  <original_smiles>  (42) 
[H]c1c([H])c([H])c2c(c1[H])C([H])([H])C([H])([H])C([H])([H])C2([H])N([H])C(=O)C1([H])N(C(=O)C([H])(N([H])C(=O)C([H])(N([H])C([H])([H])[H])C([H])([H])[H])C(C([H])([H])[H])(C([H])([H])[H])C([H])([H])[H])C([H])([H])c2c([H])c(OC([H])([H])c3nc(C([H])([H])[H])c(C([H])([H])C([H])([H])C([H])([H])N([H])C(=O)N4C([H])([H])C([H])([H])C([H])([H])C([H])(n5nc(-c6c([H])c([H])c(Oc7c([H])c([H])c(F)c([H])c7F)c([H])c6[H])c(C(=O)N([H])[H])c5N([H])[H])C4([H])[H])c(C([H])(C([H])([H])[H])C([H])([H])[H])c3[H])c([H])c([H])c2C1([H])[H]

>  <smiles>  (42) 
[H]c1c([H])c([H])c2c(c1[H])C([H])([H])C([H])([H])C([H])([H])C2([H])N([H])C(=O)C1([H])N(C(=O)C([H])(N([H])C(=O)C([H])(N([H])C([H])([H])[H])C([H])([H])[H])C(C([H])([H])[H])(C([H])([H])[H])C([H])([H])[H])C([H])([H])c2c([H])c(OC([H])([H])c3nc(C([H])([H])[H])c(C([H])([H])C([H])([H])C([H])([H])N([H])C(=O)N4C([H])([H])C([H])([H])C([H])([H])C([H])(n5nc(-c6c([H])c([H])c(Oc7c([H])c([H])c(F)c([H])c7F)c([H])c6[H])c(C(=O)N([H])[H])c5N([H])[H])C4([H])[H])c(C([H])(C([H])([H])[H])C([H])([H])[H])c3[H])c([H])c([H])c2C1([H])[H]

$$$$
42:0:0
     RDKit          3D

 89 97  0  0  1  0  0  0  0  0999 V2000
  -27.6480  -23.0620   19.2810 C   0  0  0  0  0  3  0  0  0  0  0  0
  -28.4060  -23.6650   20.3250 C   0  0  0  0  0  0  0  0  0  0  0  0
  -27.9920  -21.7250   19.2410 C   0  0  0  0  0  0  0  0  0  0  0  0
  -27.4480  -20.6740   18.3330 C   0  0  0  0  0  1  0  0  0  0  0  0
  -29.1900  -22.6750   20.8600 N   0  0  0  0  0  0  0  0  0  0  0  0
  -28.9430  -21.4550   20.2210 N   0  0  0  0  0  0  0  0  0  0  0  0
  -28.2220  -25.1190   20.9600 C   0  0  0  0  0  2  0  0  0  0  0  0
  -28.3290  -26.4020   20.1850 O   0  0  0  0  0  0  0  0  0  0  0  0
  -24.6170  -31.8730   23.2430 C   0  0  0  0  0  0  0  0  0  0  0  0
  -27.2310  -27.2870   20.1940 C   0  0  0  0  0  0  0  0  0  0  0  0
  -23.4150  -30.4730   21.6040 C   0  0  0  0  0  3  0  0  0  0  0  0
  -24.8680  -28.9170   20.1790 C   0  0  0  0  0  0  0  0  0  0  0  0
  -25.9580  -30.7900   21.4200 C   0  0  0  0  0  2  0  0  0  0  0  0
  -26.0420  -29.4080   20.7680 C   0  0  0  0  0  0  0  0  0  0  0  0
  -27.2300  -28.6060   20.7580 C   0  0  0  0  0  3  0  0  0  0  0  0
  -26.0370  -26.8580   19.5810 C   0  0  0  0  0  3  0  0  0  0  0  0
  -24.8690  -27.6490   19.5740 C   0  0  0  0  0  3  0  0  0  0  0  0
  -23.6310  -29.7930   20.2270 C   0  0  0  0  0  2  0  0  0  0  0  0
  -24.6840  -31.0630   22.1450 N   0  0  0  0  0  0  0  0  0  0  0  0
  -23.5330  -32.1460   23.7790 O   0  0  0  0  0  0  0  0  0  0  0  0
  -22.7530  -29.4580   22.5670 C   0  0  0  0  0  0  0  0  0  0  0  0
  -21.4270  -29.2820   22.4460 N   0  0  0  0  0  0  0  0  0  0  0  0
  -23.4340  -28.8330   23.3840 O   0  0  0  0  0  0  0  0  0  0  0  0
  -20.9370  -29.8380   21.7590 H   0  0  0  0  0  0  0  0  0  0  0  0
  -18.0500  -28.0820   22.9530 C   0  0  0  0  0  0  0  0  0  0  0  0
  -20.6090  -28.3430   23.2160 C   0  0  0  0  0  3  0  0  0  0  0  0
  -20.7090  -26.9110   22.6400 C   0  0  0  0  0  2  0  0  0  0  0  0
  -19.6050  -26.5890   21.6270 C   0  0  0  0  0  2  0  0  0  0  0  0
  -18.2240  -26.7330   22.2750 C   0  0  0  0  0  2  0  0  0  0  0  0
  -19.1690  -28.8430   23.3810 C   0  0  0  0  0  0  0  0  0  0  0  0
  -18.9510  -30.1050   23.9770 C   0  0  0  0  0  3  0  0  0  0  0  0
  -17.6460  -30.6040   24.1480 C   0  0  0  0  0  3  0  0  0  0  0  0
  -16.5400  -29.8390   23.7360 C   0  0  0  0  0  3  0  0  0  0  0  0
  -16.7430  -28.5790   23.1460 C   0  0  0  0  0  3  0  0  0  0  0  0
  -25.8990  -32.5100   23.8640 C   0  0  0  0  0  3  0  0  0  0  0  0
  -26.4160  -31.7440   25.1440 C   0  0  1  0  0  0  0  0  0  0  0  0
  -25.3260  -31.5130   26.2170 C   0  0  0  0  0  1  0  0  0  0  0  0
  -26.9990  -30.3640   24.7610 C   0  0  0  0  0  1  0  0  0  0  0  0
  -27.5680  -32.5430   25.7990 C   0  0  0  0  0  1  0  0  0  0  0  0
  -25.5850  -33.9080   24.1910 N   0  0  0  0  0  0  0  0  0  0  0  0
  -25.9090  -34.9610   23.4280 C   0  0  0  0  0  0  0  0  0  0  0  0
  -26.5700  -34.8560   22.3920 O   0  0  0  0  0  0  0  0  0  0  0  0
  -24.9910  -34.0600   24.9940 H   0  0  0  0  0  0  0  0  0  0  0  0
  -24.1750  -36.7530   23.0900 C   0  0  0  0  0  1  0  0  0  0  0  0
  -25.4250  -36.3480   23.8890 C   0  0  0  0  0  3  0  0  0  0  0  0
  -27.5650  -37.2410   24.6970 C   0  0  0  0  0  1  0  0  0  0  0  0
  -26.4530  -37.4040   23.7640 N   0  0  0  0  0  0  0  0  0  0  0  0
  -26.0460  -38.3220   23.9160 H   0  0  0  0  0  0  0  0  0  0  0  0
  -29.7720  -20.1890   20.5140 C   0  0  0  0  0  2  0  0  0  0  0  0
  -29.2200  -18.6550   20.3940 C   0  0  0  0  0  3  0  0  0  0  0  0
  -30.2730  -17.4160   20.5570 C   0  0  0  0  0  3  0  0  0  0  0  0
  -30.5820  -14.7970   20.3230 C   0  0  0  0  0  0  0  0  0  0  0  0
  -30.3770  -12.5170   19.3130 C   0  0  0  0  0  2  0  0  0  0  0  0
  -29.4240  -12.5680   18.1000 C   0  0  0  0  0  2  0  0  0  0  0  0
  -27.9650  -12.3730   18.5530 C   0  0  0  0  0  2  0  0  0  0  0  0
  -27.5950  -13.2720   19.7620 C   0  0  0  0  0  3  0  0  0  0  0  0
  -28.6650  -13.2110   20.8730 C   0  0  0  0  0  2  0  0  0  0  0  0
  -29.9500  -13.5730   20.2610 N   0  0  0  0  0  0  0  0  0  0  0  0
  -31.7630  -14.8900   19.9780 O   0  0  0  0  0  0  0  0  0  0  0  0
  -29.8300  -15.9420   20.5770 N   0  0  0  0  0  0  0  0  0  0  0  0
  -28.8690  -15.7720   20.8290 H   0  0  0  0  0  0  0  0  0  0  0  0
  -25.2200  -13.8570   20.5340 C   0  0  0  0  0  0  0  0  0  0  0  0
  -24.1620  -13.0800   20.9160 C   0  0  0  0  0  0  0  0  0  0  0  0
  -24.6230  -11.7280   20.8640 C   0  0  0  0  0  0  0  0  0  0  0  0
  -26.2590  -12.9790   20.2710 N   0  0  0  0  0  0  0  0  0  0  0  0
  -25.9090  -11.6940   20.5350 N   0  0  0  0  0  0  0  0  0  0  0  0
  -23.9000  -10.4650   21.0560 C   0  0  0  0  0  0  0  0  0  0  0  0
  -24.3450   -9.4920   21.9780 C   0  0  0  0  0  3  0  0  0  0  0  0
  -23.6230   -8.2900   22.1540 C   0  0  0  0  0  3  0  0  0  0  0  0
  -22.4410   -8.0560   21.4100 C   0  0  0  0  0  0  0  0  0  0  0  0
  -22.0150   -9.0200   20.4790 C   0  0  0  0  0  3  0  0  0  0  0  0
  -22.7380  -10.2120   20.2990 C   0  0  0  0  0  3  0  0  0  0  0  0
  -21.6870   -6.9120   21.4960 O   0  0  0  0  0  0  0  0  0  0  0  0
  -21.6460   -6.1640   22.6460 C   0  0  0  0  0  0  0  0  0  0  0  0
  -21.2190   -6.7100   23.8750 C   0  0  0  0  0  3  0  0  0  0  0  0
  -21.1280   -5.8890   25.0160 C   0  0  0  0  0  3  0  0  0  0  0  0
  -21.4530   -4.5220   24.9290 C   0  0  0  0  0  0  0  0  0  0  0  0
  -21.8760   -3.9770   23.7030 C   0  0  0  0  0  3  0  0  0  0  0  0
  -21.9700   -4.7960   22.5660 C   0  0  0  0  0  0  0  0  0  0  0  0
  -22.3570   -4.2590   21.3820 F   0  0  0  0  0  0  0  0  0  0  0  0
  -21.3570   -3.7310   26.0230 F   0  0  0  0  0  0  0  0  0  0  0  0
  -22.7690  -13.5550   21.2070 C   0  0  0  0  0  0  0  0  0  0  0  0
  -22.0470  -12.8510   22.0710 N   0  0  0  0  0  0  0  0  0  0  0  0
  -22.3280  -14.5890   20.7040 O   0  0  0  0  0  0  0  0  0  0  0  0
  -22.4160  -12.0180   22.5060 H   0  0  0  0  0  0  0  0  0  0  0  0
  -21.1100  -13.1500   22.3020 H   0  0  0  0  0  0  0  0  0  0  0  0
  -25.3850  -15.2290   20.3630 N   0  0  0  0  0  0  0  0  0  0  0  0
  -24.6230  -15.8850   20.4940 H   0  0  0  0  0  0  0  0  0  0  0  0
  -26.2300  -15.6680   20.0220 H   0  0  0  0  0  0  0  0  0  0  0  0
  1  2  1  0
  2  5  2  0
  2  7  1  0
  3  1  2  0
  3  6  1  0
  4  3  1  0
  6 49  1  0
  6  5  1  0
  8 10  1  0
  8  7  1  0
  9 20  2  0
 10 15  1  0
 11 19  1  0
 11 21  1  0
 12 18  1  0
 12 14  1  0
 13 19  1  0
 14 13  1  0
 15 14  2  0
 16 10  2  0
 17 16  1  0
 17 12  2  0
 18 11  1  0
 19  9  1  0
 21 23  2  0
 22 21  1  0
 24 22  1  0
 25 34  2  0
 25 30  1  0
 26 22  1  0
 26 30  1  0
 27 26  1  0
 28 29  1  0
 28 27  1  0
 29 25  1  0
 30 31  2  0
 31 32  1  0
 33 32  2  0
 34 33  1  0
 35  9  1  0
 35 40  1  0
 35 36  1  0
 36 39  1  1
 36 37  1  0
 38 36  1  0
 40 43  1  0
 41 45  1  0
 41 40  1  0
 42 41  2  0
 45 44  1  0
 47 45  1  0
 47 48  1  0
 47 46  1  0
 50 49  1  0
 50 51  2  0
 51 60  1  0
 52 60  1  0
 53 58  1  0
 54 55  1  0
 54 53  1  0
 56 55  1  0
 56 65  1  0
 56 57  1  0
 58 52  1  0
 58 57  1  0
 59 52  2  0
 60 61  1  0
 62 63  2  0
 63 82  1  0
 64 63  1  0
 64 67  1  0
 65 62  1  0
 65 66  1  0
 66 64  2  0
 67 68  1  0
 68 69  2  0
 70 73  1  0
 70 69  1  0
 71 70  2  0
 72 71  1  0
 72 67  2  0
 73 74  1  0
 74 75  1  0
 75 76  2  0
 77 76  1  0
 77 81  1  0
 78 77  2  0
 79 74  2  0
 79 78  1  0
 80 79  1  0
 82 83  1  0
 83 86  1  0
 83 85  1  0
 84 82  2  0
 87 88  1  0
 87 62  1  0
 89 87  1  0
M  ISO  4   7 101   8 101  52 100  60 100
M  END
>  <TORSDO>  (43) 
F 20

>  <SCORE>  (43) 
-13.824

>  <name>  (43) 
42

>  <ligand_id>  (43) 
42

>  <original_smiles>  (43) 
[H]c1c([H])c([H])c2c(c1[H])C([H])([H])C([H])([H])C([H])([H])C2([H])N([H])C(=O)C1([H])N(C(=O)C([H])(N([H])C(=O)C([H])(N([H])C([H])([H])[H])C([H])([H])[H])C(C([H])([H])[H])(C([H])([H])[H])C([H])([H])[H])C([H])([H])c2c([H])c(OC([H])([H])c3nn(C([H])([H])C([H])([H])C([H])([H])N([H])C(=O)N4C([H])([H])C([H])([H])C([H])([H])C([H])(n5nc(-c6c([H])c([H])c(Oc7c([H])c([H])c(F)c([H])c7F)c([H])c6[H])c(C(=O)N([H])[H])c5N([H])[H])C4([H])[H])c(C([H])([H])[H])c3[H])c([H])c([H])c2C1([H])[H]

>  <smiles>  (43) 
[H]c1c([H])c([H])c2c(c1[H])C([H])([H])C([H])([H])C([H])([H])C2([H])N([H])C(=O)C1([H])N(C(=O)C([H])(N([H])C(=O)C([H])(N([H])C([H])([H])[H])C([H])([H])[H])C(C([H])([H])[H])(C([H])([H])[H])C([H])([H])[H])C([H])([H])c2c([H])c(OC([H])([H])c3nn(C([H])([H])C([H])([H])C([H])([H])N([H])C(=O)N4C([H])([H])C([H])([H])C([H])([H])C([H])(n5nc(-c6c([H])c([H])c(Oc7c([H])c([H])c(F)c([H])c7F)c([H])c6[H])c(C(=O)N([H])[H])c5N([H])[H])C4([H])[H])c(C([H])([H])[H])c3[H])c([H])c([H])c2C1([H])[H]

$$$$
43:0:0
     RDKit          3D

 94102  0  0  1  0  0  0  0  0999 V2000
  -32.6940  -21.3780   20.3000 C   0  0  0  0  0  3  0  0  0  0  0  0
  -33.3870  -22.5420   20.6420 C   0  0  0  0  0  3  0  0  0  0  0  0
  -31.3150  -21.4340   19.9850 C   0  0  0  0  0  0  0  0  0  0  0  0
  -30.7200  -22.7330   19.9270 C   0  0  0  0  0  0  0  0  0  0  0  0
  -31.4940  -23.8460   20.3760 C   0  0  0  0  0  0  0  0  0  0  0  0
  -32.7960  -23.7430   20.7120 N   0  0  0  0  0  0  0  0  0  0  0  0
  -30.3300  -25.4320   22.0100 C   0  0  0  0  0  1  0  0  0  0  0  0
  -30.9380  -25.2540   20.6040 C   0  0  0  0  0  2  0  0  0  0  0  0
  -30.5310  -20.1130   19.8060 C   0  0  0  0  0  2  0  0  0  0  0  0
  -31.3650  -18.8380   20.1500 C   0  0  0  0  0  2  0  0  0  0  0  0
  -30.7300  -17.4320   19.9670 C   0  0  0  0  0  2  0  0  0  0  0  0
  -31.0110  -16.5150   21.1970 C   0  0  0  0  0  2  0  0  0  0  0  0
  -30.9800  -14.0990   20.6080 C   0  0  0  0  0  0  0  0  0  0  0  0
  -30.6190  -11.8450   19.6860 C   0  0  0  0  0  2  0  0  0  0  0  0
  -29.7960  -11.9850   18.3910 C   0  0  0  0  0  2  0  0  0  0  0  0
  -28.2890  -11.9540   18.7100 C   0  0  0  0  0  2  0  0  0  0  0  0
  -27.9050  -12.9110   19.8730 C   0  0  0  0  0  3  0  0  0  0  0  0
  -28.8710  -12.7750   21.0730 C   0  0  0  0  0  2  0  0  0  0  0  0
  -30.2450  -12.9560   20.5740 N   0  0  0  0  0  0  0  0  0  0  0  0
  -32.1000  -14.1890   20.0950 O   0  0  0  0  0  0  0  0  0  0  0  0
  -30.3940  -15.1810   21.1420 N   0  0  0  0  0  0  0  0  0  0  0  0
  -29.4960  -15.0510   21.5890 H   0  0  0  0  0  0  0  0  0  0  0  0
  -25.5180  -13.6740   20.4540 C   0  0  0  0  0  0  0  0  0  0  0  0
  -24.3820  -12.9710   20.7570 C   0  0  0  0  0  0  0  0  0  0  0  0
  -24.7490  -11.5920   20.7310 C   0  0  0  0  0  0  0  0  0  0  0  0
  -26.5130  -12.7250   20.2740 N   0  0  0  0  0  0  0  0  0  0  0  0
  -26.0490  -11.4670   20.4900 N   0  0  0  0  0  0  0  0  0  0  0  0
  -23.9280  -10.3800   20.8690 C   0  0  0  0  0  0  0  0  0  0  0  0
  -24.2680   -9.3620   21.7830 C   0  0  0  0  0  3  0  0  0  0  0  0
  -23.4590   -8.2130   21.9110 C   0  0  0  0  0  3  0  0  0  0  0  0
  -22.2940   -8.0740   21.1220 C   0  0  0  0  0  0  0  0  0  0  0  0
  -21.9710   -9.0800   20.1940 C   0  0  0  0  0  3  0  0  0  0  0  0
  -22.7810  -10.2220   20.0630 C   0  0  0  0  0  3  0  0  0  0  0  0
  -21.4560   -6.9870   21.1610 O   0  0  0  0  0  0  0  0  0  0  0  0
  -21.3220   -6.2210   22.2890 C   0  0  0  0  0  0  0  0  0  0  0  0
  -20.8920   -6.7710   23.5160 C   0  0  0  0  0  3  0  0  0  0  0  0
  -20.7050   -5.9360   24.6360 C   0  0  0  0  0  3  0  0  0  0  0  0
  -20.9340   -4.5510   24.5280 C   0  0  0  0  0  0  0  0  0  0  0  0
  -21.3520   -3.9990   23.3040 C   0  0  0  0  0  3  0  0  0  0  0  0
  -21.5430   -4.8320   22.1880 C   0  0  0  0  0  0  0  0  0  0  0  0
  -21.9280   -4.2920   21.0070 F   0  0  0  0  0  0  0  0  0  0  0  0
  -20.7470   -3.7460   25.6020 F   0  0  0  0  0  0  0  0  0  0  0  0
  -23.0060  -13.5410   20.9650 C   0  0  0  0  0  0  0  0  0  0  0  0
  -22.1990  -12.8940   21.7980 N   0  0  0  0  0  0  0  0  0  0  0  0
  -22.6550  -14.5870   20.4230 O   0  0  0  0  0  0  0  0  0  0  0  0
  -22.4930  -12.0430   22.2600 H   0  0  0  0  0  0  0  0  0  0  0  0
  -21.2690  -13.2490   21.9800 H   0  0  0  0  0  0  0  0  0  0  0  0
  -25.7890  -15.0300   20.3010 N   0  0  0  0  0  0  0  0  0  0  0  0
  -25.0850  -15.7540   20.3920 H   0  0  0  0  0  0  0  0  0  0  0  0
  -26.6920  -15.3970   20.0260 H   0  0  0  0  0  0  0  0  0  0  0  0
  -29.2820  -22.9550   19.4330 C   0  0  0  0  0  2  0  0  0  0  0  0
  -29.1220  -24.1240   18.4180 C   0  0  0  0  0  2  0  0  0  0  0  0
  -27.8140  -24.9250   18.6190 C   0  0  0  0  0  2  0  0  0  0  0  0
  -27.9950  -26.3200   18.3360 O   0  0  0  0  0  0  0  0  0  0  0  0
  -25.1420  -30.8420   23.0640 C   0  0  0  0  0  0  0  0  0  0  0  0
  -26.9390  -27.1420   18.6700 C   0  0  0  0  0  0  0  0  0  0  0  0
  -23.6650  -30.1270   21.2150 C   0  0  0  0  0  3  0  0  0  0  0  0
  -24.7980  -28.8770   19.3020 C   0  0  0  0  0  0  0  0  0  0  0  0
  -26.2020  -30.1900   20.9030 C   0  0  0  0  0  2  0  0  0  0  0  0
  -26.0460  -29.0560   19.9110 C   0  0  0  0  0  0  0  0  0  0  0  0
  -27.1230  -28.1980   19.5910 C   0  0  0  0  0  3  0  0  0  0  0  0
  -25.6750  -26.9780   18.0640 C   0  0  0  0  0  3  0  0  0  0  0  0
  -24.6060  -27.8410   18.3720 C   0  0  0  0  0  3  0  0  0  0  0  0
  -23.7030  -29.8460   19.6900 C   0  0  0  0  0  2  0  0  0  0  0  0
  -25.0260  -30.3860   21.7870 N   0  0  0  0  0  0  0  0  0  0  0  0
  -24.1440  -31.0870   23.7530 O   0  0  0  0  0  0  0  0  0  0  0  0
  -22.9160  -28.9680   21.9180 C   0  0  0  0  0  0  0  0  0  0  0  0
  -21.5750  -29.0170   21.8840 N   0  0  0  0  0  0  0  0  0  0  0  0
  -23.5370  -28.0490   22.4550 O   0  0  0  0  0  0  0  0  0  0  0  0
  -21.1420  -29.8010   21.4200 H   0  0  0  0  0  0  0  0  0  0  0  0
  -18.0890  -28.2080   22.3720 C   0  0  0  0  0  0  0  0  0  0  0  0
  -20.6650  -28.0190   22.4470 C   0  0  0  0  0  3  0  0  0  0  0  0
  -20.5070  -26.8180   21.4890 C   0  0  0  0  0  2  0  0  0  0  0  0
  -19.3090  -26.9560   20.5450 C   0  0  0  0  0  2  0  0  0  0  0  0
  -18.0060  -27.0990   21.3380 C   0  0  0  0  0  2  0  0  0  0  0  0
  -19.3380  -28.6510   22.8820 C   0  0  0  0  0  0  0  0  0  0  0  0
  -19.3590  -29.7090   23.8180 C   0  0  0  0  0  3  0  0  0  0  0  0
  -18.1640  -30.3110   24.2510 C   0  0  0  0  0  3  0  0  0  0  0  0
  -16.9290  -29.8570   23.7590 C   0  0  0  0  0  3  0  0  0  0  0  0
  -16.8940  -28.8080   22.8230 C   0  0  0  0  0  3  0  0  0  0  0  0
  -26.5410  -31.1030   23.7150 C   0  0  0  0  0  3  0  0  0  0  0  0
  -26.4420  -32.3430   24.4960 N   0  0  0  0  0  0  0  0  0  0  0  0
  -26.9020  -33.5350   24.0960 C   0  0  0  0  0  0  0  0  0  0  0  0
  -27.5280  -33.6910   23.0470 O   0  0  0  0  0  0  0  0  0  0  0  0
  -25.9050  -32.2940   25.3510 H   0  0  0  0  0  0  0  0  0  0  0  0
  -25.4530  -35.5640   24.4280 C   0  0  0  0  0  1  0  0  0  0  0  0
  -26.6190  -34.7460   25.0060 C   0  0  0  0  0  3  0  0  0  0  0  0
  -28.8580  -35.0000   25.9810 C   0  0  0  0  0  1  0  0  0  0  0  0
  -27.7930  -35.6230   25.2000 N   0  0  0  0  0  0  0  0  0  0  0  0
  -27.5220  -36.4860   25.6640 H   0  0  0  0  0  0  0  0  0  0  0  0
  -27.0350  -29.9100   24.6220 C   0  0  1  0  0  0  0  0  0  0  0  0
  -25.9960  -29.4520   25.6700 C   0  0  0  0  0  1  0  0  0  0  0  0
  -27.4080  -28.6820   23.7570 C   0  0  0  0  0  1  0  0  0  0  0  0
  -28.3180  -30.3270   25.3790 C   0  0  0  0  0  1  0  0  0  0  0  0
  1  2  1  0
  2  6  2  0
  3  1  2  0
  4  3  1  0
  4  5  2  0
  5  8  1  0
  5  6  1  0
  8  7  1  0
  9  3  1  0
  9 10  1  0
 11 10  1  0
 11 12  1  0
 13 21  1  0
 14 19  1  0
 15 16  1  0
 15 14  1  0
 17 16  1  0
 17 26  1  0
 17 18  1  0
 19 13  1  0
 19 18  1  0
 20 13  2  0
 21 12  1  0
 21 22  1  0
 23 24  2  0
 24 43  1  0
 25 24  1  0
 25 28  1  0
 26 23  1  0
 26 27  1  0
 27 25  2  0
 28 29  1  0
 29 30  2  0
 31 34  1  0
 31 30  1  0
 32 31  2  0
 33 32  1  0
 33 28  2  0
 34 35  1  0
 35 36  1  0
 36 37  2  0
 38 37  1  0
 38 42  1  0
 39 38  2  0
 40 35  2  0
 40 39  1  0
 41 40  1  0
 43 44  1  0
 44 47  1  0
 44 46  1  0
 45 43  2  0
 48 49  1  0
 48 23  1  0
 50 48  1  0
 51  4  1  0
 52 53  1  0
 52 51  1  0
 54 53  1  0
 54 56  1  0
 55 66  2  0
 56 61  1  0
 57 65  1  0
 57 67  1  0
 58 64  1  0
 58 60  1  0
 59 65  1  0
 60 59  1  0
 61 60  2  0
 62 63  1  0
 62 56  2  0
 63 58  2  0
 64 57  1  0
 65 55  1  0
 67 69  2  0
 68 67  1  0
 70 68  1  0
 71 80  2  0
 71 76  1  0
 72 68  1  0
 72 76  1  0
 73 72  1  0
 74 75  1  0
 74 73  1  0
 75 71  1  0
 76 77  2  0
 77 78  1  0
 79 78  2  0
 80 79  1  0
 81 55  1  0
 81 82  1  0
 81 91  1  0
 82 85  1  0
 83 82  1  0
 83 87  1  0
 84 83  2  0
 87 86  1  0
 87 89  1  0
 89 90  1  0
 89 88  1  0
 91 94  1  1
 91 92  1  0
 93 91  1  0
M  ISO  4  13 100  21 100  53 101  54 101
M  END
>  <TORSDO>  (44) 
F 24

>  <SCORE>  (44) 
-9.619

>  <name>  (44) 
43

>  <ligand_id>  (44) 
43

>  <original_smiles>  (44) 
[H]c1nc(C([H])([H])C([H])([H])[H])c(C([H])([H])C([H])([H])C([H])([H])Oc2c([H])c([H])c3c(c2[H])C([H])([H])N(C(=O)C([H])(N([H])C(=O)C([H])(N([H])C([H])([H])[H])C([H])([H])[H])C(C([H])([H])[H])(C([H])([H])[H])C([H])([H])[H])C([H])(C(=O)N([H])C2([H])c4c([H])c([H])c([H])c([H])c4C([H])([H])C([H])([H])C2([H])[H])C3([H])[H])c(C([H])([H])C([H])([H])C([H])([H])C([H])([H])N([H])C(=O)N2C([H])([H])C([H])([H])C([H])([H])C([H])(n3nc(-c4c([H])c([H])c(Oc5c([H])c([H])c(F)c([H])c5F)c([H])c4[H])c(C(=O)N([H])[H])c3N([H])[H])C2([H])[H])c1[H]

>  <smiles>  (44) 
[H]c1nc(C([H])([H])C([H])([H])[H])c(C([H])([H])C([H])([H])C([H])([H])Oc2c([H])c([H])c3c(c2[H])C([H])([H])N(C(=O)C([H])(N([H])C(=O)C([H])(N([H])C([H])([H])[H])C([H])([H])[H])C(C([H])([H])[H])(C([H])([H])[H])C([H])([H])[H])C([H])(C(=O)N([H])C2([H])c4c([H])c([H])c([H])c([H])c4C([H])([H])C([H])([H])C2([H])[H])C3([H])[H])c(C([H])([H])C([H])([H])C([H])([H])C([H])([H])N([H])C(=O)N2C([H])([H])C([H])([H])C([H])([H])C([H])(n3nc(-c4c([H])c([H])c(Oc5c([H])c([H])c(F)c([H])c5F)c([H])c4[H])c(C(=O)N([H])[H])c3N([H])[H])C2([H])[H])c1[H]

$$$$
44:0:0
     RDKit          3D

 96100  0  0  1  0  0  0  0  0999 V2000
  -23.2670  -24.2410   22.6910 C   0  0  0  0  0  2  0  0  0  0  0  0
  -20.8760  -25.9390   22.7000 C   0  0  0  0  0  2  0  0  0  0  0  0
  -22.5560  -25.5670   22.5960 C   0  0  0  0  0  3  0  0  0  0  0  0
  -22.8020  -22.9090   22.5440 C   0  0  0  0  0  0  0  0  0  0  0  0
  -20.6800  -24.4470   23.0610 C   0  0  0  0  0  3  0  0  0  0  0  0
  -19.7410  -24.1250   24.2110 C   0  0  0  0  0  1  0  0  0  0  0  0
  -21.4240  -23.1810   22.8160 N   0  0  0  0  0  0  0  0  0  0  0  0
  -19.4130  -27.8540   21.3180 C   0  0  0  0  0  1  0  0  0  0  0  0
  -18.3880  -28.1290   20.3980 C   0  0  0  0  0  3  0  0  0  0  0  0
  -17.9570  -29.5770   20.1120 C   0  0  0  0  0  1  0  0  0  0  0  0
  -17.5210  -27.2290   19.5040 C   0  0  0  0  0  1  0  0  0  0  0  0
  -23.9830  -26.2860   21.9070 C   0  0  0  0  0  2  0  0  0  0  0  0
  -25.7130  -26.0610   22.0750 C   0  0  0  0  0  2  0  0  0  0  0  0
  -27.0010  -26.3570   21.1710 O   0  0  0  0  0  0  0  0  0  0  0  0
  -24.6800  -31.9640   23.2080 C   0  0  0  0  0  0  0  0  0  0  0  0
  -26.8930  -27.3820   20.3070 C   0  0  0  0  0  0  0  0  0  0  0  0
  -23.4910  -30.6860   21.5090 C   0  0  0  0  0  3  0  0  0  0  0  0
  -24.8360  -29.1400   19.9960 C   0  0  0  0  0  0  0  0  0  0  0  0
  -25.9920  -30.9190   21.3530 C   0  0  0  0  0  2  0  0  0  0  0  0
  -25.9890  -29.5620   20.6730 C   0  0  0  0  0  0  0  0  0  0  0  0
  -27.0760  -28.6840   20.8040 C   0  0  0  0  0  3  0  0  0  0  0  0
  -25.9080  -27.0600   19.3840 C   0  0  0  0  0  3  0  0  0  0  0  0
  -24.8120  -27.9190   19.2930 C   0  0  0  0  0  3  0  0  0  0  0  0
  -23.6390  -30.0440   20.0990 C   0  0  0  0  0  2  0  0  0  0  0  0
  -24.7410  -31.2340   22.0600 N   0  0  0  0  0  0  0  0  0  0  0  0
  -23.5960  -32.2310   23.7540 O   0  0  0  0  0  0  0  0  0  0  0  0
  -22.9510  -29.6870   22.5060 C   0  0  0  0  0  0  0  0  0  0  0  0
  -21.6590  -29.5520   22.4440 N   0  0  0  0  0  0  0  0  0  0  0  0
  -23.6770  -29.0630   23.2920 O   0  0  0  0  0  0  0  0  0  0  0  0
  -21.1420  -30.1020   21.7760 H   0  0  0  0  0  0  0  0  0  0  0  0
  -18.3690  -27.3390   23.3650 C   0  0  0  0  0  0  0  0  0  0  0  0
  -21.2250  -28.2660   22.7520 C   0  0  0  0  0  2  0  0  0  0  0  0
  -21.4930  -27.1760   20.8820 C   0  0  0  0  0 15  0  0  0  0  0  0
  -19.9150  -25.7500   20.6270 C   0  0  0  0  0 15  0  0  0  0  0  0
  -18.4390  -25.9060   22.1340 C   0  0  0  0  0  1  0  0  0  0  0  0
  -19.5940  -28.3350   23.6480 C   0  0  0  0  0  0  0  0  0  0  0  0
  -19.2180  -29.6920   24.0370 C   0  0  0  0  0  3  0  0  0  0  0  0
  -17.9010  -30.2240   24.0630 C   0  0  0  0  0  3  0  0  0  0  0  0
  -16.8300  -29.4020   23.6950 C   0  0  0  0  0  3  0  0  0  0  0  0
  -17.0750  -28.0320   23.3720 C   0  0  0  0  0  3  0  0  0  0  0  0
  -25.9660  -32.5210   23.8630 C   0  0  0  0  0  3  0  0  0  0  0  0
  -25.6510  -33.8930   24.2650 N   0  0  0  0  0  0  0  0  0  0  0  0
  -25.9180  -34.9680   23.5160 C   0  0  0  0  0  0  0  0  0  0  0  0
  -26.5480  -34.9070   22.4570 O   0  0  0  0  0  0  0  0  0  0  0  0
  -25.0990  -34.0100   25.1020 H   0  0  0  0  0  0  0  0  0  0  0  0
  -24.1530  -36.7360   23.2590 C   0  0  0  0  0  1  0  0  0  0  0  0
  -25.4150  -36.3260   24.0330 C   0  0  0  0  0  3  0  0  0  0  0  0
  -27.5610  -37.1910   24.8470 C   0  0  0  0  0  1  0  0  0  0  0  0
  -26.4320  -37.3950   23.9430 N   0  0  0  0  0  0  0  0  0  0  0  0
  -26.0200  -38.3010   24.1520 H   0  0  0  0  0  0  0  0  0  0  0  0
  -26.4650  -31.6690   25.0900 C   0  0  1  0  0  0  0  0  0  0  0  0
  -25.3700  -31.3830   26.1430 C   0  0  0  0  0  1  0  0  0  0  0  0
  -27.0370  -30.3080   24.6240 C   0  0  0  0  0  1  0  0  0  0  0  0
  -27.6230  -32.4170   25.7870 C   0  0  0  0  0  1  0  0  0  0  0  0
  -23.7230  -21.3090   22.3800 C   0  0  0  0  0  3  0  0  0  0  0  0
  -25.3730  -20.4980   21.7980 C   0  0  0  0  0  3  0  0  0  0  0  0
  -26.1970  -18.7520   21.6890 C   0  0  0  0  0  3  0  0  0  0  0  0
  -27.8490  -17.8950   21.1720 C   0  0  0  0  0  3  0  0  0  0  0  0
  -29.7300  -15.3470   20.6740 C   0  0  0  0  0  0  0  0  0  0  0  0
  -30.3700  -12.9640   19.6420 C   0  0  0  0  0  2  0  0  0  0  0  0
  -29.5350  -12.6620   18.3580 C   0  0  0  0  0  2  0  0  0  0  0  0
  -28.0740  -12.3040   18.7040 C   0  0  0  0  0  2  0  0  0  0  0  0
  -27.5500  -13.2110   19.8420 C   0  0  0  0  0  3  0  0  0  0  0  0
  -28.4810  -13.2190   21.0490 C   0  0  0  0  0  2  0  0  0  0  0  0
  -29.6160  -13.9350   20.5490 N   0  0  0  0  0  0  0  0  0  0  0  0
  -30.9070  -15.6610   20.3510 O   0  0  0  0  0  0  0  0  0  0  0  0
  -28.5200  -16.2630   21.0390 N   0  0  0  0  0  0  0  0  0  0  0  0
  -27.7840  -15.6260   21.3120 H   0  0  0  0  0  0  0  0  0  0  0  0
  -25.2100  -13.8090   20.5580 C   0  0  0  0  0  0  0  0  0  0  0  0
  -24.1480  -13.0350   20.9230 C   0  0  0  0  0  0  0  0  0  0  0  0
  -24.6080  -11.6820   20.8740 C   0  0  0  0  0  0  0  0  0  0  0  0
  -26.2240  -12.9130   20.2850 N   0  0  0  0  0  0  0  0  0  0  0  0
  -25.8890  -11.6330   20.5500 N   0  0  0  0  0  0  0  0  0  0  0  0
  -23.8870  -10.4230   21.0460 C   0  0  0  0  0  0  0  0  0  0  0  0
  -24.3510   -9.4180   21.9220 C   0  0  0  0  0  3  0  0  0  0  0  0
  -23.6240   -8.2200   22.0780 C   0  0  0  0  0  3  0  0  0  0  0  0
  -22.4230   -8.0220   21.3550 C   0  0  0  0  0  0  0  0  0  0  0  0
  -21.9810   -9.0180   20.4670 C   0  0  0  0  0  3  0  0  0  0  0  0
  -22.7080  -10.2070   20.3100 C   0  0  0  0  0  3  0  0  0  0  0  0
  -21.6610   -6.8820   21.4240 O   0  0  0  0  0  0  0  0  0  0  0  0
  -21.6830   -6.0700   22.5290 C   0  0  0  0  0  0  0  0  0  0  0  0
  -21.3990   -6.5620   23.8210 C   0  0  0  0  0  3  0  0  0  0  0  0
  -21.3650   -5.6790   24.9180 C   0  0  0  0  0  3  0  0  0  0  0  0
  -21.6050   -4.3050   24.7240 C   0  0  0  0  0  0  0  0  0  0  0  0
  -21.8820   -3.8130   23.4360 C   0  0  0  0  0  3  0  0  0  0  0  0
  -21.9190   -4.6940   22.3410 C   0  0  0  0  0  0  0  0  0  0  0  0
  -22.1660   -4.2120   21.0990 F   0  0  0  0  0  0  0  0  0  0  0  0
  -21.5630   -3.4540   25.7750 F   0  0  0  0  0  0  0  0  0  0  0  0
  -22.7580  -13.5200   21.1940 C   0  0  0  0  0  0  0  0  0  0  0  0
  -22.0250  -12.8220   22.0520 N   0  0  0  0  0  0  0  0  0  0  0  0
  -22.3330  -14.5530   20.6780 O   0  0  0  0  0  0  0  0  0  0  0  0
  -22.3850  -11.9880   22.4900 H   0  0  0  0  0  0  0  0  0  0  0  0
  -21.0900  -13.1310   22.2760 H   0  0  0  0  0  0  0  0  0  0  0  0
  -25.3940  -15.1820   20.4080 N   0  0  0  0  0  0  0  0  0  0  0  0
  -24.6140  -15.8190   20.5170 H   0  0  0  0  0  0  0  0  0  0  0  0
  -26.1670  -15.6000   19.9070 H   0  0  0  0  0  0  0  0  0  0  0  0
  2  5  1  0
  3 12  1  0
  3  1  1  0
  3  2  1  0
  4  1  1  0
  4  7  2  0
  5  6  1  0
  7  5  1  0
  9  8  1  0
 10  9  1  0
 11  9  1  0
 12 13  1  0
 14 13  1  0
 15 26  2  0
 16 21  1  0
 16 14  1  0
 17 25  1  0
 17 27  1  0
 18 24  1  0
 18 20  1  0
 19 25  1  0
 20 21  2  0
 20 19  1  0
 22 16  2  0
 23 22  1  0
 23 18  2  0
 24 17  1  0
 25 15  1  0
 27 29  2  0
 28 27  1  0
 28 32  1  0
 30 28  1  0
 31 40  2  0
 31 36  1  0
 32 36  1  0
 35 31  1  0
 36 37  2  0
 37 38  1  0
 39 38  2  0
 40 39  1  0
 41 15  1  0
 41 42  1  0
 41 51  1  0
 42 45  1  0
 43 47  1  0
 43 42  1  0
 44 43  2  0
 47 46  1  0
 49 47  1  0
 49 50  1  0
 49 48  1  0
 51 54  1  1
 51 52  1  0
 53 51  1  0
 55  4  1  0
 56 55  2  0
 57 56  1  0
 58 57  2  0
 59 67  1  0
 60 65  1  0
 61 62  1  0
 61 60  1  0
 63 62  1  0
 63 72  1  0
 63 64  1  0
 65 59  1  0
 65 64  1  0
 66 59  2  0
 67 58  1  0
 67 68  1  0
 69 70  2  0
 70 89  1  0
 71 70  1  0
 71 74  1  0
 72 73  1  0
 72 69  1  0
 73 71  2  0
 74 75  1  0
 75 76  2  0
 77 80  1  0
 77 76  1  0
 78 77  2  0
 79 78  1  0
 79 74  2  0
 80 81  1  0
 81 82  1  0
 82 83  2  0
 84 83  1  0
 84 88  1  0
 85 84  2  0
 86 81  2  0
 86 85  1  0
 87 86  1  0
 89 90  1  0
 90 93  1  0
 90 92  1  0
 91 89  2  0
 94 95  1  0
 94 69  1  0
 96 94  1  0
M  ISO  4  13 101  14 101  59 100  67 100
M  END
>  <TORSDO>  (45) 
F 23

>  <SCORE>  (45) 
33.574

>  <name>  (45) 
44

>  <ligand_id>  (45) 
44

>  <original_smiles>  (45) 
[H]C(=C(C([H])([H])[H])C([H])([H])[H])c1c(C([H])([H])[H])nc(C([H])([H])C([H])([H])C([H])([H])C([H])([H])N([H])C(=O)N2C([H])([H])C([H])([H])C([H])([H])C([H])(n3nc(-c4c([H])c([H])c(Oc5c([H])c([H])c(F)c([H])c5F)c([H])c4[H])c(C(=O)N([H])[H])c3N([H])[H])C2([H])[H])c([H])c1C([H])([H])C([H])([H])Oc1c([H])c([H])c2c(c1[H])C([H])([H])N(C(=O)C([H])(N([H])C(=O)C([H])(N([H])C([H])([H])[H])C([H])([H])[H])C(C([H])([H])[H])(C([H])([H])[H])C([H])([H])[H])C([H])(C(=O)N([H])C1([H])c3c([H])c([H])c([H])c([H])c3C([H])([H])C([H])([H])C1([H])[H])C2([H])[H]

>  <smiles>  (45) 
[H]C(=C(C([H])([H])[H])C([H])([H])[H])c1c(C([H])([H])[H])nc(C([H])([H])C([H])([H])C([H])([H])C([H])([H])N([H])C(=O)N2C([H])([H])C([H])([H])C([H])([H])C([H])(n3nc(-c4c([H])c([H])c(Oc5c([H])c([H])c(F)c([H])c5F)c([H])c4[H])c(C(=O)N([H])[H])c3N([H])[H])C2([H])[H])c([H])c1C([H])([H])C([H])([H])Oc1c([H])c([H])c2c(c1[H])C([H])([H])N(C(=O)C([H])(N([H])C(=O)C([H])(N([H])C([H])([H])[H])C([H])([H])[H])C(C([H])([H])[H])(C([H])([H])[H])C([H])([H])[H])C([H])(C(=O)N([H])C1([H])c3c([H])c([H])c([H])c([H])c3C([H])([H])C([H])([H])C1([H])[H])C2([H])[H]

$$$$
45:0:0
     RDKit          3D

 98103  0  0  1  0  0  0  0  0999 V2000
  -24.7140  -28.9640   21.9600 C   0  0  0  0  0  3  0  0  0  0  0  0
  -25.0410  -27.4810   22.3820 C   0  0  0  0  0  3  0  0  0  0  0  0
  -26.2610  -27.3230   19.1710 C   0  0  0  0  0  2  0  0  0  0  0  0
  -25.9980  -28.8440   18.7560 C   0  0  0  0  0  3  0  0  0  0  0  0
  -25.2040  -29.2390   23.4330 C   0  0  0  0  0  1  0  0  0  0  0  0
  -25.0930  -29.8450   19.9460 N   0  0  0  0  0  1  0  0  0  0  0  0
  -25.7540  -26.8290   21.4280 N   0  0  0  0  0  0  0  0  0  0  0  0
  -26.9250  -25.7960   17.9010 C   0  0  0  0  0 15  0  0  0  0  0  0
  -27.3900  -23.8120   18.2870 C   0  0  0  0  0  1  0  0  0  0  0  0
  -28.3450  -22.1220   18.0930 C   0  0  0  0  0  2  0  0  0  0  0  0
  -28.4040  -20.3240   18.8770 C   0  0  0  0  0  3  0  0  0  0  0  0
  -29.4870  -18.7030   18.9480 C   0  0  0  0  0  3  0  0  0  0  0  0
  -30.2510  -15.7240   19.8390 C   0  0  0  0  0  0  0  0  0  0  0  0
  -30.4660  -13.1360   19.3510 C   0  0  0  0  0  2  0  0  0  0  0  0
  -29.5810  -12.6320   18.1860 C   0  0  0  0  0  2  0  0  0  0  0  0
  -28.1760  -12.2680   18.6960 C   0  0  0  0  0  2  0  0  0  0  0  0
  -27.6270  -13.3080   19.7030 C   0  0  0  0  0  3  0  0  0  0  0  0
  -28.6720  -13.7610   20.7470 C   0  0  0  0  0  2  0  0  0  0  0  0
  -29.7960  -14.3500   19.9790 N   0  0  0  0  0  0  0  0  0  0  0  0
  -31.4960  -15.7110   19.8050 O   0  0  0  0  0  0  0  0  0  0  0  0
  -29.4180  -17.0200   19.5410 N   0  0  0  0  0  0  0  0  0  0  0  0
  -28.4460  -16.7690   19.6420 H   0  0  0  0  0  0  0  0  0  0  0  0
  -25.2630  -13.7570   20.5370 C   0  0  0  0  0  0  0  0  0  0  0  0
  -24.2340  -12.9410   20.9080 C   0  0  0  0  0  0  0  0  0  0  0  0
  -24.7500  -11.6090   20.8690 C   0  0  0  0  0  0  0  0  0  0  0  0
  -26.3380  -12.9270   20.2770 N   0  0  0  0  0  0  0  0  0  0  0  0
  -26.0420  -11.6270   20.5450 N   0  0  0  0  0  0  0  0  0  0  0  0
  -24.0650  -10.3200   21.0620 C   0  0  0  0  0  0  0  0  0  0  0  0
  -24.4430   -9.4280   22.0900 C   0  0  0  0  0  3  0  0  0  0  0  0
  -23.7550   -8.2080   22.2690 C   0  0  0  0  0  3  0  0  0  0  0  0
  -22.6740   -7.8710   21.4210 C   0  0  0  0  0  0  0  0  0  0  0  0
  -22.3150   -8.7520   20.3870 C   0  0  0  0  0  3  0  0  0  0  0  0
  -23.0030   -9.9640   20.2060 C   0  0  0  0  0  3  0  0  0  0  0  0
  -21.9690   -6.6970   21.5020 O   0  0  0  0  0  0  0  0  0  0  0  0
  -21.7500   -6.0680   22.7020 C   0  0  0  0  0  0  0  0  0  0  0  0
  -21.0590   -6.7030   23.7560 C   0  0  0  0  0  3  0  0  0  0  0  0
  -20.7930   -6.0010   24.9490 C   0  0  0  0  0  3  0  0  0  0  0  0
  -21.2100   -4.6640   25.0870 C   0  0  0  0  0  0  0  0  0  0  0  0
  -21.8940   -4.0270   24.0370 C   0  0  0  0  0  3  0  0  0  0  0  0
  -22.1610   -4.7270   22.8470 C   0  0  0  0  0  0  0  0  0  0  0  0
  -22.8010   -4.1060   21.8280 F   0  0  0  0  0  0  0  0  0  0  0  0
  -20.9500   -3.9830   26.2280 F   0  0  0  0  0  0  0  0  0  0  0  0
  -22.8200  -13.3660   21.1720 C   0  0  0  0  0  0  0  0  0  0  0  0
  -22.1130  -12.6500   22.0380 N   0  0  0  0  0  0  0  0  0  0  0  0
  -22.3510  -14.3770   20.6510 O   0  0  0  0  0  0  0  0  0  0  0  0
  -22.4990  -11.8290   22.4830 H   0  0  0  0  0  0  0  0  0  0  0  0
  -21.1660  -12.9280   22.2550 H   0  0  0  0  0  0  0  0  0  0  0  0
  -25.3670  -15.1340   20.3570 N   0  0  0  0  0  0  0  0  0  0  0  0
  -24.5770  -15.7590   20.4810 H   0  0  0  0  0  0  0  0  0  0  0  0
  -26.1920  -15.6040   20.0090 H   0  0  0  0  0  0  0  0  0  0  0  0
  -25.5460  -26.6390   23.6310 C   0  0  0  0  0  2  0  0  0  0  0  0
  -24.5470  -24.2900   24.0650 C   0  0  0  0  0  1  0  0  0  0  0  0
  -24.5640  -25.7940   24.4800 C   0  0  0  0  0  3  0  0  0  0  0  0
  -26.4710  -25.6510   26.2820 C   0  0  0  0  0  1  0  0  0  0  0  0
  -24.5180  -27.3380   26.5310 C   0  0  0  0  0  1  0  0  0  0  0  0
  -24.9530  -25.9440   25.9890 C   0  0  0  0  0  3  0  0  0  0  0  0
  -27.6630  -28.3560   18.6280 C   0  0  0  0  0  3  0  0  0  0  0  0
  -28.4890  -27.2630   19.6870 O   0  0  0  0  0  0  0  0  0  0  0  0
  -24.7470  -32.4890   23.0230 C   0  0  0  0  0  0  0  0  0  0  0  0
  -27.8400  -26.4250   20.7450 C   0  0  0  0  0  2  0  0  0  0  0  0
  -23.1910  -30.8940   21.4280 C   0  0  0  0  0  3  0  0  0  0  0  0
  -24.3820  -27.9910   20.3360 C   0  0  0  0  0  3  0  0  0  0  0  0
  -26.5220  -30.9630   21.6430 C   0  0  0  0  0  1  0  0  0  0  0  0
  -26.7550  -29.0700   21.1190 C   0  0  0  0  0  1  0  0  0  0  0  0
  -27.9820  -28.0440   21.2440 C   0  0  0  0  0  2  0  0  0  0  0  0
  -26.1740  -25.4210   20.4150 C   0  0  0  0  0  2  0  0  0  0  0  0
  -24.5270  -26.2430   20.1010 C   0  0  0  0  0  3  0  0  0  0  0  0
  -22.9860  -29.2040   20.4540 C   0  0  0  0  0  2  0  0  0  0  0  0
  -24.8190  -31.6730   21.8920 N   0  0  0  0  0  0  0  0  0  0  0  0
  -23.6600  -32.7830   23.5590 O   0  0  0  0  0  0  0  0  0  0  0  0
  -22.3170  -30.3320   22.6570 C   0  0  0  0  0  0  0  0  0  0  0  0
  -21.1750  -29.6920   22.4280 N   0  0  0  0  0  0  0  0  0  0  0  0
  -22.7560  -30.1650   23.7830 O   0  0  0  0  0  0  0  0  0  0  0  0
  -20.7500  -29.7250   21.5090 H   0  0  0  0  0  0  0  0  0  0  0  0
  -18.1490  -28.0530   22.9960 C   0  0  0  0  0  0  0  0  0  0  0  0
  -20.5740  -28.7590   23.3950 C   0  0  0  0  0  3  0  0  0  0  0  0
  -20.9570  -27.2840   23.0980 C   0  0  0  0  0  2  0  0  0  0  0  0
  -20.0330  -26.6330   22.0680 C   0  0  0  0  0  2  0  0  0  0  0  0
  -18.5820  -26.6610   22.5620 C   0  0  0  0  0  2  0  0  0  0  0  0
  -19.0880  -29.0300   23.4100 C   0  0  0  0  0  0  0  0  0  0  0  0
  -18.6550  -30.3260   23.7690 C   0  0  0  0  0  3  0  0  0  0  0  0
  -17.2890  -30.6580   23.7160 C   0  0  0  0  0  3  0  0  0  0  0  0
  -16.3560  -29.6800   23.3310 C   0  0  0  0  0  3  0  0  0  0  0  0
  -16.7820  -28.3850   22.9830 C   0  0  0  0  0  3  0  0  0  0  0  0
  -26.0440  -32.9390   23.8210 C   0  0  0  0  0  3  0  0  0  0  0  0
  -26.6590  -32.1260   25.0970 C   0  0  1  0  0  0  0  0  0  0  0  0
  -25.5950  -31.6730   26.1310 C   0  0  0  0  0  1  0  0  0  0  0  0
  -27.6170  -30.9080   24.8810 C   0  0  0  0  0  1  0  0  0  0  0  0
  -27.6550  -33.0880   25.7990 C   0  0  0  0  0  1  0  0  0  0  0  0
  -25.6480  -34.2640   24.2910 N   0  0  0  0  0  0  0  0  0  0  0  0
  -25.9950  -35.3950   23.6860 C   0  0  0  0  0  0  0  0  0  0  0  0
  -26.7060  -35.4210   22.6780 O   0  0  0  0  0  0  0  0  0  0  0  0
  -24.9990  -34.3070   25.0620 H   0  0  0  0  0  0  0  0  0  0  0  0
  -24.2500  -37.1880   23.5200 C   0  0  0  0  0  1  0  0  0  0  0  0
  -25.4670  -36.6950   24.3140 C   0  0  0  0  0  3  0  0  0  0  0  0
  -27.5570  -37.4400   25.3500 C   0  0  0  0  0  1  0  0  0  0  0  0
  -26.4870  -37.7620   24.4100 N   0  0  0  0  0  0  0  0  0  0  0  0
  -26.0630  -38.6340   24.7200 H   0  0  0  0  0  0  0  0  0  0  0  0
  1  2  1  0
  1  5  1  0
  2 51  1  0
  4  3  1  0
  4  6  1  0
  7 66  1  0
  7  2  1  0
 10  9  1  0
 10 11  1  0
 11 12  2  0
 12 21  1  0
 13 19  1  0
 14 19  1  0
 15 16  1  0
 15 14  1  0
 17 16  1  0
 17 26  1  0
 17 18  1  0
 19 18  1  0
 20 13  2  0
 21 22  1  0
 21 13  1  0
 23 24  2  0
 24 43  1  0
 25 24  1  0
 25 28  1  0
 26 23  1  0
 26 27  1  0
 27 25  2  0
 28 29  1  0
 29 30  2  0
 31 34  1  0
 31 30  1  0
 32 31  2  0
 33 32  1  0
 33 28  2  0
 34 35  1  0
 35 40  2  0
 35 36  1  0
 36 37  2  0
 37 38  1  0
 38 42  1  0
 39 38  2  0
 40 39  1  0
 41 40  1  0
 43 44  1  0
 44 47  1  0
 44 46  1  0
 45 43  2  0
 48 49  1  0
 48 23  1  0
 50 48  1  0
 51 53  1  0
 53 52  1  0
 53 56  1  0
 56 54  1  0
 56 55  1  0
 57  4  1  0
 57  3  1  0
 57 58  1  0
 58 60  1  0
 59 70  2  0
 60 65  1  0
 61 68  1  0
 61 69  1  0
 61 71  1  0
 62 68  1  0
 62  1  1  0
 63 69  1  0
 64 65  1  0
 67 62  1  0
 67 66  1  0
 67  7  1  0
 69 59  1  0
 71 73  2  0
 72 71  1  0
 74 72  1  0
 75 80  1  0
 76 72  1  0
 76 80  1  0
 77 76  1  0
 78 79  1  0
 78 77  1  0
 79 75  1  0
 80 81  2  0
 82 81  1  0
 83 82  2  0
 84 75  2  0
 84 83  1  0
 85 59  1  0
 85 90  1  0
 85 86  1  0
 86 89  1  1
 86 87  1  0
 88 86  1  0
 90 93  1  0
 91 90  1  0
 91 95  1  0
 92 91  2  0
 95 94  1  0
 95 97  1  0
 97 98  1  0
 97 96  1  0
M  ISO  4  13 100  21 100  57 101  58 101
M  END
>  <TORSDO>  (46) 
F 25

>  <SCORE>  (46) 
-13.117

>  <name>  (46) 
45

>  <ligand_id>  (46) 
45

>  <original_smiles>  (46) 
[H]c1c([H])c([H])c2c(c1[H])C([H])([H])C([H])([H])C([H])([H])C2([H])N([H])C(=O)C1([H])N(C(=O)C([H])(N([H])C(=O)C([H])(N([H])C([H])([H])[H])C([H])([H])[H])C(C([H])([H])[H])(C([H])([H])[H])C([H])([H])[H])C([H])([H])c2c([H])c(OC([H])([H])c3nc(C([H])([H])[H])c(C([H])([H])C([H])(C([H])([H])[H])C([H])(C([H])([H])[H])C([H])([H])[H])nc3C([H])([H])C([H])([H])C([H])([H])C([H])([H])C([H])([H])N([H])C(=O)N3C([H])([H])C([H])([H])C([H])([H])C([H])(n4nc(-c5c([H])c([H])c(Oc6c([H])c([H])c(F)c([H])c6F)c([H])c5[H])c(C(=O)N([H])[H])c4N([H])[H])C3([H])[H])c([H])c([H])c2C1([H])[H]

>  <smiles>  (46) 
[H]c1c([H])c([H])c2c(c1[H])C([H])([H])C([H])([H])C([H])([H])C2([H])N([H])C(=O)C1([H])N(C(=O)C([H])(N([H])C(=O)C([H])(N([H])C([H])([H])[H])C([H])([H])[H])C(C([H])([H])[H])(C([H])([H])[H])C([H])([H])[H])C([H])([H])c2c([H])c(OC([H])([H])c3nc(C([H])([H])[H])c(C([H])([H])C([H])(C([H])([H])[H])C([H])(C([H])([H])[H])C([H])([H])[H])nc3C([H])([H])C([H])([H])C([H])([H])C([H])([H])C([H])([H])N([H])C(=O)N3C([H])([H])C([H])([H])C([H])([H])C([H])(n4nc(-c5c([H])c([H])c(Oc6c([H])c([H])c(F)c([H])c6F)c([H])c5[H])c(C(=O)N([H])[H])c4N([H])[H])C3([H])[H])c([H])c([H])c2C1([H])[H]

$$$$
46:0:0
     RDKit          3D

 93101  0  0  1  0  0  0  0  0999 V2000
  -30.6740  -21.2900   17.6780 C   0  0  0  0  0  3  0  0  0  0  0  0
  -30.3330  -23.6690   17.4570 C   0  0  0  0  0  3  0  0  0  0  0  0
  -30.5120  -22.4160   16.8490 C   0  0  0  0  0  0  0  0  0  0  0  0
  -30.6280  -21.4550   19.0750 C   0  0  0  0  0  0  0  0  0  0  0  0
  -30.2880  -23.7460   18.8590 C   0  0  0  0  0  0  0  0  0  0  0  0
  -30.4100  -22.6580   19.6540 N   0  0  0  0  0  0  0  0  0  0  0  0
  -29.1300  -22.6550   14.7650 C   0  0  0  0  0  1  0  0  0  0  0  0
  -30.5060  -22.2980   15.3410 C   0  0  0  0  0  2  0  0  0  0  0  0
  -30.8900  -20.2820   20.0150 C   0  0  0  0  0  2  0  0  0  0  0  0
  -29.9450  -19.0780   19.8160 C   0  0  0  0  0  2  0  0  0  0  0  0
  -30.3830  -17.8260   20.6120 C   0  0  0  0  0  2  0  0  0  0  0  0
  -29.4760  -16.6190   20.3110 C   0  0  0  0  0  2  0  0  0  0  0  0
  -30.6010  -14.4280   20.2000 C   0  0  0  0  0  0  0  0  0  0  0  0
  -30.2430  -12.3750   18.8950 C   0  0  0  0  0  2  0  0  0  0  0  0
  -29.2400  -12.7090   17.7690 C   0  0  0  0  0  2  0  0  0  0  0  0
  -27.7840  -12.5730   18.2620 C   0  0  0  0  0  2  0  0  0  0  0  0
  -27.5390  -13.2840   19.6200 C   0  0  0  0  0  3  0  0  0  0  0  0
  -28.6430  -12.9090   20.6370 C   0  0  0  0  0  2  0  0  0  0  0  0
  -29.9520  -13.2440   20.0440 N   0  0  0  0  0  0  0  0  0  0  0  0
  -31.6480  -14.7190   19.6130 O   0  0  0  0  0  0  0  0  0  0  0  0
  -29.9030  -15.3420   20.8900 N   0  0  0  0  0  0  0  0  0  0  0  0
  -29.2240  -14.9310   21.5150 H   0  0  0  0  0  0  0  0  0  0  0  0
  -25.1570  -13.8670   20.4160 C   0  0  0  0  0  0  0  0  0  0  0  0
  -24.1130  -13.0830   20.8260 C   0  0  0  0  0  0  0  0  0  0  0  0
  -24.5850  -11.7350   20.7710 C   0  0  0  0  0  0  0  0  0  0  0  0
  -26.2020  -12.9970   20.1420 N   0  0  0  0  0  0  0  0  0  0  0  0
  -25.8610  -11.7110   20.4060 N   0  0  0  0  0  0  0  0  0  0  0  0
  -23.8830  -10.4620   20.9830 C   0  0  0  0  0  0  0  0  0  0  0  0
  -24.3510   -9.5010   21.9070 C   0  0  0  0  0  3  0  0  0  0  0  0
  -23.6460   -8.2950   22.1040 C   0  0  0  0  0  3  0  0  0  0  0  0
  -22.4570   -8.0400   21.3790 C   0  0  0  0  0  0  0  0  0  0  0  0
  -22.0060   -8.9900   20.4450 C   0  0  0  0  0  3  0  0  0  0  0  0
  -22.7130  -10.1860   20.2470 C   0  0  0  0  0  3  0  0  0  0  0  0
  -21.7230   -6.8840   21.4860 O   0  0  0  0  0  0  0  0  0  0  0  0
  -21.7120   -6.1440   22.6430 C   0  0  0  0  0  0  0  0  0  0  0  0
  -21.2960   -6.6940   23.8740 C   0  0  0  0  0  3  0  0  0  0  0  0
  -21.2340   -5.8780   25.0230 C   0  0  0  0  0  3  0  0  0  0  0  0
  -21.5770   -4.5160   24.9400 C   0  0  0  0  0  0  0  0  0  0  0  0
  -21.9870   -3.9660   23.7130 C   0  0  0  0  0  3  0  0  0  0  0  0
  -22.0500   -4.7790   22.5670 C   0  0  0  0  0  0  0  0  0  0  0  0
  -22.4270   -4.2390   21.3820 F   0  0  0  0  0  0  0  0  0  0  0  0
  -21.5090   -3.7310   26.0410 F   0  0  0  0  0  0  0  0  0  0  0  0
  -22.7220  -13.5460   21.1580 C   0  0  0  0  0  0  0  0  0  0  0  0
  -22.0310  -12.8350   22.0430 N   0  0  0  0  0  0  0  0  0  0  0  0
  -22.2530  -14.5710   20.6670 O   0  0  0  0  0  0  0  0  0  0  0  0
  -22.4200  -12.0050   22.4670 H   0  0  0  0  0  0  0  0  0  0  0  0
  -21.1040  -13.1320   22.3090 H   0  0  0  0  0  0  0  0  0  0  0  0
  -25.3020  -15.2400   20.2350 N   0  0  0  0  0  0  0  0  0  0  0  0
  -24.5350  -15.8900   20.3730 H   0  0  0  0  0  0  0  0  0  0  0  0
  -26.1200  -15.6680   19.8180 H   0  0  0  0  0  0  0  0  0  0  0  0
  -30.0870  -25.0890   19.5360 C   0  0  0  0  0  2  0  0  0  0  0  0
  -28.6290  -25.5610   19.4730 C   0  0  0  0  0  2  0  0  0  0  0  0
  -28.5190  -26.8140   20.1400 O   0  0  0  0  0  0  0  0  0  0  0  0
  -24.5830  -31.8410   23.2160 C   0  0  0  0  0  0  0  0  0  0  0  0
  -27.3050  -27.4610   20.1300 C   0  0  0  0  0  0  0  0  0  0  0  0
  -23.4040  -30.4370   21.5550 C   0  0  0  0  0  3  0  0  0  0  0  0
  -24.8820  -28.9190   20.1400 C   0  0  0  0  0  0  0  0  0  0  0  0
  -25.9280  -30.8210   21.3860 C   0  0  0  0  0  2  0  0  0  0  0  0
  -26.0280  -29.4570   20.7380 C   0  0  0  0  0  0  0  0  0  0  0  0
  -27.2380  -28.7340   20.7360 C   0  0  0  0  0  3  0  0  0  0  0  0
  -26.1360  -26.9220   19.5410 C   0  0  0  0  0  3  0  0  0  0  0  0
  -24.9290  -27.6460   19.5460 C   0  0  0  0  0  3  0  0  0  0  0  0
  -23.6310  -29.7650   20.1750 C   0  0  0  0  0  2  0  0  0  0  0  0
  -24.6550  -31.0480   22.1090 N   0  0  0  0  0  0  0  0  0  0  0  0
  -23.4940  -32.1020   23.7460 O   0  0  0  0  0  0  0  0  0  0  0  0
  -22.7560  -29.4030   22.5030 C   0  0  0  0  0  0  0  0  0  0  0  0
  -21.4370  -29.2010   22.3500 N   0  0  0  0  0  0  0  0  0  0  0  0
  -23.4350  -28.7870   23.3280 O   0  0  0  0  0  0  0  0  0  0  0  0
  -20.9510  -29.7520   21.6580 H   0  0  0  0  0  0  0  0  0  0  0  0
  -18.0730  -27.9560   22.7820 C   0  0  0  0  0  0  0  0  0  0  0  0
  -20.6200  -28.2500   23.1040 C   0  0  0  0  0  3  0  0  0  0  0  0
  -20.7540  -26.8200   22.5300 C   0  0  0  0  0  2  0  0  0  0  0  0
  -19.6780  -26.4830   21.4940 C   0  0  0  0  0  2  0  0  0  0  0  0
  -18.2810  -26.6090   22.1100 C   0  0  0  0  0  2  0  0  0  0  0  0
  -19.1720  -28.7330   23.2340 C   0  0  0  0  0  0  0  0  0  0  0  0
  -18.9250  -29.9940   23.8190 C   0  0  0  0  0  3  0  0  0  0  0  0
  -17.6110  -30.4790   23.9570 C   0  0  0  0  0  3  0  0  0  0  0  0
  -16.5250  -29.6980   23.5230 C   0  0  0  0  0  3  0  0  0  0  0  0
  -16.7570  -28.4390   22.9420 C   0  0  0  0  0  3  0  0  0  0  0  0
  -25.8590  -32.4780   23.8520 C   0  0  0  0  0  3  0  0  0  0  0  0
  -25.5410  -33.8750   24.1710 N   0  0  0  0  0  0  0  0  0  0  0  0
  -25.8900  -34.9260   23.4160 C   0  0  0  0  0  0  0  0  0  0  0  0
  -26.5860  -34.8200   22.4030 O   0  0  0  0  0  0  0  0  0  0  0  0
  -24.9270  -34.0320   24.9570 H   0  0  0  0  0  0  0  0  0  0  0  0
  -24.1750  -36.7180   23.0050 C   0  0  0  0  0  1  0  0  0  0  0  0
  -25.3890  -36.3140   23.8570 C   0  0  0  0  0  3  0  0  0  0  0  0
  -27.4960  -37.1980   24.7580 C   0  0  0  0  0  1  0  0  0  0  0  0
  -26.4260  -37.3660   23.7760 N   0  0  0  0  0  0  0  0  0  0  0  0
  -26.0190  -38.2880   23.9020 H   0  0  0  0  0  0  0  0  0  0  0  0
  -26.3640  -31.7120   25.1360 C   0  0  1  0  0  0  0  0  0  0  0  0
  -25.2610  -31.4740   26.1920 C   0  0  0  0  0  1  0  0  0  0  0  0
  -26.9580  -30.3350   24.7550 C   0  0  0  0  0  1  0  0  0  0  0  0
  -27.5050  -32.5120   25.8080 C   0  0  0  0  0  1  0  0  0  0  0  0
  1  4  1  0
  2  5  2  0
  3  2  1  0
  3  1  2  0
  4  6  2  0
  4  9  1  0
  5 51  1  0
  5  6  1  0
  7  8  1  0
  8  3  1  0
 10  9  1  0
 10 11  1  0
 12 11  1  0
 12 21  1  0
 13 21  1  0
 14 19  1  0
 15 16  1  0
 15 14  1  0
 17 16  1  0
 17 26  1  0
 17 18  1  0
 19 13  1  0
 19 18  1  0
 20 13  2  0
 21 22  1  0
 23 24  2  0
 24 43  1  0
 25 24  1  0
 25 28  1  0
 26 27  1  0
 26 23  1  0
 27 25  2  0
 28 29  1  0
 29 30  2  0
 31 34  1  0
 31 30  1  0
 32 31  2  0
 33 32  1  0
 33 28  2  0
 34 35  1  0
 35 36  1  0
 36 37  2  0
 38 37  1  0
 38 42  1  0
 39 38  2  0
 40 35  2  0
 40 39  1  0
 41 40  1  0
 43 44  1  0
 44 47  1  0
 44 46  1  0
 45 43  2  0
 48 49  1  0
 48 23  1  0
 50 48  1  0
 52 51  1  0
 52 53  1  0
 54 65  2  0
 55 53  1  0
 55 60  1  0
 56 64  1  0
 56 66  1  0
 57 63  1  0
 57 59  1  0
 58 64  1  0
 59 58  1  0
 60 59  2  0
 61 62  1  0
 61 55  2  0
 62 57  2  0
 63 56  1  0
 64 54  1  0
 66 68  2  0
 67 66  1  0
 69 67  1  0
 70 79  2  0
 70 75  1  0
 71 67  1  0
 71 75  1  0
 72 71  1  0
 73 74  1  0
 73 72  1  0
 74 70  1  0
 75 76  2  0
 76 77  1  0
 78 77  2  0
 79 78  1  0
 80 54  1  0
 80 81  1  0
 80 90  1  0
 81 84  1  0
 82 86  1  0
 82 81  1  0
 83 82  2  0
 86 85  1  0
 88 86  1  0
 88 89  1  0
 88 87  1  0
 90 93  1  1
 90 91  1  0
 92 90  1  0
M  ISO  4  13 100  21 100  52 101  53 101
M  END
>  <TORSDO>  (47) 
F 23

>  <SCORE>  (47) 
-11.715

>  <name>  (47) 
46

>  <ligand_id>  (47) 
46

>  <original_smiles>  (47) 
[H]c1c([H])c([H])c2c(c1[H])C([H])([H])C([H])([H])C([H])([H])C2([H])N([H])C(=O)C1([H])N(C(=O)C([H])(N([H])C(=O)C([H])(N([H])C([H])([H])[H])C([H])([H])[H])C(C([H])([H])[H])(C([H])([H])[H])C([H])([H])[H])C([H])([H])c2c([H])c(OC([H])([H])C([H])([H])c3nc(C([H])([H])C([H])([H])C([H])([H])C([H])([H])N([H])C(=O)N4C([H])([H])C([H])([H])C([H])([H])C([H])(n5nc(-c6c([H])c([H])c(Oc7c([H])c([H])c(F)c([H])c7F)c([H])c6[H])c(C(=O)N([H])[H])c5N([H])[H])C4([H])[H])c([H])c(C([H])([H])C([H])([H])[H])c3[H])c([H])c([H])c2C1([H])[H]

>  <smiles>  (47) 
[H]c1c([H])c([H])c2c(c1[H])C([H])([H])C([H])([H])C([H])([H])C2([H])N([H])C(=O)C1([H])N(C(=O)C([H])(N([H])C(=O)C([H])(N([H])C([H])([H])[H])C([H])([H])[H])C(C([H])([H])[H])(C([H])([H])[H])C([H])([H])[H])C([H])([H])c2c([H])c(OC([H])([H])C([H])([H])c3nc(C([H])([H])C([H])([H])C([H])([H])C([H])([H])N([H])C(=O)N4C([H])([H])C([H])([H])C([H])([H])C([H])(n5nc(-c6c([H])c([H])c(Oc7c([H])c([H])c(F)c([H])c7F)c([H])c6[H])c(C(=O)N([H])[H])c5N([H])[H])C4([H])[H])c([H])c(C([H])([H])C([H])([H])[H])c3[H])c([H])c([H])c2C1([H])[H]

$$$$
47:0:0
     RDKit          3D

 93101  0  0  1  0  0  0  0  0999 V2000
  -27.7200  -22.6620   19.0820 C   0  0  0  0  0  3  0  0  0  0  0  0
  -28.6510  -21.7190   19.5550 C   0  0  0  0  0  0  0  0  0  0  0  0
  -29.5280  -22.2010   20.5620 C   0  0  0  0  0  0  0  0  0  0  0  0
  -28.4950  -24.2640   20.5040 C   0  0  0  0  0  0  0  0  0  0  0  0
  -27.6460  -23.9200   19.5460 N   0  0  0  0  0  0  0  0  0  0  0  0
  -29.4120  -23.4600   21.0290 N   0  0  0  0  0  0  0  0  0  0  0  0
  -28.5710  -20.3210   18.9060 C   0  0  0  0  0  2  0  0  0  0  0  0
  -29.6830  -19.2550   19.0570 C   0  0  0  0  0  2  0  0  0  0  0  0
  -29.3730  -18.1530   20.1010 C   0  0  0  0  0  2  0  0  0  0  0  0
  -30.3990  -16.9990   20.0720 C   0  0  0  0  0  2  0  0  0  0  0  0
  -30.0200  -15.7620   20.9340 C   0  0  0  0  0  2  0  0  0  0  0  0
  -30.7440  -14.4810   20.4610 C   0  0  0  0  0  0  0  0  0  0  0  0
  -30.4350  -12.3270   19.3170 C   0  0  0  0  0  2  0  0  0  0  0  0
  -29.5010  -12.5560   18.1110 C   0  0  0  0  0  2  0  0  0  0  0  0
  -28.0220  -12.4310   18.5330 C   0  0  0  0  0  2  0  0  0  0  0  0
  -27.6860  -13.2610   19.8010 C   0  0  0  0  0  3  0  0  0  0  0  0
  -28.7380  -13.0290   20.9090 C   0  0  0  0  0  2  0  0  0  0  0  0
  -30.0680  -13.3070   20.3480 N   0  0  0  0  0  0  0  0  0  0  0  0
  -31.8970  -14.6120   20.0420 O   0  0  0  0  0  0  0  0  0  0  0  0
  -25.2820  -13.8740   20.4950 C   0  0  0  0  0  0  0  0  0  0  0  0
  -24.2120  -13.1030   20.8650 C   0  0  0  0  0  0  0  0  0  0  0  0
  -24.6770  -11.7510   20.8510 C   0  0  0  0  0  0  0  0  0  0  0  0
  -26.3300  -12.9900   20.2780 N   0  0  0  0  0  0  0  0  0  0  0  0
  -25.9680  -11.7110   20.5520 N   0  0  0  0  0  0  0  0  0  0  0  0
  -23.9520  -10.4890   21.0460 C   0  0  0  0  0  0  0  0  0  0  0  0
  -24.3830   -9.5260   21.9840 C   0  0  0  0  0  3  0  0  0  0  0  0
  -23.6590   -8.3290   22.1660 C   0  0  0  0  0  3  0  0  0  0  0  0
  -22.4890   -8.0850   21.4090 C   0  0  0  0  0  0  0  0  0  0  0  0
  -22.0780   -9.0370   20.4590 C   0  0  0  0  0  3  0  0  0  0  0  0
  -22.8030  -10.2250   20.2760 C   0  0  0  0  0  3  0  0  0  0  0  0
  -21.7370   -6.9390   21.5010 O   0  0  0  0  0  0  0  0  0  0  0  0
  -21.6920   -6.1970   22.6560 C   0  0  0  0  0  0  0  0  0  0  0  0
  -21.2670   -6.7520   23.8810 C   0  0  0  0  0  3  0  0  0  0  0  0
  -21.1680   -5.9370   25.0270 C   0  0  0  0  0  3  0  0  0  0  0  0
  -21.4860   -4.5680   24.9460 C   0  0  0  0  0  0  0  0  0  0  0  0
  -21.9010   -4.0100   23.7250 C   0  0  0  0  0  3  0  0  0  0  0  0
  -22.0000   -4.8230   22.5810 C   0  0  0  0  0  0  0  0  0  0  0  0
  -22.3820   -4.2760   21.4010 F   0  0  0  0  0  0  0  0  0  0  0  0
  -21.3830   -3.7830   26.0450 F   0  0  0  0  0  0  0  0  0  0  0  0
  -22.8120  -13.5790   21.1230 C   0  0  0  0  0  0  0  0  0  0  0  0
  -22.0790  -12.8880   21.9890 N   0  0  0  0  0  0  0  0  0  0  0  0
  -22.3740  -14.6000   20.5930 O   0  0  0  0  0  0  0  0  0  0  0  0
  -22.4430  -12.0630   22.4430 H   0  0  0  0  0  0  0  0  0  0  0  0
  -21.1370  -13.1880   22.2020 H   0  0  0  0  0  0  0  0  0  0  0  0
  -25.4480  -15.2440   20.3030 N   0  0  0  0  0  0  0  0  0  0  0  0
  -24.6930  -15.9120   20.4190 H   0  0  0  0  0  0  0  0  0  0  0  0
  -26.3090  -15.6750   19.9900 H   0  0  0  0  0  0  0  0  0  0  0  0
  -30.6540  -21.4300   21.2340 C   0  0  0  0  0  3  0  0  0  0  0  0
  -32.0950  -21.7250   20.7280 C   0  0  0  0  0  3  0  0  0  0  0  0
  -32.0060  -21.9850   18.1540 C   0  0  0  0  0  1  0  0  0  0  0  0
  -32.2930  -22.6480   19.5040 C   0  0  0  0  0  2  0  0  0  0  0  0
  -28.3940  -25.6710   21.0940 C   0  0  0  0  0  2  0  0  0  0  0  0
  -28.3440  -26.7260   20.1270 O   0  0  0  0  0  0  0  0  0  0  0  0
  -24.5470  -31.8760   23.2590 C   0  0  0  0  0  0  0  0  0  0  0  0
  -27.1830  -27.4560   20.1590 C   0  0  0  0  0  0  0  0  0  0  0  0
  -23.3350  -30.4790   21.6150 C   0  0  0  0  0  3  0  0  0  0  0  0
  -24.7850  -28.9380   20.1920 C   0  0  0  0  0  0  0  0  0  0  0  0
  -25.8590  -30.8410   21.4100 C   0  0  0  0  0  2  0  0  0  0  0  0
  -25.9440  -29.4690   20.7730 C   0  0  0  0  0  0  0  0  0  0  0  0
  -27.1490  -28.7340   20.7540 C   0  0  0  0  0  3  0  0  0  0  0  0
  -26.0120  -26.9290   19.5800 C   0  0  0  0  0  3  0  0  0  0  0  0
  -24.8120  -27.6640   19.5960 C   0  0  0  0  0  3  0  0  0  0  0  0
  -23.5420  -29.7970   20.2360 C   0  0  0  0  0  2  0  0  0  0  0  0
  -24.5990  -31.0790   22.1540 N   0  0  0  0  0  0  0  0  0  0  0  0
  -23.4690  -32.1490   23.8020 O   0  0  0  0  0  0  0  0  0  0  0  0
  -22.6850  -29.4570   22.5760 C   0  0  0  0  0  0  0  0  0  0  0  0
  -21.3600  -29.2800   22.4520 N   0  0  0  0  0  0  0  0  0  0  0  0
  -23.3680  -28.8280   23.3870 O   0  0  0  0  0  0  0  0  0  0  0  0
  -20.8700  -29.8430   21.7720 H   0  0  0  0  0  0  0  0  0  0  0  0
  -17.9820  -28.1020   22.9530 C   0  0  0  0  0  0  0  0  0  0  0  0
  -20.5410  -28.3420   23.2210 C   0  0  0  0  0  3  0  0  0  0  0  0
  -20.6330  -26.9130   22.6390 C   0  0  0  0  0  2  0  0  0  0  0  0
  -19.5270  -26.6010   21.6260 C   0  0  0  0  0  2  0  0  0  0  0  0
  -18.1480  -26.7520   22.2740 C   0  0  0  0  0  2  0  0  0  0  0  0
  -19.1060  -28.8560   23.3840 C   0  0  0  0  0  0  0  0  0  0  0  0
  -18.8980  -30.1190   23.9770 C   0  0  0  0  0  3  0  0  0  0  0  0
  -17.5970  -30.6290   24.1460 C   0  0  0  0  0  3  0  0  0  0  0  0
  -16.4870  -29.8730   23.7330 C   0  0  0  0  0  3  0  0  0  0  0  0
  -16.6810  -28.6110   23.1430 C   0  0  0  0  0  3  0  0  0  0  0  0
  -25.8370  -32.5020   23.8770 C   0  0  0  0  0  3  0  0  0  0  0  0
  -26.3520  -31.7320   25.1560 C   0  0  1  0  0  0  0  0  0  0  0  0
  -25.2600  -31.5040   26.2250 C   0  0  0  0  0  1  0  0  0  0  0  0
  -26.9270  -30.3500   24.7650 C   0  0  0  0  0  1  0  0  0  0  0  0
  -27.5060  -32.5220   25.8150 C   0  0  0  0  0  1  0  0  0  0  0  0
  -25.5380  -33.9040   24.1990 N   0  0  0  0  0  0  0  0  0  0  0  0
  -25.8820  -34.9480   23.4350 C   0  0  0  0  0  0  0  0  0  0  0  0
  -26.5570  -34.8340   22.4070 O   0  0  0  0  0  0  0  0  0  0  0  0
  -24.9390  -34.0660   24.9960 H   0  0  0  0  0  0  0  0  0  0  0  0
  -24.1700  -36.7510   23.0550 C   0  0  0  0  0  1  0  0  0  0  0  0
  -25.4000  -36.3420   23.8800 C   0  0  0  0  0  3  0  0  0  0  0  0
  -27.5340  -37.2130   24.7270 C   0  0  0  0  0  1  0  0  0  0  0  0
  -26.4420  -37.3870   23.7720 N   0  0  0  0  0  0  0  0  0  0  0  0
  -26.0410  -38.3100   23.9120 H   0  0  0  0  0  0  0  0  0  0  0  0
  1  5  1  0
  1  2  2  0
  2  3  1  0
  3  6  2  0
  3 48  1  0
  4  6  1  0
  4 52  1  0
  5  4  2  0
  7  8  1  0
  7  2  1  0
  8  9  1  0
 10  9  1  0
 10 11  1  0
 12 11  1  0
 13 18  1  0
 14 15  1  0
 14 13  1  0
 16 15  1  0
 16 23  1  0
 16 17  1  0
 18 12  1  0
 18 17  1  0
 19 12  2  0
 20 21  2  0
 21 40  1  0
 22 21  1  0
 22 25  1  0
 23 20  1  0
 23 24  1  0
 24 22  2  0
 25 26  1  0
 26 27  2  0
 28 31  1  0
 28 27  1  0
 29 28  2  0
 30 29  1  0
 30 25  2  0
 31 32  1  0
 32 33  1  0
 33 34  2  0
 35 34  1  0
 35 39  1  0
 36 35  2  0
 37 32  2  0
 37 36  1  0
 38 37  1  0
 40 41  1  0
 41 44  1  0
 41 43  1  0
 42 40  2  0
 45 46  1  0
 45 20  1  0
 47 45  1  0
 49 48  2  0
 50 51  1  0
 51 49  1  0
 53 55  1  0
 53 52  1  0
 54 65  2  0
 55 60  1  0
 56 64  1  0
 56 66  1  0
 57 63  1  0
 57 59  1  0
 58 64  1  0
 59 58  1  0
 60 59  2  0
 61 62  1  0
 61 55  2  0
 62 57  2  0
 63 56  1  0
 64 54  1  0
 66 68  2  0
 67 66  1  0
 69 67  1  0
 70 79  2  0
 70 75  1  0
 71 67  1  0
 71 75  1  0
 72 71  1  0
 73 74  1  0
 73 72  1  0
 74 70  1  0
 75 76  2  0
 76 77  1  0
 78 77  2  0
 79 78  1  0
 80 54  1  0
 80 85  1  0
 80 81  1  0
 81 84  1  1
 81 82  1  0
 83 81  1  0
 85 88  1  0
 86 90  1  0
 86 85  1  0
 87 86  2  0
 90 89  1  0
 92 90  1  0
 92 93  1  0
 92 91  1  0
M  ISO  4  11 100  12 100  52 101  53 101
M  END
>  <TORSDO>  (48) 
F 25

>  <SCORE>  (48) 
-12.327

>  <name>  (48) 
47

>  <ligand_id>  (48) 
47

>  <original_smiles>  (48) 
[H]c1nc(C([H])([H])Oc2c([H])c([H])c3c(c2[H])C([H])([H])N(C(=O)C([H])(N([H])C(=O)C([H])(N([H])C([H])([H])[H])C([H])([H])[H])C(C([H])([H])[H])(C([H])([H])[H])C([H])([H])[H])C([H])(C(=O)N([H])C2([H])c4c([H])c([H])c([H])c([H])c4C([H])([H])C([H])([H])C2([H])[H])C3([H])[H])nc(C([H])([H])C([H])([H])C([H])([H])C([H])([H])[H])c1C([H])([H])C([H])([H])C([H])([H])C([H])([H])C([H])([H])C(=O)N1C([H])([H])C([H])([H])C([H])([H])C([H])(n2nc(-c3c([H])c([H])c(Oc4c([H])c([H])c(F)c([H])c4F)c([H])c3[H])c(C(=O)N([H])[H])c2N([H])[H])C1([H])[H]

>  <smiles>  (48) 
[H]c1nc(C([H])([H])Oc2c([H])c([H])c3c(c2[H])C([H])([H])N(C(=O)C([H])(N([H])C(=O)C([H])(N([H])C([H])([H])[H])C([H])([H])[H])C(C([H])([H])[H])(C([H])([H])[H])C([H])([H])[H])C([H])(C(=O)N([H])C2([H])c4c([H])c([H])c([H])c([H])c4C([H])([H])C([H])([H])C2([H])[H])C3([H])[H])nc(C([H])([H])C([H])([H])C([H])([H])C([H])([H])[H])c1C([H])([H])C([H])([H])C([H])([H])C([H])([H])C([H])([H])C(=O)N1C([H])([H])C([H])([H])C([H])([H])C([H])(n2nc(-c3c([H])c([H])c(Oc4c([H])c([H])c(F)c([H])c4F)c([H])c3[H])c(C(=O)N([H])[H])c2N([H])[H])C1([H])[H]

$$$$
48:0:0
     RDKit          3D

 91 99  0  0  1  0  0  0  0  0999 V2000
  -28.4010  -21.7320   21.0540 C   0  0  0  0  0  3  0  0  0  0  0  0
  -30.5150  -22.6380   20.4380 C   0  0  0  0  0  3  0  0  0  0  0  0
  -29.7490  -21.4810   20.7330 C   0  0  0  0  0  0  0  0  0  0  0  0
  -27.9050  -23.0680   21.1310 C   0  0  0  0  0  0  0  0  0  0  0  0
  -28.7660  -24.1810   20.8440 C   0  0  0  0  0  0  0  0  0  0  0  0
  -30.0530  -23.9220   20.4850 N   0  0  0  0  0  0  0  0  0  0  0  0
  -25.4190  -23.1080   20.5230 C   0  0  0  0  0  1  0  0  0  0  0  0
  -26.4690  -23.2040   21.6370 C   0  0  0  0  0  2  0  0  0  0  0  0
  -30.4400  -20.0670   20.8100 C   0  0  0  0  0  2  0  0  0  0  0  0
  -29.6580  -18.6800   20.7640 C   0  0  0  0  0  2  0  0  0  0  0  0
  -30.6200  -17.4060   20.8180 C   0  0  0  0  0  2  0  0  0  0  0  0
  -30.7610  -14.8890   20.3980 C   0  0  0  0  0  0  0  0  0  0  0  0
  -30.4770  -12.7120   19.2380 C   0  0  0  0  0  2  0  0  0  0  0  0
  -29.5280  -12.8810   18.0330 C   0  0  0  0  0  2  0  0  0  0  0  0
  -28.0620  -12.7110   18.4710 C   0  0  0  0  0  2  0  0  0  0  0  0
  -27.7160  -13.5470   19.7320 C   0  0  0  0  0  3  0  0  0  0  0  0
  -28.7780  -13.3740   20.8410 C   0  0  0  0  0  2  0  0  0  0  0  0
  -30.0840  -13.7070   20.2580 N   0  0  0  0  0  0  0  0  0  0  0  0
  -31.9340  -14.9930   20.0320 O   0  0  0  0  0  0  0  0  0  0  0  0
  -30.0570  -16.0090   20.7630 N   0  0  0  0  0  0  0  0  0  0  0  0
  -29.0830  -15.8830   20.9990 H   0  0  0  0  0  0  0  0  0  0  0  0
  -25.3130  -14.1300   20.4270 C   0  0  0  0  0  0  0  0  0  0  0  0
  -24.2510  -13.3510   20.7940 C   0  0  0  0  0  0  0  0  0  0  0  0
  -24.7280  -12.0050   20.7850 C   0  0  0  0  0  0  0  0  0  0  0  0
  -26.3690  -13.2590   20.2140 N   0  0  0  0  0  0  0  0  0  0  0  0
  -26.0220  -11.9760   20.4910 N   0  0  0  0  0  0  0  0  0  0  0  0
  -24.0150  -10.7360   20.9780 C   0  0  0  0  0  0  0  0  0  0  0  0
  -24.4370   -9.7900   21.9380 C   0  0  0  0  0  3  0  0  0  0  0  0
  -23.7210   -8.5860   22.1170 C   0  0  0  0  0  3  0  0  0  0  0  0
  -22.5700   -8.3200   21.3370 C   0  0  0  0  0  0  0  0  0  0  0  0
  -22.1700   -9.2560   20.3670 C   0  0  0  0  0  3  0  0  0  0  0  0
  -22.8850  -10.4510   20.1870 C   0  0  0  0  0  3  0  0  0  0  0  0
  -21.8270   -7.1680   21.4260 O   0  0  0  0  0  0  0  0  0  0  0  0
  -21.7540   -6.4460   22.5910 C   0  0  0  0  0  0  0  0  0  0  0  0
  -21.2720   -7.0140   23.7910 C   0  0  0  0  0  3  0  0  0  0  0  0
  -21.1480   -6.2180   24.9460 C   0  0  0  0  0  3  0  0  0  0  0  0
  -21.4970   -4.8540   24.9040 C   0  0  0  0  0  0  0  0  0  0  0  0
  -21.9730   -4.2860   23.7090 C   0  0  0  0  0  3  0  0  0  0  0  0
  -22.0970   -5.0800   22.5560 C   0  0  0  0  0  0  0  0  0  0  0  0
  -22.5360   -4.5220   21.4020 F   0  0  0  0  0  0  0  0  0  0  0  0
  -21.3720   -4.0870   26.0120 F   0  0  0  0  0  0  0  0  0  0  0  0
  -22.8460  -13.8150   21.0470 C   0  0  0  0  0  0  0  0  0  0  0  0
  -22.1140  -13.1220   21.9120 N   0  0  0  0  0  0  0  0  0  0  0  0
  -22.4040  -14.8320   20.5130 O   0  0  0  0  0  0  0  0  0  0  0  0
  -22.4800  -12.2970   22.3650 H   0  0  0  0  0  0  0  0  0  0  0  0
  -21.1730  -13.4200   22.1250 H   0  0  0  0  0  0  0  0  0  0  0  0
  -25.4680  -15.5010   20.2310 N   0  0  0  0  0  0  0  0  0  0  0  0
  -24.6970  -16.1530   20.3280 H   0  0  0  0  0  0  0  0  0  0  0  0
  -26.3130  -15.9410   19.8890 H   0  0  0  0  0  0  0  0  0  0  0  0
  -28.3970  -25.6850   21.1800 C   0  0  0  0  0  2  0  0  0  0  0  0
  -28.4790  -26.7590   20.1820 O   0  0  0  0  0  0  0  0  0  0  0  0
  -24.5150  -31.9890   23.1890 C   0  0  0  0  0  0  0  0  0  0  0  0
  -27.3520  -27.5810   20.1430 C   0  0  0  0  0  0  0  0  0  0  0  0
  -23.3930  -30.5580   21.5110 C   0  0  0  0  0  3  0  0  0  0  0  0
  -24.9270  -29.0710   20.1050 C   0  0  0  0  0  0  0  0  0  0  0  0
  -25.9160  -30.9790   21.3780 C   0  0  0  0  0  2  0  0  0  0  0  0
  -26.0640  -29.6110   20.7240 C   0  0  0  0  0  0  0  0  0  0  0  0
  -27.2860  -28.8770   20.7340 C   0  0  0  0  0  3  0  0  0  0  0  0
  -26.1980  -27.0830   19.5040 C   0  0  0  0  0  3  0  0  0  0  0  0
  -24.9940  -27.8130   19.4830 C   0  0  0  0  0  3  0  0  0  0  0  0
  -23.6560  -29.8940   20.1340 C   0  0  0  0  0  2  0  0  0  0  0  0
  -24.6250  -31.1920   22.0840 N   0  0  0  0  0  0  0  0  0  0  0  0
  -23.4150  -32.2270   23.7040 O   0  0  0  0  0  0  0  0  0  0  0  0
  -22.7430  -29.5170   22.4540 C   0  0  0  0  0  0  0  0  0  0  0  0
  -21.4190  -29.3260   22.3250 N   0  0  0  0  0  0  0  0  0  0  0  0
  -23.4290  -28.8840   23.2610 O   0  0  0  0  0  0  0  0  0  0  0  0
  -20.9260  -29.8900   21.6460 H   0  0  0  0  0  0  0  0  0  0  0  0
  -18.0480  -28.1340   22.8520 C   0  0  0  0  0  0  0  0  0  0  0  0
  -20.6110  -28.3660   23.0760 C   0  0  0  0  0  3  0  0  0  0  0  0
  -20.6930  -26.9560   22.4440 C   0  0  0  0  0  2  0  0  0  0  0  0
  -19.5660  -26.6820   21.4430 C   0  0  0  0  0  2  0  0  0  0  0  0
  -18.1990  -26.8100   22.1220 C   0  0  0  0  0  2  0  0  0  0  0  0
  -19.1800  -28.8710   23.2880 C   0  0  0  0  0  0  0  0  0  0  0  0
  -18.9830  -30.1130   23.9300 C   0  0  0  0  0  3  0  0  0  0  0  0
  -17.6860  -30.6160   24.1420 C   0  0  0  0  0  3  0  0  0  0  0  0
  -16.5680  -29.8730   23.7250 C   0  0  0  0  0  3  0  0  0  0  0  0
  -16.7500  -28.6340   23.0840 C   0  0  0  0  0  3  0  0  0  0  0  0
  -25.7660  -32.6540   23.8430 C   0  0  0  0  0  3  0  0  0  0  0  0
  -25.4140  -34.0410   24.1710 N   0  0  0  0  0  0  0  0  0  0  0  0
  -25.7300  -35.1040   23.4190 C   0  0  0  0  0  0  0  0  0  0  0  0
  -26.4220  -35.0220   22.4010 O   0  0  0  0  0  0  0  0  0  0  0  0
  -24.8040  -34.1780   24.9650 H   0  0  0  0  0  0  0  0  0  0  0  0
  -23.9580  -36.8430   23.0410 C   0  0  0  0  0  1  0  0  0  0  0  0
  -25.1960  -36.4760   23.8710 C   0  0  0  0  0  3  0  0  0  0  0  0
  -27.2890  -37.4230   24.7370 C   0  0  0  0  0  1  0  0  0  0  0  0
  -26.2010  -37.5570   23.7730 N   0  0  0  0  0  0  0  0  0  0  0  0
  -25.7670  -38.4660   23.9140 H   0  0  0  0  0  0  0  0  0  0  0  0
  -26.2790  -31.8920   25.1270 C   0  0  1  0  0  0  0  0  0  0  0  0
  -25.1680  -31.6140   26.1690 C   0  0  0  0  0  1  0  0  0  0  0  0
  -26.9140  -30.5370   24.7380 C   0  0  0  0  0  1  0  0  0  0  0  0
  -27.3880  -32.7200   25.8180 C   0  0  0  0  0  1  0  0  0  0  0  0
  1  4  1  0
  2  6  2  0
  2  3  1  0
  3  9  1  0
  3  1  2  0
  4  8  1  0
  5  4  2  0
  5 50  1  0
  6  5  1  0
  7  8  1  0
 10  9  1  0
 10 11  1  0
 12 20  1  0
 13 18  1  0
 14 15  1  0
 14 13  1  0
 16 15  1  0
 16 25  1  0
 16 17  1  0
 18 12  1  0
 18 17  1  0
 19 12  2  0
 20 11  1  0
 20 21  1  0
 22 23  2  0
 23 42  1  0
 24 23  1  0
 24 27  1  0
 25 22  1  0
 25 26  1  0
 26 24  2  0
 27 28  1  0
 28 29  2  0
 30 33  1  0
 30 29  1  0
 31 30  2  0
 32 31  1  0
 32 27  2  0
 33 34  1  0
 34 35  1  0
 35 36  2  0
 37 36  1  0
 37 41  1  0
 38 37  2  0
 39 34  2  0
 39 38  1  0
 40 39  1  0
 42 43  1  0
 43 46  1  0
 43 45  1  0
 44 42  2  0
 47 48  1  0
 47 22  1  0
 49 47  1  0
 51 50  1  0
 52 63  2  0
 53 51  1  0
 53 58  1  0
 54 62  1  0
 54 64  1  0
 55 61  1  0
 55 57  1  0
 56 62  1  0
 57 58  2  0
 57 56  1  0
 59 53  2  0
 60 59  1  0
 60 55  2  0
 61 54  1  0
 62 52  1  0
 64 66  2  0
 65 64  1  0
 67 65  1  0
 68 77  2  0
 68 73  1  0
 69 65  1  0
 69 73  1  0
 70 69  1  0
 71 72  1  0
 71 70  1  0
 72 68  1  0
 73 74  2  0
 74 75  1  0
 76 75  2  0
 77 76  1  0
 78 52  1  0
 78 79  1  0
 78 88  1  0
 79 82  1  0
 80 84  1  0
 80 79  1  0
 81 80  2  0
 84 83  1  0
 86 84  1  0
 86 87  1  0
 86 85  1  0
 88 91  1  1
 88 89  1  0
 90 88  1  0
M  ISO  4  12 100  20 100  50 101  51 101
M  END
>  <TORSDO>  (49) 
F 21

>  <SCORE>  (49) 
-13.408

>  <name>  (49) 
48

>  <ligand_id>  (49) 
48

>  <original_smiles>  (49) 
[H]c1nc(C([H])([H])Oc2c([H])c([H])c3c(c2[H])C([H])([H])N(C(=O)C([H])(N([H])C(=O)C([H])(N([H])C([H])([H])[H])C([H])([H])[H])C(C([H])([H])[H])(C([H])([H])[H])C([H])([H])[H])C([H])(C(=O)N([H])C2([H])c4c([H])c([H])c([H])c([H])c4C([H])([H])C([H])([H])C2([H])[H])C3([H])[H])c(C([H])([H])C([H])([H])[H])c([H])c1C([H])([H])C([H])([H])C([H])([H])N([H])C(=O)N1C([H])([H])C([H])([H])C([H])([H])C([H])(n2nc(-c3c([H])c([H])c(Oc4c([H])c([H])c(F)c([H])c4F)c([H])c3[H])c(C(=O)N([H])[H])c2N([H])[H])C1([H])[H]

>  <smiles>  (49) 
[H]c1nc(C([H])([H])Oc2c([H])c([H])c3c(c2[H])C([H])([H])N(C(=O)C([H])(N([H])C(=O)C([H])(N([H])C([H])([H])[H])C([H])([H])[H])C(C([H])([H])[H])(C([H])([H])[H])C([H])([H])[H])C([H])(C(=O)N([H])C2([H])c4c([H])c([H])c([H])c([H])c4C([H])([H])C([H])([H])C2([H])[H])C3([H])[H])c(C([H])([H])C([H])([H])[H])c([H])c1C([H])([H])C([H])([H])C([H])([H])N([H])C(=O)N1C([H])([H])C([H])([H])C([H])([H])C([H])(n2nc(-c3c([H])c([H])c(Oc4c([H])c([H])c(F)c([H])c4F)c([H])c3[H])c(C(=O)N([H])[H])c2N([H])[H])C1([H])[H]

$$$$
49:0:0
     RDKit          3D

 90 98  0  0  1  0  0  0  0  0999 V2000
  -30.0260  -20.1470   19.6530 C   0  0  0  0  0  3  0  0  0  0  0  0
  -28.3630  -20.8610   20.8790 C   0  0  0  0  0  3  0  0  0  0  0  0
  -28.7910  -19.7350   20.2320 C   0  0  0  0  0  0  0  0  0  0  0  0
  -30.3250  -21.4150   19.9230 N   0  0  0  0  0  0  0  0  0  0  0  0
  -29.2960  -21.8560   20.6830 N   0  0  0  0  0  0  0  0  0  0  0  0
  -28.0830  -18.4040   20.1290 C   0  0  0  0  0  2  0  0  0  0  0  0
  -28.7080  -17.2510   20.9370 C   0  0  0  0  0  2  0  0  0  0  0  0
  -29.9780  -16.6430   20.3170 C   0  0  0  0  0  2  0  0  0  0  0  0
  -30.7930  -14.3250   20.1000 C   0  0  0  0  0  0  0  0  0  0  0  0
  -30.4170  -12.1870   18.9460 C   0  0  0  0  0  2  0  0  0  0  0  0
  -29.4180  -12.4330   17.7960 C   0  0  0  0  0  2  0  0  0  0  0  0
  -27.9630  -12.3260   18.2920 C   0  0  0  0  0  2  0  0  0  0  0  0
  -27.7110  -13.1490   19.5830 C   0  0  0  0  0  3  0  0  0  0  0  0
  -28.8120  -12.8730   20.6380 C   0  0  0  0  0  2  0  0  0  0  0  0
  -30.1270  -13.1480   20.0170 N   0  0  0  0  0  0  0  0  0  0  0  0
  -31.8380  -14.5810   19.4920 O   0  0  0  0  0  0  0  0  0  0  0  0
  -30.1170  -15.2610   20.7680 N   0  0  0  0  0  0  0  0  0  0  0  0
  -29.3550  -14.8970   21.3210 H   0  0  0  0  0  0  0  0  0  0  0  0
  -25.3630  -13.8030   20.4280 C   0  0  0  0  0  0  0  0  0  0  0  0
  -24.2980  -13.0470   20.8390 C   0  0  0  0  0  0  0  0  0  0  0  0
  -24.7190  -11.6870   20.7440 C   0  0  0  0  0  0  0  0  0  0  0  0
  -26.3710  -12.9030   20.1200 N   0  0  0  0  0  0  0  0  0  0  0  0
  -25.9880  -11.6230   20.3610 N   0  0  0  0  0  0  0  0  0  0  0  0
  -23.9730  -10.4390   20.9400 C   0  0  0  0  0  0  0  0  0  0  0  0
  -24.3870   -9.4740   21.8840 C   0  0  0  0  0  3  0  0  0  0  0  0
  -23.6450   -8.2890   22.0700 C   0  0  0  0  0  3  0  0  0  0  0  0
  -22.4740   -8.0580   21.3120 C   0  0  0  0  0  0  0  0  0  0  0  0
  -22.0770   -9.0100   20.3560 C   0  0  0  0  0  3  0  0  0  0  0  0
  -22.8180  -10.1880   20.1680 C   0  0  0  0  0  3  0  0  0  0  0  0
  -21.7040   -6.9230   21.4070 O   0  0  0  0  0  0  0  0  0  0  0  0
  -21.5920   -6.2250   22.5830 C   0  0  0  0  0  0  0  0  0  0  0  0
  -21.0710   -6.8160   23.7560 C   0  0  0  0  0  3  0  0  0  0  0  0
  -20.9060   -6.0430   24.9210 C   0  0  0  0  0  3  0  0  0  0  0  0
  -21.2540   -4.6790   24.9170 C   0  0  0  0  0  0  0  0  0  0  0  0
  -21.7680   -4.0870   23.7500 C   0  0  0  0  0  3  0  0  0  0  0  0
  -21.9340   -4.8590   22.5840 C   0  0  0  0  0  0  0  0  0  0  0  0
  -22.4100   -4.2780   21.4580 F   0  0  0  0  0  0  0  0  0  0  0  0
  -21.0890   -3.9330   26.0340 F   0  0  0  0  0  0  0  0  0  0  0  0
  -22.9340  -13.5510   21.2050 C   0  0  0  0  0  0  0  0  0  0  0  0
  -22.2380  -12.8430   22.0870 N   0  0  0  0  0  0  0  0  0  0  0  0
  -22.4940  -14.6040   20.7440 O   0  0  0  0  0  0  0  0  0  0  0  0
  -22.6110  -11.9930   22.4800 H   0  0  0  0  0  0  0  0  0  0  0  0
  -21.3210  -13.1550   22.3740 H   0  0  0  0  0  0  0  0  0  0  0  0
  -25.5530  -15.1730   20.2790 N   0  0  0  0  0  0  0  0  0  0  0  0
  -24.8030  -15.8360   20.4350 H   0  0  0  0  0  0  0  0  0  0  0  0
  -26.3880  -15.5980   19.8960 H   0  0  0  0  0  0  0  0  0  0  0  0
  -29.3000  -23.2010   21.2490 C   0  0  0  0  0  2  0  0  0  0  0  0
  -29.0060  -24.3400   20.2430 C   0  0  0  0  0  2  0  0  0  0  0  0
  -28.5680  -25.6370   20.9670 C   0  0  0  0  0  2  0  0  0  0  0  0
  -28.4380  -26.7500   20.0820 O   0  0  0  0  0  0  0  0  0  0  0  0
  -24.5230  -31.8640   23.1860 C   0  0  0  0  0  0  0  0  0  0  0  0
  -27.2520  -27.4410   20.1540 C   0  0  0  0  0  0  0  0  0  0  0  0
  -23.3490  -30.4540   21.5250 C   0  0  0  0  0  3  0  0  0  0  0  0
  -24.8340  -28.9060   20.1410 C   0  0  0  0  0  0  0  0  0  0  0  0
  -25.8750  -30.8210   21.3710 C   0  0  0  0  0  2  0  0  0  0  0  0
  -25.9790  -29.4450   20.7440 C   0  0  0  0  0  0  0  0  0  0  0  0
  -27.1910  -28.7200   20.7480 C   0  0  0  0  0  3  0  0  0  0  0  0
  -26.0940  -26.9000   19.5620 C   0  0  0  0  0  3  0  0  0  0  0  0
  -24.8840  -27.6260   19.5550 C   0  0  0  0  0  3  0  0  0  0  0  0
  -23.5860  -29.7620   20.1560 C   0  0  0  0  0  2  0  0  0  0  0  0
  -24.5990  -31.0630   22.0860 N   0  0  0  0  0  0  0  0  0  0  0  0
  -23.4310  -32.1390   23.7070 O   0  0  0  0  0  0  0  0  0  0  0  0
  -22.6830  -29.4400   22.4800 C   0  0  0  0  0  0  0  0  0  0  0  0
  -21.3580  -29.2750   22.3490 N   0  0  0  0  0  0  0  0  0  0  0  0
  -23.3580  -28.8020   23.2950 O   0  0  0  0  0  0  0  0  0  0  0  0
  -20.8740  -29.8430   21.6670 H   0  0  0  0  0  0  0  0  0  0  0  0
  -17.9600  -28.1700   22.8850 C   0  0  0  0  0  0  0  0  0  0  0  0
  -20.5270  -28.3400   23.1090 C   0  0  0  0  0  3  0  0  0  0  0  0
  -20.5730  -26.9250   22.4850 C   0  0  0  0  0  2  0  0  0  0  0  0
  -19.4390  -26.6690   21.4870 C   0  0  0  0  0  2  0  0  0  0  0  0
  -18.0780  -26.8370   22.1670 C   0  0  0  0  0  2  0  0  0  0  0  0
  -19.1100  -28.8840   23.3120 C   0  0  0  0  0  0  0  0  0  0  0  0
  -18.9440  -30.1400   23.9420 C   0  0  0  0  0  3  0  0  0  0  0  0
  -17.6620  -30.6760   24.1460 C   0  0  0  0  0  3  0  0  0  0  0  0
  -16.5240  -29.9590   23.7340 C   0  0  0  0  0  3  0  0  0  0  0  0
  -16.6750  -28.7090   23.1090 C   0  0  0  0  0  3  0  0  0  0  0  0
  -25.7990  -32.5020   23.8230 C   0  0  0  0  0  3  0  0  0  0  0  0
  -25.4840  -33.8980   24.1460 N   0  0  0  0  0  0  0  0  0  0  0  0
  -25.8400  -34.9510   23.3960 C   0  0  0  0  0  0  0  0  0  0  0  0
  -26.5400  -34.8470   22.3840 O   0  0  0  0  0  0  0  0  0  0  0  0
  -24.8700  -34.0560   24.9320 H   0  0  0  0  0  0  0  0  0  0  0  0
  -24.1390  -36.7550   22.9680 C   0  0  0  0  0  1  0  0  0  0  0  0
  -25.3390  -36.3380   23.8360 C   0  0  0  0  0  3  0  0  0  0  0  0
  -27.4330  -37.2120   24.7780 C   0  0  0  0  0  1  0  0  0  0  0  0
  -26.3830  -37.3880   23.7770 N   0  0  0  0  0  0  0  0  0  0  0  0
  -25.9730  -38.3080   23.9050 H   0  0  0  0  0  0  0  0  0  0  0  0
  -26.3010  -31.7340   25.1060 C   0  0  1  0  0  0  0  0  0  0  0  0
  -25.1960  -31.4840   26.1580 C   0  0  0  0  0  1  0  0  0  0  0  0
  -26.8980  -30.3600   24.7200 C   0  0  0  0  0  1  0  0  0  0  0  0
  -27.4340  -32.5330   25.7890 C   0  0  0  0  0  1  0  0  0  0  0  0
  1  4  2  0
  1  3  1  0
  3  2  2  0
  4  5  1  0
  5  2  1  0
  5 47  1  0
  6  3  1  0
  6  7  1  0
  8 17  1  0
  8  7  1  0
  9 17  1  0
 10 15  1  0
 11 12  1  0
 11 10  1  0
 13 12  1  0
 13 22  1  0
 13 14  1  0
 15  9  1  0
 15 14  1  0
 16  9  2  0
 17 18  1  0
 19 20  2  0
 20 39  1  0
 21 20  1  0
 21 24  1  0
 22 23  1  0
 22 19  1  0
 23 21  2  0
 24 25  1  0
 25 26  2  0
 27 30  1  0
 27 26  1  0
 28 27  2  0
 29 28  1  0
 29 24  2  0
 30 31  1  0
 31 36  2  0
 31 32  1  0
 32 33  2  0
 34 33  1  0
 34 38  1  0
 35 34  2  0
 36 35  1  0
 37 36  1  0
 39 40  1  0
 40 43  1  0
 40 42  1  0
 41 39  2  0
 44 19  1  0
 44 45  1  0
 46 44  1  0
 48 49  1  0
 48 47  1  0
 50 52  1  0
 50 49  1  0
 51 62  2  0
 52 57  1  0
 53 61  1  0
 53 63  1  0
 54 60  1  0
 54 56  1  0
 55 61  1  0
 56 57  2  0
 56 55  1  0
 58 52  2  0
 59 58  1  0
 59 54  2  0
 60 53  1  0
 61 51  1  0
 63 65  2  0
 64 63  1  0
 66 64  1  0
 67 76  2  0
 67 72  1  0
 68 64  1  0
 68 72  1  0
 69 68  1  0
 70 71  1  0
 70 69  1  0
 71 67  1  0
 72 73  2  0
 73 74  1  0
 75 74  2  0
 76 75  1  0
 77 51  1  0
 77 78  1  0
 77 87  1  0
 78 81  1  0
 79 83  1  0
 79 78  1  0
 80 79  2  0
 83 82  1  0
 85 83  1  0
 85 86  1  0
 85 84  1  0
 87 90  1  1
 87 88  1  0
 89 87  1  0
M  ISO  4   9 100  17 100  49 101  50 101
M  END
>  <TORSDO>  (50) 
F 22

>  <SCORE>  (50) 
-13.034

>  <name>  (50) 
49

>  <ligand_id>  (50) 
49

>  <original_smiles>  (50) 
[H]c1nn(C([H])([H])C([H])([H])C([H])([H])Oc2c([H])c([H])c3c(c2[H])C([H])([H])N(C(=O)C([H])(N([H])C(=O)C([H])(N([H])C([H])([H])[H])C([H])([H])[H])C(C([H])([H])[H])(C([H])([H])[H])C([H])([H])[H])C([H])(C(=O)N([H])C2([H])c4c([H])c([H])c([H])c([H])c4C([H])([H])C([H])([H])C2([H])[H])C3([H])[H])c([H])c1C([H])([H])C([H])([H])C([H])([H])N([H])C(=O)N1C([H])([H])C([H])([H])C([H])([H])C([H])(n2nc(-c3c([H])c([H])c(Oc4c([H])c([H])c(F)c([H])c4F)c([H])c3[H])c(C(=O)N([H])[H])c2N([H])[H])C1([H])[H]

>  <smiles>  (50) 
[H]c1nn(C([H])([H])C([H])([H])C([H])([H])Oc2c([H])c([H])c3c(c2[H])C([H])([H])N(C(=O)C([H])(N([H])C(=O)C([H])(N([H])C([H])([H])[H])C([H])([H])[H])C(C([H])([H])[H])(C([H])([H])[H])C([H])([H])[H])C([H])(C(=O)N([H])C2([H])c4c([H])c([H])c([H])c([H])c4C([H])([H])C([H])([H])C2([H])[H])C3([H])[H])c([H])c1C([H])([H])C([H])([H])C([H])([H])N([H])C(=O)N1C([H])([H])C([H])([H])C([H])([H])C([H])(n2nc(-c3c([H])c([H])c(Oc4c([H])c([H])c(F)c([H])c4F)c([H])c3[H])c(C(=O)N([H])[H])c2N([H])[H])C1([H])[H]

$$$$
50:0:0
     RDKit          3D

 90 98  0  0  1  0  0  0  0  0999 V2000
  -30.1270  -22.0440   21.1400 C   0  0  0  0  0  3  0  0  0  0  0  0
  -29.7100  -22.9340   20.1760 C   0  0  0  0  0  0  0  0  0  0  0  0
  -29.4070  -22.0610   19.0820 C   0  0  0  0  0  0  0  0  0  0  0  0
  -28.9670  -22.4220   17.6920 C   0  0  0  0  0  1  0  0  0  0  0  0
  -29.5970  -20.7730   19.3750 N   0  0  0  0  0  0  0  0  0  0  0  0
  -30.0510  -20.7470   20.6480 N   0  0  0  0  0  0  0  0  0  0  0  0
  -29.6950  -24.4790   20.2560 C   0  0  0  0  0  2  0  0  0  0  0  0
  -28.3500  -25.2150   19.9420 C   0  0  0  0  0  2  0  0  0  0  0  0
  -28.4040  -26.6500   20.1950 O   0  0  0  0  0  0  0  0  0  0  0  0
  -24.5920  -31.8990   23.2440 C   0  0  0  0  0  0  0  0  0  0  0  0
  -27.2280  -27.4000   20.1780 C   0  0  0  0  0  0  0  0  0  0  0  0
  -23.3800  -30.4970   21.6080 C   0  0  0  0  0  3  0  0  0  0  0  0
  -24.8290  -28.9450   20.1860 C   0  0  0  0  0  0  0  0  0  0  0  0
  -25.9120  -30.8350   21.4080 C   0  0  0  0  0  2  0  0  0  0  0  0
  -25.9930  -29.4580   20.7700 C   0  0  0  0  0  0  0  0  0  0  0  0
  -27.1910  -28.6980   20.7560 C   0  0  0  0  0  3  0  0  0  0  0  0
  -26.0340  -26.9090   19.5970 C   0  0  0  0  0  3  0  0  0  0  0  0
  -24.8480  -27.6680   19.5950 C   0  0  0  0  0  3  0  0  0  0  0  0
  -23.5880  -29.8140   20.2300 C   0  0  0  0  0  2  0  0  0  0  0  0
  -24.6470  -31.0940   22.1440 N   0  0  0  0  0  0  0  0  0  0  0  0
  -23.5120  -32.1770   23.7840 O   0  0  0  0  0  0  0  0  0  0  0  0
  -22.7240  -29.4830   22.5740 C   0  0  0  0  0  0  0  0  0  0  0  0
  -21.3990  -29.3030   22.4450 N   0  0  0  0  0  0  0  0  0  0  0  0
  -23.4040  -28.8600   23.3950 O   0  0  0  0  0  0  0  0  0  0  0  0
  -20.9100  -29.8630   21.7610 H   0  0  0  0  0  0  0  0  0  0  0  0
  -18.0230  -28.1060   22.9460 C   0  0  0  0  0  0  0  0  0  0  0  0
  -20.5810  -28.3660   23.2190 C   0  0  0  0  0  3  0  0  0  0  0  0
  -20.6830  -26.9320   22.6500 C   0  0  0  0  0  2  0  0  0  0  0  0
  -19.5810  -26.6040   21.6360 C   0  0  0  0  0  2  0  0  0  0  0  0
  -18.1990  -26.7520   22.2790 C   0  0  0  0  0  2  0  0  0  0  0  0
  -19.1410  -28.8680   23.3740 C   0  0  0  0  0  0  0  0  0  0  0  0
  -18.9250  -30.1330   23.9620 C   0  0  0  0  0  3  0  0  0  0  0  0
  -17.6210  -30.6390   24.1230 C   0  0  0  0  0  3  0  0  0  0  0  0
  -16.5160  -29.8750   23.7080 C   0  0  0  0  0  3  0  0  0  0  0  0
  -16.7180  -28.6100   23.1270 C   0  0  0  0  0  3  0  0  0  0  0  0
  -25.8800  -32.5280   23.8620 C   0  0  0  0  0  3  0  0  0  0  0  0
  -25.5730  -33.9270   24.1890 N   0  0  0  0  0  0  0  0  0  0  0  0
  -25.9120  -34.9780   23.4310 C   0  0  0  0  0  0  0  0  0  0  0  0
  -26.5870  -34.8720   22.4030 O   0  0  0  0  0  0  0  0  0  0  0  0
  -24.9690  -34.0820   24.9830 H   0  0  0  0  0  0  0  0  0  0  0  0
  -24.1970  -36.7810   23.0610 C   0  0  0  0  0  1  0  0  0  0  0  0
  -25.4280  -36.3700   23.8840 C   0  0  0  0  0  3  0  0  0  0  0  0
  -27.5580  -37.2450   24.7350 C   0  0  0  0  0  1  0  0  0  0  0  0
  -26.4670  -37.4170   23.7790 N   0  0  0  0  0  0  0  0  0  0  0  0
  -26.0640  -38.3400   23.9210 H   0  0  0  0  0  0  0  0  0  0  0  0
  -26.3960  -31.7570   25.1390 C   0  0  1  0  0  0  0  0  0  0  0  0
  -25.3040  -31.5250   26.2100 C   0  0  0  0  0  1  0  0  0  0  0  0
  -26.9730  -30.3760   24.7490 C   0  0  0  0  0  1  0  0  0  0  0  0
  -27.5460  -32.5530   25.7990 C   0  0  0  0  0  1  0  0  0  0  0  0
  -30.4640  -19.4920   21.3230 C   0  0  0  0  0  2  0  0  0  0  0  0
  -30.0410  -18.1250   20.6830 C   0  0  0  0  0  2  0  0  0  0  0  0
  -30.5600  -16.8740   21.4730 C   0  0  0  0  0  2  0  0  0  0  0  0
  -30.7050  -14.5280   20.5090 C   0  0  0  0  0  0  0  0  0  0  0  0
  -30.4180  -12.3640   19.3470 C   0  0  0  0  0  2  0  0  0  0  0  0
  -29.5050  -12.5730   18.1240 C   0  0  0  0  0  2  0  0  0  0  0  0
  -28.0190  -12.4420   18.5190 C   0  0  0  0  0  2  0  0  0  0  0  0
  -27.6570  -13.2640   19.7860 C   0  0  0  0  0  3  0  0  0  0  0  0
  -28.6940  -13.0460   20.9110 C   0  0  0  0  0  2  0  0  0  0  0  0
  -30.0240  -13.3560   20.3600 N   0  0  0  0  0  0  0  0  0  0  0  0
  -31.8440  -14.6940   20.0680 O   0  0  0  0  0  0  0  0  0  0  0  0
  -30.0230  -15.5520   21.0670 N   0  0  0  0  0  0  0  0  0  0  0  0
  -29.0720  -15.3460   21.3320 H   0  0  0  0  0  0  0  0  0  0  0  0
  -25.2410  -13.8660   20.4360 C   0  0  0  0  0  0  0  0  0  0  0  0
  -24.1680  -13.0940   20.7960 C   0  0  0  0  0  0  0  0  0  0  0  0
  -24.6360  -11.7440   20.7940 C   0  0  0  0  0  0  0  0  0  0  0  0
  -26.2940  -12.9880   20.2400 N   0  0  0  0  0  0  0  0  0  0  0  0
  -25.9340  -11.7080   20.5110 N   0  0  0  0  0  0  0  0  0  0  0  0
  -23.9120  -10.4810   20.9870 C   0  0  0  0  0  0  0  0  0  0  0  0
  -24.3290   -9.5280   21.9420 C   0  0  0  0  0  3  0  0  0  0  0  0
  -23.6040   -8.3310   22.1250 C   0  0  0  0  0  3  0  0  0  0  0  0
  -22.4450   -8.0790   21.3540 C   0  0  0  0  0  0  0  0  0  0  0  0
  -22.0470   -9.0200   20.3880 C   0  0  0  0  0  3  0  0  0  0  0  0
  -22.7740  -10.2090   20.2030 C   0  0  0  0  0  3  0  0  0  0  0  0
  -21.6930   -6.9320   21.4430 O   0  0  0  0  0  0  0  0  0  0  0  0
  -21.6240   -6.2050   22.6040 C   0  0  0  0  0  0  0  0  0  0  0  0
  -21.1600   -6.7680   23.8130 C   0  0  0  0  0  3  0  0  0  0  0  0
  -21.0440   -5.9670   24.9660 C   0  0  0  0  0  3  0  0  0  0  0  0
  -21.3760   -4.6020   24.9100 C   0  0  0  0  0  0  0  0  0  0  0  0
  -21.8250   -4.0340   23.7060 C   0  0  0  0  0  3  0  0  0  0  0  0
  -21.9490   -4.8330   22.5560 C   0  0  0  0  0  0  0  0  0  0  0  0
  -22.3650   -4.2770   21.3920 F   0  0  0  0  0  0  0  0  0  0  0  0
  -21.2540   -3.8290   26.0140 F   0  0  0  0  0  0  0  0  0  0  0  0
  -22.7620  -13.5680   21.0300 C   0  0  0  0  0  0  0  0  0  0  0  0
  -22.0170  -12.8800   21.8900 N   0  0  0  0  0  0  0  0  0  0  0  0
  -22.3320  -14.5850   20.4880 O   0  0  0  0  0  0  0  0  0  0  0  0
  -22.3730  -12.0520   22.3450 H   0  0  0  0  0  0  0  0  0  0  0  0
  -21.0750  -13.1840   22.0920 H   0  0  0  0  0  0  0  0  0  0  0  0
  -25.4030  -15.2340   20.2410 N   0  0  0  0  0  0  0  0  0  0  0  0
  -24.6290  -15.8840   20.3290 H   0  0  0  0  0  0  0  0  0  0  0  0
  -26.2560  -15.6780   19.9250 H   0  0  0  0  0  0  0  0  0  0  0  0
  2  7  1  0
  2  1  2  0
  3  5  2  0
  3  2  1  0
  4  3  1  0
  5  6  1  0
  6  1  1  0
  6 50  1  0
  8  9  1  0
  8  7  1  0
 10 21  2  0
 11  9  1  0
 11 16  1  0
 12 20  1  0
 12 22  1  0
 13 19  1  0
 13 15  1  0
 14 20  1  0
 15 14  1  0
 16 15  2  0
 17 11  2  0
 18 17  1  0
 18 13  2  0
 19 12  1  0
 20 10  1  0
 22 24  2  0
 23 22  1  0
 25 23  1  0
 26 35  2  0
 26 31  1  0
 27 23  1  0
 27 31  1  0
 28 27  1  0
 29 30  1  0
 29 28  1  0
 30 26  1  0
 31 32  2  0
 32 33  1  0
 34 33  2  0
 35 34  1  0
 36 10  1  0
 36 37  1  0
 36 46  1  0
 37 40  1  0
 38 42  1  0
 38 37  1  0
 39 38  2  0
 42 41  1  0
 44 42  1  0
 44 45  1  0
 44 43  1  0
 46 49  1  1
 46 47  1  0
 48 46  1  0
 51 50  1  0
 51 52  1  0
 53 61  1  0
 54 59  1  0
 55 56  1  0
 55 54  1  0
 57 56  1  0
 57 66  1  0
 57 58  1  0
 59 53  1  0
 59 58  1  0
 60 53  2  0
 61 62  1  0
 61 52  1  0
 63 64  2  0
 64 83  1  0
 65 64  1  0
 65 68  1  0
 66 63  1  0
 66 67  1  0
 67 65  2  0
 68 69  1  0
 69 70  2  0
 71 74  1  0
 71 70  1  0
 72 71  2  0
 73 72  1  0
 73 68  2  0
 74 75  1  0
 75 76  1  0
 76 77  2  0
 78 77  1  0
 78 82  1  0
 79 78  2  0
 80 75  2  0
 80 79  1  0
 81 80  1  0
 83 84  1  0
 84 87  1  0
 84 86  1  0
 85 83  2  0
 88 89  1  0
 88 63  1  0
 90 88  1  0
M  ISO  4   8 101   9 101  53 100  61 100
M  END
>  <TORSDO>  (51) 
F 21

>  <SCORE>  (51) 
-13.457

>  <name>  (51) 
50

>  <ligand_id>  (51) 
50

>  <original_smiles>  (51) 
[H]c1c([H])c([H])c2c(c1[H])C([H])([H])C([H])([H])C([H])([H])C2([H])N([H])C(=O)C1([H])N(C(=O)C([H])(N([H])C(=O)C([H])(N([H])C([H])([H])[H])C([H])([H])[H])C(C([H])([H])[H])(C([H])([H])[H])C([H])([H])[H])C([H])([H])c2c([H])c(OC([H])([H])C([H])([H])c3c(C([H])([H])[H])nn(C([H])([H])C([H])([H])C([H])([H])N([H])C(=O)N4C([H])([H])C([H])([H])C([H])([H])C([H])(n5nc(-c6c([H])c([H])c(Oc7c([H])c([H])c(F)c([H])c7F)c([H])c6[H])c(C(=O)N([H])[H])c5N([H])[H])C4([H])[H])c3[H])c([H])c([H])c2C1([H])[H]

>  <smiles>  (51) 
[H]c1c([H])c([H])c2c(c1[H])C([H])([H])C([H])([H])C([H])([H])C2([H])N([H])C(=O)C1([H])N(C(=O)C([H])(N([H])C(=O)C([H])(N([H])C([H])([H])[H])C([H])([H])[H])C(C([H])([H])[H])(C([H])([H])[H])C([H])([H])[H])C([H])([H])c2c([H])c(OC([H])([H])C([H])([H])c3c(C([H])([H])[H])nn(C([H])([H])C([H])([H])C([H])([H])N([H])C(=O)N4C([H])([H])C([H])([H])C([H])([H])C([H])(n5nc(-c6c([H])c([H])c(Oc7c([H])c([H])c(F)c([H])c7F)c([H])c6[H])c(C(=O)N([H])[H])c5N([H])[H])C4([H])[H])c3[H])c([H])c([H])c2C1([H])[H]

$$$$
51:0:0
     RDKit          3D

 95103  0  0  1  0  0  0  0  0999 V2000
  -29.4740  -22.3960   19.6640 C   0  0  0  0  0  3  0  0  0  0  0  0
  -28.9160  -22.4900   18.3570 C   0  0  0  0  0  0  0  0  0  0  0  0
  -29.2270  -23.7660   17.9680 C   0  0  0  0  0  0  0  0  0  0  0  0
  -28.9760  -24.4420   16.6600 C   0  0  0  0  0  1  0  0  0  0  0  0
  -30.0240  -23.5290   20.0690 N   0  0  0  0  0  0  0  0  0  0  0  0
  -29.8500  -24.3870   19.0400 N   0  0  0  0  0  0  0  0  0  0  0  0
  -28.1740  -21.4450   17.5530 C   0  0  0  0  0  2  0  0  0  0  0  0
  -28.3890  -19.9970   18.0290 C   0  0  0  0  0  2  0  0  0  0  0  0
  -27.5240  -19.5800   19.2420 C   0  0  0  0  0  2  0  0  0  0  0  0
  -26.0450  -17.6620   19.9940 C   0  0  0  0  0  1  0  0  0  0  0  0
  -27.4360  -18.0490   19.4620 C   0  0  0  0  0  3  0  0  0  0  0  0
  -28.5100  -17.4430   20.3910 C   0  0  0  0  0  2  0  0  0  0  0  0
  -29.9540  -17.4460   19.8610 C   0  0  0  0  0  2  0  0  0  0  0  0
  -30.9090  -16.6070   20.7310 C   0  0  0  0  0  2  0  0  0  0  0  0
  -31.1450  -14.1520   20.3330 C   0  0  0  0  0  0  0  0  0  0  0  0
  -30.8480  -11.8820   19.4360 C   0  0  0  0  0  2  0  0  0  0  0  0
  -29.9460  -11.9230   18.1860 C   0  0  0  0  0  2  0  0  0  0  0  0
  -28.4540  -11.8910   18.5690 C   0  0  0  0  0  2  0  0  0  0  0  0
  -28.0940  -12.8920   19.7000 C   0  0  0  0  0  3  0  0  0  0  0  0
  -29.1010  -12.7740   20.8670 C   0  0  0  0  0  2  0  0  0  0  0  0
  -30.4520  -12.9870   20.3190 N   0  0  0  0  0  0  0  0  0  0  0  0
  -32.2740  -14.2740   19.8460 O   0  0  0  0  0  0  0  0  0  0  0  0
  -30.4730  -15.2100   20.8030 N   0  0  0  0  0  0  0  0  0  0  0  0
  -29.5440  -15.0290   21.1510 H   0  0  0  0  0  0  0  0  0  0  0  0
  -25.7020  -13.6450   20.2980 C   0  0  0  0  0  0  0  0  0  0  0  0
  -24.5890  -12.9450   20.6710 C   0  0  0  0  0  0  0  0  0  0  0  0
  -24.9850  -11.5710   20.7160 C   0  0  0  0  0  0  0  0  0  0  0  0
  -26.7130  -12.7090   20.1490 N   0  0  0  0  0  0  0  0  0  0  0  0
  -26.2800  -11.4580   20.4500 N   0  0  0  0  0  0  0  0  0  0  0  0
  -24.1970  -10.3530   20.9360 C   0  0  0  0  0  0  0  0  0  0  0  0
  -24.5650   -9.4040   21.9170 C   0  0  0  0  0  3  0  0  0  0  0  0
  -23.7810   -8.2490   22.1220 C   0  0  0  0  0  3  0  0  0  0  0  0
  -22.6160   -8.0340   21.3480 C   0  0  0  0  0  0  0  0  0  0  0  0
  -22.2690   -8.9700   20.3570 C   0  0  0  0  0  3  0  0  0  0  0  0
  -23.0520  -10.1180   20.1500 C   0  0  0  0  0  3  0  0  0  0  0  0
  -21.8030   -6.9320   21.4640 O   0  0  0  0  0  0  0  0  0  0  0  0
  -21.6980   -6.2360   22.6400 C   0  0  0  0  0  0  0  0  0  0  0  0
  -21.2950   -6.8590   23.8440 C   0  0  0  0  0  3  0  0  0  0  0  0
  -21.1370   -6.0910   25.0160 C   0  0  0  0  0  3  0  0  0  0  0  0
  -21.3680   -4.7030   24.9830 C   0  0  0  0  0  0  0  0  0  0  0  0
  -21.7630   -4.0800   23.7860 C   0  0  0  0  0  3  0  0  0  0  0  0
  -21.9250   -4.8450   22.6170 C   0  0  0  0  0  0  0  0  0  0  0  0
  -22.2850   -4.2380   21.4620 F   0  0  0  0  0  0  0  0  0  0  0  0
  -21.2070   -3.9620   26.1050 F   0  0  0  0  0  0  0  0  0  0  0  0
  -23.2080  -13.4950   20.8790 C   0  0  0  0  0  0  0  0  0  0  0  0
  -22.4300  -12.8750   21.7590 N   0  0  0  0  0  0  0  0  0  0  0  0
  -22.8300  -14.5110   20.2970 O   0  0  0  0  0  0  0  0  0  0  0  0
  -22.7520  -12.0570   22.2550 H   0  0  0  0  0  0  0  0  0  0  0  0
  -21.4970  -13.2190   21.9360 H   0  0  0  0  0  0  0  0  0  0  0  0
  -25.9420  -14.9910   20.0470 N   0  0  0  0  0  0  0  0  0  0  0  0
  -25.2080  -15.6910   20.0710 H   0  0  0  0  0  0  0  0  0  0  0  0
  -26.8110  -15.3410   19.6670 H   0  0  0  0  0  0  0  0  0  0  0  0
  -30.3490  -25.7510   19.1610 C   0  0  0  0  0  2  0  0  0  0  0  0
  -29.2280  -26.8080   19.1950 C   0  0  0  0  0  2  0  0  0  0  0  0
  -28.4680  -26.7160   20.3970 O   0  0  0  0  0  0  0  0  0  0  0  0
  -24.5980  -31.9360   23.3040 C   0  0  0  0  0  0  0  0  0  0  0  0
  -27.3030  -27.4380   20.3760 C   0  0  0  0  0  0  0  0  0  0  0  0
  -23.4240  -30.5040   21.6620 C   0  0  0  0  0  3  0  0  0  0  0  0
  -24.9060  -28.9210   20.3140 C   0  0  0  0  0  0  0  0  0  0  0  0
  -25.9540  -30.8460   21.5220 C   0  0  0  0  0  2  0  0  0  0  0  0
  -26.0470  -29.4600   20.9200 C   0  0  0  0  0  0  0  0  0  0  0  0
  -27.2470  -28.7180   20.9630 C   0  0  0  0  0  3  0  0  0  0  0  0
  -26.1460  -26.8960   19.7800 C   0  0  0  0  0  3  0  0  0  0  0  0
  -24.9450  -27.6320   19.7480 C   0  0  0  0  0  3  0  0  0  0  0  0
  -23.6640  -29.7850   20.3060 C   0  0  0  0  0  2  0  0  0  0  0  0
  -24.6750  -31.1110   22.2220 N   0  0  0  0  0  0  0  0  0  0  0  0
  -23.5060  -32.2290   23.8090 O   0  0  0  0  0  0  0  0  0  0  0  0
  -22.7400  -29.5110   22.6280 C   0  0  0  0  0  0  0  0  0  0  0  0
  -21.4140  -29.3540   22.4850 N   0  0  0  0  0  0  0  0  0  0  0  0
  -23.3990  -28.8850   23.4630 O   0  0  0  0  0  0  0  0  0  0  0  0
  -20.9460  -29.9100   21.7820 H   0  0  0  0  0  0  0  0  0  0  0  0
  -18.0080  -28.2510   22.9570 C   0  0  0  0  0  0  0  0  0  0  0  0
  -20.5680  -28.4450   23.2550 C   0  0  0  0  0  3  0  0  0  0  0  0
  -20.6410  -27.0060   22.6940 C   0  0  0  0  0  2  0  0  0  0  0  0
  -19.5410  -26.7000   21.6720 C   0  0  0  0  0  2  0  0  0  0  0  0
  -18.1560  -26.8890   22.2990 C   0  0  0  0  0  2  0  0  0  0  0  0
  -19.1410  -28.9870   23.3930 C   0  0  0  0  0  0  0  0  0  0  0  0
  -18.9470  -30.2630   23.9660 C   0  0  0  0  0  3  0  0  0  0  0  0
  -17.6550  -30.8000   24.1110 C   0  0  0  0  0  3  0  0  0  0  0  0
  -16.5360  -30.0590   23.6930 C   0  0  0  0  0  3  0  0  0  0  0  0
  -16.7130  -28.7870   23.1220 C   0  0  0  0  0  3  0  0  0  0  0  0
  -25.8740  -32.5700   23.9420 C   0  0  0  0  0  3  0  0  0  0  0  0
  -26.3610  -31.8180   25.2410 C   0  0  1  0  0  0  0  0  0  0  0  0
  -25.2420  -31.5990   26.2860 C   0  0  0  0  0  1  0  0  0  0  0  0
  -26.9480  -30.4330   24.8800 C   0  0  0  0  0  1  0  0  0  0  0  0
  -27.4980  -32.6180   25.9170 C   0  0  0  0  0  1  0  0  0  0  0  0
  -25.5680  -33.9750   24.2390 N   0  0  0  0  0  0  0  0  0  0  0  0
  -25.9270  -35.0110   23.4680 C   0  0  0  0  0  0  0  0  0  0  0  0
  -26.6200  -34.8830   22.4550 O   0  0  0  0  0  0  0  0  0  0  0  0
  -24.9550  -34.1480   25.0220 H   0  0  0  0  0  0  0  0  0  0  0  0
  -24.2140  -36.8000   23.0430 C   0  0  0  0  0  1  0  0  0  0  0  0
  -25.4380  -36.4090   23.8870 C   0  0  0  0  0  3  0  0  0  0  0  0
  -27.5640  -37.2950   24.7360 C   0  0  0  0  0  1  0  0  0  0  0  0
  -26.4770  -37.4550   23.7720 N   0  0  0  0  0  0  0  0  0  0  0  0
  -26.0750  -38.3790   23.8990 H   0  0  0  0  0  0  0  0  0  0  0  0
  1  5  2  0
  2  1  1  0
  3  2  2  0
  3  6  1  0
  4  3  1  0
  6 53  1  0
  6  5  1  0
  7  8  1  0
  7  2  1  0
  8  9  1  0
  9 11  1  0
 11 10  1  0
 11 12  1  0
 13 12  1  0
 13 14  1  0
 14 23  1  0
 15 23  1  0
 16 21  1  0
 17 18  1  0
 17 16  1  0
 19 18  1  0
 19 28  1  0
 19 20  1  0
 21 15  1  0
 21 20  1  0
 22 15  2  0
 23 24  1  0
 25 26  2  0
 26 27  1  0
 26 45  1  0
 27 30  1  0
 28 25  1  0
 28 29  1  0
 29 27  2  0
 30 31  1  0
 31 32  2  0
 33 36  1  0
 33 32  1  0
 34 33  2  0
 35 34  1  0
 35 30  2  0
 36 37  1  0
 37 38  1  0
 38 39  2  0
 40 39  1  0
 40 44  1  0
 41 40  2  0
 42 37  2  0
 42 41  1  0
 43 42  1  0
 45 46  1  0
 46 49  1  0
 46 48  1  0
 47 45  2  0
 50 51  1  0
 50 25  1  0
 52 50  1  0
 53 54  1  0
 54 55  1  0
 56 67  2  0
 57 55  1  0
 57 62  1  0
 58 66  1  0
 58 68  1  0
 59 61  1  0
 60 66  1  0
 61 62  2  0
 61 60  1  0
 63 57  2  0
 64 63  1  0
 64 59  2  0
 65 59  1  0
 65 58  1  0
 66 56  1  0
 68 70  2  0
 69 68  1  0
 71 69  1  0
 72 81  2  0
 72 77  1  0
 73 69  1  0
 73 77  1  0
 74 73  1  0
 75 76  1  0
 75 74  1  0
 76 72  1  0
 77 78  2  0
 78 79  1  0
 80 79  2  0
 81 80  1  0
 82 56  1  0
 82 87  1  0
 82 83  1  0
 83 86  1  1
 83 84  1  0
 85 83  1  0
 87 90  1  0
 88 92  1  0
 88 87  1  0
 89 88  2  0
 92 91  1  0
 94 92  1  0
 94 95  1  0
 94 93  1  0
M  ISO  4  15 100  23 100  54 101  55 101
M  END
>  <TORSDO>  (52) 
F 25

>  <SCORE>  (52) 
-12.055

>  <name>  (52) 
51

>  <ligand_id>  (52) 
51

>  <original_smiles>  (52) 
[H]c1nn(C([H])([H])C([H])([H])Oc2c([H])c([H])c3c(c2[H])C([H])([H])N(C(=O)C([H])(N([H])C(=O)C([H])(N([H])C([H])([H])[H])C([H])([H])[H])C(C([H])([H])[H])(C([H])([H])[H])C([H])([H])[H])C([H])(C(=O)N([H])C2([H])c4c([H])c([H])c([H])c([H])c4C([H])([H])C([H])([H])C2([H])[H])C3([H])[H])c(C([H])([H])[H])c1C([H])([H])C([H])([H])C([H])([H])C([H])(C([H])([H])[H])C([H])([H])C([H])([H])C([H])([H])N([H])C(=O)N1C([H])([H])C([H])([H])C([H])([H])C([H])(n2nc(-c3c([H])c([H])c(Oc4c([H])c([H])c(F)c([H])c4F)c([H])c3[H])c(C(=O)N([H])[H])c2N([H])[H])C1([H])[H]

>  <smiles>  (52) 
[H]c1nn(C([H])([H])C([H])([H])Oc2c([H])c([H])c3c(c2[H])C([H])([H])N(C(=O)C([H])(N([H])C(=O)C([H])(N([H])C([H])([H])[H])C([H])([H])[H])C(C([H])([H])[H])(C([H])([H])[H])C([H])([H])[H])C([H])(C(=O)N([H])C2([H])c4c([H])c([H])c([H])c([H])c4C([H])([H])C([H])([H])C2([H])[H])C3([H])[H])c(C([H])([H])[H])c1C([H])([H])C([H])([H])C([H])([H])C([H])(C([H])([H])[H])C([H])([H])C([H])([H])C([H])([H])N([H])C(=O)N1C([H])([H])C([H])([H])C([H])([H])C([H])(n2nc(-c3c([H])c([H])c(Oc4c([H])c([H])c(F)c([H])c4F)c([H])c3[H])c(C(=O)N([H])[H])c2N([H])[H])C1([H])[H]

$$$$
52:0:0
     RDKit          3D

 91 99  0  0  1  0  0  0  0  0999 V2000
  -29.4360  -21.2480   20.8690 C   0  0  0  0  0  3  0  0  0  0  0  0
  -28.3240  -22.1270   20.8770 C   0  0  0  0  0  0  0  0  0  0  0  0
  -29.0830  -20.2630   19.9950 C   0  0  0  0  0  0  0  0  0  0  0  0
  -26.9990  -19.8670   18.5640 C   0  0  0  0  0  1  0  0  0  0  0  0
  -27.3450  -21.7050   20.0910 N   0  0  0  0  0  0  0  0  0  0  0  0
  -27.8140  -20.5630   19.5390 N   0  0  0  0  0  0  0  0  0  0  0  0
  -28.2250  -23.4510   21.5710 C   0  0  0  0  0  2  0  0  0  0  0  0
  -28.3670  -24.5750   20.5420 C   0  0  0  0  0  2  0  0  0  0  0  0
  -28.6170  -25.9520   21.1550 C   0  0  0  0  0  2  0  0  0  0  0  0
  -28.5060  -26.9110   20.1120 O   0  0  0  0  0  0  0  0  0  0  0  0
  -24.5740  -31.8940   23.2720 C   0  0  0  0  0  0  0  0  0  0  0  0
  -27.3210  -27.5960   20.1280 C   0  0  0  0  0  0  0  0  0  0  0  0
  -23.4050  -30.5180   21.5760 C   0  0  0  0  0  3  0  0  0  0  0  0
  -24.8990  -29.0290   20.1440 C   0  0  0  0  0  0  0  0  0  0  0  0
  -25.9230  -30.9190   21.4240 C   0  0  0  0  0  2  0  0  0  0  0  0
  -26.0350  -29.5640   20.7630 C   0  0  0  0  0  0  0  0  0  0  0  0
  -27.2500  -28.8510   20.7620 C   0  0  0  0  0  3  0  0  0  0  0  0
  -26.1770  -27.0600   19.5030 C   0  0  0  0  0  3  0  0  0  0  0  0
  -24.9610  -27.7700   19.5160 C   0  0  0  0  0  3  0  0  0  0  0  0
  -23.6430  -29.8680   20.1860 C   0  0  0  0  0  2  0  0  0  0  0  0
  -24.6510  -31.1230   22.1510 N   0  0  0  0  0  0  0  0  0  0  0  0
  -23.4820  -32.1430   23.8010 O   0  0  0  0  0  0  0  0  0  0  0  0
  -22.7510  -29.4710   22.5030 C   0  0  0  0  0  0  0  0  0  0  0  0
  -21.4260  -29.3000   22.3680 N   0  0  0  0  0  0  0  0  0  0  0  0
  -23.4310  -28.8160   23.2970 O   0  0  0  0  0  0  0  0  0  0  0  0
  -20.9380  -29.8830   21.7020 H   0  0  0  0  0  0  0  0  0  0  0  0
  -18.0420  -28.1420   22.8570 C   0  0  0  0  0  0  0  0  0  0  0  0
  -20.6060  -28.3400   23.1030 C   0  0  0  0  0  3  0  0  0  0  0  0
  -20.6740  -26.9370   22.4570 C   0  0  0  0  0  2  0  0  0  0  0  0
  -19.5500  -26.6800   21.4480 C   0  0  0  0  0  2  0  0  0  0  0  0
  -18.1840  -26.8190   22.1240 C   0  0  0  0  0  2  0  0  0  0  0  0
  -19.1800  -28.8630   23.3060 C   0  0  0  0  0  0  0  0  0  0  0  0
  -18.9940  -30.1020   23.9540 C   0  0  0  0  0  3  0  0  0  0  0  0
  -17.7030  -30.6230   24.1580 C   0  0  0  0  0  3  0  0  0  0  0  0
  -16.5780  -29.8990   23.7250 C   0  0  0  0  0  3  0  0  0  0  0  0
  -16.7490  -28.6600   23.0820 C   0  0  0  0  0  3  0  0  0  0  0  0
  -25.8470  -32.5180   23.9260 C   0  0  0  0  0  3  0  0  0  0  0  0
  -25.5440  -33.9220   24.2290 N   0  0  0  0  0  0  0  0  0  0  0  0
  -25.9050  -34.9590   23.4600 C   0  0  0  0  0  0  0  0  0  0  0  0
  -26.6020  -34.8330   22.4490 O   0  0  0  0  0  0  0  0  0  0  0  0
  -24.9330  -34.0950   25.0120 H   0  0  0  0  0  0  0  0  0  0  0  0
  -24.1990  -36.7540   23.0350 C   0  0  0  0  0  1  0  0  0  0  0  0
  -25.4180  -36.3580   23.8810 C   0  0  0  0  0  3  0  0  0  0  0  0
  -27.5380  -37.2450   24.7450 C   0  0  0  0  0  1  0  0  0  0  0  0
  -26.4610  -37.4010   23.7720 N   0  0  0  0  0  0  0  0  0  0  0  0
  -26.0570  -38.3260   23.8910 H   0  0  0  0  0  0  0  0  0  0  0  0
  -26.3190  -31.7550   25.2240 C   0  0  1  0  0  0  0  0  0  0  0  0
  -25.1920  -31.5330   26.2590 C   0  0  0  0  0  1  0  0  0  0  0  0
  -26.9050  -30.3700   24.8590 C   0  0  0  0  0  1  0  0  0  0  0  0
  -27.4540  -32.5470   25.9160 C   0  0  0  0  0  1  0  0  0  0  0  0
  -29.8810  -19.0860   19.5550 C   0  0  0  0  0  2  0  0  0  0  0  0
  -29.6340  -17.8240   20.3920 C   0  0  0  0  0  2  0  0  0  0  0  0
  -30.8100  -16.8550   20.2450 C   0  0  0  0  0  2  0  0  0  0  0  0
  -31.1930  -14.4600   20.3030 C   0  0  0  0  0  0  0  0  0  0  0  0
  -30.7880  -12.3340   19.1670 C   0  0  0  0  0  2  0  0  0  0  0  0
  -29.8560  -12.6160   17.9710 C   0  0  0  0  0  2  0  0  0  0  0  0
  -28.3770  -12.5550   18.4030 C   0  0  0  0  0  2  0  0  0  0  0  0
  -28.0850  -13.3910   19.6780 C   0  0  0  0  0  3  0  0  0  0  0  0
  -29.1310  -13.0970   20.7790 C   0  0  0  0  0  2  0  0  0  0  0  0
  -30.4710  -13.3170   20.2090 N   0  0  0  0  0  0  0  0  0  0  0  0
  -32.3220  -14.6050   19.8300 O   0  0  0  0  0  0  0  0  0  0  0  0
  -30.4920  -15.5170   20.7180 N   0  0  0  0  0  0  0  0  0  0  0  0
  -29.5700  -15.3460   21.0900 H   0  0  0  0  0  0  0  0  0  0  0  0
  -25.7080  -14.0990   20.3800 C   0  0  0  0  0  0  0  0  0  0  0  0
  -24.6110  -13.3700   20.7530 C   0  0  0  0  0  0  0  0  0  0  0  0
  -25.0190  -12.0020   20.7250 C   0  0  0  0  0  0  0  0  0  0  0  0
  -26.7190  -13.1760   20.1530 N   0  0  0  0  0  0  0  0  0  0  0  0
  -26.3050  -11.9090   20.4120 N   0  0  0  0  0  0  0  0  0  0  0  0
  -24.2450  -10.7670   20.9150 C   0  0  0  0  0  0  0  0  0  0  0  0
  -24.6300   -9.7940   21.8620 C   0  0  0  0  0  3  0  0  0  0  0  0
  -23.8580   -8.6250   22.0420 C   0  0  0  0  0  3  0  0  0  0  0  0
  -22.6890   -8.4230   21.2710 C   0  0  0  0  0  0  0  0  0  0  0  0
  -22.3230   -9.3850   20.3130 C   0  0  0  0  0  3  0  0  0  0  0  0
  -23.0950  -10.5440   20.1320 C   0  0  0  0  0  3  0  0  0  0  0  0
  -21.8930   -7.3050   21.3580 O   0  0  0  0  0  0  0  0  0  0  0  0
  -21.7910   -6.5840   22.5190 C   0  0  0  0  0  0  0  0  0  0  0  0
  -21.3420   -7.1680   23.7240 C   0  0  0  0  0  3  0  0  0  0  0  0
  -21.1840   -6.3750   24.8770 C   0  0  0  0  0  3  0  0  0  0  0  0
  -21.4660   -4.9970   24.8290 C   0  0  0  0  0  0  0  0  0  0  0  0
  -21.9100   -4.4100   23.6290 C   0  0  0  0  0  3  0  0  0  0  0  0
  -22.0690   -5.2020   22.4780 C   0  0  0  0  0  0  0  0  0  0  0  0
  -22.4750   -4.6280   21.3200 F   0  0  0  0  0  0  0  0  0  0  0  0
  -21.3080   -4.2330   25.9340 F   0  0  0  0  0  0  0  0  0  0  0  0
  -23.2330  -13.9020   21.0290 C   0  0  0  0  0  0  0  0  0  0  0  0
  -22.4860  -13.2370   21.9020 N   0  0  0  0  0  0  0  0  0  0  0  0
  -22.8300  -14.9410   20.5080 O   0  0  0  0  0  0  0  0  0  0  0  0
  -22.8240  -12.3960   22.3480 H   0  0  0  0  0  0  0  0  0  0  0  0
  -21.5610  -13.5740   22.1290 H   0  0  0  0  0  0  0  0  0  0  0  0
  -25.9240  -15.4630   20.1960 N   0  0  0  0  0  0  0  0  0  0  0  0
  -25.1810  -16.1440   20.2930 H   0  0  0  0  0  0  0  0  0  0  0  0
  -26.7810  -15.8620   19.8340 H   0  0  0  0  0  0  0  0  0  0  0  0
  1  2  1  0
  2  7  1  0
  3  1  2  0
  4  6  1  0
  5  2  2  0
  6  3  1  0
  6  5  1  0
  8  9  1  0
  8  7  1  0
 10 12  1  0
 10  9  1  0
 11 22  2  0
 12 17  1  0
 13 21  1  0
 13 23  1  0
 14 20  1  0
 14 16  1  0
 15 21  1  0
 16 15  1  0
 17 16  2  0
 18 19  1  0
 18 12  2  0
 19 14  2  0
 20 13  1  0
 21 11  1  0
 23 25  2  0
 24 23  1  0
 26 24  1  0
 27 36  2  0
 27 32  1  0
 28 24  1  0
 28 32  1  0
 29 28  1  0
 30 31  1  0
 30 29  1  0
 31 27  1  0
 32 33  2  0
 33 34  1  0
 35 34  2  0
 36 35  1  0
 37 11  1  0
 37 38  1  0
 37 47  1  0
 38 41  1  0
 39 43  1  0
 39 38  1  0
 40 39  2  0
 43 42  1  0
 45 43  1  0
 45 46  1  0
 45 44  1  0
 47 50  1  1
 47 48  1  0
 49 47  1  0
 51  3  1  0
 51 52  1  0
 53 52  1  0
 53 62  1  0
 54 62  1  0
 55 60  1  0
 56 57  1  0
 56 55  1  0
 58 57  1  0
 58 67  1  0
 58 59  1  0
 60 54  1  0
 60 59  1  0
 61 54  2  0
 62 63  1  0
 64 65  2  0
 65 84  1  0
 66 65  1  0
 66 69  1  0
 67 64  1  0
 67 68  1  0
 68 66  2  0
 69 70  1  0
 70 71  2  0
 72 75  1  0
 72 71  1  0
 73 72  2  0
 74 73  1  0
 74 69  2  0
 75 76  1  0
 76 77  1  0
 77 78  2  0
 79 78  1  0
 79 83  1  0
 80 79  2  0
 81 76  2  0
 81 80  1  0
 82 81  1  0
 84 85  1  0
 85 88  1  0
 85 87  1  0
 86 84  2  0
 89 90  1  0
 89 64  1  0
 91 89  1  0
M  ISO  4   9 101  10 101  54 100  62 100
M  END
>  <TORSDO>  (53) 
F 22

>  <SCORE>  (53) 
-12.983

>  <name>  (53) 
52

>  <ligand_id>  (53) 
52

>  <original_smiles>  (53) 
[H]c1c([H])c([H])c2c(c1[H])C([H])([H])C([H])([H])C([H])([H])C2([H])N([H])C(=O)C1([H])N(C(=O)C([H])(N([H])C(=O)C([H])(N([H])C([H])([H])[H])C([H])([H])[H])C(C([H])([H])[H])(C([H])([H])[H])C([H])([H])[H])C([H])([H])c2c([H])c(OC([H])([H])C([H])([H])C([H])([H])c3nn(C([H])([H])[H])c(C([H])([H])C([H])([H])C([H])([H])N([H])C(=O)N4C([H])([H])C([H])([H])C([H])([H])C([H])(n5nc(-c6c([H])c([H])c(Oc7c([H])c([H])c(F)c([H])c7F)c([H])c6[H])c(C(=O)N([H])[H])c5N([H])[H])C4([H])[H])c3[H])c([H])c([H])c2C1([H])[H]

>  <smiles>  (53) 
[H]c1c([H])c([H])c2c(c1[H])C([H])([H])C([H])([H])C([H])([H])C2([H])N([H])C(=O)C1([H])N(C(=O)C([H])(N([H])C(=O)C([H])(N([H])C([H])([H])[H])C([H])([H])[H])C(C([H])([H])[H])(C([H])([H])[H])C([H])([H])[H])C([H])([H])c2c([H])c(OC([H])([H])C([H])([H])C([H])([H])c3nn(C([H])([H])[H])c(C([H])([H])C([H])([H])C([H])([H])N([H])C(=O)N4C([H])([H])C([H])([H])C([H])([H])C([H])(n5nc(-c6c([H])c([H])c(Oc7c([H])c([H])c(F)c([H])c7F)c([H])c6[H])c(C(=O)N([H])[H])c5N([H])[H])C4([H])[H])c3[H])c([H])c([H])c2C1([H])[H]

$$$$
53:0:0
     RDKit          3D

 92100  0  0  1  0  0  0  0  0999 V2000
  -31.5260  -20.9280   20.3840 C   0  0  0  0  0  3  0  0  0  0  0  0
  -31.2980  -22.1740   19.7790 C   0  0  0  0  0  3  0  0  0  0  0  0
  -30.7320  -20.5520   21.4850 C   0  0  0  0  0  0  0  0  0  0  0  0
  -30.2890  -23.0020   20.2990 C   0  0  0  0  0  0  0  0  0  0  0  0
  -29.7230  -21.4370   21.9260 C   0  0  0  0  0  0  0  0  0  0  0  0
  -28.7840  -21.0890   23.0680 C   0  0  0  0  0  1  0  0  0  0  0  0
  -29.5160  -22.6400   21.3480 N   0  0  0  0  0  0  0  0  0  0  0  0
  -31.0040  -19.2150   22.1600 C   0  0  0  0  0  2  0  0  0  0  0  0
  -30.4620  -18.0270   21.3600 C   0  0  0  0  0  2  0  0  0  0  0  0
  -30.9520  -16.7170   21.9950 C   0  0  0  0  0  2  0  0  0  0  0  0
  -30.9980  -14.7740   20.4180 C   0  0  0  0  0  0  0  0  0  0  0  0
  -30.6880  -12.7110   19.0960 C   0  0  0  0  0  2  0  0  0  0  0  0
  -29.7090  -12.9750   17.9350 C   0  0  0  0  0  2  0  0  0  0  0  0
  -28.2390  -12.8320   18.3890 C   0  0  0  0  0  2  0  0  0  0  0  0
  -27.9390  -13.6100   19.6990 C   0  0  0  0  0  3  0  0  0  0  0  0
  -29.0070  -13.2750   20.7580 C   0  0  0  0  0  2  0  0  0  0  0  0
  -30.3260  -13.6200   20.1890 N   0  0  0  0  0  0  0  0  0  0  0  0
  -32.0450  -15.0880   19.8420 O   0  0  0  0  0  0  0  0  0  0  0  0
  -30.4090  -15.5440   21.3380 N   0  0  0  0  0  0  0  0  0  0  0  0
  -29.5300  -15.1970   21.6940 H   0  0  0  0  0  0  0  0  0  0  0  0
  -25.5610  -14.2270   20.4900 C   0  0  0  0  0  0  0  0  0  0  0  0
  -24.4930  -13.4540   20.8600 C   0  0  0  0  0  0  0  0  0  0  0  0
  -24.9400  -12.1000   20.7770 C   0  0  0  0  0  0  0  0  0  0  0  0
  -26.5910  -13.3420   20.1990 N   0  0  0  0  0  0  0  0  0  0  0  0
  -26.2190  -12.0570   20.4280 N   0  0  0  0  0  0  0  0  0  0  0  0
  -24.2090  -10.8410   20.9540 C   0  0  0  0  0  0  0  0  0  0  0  0
  -24.6020   -9.8870   21.9180 C   0  0  0  0  0  3  0  0  0  0  0  0
  -23.8730   -8.6900   22.0800 C   0  0  0  0  0  3  0  0  0  0  0  0
  -22.7370   -8.4380   21.2760 C   0  0  0  0  0  0  0  0  0  0  0  0
  -22.3620   -9.3800   20.3030 C   0  0  0  0  0  3  0  0  0  0  0  0
  -23.0920  -10.5700   20.1390 C   0  0  0  0  0  3  0  0  0  0  0  0
  -21.9830   -7.2900   21.3420 O   0  0  0  0  0  0  0  0  0  0  0  0
  -21.8110   -6.6090   22.5210 C   0  0  0  0  0  0  0  0  0  0  0  0
  -21.2250   -7.2160   23.6540 C   0  0  0  0  0  3  0  0  0  0  0  0
  -21.0000   -6.4590   24.8200 C   0  0  0  0  0  3  0  0  0  0  0  0
  -21.3560   -5.0980   24.8570 C   0  0  0  0  0  0  0  0  0  0  0  0
  -21.9340   -4.4900   23.7280 C   0  0  0  0  0  3  0  0  0  0  0  0
  -22.1590   -5.2440   22.5620 C   0  0  0  0  0  0  0  0  0  0  0  0
  -22.6980   -4.6500   21.4700 F   0  0  0  0  0  0  0  0  0  0  0  0
  -21.1350   -4.3680   25.9730 F   0  0  0  0  0  0  0  0  0  0  0  0
  -23.1100  -13.9400   21.1840 C   0  0  0  0  0  0  0  0  0  0  0  0
  -22.3950  -13.2350   22.0560 N   0  0  0  0  0  0  0  0  0  0  0  0
  -22.6670  -14.9790   20.7000 O   0  0  0  0  0  0  0  0  0  0  0  0
  -22.7610  -12.3960   22.4790 H   0  0  0  0  0  0  0  0  0  0  0  0
  -21.4670  -13.5490   22.3080 H   0  0  0  0  0  0  0  0  0  0  0  0
  -25.7280  -15.5990   20.3550 N   0  0  0  0  0  0  0  0  0  0  0  0
  -24.9500  -16.2380   20.4860 H   0  0  0  0  0  0  0  0  0  0  0  0
  -26.5720  -16.0630   20.0380 H   0  0  0  0  0  0  0  0  0  0  0  0
  -30.0310  -24.3840   19.7270 C   0  0  0  0  0  2  0  0  0  0  0  0
  -30.5120  -25.5150   20.6570 C   0  0  0  0  0  2  0  0  0  0  0  0
  -29.4010  -26.5280   20.9590 C   0  0  0  0  0  2  0  0  0  0  0  0
  -28.9460  -27.1020   19.7420 O   0  0  0  0  0  0  0  0  0  0  0  0
  -24.6340  -31.6580   23.1340 C   0  0  0  0  0  0  0  0  0  0  0  0
  -27.7180  -27.7020   19.8340 C   0  0  0  0  0  0  0  0  0  0  0  0
  -23.5750  -30.2440   21.3970 C   0  0  0  0  0  3  0  0  0  0  0  0
  -25.1820  -28.9260   19.9220 C   0  0  0  0  0  0  0  0  0  0  0  0
  -26.0550  -30.8560   21.2570 C   0  0  0  0  0  2  0  0  0  0  0  0
  -26.2770  -29.5400   20.5420 C   0  0  0  0  0  0  0  0  0  0  0  0
  -27.5510  -28.9350   20.4970 C   0  0  0  0  0  3  0  0  0  0  0  0
  -26.6120  -27.0830   19.2240 C   0  0  0  0  0  3  0  0  0  0  0  0
  -25.3400  -27.6890   19.2680 C   0  0  0  0  0  3  0  0  0  0  0  0
  -23.8600  -29.6530   19.9900 C   0  0  0  0  0  2  0  0  0  0  0  0
  -24.7690  -30.9320   21.9870 N   0  0  0  0  0  0  0  0  0  0  0  0
  -23.5280  -31.8020   23.6700 O   0  0  0  0  0  0  0  0  0  0  0  0
  -23.0100  -29.1200   22.2940 C   0  0  0  0  0  0  0  0  0  0  0  0
  -21.7070  -28.8340   22.1410 N   0  0  0  0  0  0  0  0  0  0  0  0
  -23.7420  -28.5080   23.0780 O   0  0  0  0  0  0  0  0  0  0  0  0
  -21.1740  -29.3820   21.4820 H   0  0  0  0  0  0  0  0  0  0  0  0
  -18.4460  -27.3330   22.5420 C   0  0  0  0  0  0  0  0  0  0  0  0
  -20.9730  -27.7870   22.8470 C   0  0  0  0  0  3  0  0  0  0  0  0
  -21.1950  -26.4080   22.1830 C   0  0  0  0  0  2  0  0  0  0  0  0
  -20.1260  -26.0560   21.1430 C   0  0  0  0  0  2  0  0  0  0  0  0
  -18.7370  -26.0470   21.7850 C   0  0  0  0  0  2  0  0  0  0  0  0
  -19.4960  -28.1580   23.0250 C   0  0  0  0  0  0  0  0  0  0  0  0
  -19.1710  -29.3620   23.6890 C   0  0  0  0  0  3  0  0  0  0  0  0
  -17.8290  -29.7420   23.8730 C   0  0  0  0  0  3  0  0  0  0  0  0
  -16.7950  -28.9130   23.4060 C   0  0  0  0  0  3  0  0  0  0  0  0
  -17.1030  -27.7090   22.7480 C   0  0  0  0  0  3  0  0  0  0  0  0
  -25.8530  -32.3680   23.8030 C   0  0  0  0  0  3  0  0  0  0  0  0
  -25.4370  -33.7380   24.1340 N   0  0  0  0  0  0  0  0  0  0  0  0
  -25.7190  -34.8180   23.3930 C   0  0  0  0  0  0  0  0  0  0  0  0
  -26.4280  -34.7720   22.3840 O   0  0  0  0  0  0  0  0  0  0  0  0
  -24.8120  -33.8440   24.9180 H   0  0  0  0  0  0  0  0  0  0  0  0
  -23.8820  -36.4900   23.0010 C   0  0  0  0  0  1  0  0  0  0  0  0
  -25.1220  -36.1640   23.8480 C   0  0  0  0  0  3  0  0  0  0  0  0
  -27.1570  -37.1850   24.7620 C   0  0  0  0  0  1  0  0  0  0  0  0
  -26.0810  -37.2860   23.7830 N   0  0  0  0  0  0  0  0  0  0  0  0
  -25.6040  -38.1710   23.9260 H   0  0  0  0  0  0  0  0  0  0  0  0
  -26.3810  -31.6200   25.0900 C   0  0  1  0  0  0  0  0  0  0  0  0
  -25.2720  -31.2950   26.1170 C   0  0  0  0  0  1  0  0  0  0  0  0
  -27.0770  -30.2930   24.7050 C   0  0  0  0  0  1  0  0  0  0  0  0
  -27.4510  -32.4820   25.8000 C   0  0  0  0  0  1  0  0  0  0  0  0
  1  3  1  0
  2  4  1  0
  2  1  2  0
  3  5  2  0
  3  8  1  0
  4  7  2  0
  5  6  1  0
  7  5  1  0
  9 10  1  0
  9  8  1  0
 11 19  1  0
 12 17  1  0
 13 14  1  0
 13 12  1  0
 15 14  1  0
 15 24  1  0
 15 16  1  0
 17 11  1  0
 17 16  1  0
 18 11  2  0
 19 20  1  0
 19 10  1  0
 21 22  2  0
 22 41  1  0
 23 22  1  0
 23 26  1  0
 24 25  1  0
 24 21  1  0
 25 23  2  0
 26 27  1  0
 27 28  2  0
 29 32  1  0
 29 28  1  0
 30 29  2  0
 31 30  1  0
 31 26  2  0
 32 33  1  0
 33 38  2  0
 33 34  1  0
 34 35  2  0
 35 36  1  0
 36 40  1  0
 37 36  2  0
 38 37  1  0
 39 38  1  0
 41 42  1  0
 42 45  1  0
 42 44  1  0
 43 41  2  0
 46 47  1  0
 46 21  1  0
 48 46  1  0
 49  4  1  0
 49 50  1  0
 50 51  1  0
 52 54  1  0
 52 51  1  0
 53 64  2  0
 54 59  1  0
 55 63  1  0
 55 65  1  0
 56 62  1  0
 56 58  1  0
 57 63  1  0
 58 57  1  0
 59 58  2  0
 60 61  1  0
 60 54  2  0
 61 56  2  0
 62 55  1  0
 63 53  1  0
 65 67  2  0
 66 65  1  0
 68 66  1  0
 69 78  2  0
 69 74  1  0
 70 66  1  0
 70 74  1  0
 71 70  1  0
 72 73  1  0
 72 71  1  0
 73 69  1  0
 74 75  2  0
 75 76  1  0
 77 76  2  0
 78 77  1  0
 79 53  1  0
 79 80  1  0
 79 89  1  0
 80 83  1  0
 81 85  1  0
 81 80  1  0
 82 81  2  0
 85 84  1  0
 87 85  1  0
 87 88  1  0
 87 86  1  0
 89 92  1  1
 89 90  1  0
 91 89  1  0
M  ISO  4  11 100  19 100  51 101  52 101
M  END
>  <TORSDO>  (54) 
F 22

>  <SCORE>  (54) 
-10.712

>  <name>  (54) 
53

>  <ligand_id>  (54) 
53

>  <original_smiles>  (54) 
[H]c1c(C([H])([H])C([H])([H])C([H])([H])Oc2c([H])c([H])c3c(c2[H])C([H])([H])N(C(=O)C([H])(N([H])C(=O)C([H])(N([H])C([H])([H])[H])C([H])([H])[H])C(C([H])([H])[H])(C([H])([H])[H])C([H])([H])[H])C([H])(C(=O)N([H])C2([H])c4c([H])c([H])c([H])c([H])c4C([H])([H])C([H])([H])C2([H])[H])C3([H])[H])nc(C([H])([H])[H])c(C([H])([H])C([H])([H])C([H])([H])N([H])C(=O)N2C([H])([H])C([H])([H])C([H])([H])C([H])(n3nc(-c4c([H])c([H])c(Oc5c([H])c([H])c(F)c([H])c5F)c([H])c4[H])c(C(=O)N([H])[H])c3N([H])[H])C2([H])[H])c1[H]

>  <smiles>  (54) 
[H]c1c(C([H])([H])C([H])([H])C([H])([H])Oc2c([H])c([H])c3c(c2[H])C([H])([H])N(C(=O)C([H])(N([H])C(=O)C([H])(N([H])C([H])([H])[H])C([H])([H])[H])C(C([H])([H])[H])(C([H])([H])[H])C([H])([H])[H])C([H])(C(=O)N([H])C2([H])c4c([H])c([H])c([H])c([H])c4C([H])([H])C([H])([H])C2([H])[H])C3([H])[H])nc(C([H])([H])[H])c(C([H])([H])C([H])([H])C([H])([H])N([H])C(=O)N2C([H])([H])C([H])([H])C([H])([H])C([H])(n3nc(-c4c([H])c([H])c(Oc5c([H])c([H])c(F)c([H])c5F)c([H])c4[H])c(C(=O)N([H])[H])c3N([H])[H])C2([H])[H])c1[H]

$$$$
54:0:0
     RDKit          3D

 92100  0  0  1  0  0  0  0  0999 V2000
  -26.6210  -21.7600   21.2570 C   0  0  0  0  0  3  0  0  0  0  0  0
  -26.4830  -23.0630   21.7460 C   0  0  0  0  0  3  0  0  0  0  0  0
  -27.6080  -21.5470   20.2900 C   0  0  0  0  0  0  0  0  0  0  0  0
  -28.1900  -23.7600   20.3950 C   0  0  0  0  0  0  0  0  0  0  0  0
  -27.2750  -24.0610   21.3100 N   0  0  0  0  0  0  0  0  0  0  0  0
  -28.3890  -22.5580   19.8600 N   0  0  0  0  0  0  0  0  0  0  0  0
  -27.8560  -20.1630   19.7130 C   0  0  0  0  0  2  0  0  0  0  0  0
  -28.8190  -19.3100   20.5640 C   0  0  0  0  0  2  0  0  0  0  0  0
  -29.1550  -17.9750   19.8790 C   0  0  0  0  0  2  0  0  0  0  0  0
  -29.9160  -16.9620   20.7600 C   0  0  0  0  0  2  0  0  0  0  0  0
  -31.2870  -14.9350   20.2550 C   0  0  0  0  0  0  0  0  0  0  0  0
  -31.0730  -12.6030   19.5390 C   0  0  0  0  0  2  0  0  0  0  0  0
  -30.1880  -12.5820   18.2750 C   0  0  0  0  0  2  0  0  0  0  0  0
  -28.6960  -12.4990   18.6580 C   0  0  0  0  0  2  0  0  0  0  0  0
  -28.2880  -13.5380   19.7390 C   0  0  0  0  0  3  0  0  0  0  0  0
  -29.2970  -13.5430   20.9100 C   0  0  0  0  0  2  0  0  0  0  0  0
  -30.6390  -13.7480   20.3460 N   0  0  0  0  0  0  0  0  0  0  0  0
  -32.4760  -15.0390   19.9560 O   0  0  0  0  0  0  0  0  0  0  0  0
  -30.4920  -15.9460   19.8880 N   0  0  0  0  0  0  0  0  0  0  0  0
  -30.8960  -16.3890   19.0750 H   0  0  0  0  0  0  0  0  0  0  0  0
  -25.9300  -14.2530   20.4840 C   0  0  0  0  0  0  0  0  0  0  0  0
  -24.8120  -13.5280   20.7980 C   0  0  0  0  0  0  0  0  0  0  0  0
  -25.1870  -12.1540   20.6810 C   0  0  0  0  0  0  0  0  0  0  0  0
  -26.9180  -13.3220   20.1990 N   0  0  0  0  0  0  0  0  0  0  0  0
  -26.4730  -12.0520   20.3760 N   0  0  0  0  0  0  0  0  0  0  0  0
  -24.3810  -10.9310   20.7870 C   0  0  0  0  0  0  0  0  0  0  0  0
  -24.7050   -9.9130   21.7110 C   0  0  0  0  0  3  0  0  0  0  0  0
  -23.9050   -8.7540   21.8070 C   0  0  0  0  0  3  0  0  0  0  0  0
  -22.7680   -8.6050   20.9770 C   0  0  0  0  0  0  0  0  0  0  0  0
  -22.4640   -9.6120   20.0430 C   0  0  0  0  0  3  0  0  0  0  0  0
  -23.2650  -10.7630   19.9460 C   0  0  0  0  0  3  0  0  0  0  0  0
  -21.9480   -7.5030   20.9820 O   0  0  0  0  0  0  0  0  0  0  0  0
  -21.6910   -6.8040   22.1340 C   0  0  0  0  0  0  0  0  0  0  0  0
  -21.1070   -7.4160   23.2630 C   0  0  0  0  0  3  0  0  0  0  0  0
  -20.7940   -6.6460   24.4000 C   0  0  0  0  0  3  0  0  0  0  0  0
  -21.0560   -5.2630   24.4090 C   0  0  0  0  0  0  0  0  0  0  0  0
  -21.6350   -4.6490   23.2840 C   0  0  0  0  0  3  0  0  0  0  0  0
  -21.9480   -5.4170   22.1480 C   0  0  0  0  0  0  0  0  0  0  0  0
  -22.4850   -4.8180   21.0590 F   0  0  0  0  0  0  0  0  0  0  0  0
  -20.7500   -4.5200   25.4980 F   0  0  0  0  0  0  0  0  0  0  0  0
  -23.4460  -14.0750   21.0970 C   0  0  0  0  0  0  0  0  0  0  0  0
  -22.6810  -13.3880   21.9390 N   0  0  0  0  0  0  0  0  0  0  0  0
  -23.0650  -15.1440   20.6210 O   0  0  0  0  0  0  0  0  0  0  0  0
  -23.0010  -12.5210   22.3460 H   0  0  0  0  0  0  0  0  0  0  0  0
  -21.7650  -13.7340   22.1810 H   0  0  0  0  0  0  0  0  0  0  0  0
  -26.1850  -15.6180   20.3950 N   0  0  0  0  0  0  0  0  0  0  0  0
  -25.4670  -16.3180   20.5500 H   0  0  0  0  0  0  0  0  0  0  0  0
  -27.0740  -16.0120   20.1190 H   0  0  0  0  0  0  0  0  0  0  0  0
  -29.1200  -24.8850   19.9690 C   0  0  0  0  0  2  0  0  0  0  0  0
  -28.4130  -26.1620   19.4740 C   0  0  0  0  0  2  0  0  0  0  0  0
  -27.8160  -26.0660   18.0580 C   0  0  0  0  0  2  0  0  0  0  0  0
  -27.5440  -27.3750   17.5490 O   0  0  0  0  0  0  0  0  0  0  0  0
  -25.0470  -30.9220   23.1730 C   0  0  0  0  0  0  0  0  0  0  0  0
  -26.4810  -28.0480   18.1040 C   0  0  0  0  0  0  0  0  0  0  0  0
  -23.3790  -30.3500   21.4360 C   0  0  0  0  0  3  0  0  0  0  0  0
  -24.3270  -29.4780   19.2370 C   0  0  0  0  0  0  0  0  0  0  0  0
  -25.8390  -30.6870   20.8230 C   0  0  0  0  0  2  0  0  0  0  0  0
  -25.6310  -29.6920   19.7010 C   0  0  0  0  0  0  0  0  0  0  0  0
  -26.7120  -28.9870   19.1290 C   0  0  0  0  0  3  0  0  0  0  0  0
  -25.1630  -27.8420   17.6420 C   0  0  0  0  0  3  0  0  0  0  0  0
  -24.0870  -28.5530   18.2050 C   0  0  0  0  0  3  0  0  0  0  0  0
  -23.2280  -30.2830   19.8920 C   0  0  0  0  0  2  0  0  0  0  0  0
  -24.7860  -30.6420   21.8650 N   0  0  0  0  0  0  0  0  0  0  0  0
  -24.1340  -30.9820   24.0090 O   0  0  0  0  0  0  0  0  0  0  0  0
  -22.8110  -29.0470   22.0430 C   0  0  0  0  0  0  0  0  0  0  0  0
  -21.4770  -28.9030   22.0060 N   0  0  0  0  0  0  0  0  0  0  0  0
  -23.5630  -28.1850   22.5040 O   0  0  0  0  0  0  0  0  0  0  0  0
  -20.9270  -29.6590   21.6190 H   0  0  0  0  0  0  0  0  0  0  0  0
  -18.1740  -27.4520   22.1810 C   0  0  0  0  0  0  0  0  0  0  0  0
  -20.7240  -27.7420   22.4790 C   0  0  0  0  0  3  0  0  0  0  0  0
  -20.8720  -26.5470   21.5080 C   0  0  0  0  0  2  0  0  0  0  0  0
  -19.7560  -26.4790   20.4600 C   0  0  0  0  0  2  0  0  0  0  0  0
  -18.3880  -26.3650   21.1400 C   0  0  0  0  0  2  0  0  0  0  0  0
  -19.2710  -28.1080   22.7980 C   0  0  0  0  0  0  0  0  0  0  0  0
  -19.0180  -29.1350   23.7330 C   0  0  0  0  0  3  0  0  0  0  0  0
  -17.6980  -29.5060   24.0560 C   0  0  0  0  0  3  0  0  0  0  0  0
  -16.6160  -28.8410   23.4530 C   0  0  0  0  0  3  0  0  0  0  0  0
  -16.8550  -27.8140   22.5220 C   0  0  0  0  0  3  0  0  0  0  0  0
  -26.4960  -31.2020   23.6770 C   0  0  0  0  0  3  0  0  0  0  0  0
  -26.4500  -32.4230   24.4920 N   0  0  0  0  0  0  0  0  0  0  0  0
  -26.9010  -33.6210   24.0950 C   0  0  0  0  0  0  0  0  0  0  0  0
  -27.4710  -33.7960   23.0140 O   0  0  0  0  0  0  0  0  0  0  0  0
  -25.9470  -32.3650   25.3650 H   0  0  0  0  0  0  0  0  0  0  0  0
  -25.5260  -35.6830   24.5280 C   0  0  0  0  0  1  0  0  0  0  0  0
  -26.6840  -34.8120   25.0460 C   0  0  0  0  0  3  0  0  0  0  0  0
  -28.9550  -34.9730   25.9640 C   0  0  0  0  0  1  0  0  0  0  0  0
  -27.8900  -35.6490   25.2270 N   0  0  0  0  0  0  0  0  0  0  0  0
  -27.6630  -36.5100   25.7150 H   0  0  0  0  0  0  0  0  0  0  0  0
  -27.1130  -30.0040   24.4980 C   0  0  1  0  0  0  0  0  0  0  0  0
  -26.2010  -29.5000   25.6400 C   0  0  0  0  0  1  0  0  0  0  0  0
  -27.4130  -28.8050   23.5690 C   0  0  0  0  0  1  0  0  0  0  0  0
  -28.4630  -30.4310   25.1200 C   0  0  0  0  0  1  0  0  0  0  0  0
  1  2  2  0
  3  1  1  0
  4  5  2  0
  5  2  1  0
  6  3  2  0
  6  4  1  0
  7  3  1  0
  7  8  1  0
  9  8  1  0
  9 10  1  0
 11 17  1  0
 12 17  1  0
 13 14  1  0
 13 12  1  0
 15 14  1  0
 15 24  1  0
 15 16  1  0
 17 16  1  0
 18 11  2  0
 19 11  1  0
 19 10  1  0
 20 19  1  0
 21 22  2  0
 22 41  1  0
 23 26  1  0
 23 22  1  0
 24 25  1  0
 24 21  1  0
 25 23  2  0
 26 27  1  0
 27 28  2  0
 29 32  1  0
 29 28  1  0
 30 29  2  0
 31 30  1  0
 31 26  2  0
 32 33  1  0
 33 38  2  0
 33 34  1  0
 34 35  2  0
 35 36  1  0
 36 40  1  0
 37 36  2  0
 38 37  1  0
 39 38  1  0
 41 42  1  0
 42 45  1  0
 42 44  1  0
 43 41  2  0
 46 21  1  0
 46 47  1  0
 48 46  1  0
 49  4  1  0
 50 49  1  0
 51 50  1  0
 52 51  1  0
 52 54  1  0
 53 64  2  0
 54 59  1  0
 55 63  1  0
 55 65  1  0
 56 58  1  0
 56 62  1  0
 57 63  1  0
 58 57  1  0
 59 58  2  0
 60 54  2  0
 60 61  1  0
 61 56  2  0
 62 55  1  0
 63 53  1  0
 65 67  2  0
 66 65  1  0
 68 66  1  0
 69 78  2  0
 69 74  1  0
 70 66  1  0
 70 74  1  0
 71 70  1  0
 72 73  1  0
 72 71  1  0
 73 69  1  0
 74 75  2  0
 75 76  1  0
 77 76  2  0
 78 77  1  0
 79 53  1  0
 79 80  1  0
 79 89  1  0
 80 83  1  0
 81 80  1  0
 81 85  1  0
 82 81  2  0
 85 84  1  0
 85 87  1  0
 87 88  1  0
 87 86  1  0
 89 92  1  1
 89 90  1  0
 91 89  1  0
M  ISO  4  11 100  19 100  51 101  52 101
M  END
>  <TORSDO>  (55) 
F 23

>  <SCORE>  (55) 
-7.822

>  <name>  (55) 
54

>  <ligand_id>  (55) 
54

>  <original_smiles>  (55) 
[H]c1nc(C([H])([H])C([H])([H])C([H])([H])Oc2c([H])c([H])c3c(c2[H])C([H])([H])N(C(=O)C([H])(N([H])C(=O)C([H])(N([H])C([H])([H])[H])C([H])([H])[H])C(C([H])([H])[H])(C([H])([H])[H])C([H])([H])[H])C([H])(C(=O)N([H])C2([H])c4c([H])c([H])c([H])c([H])c4C([H])([H])C([H])([H])C2([H])[H])C3([H])[H])nc(C([H])([H])C([H])([H])C([H])([H])C([H])([H])N([H])C(=O)N2C([H])([H])C([H])([H])C([H])([H])C([H])(n3nc(-c4c([H])c([H])c(Oc5c([H])c([H])c(F)c([H])c5F)c([H])c4[H])c(C(=O)N([H])[H])c3N([H])[H])C2([H])[H])c1[H]

>  <smiles>  (55) 
[H]c1nc(C([H])([H])C([H])([H])C([H])([H])Oc2c([H])c([H])c3c(c2[H])C([H])([H])N(C(=O)C([H])(N([H])C(=O)C([H])(N([H])C([H])([H])[H])C([H])([H])[H])C(C([H])([H])[H])(C([H])([H])[H])C([H])([H])[H])C([H])(C(=O)N([H])C2([H])c4c([H])c([H])c([H])c([H])c4C([H])([H])C([H])([H])C2([H])[H])C3([H])[H])nc(C([H])([H])C([H])([H])C([H])([H])C([H])([H])N([H])C(=O)N2C([H])([H])C([H])([H])C([H])([H])C([H])(n3nc(-c4c([H])c([H])c(Oc5c([H])c([H])c(F)c([H])c5F)c([H])c4[H])c(C(=O)N([H])[H])c3N([H])[H])C2([H])[H])c1[H]

$$$$
55:0:0
     RDKit          3D

 94102  0  0  1  0  0  0  0  0999 V2000
  -27.0800  -21.0670   18.9320 C   0  0  0  0  0  2  0  0  0  0  0  0
  -27.9980  -22.0880   19.5040 N   0  0  0  0  0  4  0  0  0  0  0  0
  -28.9490  -21.7910   19.3520 H   0  0  0  0  0  0  0  0  0  0  0  0
  -27.8460  -22.1320   20.5000 H   0  0  0  0  0  0  0  0  0  0  0  0
  -27.8230  -23.4640   18.9580 C   0  0  0  0  0  2  0  0  0  0  0  0
  -28.9160  -24.4390   19.4560 C   0  0  0  0  0  2  0  0  0  0  0  0
  -28.7540  -25.9160   19.0250 C   0  0  0  0  0  2  0  0  0  0  0  0
  -28.4290  -26.7590   20.1410 O   0  0  0  0  0  0  0  0  0  0  0  0
  -24.5520  -31.8780   23.2320 C   0  0  0  0  0  0  0  0  0  0  0  0
  -27.2350  -27.4460   20.1470 C   0  0  0  0  0  0  0  0  0  0  0  0
  -23.3620  -30.4770   21.5760 C   0  0  0  0  0  3  0  0  0  0  0  0
  -24.8270  -28.9300   20.1760 C   0  0  0  0  0  0  0  0  0  0  0  0
  -25.8930  -30.8240   21.4180 C   0  0  0  0  0  2  0  0  0  0  0  0
  -25.9770  -29.4520   20.7800 C   0  0  0  0  0  0  0  0  0  0  0  0
  -27.1780  -28.7080   20.7780 C   0  0  0  0  0  3  0  0  0  0  0  0
  -26.0590  -26.9230   19.5670 C   0  0  0  0  0  3  0  0  0  0  0  0
  -24.8610  -27.6580   19.5760 C   0  0  0  0  0  3  0  0  0  0  0  0
  -23.5860  -29.7950   20.2010 C   0  0  0  0  0  2  0  0  0  0  0  0
  -24.6190  -31.0790   22.1280 N   0  0  0  0  0  0  0  0  0  0  0  0
  -23.4670  -32.1490   23.7610 O   0  0  0  0  0  0  0  0  0  0  0  0
  -22.7030  -29.4540   22.5280 C   0  0  0  0  0  0  0  0  0  0  0  0
  -21.3770  -29.2880   22.3980 N   0  0  0  0  0  0  0  0  0  0  0  0
  -23.3780  -28.8200   23.3400 O   0  0  0  0  0  0  0  0  0  0  0  0
  -20.8900  -29.8730   21.7330 H   0  0  0  0  0  0  0  0  0  0  0  0
  -17.9920  -28.0960   22.8690 C   0  0  0  0  0  0  0  0  0  0  0  0
  -20.5490  -28.3430   23.1480 C   0  0  0  0  0  3  0  0  0  0  0  0
  -20.6560  -26.9160   22.5560 C   0  0  0  0  0  2  0  0  0  0  0  0
  -19.5450  -26.5880   21.5520 C   0  0  0  0  0  2  0  0  0  0  0  0
  -18.1620  -26.7440   22.1920 C   0  0  0  0  0  2  0  0  0  0  0  0
  -19.1150  -28.8520   23.3030 C   0  0  0  0  0  0  0  0  0  0  0  0
  -18.8990  -30.1150   23.8970 C   0  0  0  0  0  3  0  0  0  0  0  0
  -17.5980  -30.6250   24.0530 C   0  0  0  0  0  3  0  0  0  0  0  0
  -16.4900  -29.8690   23.6320 C   0  0  0  0  0  3  0  0  0  0  0  0
  -16.6890  -28.6030   23.0540 C   0  0  0  0  0  3  0  0  0  0  0  0
  -25.8350  -32.5080   23.8620 C   0  0  0  0  0  3  0  0  0  0  0  0
  -25.5250  -33.9060   24.1900 N   0  0  0  0  0  0  0  0  0  0  0  0
  -25.8630  -34.9590   23.4340 C   0  0  0  0  0  0  0  0  0  0  0  0
  -26.5430  -34.8570   22.4070 O   0  0  0  0  0  0  0  0  0  0  0  0
  -24.9240  -34.0620   24.9860 H   0  0  0  0  0  0  0  0  0  0  0  0
  -24.1350  -36.7450   23.0580 C   0  0  0  0  0  1  0  0  0  0  0  0
  -25.3660  -36.3450   23.8850 C   0  0  0  0  0  3  0  0  0  0  0  0
  -27.4880  -37.2300   24.7440 C   0  0  0  0  0  1  0  0  0  0  0  0
  -26.4000  -37.3980   23.7840 N   0  0  0  0  0  0  0  0  0  0  0  0
  -25.9960  -38.3210   23.9240 H   0  0  0  0  0  0  0  0  0  0  0  0
  -26.3460  -31.7360   25.1390 C   0  0  1  0  0  0  0  0  0  0  0  0
  -25.2460  -31.4930   26.2010 C   0  0  0  0  0  1  0  0  0  0  0  0
  -26.9410  -30.3630   24.7520 C   0  0  0  0  0  1  0  0  0  0  0  0
  -27.4890  -32.5320   25.8100 C   0  0  0  0  0  1  0  0  0  0  0  0
  -27.2150  -19.6700   19.5970 C   0  0  0  0  0  2  0  0  0  0  0  0
  -28.3430  -18.7840   19.0160 C   0  0  0  0  0  2  0  0  0  0  0  0
  -29.3120  -16.5470   19.8550 C   0  0  0  0  0  3  0  0  0  0  0  0
  -29.7390  -18.5660   21.1120 C   0  0  0  0  0  3  0  0  0  0  0  0
  -29.0910  -17.9330   20.0410 C   0  0  0  0  0  0  0  0  0  0  0  0
  -30.1910  -15.8520   20.7300 C   0  0  0  0  0  0  0  0  0  0  0  0
  -30.6020  -17.8210   21.9320 C   0  0  0  0  0  0  0  0  0  0  0  0
  -30.8050  -16.4970   21.7570 N   0  0  0  0  0  0  0  0  0  0  0  0
  -30.8070  -14.5310   20.3080 C   0  0  0  0  0  0  0  0  0  0  0  0
  -30.4400  -12.3690   19.1960 C   0  0  0  0  0  2  0  0  0  0  0  0
  -29.4860  -12.5500   17.9960 C   0  0  0  0  0  2  0  0  0  0  0  0
  -28.0220  -12.4100   18.4490 C   0  0  0  0  0  2  0  0  0  0  0  0
  -27.6930  -13.2780   19.6930 C   0  0  0  0  0  3  0  0  0  0  0  0
  -28.7630  -13.1190   20.7970 C   0  0  0  0  0  2  0  0  0  0  0  0
  -30.0780  -13.3840   20.2030 N   0  0  0  0  0  0  0  0  0  0  0  0
  -31.9660  -14.6080   19.8890 O   0  0  0  0  0  0  0  0  0  0  0  0
  -25.3000  -13.8860   20.3960 C   0  0  0  0  0  0  0  0  0  0  0  0
  -24.2320  -13.1160   20.7680 C   0  0  0  0  0  0  0  0  0  0  0  0
  -24.6960  -11.7650   20.7580 C   0  0  0  0  0  0  0  0  0  0  0  0
  -26.3470  -13.0030   20.1820 N   0  0  0  0  0  0  0  0  0  0  0  0
  -25.9880  -11.7200   20.4570 N   0  0  0  0  0  0  0  0  0  0  0  0
  -23.9670  -10.5070   20.9640 C   0  0  0  0  0  0  0  0  0  0  0  0
  -24.3990   -9.5520   21.9120 C   0  0  0  0  0  3  0  0  0  0  0  0
  -23.6750   -8.3560   22.1040 C   0  0  0  0  0  3  0  0  0  0  0  0
  -22.5050   -8.1080   21.3500 C   0  0  0  0  0  0  0  0  0  0  0  0
  -22.0940   -9.0490   20.3900 C   0  0  0  0  0  3  0  0  0  0  0  0
  -22.8170  -10.2370   20.1950 C   0  0  0  0  0  3  0  0  0  0  0  0
  -21.7510   -6.9630   21.4540 O   0  0  0  0  0  0  0  0  0  0  0  0
  -21.7030   -6.2340   22.6140 C   0  0  0  0  0  0  0  0  0  0  0  0
  -21.2730   -6.8010   23.8330 C   0  0  0  0  0  3  0  0  0  0  0  0
  -21.1720   -5.9980   24.9860 C   0  0  0  0  0  3  0  0  0  0  0  0
  -21.4890   -4.6290   24.9220 C   0  0  0  0  0  0  0  0  0  0  0  0
  -21.9110   -4.0590   23.7070 C   0  0  0  0  0  3  0  0  0  0  0  0
  -22.0130   -4.8590   22.5560 C   0  0  0  0  0  0  0  0  0  0  0  0
  -22.4000   -4.3010   21.3850 F   0  0  0  0  0  0  0  0  0  0  0  0
  -21.3810   -3.8560   26.0280 F   0  0  0  0  0  0  0  0  0  0  0  0
  -22.8340  -13.5980   21.0300 C   0  0  0  0  0  0  0  0  0  0  0  0
  -22.1020  -12.9130   21.9010 N   0  0  0  0  0  0  0  0  0  0  0  0
  -22.3980  -14.6170   20.4930 O   0  0  0  0  0  0  0  0  0  0  0  0
  -22.4680  -12.0960   22.3660 H   0  0  0  0  0  0  0  0  0  0  0  0
  -21.1590  -13.2130   22.1050 H   0  0  0  0  0  0  0  0  0  0  0  0
  -25.4650  -15.2510   20.2040 N   0  0  0  0  0  0  0  0  0  0  0  0
  -24.6990  -15.9090   20.3110 H   0  0  0  0  0  0  0  0  0  0  0  0
  -26.3340  -15.6910   19.9330 H   0  0  0  0  0  0  0  0  0  0  0  0
  -31.7880  -19.9730   22.7420 C   0  0  0  0  0  1  0  0  0  0  0  0
  -31.4660  -18.4880   22.9980 C   0  0  0  0  0  2  0  0  0  0  0  0
  1  2  1  0
  1 49  1  0
  2  4  1  0
  3  2  1  0
  5  6  1  0
  5  2  1  0
  7  6  1  0
  7  8  1  0
  8 10  1  0
  9 20  2  0
 10 15  1  0
 11 19  1  0
 11 21  1  0
 12 18  1  0
 12 14  1  0
 13 19  1  0
 14 13  1  0
 15 14  2  0
 16 17  1  0
 16 10  2  0
 17 12  2  0
 18 11  1  0
 19  9  1  0
 21 23  2  0
 22 21  1  0
 24 22  1  0
 25 34  2  0
 25 30  1  0
 26 22  1  0
 26 30  1  0
 27 26  1  0
 28 29  1  0
 28 27  1  0
 29 25  1  0
 30 31  2  0
 31 32  1  0
 33 32  2  0
 34 33  1  0
 35  9  1  0
 35 36  1  0
 35 45  1  0
 36 39  1  0
 37 41  1  0
 37 36  1  0
 38 37  2  0
 41 40  1  0
 43 41  1  0
 43 44  1  0
 43 42  1  0
 45 48  1  1
 45 46  1  0
 47 45  1  0
 50 49  1  0
 50 53  1  0
 51 53  2  0
 51 54  1  0
 52 55  2  0
 53 52  1  0
 54 56  2  0
 55 94  1  0
 56 55  1  0
 57 54  1  0
 58 63  1  0
 59 60  1  0
 59 58  1  0
 61 60  1  0
 61 68  1  0
 61 62  1  0
 63 57  1  0
 63 62  1  0
 64 57  2  0
 65 66  2  0
 66 85  1  0
 67 66  1  0
 67 70  1  0
 68 65  1  0
 68 69  1  0
 69 67  2  0
 70 71  1  0
 71 72  2  0
 73 76  1  0
 73 72  1  0
 74 73  2  0
 75 74  1  0
 75 70  2  0
 76 77  1  0
 77 78  1  0
 78 79  2  0
 80 79  1  0
 80 84  1  0
 81 80  2  0
 82 77  2  0
 82 81  1  0
 83 82  1  0
 85 86  1  0
 86 89  1  0
 86 88  1  0
 87 85  2  0
 90 91  1  0
 90 65  1  0
 92 90  1  0
 93 94  1  0
M  ISO  4   7 101   8 101  54 100  57 100
M  END
>  <TORSDO>  (56) 
F 24

>  <SCORE>  (56) 
-12.237

>  <name>  (56) 
55

>  <ligand_id>  (56) 
55

>  <original_smiles>  (56) 
[H]c1c([H])c([H])c2c(c1[H])C([H])([H])C([H])([H])C([H])([H])C2([H])N([H])C(=O)C1([H])N(C(=O)C([H])(N([H])C(=O)C([H])(N([H])C([H])([H])[H])C([H])([H])[H])C(C([H])([H])[H])(C([H])([H])[H])C([H])([H])[H])C([H])([H])c2c([H])c(OC([H])([H])C([H])([H])C([H])([H])[N+]([H])([H])C([H])([H])C([H])([H])C([H])([H])c3c([H])c(C(=O)N4C([H])([H])C([H])([H])C([H])([H])C([H])(n5nc(-c6c([H])c([H])c(Oc7c([H])c([H])c(F)c([H])c7F)c([H])c6[H])c(C(=O)N([H])[H])c5N([H])[H])C4([H])[H])nc(C([H])([H])C([H])([H])[H])c3[H])c([H])c([H])c2C1([H])[H]

>  <smiles>  (56) 
[H]c1c([H])c([H])c2c(c1[H])C([H])([H])C([H])([H])C([H])([H])C2([H])N([H])C(=O)C1([H])N(C(=O)C([H])(N([H])C(=O)C([H])(N([H])C([H])([H])[H])C([H])([H])[H])C(C([H])([H])[H])(C([H])([H])[H])C([H])([H])[H])C([H])([H])c2c([H])c(OC([H])([H])C([H])([H])C([H])([H])[N+]([H])([H])C([H])([H])C([H])([H])C([H])([H])c3c([H])c(C(=O)N4C([H])([H])C([H])([H])C([H])([H])C([H])(n5nc(-c6c([H])c([H])c(Oc7c([H])c([H])c(F)c([H])c7F)c([H])c6[H])c(C(=O)N([H])[H])c5N([H])[H])C4([H])[H])nc(C([H])([H])C([H])([H])[H])c3[H])c([H])c([H])c2C1([H])[H]

$$$$
56:0:0
     RDKit          3D

 95103  0  0  1  0  0  0  0  0999 V2000
  -29.4490  -22.3510   19.3850 C   0  0  0  0  0  3  0  0  0  0  0  0
  -29.3000  -23.7710   19.1940 C   0  0  0  0  0  3  0  0  0  0  0  0
  -27.4920  -22.3360   20.7560 C   0  0  0  0  0  3  0  0  0  0  0  0
  -28.5350  -21.5890   20.1660 C   0  0  0  0  0  0  0  0  0  0  0  0
  -28.2220  -24.5090   19.7700 C   0  0  0  0  0  0  0  0  0  0  0  0
  -27.3290  -23.7410   20.5920 C   0  0  0  0  0  0  0  0  0  0  0  0
  -28.4940  -20.0120   20.2980 C   0  0  0  0  0  2  0  0  0  0  0  0
  -29.7950  -19.1430   20.5510 C   0  0  0  0  0  2  0  0  0  0  0  0
  -29.7420  -17.8000   21.4280 C   0  0  0  0  0  2  0  0  0  0  0  0
  -30.2650  -15.3960   20.6010 C   0  0  0  0  0  0  0  0  0  0  0  0
  -30.2510  -13.1490   19.5300 C   0  0  0  0  0  2  0  0  0  0  0  0
  -29.3460  -13.1670   18.2790 C   0  0  0  0  0  2  0  0  0  0  0  0
  -27.8810  -12.8810   18.6640 C   0  0  0  0  0  2  0  0  0  0  0  0
  -27.3990  -13.7430   19.8610 C   0  0  0  0  0  3  0  0  0  0  0  0
  -28.4220  -13.7140   21.0180 C   0  0  0  0  0  2  0  0  0  0  0  0
  -29.7160  -14.1490   20.4730 N   0  0  0  0  0  0  0  0  0  0  0  0
  -31.4490  -15.6040   20.3270 O   0  0  0  0  0  0  0  0  0  0  0  0
  -29.4120  -16.4360   20.8760 N   0  0  0  0  0  0  0  0  0  0  0  0
  -28.4430  -16.1620   20.9550 H   0  0  0  0  0  0  0  0  0  0  0  0
  -24.9550  -14.1590   20.5370 C   0  0  0  0  0  0  0  0  0  0  0  0
  -23.9320  -13.3060   20.8480 C   0  0  0  0  0  0  0  0  0  0  0  0
  -24.4850  -11.9910   20.7880 C   0  0  0  0  0  0  0  0  0  0  0  0
  -26.0620  -13.3590   20.3040 N   0  0  0  0  0  0  0  0  0  0  0  0
  -25.7830  -12.0470   20.5190 N   0  0  0  0  0  0  0  0  0  0  0  0
  -23.8390  -10.6770   20.9130 C   0  0  0  0  0  0  0  0  0  0  0  0
  -24.3560   -9.6770   21.7670 C   0  0  0  0  0  3  0  0  0  0  0  0
  -23.7050   -8.4300   21.8840 C   0  0  0  0  0  3  0  0  0  0  0  0
  -22.5250   -8.1730   21.1460 C   0  0  0  0  0  0  0  0  0  0  0  0
  -22.0290   -9.1640   20.2800 C   0  0  0  0  0  3  0  0  0  0  0  0
  -22.6800  -10.4030   20.1610 C   0  0  0  0  0  3  0  0  0  0  0  0
  -21.8400   -6.9820   21.1770 O   0  0  0  0  0  0  0  0  0  0  0  0
  -21.9100   -6.1410   22.2570 C   0  0  0  0  0  0  0  0  0  0  0  0
  -21.5780   -6.5720   23.5610 C   0  0  0  0  0  3  0  0  0  0  0  0
  -21.5940   -5.6540   24.6300 C   0  0  0  0  0  3  0  0  0  0  0  0
  -21.9340   -4.3080   24.4000 C   0  0  0  0  0  0  0  0  0  0  0  0
  -22.2590   -3.8760   23.1030 C   0  0  0  0  0  3  0  0  0  0  0  0
  -22.2430   -4.7890   22.0340 C   0  0  0  0  0  0  0  0  0  0  0  0
  -22.5360   -4.3630   20.7820 F   0  0  0  0  0  0  0  0  0  0  0  0
  -21.9430   -3.4250   25.4270 F   0  0  0  0  0  0  0  0  0  0  0  0
  -22.4990  -13.6820   21.0900 C   0  0  0  0  0  0  0  0  0  0  0  0
  -21.8090  -12.9450   21.9530 N   0  0  0  0  0  0  0  0  0  0  0  0
  -21.9960  -14.6660   20.5480 O   0  0  0  0  0  0  0  0  0  0  0  0
  -22.2260  -12.1470   22.4110 H   0  0  0  0  0  0  0  0  0  0  0  0
  -20.8490  -13.1800   22.1570 H   0  0  0  0  0  0  0  0  0  0  0  0
  -25.0310  -15.5440   20.4090 N   0  0  0  0  0  0  0  0  0  0  0  0
  -24.2130  -16.1340   20.5080 H   0  0  0  0  0  0  0  0  0  0  0  0
  -25.8470  -16.0530   20.0950 H   0  0  0  0  0  0  0  0  0  0  0  0
  -26.1010  -24.3440   21.2870 C   0  0  0  0  0  2  0  0  0  0  0  0
  -27.6980  -25.1850   23.0900 C   0  0  0  0  0  1  0  0  0  0  0  0
  -26.2910  -24.6300   22.8050 C   0  0  0  0  0  3  0  0  0  0  0  0
  -25.0650  -26.9200   22.7780 C   0  0  0  0  0  1  0  0  0  0  0  0
  -23.8090  -24.8330   23.4540 C   0  0  0  0  0  1  0  0  0  0  0  0
  -25.1820  -25.5280   23.4250 C   0  0  0  0  0  3  0  0  0  0  0  0
  -27.9730  -26.0630   19.5800 C   0  0  0  0  0  2  0  0  0  0  0  0
  -27.4360  -26.7020   18.3560 O   0  0  0  0  0  0  0  0  0  0  0  0
  -24.6120  -31.5750   22.8570 C   0  0  0  0  0  0  0  0  0  0  0  0
  -26.4080  -27.6100   18.6380 C   0  0  0  0  0  0  0  0  0  0  0  0
  -23.0530  -30.4270   21.3230 C   0  0  0  0  0  3  0  0  0  0  0  0
  -24.1320  -29.1560   19.3790 C   0  0  0  0  0  0  0  0  0  0  0  0
  -25.4920  -30.8250   20.6360 C   0  0  0  0  0  2  0  0  0  0  0  0
  -25.4090  -29.5690   19.7810 C   0  0  0  0  0  0  0  0  0  0  0  0
  -26.5550  -28.8040   19.4070 C   0  0  0  0  0  3  0  0  0  0  0  0
  -25.1110  -27.2600   18.2090 C   0  0  0  0  0  3  0  0  0  0  0  0
  -23.9810  -28.0110   18.5820 C   0  0  0  0  0  3  0  0  0  0  0  0
  -22.9470  -29.9830   19.8410 C   0  0  0  0  0  2  0  0  0  0  0  0
  -24.4180  -30.9500   21.6600 N   0  0  0  0  0  0  0  0  0  0  0  0
  -23.6760  -31.7460   23.6520 O   0  0  0  0  0  0  0  0  0  0  0  0
  -22.6050  -29.2580   22.2330 C   0  0  0  0  0  0  0  0  0  0  0  0
  -21.3240  -28.8630   22.1220 N   0  0  0  0  0  0  0  0  0  0  0  0
  -23.4040  -28.7140   22.9980 O   0  0  0  0  0  0  0  0  0  0  0  0
  -20.7290  -29.3650   21.4770 H   0  0  0  0  0  0  0  0  0  0  0  0
  -18.2810  -26.9420   22.4510 C   0  0  0  0  0  0  0  0  0  0  0  0
  -20.6990  -27.7600   22.8510 C   0  0  0  0  0  3  0  0  0  0  0  0
  -21.1470  -26.3950   22.2820 C   0  0  0  0  0  2  0  0  0  0  0  0
  -20.1970  -25.8450   21.2140 C   0  0  0  0  0  2  0  0  0  0  0  0
  -18.7860  -25.6730   21.7850 C   0  0  0  0  0  2  0  0  0  0  0  0
  -19.1780  -27.9280   22.9380 C   0  0  0  0  0  0  0  0  0  0  0  0
  -18.6550  -29.1040   23.5160 C   0  0  0  0  0  3  0  0  0  0  0  0
  -17.2640  -29.3010   23.6160 C   0  0  0  0  0  3  0  0  0  0  0  0
  -16.3800  -28.3110   23.1490 C   0  0  0  0  0  3  0  0  0  0  0  0
  -16.8890  -27.1350   22.5710 C   0  0  0  0  0  3  0  0  0  0  0  0
  -26.0090  -32.1290   23.2710 C   0  0  0  0  0  3  0  0  0  0  0  0
  -25.7970  -33.4210   23.9390 N   0  0  0  0  0  0  0  0  0  0  0  0
  -26.0440  -34.6160   23.3840 C   0  0  0  0  0  0  0  0  0  0  0  0
  -26.5460  -34.7410   22.2640 O   0  0  0  0  0  0  0  0  0  0  0  0
  -25.3410  -33.3980   24.8390 H   0  0  0  0  0  0  0  0  0  0  0  0
  -24.3720  -36.4730   23.6570 C   0  0  0  0  0  1  0  0  0  0  0  0
  -25.6750  -35.8680   24.2020 C   0  0  0  0  0  3  0  0  0  0  0  0
  -27.9270  -36.4980   24.9530 C   0  0  0  0  0  1  0  0  0  0  0  0
  -26.7350  -36.8980   24.2100 N   0  0  0  0  0  0  0  0  0  0  0  0
  -26.3920  -37.7690   24.6070 H   0  0  0  0  0  0  0  0  0  0  0  0
  -26.8120  -31.1460   24.2090 C   0  0  1  0  0  0  0  0  0  0  0  0
  -26.0030  -30.6520   25.4310 C   0  0  0  0  0  1  0  0  0  0  0  0
  -27.2820  -29.9010   23.4200 C   0  0  0  0  0  1  0  0  0  0  0  0
  -28.0880  -31.8450   24.7310 C   0  0  0  0  0  1  0  0  0  0  0  0
  1  4  1  0
  2  1  2  0
  2  5  1  0
  4  7  1  0
  4  3  2  0
  5  6  2  0
  6  3  1  0
  6 48  1  0
  7  8  1  0
  8  9  1  0
 10 18  1  0
 11 16  1  0
 12 13  1  0
 12 11  1  0
 14 13  1  0
 14 23  1  0
 14 15  1  0
 16 10  1  0
 16 15  1  0
 17 10  2  0
 18 19  1  0
 18  9  1  0
 20 21  2  0
 21 40  1  0
 22 21  1  0
 22 25  1  0
 23 24  1  0
 23 20  1  0
 24 22  2  0
 25 26  1  0
 26 27  2  0
 28 31  1  0
 28 27  1  0
 29 28  2  0
 30 29  1  0
 30 25  2  0
 31 32  1  0
 32 33  1  0
 33 34  2  0
 35 34  1  0
 35 39  1  0
 36 35  2  0
 37 32  2  0
 37 36  1  0
 38 37  1  0
 40 41  1  0
 41 44  1  0
 41 43  1  0
 42 40  2  0
 45 46  1  0
 45 20  1  0
 47 45  1  0
 48 50  1  0
 50 49  1  0
 50 53  1  0
 51 53  1  0
 53 52  1  0
 54  5  1  0
 55 57  1  0
 55 54  1  0
 56 67  2  0
 57 62  1  0
 58 66  1  0
 58 68  1  0
 59 61  1  0
 59 65  1  0
 60 66  1  0
 61 60  1  0
 62 61  2  0
 63 64  1  0
 63 57  2  0
 64 59  2  0
 65 58  1  0
 66 56  1  0
 68 70  2  0
 69 68  1  0
 71 69  1  0
 72 81  2  0
 72 77  1  0
 73 69  1  0
 73 77  1  0
 74 73  1  0
 75 76  1  0
 75 74  1  0
 76 72  1  0
 77 78  2  0
 78 79  1  0
 80 79  2  0
 81 80  1  0
 82 56  1  0
 82 83  1  0
 82 92  1  0
 83 86  1  0
 84 83  1  0
 84 88  1  0
 85 84  2  0
 88 87  1  0
 88 90  1  0
 90 91  1  0
 90 89  1  0
 92 95  1  1
 92 93  1  0
 94 92  1  0
M  ISO  4  10 100  18 100  54 101  55 101
M  END
>  <TORSDO>  (57) 
F 23

>  <SCORE>  (57) 
-10.745

>  <name>  (57) 
56

>  <ligand_id>  (57) 
56

>  <original_smiles>  (57) 
[H]c1c([H])c([H])c2c(c1[H])C([H])([H])C([H])([H])C([H])([H])C2([H])N([H])C(=O)C1([H])N(C(=O)C([H])(N([H])C(=O)C([H])(N([H])C([H])([H])[H])C([H])([H])[H])C(C([H])([H])[H])(C([H])([H])[H])C([H])([H])[H])C([H])([H])c2c([H])c(OC([H])([H])c3c([H])c([H])c(C([H])([H])C([H])([H])C([H])([H])N([H])C(=O)N4C([H])([H])C([H])([H])C([H])([H])C([H])(n5nc(-c6c([H])c([H])c(Oc7c([H])c([H])c(F)c([H])c7F)c([H])c6[H])c(C(=O)N([H])[H])c5N([H])[H])C4([H])[H])c([H])c3C([H])([H])C([H])(C([H])([H])[H])C([H])(C([H])([H])[H])C([H])([H])[H])c([H])c([H])c2C1([H])[H]

>  <smiles>  (57) 
[H]c1c([H])c([H])c2c(c1[H])C([H])([H])C([H])([H])C([H])([H])C2([H])N([H])C(=O)C1([H])N(C(=O)C([H])(N([H])C(=O)C([H])(N([H])C([H])([H])[H])C([H])([H])[H])C(C([H])([H])[H])(C([H])([H])[H])C([H])([H])[H])C([H])([H])c2c([H])c(OC([H])([H])c3c([H])c([H])c(C([H])([H])C([H])([H])C([H])([H])N([H])C(=O)N4C([H])([H])C([H])([H])C([H])([H])C([H])(n5nc(-c6c([H])c([H])c(Oc7c([H])c([H])c(F)c([H])c7F)c([H])c6[H])c(C(=O)N([H])[H])c5N([H])[H])C4([H])[H])c([H])c3C([H])([H])C([H])(C([H])([H])[H])C([H])(C([H])([H])[H])C([H])([H])[H])c([H])c([H])c2C1([H])[H]

$$$$
57:0:0
     RDKit          3D

 87 95  0  0  1  0  0  0  0  0999 V2000
  -28.5000  -21.6730   20.2160 C   0  0  0  0  0  2  0  0  0  0  0  0
  -31.0490  -18.7560   20.2620 C   0  0  0  0  0  3  0  0  0  0  0  0
  -29.8360  -18.0190   20.4570 C   0  0  0  0  0  0  0  0  0  0  0  0
  -30.7520  -20.1160   20.1780 C   0  0  0  0  0  0  0  0  0  0  0  0
  -31.7000  -21.2480   19.9640 C   0  0  0  0  0  1  0  0  0  0  0  0
  -28.8610  -19.0240   20.4840 N   0  0  0  0  0  0  0  0  0  0  0  0
  -29.3830  -20.3430   20.3240 N   0  0  0  0  0  0  0  0  0  0  0  0
  -29.5500  -16.3990   20.7150 C   0  0  0  0  0  2  0  0  0  0  0  0
  -30.4490  -15.0330   20.3540 C   0  0  0  0  0  0  0  0  0  0  0  0
  -30.3710  -12.6790   19.3720 C   0  0  0  0  0  2  0  0  0  0  0  0
  -29.4230  -12.6610   18.1470 C   0  0  0  0  0  2  0  0  0  0  0  0
  -27.9600  -12.4400   18.5820 C   0  0  0  0  0  2  0  0  0  0  0  0
  -27.5640  -13.3430   19.7790 C   0  0  0  0  0  3  0  0  0  0  0  0
  -28.6280  -13.3210   20.8960 C   0  0  0  0  0  2  0  0  0  0  0  0
  -29.9040  -13.7440   20.3050 N   0  0  0  0  0  0  0  0  0  0  0  0
  -31.6350  -15.1300   20.0100 O   0  0  0  0  0  0  0  0  0  0  0  0
  -25.1890  -13.9230   20.5370 C   0  0  0  0  0  0  0  0  0  0  0  0
  -24.1240  -13.1490   20.9080 C   0  0  0  0  0  0  0  0  0  0  0  0
  -24.5850  -11.7970   20.8640 C   0  0  0  0  0  0  0  0  0  0  0  0
  -26.2270  -13.0440   20.2820 N   0  0  0  0  0  0  0  0  0  0  0  0
  -25.8750  -11.7600   20.5450 N   0  0  0  0  0  0  0  0  0  0  0  0
  -23.8570  -10.5350   21.0490 C   0  0  0  0  0  0  0  0  0  0  0  0
  -24.2870   -9.5630   21.9790 C   0  0  0  0  0  3  0  0  0  0  0  0
  -23.5580   -8.3670   22.1520 C   0  0  0  0  0  3  0  0  0  0  0  0
  -22.3840   -8.1340   21.3960 C   0  0  0  0  0  0  0  0  0  0  0  0
  -21.9730   -9.0950   20.4570 C   0  0  0  0  0  3  0  0  0  0  0  0
  -22.7030  -10.2830   20.2810 C   0  0  0  0  0  3  0  0  0  0  0  0
  -21.6270   -6.9910   21.4800 O   0  0  0  0  0  0  0  0  0  0  0  0
  -21.5710   -6.2470   22.6310 C   0  0  0  0  0  0  0  0  0  0  0  0
  -21.1230   -6.7960   23.8520 C   0  0  0  0  0  3  0  0  0  0  0  0
  -21.0140   -5.9780   24.9940 C   0  0  0  0  0  3  0  0  0  0  0  0
  -21.3440   -4.6110   24.9170 C   0  0  0  0  0  0  0  0  0  0  0  0
  -21.7850   -4.0620   23.7010 C   0  0  0  0  0  3  0  0  0  0  0  0
  -21.8950   -4.8770   22.5600 C   0  0  0  0  0  0  0  0  0  0  0  0
  -22.3000   -4.3370   21.3850 F   0  0  0  0  0  0  0  0  0  0  0  0
  -21.2330   -3.8240   26.0120 F   0  0  0  0  0  0  0  0  0  0  0  0
  -22.7290  -13.6270   21.1880 C   0  0  0  0  0  0  0  0  0  0  0  0
  -22.0050  -12.9280   22.0550 N   0  0  0  0  0  0  0  0  0  0  0  0
  -22.2910  -14.6550   20.6750 O   0  0  0  0  0  0  0  0  0  0  0  0
  -22.3720  -12.0960   22.4940 H   0  0  0  0  0  0  0  0  0  0  0  0
  -21.0680  -13.2300   22.2850 H   0  0  0  0  0  0  0  0  0  0  0  0
  -25.3540  -15.2950   20.3700 N   0  0  0  0  0  0  0  0  0  0  0  0
  -24.5890  -15.9500   20.4970 H   0  0  0  0  0  0  0  0  0  0  0  0
  -26.2010  -15.7400   20.0410 H   0  0  0  0  0  0  0  0  0  0  0  0
  -28.9780  -23.3000   20.3390 C   0  0  0  0  0  3  0  0  0  0  0  0
  -27.9550  -24.6420   20.1160 C   0  0  0  0  0  3  0  0  0  0  0  0
  -28.2350  -26.1780   20.2670 O   0  0  0  0  0  0  0  0  0  0  0  0
  -24.6300  -31.9060   23.2420 C   0  0  0  0  0  0  0  0  0  0  0  0
  -27.1830  -27.1720   20.2050 C   0  0  0  0  0  0  0  0  0  0  0  0
  -23.4200  -30.5150   21.6070 C   0  0  0  0  0  3  0  0  0  0  0  0
  -24.8590  -28.9340   20.1780 C   0  0  0  0  0  0  0  0  0  0  0  0
  -25.9760  -30.7670   21.4360 C   0  0  0  0  0  2  0  0  0  0  0  0
  -26.0430  -29.3740   20.7830 C   0  0  0  0  0  0  0  0  0  0  0  0
  -27.2050  -28.5100   20.7760 C   0  0  0  0  0  3  0  0  0  0  0  0
  -25.9690  -26.8370   19.5630 C   0  0  0  0  0  3  0  0  0  0  0  0
  -24.8360  -27.6790   19.5520 C   0  0  0  0  0  3  0  0  0  0  0  0
  -23.6350  -29.8360   20.2280 C   0  0  0  0  0  2  0  0  0  0  0  0
  -24.6950  -31.0850   22.1490 N   0  0  0  0  0  0  0  0  0  0  0  0
  -23.5450  -32.1960   23.7720 O   0  0  0  0  0  0  0  0  0  0  0  0
  -22.7390  -29.5120   22.5710 C   0  0  0  0  0  0  0  0  0  0  0  0
  -21.4100  -29.3460   22.4450 N   0  0  0  0  0  0  0  0  0  0  0  0
  -23.4090  -28.8850   23.3950 O   0  0  0  0  0  0  0  0  0  0  0  0
  -20.9260  -29.9020   21.7550 H   0  0  0  0  0  0  0  0  0  0  0  0
  -18.0250  -28.1580   22.9570 C   0  0  0  0  0  0  0  0  0  0  0  0
  -20.5850  -28.4120   23.2190 C   0  0  0  0  0  3  0  0  0  0  0  0
  -20.6800  -26.9800   22.6470 C   0  0  0  0  0  2  0  0  0  0  0  0
  -19.5750  -26.6590   21.6340 C   0  0  0  0  0  2  0  0  0  0  0  0
  -18.1950  -26.8090   22.2810 C   0  0  0  0  0  2  0  0  0  0  0  0
  -19.1460  -28.9190   23.3830 C   0  0  0  0  0  0  0  0  0  0  0  0
  -18.9310  -30.1800   23.9770 C   0  0  0  0  0  3  0  0  0  0  0  0
  -17.6270  -30.6840   24.1480 C   0  0  0  0  0  3  0  0  0  0  0  0
  -16.5210  -29.9220   23.7360 C   0  0  0  0  0  3  0  0  0  0  0  0
  -16.7200  -28.6610   23.1460 C   0  0  0  0  0  3  0  0  0  0  0  0
  -25.9110  -32.5370   23.8660 C   0  0  0  0  0  3  0  0  0  0  0  0
  -26.4220  -31.7650   25.1440 C   0  0  1  0  0  0  0  0  0  0  0  0
  -25.3280  -31.5310   26.2110 C   0  0  0  0  0  1  0  0  0  0  0  0
  -27.0020  -30.3840   24.7570 C   0  0  0  0  0  1  0  0  0  0  0  0
  -27.5750  -32.5550   25.8070 C   0  0  0  0  0  1  0  0  0  0  0  0
  -25.6030  -33.9370   24.2050 N   0  0  0  0  0  0  0  0  0  0  0  0
  -25.9180  -34.9940   23.4460 C   0  0  0  0  0  0  0  0  0  0  0  0
  -26.5660  -34.8950   22.4000 O   0  0  0  0  0  0  0  0  0  0  0  0
  -25.0220  -34.0870   25.0170 H   0  0  0  0  0  0  0  0  0  0  0  0
  -24.1740  -36.7860   23.1490 C   0  0  0  0  0  1  0  0  0  0  0  0
  -25.4420  -36.3820   23.9200 C   0  0  0  0  0  3  0  0  0  0  0  0
  -27.5970  -37.2770   24.6870 C   0  0  0  0  0  1  0  0  0  0  0  0
  -26.4670  -37.4390   23.7750 N   0  0  0  0  0  0  0  0  0  0  0  0
  -26.0620  -38.3580   23.9300 H   0  0  0  0  0  0  0  0  0  0  0  0
  1  7  1  0
  1 45  1  0
  2  3  1  0
  3  6  2  0
  3  8  1  0
  4  2  2  0
  4  7  1  0
  5  4  1  0
  7  6  1  0
  9  8  1  0
 10 15  1  0
 11 12  1  0
 11 10  1  0
 13 12  1  0
 13 20  1  0
 13 14  1  0
 15  9  1  0
 15 14  1  0
 16  9  2  0
 17 18  2  0
 18 37  1  0
 19 18  1  0
 19 22  1  0
 20 17  1  0
 20 21  1  0
 21 19  2  0
 22 23  1  0
 23 24  2  0
 25 28  1  0
 25 24  1  0
 26 25  2  0
 27 26  1  0
 27 22  2  0
 28 29  1  0
 29 30  1  0
 30 31  2  0
 32 31  1  0
 32 36  1  0
 33 32  2  0
 34 29  2  0
 34 33  1  0
 35 34  1  0
 37 38  1  0
 38 41  1  0
 38 40  1  0
 39 37  2  0
 42 43  1  0
 42 17  1  0
 44 42  1  0
 46 47  1  0
 46 45  2  0
 48 59  2  0
 49 47  1  0
 49 54  1  0
 50 58  1  0
 50 60  1  0
 51 57  1  0
 51 53  1  0
 52 58  1  0
 53 52  1  0
 54 53  2  0
 55 49  2  0
 56 55  1  0
 56 51  2  0
 57 50  1  0
 58 48  1  0
 60 62  2  0
 61 60  1  0
 63 61  1  0
 64 73  2  0
 64 69  1  0
 65 61  1  0
 65 69  1  0
 66 65  1  0
 67 68  1  0
 67 66  1  0
 68 64  1  0
 69 70  2  0
 70 71  1  0
 72 71  2  0
 73 72  1  0
 74 48  1  0
 74 79  1  0
 74 75  1  0
 75 78  1  1
 75 76  1  0
 77 75  1  0
 79 82  1  0
 80 84  1  0
 80 79  1  0
 81 80  2  0
 84 83  1  0
 86 84  1  0
 86 87  1  0
 86 85  1  0
M  ISO  4   8 100   9 100  46 101  47 101
M  END
>  <TORSDO>  (58) 
F 20

>  <SCORE>  (58) 
-15.058

>  <name>  (58) 
57

>  <ligand_id>  (58) 
57

>  <original_smiles>  (58) 
[H]c1c([H])c([H])c2c(c1[H])C([H])([H])C([H])([H])C([H])([H])C2([H])N([H])C(=O)C1([H])N(C(=O)C([H])(N([H])C(=O)C([H])(N([H])C([H])([H])[H])C([H])([H])[H])C(C([H])([H])[H])(C([H])([H])[H])C([H])([H])[H])C([H])([H])c2c([H])c(OC([H])([H])C([H])([H])C([H])([H])n3nc(C([H])([H])C(=O)N4C([H])([H])C([H])([H])C([H])([H])C([H])(n5nc(-c6c([H])c([H])c(Oc7c([H])c([H])c(F)c([H])c7F)c([H])c6[H])c(C(=O)N([H])[H])c5N([H])[H])C4([H])[H])c([H])c3C([H])([H])[H])c([H])c([H])c2C1([H])[H]

>  <smiles>  (58) 
[H]c1c([H])c([H])c2c(c1[H])C([H])([H])C([H])([H])C([H])([H])C2([H])N([H])C(=O)C1([H])N(C(=O)C([H])(N([H])C(=O)C([H])(N([H])C([H])([H])[H])C([H])([H])[H])C(C([H])([H])[H])(C([H])([H])[H])C([H])([H])[H])C([H])([H])c2c([H])c(OC([H])([H])C([H])([H])C([H])([H])n3nc(C([H])([H])C(=O)N4C([H])([H])C([H])([H])C([H])([H])C([H])(n5nc(-c6c([H])c([H])c(Oc7c([H])c([H])c(F)c([H])c7F)c([H])c6[H])c(C(=O)N([H])[H])c5N([H])[H])C4([H])[H])c([H])c3C([H])([H])[H])c([H])c([H])c2C1([H])[H]

$$$$
58:0:0
     RDKit          3D

 92100  0  0  1  0  0  0  0  0999 V2000
  -27.8270  -19.5150   18.2020 C   0  0  0  0  0  3  0  0  0  0  0  0
  -28.4040  -20.1210   19.2910 C   0  0  0  0  0  0  0  0  0  0  0  0
  -27.1500  -21.6180   18.1780 C   0  0  0  0  0  3  0  0  0  0  0  0
  -26.3530  -22.7810   17.6660 C   0  0  0  0  0  1  0  0  0  0  0  0
  -27.9890  -21.4700   19.2420 N   0  0  0  0  0  0  0  0  0  0  0  0
  -27.0840  -20.4420   17.5570 N   0  0  0  0  0  0  0  0  0  0  0  0
  -26.5320  -20.2600   16.7270 H   0  0  0  0  0  0  0  0  0  0  0  0
  -29.3040  -19.4190   20.3080 C   0  0  0  0  0  2  0  0  0  0  0  0
  -29.2420  -17.8440   20.1830 C   0  0  0  0  0  2  0  0  0  0  0  0
  -30.1960  -16.9650   21.0530 C   0  0  0  0  0  2  0  0  0  0  0  0
  -30.6280  -14.4910   20.5010 C   0  0  0  0  0  0  0  0  0  0  0  0
  -30.3640  -12.3130   19.3510 C   0  0  0  0  0  2  0  0  0  0  0  0
  -29.4220  -12.5050   18.1450 C   0  0  0  0  0  2  0  0  0  0  0  0
  -27.9460  -12.3660   18.5700 C   0  0  0  0  0  2  0  0  0  0  0  0
  -27.6060  -13.2030   19.8310 C   0  0  0  0  0  3  0  0  0  0  0  0
  -28.6560  -12.9780   20.9410 C   0  0  0  0  0  2  0  0  0  0  0  0
  -29.9790  -13.2970   20.3780 N   0  0  0  0  0  0  0  0  0  0  0  0
  -31.7660  -14.6740   20.0600 O   0  0  0  0  0  0  0  0  0  0  0  0
  -29.8800  -15.5140   20.9820 N   0  0  0  0  0  0  0  0  0  0  0  0
  -28.9640  -15.2470   21.3110 H   0  0  0  0  0  0  0  0  0  0  0  0
  -25.2080  -13.8270   20.5240 C   0  0  0  0  0  0  0  0  0  0  0  0
  -24.1340  -13.0640   20.8900 C   0  0  0  0  0  0  0  0  0  0  0  0
  -24.5860  -11.7090   20.8670 C   0  0  0  0  0  0  0  0  0  0  0  0
  -26.2490  -12.9380   20.3030 N   0  0  0  0  0  0  0  0  0  0  0  0
  -25.8770  -11.6590   20.5680 N   0  0  0  0  0  0  0  0  0  0  0  0
  -23.8500  -10.4530   21.0590 C   0  0  0  0  0  0  0  0  0  0  0  0
  -24.2810   -9.4790   21.9860 C   0  0  0  0  0  3  0  0  0  0  0  0
  -23.5470   -8.2860   22.1640 C   0  0  0  0  0  3  0  0  0  0  0  0
  -22.3680   -8.0600   21.4140 C   0  0  0  0  0  0  0  0  0  0  0  0
  -21.9570   -9.0230   20.4760 C   0  0  0  0  0  3  0  0  0  0  0  0
  -22.6920  -10.2060   20.2950 C   0  0  0  0  0  3  0  0  0  0  0  0
  -21.6050   -6.9200   21.5020 O   0  0  0  0  0  0  0  0  0  0  0  0
  -21.5660   -6.1670   22.6480 C   0  0  0  0  0  0  0  0  0  0  0  0
  -21.1610   -6.7130   23.8850 C   0  0  0  0  0  3  0  0  0  0  0  0
  -21.0690   -5.8860   25.0220 C   0  0  0  0  0  3  0  0  0  0  0  0
  -21.3710   -4.5150   24.9240 C   0  0  0  0  0  0  0  0  0  0  0  0
  -21.7700   -3.9680   23.6920 C   0  0  0  0  0  3  0  0  0  0  0  0
  -21.8640   -4.7920   22.5570 C   0  0  0  0  0  0  0  0  0  0  0  0
  -22.2280   -4.2560   21.3660 F   0  0  0  0  0  0  0  0  0  0  0  0
  -21.2760   -3.7190   26.0140 F   0  0  0  0  0  0  0  0  0  0  0  0
  -22.7380  -13.5510   21.1540 C   0  0  0  0  0  0  0  0  0  0  0  0
  -22.0020  -12.8640   22.0210 N   0  0  0  0  0  0  0  0  0  0  0  0
  -22.3090  -14.5780   20.6280 O   0  0  0  0  0  0  0  0  0  0  0  0
  -22.3630  -12.0340   22.4680 H   0  0  0  0  0  0  0  0  0  0  0  0
  -21.0660  -13.1710   22.2410 H   0  0  0  0  0  0  0  0  0  0  0  0
  -25.3850  -15.1960   20.3410 N   0  0  0  0  0  0  0  0  0  0  0  0
  -24.6210  -15.8550   20.4410 H   0  0  0  0  0  0  0  0  0  0  0  0
  -26.2370  -15.6260   20.0060 H   0  0  0  0  0  0  0  0  0  0  0  0
  -28.3180  -22.5740   20.2290 C   0  0  0  0  0  2  0  0  0  0  0  0
  -28.1420  -24.0830   19.7810 C   0  0  0  0  0  3  0  0  0  0  0  0
  -28.3860  -25.2180   20.8290 C   0  0  0  0  0  3  0  0  0  0  0  0
  -28.4280  -26.5850   20.3220 O   0  0  0  0  0  0  0  0  0  0  0  0
  -24.5920  -31.8780   23.2790 C   0  0  0  0  0  0  0  0  0  0  0  0
  -27.2630  -27.3410   20.3160 C   0  0  0  0  0  0  0  0  0  0  0  0
  -23.4110  -30.4610   21.6340 C   0  0  0  0  0  3  0  0  0  0  0  0
  -24.8830  -28.8940   20.2570 C   0  0  0  0  0  0  0  0  0  0  0  0
  -25.9460  -30.7940   21.4810 C   0  0  0  0  0  2  0  0  0  0  0  0
  -26.0370  -29.4100   20.8610 C   0  0  0  0  0  0  0  0  0  0  0  0
  -27.2310  -28.6440   20.8820 C   0  0  0  0  0  3  0  0  0  0  0  0
  -26.0920  -26.8570   19.6970 C   0  0  0  0  0  3  0  0  0  0  0  0
  -24.9090  -27.6190   19.6690 C   0  0  0  0  0  3  0  0  0  0  0  0
  -23.6450  -29.7630   20.2680 C   0  0  0  0  0  2  0  0  0  0  0  0
  -24.6680  -31.0610   22.1890 N   0  0  0  0  0  0  0  0  0  0  0  0
  -23.5020  -32.1610   23.7940 O   0  0  0  0  0  0  0  0  0  0  0  0
  -22.7370  -29.4550   22.5960 C   0  0  0  0  0  0  0  0  0  0  0  0
  -21.4130  -29.2800   22.4510 N   0  0  0  0  0  0  0  0  0  0  0  0
  -23.4040  -28.8330   23.4260 O   0  0  0  0  0  0  0  0  0  0  0  0
  -20.9370  -29.8330   21.7510 H   0  0  0  0  0  0  0  0  0  0  0  0
  -18.0210  -28.1240   22.9250 C   0  0  0  0  0  0  0  0  0  0  0  0
  -20.5780  -28.3550   23.2180 C   0  0  0  0  0  3  0  0  0  0  0  0
  -20.6700  -26.9200   22.6490 C   0  0  0  0  0  2  0  0  0  0  0  0
  -19.5740  -26.6060   21.6260 C   0  0  0  0  0  2  0  0  0  0  0  0
  -18.1880  -26.7700   22.2570 C   0  0  0  0  0  2  0  0  0  0  0  0
  -19.1440  -28.8750   23.3610 C   0  0  0  0  0  0  0  0  0  0  0  0
  -18.9340  -30.1440   23.9450 C   0  0  0  0  0  3  0  0  0  0  0  0
  -17.6340  -30.6620   24.0950 C   0  0  0  0  0  3  0  0  0  0  0  0
  -16.5240  -29.9070   23.6760 C   0  0  0  0  0  3  0  0  0  0  0  0
  -16.7190  -28.6400   23.0960 C   0  0  0  0  0  3  0  0  0  0  0  0
  -25.8690  -32.5120   23.9140 C   0  0  0  0  0  3  0  0  0  0  0  0
  -25.5570  -33.9140   24.2260 N   0  0  0  0  0  0  0  0  0  0  0  0
  -25.9000  -34.9580   23.4600 C   0  0  0  0  0  0  0  0  0  0  0  0
  -26.5810  -34.8430   22.4370 O   0  0  0  0  0  0  0  0  0  0  0  0
  -24.9540  -34.0760   25.0190 H   0  0  0  0  0  0  0  0  0  0  0  0
  -24.1760  -36.7460   23.0660 C   0  0  0  0  0  1  0  0  0  0  0  0
  -25.4090  -36.3520   23.8960 C   0  0  0  0  0  3  0  0  0  0  0  0
  -27.5340  -37.2440   24.7380 C   0  0  0  0  0  1  0  0  0  0  0  0
  -26.4430  -37.4020   23.7810 N   0  0  0  0  0  0  0  0  0  0  0  0
  -26.0380  -38.3250   23.9120 H   0  0  0  0  0  0  0  0  0  0  0  0
  -26.3650  -31.7510   25.2040 C   0  0  1  0  0  0  0  0  0  0  0  0
  -25.2550  -31.5220   26.2570 C   0  0  0  0  0  1  0  0  0  0  0  0
  -26.9540  -30.3720   24.8310 C   0  0  0  0  0  1  0  0  0  0  0  0
  -27.5080  -32.5490   25.8760 C   0  0  0  0  0  1  0  0  0  0  0  0
  1  2  2  0
  2  8  1  0
  3  4  1  0
  3  5  1  0
  5  2  1  0
  5 49  1  0
  6  3  1  0
  6  1  1  0
  7  6  1  0
  9  8  1  0
  9 10  1  0
 11 19  1  0
 12 17  1  0
 13 14  1  0
 13 12  1  0
 15 14  1  0
 15 24  1  0
 15 16  1  0
 17 11  1  0
 17 16  1  0
 18 11  2  0
 19 10  1  0
 19 20  1  0
 21 22  2  0
 22 41  1  0
 23 22  1  0
 23 26  1  0
 24 21  1  0
 24 25  1  0
 25 23  2  0
 26 27  1  0
 27 28  2  0
 29 32  1  0
 29 28  1  0
 30 29  2  0
 31 30  1  0
 31 26  2  0
 32 33  1  0
 33 34  1  0
 34 35  2  0
 36 35  1  0
 36 40  1  0
 37 36  2  0
 38 33  2  0
 38 37  1  0
 39 38  1  0
 41 42  1  0
 42 45  1  0
 42 44  1  0
 43 41  2  0
 46 47  1  0
 46 21  1  0
 48 46  1  0
 50 49  1  0
 50 51  2  0
 52 51  1  0
 53 64  2  0
 54 52  1  0
 54 59  1  0
 55 63  1  0
 55 65  1  0
 56 62  1  0
 56 58  1  0
 57 63  1  0
 58 59  2  0
 58 57  1  0
 60 54  2  0
 61 60  1  0
 61 56  2  0
 62 55  1  0
 63 53  1  0
 65 67  2  0
 66 65  1  0
 68 66  1  0
 69 78  2  0
 69 74  1  0
 70 66  1  0
 70 74  1  0
 71 70  1  0
 72 73  1  0
 72 71  1  0
 73 69  1  0
 74 75  2  0
 75 76  1  0
 77 76  2  0
 78 77  1  0
 79 53  1  0
 79 80  1  0
 79 89  1  0
 80 83  1  0
 81 85  1  0
 81 80  1  0
 82 81  2  0
 85 84  1  0
 87 85  1  0
 87 88  1  0
 87 86  1  0
 89 92  1  1
 89 90  1  0
 91 89  1  0
M  ISO  4  11 100  19 100  51 101  52 101
M  END
>  <TORSDO>  (59) 
F 22

>  <SCORE>  (59) 
-13.204

>  <name>  (59) 
58

>  <ligand_id>  (59) 
58

>  <original_smiles>  (59) 
[H]c1c([H])c([H])c2c(c1[H])C([H])([H])C([H])([H])C([H])([H])C2([H])N([H])C(=O)C1([H])N(C(=O)C([H])(N([H])C(=O)C([H])(N([H])C([H])([H])[H])C([H])([H])[H])C(C([H])([H])[H])(C([H])([H])[H])C([H])([H])[H])C([H])([H])c2c([H])c(OC([H])([H])C([H])([H])C([H])([H])n3c(C([H])([H])C([H])([H])C([H])([H])N([H])C(=O)N4C([H])([H])C([H])([H])C([H])([H])C([H])(n5nc(-c6c([H])c([H])c(Oc7c([H])c([H])c(F)c([H])c7F)c([H])c6[H])c(C(=O)N([H])[H])c5N([H])[H])C4([H])[H])c([H])[n+]([H])c3C([H])([H])[H])c([H])c([H])c2C1([H])[H]

>  <smiles>  (59) 
[H]c1c([H])c([H])c2c(c1[H])C([H])([H])C([H])([H])C([H])([H])C2([H])N([H])C(=O)C1([H])N(C(=O)C([H])(N([H])C(=O)C([H])(N([H])C([H])([H])[H])C([H])([H])[H])C(C([H])([H])[H])(C([H])([H])[H])C([H])([H])[H])C([H])([H])c2c([H])c(OC([H])([H])C([H])([H])C([H])([H])n3c(C([H])([H])C([H])([H])C([H])([H])N([H])C(=O)N4C([H])([H])C([H])([H])C([H])([H])C([H])(n5nc(-c6c([H])c([H])c(Oc7c([H])c([H])c(F)c([H])c7F)c([H])c6[H])c(C(=O)N([H])[H])c5N([H])[H])C4([H])[H])c([H])[n+]([H])c3C([H])([H])[H])c([H])c([H])c2C1([H])[H]

$$$$
59:0:0
     RDKit          3D

 93101  0  0  1  0  0  0  0  0999 V2000
  -28.0000  -21.7680   20.9190 C   0  0  0  0  0  0  0  0  0  0  0  0
  -28.8610  -22.7620   20.5080 C   0  0  0  0  0  0  0  0  0  0  0  0
  -26.8010  -23.3320   20.0340 C   0  0  0  0  0  0  0  0  0  0  0  0
  -30.3530  -22.8380   20.5890 C   0  0  0  0  0  1  0  0  0  0  0  0
  -25.6160  -24.0970   19.5430 C   0  0  0  0  0  1  0  0  0  0  0  0
  -26.6980  -22.1360   20.6030 N   0  0  0  0  0  0  0  0  0  0  0  0
  -28.0720  -23.7820   19.9710 N   0  0  0  0  0  0  0  0  0  0  0  0
  -28.2760  -20.4640   21.6160 C   0  0  0  0  0  2  0  0  0  0  0  0
  -28.6970  -19.3410   20.6500 C   0  0  0  0  0  2  0  0  0  0  0  0
  -30.1930  -18.9960   20.7150 C   0  0  0  0  0  2  0  0  0  0  0  0
  -30.5070  -17.6570   20.0320 C   0  0  0  0  0  2  0  0  0  0  0  0
  -31.8710  -17.0700   20.4350 C   0  0  0  0  0  2  0  0  0  0  0  0
  -32.9350  -14.9050   19.9360 C   0  0  0  0  0  0  0  0  0  0  0  0
  -32.6150  -12.4840   19.7510 C   0  0  0  0  0  2  0  0  0  0  0  0
  -31.7630  -12.2150   18.4940 C   0  0  0  0  0  2  0  0  0  0  0  0
  -30.2580  -12.2860   18.8280 C   0  0  0  0  0  2  0  0  0  0  0  0
  -29.8770  -13.5660   19.6230 C   0  0  0  0  0  3  0  0  0  0  0  0
  -30.8500  -13.7890   20.8020 C   0  0  0  0  0  2  0  0  0  0  0  0
  -32.2210  -13.8010   20.2640 N   0  0  0  0  0  0  0  0  0  0  0  0
  -34.1110  -14.8830   19.5710 O   0  0  0  0  0  0  0  0  0  0  0  0
  -32.1880  -15.9460   19.5680 N   0  0  0  0  0  0  0  0  0  0  0  0
  -32.5080  -16.2830   18.6720 H   0  0  0  0  0  0  0  0  0  0  0  0
  -27.5900  -14.5650   20.2580 C   0  0  0  0  0  0  0  0  0  0  0  0
  -26.4020  -13.9800   20.6050 C   0  0  0  0  0  0  0  0  0  0  0  0
  -26.6370  -12.5720   20.5910 C   0  0  0  0  0  0  0  0  0  0  0  0
  -28.4850  -13.5240   20.0640 N   0  0  0  0  0  0  0  0  0  0  0  0
  -27.9110  -12.3200   20.3190 N   0  0  0  0  0  0  0  0  0  0  0  0
  -25.7110  -11.4450   20.7660 C   0  0  0  0  0  0  0  0  0  0  0  0
  -25.9080  -10.4760   21.7730 C   0  0  0  0  0  3  0  0  0  0  0  0
  -24.9930   -9.4130   21.9330 C   0  0  0  0  0  3  0  0  0  0  0  0
  -23.8670   -9.3140   21.0840 C   0  0  0  0  0  0  0  0  0  0  0  0
  -23.6870  -10.2680   20.0670 C   0  0  0  0  0  3  0  0  0  0  0  0
  -24.6010  -11.3220   19.9050 C   0  0  0  0  0  3  0  0  0  0  0  0
  -22.9380   -8.3030   21.1490 O   0  0  0  0  0  0  0  0  0  0  0  0
  -22.5940   -7.7180   22.3410 C   0  0  0  0  0  0  0  0  0  0  0  0
  -22.0600   -8.4680   23.4110 C   0  0  0  0  0  3  0  0  0  0  0  0
  -21.6540   -7.8160   24.5930 C   0  0  0  0  0  3  0  0  0  0  0  0
  -21.7730   -6.4190   24.7040 C   0  0  0  0  0  0  0  0  0  0  0  0
  -22.2990   -5.6690   23.6360 C   0  0  0  0  0  3  0  0  0  0  0  0
  -22.7060   -6.3180   22.4570 C   0  0  0  0  0  0  0  0  0  0  0  0
  -23.1910   -5.5900   21.4230 F   0  0  0  0  0  0  0  0  0  0  0  0
  -21.3760   -5.7900   25.8350 F   0  0  0  0  0  0  0  0  0  0  0  0
  -25.0940  -14.6790   20.8390 C   0  0  0  0  0  0  0  0  0  0  0  0
  -24.2470  -14.1290   21.7010 N   0  0  0  0  0  0  0  0  0  0  0  0
  -24.8350  -15.7510   20.2910 O   0  0  0  0  0  0  0  0  0  0  0  0
  -24.4610  -13.2580   22.1650 H   0  0  0  0  0  0  0  0  0  0  0  0
  -23.3640  -14.5810   21.8910 H   0  0  0  0  0  0  0  0  0  0  0  0
  -27.9780  -15.8890   20.0730 N   0  0  0  0  0  0  0  0  0  0  0  0
  -27.3230  -16.6590   20.1540 H   0  0  0  0  0  0  0  0  0  0  0  0
  -28.9050  -16.1810   19.7940 H   0  0  0  0  0  0  0  0  0  0  0  0
  -28.5390  -25.0740   19.4690 C   0  0  0  0  0  2  0  0  0  0  0  0
  -28.6340  -26.1160   20.6010 C   0  0  0  0  0  2  0  0  0  0  0  0
  -28.7910  -27.4580   20.1230 O   0  0  0  0  0  0  0  0  0  0  0  0
  -25.0400  -32.1630   23.8940 C   0  0  0  0  0  0  0  0  0  0  0  0
  -27.6410  -28.2020   20.2090 C   0  0  0  0  0  0  0  0  0  0  0  0
  -23.8100  -30.9860   22.0990 C   0  0  0  0  0  3  0  0  0  0  0  0
  -25.2440  -29.6630   20.4560 C   0  0  0  0  0  0  0  0  0  0  0  0
  -26.3280  -31.3850   21.9100 C   0  0  0  0  0  2  0  0  0  0  0  0
  -26.4080  -30.1150   21.0920 C   0  0  0  0  0  0  0  0  0  0  0  0
  -27.6130  -29.3910   20.9670 C   0  0  0  0  0  3  0  0  0  0  0  0
  -26.4680  -27.7700   19.5600 C   0  0  0  0  0  3  0  0  0  0  0  0
  -25.2660  -28.4880   19.6880 C   0  0  0  0  0  3  0  0  0  0  0  0
  -23.9970  -30.4980   20.6370 C   0  0  0  0  0  2  0  0  0  0  0  0
  -25.0780  -31.5160   22.6940 N   0  0  0  0  0  0  0  0  0  0  0  0
  -23.9690  -32.3580   24.4830 O   0  0  0  0  0  0  0  0  0  0  0  0
  -23.1760  -29.8430   22.9240 C   0  0  0  0  0  0  0  0  0  0  0  0
  -21.8830  -29.5760   22.6810 N   0  0  0  0  0  0  0  0  0  0  0  0
  -23.8480  -29.2060   23.7400 O   0  0  0  0  0  0  0  0  0  0  0  0
  -21.4000  -30.1540   22.0080 H   0  0  0  0  0  0  0  0  0  0  0  0
  -18.6300  -28.0050   22.7100 C   0  0  0  0  0  0  0  0  0  0  0  0
  -21.0910  -28.5200   23.3110 C   0  0  0  0  0  3  0  0  0  0  0  0
  -21.4210  -27.1370   22.7070 C   0  0  0  0  0  2  0  0  0  0  0  0
  -20.4940  -26.7450   21.5510 C   0  0  0  0  0  2  0  0  0  0  0  0
  -19.0360  -26.7140   22.0210 C   0  0  0  0  0  2  0  0  0  0  0  0
  -19.5960  -28.8610   23.3030 C   0  0  0  0  0  0  0  0  0  0  0  0
  -19.1690  -30.0660   23.9000 C   0  0  0  0  0  3  0  0  0  0  0  0
  -17.8060  -30.4190   23.9150 C   0  0  0  0  0  3  0  0  0  0  0  0
  -16.8520  -29.5610   23.3400 C   0  0  0  0  0  3  0  0  0  0  0  0
  -17.2650  -28.3560   22.7440 C   0  0  0  0  0  3  0  0  0  0  0  0
  -26.3370  -32.7090   24.5700 C   0  0  0  0  0  3  0  0  0  0  0  0
  -26.0830  -34.1060   24.9430 N   0  0  0  0  0  0  0  0  0  0  0  0
  -26.4880  -35.1690   24.2350 C   0  0  0  0  0  0  0  0  0  0  0  0
  -27.1850  -35.0720   23.2200 O   0  0  0  0  0  0  0  0  0  0  0  0
  -25.4700  -34.2590   25.7320 H   0  0  0  0  0  0  0  0  0  0  0  0
  -24.8540  -37.0500   23.8950 C   0  0  0  0  0  1  0  0  0  0  0  0
  -26.0490  -36.5600   24.7280 C   0  0  0  0  0  3  0  0  0  0  0  0
  -28.2000  -37.3080   25.6450 C   0  0  0  0  0  1  0  0  0  0  0  0
  -27.1310  -37.5680   24.6850 N   0  0  0  0  0  0  0  0  0  0  0  0
  -26.7620  -38.4980   24.8650 H   0  0  0  0  0  0  0  0  0  0  0  0
  -26.7880  -31.8660   25.8250 C   0  0  1  0  0  0  0  0  0  0  0  0
  -25.6470  -31.5940   26.8320 C   0  0  0  0  0  1  0  0  0  0  0  0
  -27.3670  -30.5000   25.3860 C   0  0  0  0  0  1  0  0  0  0  0  0
  -27.9210  -32.6050   26.5740 C   0  0  0  0  0  1  0  0  0  0  0  0
  1  8  1  0
  2  4  1  0
  2  1  2  0
  3  6  2  0
  5  3  1  0
  6  1  1  0
  7  3  1  0
  7  2  1  0
  9 10  1  0
  9  8  1  0
 11 12  1  0
 11 10  1  0
 13 19  1  0
 14 19  1  0
 15 16  1  0
 15 14  1  0
 17 16  1  0
 17 26  1  0
 17 18  1  0
 19 18  1  0
 20 13  2  0
 21 13  1  0
 21 12  1  0
 22 21  1  0
 23 24  2  0
 24 43  1  0
 25 24  1  0
 25 28  1  0
 26 23  1  0
 26 27  1  0
 27 25  2  0
 28 29  1  0
 29 30  2  0
 31 34  1  0
 31 30  1  0
 32 31  2  0
 33 32  1  0
 33 28  2  0
 34 35  1  0
 35 40  2  0
 35 36  1  0
 36 37  2  0
 37 38  1  0
 38 42  1  0
 39 38  2  0
 40 39  1  0
 41 40  1  0
 43 44  1  0
 44 47  1  0
 44 46  1  0
 45 43  2  0
 48 49  1  0
 48 23  1  0
 50 48  1  0
 51  7  1  0
 51 52  1  0
 53 55  1  0
 53 52  1  0
 54 65  2  0
 55 60  1  0
 56 64  1  0
 56 66  1  0
 57 63  1  0
 57 59  1  0
 58 64  1  0
 59 58  1  0
 60 59  2  0
 61 62  1  0
 61 55  2  0
 62 57  2  0
 63 56  1  0
 64 54  1  0
 66 68  2  0
 67 66  1  0
 69 67  1  0
 70 79  2  0
 70 75  1  0
 71 67  1  0
 72 71  1  0
 73 74  1  0
 73 72  1  0
 74 70  1  0
 75 71  1  0
 75 76  2  0
 76 77  1  0
 78 77  2  0
 79 78  1  0
 80 54  1  0
 80 81  1  0
 80 90  1  0
 81 84  1  0
 82 86  1  0
 82 81  1  0
 83 82  2  0
 86 85  1  0
 88 86  1  0
 88 89  1  0
 88 87  1  0
 90 93  1  1
 90 91  1  0
 92 90  1  0
M  ISO  4  13 100  21 100  52 101  53 101
M  END
>  <TORSDO>  (60) 
F 23

>  <SCORE>  (60) 
-8.152

>  <name>  (60) 
59

>  <ligand_id>  (60) 
59

>  <original_smiles>  (60) 
[H]c1c([H])c([H])c2c(c1[H])C([H])([H])C([H])([H])C([H])([H])C2([H])N([H])C(=O)C1([H])N(C(=O)C([H])(N([H])C(=O)C([H])(N([H])C([H])([H])[H])C([H])([H])[H])C(C([H])([H])[H])(C([H])([H])[H])C([H])([H])[H])C([H])([H])c2c([H])c(OC([H])([H])C([H])([H])n3c(C([H])([H])[H])nc(C([H])([H])C([H])([H])C([H])([H])C([H])([H])C([H])([H])N([H])C(=O)N4C([H])([H])C([H])([H])C([H])([H])C([H])(n5nc(-c6c([H])c([H])c(Oc7c([H])c([H])c(F)c([H])c7F)c([H])c6[H])c(C(=O)N([H])[H])c5N([H])[H])C4([H])[H])c3C([H])([H])[H])c([H])c([H])c2C1([H])[H]

>  <smiles>  (60) 
[H]c1c([H])c([H])c2c(c1[H])C([H])([H])C([H])([H])C([H])([H])C2([H])N([H])C(=O)C1([H])N(C(=O)C([H])(N([H])C(=O)C([H])(N([H])C([H])([H])[H])C([H])([H])[H])C(C([H])([H])[H])(C([H])([H])[H])C([H])([H])[H])C([H])([H])c2c([H])c(OC([H])([H])C([H])([H])n3c(C([H])([H])[H])nc(C([H])([H])C([H])([H])C([H])([H])C([H])([H])C([H])([H])N([H])C(=O)N4C([H])([H])C([H])([H])C([H])([H])C([H])(n5nc(-c6c([H])c([H])c(Oc7c([H])c([H])c(F)c([H])c7F)c([H])c6[H])c(C(=O)N([H])[H])c5N([H])[H])C4([H])[H])c3C([H])([H])[H])c([H])c([H])c2C1([H])[H]

$$$$
60:0:0
     RDKit          3D

 92100  0  0  1  0  0  0  0  0999 V2000
  -29.5130  -22.3060   23.3480 C   0  0  0  0  0  3  0  0  0  0  0  0
  -30.3740  -21.6970   22.4800 C   0  0  0  0  0  0  0  0  0  0  0  0
  -30.6520  -22.6490   21.4430 C   0  0  0  0  0  0  0  0  0  0  0  0
  -29.9930  -23.8180   21.7540 C   0  0  0  0  0  0  0  0  0  0  0  0
  -31.5330  -22.4240   20.2390 C   0  0  0  0  0  1  0  0  0  0  0  0
  -28.4060  -24.5310   23.6200 C   0  0  0  0  0  1  0  0  0  0  0  0
  -29.2710  -23.5930   22.9200 N   0  0  0  0  0  0  0  0  0  0  0  0
  -30.9110  -20.2900   22.6620 C   0  0  0  0  0  2  0  0  0  0  0  0
  -30.5120  -19.3100   21.5470 C   0  0  0  0  0  2  0  0  0  0  0  0
  -30.7730  -17.8310   21.9010 C   0  0  0  0  0  2  0  0  0  0  0  0
  -30.4840  -16.9220   20.6970 C   0  0  0  0  0  2  0  0  0  0  0  0
  -31.1220  -14.5280   20.4920 C   0  0  0  0  0  0  0  0  0  0  0  0
  -30.8250  -12.3800   19.3370 C   0  0  0  0  0  2  0  0  0  0  0  0
  -29.9070  -12.6160   18.1200 C   0  0  0  0  0  2  0  0  0  0  0  0
  -28.4170  -12.5410   18.5170 C   0  0  0  0  0  2  0  0  0  0  0  0
  -28.0820  -13.3640   19.7920 C   0  0  0  0  0  3  0  0  0  0  0  0
  -29.1090  -13.0750   20.9090 C   0  0  0  0  0  2  0  0  0  0  0  0
  -30.4570  -13.3520   20.3750 N   0  0  0  0  0  0  0  0  0  0  0  0
  -32.2250  -14.7450   19.9780 O   0  0  0  0  0  0  0  0  0  0  0  0
  -30.3990  -15.5060   21.0500 N   0  0  0  0  0  0  0  0  0  0  0  0
  -29.5400  -15.2070   21.4900 H   0  0  0  0  0  0  0  0  0  0  0  0
  -25.6840  -14.0360   20.4560 C   0  0  0  0  0  0  0  0  0  0  0  0
  -24.5920  -13.2940   20.8120 C   0  0  0  0  0  0  0  0  0  0  0  0
  -25.0180  -11.9290   20.7820 C   0  0  0  0  0  0  0  0  0  0  0  0
  -26.7110  -13.1290   20.2410 N   0  0  0  0  0  0  0  0  0  0  0  0
  -26.3090  -11.8560   20.4880 N   0  0  0  0  0  0  0  0  0  0  0  0
  -24.2560  -10.6880   20.9620 C   0  0  0  0  0  0  0  0  0  0  0  0
  -24.6250   -9.7300   21.9340 C   0  0  0  0  0  3  0  0  0  0  0  0
  -23.8690   -8.5490   22.0980 C   0  0  0  0  0  3  0  0  0  0  0  0
  -22.7280   -8.3190   21.2920 C   0  0  0  0  0  0  0  0  0  0  0  0
  -22.3790   -9.2650   20.3130 C   0  0  0  0  0  3  0  0  0  0  0  0
  -23.1360  -10.4370   20.1470 C   0  0  0  0  0  3  0  0  0  0  0  0
  -21.9480   -7.1900   21.3650 O   0  0  0  0  0  0  0  0  0  0  0  0
  -21.7870   -6.5010   22.5410 C   0  0  0  0  0  0  0  0  0  0  0  0
  -21.2500   -7.1100   23.6960 C   0  0  0  0  0  3  0  0  0  0  0  0
  -21.0380   -6.3460   24.8610 C   0  0  0  0  0  3  0  0  0  0  0  0
  -21.3540   -4.9740   24.8700 C   0  0  0  0  0  0  0  0  0  0  0  0
  -21.8820   -4.3640   23.7180 C   0  0  0  0  0  3  0  0  0  0  0  0
  -22.0960   -5.1260   22.5560 C   0  0  0  0  0  0  0  0  0  0  0  0
  -22.5870   -4.5290   21.4430 F   0  0  0  0  0  0  0  0  0  0  0  0
  -21.1410   -4.2370   25.9860 F   0  0  0  0  0  0  0  0  0  0  0  0
  -23.2040  -13.8070   21.0720 C   0  0  0  0  0  0  0  0  0  0  0  0
  -22.4510  -13.1350   21.9360 N   0  0  0  0  0  0  0  0  0  0  0  0
  -22.7950  -14.8400   20.5400 O   0  0  0  0  0  0  0  0  0  0  0  0
  -22.7920  -12.3000   22.3900 H   0  0  0  0  0  0  0  0  0  0  0  0
  -21.5200  -13.4660   22.1490 H   0  0  0  0  0  0  0  0  0  0  0  0
  -25.8860  -15.4030   20.2820 N   0  0  0  0  0  0  0  0  0  0  0  0
  -25.1340  -16.0760   20.3830 H   0  0  0  0  0  0  0  0  0  0  0  0
  -26.7490  -15.8200   19.9550 H   0  0  0  0  0  0  0  0  0  0  0  0
  -30.0100  -25.1720   21.0830 C   0  0  0  0  0  2  0  0  0  0  0  0
  -28.8350  -25.4660   20.1320 C   0  0  0  0  0  2  0  0  0  0  0  0
  -28.7900  -26.8790   19.9150 O   0  0  0  0  0  0  0  0  0  0  0  0
  -24.5800  -31.6140   23.1230 C   0  0  0  0  0  0  0  0  0  0  0  0
  -27.5550  -27.4890   19.9240 C   0  0  0  0  0  0  0  0  0  0  0  0
  -23.4930  -30.2190   21.3950 C   0  0  0  0  0  3  0  0  0  0  0  0
  -25.0640  -28.8210   19.9500 C   0  0  0  0  0  0  0  0  0  0  0  0
  -25.9950  -30.7340   21.2680 C   0  0  0  0  0  2  0  0  0  0  0  0
  -26.1740  -29.4000   20.5760 C   0  0  0  0  0  0  0  0  0  0  0  0
  -27.4220  -28.7440   20.5550 C   0  0  0  0  0  3  0  0  0  0  0  0
  -26.4280  -26.9100   19.3000 C   0  0  0  0  0  3  0  0  0  0  0  0
  -25.1820  -27.5710   19.3150 C   0  0  0  0  0  3  0  0  0  0  0  0
  -23.7720  -29.6030   19.9970 C   0  0  0  0  0  2  0  0  0  0  0  0
  -24.7060  -30.8700   21.9880 N   0  0  0  0  0  0  0  0  0  0  0  0
  -23.4740  -31.8010   23.6480 O   0  0  0  0  0  0  0  0  0  0  0  0
  -22.8790  -29.1240   22.2960 C   0  0  0  0  0  0  0  0  0  0  0  0
  -21.5680  -28.8860   22.1380 N   0  0  0  0  0  0  0  0  0  0  0  0
  -23.5820  -28.4920   23.0900 O   0  0  0  0  0  0  0  0  0  0  0  0
  -21.0630  -29.4520   21.4710 H   0  0  0  0  0  0  0  0  0  0  0  0
  -18.2420  -27.5390   22.5490 C   0  0  0  0  0  0  0  0  0  0  0  0
  -20.7870  -27.8740   22.8470 C   0  0  0  0  0  3  0  0  0  0  0  0
  -20.9430  -26.4850   22.1850 C   0  0  0  0  0  2  0  0  0  0  0  0
  -19.8570  -26.1840   21.1490 C   0  0  0  0  0  2  0  0  0  0  0  0
  -18.4700  -26.2400   21.7950 C   0  0  0  0  0  2  0  0  0  0  0  0
  -19.3310  -28.3150   23.0290 C   0  0  0  0  0  0  0  0  0  0  0  0
  -19.0650  -29.5310   23.6940 C   0  0  0  0  0  3  0  0  0  0  0  0
  -17.7430  -29.9750   23.8820 C   0  0  0  0  0  3  0  0  0  0  0  0
  -16.6680  -29.1970   23.4200 C   0  0  0  0  0  3  0  0  0  0  0  0
  -16.9180  -27.9800   22.7600 C   0  0  0  0  0  3  0  0  0  0  0  0
  -25.8140  -32.2890   23.8010 C   0  0  0  0  0  3  0  0  0  0  0  0
  -25.4320  -33.6660   24.1390 N   0  0  0  0  0  0  0  0  0  0  0  0
  -25.7490  -34.7440   23.4090 C   0  0  0  0  0  0  0  0  0  0  0  0
  -26.4630  -34.6860   22.4050 O   0  0  0  0  0  0  0  0  0  0  0  0
  -24.7940  -33.7800   24.9130 H   0  0  0  0  0  0  0  0  0  0  0  0
  -23.9600  -36.4650   23.0170 C   0  0  0  0  0  1  0  0  0  0  0  0
  -25.1860  -36.1020   23.8690 C   0  0  0  0  0  3  0  0  0  0  0  0
  -27.2480  -37.0670   24.7920 C   0  0  0  0  0  1  0  0  0  0  0  0
  -26.1760  -37.2000   23.8080 N   0  0  0  0  0  0  0  0  0  0  0  0
  -25.7260  -38.1000   23.9460 H   0  0  0  0  0  0  0  0  0  0  0  0
  -26.3170  -31.5180   25.0830 C   0  0  1  0  0  0  0  0  0  0  0  0
  -25.1980  -31.2120   26.1050 C   0  0  0  0  0  1  0  0  0  0  0  0
  -26.9780  -30.1770   24.6880 C   0  0  0  0  0  1  0  0  0  0  0  0
  -27.4040  -32.3530   25.8000 C   0  0  0  0  0  1  0  0  0  0  0  0
  2  8  1  0
  2  1  2  0
  3  4  2  0
  3  2  1  0
  4  7  1  0
  5  3  1  0
  7  1  1  0
  7  6  1  0
  9 10  1  0
  9  8  1  0
 11 20  1  0
 11 10  1  0
 12 20  1  0
 13 18  1  0
 14 15  1  0
 14 13  1  0
 16 15  1  0
 16 25  1  0
 16 17  1  0
 18 12  1  0
 18 17  1  0
 19 12  2  0
 20 21  1  0
 22 23  2  0
 23 42  1  0
 24 23  1  0
 24 27  1  0
 25 22  1  0
 25 26  1  0
 26 24  2  0
 27 28  1  0
 28 29  2  0
 30 33  1  0
 30 29  1  0
 31 30  2  0
 32 31  1  0
 32 27  2  0
 33 34  1  0
 34 39  2  0
 34 35  1  0
 35 36  2  0
 36 37  1  0
 37 41  1  0
 38 37  2  0
 39 38  1  0
 40 39  1  0
 42 43  1  0
 43 46  1  0
 43 45  1  0
 44 42  2  0
 47 48  1  0
 47 22  1  0
 49 47  1  0
 50  4  1  0
 51 50  1  0
 52 54  1  0
 52 51  1  0
 53 64  2  0
 54 59  1  0
 55 63  1  0
 55 65  1  0
 56 62  1  0
 56 58  1  0
 57 63  1  0
 58 57  1  0
 59 58  2  0
 60 61  1  0
 60 54  2  0
 61 56  2  0
 62 55  1  0
 63 53  1  0
 65 67  2  0
 66 65  1  0
 68 66  1  0
 69 78  2  0
 69 74  1  0
 70 66  1  0
 70 74  1  0
 71 70  1  0
 72 73  1  0
 72 71  1  0
 73 69  1  0
 74 75  2  0
 75 76  1  0
 77 76  2  0
 78 77  1  0
 79 53  1  0
 79 80  1  0
 79 89  1  0
 80 83  1  0
 81 85  1  0
 81 80  1  0
 82 81  2  0
 85 84  1  0
 87 85  1  0
 87 88  1  0
 87 86  1  0
 89 92  1  1
 89 90  1  0
 91 89  1  0
M  ISO  4  12 100  20 100  51 101  52 101
M  END
>  <TORSDO>  (61) 
F 22

>  <SCORE>  (61) 
-11.916

>  <name>  (61) 
60

>  <ligand_id>  (61) 
60

>  <original_smiles>  (61) 
[H]c1c([H])c([H])c2c(c1[H])C([H])([H])C([H])([H])C([H])([H])C2([H])N([H])C(=O)C1([H])N(C(=O)C([H])(N([H])C(=O)C([H])(N([H])C([H])([H])[H])C([H])([H])[H])C(C([H])([H])[H])(C([H])([H])[H])C([H])([H])[H])C([H])([H])c2c([H])c(OC([H])([H])C([H])([H])c3c(C([H])([H])[H])c(C([H])([H])C([H])([H])C([H])([H])C([H])([H])N([H])C(=O)N4C([H])([H])C([H])([H])C([H])([H])C([H])(n5nc(-c6c([H])c([H])c(Oc7c([H])c([H])c(F)c([H])c7F)c([H])c6[H])c(C(=O)N([H])[H])c5N([H])[H])C4([H])[H])c([H])n3C([H])([H])[H])c([H])c([H])c2C1([H])[H]

>  <smiles>  (61) 
[H]c1c([H])c([H])c2c(c1[H])C([H])([H])C([H])([H])C([H])([H])C2([H])N([H])C(=O)C1([H])N(C(=O)C([H])(N([H])C(=O)C([H])(N([H])C([H])([H])[H])C([H])([H])[H])C(C([H])([H])[H])(C([H])([H])[H])C([H])([H])[H])C([H])([H])c2c([H])c(OC([H])([H])C([H])([H])c3c(C([H])([H])[H])c(C([H])([H])C([H])([H])C([H])([H])C([H])([H])N([H])C(=O)N4C([H])([H])C([H])([H])C([H])([H])C([H])(n5nc(-c6c([H])c([H])c(Oc7c([H])c([H])c(F)c([H])c7F)c([H])c6[H])c(C(=O)N([H])[H])c5N([H])[H])C4([H])[H])c([H])n3C([H])([H])[H])c([H])c([H])c2C1([H])[H]

$$$$
61:0:0
     RDKit          3D

 87 95  0  0  1  0  0  0  0  0999 V2000
  -27.6060  -19.1090   19.6980 C   0  0  0  0  0  3  0  0  0  0  0  0
  -28.8220  -19.7590   20.0430 C   0  0  0  0  0  0  0  0  0  0  0  0
  -28.4670  -21.2280   19.8520 C   0  0  0  0  0  0  0  0  0  0  0  0
  -26.2620  -22.1150   18.7340 C   0  0  0  0  0  1  0  0  0  0  0  0
  -26.6760  -19.8840   19.2320 N   0  0  0  0  0  0  0  0  0  0  0  0
  -27.1760  -21.1210   19.2840 N   0  0  0  0  0  0  0  0  0  0  0  0
  -29.9390  -18.5140   20.4630 C   0  0  0  0  0  2  0  0  0  0  0  0
  -29.6160  -16.7650   20.4330 C   0  0  0  0  0  2  0  0  0  0  0  0
  -30.5640  -15.3140   20.3620 C   0  0  0  0  0  0  0  0  0  0  0  0
  -30.6070  -12.8970   19.4610 C   0  0  0  0  0  2  0  0  0  0  0  0
  -29.7030  -12.7840   18.2100 C   0  0  0  0  0  2  0  0  0  0  0  0
  -28.2350  -12.5260   18.5990 C   0  0  0  0  0  2  0  0  0  0  0  0
  -27.7790  -13.4190   19.7800 C   0  0  0  0  0  3  0  0  0  0  0  0
  -28.8100  -13.4980   20.9190 C   0  0  0  0  0  2  0  0  0  0  0  0
  -30.0650  -13.9890   20.3350 N   0  0  0  0  0  0  0  0  0  0  0  0
  -31.7840  -15.3810   20.1490 O   0  0  0  0  0  0  0  0  0  0  0  0
  -25.3960  -13.9490   20.5190 C   0  0  0  0  0  0  0  0  0  0  0  0
  -24.3300  -13.1620   20.8560 C   0  0  0  0  0  0  0  0  0  0  0  0
  -24.8030  -11.8160   20.8020 C   0  0  0  0  0  0  0  0  0  0  0  0
  -26.4430  -13.0850   20.2640 N   0  0  0  0  0  0  0  0  0  0  0  0
  -26.0980  -11.7910   20.5010 N   0  0  0  0  0  0  0  0  0  0  0  0
  -24.0760  -10.5460   20.9570 C   0  0  0  0  0  0  0  0  0  0  0  0
  -24.5110   -9.5530   21.8620 C   0  0  0  0  0  3  0  0  0  0  0  0
  -23.7820   -8.3540   22.0150 C   0  0  0  0  0  3  0  0  0  0  0  0
  -22.6040   -8.1410   21.2610 C   0  0  0  0  0  0  0  0  0  0  0  0
  -22.1890   -9.1200   20.3420 C   0  0  0  0  0  3  0  0  0  0  0  0
  -22.9170  -10.3120   20.1910 C   0  0  0  0  0  3  0  0  0  0  0  0
  -21.8520   -6.9950   21.3160 O   0  0  0  0  0  0  0  0  0  0  0  0
  -21.8100   -6.2100   22.4410 C   0  0  0  0  0  0  0  0  0  0  0  0
  -21.3390   -6.7030   23.6750 C   0  0  0  0  0  3  0  0  0  0  0  0
  -21.2560   -5.8470   24.7900 C   0  0  0  0  0  3  0  0  0  0  0  0
  -21.6310   -4.4970   24.6690 C   0  0  0  0  0  0  0  0  0  0  0  0
  -22.0880   -3.9990   23.4360 C   0  0  0  0  0  3  0  0  0  0  0  0
  -22.1760   -4.8540   22.3250 C   0  0  0  0  0  0  0  0  0  0  0  0
  -22.6040   -4.3690   21.1360 F   0  0  0  0  0  0  0  0  0  0  0  0
  -21.5390   -3.6680   25.7350 F   0  0  0  0  0  0  0  0  0  0  0  0
  -22.9300  -13.6270   21.1210 C   0  0  0  0  0  0  0  0  0  0  0  0
  -22.2100  -12.9270   21.9880 N   0  0  0  0  0  0  0  0  0  0  0  0
  -22.4860  -14.6460   20.5950 O   0  0  0  0  0  0  0  0  0  0  0  0
  -22.5890  -12.1080   22.4410 H   0  0  0  0  0  0  0  0  0  0  0  0
  -21.2610  -13.2100   22.1900 H   0  0  0  0  0  0  0  0  0  0  0  0
  -25.5630  -15.3220   20.3740 N   0  0  0  0  0  0  0  0  0  0  0  0
  -24.8010  -15.9840   20.4670 H   0  0  0  0  0  0  0  0  0  0  0  0
  -26.4230  -15.7500   20.0500 H   0  0  0  0  0  0  0  0  0  0  0  0
  -28.9580  -22.8790   20.0340 C   0  0  0  0  0  3  0  0  0  0  0  0
  -28.1050  -24.4310   19.7650 C   0  0  0  0  0  3  0  0  0  0  0  0
  -28.4000  -26.0090   20.0490 O   0  0  0  0  0  0  0  0  0  0  0  0
  -24.7370  -31.7580   23.2330 C   0  0  0  0  0  0  0  0  0  0  0  0
  -27.3840  -27.0820   20.0300 C   0  0  0  0  0  0  0  0  0  0  0  0
  -23.5780  -30.4120   21.5320 C   0  0  0  0  0  3  0  0  0  0  0  0
  -25.0570  -28.8990   20.0520 C   0  0  0  0  0  0  0  0  0  0  0  0
  -26.1410  -30.6710   21.4150 C   0  0  0  0  0  2  0  0  0  0  0  0
  -26.2330  -29.2990   20.7000 C   0  0  0  0  0  0  0  0  0  0  0  0
  -27.3960  -28.4130   20.6630 C   0  0  0  0  0  3  0  0  0  0  0  0
  -26.1800  -26.8280   19.3390 C   0  0  0  0  0  3  0  0  0  0  0  0
  -25.0570  -27.6850   19.3490 C   0  0  0  0  0  3  0  0  0  0  0  0
  -23.8220  -29.7950   20.1280 C   0  0  0  0  0  2  0  0  0  0  0  0
  -24.8410  -30.9720   22.1140 N   0  0  0  0  0  0  0  0  0  0  0  0
  -23.6370  -32.0120   23.7500 O   0  0  0  0  0  0  0  0  0  0  0  0
  -22.8910  -29.3670   22.4460 C   0  0  0  0  0  0  0  0  0  0  0  0
  -21.5630  -29.1940   22.2990 N   0  0  0  0  0  0  0  0  0  0  0  0
  -23.5550  -28.7150   23.2560 O   0  0  0  0  0  0  0  0  0  0  0  0
  -21.0830  -29.7720   21.6220 H   0  0  0  0  0  0  0  0  0  0  0  0
  -18.1810  -27.9630   22.7590 C   0  0  0  0  0  0  0  0  0  0  0  0
  -20.7420  -28.2190   23.0240 C   0  0  0  0  0  3  0  0  0  0  0  0
  -20.8420  -26.8200   22.3750 C   0  0  0  0  0  2  0  0  0  0  0  0
  -19.7370  -26.5470   21.3520 C   0  0  0  0  0  2  0  0  0  0  0  0
  -18.3560  -26.6530   22.0070 C   0  0  0  0  0  2  0  0  0  0  0  0
  -19.3010  -28.7050   23.2210 C   0  0  0  0  0  0  0  0  0  0  0  0
  -19.0840  -29.9270   23.8930 C   0  0  0  0  0  3  0  0  0  0  0  0
  -17.7800  -30.4140   24.0990 C   0  0  0  0  0  3  0  0  0  0  0  0
  -16.6740  -29.6720   23.6490 C   0  0  0  0  0  3  0  0  0  0  0  0
  -16.8740  -28.4470   22.9880 C   0  0  0  0  0  3  0  0  0  0  0  0
  -25.9920  -32.3920   23.9060 C   0  0  0  0  0  3  0  0  0  0  0  0
  -26.4590  -31.6080   25.1940 C   0  0  1  0  0  0  0  0  0  0  0  0
  -25.3290  -31.3540   26.2170 C   0  0  0  0  0  1  0  0  0  0  0  0
  -27.0630  -30.2350   24.8180 C   0  0  0  0  0  1  0  0  0  0  0  0
  -27.5780  -32.4020   25.9100 C   0  0  0  0  0  1  0  0  0  0  0  0
  -25.6570  -33.7850   24.2550 N   0  0  0  0  0  0  0  0  0  0  0  0
  -25.9920  -34.8600   23.5310 C   0  0  0  0  0  0  0  0  0  0  0  0
  -26.6810  -34.7860   22.5090 O   0  0  0  0  0  0  0  0  0  0  0  0
  -25.0420  -33.9160   25.0450 H   0  0  0  0  0  0  0  0  0  0  0  0
  -24.2550  -36.6570   23.1980 C   0  0  0  0  0  1  0  0  0  0  0  0
  -25.4880  -36.2380   24.0130 C   0  0  0  0  0  3  0  0  0  0  0  0
  -27.5940  -37.1300   24.9110 C   0  0  0  0  0  1  0  0  0  0  0  0
  -26.5180  -37.3000   23.9400 N   0  0  0  0  0  0  0  0  0  0  0  0
  -26.0990  -38.2160   24.0840 H   0  0  0  0  0  0  0  0  0  0  0  0
  1  2  1  0
  2  7  1  0
  3 45  1  0
  3  2  2  0
  4  6  1  0
  5  6  1  0
  5  1  2  0
  6  3  1  0
  8  7  1  0
  9  8  1  0
 10 15  1  0
 11 12  1  0
 11 10  1  0
 13 12  1  0
 13 20  1  0
 13 14  1  0
 15  9  1  0
 15 14  1  0
 16  9  2  0
 17 18  2  0
 18 37  1  0
 19 18  1  0
 19 22  1  0
 20 21  1  0
 20 17  1  0
 21 19  2  0
 22 23  1  0
 23 24  2  0
 25 28  1  0
 25 24  1  0
 26 25  2  0
 27 26  1  0
 27 22  2  0
 28 29  1  0
 29 30  1  0
 30 31  2  0
 32 31  1  0
 32 36  1  0
 33 32  2  0
 34 29  2  0
 34 33  1  0
 35 34  1  0
 37 38  1  0
 38 41  1  0
 38 40  1  0
 39 37  2  0
 42 43  1  0
 42 17  1  0
 44 42  1  0
 46 45  2  0
 46 47  1  0
 48 59  2  0
 49 47  1  0
 49 54  1  0
 50 58  1  0
 50 60  1  0
 51 57  1  0
 51 53  1  0
 52 58  1  0
 53 52  1  0
 54 53  2  0
 55 56  1  0
 55 49  2  0
 56 51  2  0
 57 50  1  0
 58 48  1  0
 60 62  2  0
 61 60  1  0
 63 61  1  0
 64 73  2  0
 64 69  1  0
 65 61  1  0
 65 69  1  0
 66 65  1  0
 67 68  1  0
 67 66  1  0
 68 64  1  0
 69 70  2  0
 70 71  1  0
 72 71  2  0
 73 72  1  0
 74 48  1  0
 74 79  1  0
 74 75  1  0
 75 78  1  1
 75 76  1  0
 77 75  1  0
 79 82  1  0
 80 84  1  0
 80 79  1  0
 81 80  2  0
 84 83  1  0
 86 84  1  0
 86 87  1  0
 86 85  1  0
M  ISO  4   8 100   9 100  46 101  47 101
M  END
>  <TORSDO>  (62) 
F 20

>  <SCORE>  (62) 
-15.567

>  <name>  (62) 
61

>  <ligand_id>  (62) 
61

>  <original_smiles>  (62) 
[H]c1nn(C([H])([H])[H])c(C([H])([H])C([H])([H])Oc2c([H])c([H])c3c(c2[H])C([H])([H])N(C(=O)C([H])(N([H])C(=O)C([H])(N([H])C([H])([H])[H])C([H])([H])[H])C(C([H])([H])[H])(C([H])([H])[H])C([H])([H])[H])C([H])(C(=O)N([H])C2([H])c4c([H])c([H])c([H])c([H])c4C([H])([H])C([H])([H])C2([H])[H])C3([H])[H])c1C([H])([H])C([H])([H])C(=O)N1C([H])([H])C([H])([H])C([H])([H])C([H])(n2nc(-c3c([H])c([H])c(Oc4c([H])c([H])c(F)c([H])c4F)c([H])c3[H])c(C(=O)N([H])[H])c2N([H])[H])C1([H])[H]

>  <smiles>  (62) 
[H]c1nn(C([H])([H])[H])c(C([H])([H])C([H])([H])Oc2c([H])c([H])c3c(c2[H])C([H])([H])N(C(=O)C([H])(N([H])C(=O)C([H])(N([H])C([H])([H])[H])C([H])([H])[H])C(C([H])([H])[H])(C([H])([H])[H])C([H])([H])[H])C([H])(C(=O)N([H])C2([H])c4c([H])c([H])c([H])c([H])c4C([H])([H])C([H])([H])C2([H])[H])C3([H])[H])c1C([H])([H])C([H])([H])C(=O)N1C([H])([H])C([H])([H])C([H])([H])C([H])(n2nc(-c3c([H])c([H])c(Oc4c([H])c([H])c(F)c([H])c4F)c([H])c3[H])c(C(=O)N([H])[H])c2N([H])[H])C1([H])[H]

$$$$
62:0:0
     RDKit          3D

 95103  0  0  1  0  0  0  0  0999 V2000
  -30.2000  -22.2920   20.5690 C   0  0  0  0  0  3  0  0  0  0  0  0
  -28.3100  -20.7900   20.2250 C   0  0  0  0  0  3  0  0  0  0  0  0
  -28.0420  -23.1980   19.9180 C   0  0  0  0  0  3  0  0  0  0  0  0
  -29.6600  -20.9750   20.5930 C   0  0  0  0  0  0  0  0  0  0  0  0
  -29.4020  -23.4180   20.2250 C   0  0  0  0  0  0  0  0  0  0  0  0
  -27.4980  -21.8970   19.8920 C   0  0  0  0  0  0  0  0  0  0  0  0
  -30.5500  -19.7910   21.0150 C   0  0  0  0  0  2  0  0  0  0  0  0
  -29.8810  -18.5070   21.6130 C   0  0  0  0  0  2  0  0  0  0  0  0
  -29.6590  -17.3600   20.5940 C   0  0  0  0  0  2  0  0  0  0  0  0
  -30.4450  -14.9870   20.8930 C   0  0  0  0  0  0  0  0  0  0  0  0
  -30.3920  -12.7260   19.9120 C   0  0  0  0  0  2  0  0  0  0  0  0
  -29.5320  -12.7860   18.6310 C   0  0  0  0  0  2  0  0  0  0  0  0
  -28.0430  -12.5740   18.9630 C   0  0  0  0  0  2  0  0  0  0  0  0
  -27.5570  -13.4680   20.1350 C   0  0  0  0  0  3  0  0  0  0  0  0
  -28.5370  -13.3950   21.3310 C   0  0  0  0  0  2  0  0  0  0  0  0
  -29.8800  -13.7480   20.8400 N   0  0  0  0  0  0  0  0  0  0  0  0
  -31.5940  -15.2140   20.5050 O   0  0  0  0  0  0  0  0  0  0  0  0
  -29.5910  -15.9960   21.1650 N   0  0  0  0  0  0  0  0  0  0  0  0
  -28.6860  -15.7060   21.5060 H   0  0  0  0  0  0  0  0  0  0  0  0
  -25.1040  -13.9790   20.7250 C   0  0  0  0  0  0  0  0  0  0  0  0
  -24.0450  -13.1620   21.0190 C   0  0  0  0  0  0  0  0  0  0  0  0
  -24.5540  -11.8280   20.9820 C   0  0  0  0  0  0  0  0  0  0  0  0
  -26.1900  -13.1390   20.5330 N   0  0  0  0  0  0  0  0  0  0  0  0
  -25.8590  -11.8390   20.7440 N   0  0  0  0  0  0  0  0  0  0  0  0
  -23.8640  -10.5370   21.1030 C   0  0  0  0  0  0  0  0  0  0  0  0
  -24.2950   -9.5520   22.0190 C   0  0  0  0  0  3  0  0  0  0  0  0
  -23.6040   -8.3270   22.1300 C   0  0  0  0  0  3  0  0  0  0  0  0
  -22.4680   -8.0770   21.3250 C   0  0  0  0  0  0  0  0  0  0  0  0
  -22.0560   -9.0520   20.3980 C   0  0  0  0  0  3  0  0  0  0  0  0
  -22.7480  -10.2690   20.2850 C   0  0  0  0  0  3  0  0  0  0  0  0
  -21.7500   -6.9060   21.3450 O   0  0  0  0  0  0  0  0  0  0  0  0
  -21.7070   -6.1080   22.4610 C   0  0  0  0  0  0  0  0  0  0  0  0
  -21.2670   -6.5960   23.7110 C   0  0  0  0  0  3  0  0  0  0  0  0
  -21.1730   -5.7240   24.8140 C   0  0  0  0  0  3  0  0  0  0  0  0
  -21.5080   -4.3660   24.6680 C   0  0  0  0  0  0  0  0  0  0  0  0
  -21.9420   -3.8760   23.4240 C   0  0  0  0  0  3  0  0  0  0  0  0
  -22.0380   -4.7440   22.3220 C   0  0  0  0  0  0  0  0  0  0  0  0
  -22.4360   -4.2630   21.1200 F   0  0  0  0  0  0  0  0  0  0  0  0
  -21.4110   -3.5260   25.7250 F   0  0  0  0  0  0  0  0  0  0  0  0
  -22.6190  -13.5850   21.2260 C   0  0  0  0  0  0  0  0  0  0  0  0
  -21.8800  -12.8610   22.0590 N   0  0  0  0  0  0  0  0  0  0  0  0
  -22.1660  -14.5930   20.6850 O   0  0  0  0  0  0  0  0  0  0  0  0
  -22.2560  -12.0460   22.5180 H   0  0  0  0  0  0  0  0  0  0  0  0
  -20.9230  -13.1280   22.2410 H   0  0  0  0  0  0  0  0  0  0  0  0
  -25.2300  -15.3570   20.5870 N   0  0  0  0  0  0  0  0  0  0  0  0
  -24.4330  -15.9800   20.6600 H   0  0  0  0  0  0  0  0  0  0  0  0
  -26.0780  -15.8330   20.3060 H   0  0  0  0  0  0  0  0  0  0  0  0
  -29.9710  -24.8550   20.2430 C   0  0  0  0  0  2  0  0  0  0  0  0
  -29.2350  -25.8720   19.3230 C   0  0  0  0  0  2  0  0  0  0  0  0
  -29.2220  -27.2420   19.7970 O   0  0  0  0  0  0  0  0  0  0  0  0
  -24.7600  -31.5180   23.3560 C   0  0  0  0  0  0  0  0  0  0  0  0
  -27.9930  -27.8860   19.7930 C   0  0  0  0  0  0  0  0  0  0  0  0
  -23.7800  -30.2720   21.4600 C   0  0  0  0  0  3  0  0  0  0  0  0
  -25.4480  -29.1410   19.8960 C   0  0  0  0  0  0  0  0  0  0  0  0
  -26.2590  -30.9130   21.4580 C   0  0  0  0  0  2  0  0  0  0  0  0
  -26.5210  -29.6760   20.6200 C   0  0  0  0  0  0  0  0  0  0  0  0
  -27.7950  -29.0590   20.5640 C   0  0  0  0  0  3  0  0  0  0  0  0
  -26.8970  -27.3850   19.0480 C   0  0  0  0  0  3  0  0  0  0  0  0
  -25.6320  -27.9960   19.1060 C   0  0  0  0  0  3  0  0  0  0  0  0
  -24.1150  -29.8450   20.0070 C   0  0  0  0  0  2  0  0  0  0  0  0
  -24.9470  -30.9080   22.1520 N   0  0  0  0  0  0  0  0  0  0  0  0
  -23.6350  -31.5880   23.8710 O   0  0  0  0  0  0  0  0  0  0  0  0
  -23.2100  -29.0500   22.2180 C   0  0  0  0  0  0  0  0  0  0  0  0
  -21.9190  -28.7560   21.9930 N   0  0  0  0  0  0  0  0  0  0  0  0
  -23.9280  -28.3780   22.9620 O   0  0  0  0  0  0  0  0  0  0  0  0
  -21.3950  -29.3600   21.3750 H   0  0  0  0  0  0  0  0  0  0  0  0
  -18.6760  -27.1650   22.1320 C   0  0  0  0  0  0  0  0  0  0  0  0
  -21.1820  -27.6300   22.5660 C   0  0  0  0  0  3  0  0  0  0  0  0
  -21.4540  -26.3260   21.7800 C   0  0  0  0  0  2  0  0  0  0  0  0
  -20.4280  -26.0620   20.6750 C   0  0  0  0  0  2  0  0  0  0  0  0
  -19.0170  -25.9650   21.2650 C   0  0  0  0  0  2  0  0  0  0  0  0
  -19.6930  -27.9550   22.7300 C   0  0  0  0  0  0  0  0  0  0  0  0
  -19.3230  -29.0800   23.4980 C   0  0  0  0  0  3  0  0  0  0  0  0
  -17.9680  -29.4190   23.6750 C   0  0  0  0  0  3  0  0  0  0  0  0
  -16.9650  -28.6240   23.0940 C   0  0  0  0  0  3  0  0  0  0  0  0
  -17.3200  -27.4980   22.3290 C   0  0  0  0  0  3  0  0  0  0  0  0
  -25.9430  -32.1750   24.1330 C   0  0  0  0  0  3  0  0  0  0  0  0
  -25.6010  -33.5880   24.3470 N   0  0  0  0  0  0  0  0  0  0  0  0
  -26.0610  -34.6010   23.6020 C   0  0  0  0  0  0  0  0  0  0  0  0
  -26.8830  -34.4470   22.6950 O   0  0  0  0  0  0  0  0  0  0  0  0
  -24.8910  -33.7800   25.0390 H   0  0  0  0  0  0  0  0  0  0  0  0
  -24.4380  -36.3850   22.8890 C   0  0  0  0  0  1  0  0  0  0  0  0
  -25.5210  -36.0110   23.9120 C   0  0  0  0  0  3  0  0  0  0  0  0
  -27.5080  -36.9110   25.0420 C   0  0  0  0  0  1  0  0  0  0  0  0
  -26.5720  -37.0520   23.9290 N   0  0  0  0  0  0  0  0  0  0  0  0
  -26.1610  -37.9800   23.9770 H   0  0  0  0  0  0  0  0  0  0  0  0
  -26.2570  -31.4630   25.5070 C   0  0  1  0  0  0  0  0  0  0  0  0
  -25.0160  -31.2900   26.4140 C   0  0  0  0  0  1  0  0  0  0  0  0
  -26.8680  -30.0630   25.2690 C   0  0  0  0  0  1  0  0  0  0  0  0
  -27.3120  -32.2790   26.2900 C   0  0  0  0  0  1  0  0  0  0  0  0
  -26.0340  -21.6900   19.5110 C   0  0  0  0  0  3  0  0  0  0  0  0
  -26.6960  -20.3290   17.4110 C   0  0  0  0  0  1  0  0  0  0  0  0
  -25.8440  -21.4680   17.9930 C   0  0  0  0  0  2  0  0  0  0  0  0
  -25.3590  -23.2080   21.4880 C   0  0  0  0  0  1  0  0  0  0  0  0
  -25.1350  -22.8390   20.0140 C   0  0  0  0  0  2  0  0  0  0  0  0
  1  4  1  0
  2  4  2  0
  3  5  1  0
  4  7  1  0
  5 48  1  0
  5  1  2  0
  6  3  2  0
  6  2  1  0
  7  8  1  0
  9 18  1  0
  9  8  1  0
 10 18  1  0
 11 16  1  0
 12 13  1  0
 12 11  1  0
 14 13  1  0
 14 23  1  0
 14 15  1  0
 16 10  1  0
 16 15  1  0
 17 10  2  0
 18 19  1  0
 20 21  2  0
 21 40  1  0
 22 21  1  0
 22 25  1  0
 23 20  1  0
 23 24  1  0
 24 22  2  0
 25 26  1  0
 26 27  2  0
 28 31  1  0
 28 27  1  0
 29 28  2  0
 30 29  1  0
 30 25  2  0
 31 32  1  0
 32 33  1  0
 33 34  2  0
 35 34  1  0
 35 39  1  0
 36 35  2  0
 37 32  2  0
 37 36  1  0
 38 37  1  0
 40 41  1  0
 41 44  1  0
 41 43  1  0
 42 40  2  0
 45 46  1  0
 45 20  1  0
 47 45  1  0
 49 50  1  0
 49 48  1  0
 51 62  2  0
 52 50  1  0
 52 57  1  0
 53 61  1  0
 53 63  1  0
 54 60  1  0
 54 56  1  0
 55 61  1  0
 56 55  1  0
 57 56  2  0
 58 59  1  0
 58 52  2  0
 59 54  2  0
 60 53  1  0
 61 51  1  0
 63 65  2  0
 64 63  1  0
 66 64  1  0
 67 76  2  0
 67 72  1  0
 68 64  1  0
 68 72  1  0
 69 68  1  0
 70 71  1  0
 70 69  1  0
 71 67  1  0
 72 73  2  0
 73 74  1  0
 75 74  2  0
 76 75  1  0
 77 51  1  0
 77 78  1  0
 77 87  1  0
 78 81  1  0
 79 83  1  0
 79 78  1  0
 80 79  2  0
 83 82  1  0
 83 85  1  0
 85 86  1  0
 85 84  1  0
 87 90  1  1
 87 88  1  0
 89 87  1  0
 91  6  1  0
 91 95  1  0
 92 93  1  0
 93 91  1  0
 95 94  1  0
M  ISO  4  10 100  18 100  49 101  50 101
M  END
>  <TORSDO>  (63) 
F 24

>  <SCORE>  (63) 
-10.270

>  <name>  (63) 
62

>  <ligand_id>  (63) 
62

>  <original_smiles>  (63) 
[H]c1c([H])c([H])c2c(c1[H])C([H])([H])C([H])([H])C([H])([H])C2([H])N([H])C(=O)C1([H])N(C(=O)C([H])(N([H])C(=O)C([H])(N([H])C([H])([H])[H])C([H])([H])[H])C(C([H])([H])[H])(C([H])([H])[H])C([H])([H])[H])C([H])([H])c2c([H])c(OC([H])([H])C([H])([H])c3c([H])c(C([H])([H])C([H])([H])C([H])([H])N([H])C(=O)N4C([H])([H])C([H])([H])C([H])([H])C([H])(n5nc(-c6c([H])c([H])c(Oc7c([H])c([H])c(F)c([H])c7F)c([H])c6[H])c(C(=O)N([H])[H])c5N([H])[H])C4([H])[H])c([H])c(C([H])(C([H])([H])C([H])([H])[H])C([H])([H])C([H])([H])[H])c3[H])c([H])c([H])c2C1([H])[H]

>  <smiles>  (63) 
[H]c1c([H])c([H])c2c(c1[H])C([H])([H])C([H])([H])C([H])([H])C2([H])N([H])C(=O)C1([H])N(C(=O)C([H])(N([H])C(=O)C([H])(N([H])C([H])([H])[H])C([H])([H])[H])C(C([H])([H])[H])(C([H])([H])[H])C([H])([H])[H])C([H])([H])c2c([H])c(OC([H])([H])C([H])([H])c3c([H])c(C([H])([H])C([H])([H])C([H])([H])N([H])C(=O)N4C([H])([H])C([H])([H])C([H])([H])C([H])(n5nc(-c6c([H])c([H])c(Oc7c([H])c([H])c(F)c([H])c7F)c([H])c6[H])c(C(=O)N([H])[H])c5N([H])[H])C4([H])[H])c([H])c(C([H])(C([H])([H])C([H])([H])[H])C([H])([H])C([H])([H])[H])c3[H])c([H])c([H])c2C1([H])[H]

$$$$
63:0:0
     RDKit          3D

 90 98  0  0  1  0  0  0  0  0999 V2000
  -29.7110  -22.4380   21.6160 C   0  0  0  0  0  3  0  0  0  0  0  0
  -29.0450  -24.5510   21.5350 C   0  0  0  0  0  3  0  0  0  0  0  0
  -29.0890  -22.5730   20.3980 C   0  0  0  0  0  0  0  0  0  0  0  0
  -28.6490  -23.9940   20.3480 C   0  0  0  0  0  0  0  0  0  0  0  0
  -30.2590  -23.8420   23.6260 C   0  0  0  0  0  1  0  0  0  0  0  0
  -29.6940  -23.6220   22.3070 N   0  0  0  0  0  0  0  0  0  0  0  0
  -28.9990  -21.3120   19.4480 C   0  0  0  0  0  3  0  0  0  0  0  0
  -29.6620  -19.9470   20.0100 C   0  0  0  0  0  3  0  0  0  0  0  0
  -29.4080  -18.4860   19.3880 C   0  0  0  0  0  2  0  0  0  0  0  0
  -30.3060  -17.2840   19.9700 C   0  0  0  0  0  2  0  0  0  0  0  0
  -30.5710  -14.7190   19.5540 C   0  0  0  0  0  0  0  0  0  0  0  0
  -30.2350  -12.4470   18.5840 C   0  0  0  0  0  2  0  0  0  0  0  0
  -29.1660  -12.5310   17.4730 C   0  0  0  0  0  2  0  0  0  0  0  0
  -27.7510  -12.3830   18.0660 C   0  0  0  0  0  2  0  0  0  0  0  0
  -27.5230  -13.2850   19.3080 C   0  0  0  0  0  3  0  0  0  0  0  0
  -28.6990  -13.1840   20.3040 C   0  0  0  0  0  2  0  0  0  0  0  0
  -29.9250  -13.5080   19.5650 N   0  0  0  0  0  0  0  0  0  0  0  0
  -31.7130  -14.8180   19.1020 O   0  0  0  0  0  0  0  0  0  0  0  0
  -29.8380  -15.8450   19.8710 N   0  0  0  0  0  0  0  0  0  0  0  0
  -28.8850  -15.6690   20.1560 H   0  0  0  0  0  0  0  0  0  0  0  0
  -25.2770  -13.9060   20.3810 C   0  0  0  0  0  0  0  0  0  0  0  0
  -24.2350  -13.1440   20.8370 C   0  0  0  0  0  0  0  0  0  0  0  0
  -24.6320  -11.7830   20.6550 C   0  0  0  0  0  0  0  0  0  0  0  0
  -26.2430  -13.0110   19.9500 N   0  0  0  0  0  0  0  0  0  0  0  0
  -25.8690  -11.7250   20.1770 N   0  0  0  0  0  0  0  0  0  0  0  0
  -23.8820  -10.5360   20.8530 C   0  0  0  0  0  0  0  0  0  0  0  0
  -24.3400   -9.5290   21.7320 C   0  0  0  0  0  3  0  0  0  0  0  0
  -23.5920   -8.3460   21.9190 C   0  0  0  0  0  3  0  0  0  0  0  0
  -22.3710   -8.1630   21.2270 C   0  0  0  0  0  0  0  0  0  0  0  0
  -21.9320   -9.1580   20.3340 C   0  0  0  0  0  3  0  0  0  0  0  0
  -22.6810  -10.3300   20.1470 C   0  0  0  0  0  3  0  0  0  0  0  0
  -21.5890   -7.0380   21.3290 O   0  0  0  0  0  0  0  0  0  0  0  0
  -21.5320   -6.3020   22.4870 C   0  0  0  0  0  0  0  0  0  0  0  0
  -21.0270   -6.8440   23.6900 C   0  0  0  0  0  3  0  0  0  0  0  0
  -20.9220   -6.0320   24.8360 C   0  0  0  0  0  3  0  0  0  0  0  0
  -21.3120   -4.6810   24.7820 C   0  0  0  0  0  0  0  0  0  0  0  0
  -21.8100   -4.1400   23.5830 C   0  0  0  0  0  3  0  0  0  0  0  0
  -21.9170   -4.9470   22.4390 C   0  0  0  0  0  0  0  0  0  0  0  0
  -22.3780   -4.4160   21.2810 F   0  0  0  0  0  0  0  0  0  0  0  0
  -21.2030   -3.8980   25.8800 F   0  0  0  0  0  0  0  0  0  0  0  0
  -22.9050  -13.6460   21.3180 C   0  0  0  0  0  0  0  0  0  0  0  0
  -22.2600  -12.9130   22.2190 N   0  0  0  0  0  0  0  0  0  0  0  0
  -22.4490  -14.7200   20.9270 O   0  0  0  0  0  0  0  0  0  0  0  0
  -22.6410  -12.0400   22.5550 H   0  0  0  0  0  0  0  0  0  0  0  0
  -21.3720  -13.2290   22.5790 H   0  0  0  0  0  0  0  0  0  0  0  0
  -25.4720  -15.2810   20.2740 N   0  0  0  0  0  0  0  0  0  0  0  0
  -24.7420  -15.9430   20.5120 H   0  0  0  0  0  0  0  0  0  0  0  0
  -26.2650  -15.7120   19.8170 H   0  0  0  0  0  0  0  0  0  0  0  0
  -27.8600  -24.9060   19.3420 C   0  0  0  0  0  2  0  0  0  0  0  0
  -28.0300  -26.3810   19.5280 O   0  0  0  0  0  0  0  0  0  0  0  0
  -24.4480  -31.5830   23.0170 C   0  0  0  0  0  0  0  0  0  0  0  0
  -26.9100  -27.2310   19.5550 C   0  0  0  0  0  0  0  0  0  0  0  0
  -23.1670  -30.2910   21.3450 C   0  0  0  0  0  3  0  0  0  0  0  0
  -24.5500  -28.8440   19.7500 C   0  0  0  0  0  0  0  0  0  0  0  0
  -25.6950  -30.6300   21.0620 C   0  0  0  0  0  2  0  0  0  0  0  0
  -25.7440  -29.2950   20.3240 C   0  0  0  0  0  0  0  0  0  0  0  0
  -26.9250  -28.5000   20.2170 C   0  0  0  0  0  3  0  0  0  0  0  0
  -25.6970  -26.8440   18.9460 C   0  0  0  0  0  3  0  0  0  0  0  0
  -24.5270  -27.6260   19.0500 C   0  0  0  0  0  3  0  0  0  0  0  0
  -23.3160  -29.7080   19.9140 C   0  0  0  0  0  2  0  0  0  0  0  0
  -24.4590  -30.8510   21.8640 N   0  0  0  0  0  0  0  0  0  0  0  0
  -23.3900  -31.8210   23.6200 O   0  0  0  0  0  0  0  0  0  0  0  0
  -22.5510  -29.2130   22.2680 C   0  0  0  0  0  0  0  0  0  0  0  0
  -21.2260  -29.0150   22.1680 N   0  0  0  0  0  0  0  0  0  0  0  0
  -23.2640  -28.5610   23.0370 O   0  0  0  0  0  0  0  0  0  0  0  0
  -20.7060  -29.5970   21.5250 H   0  0  0  0  0  0  0  0  0  0  0  0
  -17.8850  -27.7300   22.6940 C   0  0  0  0  0  0  0  0  0  0  0  0
  -20.4470  -28.0210   22.9070 C   0  0  0  0  0  3  0  0  0  0  0  0
  -20.5560  -26.6260   22.2500 C   0  0  0  0  0  2  0  0  0  0  0  0
  -19.4300  -26.3410   21.2500 C   0  0  0  0  0  2  0  0  0  0  0  0
  -18.0650  -26.4240   21.9390 C   0  0  0  0  0  2  0  0  0  0  0  0
  -19.0030  -28.4870   23.1360 C   0  0  0  0  0  0  0  0  0  0  0  0
  -18.7790  -29.7110   23.8040 C   0  0  0  0  0  3  0  0  0  0  0  0
  -17.4710  -30.1790   24.0330 C   0  0  0  0  0  3  0  0  0  0  0  0
  -16.3680  -29.4190   23.6070 C   0  0  0  0  0  3  0  0  0  0  0  0
  -16.5770  -28.1960   22.9450 C   0  0  0  0  0  3  0  0  0  0  0  0
  -25.7590  -32.1760   23.6210 C   0  0  0  0  0  3  0  0  0  0  0  0
  -25.4830  -33.5680   24.0020 N   0  0  0  0  0  0  0  0  0  0  0  0
  -25.8640  -34.6410   23.2950 C   0  0  0  0  0  0  0  0  0  0  0  0
  -26.5530  -34.5590   22.2730 O   0  0  0  0  0  0  0  0  0  0  0  0
  -24.8740  -33.7090   24.7940 H   0  0  0  0  0  0  0  0  0  0  0  0
  -24.2090  -36.5070   22.9720 C   0  0  0  0  0  1  0  0  0  0  0  0
  -25.4090  -36.0240   23.8010 C   0  0  0  0  0  3  0  0  0  0  0  0
  -27.5290  -36.8090   24.7590 C   0  0  0  0  0  1  0  0  0  0  0  0
  -26.4810  -37.0440   23.7710 N   0  0  0  0  0  0  0  0  0  0  0  0
  -26.0960  -37.9730   23.9290 H   0  0  0  0  0  0  0  0  0  0  0  0
  -26.2980  -31.3580   24.8580 C   0  0  1  0  0  0  0  0  0  0  0  0
  -25.2310  -31.0930   25.9440 C   0  0  0  0  0  1  0  0  0  0  0  0
  -26.8570  -29.9900   24.4030 C   0  0  0  0  0  1  0  0  0  0  0  0
  -27.4740  -32.1190   25.5170 C   0  0  0  0  0  1  0  0  0  0  0  0
  1  6  1  0
  2  6  1  0
  3  1  2  0
  4  3  1  0
  4  2  2  0
  6  5  1  0
  7  8  2  0
  7  3  1  0
  9 10  1  0
  9  8  1  0
 11 17  1  0
 11 19  1  0
 12 17  1  0
 13 14  1  0
 13 12  1  0
 15 14  1  0
 15 24  1  0
 15 16  1  0
 17 16  1  0
 18 11  2  0
 19 10  1  0
 19 20  1  0
 21 22  2  0
 22 41  1  0
 23 22  1  0
 23 26  1  0
 24 25  1  0
 24 21  1  0
 25 23  2  0
 26 27  1  0
 27 28  2  0
 29 32  1  0
 29 28  1  0
 30 29  2  0
 31 30  1  0
 31 26  2  0
 32 33  1  0
 33 34  1  0
 34 35  2  0
 36 35  1  0
 36 40  1  0
 37 36  2  0
 38 33  2  0
 38 37  1  0
 39 38  1  0
 41 42  1  0
 42 44  1  0
 42 45  1  0
 43 41  2  0
 46 21  1  0
 46 47  1  0
 48 46  1  0
 49 50  1  0
 49  4  1  0
 50 52  1  0
 51 62  2  0
 52 57  1  0
 53 61  1  0
 53 63  1  0
 54 60  1  0
 54 56  1  0
 55 61  1  0
 56 55  1  0
 57 56  2  0
 58 59  1  0
 58 52  2  0
 59 54  2  0
 60 53  1  0
 61 51  1  0
 63 65  2  0
 64 63  1  0
 66 64  1  0
 67 76  2  0
 67 72  1  0
 68 64  1  0
 68 72  1  0
 69 68  1  0
 70 71  1  0
 70 69  1  0
 71 67  1  0
 72 73  2  0
 73 74  1  0
 75 74  2  0
 76 75  1  0
 77 51  1  0
 77 78  1  0
 77 87  1  0
 78 81  1  0
 79 83  1  0
 79 78  1  0
 80 79  2  0
 83 82  1  0
 85 83  1  0
 85 86  1  0
 85 84  1  0
 87 90  1  1
 87 88  1  0
 89 87  1  0
M  ISO  4  11 100  19 100  49 101  50 101
M  END
>  <TORSDO>  (64) 
F 21

>  <SCORE>  (64) 
-11.698

>  <name>  (64) 
63

>  <ligand_id>  (64) 
63

>  <original_smiles>  (64) 
[H]c1c([H])c([H])c2c(c1[H])C([H])([H])C([H])([H])C([H])([H])C2([H])N([H])C(=O)C1([H])N(C(=O)C([H])(N([H])C(=O)C([H])(N([H])C([H])([H])[H])C([H])([H])[H])C(C([H])([H])[H])(C([H])([H])[H])C([H])([H])[H])C([H])([H])c2c([H])c(OC([H])([H])c3c(C([H])([H])C([H])([H])C([H])([H])C([H])([H])N([H])C(=O)N4C([H])([H])C([H])([H])C([H])([H])C([H])(n5nc(-c6c([H])c([H])c(Oc7c([H])c([H])c(F)c([H])c7F)c([H])c6[H])c(C(=O)N([H])[H])c5N([H])[H])C4([H])[H])c([H])n(C([H])([H])[H])c3[H])c([H])c([H])c2C1([H])[H]

>  <smiles>  (64) 
[H]c1c([H])c([H])c2c(c1[H])C([H])([H])C([H])([H])C([H])([H])C2([H])N([H])C(=O)C1([H])N(C(=O)C([H])(N([H])C(=O)C([H])(N([H])C([H])([H])[H])C([H])([H])[H])C(C([H])([H])[H])(C([H])([H])[H])C([H])([H])[H])C([H])([H])c2c([H])c(OC([H])([H])c3c(C([H])([H])C([H])([H])C([H])([H])C([H])([H])N([H])C(=O)N4C([H])([H])C([H])([H])C([H])([H])C([H])(n5nc(-c6c([H])c([H])c(Oc7c([H])c([H])c(F)c([H])c7F)c([H])c6[H])c(C(=O)N([H])[H])c5N([H])[H])C4([H])[H])c([H])n(C([H])([H])[H])c3[H])c([H])c([H])c2C1([H])[H]

$$$$
64:0:0
     RDKit          3D

 91 99  0  0  1  0  0  0  0  0999 V2000
  -28.9350  -20.7740   22.1240 C   0  0  0  0  0  3  0  0  0  0  0  0
  -29.0820  -20.1470   20.8570 C   0  0  0  0  0  0  0  0  0  0  0  0
  -29.0720  -21.2060   19.9770 C   0  0  0  0  0  0  0  0  0  0  0  0
  -29.1660  -21.2090   18.4860 C   0  0  0  0  0  1  0  0  0  0  0  0
  -28.8210  -22.0890   22.0400 N   0  0  0  0  0  0  0  0  0  0  0  0
  -28.9180  -22.3750   20.7210 N   0  0  0  0  0  0  0  0  0  0  0  0
  -29.1730  -18.6460   20.6230 C   0  0  0  0  0  2  0  0  0  0  0  0
  -30.6240  -18.1280   20.4810 C   0  0  0  0  0  2  0  0  0  0  0  0
  -31.0140  -16.9620   21.4270 C   0  0  0  0  0  2  0  0  0  0  0  0
  -31.0520  -14.7030   20.3380 C   0  0  0  0  0  0  0  0  0  0  0  0
  -30.7320  -12.5440   19.1840 C   0  0  0  0  0  2  0  0  0  0  0  0
  -29.7830  -12.7270   17.9830 C   0  0  0  0  0  2  0  0  0  0  0  0
  -28.3120  -12.6010   18.4230 C   0  0  0  0  0  2  0  0  0  0  0  0
  -27.9830  -13.4670   19.6680 C   0  0  0  0  0  3  0  0  0  0  0  0
  -29.0360  -13.2490   20.7750 C   0  0  0  0  0  2  0  0  0  0  0  0
  -30.3630  -13.5400   20.2030 N   0  0  0  0  0  0  0  0  0  0  0  0
  -32.1380  -14.9110   19.7860 O   0  0  0  0  0  0  0  0  0  0  0  0
  -30.4480  -15.6540   21.0700 N   0  0  0  0  0  0  0  0  0  0  0  0
  -29.5610  -15.4040   21.4810 H   0  0  0  0  0  0  0  0  0  0  0  0
  -25.5970  -14.1100   20.3950 C   0  0  0  0  0  0  0  0  0  0  0  0
  -24.5210  -13.3520   20.7710 C   0  0  0  0  0  0  0  0  0  0  0  0
  -24.9600  -11.9940   20.7300 C   0  0  0  0  0  0  0  0  0  0  0  0
  -26.6270  -13.2130   20.1540 N   0  0  0  0  0  0  0  0  0  0  0  0
  -26.2480  -11.9350   20.4110 N   0  0  0  0  0  0  0  0  0  0  0  0
  -24.2180  -10.7410   20.9210 C   0  0  0  0  0  0  0  0  0  0  0  0
  -24.6070   -9.7920   21.8920 C   0  0  0  0  0  3  0  0  0  0  0  0
  -23.8670   -8.6040   22.0680 C   0  0  0  0  0  3  0  0  0  0  0  0
  -22.7220   -8.3560   21.2740 C   0  0  0  0  0  0  0  0  0  0  0  0
  -22.3520   -9.2940   20.2940 C   0  0  0  0  0  3  0  0  0  0  0  0
  -23.0930  -10.4740   20.1160 C   0  0  0  0  0  3  0  0  0  0  0  0
  -21.9560   -7.2190   21.3580 O   0  0  0  0  0  0  0  0  0  0  0  0
  -21.8110   -6.5350   22.5390 C   0  0  0  0  0  0  0  0  0  0  0  0
  -21.2610   -7.1420   23.6890 C   0  0  0  0  0  3  0  0  0  0  0  0
  -21.0650   -6.3830   24.8610 C   0  0  0  0  0  3  0  0  0  0  0  0
  -21.4090   -5.0180   24.8820 C   0  0  0  0  0  0  0  0  0  0  0  0
  -21.9510   -4.4110   23.7350 C   0  0  0  0  0  3  0  0  0  0  0  0
  -22.1480   -5.1670   22.5660 C   0  0  0  0  0  0  0  0  0  0  0  0
  -22.6520   -4.5710   21.4580 F   0  0  0  0  0  0  0  0  0  0  0  0
  -21.2130   -4.2870   26.0030 F   0  0  0  0  0  0  0  0  0  0  0  0
  -23.1340  -13.8490   21.0570 C   0  0  0  0  0  0  0  0  0  0  0  0
  -22.4080  -13.1700   21.9390 N   0  0  0  0  0  0  0  0  0  0  0  0
  -22.7010  -14.8750   20.5340 O   0  0  0  0  0  0  0  0  0  0  0  0
  -22.7680  -12.3390   22.3850 H   0  0  0  0  0  0  0  0  0  0  0  0
  -21.4760  -13.4850   22.1710 H   0  0  0  0  0  0  0  0  0  0  0  0
  -25.7840  -15.4780   20.2220 N   0  0  0  0  0  0  0  0  0  0  0  0
  -25.0310  -16.1470   20.3360 H   0  0  0  0  0  0  0  0  0  0  0  0
  -26.6410  -15.8980   19.8850 H   0  0  0  0  0  0  0  0  0  0  0  0
  -28.7120  -23.7640   20.2830 C   0  0  0  0  0  2  0  0  0  0  0  0
  -29.5670  -24.8220   21.0370 C   0  0  0  0  0  2  0  0  0  0  0  0
  -28.8680  -26.1820   21.2750 C   0  0  0  0  0  2  0  0  0  0  0  0
  -28.6590  -26.9320   20.0770 O   0  0  0  0  0  0  0  0  0  0  0  0
  -24.7140  -31.9450   23.2790 C   0  0  0  0  0  0  0  0  0  0  0  0
  -27.5050  -27.6770   20.0980 C   0  0  0  0  0  0  0  0  0  0  0  0
  -23.5640  -30.5710   21.5720 C   0  0  0  0  0  3  0  0  0  0  0  0
  -25.0780  -29.1160   20.1210 C   0  0  0  0  0  0  0  0  0  0  0  0
  -26.0830  -30.9960   21.4270 C   0  0  0  0  0  2  0  0  0  0  0  0
  -26.2130  -29.6490   20.7470 C   0  0  0  0  0  0  0  0  0  0  0  0
  -27.4320  -28.9330   20.7400 C   0  0  0  0  0  3  0  0  0  0  0  0
  -26.3600  -27.1540   19.4680 C   0  0  0  0  0  3  0  0  0  0  0  0
  -25.1450  -27.8640   19.4820 C   0  0  0  0  0  3  0  0  0  0  0  0
  -23.8120  -29.9420   20.1750 C   0  0  0  0  0  2  0  0  0  0  0  0
  -24.8040  -31.1830   22.1520 N   0  0  0  0  0  0  0  0  0  0  0  0
  -23.6180  -32.1740   23.8110 O   0  0  0  0  0  0  0  0  0  0  0  0
  -22.9230  -29.5030   22.4890 C   0  0  0  0  0  0  0  0  0  0  0  0
  -21.6000  -29.3190   22.3580 N   0  0  0  0  0  0  0  0  0  0  0  0
  -23.6140  -28.8440   23.2720 O   0  0  0  0  0  0  0  0  0  0  0  0
  -21.1040  -29.9030   21.7000 H   0  0  0  0  0  0  0  0  0  0  0  0
  -18.2260  -28.1240   22.8520 C   0  0  0  0  0  0  0  0  0  0  0  0
  -20.7910  -28.3440   23.0900 C   0  0  0  0  0  3  0  0  0  0  0  0
  -20.8680  -26.9480   22.4290 C   0  0  0  0  0  2  0  0  0  0  0  0
  -19.7440  -26.6950   21.4200 C   0  0  0  0  0  2  0  0  0  0  0  0
  -18.3750  -26.8150   22.0970 C   0  0  0  0  0  2  0  0  0  0  0  0
  -19.3600  -28.8500   23.3050 C   0  0  0  0  0  0  0  0  0  0  0  0
  -19.1640  -30.0790   23.9720 C   0  0  0  0  0  3  0  0  0  0  0  0
  -17.8680  -30.5810   24.1900 C   0  0  0  0  0  3  0  0  0  0  0  0
  -16.7490  -29.8500   23.7570 C   0  0  0  0  0  3  0  0  0  0  0  0
  -16.9280  -28.6250   23.0920 C   0  0  0  0  0  3  0  0  0  0  0  0
  -25.9750  -32.5840   23.9380 C   0  0  0  0  0  3  0  0  0  0  0  0
  -25.6350  -33.9690   24.2900 N   0  0  0  0  0  0  0  0  0  0  0  0
  -25.9700  -35.0420   23.5620 C   0  0  0  0  0  0  0  0  0  0  0  0
  -26.6660  -34.9720   22.5450 O   0  0  0  0  0  0  0  0  0  0  0  0
  -25.0220  -34.0960   25.0830 H   0  0  0  0  0  0  0  0  0  0  0  0
  -24.2280  -36.8160   23.1940 C   0  0  0  0  0  1  0  0  0  0  0  0
  -25.4490  -36.4120   24.0350 C   0  0  0  0  0  3  0  0  0  0  0  0
  -27.5390  -37.3080   24.9580 C   0  0  0  0  0  1  0  0  0  0  0  0
  -26.4680  -37.4810   23.9800 N   0  0  0  0  0  0  0  0  0  0  0  0
  -26.0440  -38.3900   24.1350 H   0  0  0  0  0  0  0  0  0  0  0  0
  -26.4830  -31.7920   25.2060 C   0  0  1  0  0  0  0  0  0  0  0  0
  -25.3680  -31.4880   26.2340 C   0  0  0  0  0  1  0  0  0  0  0  0
  -27.1220  -30.4470   24.7870 C   0  0  0  0  0  1  0  0  0  0  0  0
  -27.5900  -32.6020   25.9220 C   0  0  0  0  0  1  0  0  0  0  0  0
  2  1  1  0
  3  6  1  0
  3  2  2  0
  4  3  1  0
  5  1  2  0
  6  5  1  0
  7  2  1  0
  8  7  1  0
  8  9  1  0
 10 18  1  0
 11 16  1  0
 12 13  1  0
 12 11  1  0
 14 13  1  0
 14 23  1  0
 14 15  1  0
 16 10  1  0
 16 15  1  0
 17 10  2  0
 18  9  1  0
 18 19  1  0
 20 21  2  0
 21 40  1  0
 22 21  1  0
 22 25  1  0
 23 20  1  0
 23 24  1  0
 24 22  2  0
 25 26  1  0
 26 27  2  0
 28 31  1  0
 28 27  1  0
 29 28  2  0
 30 29  1  0
 30 25  2  0
 31 32  1  0
 32 37  2  0
 32 33  1  0
 33 34  2  0
 34 35  1  0
 35 39  1  0
 36 35  2  0
 37 36  1  0
 38 37  1  0
 40 41  1  0
 41 44  1  0
 41 43  1  0
 42 40  2  0
 45 46  1  0
 45 20  1  0
 47 45  1  0
 48  6  1  0
 48 49  1  0
 49 50  1  0
 51 53  1  0
 51 50  1  0
 52 63  2  0
 53 58  1  0
 54 62  1  0
 54 64  1  0
 55 61  1  0
 55 57  1  0
 56 62  1  0
 57 56  1  0
 58 57  2  0
 59 60  1  0
 59 53  2  0
 60 55  2  0
 61 54  1  0
 62 52  1  0
 64 66  2  0
 65 64  1  0
 67 65  1  0
 68 77  2  0
 68 73  1  0
 69 65  1  0
 69 73  1  0
 70 69  1  0
 71 72  1  0
 71 70  1  0
 72 68  1  0
 73 74  2  0
 74 75  1  0
 76 75  2  0
 77 76  1  0
 78 52  1  0
 78 79  1  0
 78 88  1  0
 79 82  1  0
 80 84  1  0
 80 79  1  0
 81 80  2  0
 84 83  1  0
 86 84  1  0
 86 87  1  0
 86 85  1  0
 88 91  1  1
 88 89  1  0
 90 88  1  0
M  ISO  4  10 100  18 100  50 101  51 101
M  END
>  <TORSDO>  (65) 
F 22

>  <SCORE>  (65) 
-12.373

>  <name>  (65) 
64

>  <ligand_id>  (65) 
64

>  <original_smiles>  (65) 
[H]c1nn(C([H])([H])C([H])([H])C([H])([H])Oc2c([H])c([H])c3c(c2[H])C([H])([H])N(C(=O)C([H])(N([H])C(=O)C([H])(N([H])C([H])([H])[H])C([H])([H])[H])C(C([H])([H])[H])(C([H])([H])[H])C([H])([H])[H])C([H])(C(=O)N([H])C2([H])c4c([H])c([H])c([H])c([H])c4C([H])([H])C([H])([H])C2([H])[H])C3([H])[H])c(C([H])([H])[H])c1C([H])([H])C([H])([H])C([H])([H])N([H])C(=O)N1C([H])([H])C([H])([H])C([H])([H])C([H])(n2nc(-c3c([H])c([H])c(Oc4c([H])c([H])c(F)c([H])c4F)c([H])c3[H])c(C(=O)N([H])[H])c2N([H])[H])C1([H])[H]

>  <smiles>  (65) 
[H]c1nn(C([H])([H])C([H])([H])C([H])([H])Oc2c([H])c([H])c3c(c2[H])C([H])([H])N(C(=O)C([H])(N([H])C(=O)C([H])(N([H])C([H])([H])[H])C([H])([H])[H])C(C([H])([H])[H])(C([H])([H])[H])C([H])([H])[H])C([H])(C(=O)N([H])C2([H])c4c([H])c([H])c([H])c([H])c4C([H])([H])C([H])([H])C2([H])[H])C3([H])[H])c(C([H])([H])[H])c1C([H])([H])C([H])([H])C([H])([H])N([H])C(=O)N1C([H])([H])C([H])([H])C([H])([H])C([H])(n2nc(-c3c([H])c([H])c(Oc4c([H])c([H])c(F)c([H])c4F)c([H])c3[H])c(C(=O)N([H])[H])c2N([H])[H])C1([H])[H]

$$$$
65:0:0
     RDKit          3D

 90 98  0  0  1  0  0  0  0  0999 V2000
  -28.9840  -21.3370   20.8870 C   0  0  0  0  0  3  0  0  0  0  0  0
  -30.3610  -21.4260   22.5840 C   0  0  0  0  0  3  0  0  0  0  0  0
  -29.4880  -22.2190   21.8880 C   0  0  0  0  0  0  0  0  0  0  0  0
  -29.5150  -20.1190   20.9570 N   0  0  0  0  0  0  0  0  0  0  0  0
  -30.3500  -20.1670   22.0200 N   0  0  0  0  0  0  0  0  0  0  0  0
  -29.1600  -23.6730   22.1650 C   0  0  0  0  0  2  0  0  0  0  0  0
  -28.7980  -24.5120   20.9200 C   0  0  0  0  0  2  0  0  0  0  0  0
  -28.6720  -26.0160   21.2480 C   0  0  0  0  0  2  0  0  0  0  0  0
  -28.4210  -26.7760   20.0650 O   0  0  0  0  0  0  0  0  0  0  0  0
  -24.6590  -31.9000   23.2760 C   0  0  0  0  0  0  0  0  0  0  0  0
  -27.2660  -27.5140   20.1120 C   0  0  0  0  0  0  0  0  0  0  0  0
  -23.4270  -30.5060   21.6430 C   0  0  0  0  0  3  0  0  0  0  0  0
  -24.8620  -28.9860   20.1800 C   0  0  0  0  0  0  0  0  0  0  0  0
  -25.9440  -30.8830   21.4000 C   0  0  0  0  0  2  0  0  0  0  0  0
  -26.0260  -29.5170   20.7540 C   0  0  0  0  0  0  0  0  0  0  0  0
  -27.2320  -28.7850   20.7240 C   0  0  0  0  0  3  0  0  0  0  0  0
  -26.0940  -26.9900   19.5310 C   0  0  0  0  0  3  0  0  0  0  0  0
  -24.8890  -27.7200   19.5680 C   0  0  0  0  0  3  0  0  0  0  0  0
  -23.6140  -29.8370   20.2550 C   0  0  0  0  0  2  0  0  0  0  0  0
  -24.6970  -31.1100   22.1660 N   0  0  0  0  0  0  0  0  0  0  0  0
  -23.5880  -32.1620   23.8390 O   0  0  0  0  0  0  0  0  0  0  0  0
  -22.7990  -29.4740   22.6070 C   0  0  0  0  0  0  0  0  0  0  0  0
  -21.4760  -29.2740   22.4880 N   0  0  0  0  0  0  0  0  0  0  0  0
  -23.4980  -28.8580   23.4150 O   0  0  0  0  0  0  0  0  0  0  0  0
  -20.9740  -29.8240   21.8060 H   0  0  0  0  0  0  0  0  0  0  0  0
  -18.1270  -28.0130   22.9820 C   0  0  0  0  0  0  0  0  0  0  0  0
  -20.6780  -28.3240   23.2620 C   0  0  0  0  0  3  0  0  0  0  0  0
  -20.8130  -26.8920   22.6930 C   0  0  0  0  0  2  0  0  0  0  0  0
  -19.7210  -26.5420   21.6760 C   0  0  0  0  0  2  0  0  0  0  0  0
  -18.3340  -26.6630   22.3150 C   0  0  0  0  0  2  0  0  0  0  0  0
  -19.2290  -28.8000   23.4120 C   0  0  0  0  0  0  0  0  0  0  0  0
  -18.9840  -30.0620   23.9940 C   0  0  0  0  0  3  0  0  0  0  0  0
  -17.6690  -30.5400   24.1510 C   0  0  0  0  0  3  0  0  0  0  0  0
  -16.5820  -29.7510   23.7390 C   0  0  0  0  0  3  0  0  0  0  0  0
  -16.8110  -28.4890   23.1590 C   0  0  0  0  0  3  0  0  0  0  0  0
  -25.9560  -32.5280   23.8770 C   0  0  0  0  0  3  0  0  0  0  0  0
  -25.6530  -33.9250   24.2160 N   0  0  0  0  0  0  0  0  0  0  0  0
  -25.9660  -34.9780   23.4490 C   0  0  0  0  0  0  0  0  0  0  0  0
  -26.6130  -34.8760   22.4030 O   0  0  0  0  0  0  0  0  0  0  0  0
  -25.0760  -34.0780   25.0300 H   0  0  0  0  0  0  0  0  0  0  0  0
  -24.2250  -36.7640   23.1340 C   0  0  0  0  0  1  0  0  0  0  0  0
  -25.4860  -36.3640   23.9170 C   0  0  0  0  0  3  0  0  0  0  0  0
  -27.6370  -37.2570   24.6950 C   0  0  0  0  0  1  0  0  0  0  0  0
  -26.5130  -37.4200   23.7770 N   0  0  0  0  0  0  0  0  0  0  0  0
  -26.1090  -38.3400   23.9310 H   0  0  0  0  0  0  0  0  0  0  0  0
  -26.4970  -31.7510   25.1390 C   0  0  1  0  0  0  0  0  0  0  0  0
  -25.4240  -31.5100   26.2280 C   0  0  0  0  0  1  0  0  0  0  0  0
  -27.0700  -30.3760   24.7270 C   0  0  0  0  0  1  0  0  0  0  0  0
  -27.6610  -32.5400   25.7810 C   0  0  0  0  0  1  0  0  0  0  0  0
  -31.1770  -19.0260   22.4070 C   0  0  0  0  0  2  0  0  0  0  0  0
  -30.5440  -17.6220   22.2260 C   0  0  0  0  0  2  0  0  0  0  0  0
  -31.0840  -16.8610   20.9990 C   0  0  0  0  0  2  0  0  0  0  0  0
  -31.1730  -14.4890   20.2540 C   0  0  0  0  0  0  0  0  0  0  0  0
  -30.7900  -12.3320   19.1260 C   0  0  0  0  0  2  0  0  0  0  0  0
  -29.8470  -12.5410   17.9250 C   0  0  0  0  0  2  0  0  0  0  0  0
  -28.3740  -12.4580   18.3680 C   0  0  0  0  0  2  0  0  0  0  0  0
  -28.0710  -13.3340   19.6140 C   0  0  0  0  0  3  0  0  0  0  0  0
  -29.1220  -13.0950   20.7210 C   0  0  0  0  0  2  0  0  0  0  0  0
  -30.4550  -13.3410   20.1430 N   0  0  0  0  0  0  0  0  0  0  0  0
  -32.2640  -14.6600   19.7010 O   0  0  0  0  0  0  0  0  0  0  0  0
  -30.5750  -15.4870   20.9250 N   0  0  0  0  0  0  0  0  0  0  0  0
  -29.6720  -15.2920   21.3330 H   0  0  0  0  0  0  0  0  0  0  0  0
  -25.7030  -14.0340   20.3440 C   0  0  0  0  0  0  0  0  0  0  0  0
  -24.6100  -13.3020   20.7240 C   0  0  0  0  0  0  0  0  0  0  0  0
  -25.0190  -11.9340   20.6870 C   0  0  0  0  0  0  0  0  0  0  0  0
  -26.7120  -13.1130   20.1030 N   0  0  0  0  0  0  0  0  0  0  0  0
  -26.3030  -11.8450   20.3650 N   0  0  0  0  0  0  0  0  0  0  0  0
  -24.2470  -10.6990   20.8840 C   0  0  0  0  0  0  0  0  0  0  0  0
  -24.6290   -9.7360   21.8440 C   0  0  0  0  0  3  0  0  0  0  0  0
  -23.8610   -8.5660   22.0270 C   0  0  0  0  0  3  0  0  0  0  0  0
  -22.6980   -8.3510   21.2500 C   0  0  0  0  0  0  0  0  0  0  0  0
  -22.3350   -9.3030   20.2820 C   0  0  0  0  0  3  0  0  0  0  0  0
  -23.1030  -10.4640   20.0970 C   0  0  0  0  0  3  0  0  0  0  0  0
  -21.9050   -7.2320   21.3420 O   0  0  0  0  0  0  0  0  0  0  0  0
  -21.7630   -6.5440   22.5210 C   0  0  0  0  0  0  0  0  0  0  0  0
  -21.2760   -7.1660   23.6910 C   0  0  0  0  0  3  0  0  0  0  0  0
  -21.0800   -6.4050   24.8610 C   0  0  0  0  0  3  0  0  0  0  0  0
  -21.3610   -5.0250   24.8620 C   0  0  0  0  0  0  0  0  0  0  0  0
  -21.8420   -4.4050   23.6950 C   0  0  0  0  0  3  0  0  0  0  0  0
  -22.0390   -5.1620   22.5270 C   0  0  0  0  0  0  0  0  0  0  0  0
  -22.4820   -4.5560   21.3990 F   0  0  0  0  0  0  0  0  0  0  0  0
  -21.1660   -4.2940   25.9830 F   0  0  0  0  0  0  0  0  0  0  0  0
  -23.2350  -13.8310   21.0140 C   0  0  0  0  0  0  0  0  0  0  0  0
  -22.4970  -13.1710   21.8990 N   0  0  0  0  0  0  0  0  0  0  0  0
  -22.8250  -14.8660   20.4900 O   0  0  0  0  0  0  0  0  0  0  0  0
  -22.8410  -12.3320   22.3450 H   0  0  0  0  0  0  0  0  0  0  0  0
  -21.5740  -13.5080   22.1360 H   0  0  0  0  0  0  0  0  0  0  0  0
  -25.9190  -15.3960   20.1670 N   0  0  0  0  0  0  0  0  0  0  0  0
  -25.1830  -16.0830   20.2900 H   0  0  0  0  0  0  0  0  0  0  0  0
  -26.7880  -15.8030   19.8420 H   0  0  0  0  0  0  0  0  0  0  0  0
  1  4  2  0
  1  3  1  0
  3  6  1  0
  3  2  2  0
  4  5  1  0
  5 50  1  0
  5  2  1  0
  7  8  1  0
  7  6  1  0
  9 11  1  0
  9  8  1  0
 10 21  2  0
 11 16  1  0
 12 20  1  0
 12 22  1  0
 13 19  1  0
 13 15  1  0
 14 20  1  0
 15 14  1  0
 16 15  2  0
 17 18  1  0
 17 11  2  0
 18 13  2  0
 19 12  1  0
 20 10  1  0
 22 24  2  0
 23 22  1  0
 25 23  1  0
 26 35  2  0
 26 31  1  0
 27 23  1  0
 27 31  1  0
 28 27  1  0
 29 30  1  0
 29 28  1  0
 30 26  1  0
 31 32  2  0
 32 33  1  0
 34 33  2  0
 35 34  1  0
 36 10  1  0
 36 37  1  0
 36 46  1  0
 37 40  1  0
 38 42  1  0
 38 37  1  0
 39 38  2  0
 42 41  1  0
 44 42  1  0
 44 45  1  0
 44 43  1  0
 46 49  1  1
 46 47  1  0
 48 46  1  0
 51 50  1  0
 52 51  1  0
 53 61  1  0
 54 59  1  0
 55 56  1  0
 55 54  1  0
 57 56  1  0
 57 66  1  0
 57 58  1  0
 59 53  1  0
 59 58  1  0
 60 53  2  0
 61 52  1  0
 61 62  1  0
 63 64  2  0
 64 83  1  0
 65 64  1  0
 65 68  1  0
 66 63  1  0
 66 67  1  0
 67 65  2  0
 68 69  1  0
 69 70  2  0
 71 74  1  0
 71 70  1  0
 72 71  2  0
 73 72  1  0
 73 68  2  0
 74 75  1  0
 75 80  2  0
 75 76  1  0
 76 77  2  0
 77 78  1  0
 78 82  1  0
 79 78  2  0
 80 79  1  0
 81 80  1  0
 83 84  1  0
 84 87  1  0
 84 86  1  0
 85 83  2  0
 88 89  1  0
 88 63  1  0
 90 88  1  0
M  ISO  4   8 101   9 101  53 100  61 100
M  END
>  <TORSDO>  (66) 
F 22

>  <SCORE>  (66) 
-12.878

>  <name>  (66) 
65

>  <ligand_id>  (66) 
65

>  <original_smiles>  (66) 
[H]c1nn(C([H])([H])C([H])([H])C([H])([H])N([H])C(=O)N2C([H])([H])C([H])([H])C([H])([H])C([H])(n3nc(-c4c([H])c([H])c(Oc5c([H])c([H])c(F)c([H])c5F)c([H])c4[H])c(C(=O)N([H])[H])c3N([H])[H])C2([H])[H])c([H])c1C([H])([H])C([H])([H])C([H])([H])Oc1c([H])c([H])c2c(c1[H])C([H])([H])N(C(=O)C([H])(N([H])C(=O)C([H])(N([H])C([H])([H])[H])C([H])([H])[H])C(C([H])([H])[H])(C([H])([H])[H])C([H])([H])[H])C([H])(C(=O)N([H])C1([H])c3c([H])c([H])c([H])c([H])c3C([H])([H])C([H])([H])C1([H])[H])C2([H])[H]

>  <smiles>  (66) 
[H]c1nn(C([H])([H])C([H])([H])C([H])([H])N([H])C(=O)N2C([H])([H])C([H])([H])C([H])([H])C([H])(n3nc(-c4c([H])c([H])c(Oc5c([H])c([H])c(F)c([H])c5F)c([H])c4[H])c(C(=O)N([H])[H])c3N([H])[H])C2([H])[H])c([H])c1C([H])([H])C([H])([H])C([H])([H])Oc1c([H])c([H])c2c(c1[H])C([H])([H])N(C(=O)C([H])(N([H])C(=O)C([H])(N([H])C([H])([H])[H])C([H])([H])[H])C(C([H])([H])[H])(C([H])([H])[H])C([H])([H])[H])C([H])(C(=O)N([H])C1([H])c3c([H])c([H])c([H])c([H])c3C([H])([H])C([H])([H])C1([H])[H])C2([H])[H]

$$$$
66:0:0
     RDKit          3D

 92100  0  0  1  0  0  0  0  0999 V2000
  -29.5520  -21.7640   20.4310 C   0  0  0  0  0  3  0  0  0  0  0  0
  -30.4490  -22.9640   18.5400 C   0  0  0  0  0  3  0  0  0  0  0  0
  -29.8170  -23.0110   19.7920 C   0  0  0  0  0  0  0  0  0  0  0  0
  -29.8620  -20.5330   19.7740 C   0  0  0  0  0  0  0  0  0  0  0  0
  -30.4050  -20.6340   18.4660 C   0  0  0  0  0  0  0  0  0  0  0  0
  -30.7420  -21.8170   17.9040 N   0  0  0  0  0  0  0  0  0  0  0  0
  -30.4660  -19.6650   16.0840 C   0  0  0  0  0  1  0  0  0  0  0  0
  -30.6690  -19.4160   17.5850 C   0  0  0  0  0  2  0  0  0  0  0  0
  -29.5320  -24.3990   20.4190 C   0  0  0  0  0  2  0  0  0  0  0  0
  -28.4360  -25.2720   19.7180 C   0  0  0  0  0  2  0  0  0  0  0  0
  -28.4030  -26.6510   20.1840 O   0  0  0  0  0  0  0  0  0  0  0  0
  -24.5800  -31.8690   23.2410 C   0  0  0  0  0  0  0  0  0  0  0  0
  -27.2240  -27.3930   20.1420 C   0  0  0  0  0  0  0  0  0  0  0  0
  -23.3750  -30.4750   21.5950 C   0  0  0  0  0  3  0  0  0  0  0  0
  -24.8280  -28.9380   20.1590 C   0  0  0  0  0  0  0  0  0  0  0  0
  -25.9050  -30.8140   21.4060 C   0  0  0  0  0  2  0  0  0  0  0  0
  -25.9880  -29.4450   20.7570 C   0  0  0  0  0  0  0  0  0  0  0  0
  -27.1830  -28.6800   20.7450 C   0  0  0  0  0  3  0  0  0  0  0  0
  -26.0390  -26.9220   19.5230 C   0  0  0  0  0  3  0  0  0  0  0  0
  -24.8520  -27.6780   19.5390 C   0  0  0  0  0  3  0  0  0  0  0  0
  -23.5840  -29.8020   20.2120 C   0  0  0  0  0  2  0  0  0  0  0  0
  -24.6390  -31.0670   22.1380 N   0  0  0  0  0  0  0  0  0  0  0  0
  -23.4960  -32.1420   23.7780 O   0  0  0  0  0  0  0  0  0  0  0  0
  -22.7190  -29.4510   22.5520 C   0  0  0  0  0  0  0  0  0  0  0  0
  -21.3940  -29.2700   22.4200 N   0  0  0  0  0  0  0  0  0  0  0  0
  -23.3990  -28.8260   23.3680 O   0  0  0  0  0  0  0  0  0  0  0  0
  -20.9060  -29.8260   21.7310 H   0  0  0  0  0  0  0  0  0  0  0  0
  -18.0160  -28.0780   22.9130 C   0  0  0  0  0  0  0  0  0  0  0  0
  -20.5740  -28.3280   23.1850 C   0  0  0  0  0  3  0  0  0  0  0  0
  -20.6730  -26.9010   22.5990 C   0  0  0  0  0  2  0  0  0  0  0  0
  -19.5690  -26.5880   21.5830 C   0  0  0  0  0  2  0  0  0  0  0  0
  -18.1880  -26.7330   22.2280 C   0  0  0  0  0  2  0  0  0  0  0  0
  -19.1370  -28.8350   23.3480 C   0  0  0  0  0  0  0  0  0  0  0  0
  -18.9230  -30.0950   23.9470 C   0  0  0  0  0  3  0  0  0  0  0  0
  -17.6190  -30.6000   24.1120 C   0  0  0  0  0  3  0  0  0  0  0  0
  -16.5120  -29.8420   23.6920 C   0  0  0  0  0  3  0  0  0  0  0  0
  -16.7120  -28.5810   23.1020 C   0  0  0  0  0  3  0  0  0  0  0  0
  -25.8640  -32.4960   23.8650 C   0  0  0  0  0  3  0  0  0  0  0  0
  -25.5610  -33.8970   24.1880 N   0  0  0  0  0  0  0  0  0  0  0  0
  -25.9020  -34.9440   23.4260 C   0  0  0  0  0  0  0  0  0  0  0  0
  -26.5750  -34.8330   22.3990 O   0  0  0  0  0  0  0  0  0  0  0  0
  -24.9620  -34.0580   24.9850 H   0  0  0  0  0  0  0  0  0  0  0  0
  -24.1850  -36.7430   23.0510 C   0  0  0  0  0  1  0  0  0  0  0  0
  -25.4170  -36.3370   23.8740 C   0  0  0  0  0  3  0  0  0  0  0  0
  -27.5490  -37.2130   24.7220 C   0  0  0  0  0  1  0  0  0  0  0  0
  -26.4570  -37.3830   23.7650 N   0  0  0  0  0  0  0  0  0  0  0  0
  -26.0570  -38.3080   23.9050 H   0  0  0  0  0  0  0  0  0  0  0  0
  -26.3720  -31.7270   25.1470 C   0  0  1  0  0  0  0  0  0  0  0  0
  -25.2710  -31.4970   26.2100 C   0  0  0  0  0  1  0  0  0  0  0  0
  -26.9500  -30.3460   24.7590 C   0  0  0  0  0  1  0  0  0  0  0  0
  -27.5270  -32.5160   25.8100 C   0  0  0  0  0  1  0  0  0  0  0  0
  -29.5450  -19.1580   20.4450 C   0  0  0  0  0  3  0  0  0  0  0  0
  -30.6950  -18.0840   20.5410 C   0  0  0  0  0  3  0  0  0  0  0  0
  -30.5210  -16.8880   21.5460 C   0  0  0  0  0  2  0  0  0  0  0  0
  -30.6510  -14.5660   20.5110 C   0  0  0  0  0  0  0  0  0  0  0  0
  -30.3420  -12.4010   19.3470 C   0  0  0  0  0  2  0  0  0  0  0  0
  -29.4080  -12.5990   18.1360 C   0  0  0  0  0  2  0  0  0  0  0  0
  -27.9370  -12.4390   18.5670 C   0  0  0  0  0  2  0  0  0  0  0  0
  -27.5870  -13.2880   19.8180 C   0  0  0  0  0  3  0  0  0  0  0  0
  -28.6400  -13.0920   20.9330 C   0  0  0  0  0  2  0  0  0  0  0  0
  -29.9600  -13.3990   20.3620 N   0  0  0  0  0  0  0  0  0  0  0  0
  -31.7980  -14.7170   20.0900 O   0  0  0  0  0  0  0  0  0  0  0  0
  -29.9640  -15.6050   21.0410 N   0  0  0  0  0  0  0  0  0  0  0  0
  -29.0010  -15.4060   21.2720 H   0  0  0  0  0  0  0  0  0  0  0  0
  -25.1860  -13.8970   20.5130 C   0  0  0  0  0  0  0  0  0  0  0  0
  -24.1130  -13.1280   20.8780 C   0  0  0  0  0  0  0  0  0  0  0  0
  -24.5730  -11.7750   20.8550 C   0  0  0  0  0  0  0  0  0  0  0  0
  -26.2310  -13.0130   20.2910 N   0  0  0  0  0  0  0  0  0  0  0  0
  -25.8670  -11.7330   20.5570 N   0  0  0  0  0  0  0  0  0  0  0  0
  -23.8440  -10.5140   21.0400 C   0  0  0  0  0  0  0  0  0  0  0  0
  -24.2690   -9.5490   21.9800 C   0  0  0  0  0  3  0  0  0  0  0  0
  -23.5420   -8.3510   22.1540 C   0  0  0  0  0  3  0  0  0  0  0  0
  -22.3760   -8.1120   21.3900 C   0  0  0  0  0  0  0  0  0  0  0  0
  -21.9700   -9.0660   20.4400 C   0  0  0  0  0  3  0  0  0  0  0  0
  -22.6990  -10.2540   20.2620 C   0  0  0  0  0  3  0  0  0  0  0  0
  -21.6220   -6.9660   21.4710 O   0  0  0  0  0  0  0  0  0  0  0  0
  -21.5620   -6.2250   22.6240 C   0  0  0  0  0  0  0  0  0  0  0  0
  -21.1170   -6.7790   23.8440 C   0  0  0  0  0  3  0  0  0  0  0  0
  -21.0030   -5.9630   24.9880 C   0  0  0  0  0  3  0  0  0  0  0  0
  -21.3270   -4.5960   24.9120 C   0  0  0  0  0  0  0  0  0  0  0  0
  -21.7680   -4.0420   23.6990 C   0  0  0  0  0  3  0  0  0  0  0  0
  -21.8830   -4.8540   22.5570 C   0  0  0  0  0  0  0  0  0  0  0  0
  -22.2860   -4.3090   21.3830 F   0  0  0  0  0  0  0  0  0  0  0  0
  -21.2130   -3.8120   26.0100 F   0  0  0  0  0  0  0  0  0  0  0  0
  -22.7140  -13.6070   21.1340 C   0  0  0  0  0  0  0  0  0  0  0  0
  -21.9720  -12.9140   21.9920 N   0  0  0  0  0  0  0  0  0  0  0  0
  -22.2840  -14.6340   20.6110 O   0  0  0  0  0  0  0  0  0  0  0  0
  -22.3270  -12.0820   22.4370 H   0  0  0  0  0  0  0  0  0  0  0  0
  -21.0340  -13.2220   22.2020 H   0  0  0  0  0  0  0  0  0  0  0  0
  -25.3560  -15.2660   20.3310 N   0  0  0  0  0  0  0  0  0  0  0  0
  -24.5980  -15.9290   20.4460 H   0  0  0  0  0  0  0  0  0  0  0  0
  -26.1930  -15.6900   19.9490 H   0  0  0  0  0  0  0  0  0  0  0  0
  2  3  2  0
  3  9  1  0
  3  1  1  0
  4  1  2  0
  4 52  1  0
  5  4  1  0
  6  5  2  0
  6  2  1  0
  7  8  1  0
  8  5  1  0
 10 11  1  0
 10  9  1  0
 12 23  2  0
 13 11  1  0
 13 18  1  0
 14 22  1  0
 14 24  1  0
 15 21  1  0
 15 17  1  0
 16 22  1  0
 17 16  1  0
 18 17  2  0
 19 20  1  0
 19 13  2  0
 20 15  2  0
 21 14  1  0
 22 12  1  0
 24 26  2  0
 25 24  1  0
 27 25  1  0
 28 37  2  0
 28 33  1  0
 29 25  1  0
 29 33  1  0
 30 29  1  0
 31 32  1  0
 31 30  1  0
 32 28  1  0
 33 34  2  0
 34 35  1  0
 36 35  2  0
 37 36  1  0
 38 12  1  0
 38 39  1  0
 38 48  1  0
 39 42  1  0
 40 44  1  0
 40 39  1  0
 41 40  2  0
 44 43  1  0
 46 44  1  0
 46 47  1  0
 46 45  1  0
 48 51  1  1
 48 49  1  0
 50 48  1  0
 52 53  2  0
 53 54  1  0
 55 63  1  0
 56 61  1  0
 57 58  1  0
 57 56  1  0
 59 58  1  0
 59 68  1  0
 59 60  1  0
 61 55  1  0
 61 60  1  0
 62 55  2  0
 63 64  1  0
 63 54  1  0
 65 66  2  0
 66 85  1  0
 67 66  1  0
 67 70  1  0
 68 65  1  0
 68 69  1  0
 69 67  2  0
 70 71  1  0
 71 72  2  0
 73 76  1  0
 73 72  1  0
 74 73  2  0
 75 74  1  0
 75 70  2  0
 76 77  1  0
 77 78  1  0
 78 79  2  0
 80 79  1  0
 80 84  1  0
 81 80  2  0
 82 77  2  0
 82 81  1  0
 83 82  1  0
 85 86  1  0
 86 89  1  0
 86 88  1  0
 87 85  2  0
 90 91  1  0
 90 65  1  0
 92 90  1  0
M  ISO  4  10 101  11 101  55 100  63 100
M  END
>  <TORSDO>  (67) 
F 22

>  <SCORE>  (67) 
-13.195

>  <name>  (67) 
66

>  <ligand_id>  (67) 
66

>  <original_smiles>  (67) 
[H]c1nc(C([H])([H])C([H])([H])[H])c(C([H])([H])C([H])([H])C([H])([H])N([H])C(=O)N2C([H])([H])C([H])([H])C([H])([H])C([H])(n3nc(-c4c([H])c([H])c(Oc5c([H])c([H])c(F)c([H])c5F)c([H])c4[H])c(C(=O)N([H])[H])c3N([H])[H])C2([H])[H])c([H])c1C([H])([H])C([H])([H])Oc1c([H])c([H])c2c(c1[H])C([H])([H])N(C(=O)C([H])(N([H])C(=O)C([H])(N([H])C([H])([H])[H])C([H])([H])[H])C(C([H])([H])[H])(C([H])([H])[H])C([H])([H])[H])C([H])(C(=O)N([H])C1([H])c3c([H])c([H])c([H])c([H])c3C([H])([H])C([H])([H])C1([H])[H])C2([H])[H]

>  <smiles>  (67) 
[H]c1nc(C([H])([H])C([H])([H])[H])c(C([H])([H])C([H])([H])C([H])([H])N([H])C(=O)N2C([H])([H])C([H])([H])C([H])([H])C([H])(n3nc(-c4c([H])c([H])c(Oc5c([H])c([H])c(F)c([H])c5F)c([H])c4[H])c(C(=O)N([H])[H])c3N([H])[H])C2([H])[H])c([H])c1C([H])([H])C([H])([H])Oc1c([H])c([H])c2c(c1[H])C([H])([H])N(C(=O)C([H])(N([H])C(=O)C([H])(N([H])C([H])([H])[H])C([H])([H])[H])C(C([H])([H])[H])(C([H])([H])[H])C([H])([H])[H])C([H])(C(=O)N([H])C1([H])c3c([H])c([H])c([H])c([H])c3C([H])([H])C([H])([H])C1([H])[H])C2([H])[H]

$$$$
67:0:0
     RDKit          3D

 88 96  0  0  1  0  0  0  0  0999 V2000
  -28.4680  -20.9030   20.3600 C   0  0  0  0  0  2  0  0  0  0  0  0
  -30.9970  -17.9200   19.6240 C   0  0  0  0  0  3  0  0  0  0  0  0
  -30.0040  -17.0170   20.1620 C   0  0  0  0  0  0  0  0  0  0  0  0
  -30.6160  -19.2650   19.6490 C   0  0  0  0  0  0  0  0  0  0  0  0
  -29.0110  -18.0360   20.5050 N   0  0  0  0  0  0  0  0  0  0  0  0
  -29.3550  -19.4660   20.2110 N   0  0  0  0  0  0  0  0  0  0  0  0
  -30.4700  -15.3670   20.1980 C   0  0  0  0  0  0  0  0  0  0  0  0
  -30.3490  -12.9110   19.3600 C   0  0  0  0  0  2  0  0  0  0  0  0
  -29.4250  -12.6760   18.1410 C   0  0  0  0  0  2  0  0  0  0  0  0
  -27.9910  -12.3900   18.6100 C   0  0  0  0  0  2  0  0  0  0  0  0
  -27.5440  -13.3680   19.7260 C   0  0  0  0  0  3  0  0  0  0  0  0
  -28.6060  -13.5930   20.8230 C   0  0  0  0  0  2  0  0  0  0  0  0
  -29.8220  -14.0900   20.1580 N   0  0  0  0  0  0  0  0  0  0  0  0
  -31.6880  -15.2000   20.0130 O   0  0  0  0  0  0  0  0  0  0  0  0
  -25.2000  -13.8900   20.5630 C   0  0  0  0  0  0  0  0  0  0  0  0
  -24.1530  -13.1010   20.9440 C   0  0  0  0  0  0  0  0  0  0  0  0
  -24.6280  -11.7540   20.8830 C   0  0  0  0  0  0  0  0  0  0  0  0
  -26.2400  -13.0270   20.2760 N   0  0  0  0  0  0  0  0  0  0  0  0
  -25.9130  -11.7350   20.5410 N   0  0  0  0  0  0  0  0  0  0  0  0
  -23.9130  -10.4840   21.0710 C   0  0  0  0  0  0  0  0  0  0  0  0
  -24.3660   -9.5060   21.9840 C   0  0  0  0  0  3  0  0  0  0  0  0
  -23.6450   -8.3050   22.1630 C   0  0  0  0  0  3  0  0  0  0  0  0
  -22.4570   -8.0730   21.4290 C   0  0  0  0  0  0  0  0  0  0  0  0
  -22.0230   -9.0400   20.5050 C   0  0  0  0  0  3  0  0  0  0  0  0
  -22.7450  -10.2320   20.3240 C   0  0  0  0  0  3  0  0  0  0  0  0
  -21.7070   -6.9250   21.5180 O   0  0  0  0  0  0  0  0  0  0  0  0
  -21.6770   -6.1720   22.6650 C   0  0  0  0  0  0  0  0  0  0  0  0
  -21.2550   -6.7100   23.8990 C   0  0  0  0  0  3  0  0  0  0  0  0
  -21.1730   -5.8830   25.0370 C   0  0  0  0  0  3  0  0  0  0  0  0
  -21.5030   -4.5180   24.9410 C   0  0  0  0  0  0  0  0  0  0  0  0
  -21.9180   -3.9790   23.7110 C   0  0  0  0  0  3  0  0  0  0  0  0
  -22.0010   -4.8030   22.5750 C   0  0  0  0  0  0  0  0  0  0  0  0
  -22.3820   -4.2730   21.3880 F   0  0  0  0  0  0  0  0  0  0  0  0
  -21.4180   -3.7210   26.0320 F   0  0  0  0  0  0  0  0  0  0  0  0
  -22.7600  -13.5650   21.2470 C   0  0  0  0  0  0  0  0  0  0  0  0
  -22.0550  -12.8600   22.1240 N   0  0  0  0  0  0  0  0  0  0  0  0
  -22.3060  -14.5910   20.7420 O   0  0  0  0  0  0  0  0  0  0  0  0
  -22.4370  -12.0320   22.5550 H   0  0  0  0  0  0  0  0  0  0  0  0
  -21.1210  -13.1550   22.3710 H   0  0  0  0  0  0  0  0  0  0  0  0
  -25.3510  -15.2660   20.4050 N   0  0  0  0  0  0  0  0  0  0  0  0
  -24.5890  -15.9150   20.5630 H   0  0  0  0  0  0  0  0  0  0  0  0
  -26.2020  -15.7220   20.0980 H   0  0  0  0  0  0  0  0  0  0  0  0
  -31.4130  -20.4190   19.1330 C   0  0  0  0  0  2  0  0  0  0  0  0
  -31.8100  -22.0430   17.1990 C   0  0  0  0  0  1  0  0  0  0  0  0
  -31.0280  -20.8230   17.7000 C   0  0  0  0  0  2  0  0  0  0  0  0
  -28.8670  -22.6770   20.2630 C   0  0  0  0  0  3  0  0  0  0  0  0
  -27.8790  -24.2090   20.2550 C   0  0  0  0  0  3  0  0  0  0  0  0
  -28.1600  -25.8500   20.2830 O   0  0  0  0  0  0  0  0  0  0  0  0
  -24.6480  -31.8910   23.2240 C   0  0  0  0  0  0  0  0  0  0  0  0
  -27.1610  -26.9640   20.2320 C   0  0  0  0  0  0  0  0  0  0  0  0
  -23.4430  -30.4930   21.5960 C   0  0  0  0  0  3  0  0  0  0  0  0
  -24.8780  -28.8720   20.1800 C   0  0  0  0  0  0  0  0  0  0  0  0
  -26.0120  -30.6850   21.4440 C   0  0  0  0  0  2  0  0  0  0  0  0
  -26.0720  -29.2690   20.7950 C   0  0  0  0  0  0  0  0  0  0  0  0
  -27.2090  -28.3370   20.7930 C   0  0  0  0  0  3  0  0  0  0  0  0
  -25.9360  -26.7240   19.5690 C   0  0  0  0  0  3  0  0  0  0  0  0
  -24.8370  -27.6200   19.5460 C   0  0  0  0  0  3  0  0  0  0  0  0
  -23.6660  -29.8020   20.2230 C   0  0  0  0  0  2  0  0  0  0  0  0
  -24.7230  -31.0500   22.1420 N   0  0  0  0  0  0  0  0  0  0  0  0
  -23.5600  -32.1900   23.7450 O   0  0  0  0  0  0  0  0  0  0  0  0
  -22.7450  -29.5060   22.5690 C   0  0  0  0  0  0  0  0  0  0  0  0
  -21.4140  -29.3470   22.4480 N   0  0  0  0  0  0  0  0  0  0  0  0
  -23.4090  -28.8820   23.4020 O   0  0  0  0  0  0  0  0  0  0  0  0
  -20.9310  -29.9000   21.7540 H   0  0  0  0  0  0  0  0  0  0  0  0
  -18.0280  -28.1490   22.9660 C   0  0  0  0  0  0  0  0  0  0  0  0
  -20.5890  -28.4170   23.2270 C   0  0  0  0  0  3  0  0  0  0  0  0
  -20.6890  -26.9800   22.6650 C   0  0  0  0  0  2  0  0  0  0  0  0
  -19.5870  -26.6500   21.6530 C   0  0  0  0  0  2  0  0  0  0  0  0
  -18.2060  -26.7960   22.2970 C   0  0  0  0  0  2  0  0  0  0  0  0
  -19.1470  -28.9170   23.3890 C   0  0  0  0  0  0  0  0  0  0  0  0
  -18.9250  -30.1800   23.9780 C   0  0  0  0  0  3  0  0  0  0  0  0
  -17.6180  -30.6770   24.1470 C   0  0  0  0  0  3  0  0  0  0  0  0
  -16.5150  -29.9070   23.7400 C   0  0  0  0  0  3  0  0  0  0  0  0
  -16.7210  -28.6460   23.1540 C   0  0  0  0  0  3  0  0  0  0  0  0
  -25.9220  -32.5320   23.8510 C   0  0  0  0  0  3  0  0  0  0  0  0
  -25.6060  -33.9320   24.1900 N   0  0  0  0  0  0  0  0  0  0  0  0
  -25.9180  -34.9940   23.4370 C   0  0  0  0  0  0  0  0  0  0  0  0
  -26.5650  -34.9000   22.3900 O   0  0  0  0  0  0  0  0  0  0  0  0
  -25.0280  -34.0770   25.0060 H   0  0  0  0  0  0  0  0  0  0  0  0
  -24.1710  -36.7860   23.1550 C   0  0  0  0  0  1  0  0  0  0  0  0
  -25.4420  -36.3810   23.9190 C   0  0  0  0  0  3  0  0  0  0  0  0
  -27.5990  -37.2790   24.6790 C   0  0  0  0  0  1  0  0  0  0  0  0
  -26.4650  -37.4400   23.7730 N   0  0  0  0  0  0  0  0  0  0  0  0
  -26.0590  -38.3590   23.9340 H   0  0  0  0  0  0  0  0  0  0  0  0
  -26.4320  -31.7660   25.1350 C   0  0  1  0  0  0  0  0  0  0  0  0
  -25.3360  -31.5380   26.2020 C   0  0  0  0  0  1  0  0  0  0  0  0
  -27.0130  -30.3840   24.7600 C   0  0  0  0  0  1  0  0  0  0  0  0
  -27.5840  -32.5600   25.7940 C   0  0  0  0  0  1  0  0  0  0  0  0
  2  4  2  0
  2  3  1  0
  3  7  1  0
  3  5  2  0
  4  6  1  0
  6  1  1  0
  6  5  1  0
  8 13  1  0
  9 10  1  0
  9  8  1  0
 11 10  1  0
 11 18  1  0
 11 12  1  0
 13  7  1  0
 13 12  1  0
 14  7  2  0
 15 16  2  0
 16 35  1  0
 17 16  1  0
 17 20  1  0
 18 19  1  0
 18 15  1  0
 19 17  2  0
 20 21  1  0
 21 22  2  0
 23 26  1  0
 23 22  1  0
 24 23  2  0
 25 24  1  0
 25 20  2  0
 26 27  1  0
 27 28  1  0
 28 29  2  0
 30 29  1  0
 30 34  1  0
 31 30  2  0
 32 27  2  0
 32 31  1  0
 33 32  1  0
 35 36  1  0
 36 39  1  0
 36 38  1  0
 37 35  2  0
 40 15  1  0
 40 41  1  0
 42 40  1  0
 43  4  1  0
 44 45  1  0
 45 43  1  0
 46  1  1  0
 47 46  2  0
 47 48  1  0
 49 60  2  0
 50 48  1  0
 50 55  1  0
 51 59  1  0
 51 61  1  0
 52 58  1  0
 52 54  1  0
 53 59  1  0
 54 53  1  0
 55 54  2  0
 56 50  2  0
 57 56  1  0
 57 52  2  0
 58 51  1  0
 59 49  1  0
 61 63  2  0
 62 61  1  0
 64 62  1  0
 65 74  2  0
 65 70  1  0
 66 62  1  0
 66 70  1  0
 67 66  1  0
 68 69  1  0
 68 67  1  0
 69 65  1  0
 70 71  2  0
 71 72  1  0
 73 72  2  0
 74 73  1  0
 75 49  1  0
 75 76  1  0
 75 85  1  0
 76 79  1  0
 77 81  1  0
 77 76  1  0
 78 77  2  0
 81 80  1  0
 83 81  1  0
 83 84  1  0
 83 82  1  0
 85 88  1  1
 85 86  1  0
 87 85  1  0
M  ISO  4   3 100   7 100  47 101  48 101
M  END
>  <TORSDO>  (68) 
F 21

>  <SCORE>  (68) 
-15.732

>  <name>  (68) 
67

>  <ligand_id>  (68) 
67

>  <original_smiles>  (68) 
[H]c1c([H])c([H])c2c(c1[H])C([H])([H])C([H])([H])C([H])([H])C2([H])N([H])C(=O)C1([H])N(C(=O)C([H])(N([H])C(=O)C([H])(N([H])C([H])([H])[H])C([H])([H])[H])C(C([H])([H])[H])(C([H])([H])[H])C([H])([H])[H])C([H])([H])c2c([H])c(OC([H])([H])C([H])([H])C([H])([H])n3nc(C(=O)N4C([H])([H])C([H])([H])C([H])([H])C([H])(n5nc(-c6c([H])c([H])c(Oc7c([H])c([H])c(F)c([H])c7F)c([H])c6[H])c(C(=O)N([H])[H])c5N([H])[H])C4([H])[H])c([H])c3C([H])([H])C([H])([H])C([H])([H])[H])c([H])c([H])c2C1([H])[H]

>  <smiles>  (68) 
[H]c1c([H])c([H])c2c(c1[H])C([H])([H])C([H])([H])C([H])([H])C2([H])N([H])C(=O)C1([H])N(C(=O)C([H])(N([H])C(=O)C([H])(N([H])C([H])([H])[H])C([H])([H])[H])C(C([H])([H])[H])(C([H])([H])[H])C([H])([H])[H])C([H])([H])c2c([H])c(OC([H])([H])C([H])([H])C([H])([H])n3nc(C(=O)N4C([H])([H])C([H])([H])C([H])([H])C([H])(n5nc(-c6c([H])c([H])c(Oc7c([H])c([H])c(F)c([H])c7F)c([H])c6[H])c(C(=O)N([H])[H])c5N([H])[H])C4([H])[H])c([H])c3C([H])([H])C([H])([H])C([H])([H])[H])c([H])c([H])c2C1([H])[H]

$$$$
68:0:0
     RDKit          3D

 91 99  0  0  1  0  0  0  0  0999 V2000
  -29.2970  -22.7110   22.2100 C   0  0  0  0  0  3  0  0  0  0  0  0
  -29.7690  -21.9860   23.3140 C   0  0  0  0  0  0  0  0  0  0  0  0
  -29.0200  -22.1250   20.9480 C   0  0  0  0  0  0  0  0  0  0  0  0
  -29.9840  -20.6140   23.1530 C   0  0  0  0  0  0  0  0  0  0  0  0
  -29.3860  -20.6530   20.8670 C   0  0  0  0  0  0  0  0  0  0  0  0
  -30.4900  -19.7230   24.2730 C   0  0  0  0  0  1  0  0  0  0  0  0
  -29.7940  -20.0030   21.9780 N   0  0  0  0  0  0  0  0  0  0  0  0
  -31.4980  -23.0480   24.8560 C   0  0  0  0  0  1  0  0  0  0  0  0
  -30.0210  -22.7010   24.6390 C   0  0  0  0  0  2  0  0  0  0  0  0
  -28.4610  -23.2960   19.9350 C   0  0  0  0  0  2  0  0  0  0  0  0
  -27.7550  -24.7490   20.4750 C   0  0  0  0  0  2  0  0  0  0  0  0
  -28.0620  -26.2320   20.1050 O   0  0  0  0  0  0  0  0  0  0  0  0
  -24.5400  -31.9210   23.2030 C   0  0  0  0  0  0  0  0  0  0  0  0
  -27.0100  -27.2190   20.0920 C   0  0  0  0  0  0  0  0  0  0  0  0
  -23.2890  -30.5400   21.5910 C   0  0  0  0  0  3  0  0  0  0  0  0
  -24.6920  -28.9700   20.1220 C   0  0  0  0  0  0  0  0  0  0  0  0
  -25.8380  -30.7970   21.3590 C   0  0  0  0  0  2  0  0  0  0  0  0
  -25.8880  -29.4090   20.7020 C   0  0  0  0  0  0  0  0  0  0  0  0
  -27.0500  -28.5500   20.6720 C   0  0  0  0  0  3  0  0  0  0  0  0
  -25.7890  -26.8870   19.4630 C   0  0  0  0  0  3  0  0  0  0  0  0
  -24.6530  -27.7230   19.4870 C   0  0  0  0  0  3  0  0  0  0  0  0
  -23.4690  -29.8720   20.2040 C   0  0  0  0  0  2  0  0  0  0  0  0
  -24.5760  -31.1070   22.1050 N   0  0  0  0  0  0  0  0  0  0  0  0
  -23.4700  -32.2070   23.7620 O   0  0  0  0  0  0  0  0  0  0  0  0
  -22.6350  -29.5290   22.5670 C   0  0  0  0  0  0  0  0  0  0  0  0
  -21.3140  -29.3110   22.4310 N   0  0  0  0  0  0  0  0  0  0  0  0
  -23.3180  -28.9420   23.4100 O   0  0  0  0  0  0  0  0  0  0  0  0
  -20.8150  -29.8380   21.7290 H   0  0  0  0  0  0  0  0  0  0  0  0
  -17.9920  -27.9320   22.8470 C   0  0  0  0  0  0  0  0  0  0  0  0
  -20.5150  -28.3650   23.2130 C   0  0  0  0  0  3  0  0  0  0  0  0
  -20.7290  -26.9130   22.7240 C   0  0  0  0  0  2  0  0  0  0  0  0
  -19.7000  -26.4710   21.6790 C   0  0  0  0  0  2  0  0  0  0  0  0
  -18.2820  -26.5640   22.2520 C   0  0  0  0  0  2  0  0  0  0  0  0
  -19.0410  -28.7840   23.2850 C   0  0  0  0  0  0  0  0  0  0  0  0
  -18.7190  -30.0570   23.7990 C   0  0  0  0  0  3  0  0  0  0  0  0
  -17.3790  -30.4820   23.8820 C   0  0  0  0  0  3  0  0  0  0  0  0
  -16.3440  -29.6300   23.4590 C   0  0  0  0  0  3  0  0  0  0  0  0
  -16.6510  -28.3570   22.9470 C   0  0  0  0  0  3  0  0  0  0  0  0
  -25.8390  -32.5470   23.7970 C   0  0  0  0  0  3  0  0  0  0  0  0
  -25.5470  -33.9510   24.1300 N   0  0  0  0  0  0  0  0  0  0  0  0
  -25.9090  -35.0040   23.3860 C   0  0  0  0  0  0  0  0  0  0  0  0
  -26.5910  -34.8960   22.3650 O   0  0  0  0  0  0  0  0  0  0  0  0
  -24.9440  -34.1100   24.9250 H   0  0  0  0  0  0  0  0  0  0  0  0
  -24.2210  -36.8360   23.0270 C   0  0  0  0  0  1  0  0  0  0  0  0
  -25.4430  -36.3980   23.8500 C   0  0  0  0  0  3  0  0  0  0  0  0
  -27.5820  -37.2390   24.7180 C   0  0  0  0  0  1  0  0  0  0  0  0
  -26.4980  -37.4320   23.7580 N   0  0  0  0  0  0  0  0  0  0  0  0
  -26.1080  -38.3580   23.9060 H   0  0  0  0  0  0  0  0  0  0  0  0
  -26.3720  -31.7790   25.0700 C   0  0  1  0  0  0  0  0  0  0  0  0
  -25.2990  -31.5640   26.1620 C   0  0  0  0  0  1  0  0  0  0  0  0
  -26.9330  -30.3910   24.6810 C   0  0  0  0  0  1  0  0  0  0  0  0
  -27.5480  -32.5640   25.7000 C   0  0  0  0  0  1  0  0  0  0  0  0
  -29.3740  -19.4660   19.7640 C   0  0  0  0  0  2  0  0  0  0  0  0
  -30.2540  -18.0160   19.9210 C   0  0  0  0  0  3  0  0  0  0  0  0
  -29.7170  -16.4410   20.1750 C   0  0  0  0  0  3  0  0  0  0  0  0
  -30.5750  -15.0420   19.9080 C   0  0  0  0  0  0  0  0  0  0  0  0
  -30.4110  -12.7080   18.9360 C   0  0  0  0  0  2  0  0  0  0  0  0
  -29.3990  -12.7180   17.7640 C   0  0  0  0  0  2  0  0  0  0  0  0
  -27.9620  -12.5040   18.2800 C   0  0  0  0  0  2  0  0  0  0  0  0
  -27.6380  -13.4090   19.4960 C   0  0  0  0  0  3  0  0  0  0  0  0
  -28.7570  -13.3720   20.5560 C   0  0  0  0  0  2  0  0  0  0  0  0
  -30.0070  -13.7700   19.8980 N   0  0  0  0  0  0  0  0  0  0  0  0
  -31.7500  -15.1280   19.5320 O   0  0  0  0  0  0  0  0  0  0  0  0
  -25.3160  -13.9960   20.4020 C   0  0  0  0  0  0  0  0  0  0  0  0
  -24.2690  -13.2240   20.8240 C   0  0  0  0  0  0  0  0  0  0  0  0
  -24.7160  -11.8700   20.7330 C   0  0  0  0  0  0  0  0  0  0  0  0
  -26.3300  -13.1140   20.0720 N   0  0  0  0  0  0  0  0  0  0  0  0
  -25.9840  -11.8280   20.3380 N   0  0  0  0  0  0  0  0  0  0  0  0
  -23.9910  -10.6100   20.9430 C   0  0  0  0  0  0  0  0  0  0  0  0
  -24.4570   -9.6320   21.8480 C   0  0  0  0  0  3  0  0  0  0  0  0
  -23.7310   -8.4380   22.0470 C   0  0  0  0  0  3  0  0  0  0  0  0
  -22.5250   -8.2130   21.3410 C   0  0  0  0  0  0  0  0  0  0  0  0
  -22.0780   -9.1820   20.4250 C   0  0  0  0  0  3  0  0  0  0  0  0
  -22.8030  -10.3680   20.2250 C   0  0  0  0  0  3  0  0  0  0  0  0
  -21.7660   -7.0730   21.4510 O   0  0  0  0  0  0  0  0  0  0  0  0
  -21.7370   -6.3370   22.6080 C   0  0  0  0  0  0  0  0  0  0  0  0
  -21.3330   -6.8980   23.8380 C   0  0  0  0  0  3  0  0  0  0  0  0
  -21.2510   -6.0880   24.9890 C   0  0  0  0  0  3  0  0  0  0  0  0
  -21.5630   -4.7170   24.9090 C   0  0  0  0  0  0  0  0  0  0  0  0
  -21.9620   -4.1560   23.6830 C   0  0  0  0  0  3  0  0  0  0  0  0
  -22.0460   -4.9630   22.5360 C   0  0  0  0  0  0  0  0  0  0  0  0
  -22.4090   -4.4130   21.3520 F   0  0  0  0  0  0  0  0  0  0  0  0
  -21.4780   -3.9370   26.0120 F   0  0  0  0  0  0  0  0  0  0  0  0
  -22.8970  -13.7070   21.1950 C   0  0  0  0  0  0  0  0  0  0  0  0
  -22.2220  -13.0040   22.0970 N   0  0  0  0  0  0  0  0  0  0  0  0
  -22.4350  -14.7430   20.7200 O   0  0  0  0  0  0  0  0  0  0  0  0
  -22.6100  -12.1640   22.5020 H   0  0  0  0  0  0  0  0  0  0  0  0
  -21.3050  -13.3090   22.3890 H   0  0  0  0  0  0  0  0  0  0  0  0
  -25.4850  -15.3700   20.2470 N   0  0  0  0  0  0  0  0  0  0  0  0
  -24.7400  -16.0340   20.4320 H   0  0  0  0  0  0  0  0  0  0  0  0
  -26.3280  -15.8080   19.8970 H   0  0  0  0  0  0  0  0  0  0  0  0
  1  2  1  0
  2  9  1  0
  3  1  2  0
  4  2  2  0
  4  6  1  0
  5  3  1  0
  5  7  2  0
  7  4  1  0
  9  8  1  0
 10 11  1  0
 10  3  1  0
 12 11  1  0
 13 24  2  0
 14 12  1  0
 14 19  1  0
 15 23  1  0
 15 25  1  0
 16 22  1  0
 16 18  1  0
 17 23  1  0
 18 17  1  0
 19 18  2  0
 20 21  1  0
 20 14  2  0
 21 16  2  0
 22 15  1  0
 23 13  1  0
 25 27  2  0
 26 25  1  0
 28 26  1  0
 29 38  2  0
 29 34  1  0
 30 26  1  0
 30 34  1  0
 31 30  1  0
 32 33  1  0
 32 31  1  0
 33 29  1  0
 34 35  2  0
 35 36  1  0
 37 36  2  0
 38 37  1  0
 39 13  1  0
 39 40  1  0
 39 49  1  0
 40 43  1  0
 41 45  1  0
 41 40  1  0
 42 41  2  0
 45 44  1  0
 47 45  1  0
 47 48  1  0
 47 46  1  0
 49 52  1  1
 49 50  1  0
 51 49  1  0
 53 54  1  0
 53  5  1  0
 54 55  2  0
 56 55  1  0
 57 62  1  0
 58 59  1  0
 58 57  1  0
 60 59  1  0
 60 67  1  0
 60 61  1  0
 62 56  1  0
 62 61  1  0
 63 56  2  0
 64 65  2  0
 65 84  1  0
 66 65  1  0
 66 69  1  0
 67 68  1  0
 67 64  1  0
 68 66  2  0
 69 70  1  0
 70 71  2  0
 72 75  1  0
 72 71  1  0
 73 72  2  0
 74 73  1  0
 74 69  2  0
 75 76  1  0
 76 77  1  0
 77 78  2  0
 79 78  1  0
 79 83  1  0
 80 79  2  0
 81 76  2  0
 81 80  1  0
 82 81  1  0
 84 85  1  0
 85 88  1  0
 85 87  1  0
 86 84  2  0
 89 64  1  0
 89 90  1  0
 91 89  1  0
M  ISO  4  11 101  12 101  55 100  56 100
M  END
>  <TORSDO>  (69) 
F 22

>  <SCORE>  (69) 
-11.170

>  <name>  (69) 
68

>  <ligand_id>  (69) 
68

>  <original_smiles>  (69) 
[H]c1c([H])c([H])c2c(c1[H])C([H])([H])C([H])([H])C([H])([H])C2([H])N([H])C(=O)C1([H])N(C(=O)C([H])(N([H])C(=O)C([H])(N([H])C([H])([H])[H])C([H])([H])[H])C(C([H])([H])[H])(C([H])([H])[H])C([H])([H])[H])C([H])([H])c2c([H])c(OC([H])([H])C([H])([H])c3c(C([H])([H])C([H])([H])C([H])([H])C(=O)N4C([H])([H])C([H])([H])C([H])([H])C([H])(n5nc(-c6c([H])c([H])c(Oc7c([H])c([H])c(F)c([H])c7F)c([H])c6[H])c(C(=O)N([H])[H])c5N([H])[H])C4([H])[H])nc(C([H])([H])[H])c(C([H])([H])C([H])([H])[H])c3[H])c([H])c([H])c2C1([H])[H]

>  <smiles>  (69) 
[H]c1c([H])c([H])c2c(c1[H])C([H])([H])C([H])([H])C([H])([H])C2([H])N([H])C(=O)C1([H])N(C(=O)C([H])(N([H])C(=O)C([H])(N([H])C([H])([H])[H])C([H])([H])[H])C(C([H])([H])[H])(C([H])([H])[H])C([H])([H])[H])C([H])([H])c2c([H])c(OC([H])([H])C([H])([H])c3c(C([H])([H])C([H])([H])C([H])([H])C(=O)N4C([H])([H])C([H])([H])C([H])([H])C([H])(n5nc(-c6c([H])c([H])c(Oc7c([H])c([H])c(F)c([H])c7F)c([H])c6[H])c(C(=O)N([H])[H])c5N([H])[H])C4([H])[H])nc(C([H])([H])[H])c(C([H])([H])C([H])([H])[H])c3[H])c([H])c([H])c2C1([H])[H]

$$$$
69:0:0
     RDKit          3D

 97105  0  0  1  0  0  0  0  0999 V2000
  -27.3230  -21.1360   20.5720 C   0  0  0  0  0  3  0  0  0  0  0  0
  -26.6660  -23.0630   19.2830 C   0  0  0  0  0  3  0  0  0  0  0  0
  -27.2670  -20.3790   19.3910 C   0  0  0  0  0  0  0  0  0  0  0  0
  -27.0550  -22.5110   20.5250 C   0  0  0  0  0  0  0  0  0  0  0  0
  -26.8700  -21.0220   18.1940 C   0  0  0  0  0  0  0  0  0  0  0  0
  -26.5540  -22.3340   18.1530 N   0  0  0  0  0  0  0  0  0  0  0  0
  -27.2300  -23.2710   21.6860 N   0  0  0  0  0  0  0  0  0  0  0  0
  -27.2380  -22.6980   22.5280 H   0  0  0  0  0  0  0  0  0  0  0  0
  -28.4180  -24.1090   21.5940 C   0  0  0  0  0  2  0  0  0  0  0  0
  -28.4020  -25.2460   22.6260 C   0  0  0  0  0  2  0  0  0  0  0  0
  -29.2960  -26.4140   22.1830 C   0  0  0  0  0  2  0  0  0  0  0  0
  -28.8780  -26.8530   20.8970 O   0  0  0  0  0  0  0  0  0  0  0  0
  -24.6640  -32.0020   23.4680 C   0  0  0  0  0  0  0  0  0  0  0  0
  -27.6870  -27.5330   20.8500 C   0  0  0  0  0  0  0  0  0  0  0  0
  -23.6340  -30.4800   21.8100 C   0  0  0  0  0  3  0  0  0  0  0  0
  -25.2420  -28.9130   20.6040 C   0  0  0  0  0  0  0  0  0  0  0  0
  -26.1530  -30.9150   21.7990 C   0  0  0  0  0  2  0  0  0  0  0  0
  -26.3270  -29.5140   21.2570 C   0  0  0  0  0  0  0  0  0  0  0  0
  -27.5500  -28.8260   21.3920 C   0  0  0  0  0  3  0  0  0  0  0  0
  -26.5910  -26.9300   20.1990 C   0  0  0  0  0  3  0  0  0  0  0  0
  -25.3630  -27.6120   20.0820 C   0  0  0  0  0  3  0  0  0  0  0  0
  -23.9730  -29.7270   20.4950 C   0  0  0  0  0  2  0  0  0  0  0  0
  -24.8300  -31.1500   22.4170 N   0  0  0  0  0  0  0  0  0  0  0  0
  -23.5350  -32.2710   23.9040 O   0  0  0  0  0  0  0  0  0  0  0  0
  -22.9310  -29.4930   22.7700 C   0  0  0  0  0  0  0  0  0  0  0  0
  -21.6190  -29.2940   22.5610 N   0  0  0  0  0  0  0  0  0  0  0  0
  -23.5640  -28.9060   23.6510 O   0  0  0  0  0  0  0  0  0  0  0  0
  -21.1690  -29.8190   21.8240 H   0  0  0  0  0  0  0  0  0  0  0  0
  -18.2140  -28.1560   22.9190 C   0  0  0  0  0  0  0  0  0  0  0  0
  -20.7580  -28.3820   23.3120 C   0  0  0  0  0  3  0  0  0  0  0  0
  -20.8700  -26.9390   22.7690 C   0  0  0  0  0  2  0  0  0  0  0  0
  -19.8140  -26.6110   21.7080 C   0  0  0  0  0  2  0  0  0  0  0  0
  -18.4040  -26.7910   22.2790 C   0  0  0  0  0  2  0  0  0  0  0  0
  -19.3200  -28.9090   23.3910 C   0  0  0  0  0  0  0  0  0  0  0  0
  -19.0950  -30.1880   23.9450 C   0  0  0  0  0  3  0  0  0  0  0  0
  -17.7930  -30.7140   24.0330 C   0  0  0  0  0  3  0  0  0  0  0  0
  -16.6970  -29.9550   23.5850 C   0  0  0  0  0  3  0  0  0  0  0  0
  -16.9090  -28.6780   23.0330 C   0  0  0  0  0  3  0  0  0  0  0  0
  -25.8790  -32.6980   24.1580 C   0  0  0  0  0  3  0  0  0  0  0  0
  -26.3010  -32.0090   25.5140 C   0  0  1  0  0  0  0  0  0  0  0  0
  -25.1220  -31.7910   26.4900 C   0  0  0  0  0  1  0  0  0  0  0  0
  -26.9590  -30.6360   25.2470 C   0  0  0  0  0  1  0  0  0  0  0  0
  -27.3620  -32.8740   26.2360 C   0  0  0  0  0  1  0  0  0  0  0  0
  -25.5200  -34.1050   24.3760 N   0  0  0  0  0  0  0  0  0  0  0  0
  -25.8970  -35.1160   23.5820 C   0  0  0  0  0  0  0  0  0  0  0  0
  -26.6550  -34.9660   22.6190 O   0  0  0  0  0  0  0  0  0  0  0  0
  -24.8570  -34.2950   25.1140 H   0  0  0  0  0  0  0  0  0  0  0  0
  -24.1720  -36.8380   22.9710 C   0  0  0  0  0  1  0  0  0  0  0  0
  -25.3460  -36.5170   23.9080 C   0  0  0  0  0  3  0  0  0  0  0  0
  -27.3860  -37.5040   24.8530 C   0  0  0  0  0  1  0  0  0  0  0  0
  -26.3640  -37.5860   23.8150 N   0  0  0  0  0  0  0  0  0  0  0  0
  -25.9290  -38.5030   23.8670 H   0  0  0  0  0  0  0  0  0  0  0  0
  -25.2340  -19.8490   16.6820 C   0  0  0  0  0  1  0  0  0  0  0  0
  -26.6960  -20.2740   16.8810 C   0  0  0  0  0  2  0  0  0  0  0  0
  -27.6730  -18.9200   19.4850 C   0  0  0  0  0  2  0  0  0  0  0  0
  -29.1820  -18.7950   19.7510 C   0  0  0  0  0  2  0  0  0  0  0  0
  -29.5090  -17.5360   20.5430 C   0  0  0  0  0  2  0  0  0  0  0  0
  -31.0070  -17.4330   20.8780 C   0  0  0  0  0  2  0  0  0  0  0  0
  -31.3120  -16.3280   21.9020 C   0  0  0  0  0  2  0  0  0  0  0  0
  -30.9680  -14.4330   20.3120 C   0  0  0  0  0  0  0  0  0  0  0  0
  -30.5240  -12.3450   19.0920 C   0  0  0  0  0  2  0  0  0  0  0  0
  -29.5320  -12.5190   17.9310 C   0  0  0  0  0  2  0  0  0  0  0  0
  -28.0840  -12.3710   18.4290 C   0  0  0  0  0  2  0  0  0  0  0  0
  -27.7910  -13.2750   19.6520 C   0  0  0  0  0  3  0  0  0  0  0  0
  -28.8770  -13.1000   20.7360 C   0  0  0  0  0  2  0  0  0  0  0  0
  -30.2080  -13.3270   20.1350 N   0  0  0  0  0  0  0  0  0  0  0  0
  -31.8520  -14.7980   19.5300 O   0  0  0  0  0  0  0  0  0  0  0  0
  -30.7640  -15.0430   21.4840 N   0  0  0  0  0  0  0  0  0  0  0  0
  -30.0980  -14.6050   22.1040 H   0  0  0  0  0  0  0  0  0  0  0  0
  -25.4400  -13.9230   20.4900 C   0  0  0  0  0  0  0  0  0  0  0  0
  -24.3700  -13.1670   20.8860 C   0  0  0  0  0  0  0  0  0  0  0  0
  -24.7920  -11.8050   20.7900 C   0  0  0  0  0  0  0  0  0  0  0  0
  -26.4510  -13.0240   20.1850 N   0  0  0  0  0  0  0  0  0  0  0  0
  -26.0640  -11.7430   20.4170 N   0  0  0  0  0  0  0  0  0  0  0  0
  -24.0430  -10.5560   20.9770 C   0  0  0  0  0  0  0  0  0  0  0  0
  -24.4580   -9.5790   21.9090 C   0  0  0  0  0  3  0  0  0  0  0  0
  -23.7120   -8.3940   22.0840 C   0  0  0  0  0  3  0  0  0  0  0  0
  -22.5360   -8.1780   21.3270 C   0  0  0  0  0  0  0  0  0  0  0  0
  -22.1400   -9.1440   20.3860 C   0  0  0  0  0  3  0  0  0  0  0  0
  -22.8860  -10.3200   20.2100 C   0  0  0  0  0  3  0  0  0  0  0  0
  -21.7610   -7.0460   21.4120 O   0  0  0  0  0  0  0  0  0  0  0  0
  -21.6610   -6.3270   22.5770 C   0  0  0  0  0  0  0  0  0  0  0  0
  -21.1920   -6.9120   23.7740 C   0  0  0  0  0  3  0  0  0  0  0  0
  -21.0380   -6.1210   24.9300 C   0  0  0  0  0  3  0  0  0  0  0  0
  -21.3410   -4.7460   24.8890 C   0  0  0  0  0  0  0  0  0  0  0  0
  -21.8040   -4.1620   23.6960 C   0  0  0  0  0  3  0  0  0  0  0  0
  -21.9590   -4.9500   22.5430 C   0  0  0  0  0  0  0  0  0  0  0  0
  -22.3830   -4.3780   21.3910 F   0  0  0  0  0  0  0  0  0  0  0  0
  -21.1860   -3.9840   25.9960 F   0  0  0  0  0  0  0  0  0  0  0  0
  -23.0010  -13.6680   21.2470 C   0  0  0  0  0  0  0  0  0  0  0  0
  -22.3100  -12.9760   22.1430 N   0  0  0  0  0  0  0  0  0  0  0  0
  -22.5560  -14.7130   20.7680 O   0  0  0  0  0  0  0  0  0  0  0  0
  -22.6850  -12.1320   22.5530 H   0  0  0  0  0  0  0  0  0  0  0  0
  -21.3950  -13.2940   22.4290 H   0  0  0  0  0  0  0  0  0  0  0  0
  -25.6330  -15.2940   20.3480 N   0  0  0  0  0  0  0  0  0  0  0  0
  -24.8940  -15.9650   20.5200 H   0  0  0  0  0  0  0  0  0  0  0  0
  -26.4930  -15.7150   20.0230 H   0  0  0  0  0  0  0  0  0  0  0  0
  2  4  2  0
  3 55  1  0
  3  1  2  0
  4  1  1  0
  4  7  1  0
  5  3  1  0
  6  5  2  0
  6  2  1  0
  7  8  1  0
  9  7  1  0
  9 10  1  0
 11 10  1  0
 12 11  1  0
 13 24  2  0
 14 12  1  0
 14 19  1  0
 15 23  1  0
 15 25  1  0
 16 18  1  0
 17 23  1  0
 18 19  2  0
 18 17  1  0
 20 14  2  0
 21 20  1  0
 21 16  2  0
 22 16  1  0
 22 15  1  0
 23 13  1  0
 25 27  2  0
 26 25  1  0
 28 26  1  0
 29 38  2  0
 29 34  1  0
 30 26  1  0
 30 34  1  0
 31 30  1  0
 32 33  1  0
 32 31  1  0
 33 29  1  0
 34 35  2  0
 35 36  1  0
 37 36  2  0
 38 37  1  0
 39 13  1  0
 39 44  1  0
 39 40  1  0
 40 43  1  1
 40 41  1  0
 42 40  1  0
 44 47  1  0
 45 49  1  0
 45 44  1  0
 46 45  2  0
 49 48  1  0
 51 52  1  0
 51 49  1  0
 51 50  1  0
 53 54  1  0
 54  5  1  0
 55 56  1  0
 56 57  1  0
 57 58  1  0
 58 59  1  0
 60 68  1  0
 61 66  1  0
 62 63  1  0
 62 61  1  0
 64 63  1  0
 64 73  1  0
 64 65  1  0
 66 60  1  0
 66 65  1  0
 67 60  2  0
 68 59  1  0
 68 69  1  0
 70 71  2  0
 71 90  1  0
 72 71  1  0
 72 75  1  0
 73 74  1  0
 73 70  1  0
 74 72  2  0
 75 76  1  0
 76 77  2  0
 78 81  1  0
 78 77  1  0
 79 78  2  0
 80 79  1  0
 80 75  2  0
 81 82  1  0
 82 83  1  0
 83 84  2  0
 85 84  1  0
 85 89  1  0
 86 85  2  0
 87 82  2  0
 87 86  1  0
 88 87  1  0
 90 91  1  0
 91 94  1  0
 91 93  1  0
 92 90  2  0
 95 70  1  0
 95 96  1  0
 97 95  1  0
M  ISO  4  11 101  12 101  60 100  68 100
M  END
>  <TORSDO>  (70) 
F 26

>  <SCORE>  (70) 
-10.755

>  <name>  (70) 
69

>  <ligand_id>  (70) 
69

>  <original_smiles>  (70) 
[H]c1nc(C([H])([H])C([H])([H])[H])c(C([H])([H])C([H])([H])C([H])([H])C([H])([H])C([H])([H])N([H])C(=O)N2C([H])([H])C([H])([H])C([H])([H])C([H])(n3nc(-c4c([H])c([H])c(Oc5c([H])c([H])c(F)c([H])c5F)c([H])c4[H])c(C(=O)N([H])[H])c3N([H])[H])C2([H])[H])c([H])c1N([H])C([H])([H])C([H])([H])C([H])([H])Oc1c([H])c([H])c2c(c1[H])C([H])([H])N(C(=O)C([H])(N([H])C(=O)C([H])(N([H])C([H])([H])[H])C([H])([H])[H])C(C([H])([H])[H])(C([H])([H])[H])C([H])([H])[H])C([H])(C(=O)N([H])C1([H])c3c([H])c([H])c([H])c([H])c3C([H])([H])C([H])([H])C1([H])[H])C2([H])[H]

>  <smiles>  (70) 
[H]c1nc(C([H])([H])C([H])([H])[H])c(C([H])([H])C([H])([H])C([H])([H])C([H])([H])C([H])([H])N([H])C(=O)N2C([H])([H])C([H])([H])C([H])([H])C([H])(n3nc(-c4c([H])c([H])c(Oc5c([H])c([H])c(F)c([H])c5F)c([H])c4[H])c(C(=O)N([H])[H])c3N([H])[H])C2([H])[H])c([H])c1N([H])C([H])([H])C([H])([H])C([H])([H])Oc1c([H])c([H])c2c(c1[H])C([H])([H])N(C(=O)C([H])(N([H])C(=O)C([H])(N([H])C([H])([H])[H])C([H])([H])[H])C(C([H])([H])[H])(C([H])([H])[H])C([H])([H])[H])C([H])(C(=O)N([H])C1([H])c3c([H])c([H])c([H])c([H])c3C([H])([H])C([H])([H])C1([H])[H])C2([H])[H]

$$$$
70:0:0
     RDKit          3D

 91 99  0  0  1  0  0  0  0  0999 V2000
  -29.9310  -22.1610   21.5690 C   0  0  0  0  0  3  0  0  0  0  0  0
  -29.4070  -23.4700   21.3750 C   0  0  0  0  0  3  0  0  0  0  0  0
  -29.8370  -21.1760   20.5480 C   0  0  0  0  0  0  0  0  0  0  0  0
  -28.8130  -23.8090   20.1400 C   0  0  0  0  0  0  0  0  0  0  0  0
  -29.2190  -21.6050   19.3470 C   0  0  0  0  0  0  0  0  0  0  0  0
  -28.7410  -22.8650   19.1630 N   0  0  0  0  0  0  0  0  0  0  0  0
  -27.5430  -20.1940   18.0780 C   0  0  0  0  0  1  0  0  0  0  0  0
  -29.0000  -20.6730   18.1630 C   0  0  0  0  0  2  0  0  0  0  0  0
  -30.5300  -19.7830   20.7100 C   0  0  0  0  0  2  0  0  0  0  0  0
  -29.7010  -18.4340   20.7860 C   0  0  0  0  0  2  0  0  0  0  0  0
  -30.6060  -17.1440   20.6490 C   0  0  0  0  0  2  0  0  0  0  0  0
  -30.6580  -14.6350   20.4270 C   0  0  0  0  0  0  0  0  0  0  0  0
  -30.3330  -12.4330   19.3490 C   0  0  0  0  0  2  0  0  0  0  0  0
  -29.3930  -12.5870   18.1360 C   0  0  0  0  0  2  0  0  0  0  0  0
  -27.9250  -12.4370   18.5740 C   0  0  0  0  0  2  0  0  0  0  0  0
  -27.5790  -13.3040   19.8150 C   0  0  0  0  0  3  0  0  0  0  0  0
  -28.6440  -13.1690   20.9280 C   0  0  0  0  0  2  0  0  0  0  0  0
  -29.9540  -13.4650   20.3320 N   0  0  0  0  0  0  0  0  0  0  0  0
  -31.8260  -14.7090   20.0430 O   0  0  0  0  0  0  0  0  0  0  0  0
  -29.9880  -15.7800   20.7480 N   0  0  0  0  0  0  0  0  0  0  0  0
  -29.0150  -15.7060   21.0040 H   0  0  0  0  0  0  0  0  0  0  0  0
  -25.1890  -13.8960   20.5440 C   0  0  0  0  0  0  0  0  0  0  0  0
  -24.1220  -13.1210   20.9090 C   0  0  0  0  0  0  0  0  0  0  0  0
  -24.5840  -11.7700   20.8710 C   0  0  0  0  0  0  0  0  0  0  0  0
  -26.2330  -13.0180   20.3050 N   0  0  0  0  0  0  0  0  0  0  0  0
  -25.8740  -11.7330   20.5620 N   0  0  0  0  0  0  0  0  0  0  0  0
  -23.8580  -10.5060   21.0510 C   0  0  0  0  0  0  0  0  0  0  0  0
  -24.2820   -9.5370   21.9870 C   0  0  0  0  0  3  0  0  0  0  0  0
  -23.5550   -8.3400   22.1580 C   0  0  0  0  0  3  0  0  0  0  0  0
  -22.3890   -8.1000   21.3920 C   0  0  0  0  0  0  0  0  0  0  0  0
  -21.9840   -9.0590   20.4450 C   0  0  0  0  0  3  0  0  0  0  0  0
  -22.7120  -10.2490   20.2730 C   0  0  0  0  0  3  0  0  0  0  0  0
  -21.6330   -6.9550   21.4710 O   0  0  0  0  0  0  0  0  0  0  0  0
  -21.5610   -6.2200   22.6260 C   0  0  0  0  0  0  0  0  0  0  0  0
  -21.0890   -6.7760   23.8350 C   0  0  0  0  0  3  0  0  0  0  0  0
  -20.9660   -5.9670   24.9820 C   0  0  0  0  0  3  0  0  0  0  0  0
  -21.3040   -4.6020   24.9210 C   0  0  0  0  0  0  0  0  0  0  0  0
  -21.7700   -4.0450   23.7160 C   0  0  0  0  0  3  0  0  0  0  0  0
  -21.8950   -4.8520   22.5720 C   0  0  0  0  0  0  0  0  0  0  0  0
  -22.3240   -4.3060   21.4090 F   0  0  0  0  0  0  0  0  0  0  0  0
  -21.1790   -3.8210   26.0200 F   0  0  0  0  0  0  0  0  0  0  0  0
  -22.7260  -13.5960   21.1870 C   0  0  0  0  0  0  0  0  0  0  0  0
  -22.0010  -12.8950   22.0510 N   0  0  0  0  0  0  0  0  0  0  0  0
  -22.2880  -14.6250   20.6750 O   0  0  0  0  0  0  0  0  0  0  0  0
  -22.3690  -12.0600   22.4840 H   0  0  0  0  0  0  0  0  0  0  0  0
  -21.0660  -13.1970   22.2860 H   0  0  0  0  0  0  0  0  0  0  0  0
  -25.3540  -15.2690   20.3710 N   0  0  0  0  0  0  0  0  0  0  0  0
  -24.5850  -15.9220   20.4710 H   0  0  0  0  0  0  0  0  0  0  0  0
  -26.2030  -15.7070   20.0400 H   0  0  0  0  0  0  0  0  0  0  0  0
  -27.9220  -25.0670   19.8880 C   0  0  0  0  0  2  0  0  0  0  0  0
  -28.2730  -26.4660   20.2280 O   0  0  0  0  0  0  0  0  0  0  0  0
  -24.6240  -31.9180   23.2690 C   0  0  0  0  0  0  0  0  0  0  0  0
  -27.1850  -27.3620   20.1660 C   0  0  0  0  0  0  0  0  0  0  0  0
  -23.4040  -30.5380   21.6300 C   0  0  0  0  0  3  0  0  0  0  0  0
  -24.8380  -29.0060   20.1820 C   0  0  0  0  0  0  0  0  0  0  0  0
  -25.9480  -30.8390   21.4410 C   0  0  0  0  0  2  0  0  0  0  0  0
  -26.0150  -29.4670   20.7840 C   0  0  0  0  0  0  0  0  0  0  0  0
  -27.1910  -28.6540   20.7770 C   0  0  0  0  0  3  0  0  0  0  0  0
  -25.9790  -26.9770   19.5190 C   0  0  0  0  0  3  0  0  0  0  0  0
  -24.8220  -27.7650   19.5400 C   0  0  0  0  0  3  0  0  0  0  0  0
  -23.6070  -29.8830   20.2420 C   0  0  0  0  0  2  0  0  0  0  0  0
  -24.6770  -31.1140   22.1690 N   0  0  0  0  0  0  0  0  0  0  0  0
  -23.5440  -32.1980   23.8100 O   0  0  0  0  0  0  0  0  0  0  0  0
  -22.7430  -29.5120   22.5830 C   0  0  0  0  0  0  0  0  0  0  0  0
  -21.4150  -29.3350   22.4560 N   0  0  0  0  0  0  0  0  0  0  0  0
  -23.4230  -28.8810   23.3950 O   0  0  0  0  0  0  0  0  0  0  0  0
  -20.9250  -29.9030   21.7800 H   0  0  0  0  0  0  0  0  0  0  0  0
  -18.0360  -28.1420   22.9580 C   0  0  0  0  0  0  0  0  0  0  0  0
  -20.5960  -28.3970   23.2270 C   0  0  0  0  0  3  0  0  0  0  0  0
  -20.6940  -26.9640   22.6500 C   0  0  0  0  0  2  0  0  0  0  0  0
  -19.5890  -26.6440   21.6390 C   0  0  0  0  0  2  0  0  0  0  0  0
  -18.2090  -26.7930   22.2840 C   0  0  0  0  0  2  0  0  0  0  0  0
  -19.1570  -28.9040   23.3870 C   0  0  0  0  0  0  0  0  0  0  0  0
  -18.9410  -30.1680   23.9750 C   0  0  0  0  0  3  0  0  0  0  0  0
  -17.6380  -30.6710   24.1440 C   0  0  0  0  0  3  0  0  0  0  0  0
  -16.5320  -29.9080   23.7300 C   0  0  0  0  0  3  0  0  0  0  0  0
  -16.7330  -28.6460   23.1430 C   0  0  0  0  0  3  0  0  0  0  0  0
  -25.9130  -32.5410   23.8840 C   0  0  0  0  0  3  0  0  0  0  0  0
  -25.6120  -33.9390   24.2200 N   0  0  0  0  0  0  0  0  0  0  0  0
  -25.9210  -34.9900   23.4480 C   0  0  0  0  0  0  0  0  0  0  0  0
  -26.5600  -34.8840   22.3980 O   0  0  0  0  0  0  0  0  0  0  0  0
  -25.0450  -34.0950   25.0400 H   0  0  0  0  0  0  0  0  0  0  0  0
  -24.1730  -36.7750   23.1490 C   0  0  0  0  0  1  0  0  0  0  0  0
  -25.4460  -36.3800   23.9160 C   0  0  0  0  0  3  0  0  0  0  0  0
  -27.6040  -37.2810   24.6640 C   0  0  0  0  0  1  0  0  0  0  0  0
  -26.4690  -37.4370   23.7580 N   0  0  0  0  0  0  0  0  0  0  0  0
  -26.0650  -38.3560   23.9160 H   0  0  0  0  0  0  0  0  0  0  0  0
  -26.4320  -31.7640   25.1550 C   0  0  1  0  0  0  0  0  0  0  0  0
  -25.3430  -31.5200   26.2270 C   0  0  0  0  0  1  0  0  0  0  0  0
  -27.0160  -30.3880   24.7550 C   0  0  0  0  0  1  0  0  0  0  0  0
  -27.5840  -32.5560   25.8150 C   0  0  0  0  0  1  0  0  0  0  0  0
  2  1  1  0
  3  9  1  0
  3  1  2  0
  4  2  2  0
  5  3  1  0
  6  5  2  0
  6  4  1  0
  7  8  1  0
  8  5  1  0
  9 10  1  0
 11 20  1  0
 11 10  1  0
 12 20  1  0
 13 18  1  0
 14 15  1  0
 14 13  1  0
 16 15  1  0
 16 25  1  0
 16 17  1  0
 18 12  1  0
 18 17  1  0
 19 12  2  0
 20 21  1  0
 22 23  2  0
 23 42  1  0
 24 23  1  0
 24 27  1  0
 25 22  1  0
 25 26  1  0
 26 24  2  0
 27 28  1  0
 28 29  2  0
 30 33  1  0
 30 29  1  0
 31 30  2  0
 32 31  1  0
 32 27  2  0
 33 34  1  0
 34 35  1  0
 35 36  2  0
 37 36  1  0
 37 41  1  0
 38 37  2  0
 39 34  2  0
 39 38  1  0
 40 39  1  0
 42 43  1  0
 43 46  1  0
 43 45  1  0
 44 42  2  0
 47 48  1  0
 47 22  1  0
 49 47  1  0
 50  4  1  0
 50 51  1  0
 52 63  2  0
 53 51  1  0
 53 58  1  0
 54 62  1  0
 54 64  1  0
 55 61  1  0
 55 57  1  0
 56 62  1  0
 57 56  1  0
 58 57  2  0
 59 60  1  0
 59 53  2  0
 60 55  2  0
 61 54  1  0
 62 52  1  0
 64 66  2  0
 65 64  1  0
 67 65  1  0
 68 77  2  0
 68 73  1  0
 69 65  1  0
 69 73  1  0
 70 69  1  0
 71 72  1  0
 71 70  1  0
 72 68  1  0
 73 74  2  0
 74 75  1  0
 76 75  2  0
 77 76  1  0
 78 52  1  0
 78 79  1  0
 78 88  1  0
 79 82  1  0
 80 84  1  0
 80 79  1  0
 81 80  2  0
 84 83  1  0
 86 84  1  0
 86 87  1  0
 86 85  1  0
 88 91  1  1
 88 89  1  0
 90 88  1  0
M  ISO  4  12 100  20 100  50 101  51 101
M  END
>  <TORSDO>  (71) 
F 21

>  <SCORE>  (71) 
-13.572

>  <name>  (71) 
70

>  <ligand_id>  (71) 
70

>  <original_smiles>  (71) 
[H]c1c(C([H])([H])Oc2c([H])c([H])c3c(c2[H])C([H])([H])N(C(=O)C([H])(N([H])C(=O)C([H])(N([H])C([H])([H])[H])C([H])([H])[H])C(C([H])([H])[H])(C([H])([H])[H])C([H])([H])[H])C([H])(C(=O)N([H])C2([H])c4c([H])c([H])c([H])c([H])c4C([H])([H])C([H])([H])C2([H])[H])C3([H])[H])nc(C([H])([H])C([H])([H])[H])c(C([H])([H])C([H])([H])C([H])([H])N([H])C(=O)N2C([H])([H])C([H])([H])C([H])([H])C([H])(n3nc(-c4c([H])c([H])c(Oc5c([H])c([H])c(F)c([H])c5F)c([H])c4[H])c(C(=O)N([H])[H])c3N([H])[H])C2([H])[H])c1[H]

>  <smiles>  (71) 
[H]c1c(C([H])([H])Oc2c([H])c([H])c3c(c2[H])C([H])([H])N(C(=O)C([H])(N([H])C(=O)C([H])(N([H])C([H])([H])[H])C([H])([H])[H])C(C([H])([H])[H])(C([H])([H])[H])C([H])([H])[H])C([H])(C(=O)N([H])C2([H])c4c([H])c([H])c([H])c([H])c4C([H])([H])C([H])([H])C2([H])[H])C3([H])[H])nc(C([H])([H])C([H])([H])[H])c(C([H])([H])C([H])([H])C([H])([H])N([H])C(=O)N2C([H])([H])C([H])([H])C([H])([H])C([H])(n3nc(-c4c([H])c([H])c(Oc5c([H])c([H])c(F)c([H])c5F)c([H])c4[H])c(C(=O)N([H])[H])c3N([H])[H])C2([H])[H])c1[H]

$$$$
71:0:0
     RDKit          3D

 92100  0  0  1  0  0  0  0  0999 V2000
  -28.8780  -23.2330   19.8210 C   0  0  0  0  0  0  0  0  0  0  0  0
  -30.0170  -23.1790   20.6730 C   0  0  0  0  0  0  0  0  0  0  0  0
  -28.8770  -22.0210   19.1810 C   0  0  0  0  0  0  0  0  0  0  0  0
  -30.5350  -24.2390   21.6010 C   0  0  0  0  0  1  0  0  0  0  0  0
  -27.9520  -21.4640   18.1430 C   0  0  0  0  0  1  0  0  0  0  0  0
  -30.6580  -22.0250   20.5770 N   0  0  0  0  0  0  0  0  0  0  0  0
  -29.9470  -21.3010   19.6840 N   0  0  0  0  0  0  0  0  0  0  0  0
  -27.9010  -24.3740   19.6900 C   0  0  0  0  0  2  0  0  0  0  0  0
  -28.5380  -25.6720   19.1420 C   0  0  0  0  0  2  0  0  0  0  0  0
  -28.3970  -26.7760   20.0410 O   0  0  0  0  0  0  0  0  0  0  0  0
  -24.6020  -31.8870   23.2240 C   0  0  0  0  0  0  0  0  0  0  0  0
  -27.1980  -27.4610   20.0730 C   0  0  0  0  0  0  0  0  0  0  0  0
  -23.3710  -30.4940   21.5950 C   0  0  0  0  0  3  0  0  0  0  0  0
  -24.7990  -28.9600   20.1480 C   0  0  0  0  0  0  0  0  0  0  0  0
  -25.8950  -30.8430   21.3690 C   0  0  0  0  0  2  0  0  0  0  0  0
  -25.9650  -29.4740   20.7280 C   0  0  0  0  0  0  0  0  0  0  0  0
  -27.1610  -28.7250   20.7030 C   0  0  0  0  0  3  0  0  0  0  0  0
  -26.0060  -26.9560   19.5010 C   0  0  0  0  0  3  0  0  0  0  0  0
  -24.8120  -27.6950   19.5430 C   0  0  0  0  0  3  0  0  0  0  0  0
  -23.5600  -29.8230   20.2100 C   0  0  0  0  0  2  0  0  0  0  0  0
  -24.6430  -31.0890   22.1200 N   0  0  0  0  0  0  0  0  0  0  0  0
  -23.5280  -32.1610   23.7760 O   0  0  0  0  0  0  0  0  0  0  0  0
  -22.7320  -29.4670   22.5560 C   0  0  0  0  0  0  0  0  0  0  0  0
  -21.4060  -29.2860   22.4390 N   0  0  0  0  0  0  0  0  0  0  0  0
  -23.4230  -28.8400   23.3620 O   0  0  0  0  0  0  0  0  0  0  0  0
  -20.9100  -29.8430   21.7580 H   0  0  0  0  0  0  0  0  0  0  0  0
  -18.0380  -28.0930   22.9570 C   0  0  0  0  0  0  0  0  0  0  0  0
  -20.5960  -28.3500   23.2170 C   0  0  0  0  0  3  0  0  0  0  0  0
  -20.6950  -26.9180   22.6420 C   0  0  0  0  0  2  0  0  0  0  0  0
  -19.5890  -26.5940   21.6330 C   0  0  0  0  0  2  0  0  0  0  0  0
  -18.2100  -26.7430   22.2830 C   0  0  0  0  0  2  0  0  0  0  0  0
  -19.1580  -28.8550   23.3810 C   0  0  0  0  0  0  0  0  0  0  0  0
  -18.9440  -30.1210   23.9690 C   0  0  0  0  0  3  0  0  0  0  0  0
  -17.6400  -30.6230   24.1390 C   0  0  0  0  0  3  0  0  0  0  0  0
  -16.5330  -29.8580   23.7320 C   0  0  0  0  0  3  0  0  0  0  0  0
  -16.7340  -28.5950   23.1460 C   0  0  0  0  0  3  0  0  0  0  0  0
  -25.8990  -32.5110   23.8270 C   0  0  0  0  0  3  0  0  0  0  0  0
  -25.5960  -33.9060   24.1720 N   0  0  0  0  0  0  0  0  0  0  0  0
  -25.9210  -34.9630   23.4160 C   0  0  0  0  0  0  0  0  0  0  0  0
  -26.5800  -34.8670   22.3770 O   0  0  0  0  0  0  0  0  0  0  0  0
  -25.0120  -34.0570   24.9810 H   0  0  0  0  0  0  0  0  0  0  0  0
  -24.1900  -36.7570   23.0900 C   0  0  0  0  0  1  0  0  0  0  0  0
  -25.4400  -36.3480   23.8880 C   0  0  0  0  0  3  0  0  0  0  0  0
  -27.5860  -37.2200   24.7010 C   0  0  0  0  0  1  0  0  0  0  0  0
  -26.4720  -37.4010   23.7720 N   0  0  0  0  0  0  0  0  0  0  0  0
  -26.0690  -38.3200   23.9360 H   0  0  0  0  0  0  0  0  0  0  0  0
  -26.4390  -31.7280   25.0860 C   0  0  1  0  0  0  0  0  0  0  0  0
  -25.3660  -31.4800   26.1710 C   0  0  0  0  0  1  0  0  0  0  0  0
  -27.0140  -30.3550   24.6680 C   0  0  0  0  0  1  0  0  0  0  0  0
  -27.6030  -32.5160   25.7340 C   0  0  0  0  0  1  0  0  0  0  0  0
  -30.3760  -19.9460   19.3630 C   0  0  0  0  0  2  0  0  0  0  0  0
  -30.4510  -19.0570   20.6200 C   0  0  0  0  0  2  0  0  0  0  0  0
  -30.3020  -17.5590   20.3140 C   0  0  0  0  0  2  0  0  0  0  0  0
  -30.5960  -16.6750   21.5420 C   0  0  0  0  0  2  0  0  0  0  0  0
  -30.7450  -14.3870   20.5600 C   0  0  0  0  0  0  0  0  0  0  0  0
  -30.3900  -12.2910   19.3190 C   0  0  0  0  0  2  0  0  0  0  0  0
  -29.4510  -12.5420   18.1250 C   0  0  0  0  0  2  0  0  0  0  0  0
  -27.9730  -12.4250   18.5530 C   0  0  0  0  0  2  0  0  0  0  0  0
  -27.6520  -13.2470   19.8320 C   0  0  0  0  0  3  0  0  0  0  0  0
  -28.6990  -12.9610   20.9320 C   0  0  0  0  0  2  0  0  0  0  0  0
  -30.0360  -13.2440   20.3800 N   0  0  0  0  0  0  0  0  0  0  0  0
  -31.8220  -14.6180   20.0020 O   0  0  0  0  0  0  0  0  0  0  0  0
  -30.1500  -15.3010   21.3360 N   0  0  0  0  0  0  0  0  0  0  0  0
  -29.2780  -15.0310   21.7650 H   0  0  0  0  0  0  0  0  0  0  0  0
  -25.2470  -13.8790   20.5130 C   0  0  0  0  0  0  0  0  0  0  0  0
  -24.1730  -13.1170   20.8870 C   0  0  0  0  0  0  0  0  0  0  0  0
  -24.6240  -11.7630   20.8660 C   0  0  0  0  0  0  0  0  0  0  0  0
  -26.2910  -12.9900   20.2990 N   0  0  0  0  0  0  0  0  0  0  0  0
  -25.9170  -11.7120   20.5680 N   0  0  0  0  0  0  0  0  0  0  0  0
  -23.8870  -10.5050   21.0620 C   0  0  0  0  0  0  0  0  0  0  0  0
  -24.3220   -9.5290   21.9840 C   0  0  0  0  0  3  0  0  0  0  0  0
  -23.5870   -8.3380   22.1650 C   0  0  0  0  0  3  0  0  0  0  0  0
  -22.4010   -8.1160   21.4260 C   0  0  0  0  0  0  0  0  0  0  0  0
  -21.9860   -9.0800   20.4900 C   0  0  0  0  0  3  0  0  0  0  0  0
  -22.7220  -10.2630   20.3060 C   0  0  0  0  0  3  0  0  0  0  0  0
  -21.6360   -6.9780   21.5160 O   0  0  0  0  0  0  0  0  0  0  0  0
  -21.6100   -6.2200   22.6590 C   0  0  0  0  0  0  0  0  0  0  0  0
  -21.2430   -6.7670   23.9090 C   0  0  0  0  0  3  0  0  0  0  0  0
  -21.1600   -5.9360   25.0440 C   0  0  0  0  0  3  0  0  0  0  0  0
  -21.4360   -4.5600   24.9320 C   0  0  0  0  0  0  0  0  0  0  0  0
  -21.7980   -4.0130   23.6880 C   0  0  0  0  0  3  0  0  0  0  0  0
  -21.8820   -4.8410   22.5550 C   0  0  0  0  0  0  0  0  0  0  0  0
  -22.2070   -4.3050   21.3550 F   0  0  0  0  0  0  0  0  0  0  0  0
  -21.3510   -3.7600   26.0200 F   0  0  0  0  0  0  0  0  0  0  0  0
  -22.7760  -13.6050   21.1500 C   0  0  0  0  0  0  0  0  0  0  0  0
  -22.0430  -12.9210   22.0210 N   0  0  0  0  0  0  0  0  0  0  0  0
  -22.3450  -14.6250   20.6160 O   0  0  0  0  0  0  0  0  0  0  0  0
  -22.4040  -12.0950   22.4730 H   0  0  0  0  0  0  0  0  0  0  0  0
  -21.1040  -13.2250   22.2380 H   0  0  0  0  0  0  0  0  0  0  0  0
  -25.4210  -15.2460   20.3210 N   0  0  0  0  0  0  0  0  0  0  0  0
  -24.6550  -15.9040   20.4160 H   0  0  0  0  0  0  0  0  0  0  0  0
  -26.2760  -15.6750   19.9860 H   0  0  0  0  0  0  0  0  0  0  0  0
  1  2  1  0
  2  4  1  0
  3  7  1  0
  3  1  2  0
  5  3  1  0
  6  2  2  0
  7  6  1  0
  8  1  1  0
  9  8  1  0
  9 10  1  0
 10 12  1  0
 11 22  2  0
 12 17  1  0
 13 21  1  0
 13 23  1  0
 14 20  1  0
 14 16  1  0
 15 21  1  0
 16 15  1  0
 17 16  2  0
 18 19  1  0
 18 12  2  0
 19 14  2  0
 20 13  1  0
 21 11  1  0
 23 25  2  0
 24 23  1  0
 26 24  1  0
 27 36  2  0
 27 32  1  0
 28 24  1  0
 28 32  1  0
 29 28  1  0
 30 31  1  0
 30 29  1  0
 31 27  1  0
 32 33  2  0
 33 34  1  0
 35 34  2  0
 36 35  1  0
 37 11  1  0
 37 38  1  0
 37 47  1  0
 38 41  1  0
 39 43  1  0
 39 38  1  0
 40 39  2  0
 43 42  1  0
 45 43  1  0
 45 46  1  0
 45 44  1  0
 47 50  1  1
 47 48  1  0
 49 47  1  0
 51  7  1  0
 51 52  1  0
 53 52  1  0
 53 54  1  0
 55 63  1  0
 56 61  1  0
 57 58  1  0
 57 56  1  0
 59 58  1  0
 59 68  1  0
 59 60  1  0
 61 55  1  0
 61 60  1  0
 62 55  2  0
 63 54  1  0
 63 64  1  0
 65 66  2  0
 66 85  1  0
 67 66  1  0
 67 70  1  0
 68 65  1  0
 68 69  1  0
 69 67  2  0
 70 71  1  0
 71 72  2  0
 73 76  1  0
 73 72  1  0
 74 73  2  0
 75 74  1  0
 75 70  2  0
 76 77  1  0
 77 78  1  0
 78 79  2  0
 80 79  1  0
 80 84  1  0
 81 80  2  0
 82 77  2  0
 82 81  1  0
 83 82  1  0
 85 86  1  0
 86 89  1  0
 86 88  1  0
 87 85  2  0
 90 91  1  0
 90 65  1  0
 92 90  1  0
M  ISO  4   9 101  10 101  55 100  63 100
M  END
>  <TORSDO>  (72) 
F 22

>  <SCORE>  (72) 
-13.237

>  <name>  (72) 
71

>  <ligand_id>  (72) 
71

>  <original_smiles>  (72) 
[H]c1c([H])c([H])c2c(c1[H])C([H])([H])C([H])([H])C([H])([H])C2([H])N([H])C(=O)C1([H])N(C(=O)C([H])(N([H])C(=O)C([H])(N([H])C([H])([H])[H])C([H])([H])[H])C(C([H])([H])[H])(C([H])([H])[H])C([H])([H])[H])C([H])([H])c2c([H])c(OC([H])([H])C([H])([H])c3c(C([H])([H])[H])nn(C([H])([H])C([H])([H])C([H])([H])C([H])([H])N([H])C(=O)N4C([H])([H])C([H])([H])C([H])([H])C([H])(n5nc(-c6c([H])c([H])c(Oc7c([H])c([H])c(F)c([H])c7F)c([H])c6[H])c(C(=O)N([H])[H])c5N([H])[H])C4([H])[H])c3C([H])([H])[H])c([H])c([H])c2C1([H])[H]

>  <smiles>  (72) 
[H]c1c([H])c([H])c2c(c1[H])C([H])([H])C([H])([H])C([H])([H])C2([H])N([H])C(=O)C1([H])N(C(=O)C([H])(N([H])C(=O)C([H])(N([H])C([H])([H])[H])C([H])([H])[H])C(C([H])([H])[H])(C([H])([H])[H])C([H])([H])[H])C([H])([H])c2c([H])c(OC([H])([H])C([H])([H])c3c(C([H])([H])[H])nn(C([H])([H])C([H])([H])C([H])([H])C([H])([H])N([H])C(=O)N4C([H])([H])C([H])([H])C([H])([H])C([H])(n5nc(-c6c([H])c([H])c(Oc7c([H])c([H])c(F)c([H])c7F)c([H])c6[H])c(C(=O)N([H])[H])c5N([H])[H])C4([H])[H])c3C([H])([H])[H])c([H])c([H])c2C1([H])[H]

$$$$
72:0:0
     RDKit          3D

 94102  0  0  1  0  0  0  0  0999 V2000
  -27.0610  -24.6210   21.4100 C   0  0  0  0  0  3  0  0  0  0  0  0
  -29.2820  -23.9020   20.7910 C   0  0  0  0  0  3  0  0  0  0  0  0
  -28.4210  -24.9270   21.2120 C   0  0  0  0  0  0  0  0  0  0  0  0
  -26.6070  -23.3180   21.1250 C   0  0  0  0  0  0  0  0  0  0  0  0
  -27.5520  -22.3570   20.6940 C   0  0  0  0  0  0  0  0  0  0  0  0
  -25.1280  -22.9910   21.2620 C   0  0  0  0  0  1  0  0  0  0  0  0
  -28.8640  -22.6430   20.5550 N   0  0  0  0  0  0  0  0  0  0  0  0
  -28.9500  -26.3330   21.4060 C   0  0  0  0  0  2  0  0  0  0  0  0
  -28.7110  -27.1410   20.2570 O   0  0  0  0  0  0  0  0  0  0  0  0
  -24.7620  -31.9970   23.6090 C   0  0  0  0  0  0  0  0  0  0  0  0
  -27.5310  -27.8350   20.3020 C   0  0  0  0  0  0  0  0  0  0  0  0
  -23.6030  -30.6850   21.8590 C   0  0  0  0  0  3  0  0  0  0  0  0
  -25.1060  -29.2630   20.3680 C   0  0  0  0  0  0  0  0  0  0  0  0
  -26.1200  -31.1030   21.7280 C   0  0  0  0  0  2  0  0  0  0  0  0
  -26.2400  -29.7770   21.0120 C   0  0  0  0  0  0  0  0  0  0  0  0
  -27.4550  -29.0650   20.9850 C   0  0  0  0  0  3  0  0  0  0  0  0
  -26.3890  -27.3260   19.6500 C   0  0  0  0  0  3  0  0  0  0  0  0
  -25.1700  -28.0320   19.6900 C   0  0  0  0  0  3  0  0  0  0  0  0
  -23.8460  -30.0970   20.4440 C   0  0  0  0  0  2  0  0  0  0  0  0
  -24.8440  -31.2710   22.4600 N   0  0  0  0  0  0  0  0  0  0  0  0
  -23.6680  -32.2190   24.1480 O   0  0  0  0  0  0  0  0  0  0  0  0
  -22.9530  -29.5940   22.7400 C   0  0  0  0  0  0  0  0  0  0  0  0
  -21.6400  -29.3840   22.5560 N   0  0  0  0  0  0  0  0  0  0  0  0
  -23.6270  -28.9430   23.5410 O   0  0  0  0  0  0  0  0  0  0  0  0
  -21.1600  -29.9610   21.8810 H   0  0  0  0  0  0  0  0  0  0  0  0
  -18.2880  -28.0720   22.8530 C   0  0  0  0  0  0  0  0  0  0  0  0
  -20.8230  -28.3860   23.2460 C   0  0  0  0  0  3  0  0  0  0  0  0
  -20.9940  -26.9900   22.6050 C   0  0  0  0  0  2  0  0  0  0  0  0
  -19.9450  -26.6880   21.5300 C   0  0  0  0  0  2  0  0  0  0  0  0
  -18.5340  -26.7630   22.1220 C   0  0  0  0  0  2  0  0  0  0  0  0
  -19.3650  -28.8420   23.3680 C   0  0  0  0  0  0  0  0  0  0  0  0
  -19.0850  -30.0680   24.0090 C   0  0  0  0  0  3  0  0  0  0  0  0
  -17.7600  -30.5270   24.1390 C   0  0  0  0  0  3  0  0  0  0  0  0
  -16.6970  -29.7520   23.6440 C   0  0  0  0  0  3  0  0  0  0  0  0
  -16.9610  -28.5260   23.0090 C   0  0  0  0  0  3  0  0  0  0  0  0
  -26.0290  -32.6030   24.2890 C   0  0  0  0  0  3  0  0  0  0  0  0
  -25.7550  -34.0220   24.5510 N   0  0  0  0  0  0  0  0  0  0  0  0
  -26.1840  -35.0310   23.7820 C   0  0  0  0  0  0  0  0  0  0  0  0
  -26.9220  -34.8660   22.8060 O   0  0  0  0  0  0  0  0  0  0  0  0
  -25.1110  -34.2260   25.3000 H   0  0  0  0  0  0  0  0  0  0  0  0
  -24.5520  -36.8660   23.2430 C   0  0  0  0  0  1  0  0  0  0  0  0
  -25.7200  -36.4510   24.1540 C   0  0  0  0  0  3  0  0  0  0  0  0
  -27.8260  -37.2880   25.0990 C   0  0  0  0  0  1  0  0  0  0  0  0
  -26.7970  -37.4610   24.0760 N   0  0  0  0  0  0  0  0  0  0  0  0
  -26.4170  -38.4000   24.1670 H   0  0  0  0  0  0  0  0  0  0  0  0
  -26.4380  -31.8560   25.6170 C   0  0  1  0  0  0  0  0  0  0  0  0
  -25.2620  -31.6460   26.5980 C   0  0  0  0  0  1  0  0  0  0  0  0
  -27.0410  -30.4690   25.2980 C   0  0  0  0  0  1  0  0  0  0  0  0
  -27.5400  -32.6570   26.3510 C   0  0  0  0  0  1  0  0  0  0  0  0
  -27.1790  -20.9290   20.3120 C   0  0  0  0  0  2  0  0  0  0  0  0
  -27.3960  -20.6700   18.8060 C   0  0  0  0  0  2  0  0  0  0  0  0
  -27.2940  -19.1970   18.3540 C   0  0  0  0  0  2  0  0  0  0  0  0
  -28.6460  -18.4480   18.3270 C   0  0  0  0  0  2  0  0  0  0  0  0
  -29.0650  -17.8750   19.6890 C   0  0  0  0  0  2  0  0  0  0  0  0
  -30.5140  -17.3830   19.7080 C   0  0  0  0  0  2  0  0  0  0  0  0
  -30.9410  -16.8830   21.1040 C   0  0  0  0  0  2  0  0  0  0  0  0
  -31.2220  -14.4870   20.5970 C   0  0  0  0  0  0  0  0  0  0  0  0
  -30.8340  -12.3980   19.3690 C   0  0  0  0  0  2  0  0  0  0  0  0
  -29.9140  -12.6800   18.1640 C   0  0  0  0  0  2  0  0  0  0  0  0
  -28.4270  -12.6210   18.5640 C   0  0  0  0  0  2  0  0  0  0  0  0
  -28.1180  -13.4360   19.8490 C   0  0  0  0  0  3  0  0  0  0  0  0
  -29.1410  -13.1180   20.9640 C   0  0  0  0  0  2  0  0  0  0  0  0
  -30.4950  -13.3560   20.4310 N   0  0  0  0  0  0  0  0  0  0  0  0
  -32.3190  -14.6740   20.0600 O   0  0  0  0  0  0  0  0  0  0  0  0
  -30.6040  -15.4710   21.2650 N   0  0  0  0  0  0  0  0  0  0  0  0
  -29.7380  -15.2420   21.7300 H   0  0  0  0  0  0  0  0  0  0  0  0
  -25.7410  -14.1470   20.5440 C   0  0  0  0  0  0  0  0  0  0  0  0
  -24.6260  -13.4180   20.8720 C   0  0  0  0  0  0  0  0  0  0  0  0
  -25.0140  -12.0460   20.7850 C   0  0  0  0  0  0  0  0  0  0  0  0
  -26.7410  -13.2200   20.2930 N   0  0  0  0  0  0  0  0  0  0  0  0
  -26.3030  -11.9490   20.4860 N   0  0  0  0  0  0  0  0  0  0  0  0
  -24.2200  -10.8180   20.9140 C   0  0  0  0  0  0  0  0  0  0  0  0
  -24.5930   -9.7820   21.8000 C   0  0  0  0  0  3  0  0  0  0  0  0
  -23.8020   -8.6190   21.9160 C   0  0  0  0  0  3  0  0  0  0  0  0
  -22.6220   -8.4830   21.1450 C   0  0  0  0  0  0  0  0  0  0  0  0
  -22.2700   -9.5060   20.2480 C   0  0  0  0  0  3  0  0  0  0  0  0
  -23.0610  -10.6600   20.1300 C   0  0  0  0  0  3  0  0  0  0  0  0
  -21.8040   -7.3780   21.1770 O   0  0  0  0  0  0  0  0  0  0  0  0
  -21.6810   -6.6080   22.3050 C   0  0  0  0  0  0  0  0  0  0  0  0
  -21.2600   -7.1530   23.5370 C   0  0  0  0  0  3  0  0  0  0  0  0
  -21.0780   -6.3110   24.6530 C   0  0  0  0  0  3  0  0  0  0  0  0
  -21.3080   -4.9260   24.5390 C   0  0  0  0  0  0  0  0  0  0  0  0
  -21.7230   -4.3810   23.3100 C   0  0  0  0  0  3  0  0  0  0  0  0
  -21.9070   -5.2210   22.1970 C   0  0  0  0  0  0  0  0  0  0  0  0
  -22.2860   -4.6880   21.0120 F   0  0  0  0  0  0  0  0  0  0  0  0
  -21.1260   -4.1170   25.6070 F   0  0  0  0  0  0  0  0  0  0  0  0
  -23.2540  -13.9600   21.1510 C   0  0  0  0  0  0  0  0  0  0  0  0
  -22.4850  -13.2760   21.9930 N   0  0  0  0  0  0  0  0  0  0  0  0
  -22.8730  -15.0190   20.6580 O   0  0  0  0  0  0  0  0  0  0  0  0
  -22.8070  -12.4200   22.4200 H   0  0  0  0  0  0  0  0  0  0  0  0
  -21.5590  -13.6130   22.2120 H   0  0  0  0  0  0  0  0  0  0  0  0
  -25.9770  -15.5120   20.4230 N   0  0  0  0  0  0  0  0  0  0  0  0
  -25.2460  -16.2000   20.5600 H   0  0  0  0  0  0  0  0  0  0  0  0
  -26.8490  -15.9110   20.0940 H   0  0  0  0  0  0  0  0  0  0  0  0
  2  3  2  0
  3  8  1  0
  3  1  1  0
  4  6  1  0
  4  1  2  0
  5  4  1  0
  7  5  2  0
  7  2  1  0
  9 11  1  0
  9  8  1  0
 10 21  2  0
 11 16  1  0
 12 20  1  0
 12 22  1  0
 13 19  1  0
 13 15  1  0
 14 20  1  0
 15 14  1  0
 16 15  2  0
 17 18  1  0
 17 11  2  0
 18 13  2  0
 19 12  1  0
 20 10  1  0
 22 24  2  0
 23 22  1  0
 25 23  1  0
 26 35  2  0
 26 31  1  0
 27 23  1  0
 27 31  1  0
 28 27  1  0
 29 30  1  0
 29 28  1  0
 30 26  1  0
 31 32  2  0
 32 33  1  0
 34 33  2  0
 35 34  1  0
 36 10  1  0
 36 37  1  0
 36 46  1  0
 37 40  1  0
 38 42  1  0
 38 37  1  0
 39 38  2  0
 42 41  1  0
 44 42  1  0
 44 45  1  0
 44 43  1  0
 46 49  1  1
 46 47  1  0
 48 46  1  0
 50  5  1  0
 51 50  1  0
 52 51  1  0
 53 52  1  0
 53 54  1  0
 54 55  1  0
 55 56  1  0
 56 65  1  0
 57 65  1  0
 58 63  1  0
 59 60  1  0
 59 58  1  0
 61 60  1  0
 61 70  1  0
 61 62  1  0
 63 57  1  0
 63 62  1  0
 64 57  2  0
 65 66  1  0
 67 68  2  0
 68 87  1  0
 69 68  1  0
 69 72  1  0
 70 71  1  0
 70 67  1  0
 71 69  2  0
 72 73  1  0
 73 74  2  0
 75 78  1  0
 75 74  1  0
 76 75  2  0
 77 76  1  0
 77 72  2  0
 78 79  1  0
 79 80  1  0
 80 81  2  0
 82 81  1  0
 82 86  1  0
 83 82  2  0
 84 79  2  0
 84 83  1  0
 85 84  1  0
 87 88  1  0
 88 91  1  0
 88 90  1  0
 89 87  2  0
 92 67  1  0
 92 93  1  0
 94 92  1  0
M  ISO  4   8 101   9 101  57 100  65 100
M  END
>  <TORSDO>  (73) 
F 24

>  <SCORE>  (73) 
-11.241

>  <name>  (73) 
72

>  <ligand_id>  (73) 
72

>  <original_smiles>  (73) 
[H]c1nc(C([H])([H])C([H])([H])C([H])([H])C([H])([H])C([H])([H])C([H])([H])C([H])([H])N([H])C(=O)N2C([H])([H])C([H])([H])C([H])([H])C([H])(n3nc(-c4c([H])c([H])c(Oc5c([H])c([H])c(F)c([H])c5F)c([H])c4[H])c(C(=O)N([H])[H])c3N([H])[H])C2([H])[H])c(C([H])([H])[H])c([H])c1C([H])([H])Oc1c([H])c([H])c2c(c1[H])C([H])([H])N(C(=O)C([H])(N([H])C(=O)C([H])(N([H])C([H])([H])[H])C([H])([H])[H])C(C([H])([H])[H])(C([H])([H])[H])C([H])([H])[H])C([H])(C(=O)N([H])C1([H])c3c([H])c([H])c([H])c([H])c3C([H])([H])C([H])([H])C1([H])[H])C2([H])[H]

>  <smiles>  (73) 
[H]c1nc(C([H])([H])C([H])([H])C([H])([H])C([H])([H])C([H])([H])C([H])([H])C([H])([H])N([H])C(=O)N2C([H])([H])C([H])([H])C([H])([H])C([H])(n3nc(-c4c([H])c([H])c(Oc5c([H])c([H])c(F)c([H])c5F)c([H])c4[H])c(C(=O)N([H])[H])c3N([H])[H])C2([H])[H])c(C([H])([H])[H])c([H])c1C([H])([H])Oc1c([H])c([H])c2c(c1[H])C([H])([H])N(C(=O)C([H])(N([H])C(=O)C([H])(N([H])C([H])([H])[H])C([H])([H])[H])C(C([H])([H])[H])(C([H])([H])[H])C([H])([H])[H])C([H])(C(=O)N([H])C1([H])c3c([H])c([H])c([H])c([H])c3C([H])([H])C([H])([H])C1([H])[H])C2([H])[H]

$$$$
73:0:0
     RDKit          3D

 91 99  0  0  1  0  0  0  0  0999 V2000
  -28.5440  -21.1320   21.1830 C   0  0  0  0  0  3  0  0  0  0  0  0
  -28.2290  -23.5250   20.8480 C   0  0  0  0  0  3  0  0  0  0  0  0
  -30.0640  -22.3750   19.7340 C   0  0  0  0  0  3  0  0  0  0  0  0
  -27.8300  -22.3170   21.4460 C   0  0  0  0  0  0  0  0  0  0  0  0
  -29.6780  -21.1530   20.3410 C   0  0  0  0  0  0  0  0  0  0  0  0
  -29.3410  -23.5670   19.9800 C   0  0  0  0  0  0  0  0  0  0  0  0
  -26.6410  -22.2950   22.3860 C   0  0  0  0  0  1  0  0  0  0  0  0
  -30.5130  -19.8930   20.0920 C   0  0  0  0  0  2  0  0  0  0  0  0
  -30.0930  -18.6100   20.8610 C   0  0  0  0  0  2  0  0  0  0  0  0
  -31.1440  -17.4890   20.7320 C   0  0  0  0  0  2  0  0  0  0  0  0
  -31.4250  -15.0590   20.9940 C   0  0  0  0  0  0  0  0  0  0  0  0
  -31.2330  -12.7760   20.1150 C   0  0  0  0  0  2  0  0  0  0  0  0
  -30.4600  -12.8450   18.7840 C   0  0  0  0  0  2  0  0  0  0  0  0
  -28.9420  -12.7560   19.0320 C   0  0  0  0  0  2  0  0  0  0  0  0
  -28.4540  -13.7320   20.1380 C   0  0  0  0  0  3  0  0  0  0  0  0
  -29.3630  -13.6600   21.3880 C   0  0  0  0  0  2  0  0  0  0  0  0
  -30.7520  -13.8810   20.9570 N   0  0  0  0  0  0  0  0  0  0  0  0
  -32.6140  -15.1640   20.6790 O   0  0  0  0  0  0  0  0  0  0  0  0
  -30.6760  -16.1600   21.1600 N   0  0  0  0  0  0  0  0  0  0  0  0
  -29.7020  -16.0360   21.3910 H   0  0  0  0  0  0  0  0  0  0  0  0
  -26.0150  -14.4160   20.5870 C   0  0  0  0  0  0  0  0  0  0  0  0
  -24.8910  -13.6780   20.8440 C   0  0  0  0  0  0  0  0  0  0  0  0
  -25.3120  -12.3130   20.8710 C   0  0  0  0  0  0  0  0  0  0  0  0
  -27.0510  -13.5030   20.4740 N   0  0  0  0  0  0  0  0  0  0  0  0
  -26.6260  -12.2330   20.7020 N   0  0  0  0  0  0  0  0  0  0  0  0
  -24.5330  -11.0730   20.9920 C   0  0  0  0  0  0  0  0  0  0  0  0
  -24.8590  -10.0850   21.9460 C   0  0  0  0  0  3  0  0  0  0  0  0
  -24.0830   -8.9110   22.0560 C   0  0  0  0  0  3  0  0  0  0  0  0
  -22.9650   -8.7180   21.2090 C   0  0  0  0  0  0  0  0  0  0  0  0
  -22.6580   -9.6960   20.2460 C   0  0  0  0  0  3  0  0  0  0  0  0
  -23.4360  -10.8610   20.1340 C   0  0  0  0  0  3  0  0  0  0  0  0
  -22.1690   -7.5990   21.2270 O   0  0  0  0  0  0  0  0  0  0  0  0
  -22.0260   -6.8330   22.3560 C   0  0  0  0  0  0  0  0  0  0  0  0
  -21.5330   -7.3710   23.5650 C   0  0  0  0  0  3  0  0  0  0  0  0
  -21.3350   -6.5340   24.6810 C   0  0  0  0  0  3  0  0  0  0  0  0
  -21.6240   -5.1580   24.5880 C   0  0  0  0  0  0  0  0  0  0  0  0
  -22.1120   -4.6200   23.3860 C   0  0  0  0  0  3  0  0  0  0  0  0
  -22.3090   -5.4540   22.2710 C   0  0  0  0  0  0  0  0  0  0  0  0
  -22.7590   -4.9250   21.1070 F   0  0  0  0  0  0  0  0  0  0  0  0
  -21.4290   -4.3530   25.6590 F   0  0  0  0  0  0  0  0  0  0  0  0
  -23.4860  -14.1980   20.9610 C   0  0  0  0  0  0  0  0  0  0  0  0
  -22.6540  -13.5470   21.7650 N   0  0  0  0  0  0  0  0  0  0  0  0
  -23.1320  -15.2210   20.3760 O   0  0  0  0  0  0  0  0  0  0  0  0
  -22.9460  -12.7210   22.2640 H   0  0  0  0  0  0  0  0  0  0  0  0
  -21.7090  -13.8840   21.8840 H   0  0  0  0  0  0  0  0  0  0  0  0
  -26.2350  -15.7800   20.4180 N   0  0  0  0  0  0  0  0  0  0  0  0
  -25.4760  -16.4530   20.4400 H   0  0  0  0  0  0  0  0  0  0  0  0
  -27.1260  -16.2000   20.1830 H   0  0  0  0  0  0  0  0  0  0  0  0
  -29.7510  -24.9040   19.3570 C   0  0  0  0  0  2  0  0  0  0  0  0
  -28.5820  -25.6210   18.6510 C   0  0  0  0  0  2  0  0  0  0  0  0
  -28.6350  -27.0540   18.7760 O   0  0  0  0  0  0  0  0  0  0  0  0
  -24.5750  -31.3020   22.7950 C   0  0  0  0  0  0  0  0  0  0  0  0
  -27.4100  -27.6840   18.9100 C   0  0  0  0  0  0  0  0  0  0  0  0
  -23.4020  -30.0570   21.0140 C   0  0  0  0  0  3  0  0  0  0  0  0
  -24.8940  -28.9260   19.2840 C   0  0  0  0  0  0  0  0  0  0  0  0
  -25.8660  -30.7000   20.7510 C   0  0  0  0  0  2  0  0  0  0  0  0
  -26.0360  -29.4630   19.8900 C   0  0  0  0  0  0  0  0  0  0  0  0
  -27.2980  -28.8530   19.6980 C   0  0  0  0  0  3  0  0  0  0  0  0
  -26.2460  -27.1730   18.2880 C   0  0  0  0  0  3  0  0  0  0  0  0
  -24.9950  -27.7810   18.4790 C   0  0  0  0  0  3  0  0  0  0  0  0
  -23.5810  -29.6300   19.5330 C   0  0  0  0  0  2  0  0  0  0  0  0
  -24.6350  -30.6930   21.5790 N   0  0  0  0  0  0  0  0  0  0  0  0
  -23.5110  -31.3740   23.4250 O   0  0  0  0  0  0  0  0  0  0  0  0
  -22.9150  -28.8340   21.8250 C   0  0  0  0  0  0  0  0  0  0  0  0
  -21.6120  -28.5230   21.7180 N   0  0  0  0  0  0  0  0  0  0  0  0
  -23.7040  -28.1750   22.5080 O   0  0  0  0  0  0  0  0  0  0  0  0
  -21.0310  -29.1180   21.1440 H   0  0  0  0  0  0  0  0  0  0  0  0
  -18.4160  -26.8900   22.1290 C   0  0  0  0  0  0  0  0  0  0  0  0
  -20.9390  -27.3950   22.3640 C   0  0  0  0  0  3  0  0  0  0  0  0
  -21.1720  -26.0840   21.5770 C   0  0  0  0  0  2  0  0  0  0  0  0
  -20.0670  -25.7880   20.5580 C   0  0  0  0  0  2  0  0  0  0  0  0
  -18.7080  -25.6800   21.2570 C   0  0  0  0  0  2  0  0  0  0  0  0
  -19.4630  -27.7040   22.6360 C   0  0  0  0  0  0  0  0  0  0  0  0
  -19.1350  -28.8370   23.4110 C   0  0  0  0  0  3  0  0  0  0  0  0
  -17.7910  -29.1560   23.6860 C   0  0  0  0  0  3  0  0  0  0  0  0
  -16.7600  -28.3380   23.1960 C   0  0  0  0  0  3  0  0  0  0  0  0
  -17.0740  -27.2050   22.4230 C   0  0  0  0  0  3  0  0  0  0  0  0
  -25.8340  -31.9600   23.4430 C   0  0  0  0  0  3  0  0  0  0  0  0
  -25.4380  -33.2870   23.9320 N   0  0  0  0  0  0  0  0  0  0  0  0
  -25.6710  -34.4370   23.2860 C   0  0  0  0  0  0  0  0  0  0  0  0
  -26.3150  -34.4950   22.2360 O   0  0  0  0  0  0  0  0  0  0  0  0
  -24.8590  -33.3090   24.7600 H   0  0  0  0  0  0  0  0  0  0  0  0
  -23.8020  -36.1150   23.1730 C   0  0  0  0  0  1  0  0  0  0  0  0
  -25.0970  -35.7260   23.9040 C   0  0  0  0  0  3  0  0  0  0  0  0
  -27.1830  -36.6830   24.7760 C   0  0  0  0  0  1  0  0  0  0  0  0
  -26.0450  -36.8620   23.8790 N   0  0  0  0  0  0  0  0  0  0  0  0
  -25.5750  -37.7280   24.1310 H   0  0  0  0  0  0  0  0  0  0  0  0
  -26.4560  -31.0970   24.6100 C   0  0  1  0  0  0  0  0  0  0  0  0
  -25.4270  -30.6670   25.6800 C   0  0  0  0  0  1  0  0  0  0  0  0
  -27.1160  -29.8170   24.0470 C   0  0  0  0  0  1  0  0  0  0  0  0
  -27.5740  -31.9000   25.3150 C   0  0  0  0  0  1  0  0  0  0  0  0
  1  4  1  0
  2  4  2  0
  3  6  2  0
  3  5  1  0
  4  7  1  0
  5  1  2  0
  6  2  1  0
  8  5  1  0
  8  9  1  0
 10  9  1  0
 10 19  1  0
 11 19  1  0
 12 17  1  0
 13 14  1  0
 13 12  1  0
 15 14  1  0
 15 24  1  0
 15 16  1  0
 17 11  1  0
 17 16  1  0
 18 11  2  0
 19 20  1  0
 21 22  2  0
 22 23  1  0
 22 41  1  0
 23 26  1  0
 24 21  1  0
 24 25  1  0
 25 23  2  0
 26 27  1  0
 27 28  2  0
 29 32  1  0
 29 28  1  0
 30 29  2  0
 31 30  1  0
 31 26  2  0
 32 33  1  0
 33 34  1  0
 34 35  2  0
 36 35  1  0
 36 40  1  0
 37 36  2  0
 38 33  2  0
 38 37  1  0
 39 38  1  0
 41 42  1  0
 42 45  1  0
 42 44  1  0
 43 41  2  0
 46 47  1  0
 46 21  1  0
 48 46  1  0
 49  6  1  0
 50 51  1  0
 50 49  1  0
 51 53  1  0
 52 63  2  0
 53 58  1  0
 54 62  1  0
 54 64  1  0
 55 61  1  0
 55 57  1  0
 56 62  1  0
 57 56  1  0
 58 57  2  0
 59 60  1  0
 59 53  2  0
 60 55  2  0
 61 54  1  0
 62 52  1  0
 64 66  2  0
 65 64  1  0
 67 65  1  0
 68 77  2  0
 68 73  1  0
 69 65  1  0
 69 73  1  0
 70 69  1  0
 71 72  1  0
 71 70  1  0
 72 68  1  0
 73 74  2  0
 74 75  1  0
 76 75  2  0
 77 76  1  0
 78 52  1  0
 78 79  1  0
 78 88  1  0
 79 82  1  0
 80 84  1  0
 80 79  1  0
 81 80  2  0
 84 83  1  0
 86 84  1  0
 86 87  1  0
 86 85  1  0
 88 91  1  1
 88 89  1  0
 90 88  1  0
M  ISO  4  11 100  19 100  50 101  51 101
M  END
>  <TORSDO>  (74) 
F 21

>  <SCORE>  (74) 
-8.297

>  <name>  (74) 
73

>  <ligand_id>  (74) 
73

>  <original_smiles>  (74) 
[H]c1c([H])c([H])c2c(c1[H])C([H])([H])C([H])([H])C([H])([H])C2([H])N([H])C(=O)C1([H])N(C(=O)C([H])(N([H])C(=O)C([H])(N([H])C([H])([H])[H])C([H])([H])[H])C(C([H])([H])[H])(C([H])([H])[H])C([H])([H])[H])C([H])([H])c2c([H])c(OC([H])([H])C([H])([H])c3c([H])c(C([H])([H])[H])c([H])c(C([H])([H])C([H])([H])C([H])([H])N([H])C(=O)N4C([H])([H])C([H])([H])C([H])([H])C([H])(n5nc(-c6c([H])c([H])c(Oc7c([H])c([H])c(F)c([H])c7F)c([H])c6[H])c(C(=O)N([H])[H])c5N([H])[H])C4([H])[H])c3[H])c([H])c([H])c2C1([H])[H]

>  <smiles>  (74) 
[H]c1c([H])c([H])c2c(c1[H])C([H])([H])C([H])([H])C([H])([H])C2([H])N([H])C(=O)C1([H])N(C(=O)C([H])(N([H])C(=O)C([H])(N([H])C([H])([H])[H])C([H])([H])[H])C(C([H])([H])[H])(C([H])([H])[H])C([H])([H])[H])C([H])([H])c2c([H])c(OC([H])([H])C([H])([H])c3c([H])c(C([H])([H])[H])c([H])c(C([H])([H])C([H])([H])C([H])([H])N([H])C(=O)N4C([H])([H])C([H])([H])C([H])([H])C([H])(n5nc(-c6c([H])c([H])c(Oc7c([H])c([H])c(F)c([H])c7F)c([H])c6[H])c(C(=O)N([H])[H])c5N([H])[H])C4([H])[H])c3[H])c([H])c([H])c2C1([H])[H]

$$$$
74:0:0
     RDKit          3D

 90 98  0  0  1  0  0  0  0  0999 V2000
  -29.6490  -22.8110   20.0770 C   0  0  0  0  0  3  0  0  0  0  0  0
  -28.7760  -23.7750   19.4160 C   0  0  0  0  0  0  0  0  0  0  0  0
  -29.3650  -21.5170   19.6170 C   0  0  0  0  0  0  0  0  0  0  0  0
  -27.9660  -23.0660   18.6300 N   0  0  0  0  0  0  0  0  0  0  0  0
  -28.3450  -21.7460   18.6950 N   0  0  0  0  0  0  0  0  0  0  0  0
  -26.3110  -20.4030   18.1820 C   0  0  0  0  0  1  0  0  0  0  0  0
  -27.7270  -20.8220   17.7540 C   0  0  0  0  0  2  0  0  0  0  0  0
  -28.8660  -25.3580   19.2040 C   0  0  0  0  0  2  0  0  0  0  0  0
  -28.5250  -26.4030   20.2220 O   0  0  0  0  0  0  0  0  0  0  0  0
  -24.6310  -31.7650   23.2020 C   0  0  0  0  0  0  0  0  0  0  0  0
  -27.4020  -27.2580   20.1260 C   0  0  0  0  0  0  0  0  0  0  0  0
  -23.4980  -30.3760   21.4970 C   0  0  0  0  0  3  0  0  0  0  0  0
  -25.0140  -28.8660   20.0870 C   0  0  0  0  0  0  0  0  0  0  0  0
  -26.0410  -30.7170   21.4070 C   0  0  0  0  0  2  0  0  0  0  0  0
  -26.1550  -29.3440   20.7410 C   0  0  0  0  0  0  0  0  0  0  0  0
  -27.3450  -28.5480   20.7610 C   0  0  0  0  0  3  0  0  0  0  0  0
  -26.2300  -26.8370   19.4620 C   0  0  0  0  0  3  0  0  0  0  0  0
  -25.0580  -27.6190   19.4410 C   0  0  0  0  0  3  0  0  0  0  0  0
  -23.7670  -29.7260   20.1130 C   0  0  0  0  0  2  0  0  0  0  0  0
  -24.7410  -30.9730   22.0920 N   0  0  0  0  0  0  0  0  0  0  0  0
  -23.5270  -32.0180   23.7050 O   0  0  0  0  0  0  0  0  0  0  0  0
  -22.8220  -29.3370   22.4260 C   0  0  0  0  0  0  0  0  0  0  0  0
  -21.4940  -29.1780   22.2980 N   0  0  0  0  0  0  0  0  0  0  0  0
  -23.4940  -28.6780   23.2270 O   0  0  0  0  0  0  0  0  0  0  0  0
  -21.0130  -29.7770   21.6420 H   0  0  0  0  0  0  0  0  0  0  0  0
  -18.0980  -28.0200   22.7870 C   0  0  0  0  0  0  0  0  0  0  0  0
  -20.6660  -28.2150   23.0310 C   0  0  0  0  0  3  0  0  0  0  0  0
  -20.7290  -26.8110   22.3840 C   0  0  0  0  0  2  0  0  0  0  0  0
  -19.6060  -26.5590   21.3730 C   0  0  0  0  0  2  0  0  0  0  0  0
  -18.2360  -26.7020   22.0420 C   0  0  0  0  0  2  0  0  0  0  0  0
  -19.2400  -28.7370   23.2380 C   0  0  0  0  0  0  0  0  0  0  0  0
  -19.0550  -29.9730   23.8930 C   0  0  0  0  0  3  0  0  0  0  0  0
  -17.7630  -30.4910   24.1030 C   0  0  0  0  0  3  0  0  0  0  0  0
  -16.6390  -29.7700   23.6660 C   0  0  0  0  0  3  0  0  0  0  0  0
  -16.8060  -28.5340   23.0160 C   0  0  0  0  0  3  0  0  0  0  0  0
  -25.8830  -32.4060   23.8760 C   0  0  0  0  0  3  0  0  0  0  0  0
  -25.5620  -33.8070   24.1860 N   0  0  0  0  0  0  0  0  0  0  0  0
  -25.9180  -34.8570   23.4360 C   0  0  0  0  0  0  0  0  0  0  0  0
  -26.6200  -34.7500   22.4270 O   0  0  0  0  0  0  0  0  0  0  0  0
  -24.9610  -33.9660   24.9810 H   0  0  0  0  0  0  0  0  0  0  0  0
  -24.1920  -36.6360   23.0230 C   0  0  0  0  0  1  0  0  0  0  0  0
  -25.4120  -36.2450   23.8720 C   0  0  0  0  0  3  0  0  0  0  0  0
  -27.5180  -37.1470   24.7560 C   0  0  0  0  0  1  0  0  0  0  0  0
  -26.4400  -37.3030   23.7830 N   0  0  0  0  0  0  0  0  0  0  0  0
  -26.0250  -38.2220   23.9160 H   0  0  0  0  0  0  0  0  0  0  0  0
  -26.3460  -31.6480   25.1790 C   0  0  1  0  0  0  0  0  0  0  0  0
  -25.2070  -31.4110   26.2010 C   0  0  0  0  0  1  0  0  0  0  0  0
  -26.9580  -30.2770   24.8140 C   0  0  0  0  0  1  0  0  0  0  0  0
  -27.4660  -32.4520   25.8820 C   0  0  0  0  0  1  0  0  0  0  0  0
  -30.1360  -20.1380   19.8290 C   0  0  0  0  0  2  0  0  0  0  0  0
  -29.4960  -18.6580   20.0590 C   0  0  0  0  0  3  0  0  0  0  0  0
  -30.5030  -17.3850   20.0020 C   0  0  0  0  0  3  0  0  0  0  0  0
  -30.7570  -14.7880   20.0060 C   0  0  0  0  0  0  0  0  0  0  0  0
  -30.4670  -12.5080   19.0300 C   0  0  0  0  0  2  0  0  0  0  0  0
  -29.4700  -12.5890   17.8540 C   0  0  0  0  0  2  0  0  0  0  0  0
  -28.0240  -12.4260   18.3570 C   0  0  0  0  0  2  0  0  0  0  0  0
  -27.7190  -13.3330   19.5810 C   0  0  0  0  0  3  0  0  0  0  0  0
  -28.8320  -13.2550   20.6490 C   0  0  0  0  0  2  0  0  0  0  0  0
  -30.0990  -13.5790   19.9830 N   0  0  0  0  0  0  0  0  0  0  0  0
  -31.9250  -14.8620   19.6210 O   0  0  0  0  0  0  0  0  0  0  0  0
  -30.0340  -15.9480   20.2350 N   0  0  0  0  0  0  0  0  0  0  0  0
  -29.0620  -15.8130   20.4730 H   0  0  0  0  0  0  0  0  0  0  0  0
  -25.3860  -13.9520   20.4500 C   0  0  0  0  0  0  0  0  0  0  0  0
  -24.3280  -13.1870   20.8620 C   0  0  0  0  0  0  0  0  0  0  0  0
  -24.7650  -11.8310   20.7750 C   0  0  0  0  0  0  0  0  0  0  0  0
  -26.4000  -13.0600   20.1390 N   0  0  0  0  0  0  0  0  0  0  0  0
  -26.0370  -11.7790   20.3990 N   0  0  0  0  0  0  0  0  0  0  0  0
  -24.0280  -10.5740   20.9780 C   0  0  0  0  0  0  0  0  0  0  0  0
  -24.4780   -9.5970   21.8930 C   0  0  0  0  0  3  0  0  0  0  0  0
  -23.7470   -8.4040   22.0860 C   0  0  0  0  0  3  0  0  0  0  0  0
  -22.5520   -8.1820   21.3640 C   0  0  0  0  0  0  0  0  0  0  0  0
  -22.1190   -9.1470   20.4380 C   0  0  0  0  0  3  0  0  0  0  0  0
  -22.8490  -10.3320   20.2450 C   0  0  0  0  0  3  0  0  0  0  0  0
  -21.7920   -7.0420   21.4640 O   0  0  0  0  0  0  0  0  0  0  0  0
  -21.7540   -6.3010   22.6180 C   0  0  0  0  0  0  0  0  0  0  0  0
  -21.3270   -6.8550   23.8450 C   0  0  0  0  0  3  0  0  0  0  0  0
  -21.2390   -6.0410   24.9900 C   0  0  0  0  0  3  0  0  0  0  0  0
  -21.5680   -4.6740   24.9120 C   0  0  0  0  0  0  0  0  0  0  0  0
  -21.9840   -4.1190   23.6890 C   0  0  0  0  0  3  0  0  0  0  0  0
  -22.0750   -4.9310   22.5450 C   0  0  0  0  0  0  0  0  0  0  0  0
  -22.4600   -4.3880   21.3640 F   0  0  0  0  0  0  0  0  0  0  0  0
  -21.4750   -3.8900   26.0100 F   0  0  0  0  0  0  0  0  0  0  0  0
  -22.9560  -13.6790   21.2230 C   0  0  0  0  0  0  0  0  0  0  0  0
  -22.2670  -12.9710   22.1100 N   0  0  0  0  0  0  0  0  0  0  0  0
  -22.5060  -14.7230   20.7530 O   0  0  0  0  0  0  0  0  0  0  0  0
  -22.6440  -12.1220   22.5040 H   0  0  0  0  0  0  0  0  0  0  0  0
  -21.3500  -13.2790   22.4010 H   0  0  0  0  0  0  0  0  0  0  0  0
  -25.5680  -15.3210   20.2890 N   0  0  0  0  0  0  0  0  0  0  0  0
  -24.8290  -15.9950   20.4550 H   0  0  0  0  0  0  0  0  0  0  0  0
  -26.4040  -15.7460   19.9100 H   0  0  0  0  0  0  0  0  0  0  0  0
  2  1  1  0
  3 50  1  0
  3  1  2  0
  4  5  1  0
  4  2  2  0
  5  3  1  0
  7  6  1  0
  7  5  1  0
  8  2  1  0
  8  9  1  0
 10 21  2  0
 11  9  1  0
 11 16  1  0
 12 20  1  0
 12 22  1  0
 13 19  1  0
 13 15  1  0
 14 20  1  0
 15 16  2  0
 15 14  1  0
 17 11  2  0
 18 17  1  0
 18 13  2  0
 19 12  1  0
 20 10  1  0
 22 24  2  0
 23 22  1  0
 25 23  1  0
 26 35  2  0
 26 31  1  0
 27 23  1  0
 27 31  1  0
 28 27  1  0
 29 30  1  0
 29 28  1  0
 30 26  1  0
 31 32  2  0
 32 33  1  0
 34 33  2  0
 35 34  1  0
 36 10  1  0
 36 37  1  0
 36 46  1  0
 37 40  1  0
 38 42  1  0
 38 37  1  0
 39 38  2  0
 42 41  1  0
 44 42  1  0
 44 45  1  0
 44 43  1  0
 46 49  1  1
 46 47  1  0
 48 46  1  0
 50 51  1  0
 52 51  2  0
 52 61  1  0
 53 61  1  0
 54 59  1  0
 55 56  1  0
 55 54  1  0
 57 56  1  0
 57 66  1  0
 57 58  1  0
 59 53  1  0
 59 58  1  0
 60 53  2  0
 61 62  1  0
 63 64  2  0
 64 83  1  0
 65 64  1  0
 65 68  1  0
 66 67  1  0
 66 63  1  0
 67 65  2  0
 68 69  1  0
 69 70  2  0
 71 74  1  0
 71 70  1  0
 72 71  2  0
 73 72  1  0
 73 68  2  0
 74 75  1  0
 75 76  1  0
 76 77  2  0
 78 77  1  0
 78 82  1  0
 79 78  2  0
 80 75  2  0
 80 79  1  0
 81 80  1  0
 83 84  1  0
 84 87  1  0
 84 86  1  0
 85 83  2  0
 88 63  1  0
 88 89  1  0
 90 88  1  0
M  ISO  4   8 101   9 101  53 100  61 100
M  END
>  <TORSDO>  (75) 
F 21

>  <SCORE>  (75) 
-13.304

>  <name>  (75) 
74

>  <ligand_id>  (75) 
74

>  <original_smiles>  (75) 
[H]c1c([H])c([H])c2c(c1[H])C([H])([H])C([H])([H])C([H])([H])C2([H])N([H])C(=O)C1([H])N(C(=O)C([H])(N([H])C(=O)C([H])(N([H])C([H])([H])[H])C([H])([H])[H])C(C([H])([H])[H])(C([H])([H])[H])C([H])([H])[H])C([H])([H])c2c([H])c(OC([H])([H])c3nn(C([H])([H])C([H])([H])[H])c(C([H])([H])C([H])([H])C([H])([H])N([H])C(=O)N4C([H])([H])C([H])([H])C([H])([H])C([H])(n5nc(-c6c([H])c([H])c(Oc7c([H])c([H])c(F)c([H])c7F)c([H])c6[H])c(C(=O)N([H])[H])c5N([H])[H])C4([H])[H])c3[H])c([H])c([H])c2C1([H])[H]

>  <smiles>  (75) 
[H]c1c([H])c([H])c2c(c1[H])C([H])([H])C([H])([H])C([H])([H])C2([H])N([H])C(=O)C1([H])N(C(=O)C([H])(N([H])C(=O)C([H])(N([H])C([H])([H])[H])C([H])([H])[H])C(C([H])([H])[H])(C([H])([H])[H])C([H])([H])[H])C([H])([H])c2c([H])c(OC([H])([H])c3nn(C([H])([H])C([H])([H])[H])c(C([H])([H])C([H])([H])C([H])([H])N([H])C(=O)N4C([H])([H])C([H])([H])C([H])([H])C([H])(n5nc(-c6c([H])c([H])c(Oc7c([H])c([H])c(F)c([H])c7F)c([H])c6[H])c(C(=O)N([H])[H])c5N([H])[H])C4([H])[H])c3[H])c([H])c([H])c2C1([H])[H]

$$$$
75:0:0
     RDKit          3D

105114  0  0  1  0  0  0  0  0999 V2000
  -30.7420  -20.7280   22.6640 C   0  0  0  0  0  2  0  0  0  0  0  0
  -30.1810  -19.2840   22.6100 C   0  0  0  0  0  2  0  0  0  0  0  0
  -29.0550  -18.9860   21.5890 C   0  0  0  0  0  2  0  0  0  0  0  0
  -29.8740  -19.0370   17.9930 C   0  0  0  0  0  3  0  0  0  0  0  0
  -29.8610  -18.2700   19.1320 C   0  0  0  0  0  0  0  0  0  0  0  0
  -29.3890  -19.1820   20.1330 C   0  0  0  0  0  0  0  0  0  0  0  0
  -29.1140  -20.3730   19.6240 N   0  0  0  0  0  0  0  0  0  0  0  0
  -29.3500  -20.2720   18.3050 N   0  0  0  0  0  0  0  0  0  0  0  0
  -29.0230  -21.3860   17.4310 C   0  0  0  0  0  2  0  0  0  0  0  0
  -27.5070  -21.6870   17.3760 C   0  0  0  0  0  2  0  0  0  0  0  0
  -25.6140  -23.2390   18.2010 C   0  0  0  0  0  1  0  0  0  0  0  0
  -27.0850  -22.8190   18.3380 C   0  0  0  0  0  2  0  0  0  0  0  0
  -30.1870  -16.7880   19.1630 C   0  0  0  0  0  2  0  0  0  0  0  0
  -31.2720  -16.2790   20.1390 C   0  0  0  0  0  2  0  0  0  0  0  0
  -30.7340  -15.3940   21.2920 C   0  0  0  0  0  2  0  0  0  0  0  0
  -32.0840  -13.3170   21.1070 C   0  0  0  0  0  0  0  0  0  0  0  0
  -31.5920  -10.9630   20.5600 C   0  0  0  0  0  2  0  0  0  0  0  0
  -30.8120  -10.8400   19.2370 C   0  0  0  0  0  2  0  0  0  0  0  0
  -29.2950  -10.9750   19.4770 C   0  0  0  0  0  2  0  0  0  0  0  0
  -28.9490  -12.2170   20.3400 C   0  0  0  0  0  3  0  0  0  0  0  0
  -29.8360  -12.2560   21.6070 C   0  0  0  0  0  2  0  0  0  0  0  0
  -31.2440  -12.2490   21.1850 N   0  0  0  0  0  0  0  0  0  0  0  0
  -33.2010  -13.2490   20.5930 O   0  0  0  0  0  0  0  0  0  0  0  0
  -31.7370  -14.4330   21.7650 N   0  0  0  0  0  0  0  0  0  0  0  0
  -32.5680  -14.9210   22.0700 H   0  0  0  0  0  0  0  0  0  0  0  0
  -26.6870  -13.3480   20.8230 C   0  0  0  0  0  0  0  0  0  0  0  0
  -25.4430  -12.8360   21.0580 C   0  0  0  0  0  0  0  0  0  0  0  0
  -25.5880  -11.4150   21.0130 C   0  0  0  0  0  0  0  0  0  0  0  0
  -27.5280  -12.2580   20.6670 N   0  0  0  0  0  0  0  0  0  0  0  0
  -26.8600  -11.0880   20.8310 N   0  0  0  0  0  0  0  0  0  0  0  0
  -24.5780  -10.3540   21.0810 C   0  0  0  0  0  0  0  0  0  0  0  0
  -24.7440   -9.2330   21.9240 C   0  0  0  0  0  3  0  0  0  0  0  0
  -23.7520   -8.2320   21.9850 C   0  0  0  0  0  3  0  0  0  0  0  0
  -22.5760   -8.3480   21.2050 C   0  0  0  0  0  0  0  0  0  0  0  0
  -22.4260   -9.4560   20.3520 C   0  0  0  0  0  3  0  0  0  0  0  0
  -23.4180  -10.4490   20.2880 C   0  0  0  0  0  3  0  0  0  0  0  0
  -21.5750   -7.4090   21.1790 O   0  0  0  0  0  0  0  0  0  0  0  0
  -21.3650   -6.5550   22.2320 C   0  0  0  0  0  0  0  0  0  0  0  0
  -21.1150   -7.0260   23.5390 C   0  0  0  0  0  3  0  0  0  0  0  0
  -20.8310   -6.1130   24.5760 C   0  0  0  0  0  3  0  0  0  0  0  0
  -20.7960   -4.7320   24.3050 C   0  0  0  0  0  0  0  0  0  0  0  0
  -21.0450   -4.2600   23.0050 C   0  0  0  0  0  3  0  0  0  0  0  0
  -21.3250   -5.1700   21.9700 C   0  0  0  0  0  0  0  0  0  0  0  0
  -21.5400   -4.7120   20.7130 F   0  0  0  0  0  0  0  0  0  0  0  0
  -20.5190   -3.8540   25.2980 F   0  0  0  0  0  0  0  0  0  0  0  0
  -24.1660  -13.6120   21.2200 C   0  0  0  0  0  0  0  0  0  0  0  0
  -23.2440  -13.1190   22.0380 N   0  0  0  0  0  0  0  0  0  0  0  0
  -24.0030  -14.6920   20.6520 O   0  0  0  0  0  0  0  0  0  0  0  0
  -23.3760  -12.2400   22.5220 H   0  0  0  0  0  0  0  0  0  0  0  0
  -22.3850  -13.6310   22.1850 H   0  0  0  0  0  0  0  0  0  0  0  0
  -27.1730  -14.6480   20.7070 N   0  0  0  0  0  0  0  0  0  0  0  0
  -26.5600  -15.4530   20.7540 H   0  0  0  0  0  0  0  0  0  0  0  0
  -28.1170  -14.8830   20.4320 H   0  0  0  0  0  0  0  0  0  0  0  0
  -31.8000  -21.0070   21.5780 C   0  0  0  0  0  2  0  0  0  0  0  0
  -32.3450  -22.4510   21.5590 C   0  0  0  0  0  2  0  0  0  0  0  0
  -29.3450  -24.8170   21.1330 C   0  0  0  0  0  3  0  0  0  0  0  0
  -30.2870  -23.9800   21.7520 C   0  0  0  0  0  0  0  0  0  0  0  0
  -31.3440  -23.4510   20.9690 C   0  0  0  0  0  0  0  0  0  0  0  0
  -29.4730  -25.1030   19.7660 C   0  0  0  0  0  0  0  0  0  0  0  0
  -31.4250  -23.8540   19.6100 C   0  0  0  0  0  0  0  0  0  0  0  0
  -30.1200  -23.6630   23.2250 C   0  0  0  0  0  1  0  0  0  0  0  0
  -32.5320  -23.4050   18.6690 C   0  0  0  0  0  1  0  0  0  0  0  0
  -30.5080  -24.6520   19.0280 N   0  0  0  0  0  0  0  0  0  0  0  0
  -28.3730  -25.8490   19.0330 C   0  0  0  0  0  2  0  0  0  0  0  0
  -28.3440  -27.2390   19.3490 O   0  0  0  0  0  0  0  0  0  0  0  0
  -24.3560  -31.8620   22.9630 C   0  0  0  0  0  0  0  0  0  0  0  0
  -27.1060  -27.8340   19.4470 C   0  0  0  0  0  0  0  0  0  0  0  0
  -23.1460  -30.4860   21.3010 C   0  0  0  0  0  3  0  0  0  0  0  0
  -24.6100  -29.1340   19.7110 C   0  0  0  0  0  0  0  0  0  0  0  0
  -25.6230  -31.0330   20.9850 C   0  0  0  0  0  2  0  0  0  0  0  0
  -25.7610  -29.7140   20.2550 C   0  0  0  0  0  0  0  0  0  0  0  0
  -27.0090  -29.0700   20.1250 C   0  0  0  0  0  3  0  0  0  0  0  0
  -25.9310  -27.2690   18.8910 C   0  0  0  0  0  3  0  0  0  0  0  0
  -24.6870  -27.9060   19.0350 C   0  0  0  0  0  3  0  0  0  0  0  0
  -23.3180  -29.9030   19.8730 C   0  0  0  0  0  2  0  0  0  0  0  0
  -24.3960  -31.1390   21.8080 N   0  0  0  0  0  0  0  0  0  0  0  0
  -23.2960  -32.0260   23.5810 O   0  0  0  0  0  0  0  0  0  0  0  0
  -22.6190  -29.3670   22.2290 C   0  0  0  0  0  0  0  0  0  0  0  0
  -21.2980  -29.1250   22.1800 N   0  0  0  0  0  0  0  0  0  0  0  0
  -23.3880  -28.7230   22.9460 O   0  0  0  0  0  0  0  0  0  0  0  0
  -20.7320  -29.7020   21.5710 H   0  0  0  0  0  0  0  0  0  0  0  0
  -18.0340  -27.7040   22.7910 C   0  0  0  0  0  0  0  0  0  0  0  0
  -20.5850  -28.0950   22.9350 C   0  0  0  0  0  3  0  0  0  0  0  0
  -20.7330  -26.7100   22.2660 C   0  0  0  0  0  2  0  0  0  0  0  0
  -19.5920  -26.3830   21.2970 C   0  0  0  0  0  2  0  0  0  0  0  0
  -18.2450  -26.4090   22.0240 C   0  0  0  0  0  2  0  0  0  0  0  0
  -19.1320  -28.5030   23.2040 C   0  0  0  0  0  0  0  0  0  0  0  0
  -18.8830  -29.7150   23.8830 C   0  0  0  0  0  3  0  0  0  0  0  0
  -17.5660  -30.1300   24.1540 C   0  0  0  0  0  3  0  0  0  0  0  0
  -16.4820  -29.3300   23.7540 C   0  0  0  0  0  3  0  0  0  0  0  0
  -16.7160  -28.1170   23.0800 C   0  0  0  0  0  3  0  0  0  0  0  0
  -25.6370  -32.5350   23.5480 C   0  0  0  0  0  3  0  0  0  0  0  0
  -25.2990  -33.9280   23.8620 N   0  0  0  0  0  0  0  0  0  0  0  0
  -25.7340  -34.9910   23.1720 C   0  0  0  0  0  0  0  0  0  0  0  0
  -26.5330  -34.9000   22.2370 O   0  0  0  0  0  0  0  0  0  0  0  0
  -24.6040  -34.0750   24.5810 H   0  0  0  0  0  0  0  0  0  0  0  0
  -24.0920  -36.8110   22.6070 C   0  0  0  0  0  1  0  0  0  0  0  0
  -25.1950  -36.3740   23.5840 C   0  0  0  0  0  3  0  0  0  0  0  0
  -27.1970  -37.2070   24.7340 C   0  0  0  0  0  1  0  0  0  0  0  0
  -26.2420  -37.4170   23.6510 N   0  0  0  0  0  0  0  0  0  0  0  0
  -25.8240  -38.3370   23.7690 H   0  0  0  0  0  0  0  0  0  0  0  0
  -26.2030  -31.7950   24.8200 C   0  0  1  0  0  0  0  0  0  0  0  0
  -25.1460  -31.5640   25.9260 C   0  0  0  0  0  1  0  0  0  0  0  0
  -26.7900  -30.4170   24.4340 C   0  0  0  0  0  1  0  0  0  0  0  0
  -27.3590  -32.6180   25.4340 C   0  0  0  0  0  1  0  0  0  0  0  0
  2  1  1  0
  3  2  1  0
  4  8  1  0
  4  5  2  0
  5 13  1  0
  5  6  1  0
  6  3  1  0
  7  6  2  0
  8  7  1  0
  9  8  1  0
 10  9  1  0
 10 12  1  0
 11 12  1  0
 13 14  1  0
 14 15  1  0
 15 24  1  0
 16 22  1  0
 16 24  1  0
 17 22  1  0
 18 19  1  0
 18 17  1  0
 20 19  1  0
 20 29  1  0
 20 21  1  0
 22 21  1  0
 23 16  2  0
 24 25  1  0
 26 27  2  0
 27 46  1  0
 28 27  1  0
 28 31  1  0
 29 26  1  0
 29 30  1  0
 30 28  2  0
 31 32  1  0
 32 33  2  0
 34 33  1  0
 35 34  2  0
 36 35  1  0
 36 31  2  0
 37 34  1  0
 37 38  1  0
 38 39  1  0
 39 40  2  0
 41 40  1  0
 41 45  1  0
 42 41  2  0
 43 38  2  0
 43 42  1  0
 44 43  1  0
 46 47  1  0
 47 50  1  0
 47 49  1  0
 48 46  2  0
 51 52  1  0
 51 26  1  0
 53 51  1  0
 54  1  1  0
 55 54  1  0
 56 57  1  0
 57 61  1  0
 58 55  1  0
 58 57  2  0
 59 56  2  0
 60 58  1  0
 62 60  1  0
 63 60  2  0
 63 59  1  0
 64 65  1  0
 64 59  1  0
 65 67  1  0
 66 77  2  0
 67 72  1  0
 68 76  1  0
 68 78  1  0
 69 75  1  0
 69 71  1  0
 70 76  1  0
 71 70  1  0
 72 71  2  0
 73 74  1  0
 73 67  2  0
 74 69  2  0
 75 68  1  0
 76 66  1  0
 78 80  2  0
 79 78  1  0
 81 79  1  0
 82 91  2  0
 82 87  1  0
 83 79  1  0
 83 87  1  0
 84 83  1  0
 85 86  1  0
 85 84  1  0
 86 82  1  0
 87 88  2  0
 88 89  1  0
 90 89  2  0
 91 90  1  0
 92 66  1  0
 92 93  1  0
 92102  1  0
 93 96  1  0
 94 98  1  0
 94 93  1  0
 95 94  2  0
 98 97  1  0
 98100  1  0
100101  1  0
100 99  1  0
102105  1  1
102103  1  0
104102  1  0
M  ISO  4  16 100  24 100  64 101  65 101
M  END
>  <TORSDO>  (76) 
F 29

>  <SCORE>  (76) 
-7.965

>  <name>  (76) 
75

>  <ligand_id>  (76) 
75

>  <original_smiles>  (76) 
[H]c1c([H])c([H])c2c(c1[H])C([H])([H])C([H])([H])C([H])([H])C2([H])N([H])C(=O)C1([H])N(C(=O)C([H])(N([H])C(=O)C([H])(N([H])C([H])([H])[H])C([H])([H])[H])C(C([H])([H])[H])(C([H])([H])[H])C([H])([H])[H])C([H])([H])c2c([H])c(OC([H])([H])c3nc(C([H])([H])[H])c(C([H])([H])C([H])([H])C([H])([H])C([H])([H])C([H])([H])c4nn(C([H])([H])C([H])([H])C([H])([H])C([H])([H])[H])c([H])c4C([H])([H])C([H])([H])C([H])([H])N([H])C(=O)N4C([H])([H])C([H])([H])C([H])([H])C([H])(n5nc(-c6c([H])c([H])c(Oc7c([H])c([H])c(F)c([H])c7F)c([H])c6[H])c(C(=O)N([H])[H])c5N([H])[H])C4([H])[H])c(C([H])([H])[H])c3[H])c([H])c([H])c2C1([H])[H]

>  <smiles>  (76) 
[H]c1c([H])c([H])c2c(c1[H])C([H])([H])C([H])([H])C([H])([H])C2([H])N([H])C(=O)C1([H])N(C(=O)C([H])(N([H])C(=O)C([H])(N([H])C([H])([H])[H])C([H])([H])[H])C(C([H])([H])[H])(C([H])([H])[H])C([H])([H])[H])C([H])([H])c2c([H])c(OC([H])([H])c3nc(C([H])([H])[H])c(C([H])([H])C([H])([H])C([H])([H])C([H])([H])C([H])([H])c4nn(C([H])([H])C([H])([H])C([H])([H])C([H])([H])[H])c([H])c4C([H])([H])C([H])([H])C([H])([H])N([H])C(=O)N4C([H])([H])C([H])([H])C([H])([H])C([H])(n5nc(-c6c([H])c([H])c(Oc7c([H])c([H])c(F)c([H])c7F)c([H])c6[H])c(C(=O)N([H])[H])c5N([H])[H])C4([H])[H])c(C([H])([H])[H])c3[H])c([H])c([H])c2C1([H])[H]

$$$$
76:0:0
     RDKit          3D

 92100  0  0  1  0  0  0  0  0999 V2000
  -29.0260  -24.5550   19.2180 C   0  0  0  0  0  3  0  0  0  0  0  0
  -28.3890  -23.4180   19.6310 C   0  0  0  0  0  0  0  0  0  0  0  0
  -28.2320  -25.6030   19.7490 C   0  0  0  0  0  0  0  0  0  0  0  0
  -27.2440  -25.1570   20.5160 N   0  0  0  0  0  0  0  0  0  0  0  0
  -27.3140  -23.8140   20.4130 N   0  0  0  0  0  0  0  0  0  0  0  0
  -26.4750  -22.9520   22.5780 C   0  0  0  0  0  1  0  0  0  0  0  0
  -26.2860  -23.0110   21.0580 C   0  0  0  0  0  2  0  0  0  0  0  0
  -28.3310  -26.9440   19.4650 O   0  0  0  0  0  0  0  0  0  0  0  0
  -24.6130  -31.8170   23.0450 C   0  0  0  0  0  0  0  0  0  0  0  0
  -27.1770  -27.6880   19.5300 C   0  0  0  0  0  0  0  0  0  0  0  0
  -23.3650  -30.5640   21.3130 C   0  0  0  0  0  3  0  0  0  0  0  0
  -24.7850  -29.1660   19.7240 C   0  0  0  0  0  0  0  0  0  0  0  0
  -25.8840  -30.9490   21.0920 C   0  0  0  0  0  2  0  0  0  0  0  0
  -25.9540  -29.6410   20.3330 C   0  0  0  0  0  0  0  0  0  0  0  0
  -27.1550  -28.9050   20.2410 C   0  0  0  0  0  3  0  0  0  0  0  0
  -25.9980  -27.2310   18.9010 C   0  0  0  0  0  3  0  0  0  0  0  0
  -24.7970  -27.9560   19.0080 C   0  0  0  0  0  3  0  0  0  0  0  0
  -23.5400  -30.0080   19.8740 C   0  0  0  0  0  2  0  0  0  0  0  0
  -24.6390  -31.1190   21.8760 N   0  0  0  0  0  0  0  0  0  0  0  0
  -23.5460  -32.0450   23.6300 O   0  0  0  0  0  0  0  0  0  0  0  0
  -22.7340  -29.4650   22.1930 C   0  0  0  0  0  0  0  0  0  0  0  0
  -21.4050  -29.3040   22.0870 N   0  0  0  0  0  0  0  0  0  0  0  0
  -23.4350  -28.7620   22.9270 O   0  0  0  0  0  0  0  0  0  0  0  0
  -20.9020  -29.9250   21.4690 H   0  0  0  0  0  0  0  0  0  0  0  0
  -18.0210  -28.1720   22.6550 C   0  0  0  0  0  0  0  0  0  0  0  0
  -20.5990  -28.3070   22.7900 C   0  0  0  0  0  3  0  0  0  0  0  0
  -20.6080  -26.9560   22.0380 C   0  0  0  0  0  2  0  0  0  0  0  0
  -19.4340  -26.7970   21.0660 C   0  0  0  0  0  2  0  0  0  0  0  0
  -18.1010  -26.9100   21.8120 C   0  0  0  0  0  2  0  0  0  0  0  0
  -19.1950  -28.8370   23.0990 C   0  0  0  0  0  0  0  0  0  0  0  0
  -19.0660  -30.0260   23.8490 C   0  0  0  0  0  3  0  0  0  0  0  0
  -17.7960  -30.5500   24.1560 C   0  0  0  0  0  3  0  0  0  0  0  0
  -16.6370  -29.8790   23.7280 C   0  0  0  0  0  3  0  0  0  0  0  0
  -16.7530  -28.6900   22.9840 C   0  0  0  0  0  3  0  0  0  0  0  0
  -25.9170  -32.3860   23.6880 C   0  0  0  0  0  3  0  0  0  0  0  0
  -25.6490  -33.7780   24.0720 N   0  0  0  0  0  0  0  0  0  0  0  0
  -26.0050  -34.8470   23.3490 C   0  0  0  0  0  0  0  0  0  0  0  0
  -26.6650  -34.7640   22.3090 O   0  0  0  0  0  0  0  0  0  0  0  0
  -25.0650  -33.9190   24.8830 H   0  0  0  0  0  0  0  0  0  0  0  0
  -24.3240  -36.6950   23.0640 C   0  0  0  0  0  1  0  0  0  0  0  0
  -25.5560  -36.2300   23.8580 C   0  0  0  0  0  3  0  0  0  0  0  0
  -27.7070  -37.0340   24.7260 C   0  0  0  0  0  1  0  0  0  0  0  0
  -26.6170  -37.2580   23.7810 N   0  0  0  0  0  0  0  0  0  0  0  0
  -26.2330  -38.1840   23.9520 H   0  0  0  0  0  0  0  0  0  0  0  0
  -26.4170  -31.5490   24.9290 C   0  0  1  0  0  0  0  0  0  0  0  0
  -25.3170  -31.2880   25.9850 C   0  0  0  0  0  1  0  0  0  0  0  0
  -26.9690  -30.1770   24.4740 C   0  0  0  0  0  1  0  0  0  0  0  0
  -27.5880  -32.2850   25.6220 C   0  0  0  0  0  1  0  0  0  0  0  0
  -28.6960  -21.9950   19.3000 C   0  0  0  0  0  2  0  0  0  0  0  0
  -29.3890  -21.2160   20.4270 C   0  0  0  0  0  2  0  0  0  0  0  0
  -29.9440  -19.8840   19.9130 C   0  0  0  0  0  2  0  0  0  0  0  0
  -30.4600  -18.9480   21.0140 C   0  0  0  0  0  2  0  0  0  0  0  0
  -31.2130  -17.7600   20.3960 C   0  0  0  0  0  2  0  0  0  0  0  0
  -31.5630  -16.6330   21.3890 C   0  0  0  0  0  2  0  0  0  0  0  0
  -31.2630  -14.5350   20.0680 C   0  0  0  0  0  0  0  0  0  0  0  0
  -30.8630  -12.3360   19.0230 C   0  0  0  0  0  2  0  0  0  0  0  0
  -29.8570  -12.4240   17.8610 C   0  0  0  0  0  2  0  0  0  0  0  0
  -28.4130  -12.3050   18.3810 C   0  0  0  0  0  2  0  0  0  0  0  0
  -28.1300  -13.2680   19.5620 C   0  0  0  0  0  3  0  0  0  0  0  0
  -29.2320  -13.1530   20.6380 C   0  0  0  0  0  2  0  0  0  0  0  0
  -30.5400  -13.3890   19.9980 N   0  0  0  0  0  0  0  0  0  0  0  0
  -32.2230  -14.7810   19.3300 O   0  0  0  0  0  0  0  0  0  0  0  0
  -30.9010  -15.3750   21.0470 N   0  0  0  0  0  0  0  0  0  0  0  0
  -30.1190  -15.0910   21.6190 H   0  0  0  0  0  0  0  0  0  0  0  0
  -25.8340  -13.9560   20.5080 C   0  0  0  0  0  0  0  0  0  0  0  0
  -24.7530  -13.2180   20.9080 C   0  0  0  0  0  0  0  0  0  0  0  0
  -25.1250  -11.8490   20.7410 C   0  0  0  0  0  0  0  0  0  0  0  0
  -26.8020  -13.0380   20.1280 N   0  0  0  0  0  0  0  0  0  0  0  0
  -26.3810  -11.7620   20.3220 N   0  0  0  0  0  0  0  0  0  0  0  0
  -24.3410  -10.6180   20.9010 C   0  0  0  0  0  0  0  0  0  0  0  0
  -24.6980   -9.6300   21.8460 C   0  0  0  0  0  3  0  0  0  0  0  0
  -23.9180   -8.4640   21.9920 C   0  0  0  0  0  3  0  0  0  0  0  0
  -22.7660   -8.2750   21.1930 C   0  0  0  0  0  0  0  0  0  0  0  0
  -22.4270   -9.2510   20.2370 C   0  0  0  0  0  3  0  0  0  0  0  0
  -23.2080  -10.4090   20.0890 C   0  0  0  0  0  3  0  0  0  0  0  0
  -21.9630   -7.1620   21.2480 O   0  0  0  0  0  0  0  0  0  0  0  0
  -21.7340   -6.4970   22.4240 C   0  0  0  0  0  0  0  0  0  0  0  0
  -21.1250   -7.1290   23.5310 C   0  0  0  0  0  3  0  0  0  0  0  0
  -20.8450   -6.3890   24.6980 C   0  0  0  0  0  3  0  0  0  0  0  0
  -21.1640   -5.0190   24.7570 C   0  0  0  0  0  0  0  0  0  0  0  0
  -21.7650   -4.3880   23.6550 C   0  0  0  0  0  3  0  0  0  0  0  0
  -22.0460   -5.1240   22.4910 C   0  0  0  0  0  0  0  0  0  0  0  0
  -22.6060   -4.5060   21.4230 F   0  0  0  0  0  0  0  0  0  0  0  0
  -20.8870   -4.3060   25.8730 F   0  0  0  0  0  0  0  0  0  0  0  0
  -23.4140  -13.7490   21.3340 C   0  0  0  0  0  0  0  0  0  0  0  0
  -22.7190  -13.0290   22.2090 N   0  0  0  0  0  0  0  0  0  0  0  0
  -22.9970  -14.8330   20.9290 O   0  0  0  0  0  0  0  0  0  0  0  0
  -23.0700  -12.1480   22.5580 H   0  0  0  0  0  0  0  0  0  0  0  0
  -21.8250  -13.3630   22.5360 H   0  0  0  0  0  0  0  0  0  0  0  0
  -26.0690  -15.3250   20.4180 N   0  0  0  0  0  0  0  0  0  0  0  0
  -25.3590  -16.0130   20.6410 H   0  0  0  0  0  0  0  0  0  0  0  0
  -26.9270  -15.7370   20.0760 H   0  0  0  0  0  0  0  0  0  0  0  0
  1  2  2  0
  1  3  1  0
  2  5  1  0
  3  4  2  0
  5  4  1  0
  5  7  1  0
  7  6  1  0
  8 10  1  0
  8  3  1  0
  9 20  2  0
 10 15  1  0
 11 19  1  0
 11 21  1  0
 12 18  1  0
 12 14  1  0
 13 19  1  0
 14 13  1  0
 15 14  2  0
 16 17  1  0
 16 10  2  0
 17 12  2  0
 18 11  1  0
 19  9  1  0
 21 23  2  0
 22 21  1  0
 24 22  1  0
 25 34  2  0
 25 30  1  0
 26 22  1  0
 26 30  1  0
 27 26  1  0
 28 29  1  0
 28 27  1  0
 29 25  1  0
 30 31  2  0
 31 32  1  0
 33 32  2  0
 34 33  1  0
 35  9  1  0
 35 36  1  0
 35 45  1  0
 36 39  1  0
 37 41  1  0
 37 36  1  0
 38 37  2  0
 41 40  1  0
 43 41  1  0
 43 44  1  0
 43 42  1  0
 45 48  1  1
 45 46  1  0
 47 45  1  0
 49  2  1  0
 49 50  1  0
 51 50  1  0
 51 52  1  0
 53 52  1  0
 53 54  1  0
 55 63  1  0
 56 61  1  0
 57 58  1  0
 57 56  1  0
 59 58  1  0
 59 68  1  0
 59 60  1  0
 61 55  1  0
 61 60  1  0
 62 55  2  0
 63 54  1  0
 63 64  1  0
 65 66  2  0
 66 85  1  0
 67 70  1  0
 67 66  1  0
 68 69  1  0
 68 65  1  0
 69 67  2  0
 70 71  1  0
 71 72  2  0
 73 76  1  0
 73 72  1  0
 74 73  2  0
 75 74  1  0
 75 70  2  0
 76 77  1  0
 77 82  2  0
 77 78  1  0
 78 79  2  0
 79 80  1  0
 80 84  1  0
 81 80  2  0
 82 81  1  0
 83 82  1  0
 85 86  1  0
 86 89  1  0
 86 88  1  0
 87 85  2  0
 90 65  1  0
 90 91  1  0
 92 90  1  0
M  ISO  4   3 101   8 101  55 100  63 100
M  END
>  <TORSDO>  (77) 
F 23

>  <SCORE>  (77) 
-10.454

>  <name>  (77) 
76

>  <ligand_id>  (77) 
76

>  <original_smiles>  (77) 
[H]c1c([H])c([H])c2c(c1[H])C([H])([H])C([H])([H])C([H])([H])C2([H])N([H])C(=O)C1([H])N(C(=O)C([H])(N([H])C(=O)C([H])(N([H])C([H])([H])[H])C([H])([H])[H])C(C([H])([H])[H])(C([H])([H])[H])C([H])([H])[H])C([H])([H])c2c([H])c(Oc3nn(C([H])([H])C([H])([H])[H])c(C([H])([H])C([H])([H])C([H])([H])C([H])([H])C([H])([H])C([H])([H])N([H])C(=O)N4C([H])([H])C([H])([H])C([H])([H])C([H])(n5nc(-c6c([H])c([H])c(Oc7c([H])c([H])c(F)c([H])c7F)c([H])c6[H])c(C(=O)N([H])[H])c5N([H])[H])C4([H])[H])c3[H])c([H])c([H])c2C1([H])[H]

>  <smiles>  (77) 
[H]c1c([H])c([H])c2c(c1[H])C([H])([H])C([H])([H])C([H])([H])C2([H])N([H])C(=O)C1([H])N(C(=O)C([H])(N([H])C(=O)C([H])(N([H])C([H])([H])[H])C([H])([H])[H])C(C([H])([H])[H])(C([H])([H])[H])C([H])([H])[H])C([H])([H])c2c([H])c(Oc3nn(C([H])([H])C([H])([H])[H])c(C([H])([H])C([H])([H])C([H])([H])C([H])([H])C([H])([H])C([H])([H])N([H])C(=O)N4C([H])([H])C([H])([H])C([H])([H])C([H])(n5nc(-c6c([H])c([H])c(Oc7c([H])c([H])c(F)c([H])c7F)c([H])c6[H])c(C(=O)N([H])[H])c5N([H])[H])C4([H])[H])c3[H])c([H])c([H])c2C1([H])[H]

$$$$
77:0:0
     RDKit          3D

 93101  0  0  1  0  0  0  0  0999 V2000
  -28.6350  -23.1940   21.8780 C   0  0  0  0  0  3  0  0  0  0  0  0
  -28.7250  -24.4720   21.2600 C   0  0  0  0  0  0  0  0  0  0  0  0
  -27.9230  -22.4270   20.9940 C   0  0  0  0  0  0  0  0  0  0  0  0
  -26.8580  -22.9450   18.7230 C   0  0  0  0  0  1  0  0  0  0  0  0
  -28.1380  -24.4820   20.0720 N   0  0  0  0  0  0  0  0  0  0  0  0
  -27.6330  -23.2390   19.9140 N   0  0  0  0  0  0  0  0  0  0  0  0
  -29.2920  -25.7570   21.8100 C   0  0  0  0  0  2  0  0  0  0  0  0
  -30.4810  -26.3240   20.9900 C   0  0  0  0  0  2  0  0  0  0  0  0
  -30.4480  -27.7570   20.9000 O   0  0  0  0  0  0  0  0  0  0  0  0
  -25.5940  -31.7280   24.1730 C   0  0  0  0  0  0  0  0  0  0  0  0
  -29.1940  -28.3140   20.8010 C   0  0  0  0  0  0  0  0  0  0  0  0
  -24.7810  -30.4400   22.2220 C   0  0  0  0  0  3  0  0  0  0  0  0
  -26.5880  -29.3950   20.7570 C   0  0  0  0  0  0  0  0  0  0  0  0
  -27.2150  -31.2130   22.3560 C   0  0  0  0  0  2  0  0  0  0  0  0
  -27.5830  -29.9960   21.5370 C   0  0  0  0  0  0  0  0  0  0  0  0
  -28.8900  -29.4660   21.5570 C   0  0  0  0  0  3  0  0  0  0  0  0
  -28.1850  -27.7260   20.0040 C   0  0  0  0  0  3  0  0  0  0  0  0
  -26.8840  -28.2580   19.9840 C   0  0  0  0  0  3  0  0  0  0  0  0
  -25.2160  -30.0270   20.7900 C   0  0  0  0  0  2  0  0  0  0  0  0
  -25.8740  -31.1330   22.9780 N   0  0  0  0  0  0  0  0  0  0  0  0
  -24.4410  -31.7420   24.6260 O   0  0  0  0  0  0  0  0  0  0  0  0
  -24.2320  -29.1920   22.9480 C   0  0  0  0  0  0  0  0  0  0  0  0
  -23.0390  -28.7380   22.5330 N   0  0  0  0  0  0  0  0  0  0  0  0
  -24.8840  -28.6390   23.8390 O   0  0  0  0  0  0  0  0  0  0  0  0
  -22.5640  -29.2500   21.8030 H   0  0  0  0  0  0  0  0  0  0  0  0
  -20.0440  -26.7500   22.1830 C   0  0  0  0  0  0  0  0  0  0  0  0
  -22.3430  -27.5570   23.0430 C   0  0  0  0  0  3  0  0  0  0  0  0
  -22.9180  -26.2620   22.4230 C   0  0  0  0  0  2  0  0  0  0  0  0
  -22.1640  -25.8100   21.1680 C   0  0  0  0  0  2  0  0  0  0  0  0
  -20.6870  -25.5610   21.4890 C   0  0  0  0  0  2  0  0  0  0  0  0
  -20.8240  -27.6970   22.8990 C   0  0  0  0  0  0  0  0  0  0  0  0
  -20.1820  -28.8040   23.4960 C   0  0  0  0  0  3  0  0  0  0  0  0
  -18.7880  -28.9710   23.3890 C   0  0  0  0  0  3  0  0  0  0  0  0
  -18.0190  -28.0230   22.6910 C   0  0  0  0  0  3  0  0  0  0  0  0
  -18.6450  -26.9130   22.0960 C   0  0  0  0  0  3  0  0  0  0  0  0
  -26.7010  -32.4370   25.0140 C   0  0  0  0  0  3  0  0  0  0  0  0
  -26.2260  -33.7950   25.3130 N   0  0  0  0  0  0  0  0  0  0  0  0
  -26.5490  -34.8870   24.6070 C   0  0  0  0  0  0  0  0  0  0  0  0
  -27.3480  -34.8660   23.6660 O   0  0  0  0  0  0  0  0  0  0  0  0
  -25.5290  -33.8800   26.0380 H   0  0  0  0  0  0  0  0  0  0  0  0
  -24.6820  -36.4900   24.0860 C   0  0  0  0  0  1  0  0  0  0  0  0
  -25.8790  -36.2150   25.0110 C   0  0  0  0  0  3  0  0  0  0  0  0
  -27.8790  -37.2700   25.9670 C   0  0  0  0  0  1  0  0  0  0  0  0
  -26.8030  -37.3710   24.9860 N   0  0  0  0  0  0  0  0  0  0  0  0
  -26.3000  -38.2370   25.1560 H   0  0  0  0  0  0  0  0  0  0  0  0
  -27.0640  -31.6660   26.3400 C   0  0  1  0  0  0  0  0  0  0  0  0
  -25.8300  -31.1740   27.1310 C   0  0  0  0  0  1  0  0  0  0  0  0
  -27.9470  -30.4340   26.0290 C   0  0  0  0  0  1  0  0  0  0  0  0
  -27.8900  -32.5830   27.2720 C   0  0  0  0  0  1  0  0  0  0  0  0
  -27.4400  -21.0120   21.1170 C   0  0  0  0  0  2  0  0  0  0  0  0
  -28.0650  -19.9970   20.1400 C   0  0  0  0  0  2  0  0  0  0  0  0
  -29.6010  -19.9270   20.1840 C   0  0  0  0  0  2  0  0  0  0  0  0
  -30.1240  -18.4900   20.0070 C   0  0  0  0  0  2  0  0  0  0  0  0
  -31.6530  -18.4230   19.8400 C   0  0  0  0  0  2  0  0  0  0  0  0
  -32.3270  -17.3750   20.7430 C   0  0  0  0  0  2  0  0  0  0  0  0
  -32.1490  -14.9600   20.1560 C   0  0  0  0  0  0  0  0  0  0  0  0
  -31.8230  -12.5520   19.7420 C   0  0  0  0  0  2  0  0  0  0  0  0
  -30.9710  -12.3280   18.4790 C   0  0  0  0  0  2  0  0  0  0  0  0
  -29.4690  -12.3470   18.8230 C   0  0  0  0  0  2  0  0  0  0  0  0
  -29.0710  -13.5730   19.6900 C   0  0  0  0  0  3  0  0  0  0  0  0
  -30.0450  -13.7570   20.8760 C   0  0  0  0  0  2  0  0  0  0  0  0
  -31.4200  -13.8290   20.3460 N   0  0  0  0  0  0  0  0  0  0  0  0
  -33.2150  -14.9770   19.5340 O   0  0  0  0  0  0  0  0  0  0  0  0
  -31.6550  -16.0730   20.7140 N   0  0  0  0  0  0  0  0  0  0  0  0
  -30.7840  -15.9860   21.2150 H   0  0  0  0  0  0  0  0  0  0  0  0
  -26.7800  -14.4920   20.4190 C   0  0  0  0  0  0  0  0  0  0  0  0
  -25.6010  -13.8710   20.7380 C   0  0  0  0  0  0  0  0  0  0  0  0
  -25.8530  -12.4690   20.6300 C   0  0  0  0  0  0  0  0  0  0  0  0
  -27.6840  -13.4780   20.1430 N   0  0  0  0  0  0  0  0  0  0  0  0
  -27.1280  -12.2520   20.3240 N   0  0  0  0  0  0  0  0  0  0  0  0
  -24.9430  -11.3220   20.7440 C   0  0  0  0  0  0  0  0  0  0  0  0
  -25.2350  -10.2290   21.5910 C   0  0  0  0  0  3  0  0  0  0  0  0
  -24.3350   -9.1460   21.6980 C   0  0  0  0  0  3  0  0  0  0  0  0
  -23.1290   -9.1500   20.9600 C   0  0  0  0  0  0  0  0  0  0  0  0
  -22.8540  -10.2280   20.1010 C   0  0  0  0  0  3  0  0  0  0  0  0
  -23.7520  -11.3030   19.9910 C   0  0  0  0  0  3  0  0  0  0  0  0
  -22.2070   -8.1310   20.9820 O   0  0  0  0  0  0  0  0  0  0  0  0
  -22.0070   -7.3660   22.1030 C   0  0  0  0  0  0  0  0  0  0  0  0
  -21.6660   -7.9420   23.3470 C   0  0  0  0  0  3  0  0  0  0  0  0
  -21.3980   -7.1150   24.4560 C   0  0  0  0  0  3  0  0  0  0  0  0
  -21.4630   -5.7150   24.3230 C   0  0  0  0  0  0  0  0  0  0  0  0
  -21.7970   -5.1390   23.0840 C   0  0  0  0  0  3  0  0  0  0  0  0
  -22.0640   -5.9630   21.9770 C   0  0  0  0  0  0  0  0  0  0  0  0
  -22.3650   -5.4020   20.7800 F   0  0  0  0  0  0  0  0  0  0  0  0
  -21.1980   -4.9210   25.3870 F   0  0  0  0  0  0  0  0  0  0  0  0
  -24.2880  -14.5360   21.0330 C   0  0  0  0  0  0  0  0  0  0  0  0
  -23.4620  -13.9230   21.8750 N   0  0  0  0  0  0  0  0  0  0  0  0
  -24.0060  -15.6330   20.5530 O   0  0  0  0  0  0  0  0  0  0  0  0
  -23.7010  -13.0350   22.2880 H   0  0  0  0  0  0  0  0  0  0  0  0
  -22.5770  -14.3510   22.1080 H   0  0  0  0  0  0  0  0  0  0  0  0
  -27.1540  -15.8280   20.3230 N   0  0  0  0  0  0  0  0  0  0  0  0
  -26.5030  -16.5890   20.4840 H   0  0  0  0  0  0  0  0  0  0  0  0
  -28.0740  -16.1450   20.0480 H   0  0  0  0  0  0  0  0  0  0  0  0
  2  7  1  0
  2  1  1  0
  3 50  1  0
  3  1  2  0
  4  6  1  0
  5  2  2  0
  6  5  1  0
  6  3  1  0
  8  7  1  0
  9  8  1  0
 10 21  2  0
 11  9  1  0
 11 16  1  0
 12 22  1  0
 12 20  1  0
 13 19  1  0
 13 15  1  0
 14 20  1  0
 15 16  2  0
 15 14  1  0
 17 11  2  0
 18 17  1  0
 18 13  2  0
 19 12  1  0
 20 10  1  0
 22 24  2  0
 23 22  1  0
 25 23  1  0
 26 31  1  0
 27 23  1  0
 28 27  1  0
 29 30  1  0
 29 28  1  0
 30 26  1  0
 31 27  1  0
 31 32  2  0
 33 32  1  0
 34 33  2  0
 35 26  2  0
 35 34  1  0
 36 10  1  0
 36 37  1  0
 36 46  1  0
 37 40  1  0
 38 42  1  0
 38 37  1  0
 39 38  2  0
 42 41  1  0
 44 42  1  0
 44 45  1  0
 44 43  1  0
 46 47  1  1
 46 49  1  0
 48 46  1  0
 51 52  1  0
 51 50  1  0
 53 52  1  0
 54 53  1  0
 54 55  1  0
 56 62  1  0
 56 64  1  0
 57 62  1  0
 58 59  1  0
 58 57  1  0
 60 59  1  0
 60 69  1  0
 60 61  1  0
 62 61  1  0
 63 56  2  0
 64 55  1  0
 64 65  1  0
 66 67  2  0
 67 86  1  0
 68 67  1  0
 68 71  1  0
 69 70  1  0
 69 66  1  0
 70 68  2  0
 71 72  1  0
 72 73  2  0
 74 77  1  0
 74 73  1  0
 75 74  2  0
 76 75  1  0
 76 71  2  0
 77 78  1  0
 78 79  1  0
 79 80  2  0
 81 80  1  0
 81 85  1  0
 82 81  2  0
 83 78  2  0
 83 82  1  0
 84 83  1  0
 86 87  1  0
 87 90  1  0
 87 89  1  0
 88 86  2  0
 91 66  1  0
 91 92  1  0
 93 91  1  0
M  ISO  4   8 101   9 101  56 100  64 100
M  END
>  <TORSDO>  (78) 
F 24

>  <SCORE>  (78) 
-7.690

>  <name>  (78) 
77

>  <ligand_id>  (78) 
77

>  <original_smiles>  (78) 
[H]c1c([H])c([H])c2c(c1[H])C([H])([H])C([H])([H])C([H])([H])C2([H])N([H])C(=O)C1([H])N(C(=O)C([H])(N([H])C(=O)C([H])(N([H])C([H])([H])[H])C([H])([H])[H])C(C([H])([H])[H])(C([H])([H])[H])C([H])([H])[H])C([H])([H])c2c([H])c(OC([H])([H])C([H])([H])c3nn(C([H])([H])[H])c(C([H])([H])C([H])([H])C([H])([H])C([H])([H])C([H])([H])C([H])([H])N([H])C(=O)N4C([H])([H])C([H])([H])C([H])([H])C([H])(n5nc(-c6c([H])c([H])c(Oc7c([H])c([H])c(F)c([H])c7F)c([H])c6[H])c(C(=O)N([H])[H])c5N([H])[H])C4([H])[H])c3[H])c([H])c([H])c2C1([H])[H]

>  <smiles>  (78) 
[H]c1c([H])c([H])c2c(c1[H])C([H])([H])C([H])([H])C([H])([H])C2([H])N([H])C(=O)C1([H])N(C(=O)C([H])(N([H])C(=O)C([H])(N([H])C([H])([H])[H])C([H])([H])[H])C(C([H])([H])[H])(C([H])([H])[H])C([H])([H])[H])C([H])([H])c2c([H])c(OC([H])([H])C([H])([H])c3nn(C([H])([H])[H])c(C([H])([H])C([H])([H])C([H])([H])C([H])([H])C([H])([H])C([H])([H])N([H])C(=O)N4C([H])([H])C([H])([H])C([H])([H])C([H])(n5nc(-c6c([H])c([H])c(Oc7c([H])c([H])c(F)c([H])c7F)c([H])c6[H])c(C(=O)N([H])[H])c5N([H])[H])C4([H])[H])c3[H])c([H])c([H])c2C1([H])[H]

$$$$
78:0:0
     RDKit          3D

 91 99  0  0  1  0  0  0  0  0999 V2000
  -30.7640  -20.9290   21.3640 C   0  0  0  0  0  3  0  0  0  0  0  0
  -29.7220  -20.7150   20.4310 C   0  0  0  0  0  0  0  0  0  0  0  0
  -30.5510  -23.2160   21.1200 C   0  0  0  0  0  0  0  0  0  0  0  0
  -29.4870  -23.0300   20.1940 C   0  0  0  0  0  0  0  0  0  0  0  0
  -31.1150  -24.5850   21.4660 C   0  0  0  0  0  1  0  0  0  0  0  0
  -31.1690  -22.1710   21.7180 N   0  0  0  0  0  0  0  0  0  0  0  0
  -29.0680  -21.7730   19.8630 N   0  0  0  0  0  0  0  0  0  0  0  0
  -29.4210  -19.3110   19.8750 C   0  0  0  0  0  2  0  0  0  0  0  0
  -29.5130  -18.0700   20.8280 C   0  0  0  0  0  2  0  0  0  0  0  0
  -30.1620  -16.8460   20.1170 C   0  0  0  0  0  2  0  0  0  0  0  0
  -30.6820  -14.4390   20.4070 C   0  0  0  0  0  0  0  0  0  0  0  0
  -30.3720  -12.2730   19.2860 C   0  0  0  0  0  2  0  0  0  0  0  0
  -29.4490  -12.5090   18.0730 C   0  0  0  0  0  2  0  0  0  0  0  0
  -27.9700  -12.3900   18.4890 C   0  0  0  0  0  2  0  0  0  0  0  0
  -27.6360  -13.2220   19.7560 C   0  0  0  0  0  3  0  0  0  0  0  0
  -28.6770  -12.9850   20.8740 C   0  0  0  0  0  2  0  0  0  0  0  0
  -30.0100  -13.2610   20.3180 N   0  0  0  0  0  0  0  0  0  0  0  0
  -31.8340  -14.5840   19.9850 O   0  0  0  0  0  0  0  0  0  0  0  0
  -29.9280  -15.5170   20.7200 N   0  0  0  0  0  0  0  0  0  0  0  0
  -29.0030  -15.3240   21.0750 H   0  0  0  0  0  0  0  0  0  0  0  0
  -25.2390  -13.8600   20.4380 C   0  0  0  0  0  0  0  0  0  0  0  0
  -24.1600  -13.1010   20.8050 C   0  0  0  0  0  0  0  0  0  0  0  0
  -24.6070  -11.7450   20.7890 C   0  0  0  0  0  0  0  0  0  0  0  0
  -26.2760  -12.9650   20.2240 N   0  0  0  0  0  0  0  0  0  0  0  0
  -25.8990  -11.6880   20.4920 N   0  0  0  0  0  0  0  0  0  0  0  0
  -23.8660  -10.4920   20.9860 C   0  0  0  0  0  0  0  0  0  0  0  0
  -24.2830   -9.5310   21.9330 C   0  0  0  0  0  3  0  0  0  0  0  0
  -23.5460   -8.3400   22.1150 C   0  0  0  0  0  3  0  0  0  0  0  0
  -22.3790   -8.1050   21.3510 C   0  0  0  0  0  0  0  0  0  0  0  0
  -21.9820   -9.0550   20.3930 C   0  0  0  0  0  3  0  0  0  0  0  0
  -22.7190  -10.2380   20.2100 C   0  0  0  0  0  3  0  0  0  0  0  0
  -21.6130   -6.9680   21.4420 O   0  0  0  0  0  0  0  0  0  0  0  0
  -21.5480   -6.2360   22.6000 C   0  0  0  0  0  0  0  0  0  0  0  0
  -21.1050   -6.8010   23.8150 C   0  0  0  0  0  3  0  0  0  0  0  0
  -20.9860   -5.9950   24.9650 C   0  0  0  0  0  3  0  0  0  0  0  0
  -21.3000   -4.6240   24.9000 C   0  0  0  0  0  0  0  0  0  0  0  0
  -21.7350   -4.0590   23.6890 C   0  0  0  0  0  3  0  0  0  0  0  0
  -21.8550   -4.8620   22.5420 C   0  0  0  0  0  0  0  0  0  0  0  0
  -22.2560   -4.3060   21.3730 F   0  0  0  0  0  0  0  0  0  0  0  0
  -21.1780   -3.8470   26.0030 F   0  0  0  0  0  0  0  0  0  0  0  0
  -22.7650  -13.5960   21.0610 C   0  0  0  0  0  0  0  0  0  0  0  0
  -22.0250  -12.9150   21.9290 N   0  0  0  0  0  0  0  0  0  0  0  0
  -22.3400  -14.6180   20.5270 O   0  0  0  0  0  0  0  0  0  0  0  0
  -22.3830  -12.0890   22.3860 H   0  0  0  0  0  0  0  0  0  0  0  0
  -21.0870  -13.2220   22.1390 H   0  0  0  0  0  0  0  0  0  0  0  0
  -25.4250  -15.2270   20.2500 N   0  0  0  0  0  0  0  0  0  0  0  0
  -24.6660  -15.8960   20.3380 H   0  0  0  0  0  0  0  0  0  0  0  0
  -26.2840  -15.6470   19.9180 H   0  0  0  0  0  0  0  0  0  0  0  0
  -28.8450  -24.2290   19.4700 C   0  0  0  0  0  2  0  0  0  0  0  0
  -28.0070  -25.1810   20.3620 C   0  0  0  0  0  2  0  0  0  0  0  0
  -28.1300  -26.5660   19.9620 O   0  0  0  0  0  0  0  0  0  0  0  0
  -24.4740  -31.7910   23.1740 C   0  0  0  0  0  0  0  0  0  0  0  0
  -26.9830  -27.3320   19.9940 C   0  0  0  0  0  0  0  0  0  0  0  0
  -23.2220  -30.4360   21.5270 C   0  0  0  0  0  3  0  0  0  0  0  0
  -24.6260  -28.8950   20.0580 C   0  0  0  0  0  0  0  0  0  0  0  0
  -25.7510  -30.7480   21.3000 C   0  0  0  0  0  2  0  0  0  0  0  0
  -25.8020  -29.3830   20.6410 C   0  0  0  0  0  0  0  0  0  0  0  0
  -26.9860  -28.6090   20.6050 C   0  0  0  0  0  3  0  0  0  0  0  0
  -25.7940  -26.8670   19.3950 C   0  0  0  0  0  3  0  0  0  0  0  0
  -24.6160  -27.6370   19.4330 C   0  0  0  0  0  3  0  0  0  0  0  0
  -23.4000  -29.7760   20.1330 C   0  0  0  0  0  2  0  0  0  0  0  0
  -24.5010  -31.0060   22.0590 N   0  0  0  0  0  0  0  0  0  0  0  0
  -23.4040  -32.0740   23.7320 O   0  0  0  0  0  0  0  0  0  0  0  0
  -22.5630  -29.4130   22.4820 C   0  0  0  0  0  0  0  0  0  0  0  0
  -21.2340  -29.2630   22.3760 N   0  0  0  0  0  0  0  0  0  0  0  0
  -23.2470  -28.7590   23.2730 O   0  0  0  0  0  0  0  0  0  0  0  0
  -20.7410  -29.8440   21.7110 H   0  0  0  0  0  0  0  0  0  0  0  0
  -17.8440  -28.1290   22.9130 C   0  0  0  0  0  0  0  0  0  0  0  0
  -20.4120  -28.3280   23.1460 C   0  0  0  0  0  3  0  0  0  0  0  0
  -20.4720  -26.9060   22.5410 C   0  0  0  0  0  2  0  0  0  0  0  0
  -19.3460  -26.6240   21.5410 C   0  0  0  0  0  2  0  0  0  0  0  0
  -17.9800  -26.7880   22.2120 C   0  0  0  0  0  2  0  0  0  0  0  0
  -18.9860  -28.8580   23.3380 C   0  0  0  0  0  0  0  0  0  0  0  0
  -18.8050  -30.1150   23.9540 C   0  0  0  0  0  3  0  0  0  0  0  0
  -17.5140  -30.6410   24.1530 C   0  0  0  0  0  3  0  0  0  0  0  0
  -16.3880  -29.9080   23.7440 C   0  0  0  0  0  3  0  0  0  0  0  0
  -16.5530  -28.6540   23.1280 C   0  0  0  0  0  3  0  0  0  0  0  0
  -25.7780  -32.3900   23.7850 C   0  0  0  0  0  3  0  0  0  0  0  0
  -25.5010  -33.7900   24.1370 N   0  0  0  0  0  0  0  0  0  0  0  0
  -25.8550  -34.8460   23.3930 C   0  0  0  0  0  0  0  0  0  0  0  0
  -26.5180  -34.7420   22.3570 O   0  0  0  0  0  0  0  0  0  0  0  0
  -24.9140  -33.9460   24.9430 H   0  0  0  0  0  0  0  0  0  0  0  0
  -24.1740  -36.6870   23.0550 C   0  0  0  0  0  1  0  0  0  0  0  0
  -25.3980  -36.2390   23.8710 C   0  0  0  0  0  3  0  0  0  0  0  0
  -27.5460  -37.0550   24.7340 C   0  0  0  0  0  1  0  0  0  0  0  0
  -26.4580  -37.2660   23.7830 N   0  0  0  0  0  0  0  0  0  0  0  0
  -26.0750  -38.1950   23.9380 H   0  0  0  0  0  0  0  0  0  0  0  0
  -26.2980  -31.5920   25.0430 C   0  0  1  0  0  0  0  0  0  0  0  0
  -25.2170  -31.3580   26.1240 C   0  0  0  0  0  1  0  0  0  0  0  0
  -26.8490  -30.2100   24.6200 C   0  0  0  0  0  1  0  0  0  0  0  0
  -27.4750  -32.3540   25.6970 C   0  0  0  0  0  1  0  0  0  0  0  0
  1  6  1  0
  2  1  2  0
  3  5  1  0
  3  6  2  0
  4  3  1  0
  7  4  2  0
  7  2  1  0
  8  2  1  0
  8  9  1  0
 10 19  1  0
 10  9  1  0
 11 19  1  0
 12 17  1  0
 13 14  1  0
 13 12  1  0
 15 14  1  0
 15 24  1  0
 15 16  1  0
 17 11  1  0
 17 16  1  0
 18 11  2  0
 19 20  1  0
 21 22  2  0
 22 41  1  0
 23 22  1  0
 23 26  1  0
 24 21  1  0
 24 25  1  0
 25 23  2  0
 26 27  1  0
 27 28  2  0
 29 32  1  0
 29 28  1  0
 30 29  2  0
 31 30  1  0
 31 26  2  0
 32 33  1  0
 33 34  1  0
 34 35  2  0
 36 35  1  0
 36 40  1  0
 37 36  2  0
 38 33  2  0
 38 37  1  0
 39 38  1  0
 41 42  1  0
 42 45  1  0
 42 44  1  0
 43 41  2  0
 46 47  1  0
 46 21  1  0
 48 46  1  0
 49  4  1  0
 49 50  1  0
 51 53  1  0
 51 50  1  0
 52 63  2  0
 53 58  1  0
 54 62  1  0
 54 64  1  0
 55 61  1  0
 55 57  1  0
 56 62  1  0
 57 56  1  0
 58 57  2  0
 59 60  1  0
 59 53  2  0
 60 55  2  0
 61 54  1  0
 62 52  1  0
 64 66  2  0
 65 64  1  0
 67 65  1  0
 68 77  2  0
 68 73  1  0
 69 65  1  0
 69 73  1  0
 70 69  1  0
 71 72  1  0
 71 70  1  0
 72 68  1  0
 73 74  2  0
 74 75  1  0
 76 75  2  0
 77 76  1  0
 78 52  1  0
 78 79  1  0
 78 88  1  0
 79 82  1  0
 80 84  1  0
 80 79  1  0
 81 80  2  0
 84 83  1  0
 86 84  1  0
 86 87  1  0
 86 85  1  0
 88 91  1  1
 88 89  1  0
 90 88  1  0
M  ISO  4  11 100  19 100  50 101  51 101
M  END
>  <TORSDO>  (79) 
F 21

>  <SCORE>  (79) 
-13.150

>  <name>  (79) 
78

>  <ligand_id>  (79) 
78

>  <original_smiles>  (79) 
[H]c1nc(C([H])([H])[H])c(C([H])([H])C([H])([H])Oc2c([H])c([H])c3c(c2[H])C([H])([H])N(C(=O)C([H])(N([H])C(=O)C([H])(N([H])C([H])([H])[H])C([H])([H])[H])C(C([H])([H])[H])(C([H])([H])[H])C([H])([H])[H])C([H])(C(=O)N([H])C2([H])c4c([H])c([H])c([H])c([H])c4C([H])([H])C([H])([H])C2([H])[H])C3([H])[H])nc1C([H])([H])C([H])([H])C([H])([H])N([H])C(=O)N1C([H])([H])C([H])([H])C([H])([H])C([H])(n2nc(-c3c([H])c([H])c(Oc4c([H])c([H])c(F)c([H])c4F)c([H])c3[H])c(C(=O)N([H])[H])c2N([H])[H])C1([H])[H]

>  <smiles>  (79) 
[H]c1nc(C([H])([H])[H])c(C([H])([H])C([H])([H])Oc2c([H])c([H])c3c(c2[H])C([H])([H])N(C(=O)C([H])(N([H])C(=O)C([H])(N([H])C([H])([H])[H])C([H])([H])[H])C(C([H])([H])[H])(C([H])([H])[H])C([H])([H])[H])C([H])(C(=O)N([H])C2([H])c4c([H])c([H])c([H])c([H])c4C([H])([H])C([H])([H])C2([H])[H])C3([H])[H])nc1C([H])([H])C([H])([H])C([H])([H])N([H])C(=O)N1C([H])([H])C([H])([H])C([H])([H])C([H])(n2nc(-c3c([H])c([H])c(Oc4c([H])c([H])c(F)c([H])c4F)c([H])c3[H])c(C(=O)N([H])[H])c2N([H])[H])C1([H])[H]

$$$$
79:0:0
     RDKit          3D

 99108  0  0  1  0  0  0  0  0999 V2000
  -25.3880  -23.2340   17.5860 C   0  0  0  0  0  0  0  0  0  0  0  0
  -26.5820  -22.5360   17.9460 C   0  0  0  0  0  0  0  0  0  0  0  0
  -25.8440  -24.4870   17.2340 C   0  0  0  0  0  3  0  0  0  0  0  0
  -25.1270  -25.6920   16.6960 C   0  0  0  0  0  1  0  0  0  0  0  0
  -27.6510  -23.3040   17.8920 N   0  0  0  0  0  2  0  0  0  0  0  0
  -27.1840  -24.5280   17.6000 N   0  0  0  0  0  0  0  0  0  0  0  0
  -22.9540  -23.3630   16.7780 C   0  0  0  0  0  1  0  0  0  0  0  0
  -23.4850  -22.6900   19.1320 C   0  0  0  0  0  1  0  0  0  0  0  0
  -23.9800  -22.6600   17.6730 C   0  0  0  0  0  3  0  0  0  0  0  0
  -26.7680  -21.1270   18.4380 C   0  0  0  0  0  2  0  0  0  0  0  0
  -27.3230  -21.1160   19.8790 C   0  0  0  0  0  2  0  0  0  0  0  0
  -28.1620  -19.8700   20.2250 C   0  0  0  0  0  2  0  0  0  0  0  0
  -31.9620  -18.9460   20.5260 C   0  0  0  0  0  2  0  0  0  0  0  0
  -31.7130  -20.7320   18.7850 C   0  0  0  0  0  2  0  0  0  0  0  0
  -30.4310  -18.7990   20.6110 C   0  0  0  0  0  2  0  0  0  0  0  0
  -30.1890  -20.5520   18.8110 C   0  0  0  0  0  2  0  0  0  0  0  0
  -32.4140  -19.4070   19.1250 C   0  0  0  0  0  3  0  0  0  0  0  0
  -29.6900  -20.0900   20.1960 C   0  0  0  0  0  3  0  0  0  0  0  0
  -33.9480  -19.5270   19.0230 C   0  0  0  0  0  2  0  0  0  0  0  0
  -34.6850  -18.1760   18.8600 C   0  0  0  0  0  2  0  0  0  0  0  0
  -34.4750  -17.4850   17.4930 C   0  0  0  0  0  0  0  0  0  0  0  0
  -34.5430  -15.4020   16.1630 C   0  0  0  0  0  2  0  0  0  0  0  0
  -33.1980  -14.9570   15.5680 C   0  0  0  0  0  2  0  0  0  0  0  0
  -32.4140  -14.1150   16.5870 C   0  0  0  0  0  2  0  0  0  0  0  0
  -32.3290  -14.7990   17.9730 C   0  0  0  0  0  3  0  0  0  0  0  0
  -33.7150  -15.2790   18.4520 C   0  0  0  0  0  2  0  0  0  0  0  0
  -34.3060  -16.1390   17.4150 N   0  0  0  0  0  0  0  0  0  0  0  0
  -34.6240  -18.1810   16.4830 O   0  0  0  0  0  0  0  0  0  0  0  0
  -30.5140  -14.1120   19.6650 C   0  0  0  0  0  0  0  0  0  0  0  0
  -30.3250  -12.9640   20.3860 C   0  0  0  0  0  0  0  0  0  0  0  0
  -31.4250  -12.1120   20.0680 C   0  0  0  0  0  0  0  0  0  0  0  0
  -31.6900  -13.9270   18.9560 N   0  0  0  0  0  0  0  0  0  0  0  0
  -32.2640  -12.7320   19.2470 N   0  0  0  0  0  0  0  0  0  0  0  0
  -31.7040  -10.7210   20.4520 C   0  0  0  0  0  0  0  0  0  0  0  0
  -32.9990  -10.3060   20.8340 C   0  0  0  0  0  3  0  0  0  0  0  0
  -33.2380   -8.9690   21.2190 C   0  0  0  0  0  3  0  0  0  0  0  0
  -32.1780   -8.0320   21.2260 C   0  0  0  0  0  0  0  0  0  0  0  0
  -30.8950   -8.4450   20.8280 C   0  0  0  0  0  3  0  0  0  0  0  0
  -30.6590   -9.7750   20.4410 C   0  0  0  0  0  3  0  0  0  0  0  0
  -32.3240   -6.7050   21.5530 O   0  0  0  0  0  0  0  0  0  0  0  0
  -33.3650   -6.2640   22.3290 C   0  0  0  0  0  0  0  0  0  0  0  0
  -33.5350   -6.6990   23.6610 C   0  0  0  0  0  3  0  0  0  0  0  0
  -34.5780   -6.1690   24.4470 C   0  0  0  0  0  3  0  0  0  0  0  0
  -35.4470   -5.2030   23.9050 C   0  0  0  0  0  0  0  0  0  0  0  0
  -35.2780   -4.7660   22.5800 C   0  0  0  0  0  3  0  0  0  0  0  0
  -34.2370   -5.2940   21.7940 C   0  0  0  0  0  0  0  0  0  0  0  0
  -34.0630   -4.8540   20.5240 F   0  0  0  0  0  0  0  0  0  0  0  0
  -36.4440   -4.6880   24.6610 F   0  0  0  0  0  0  0  0  0  0  0  0
  -29.1440  -12.6380   21.2530 C   0  0  0  0  0  0  0  0  0  0  0  0
  -29.3510  -11.8240   22.2830 N   0  0  0  0  0  0  0  0  0  0  0  0
  -28.0420  -13.1440   21.0510 O   0  0  0  0  0  0  0  0  0  0  0  0
  -30.2620  -11.4240   22.4560 H   0  0  0  0  0  0  0  0  0  0  0  0
  -28.5900  -11.6040   22.9080 H   0  0  0  0  0  0  0  0  0  0  0  0
  -29.7770  -15.2840   19.5360 N   0  0  0  0  0  0  0  0  0  0  0  0
  -28.8990  -15.4310   20.0190 H   0  0  0  0  0  0  0  0  0  0  0  0
  -30.0450  -16.0650   18.9510 H   0  0  0  0  0  0  0  0  0  0  0  0
  -28.0810  -25.6510   17.8290 C   0  0  0  0  0  2  0  0  0  0  0  0
  -28.4570  -25.7640   19.3360 C   0  0  0  0  0  2  0  0  0  0  0  0
  -28.4340  -27.0920   19.8720 O   0  0  0  0  0  0  0  0  0  0  0  0
  -24.6460  -31.9270   23.4590 C   0  0  0  0  0  0  0  0  0  0  0  0
  -27.2240  -27.7430   20.0030 C   0  0  0  0  0  0  0  0  0  0  0  0
  -23.3960  -30.6310   21.7630 C   0  0  0  0  0  3  0  0  0  0  0  0
  -24.8120  -29.2090   20.2060 C   0  0  0  0  0  0  0  0  0  0  0  0
  -25.9100  -31.0320   21.5100 C   0  0  0  0  0  2  0  0  0  0  0  0
  -25.9860  -29.7100   20.7790 C   0  0  0  0  0  0  0  0  0  0  0  0
  -27.1950  -28.9850   20.6740 C   0  0  0  0  0  3  0  0  0  0  0  0
  -26.0120  -27.2320   19.4900 C   0  0  0  0  0  3  0  0  0  0  0  0
  -24.8160  -27.9640   19.5650 C   0  0  0  0  0  3  0  0  0  0  0  0
  -23.5680  -30.0570   20.3320 C   0  0  0  0  0  2  0  0  0  0  0  0
  -24.6700  -31.2080   22.3030 N   0  0  0  0  0  0  0  0  0  0  0  0
  -23.5820  -32.1560   24.0490 O   0  0  0  0  0  0  0  0  0  0  0  0
  -22.7810  -29.5390   22.6690 C   0  0  0  0  0  0  0  0  0  0  0  0
  -21.4790  -29.2710   22.4880 N   0  0  0  0  0  0  0  0  0  0  0  0
  -23.4760  -28.9400   23.4960 O   0  0  0  0  0  0  0  0  0  0  0  0
  -20.9770  -29.8060   21.7940 H   0  0  0  0  0  0  0  0  0  0  0  0
  -18.2200  -27.7420   22.7090 C   0  0  0  0  0  0  0  0  0  0  0  0
  -20.7020  -28.2610   23.2070 C   0  0  0  0  0  3  0  0  0  0  0  0
  -21.0020  -26.8430   22.6660 C   0  0  0  0  0  2  0  0  0  0  0  0
  -20.0330  -26.4070   21.5600 C   0  0  0  0  0  2  0  0  0  0  0  0
  -18.5920  -26.4140   22.0780 C   0  0  0  0  0  2  0  0  0  0  0  0
  -19.2100  -28.6170   23.2310 C   0  0  0  0  0  0  0  0  0  0  0  0
  -18.8080  -29.8550   23.7750 C   0  0  0  0  0  3  0  0  0  0  0  0
  -17.4480  -30.2190   23.8150 C   0  0  0  0  0  3  0  0  0  0  0  0
  -16.4740  -29.3390   23.3120 C   0  0  0  0  0  3  0  0  0  0  0  0
  -16.8570  -28.1040   22.7600 C   0  0  0  0  0  3  0  0  0  0  0  0
  -25.9510  -32.5190   24.0800 C   0  0  0  0  0  3  0  0  0  0  0  0
  -26.4200  -31.7670   25.3870 C   0  0  1  0  0  0  0  0  0  0  0  0
  -25.3050  -31.6060   26.4430 C   0  0  0  0  0  1  0  0  0  0  0  0
  -26.9490  -30.3550   25.0450 C   0  0  0  0  0  1  0  0  0  0  0  0
  -27.5920  -32.5340   26.0440 C   0  0  0  0  0  1  0  0  0  0  0  0
  -25.6960  -33.9380   24.3590 N   0  0  0  0  0  0  0  0  0  0  0  0
  -26.0650  -34.9470   23.5620 C   0  0  0  0  0  0  0  0  0  0  0  0
  -26.7310  -34.7790   22.5360 O   0  0  0  0  0  0  0  0  0  0  0  0
  -25.1030  -34.1450   25.1490 H   0  0  0  0  0  0  0  0  0  0  0  0
  -24.3960  -36.7800   23.1500 C   0  0  0  0  0  1  0  0  0  0  0  0
  -25.6300  -36.3670   23.9650 C   0  0  0  0  0  3  0  0  0  0  0  0
  -27.7990  -37.2150   24.7470 C   0  0  0  0  0  1  0  0  0  0  0  0
  -26.6980  -37.3770   23.8000 N   0  0  0  0  0  0  0  0  0  0  0  0
  -26.3250  -38.3170   23.9060 H   0  0  0  0  0  0  0  0  0  0  0  0
  1  9  1  0
  1  2  2  0
  2 10  1  0
  3  4  1  0
  3  1  1  0
  3  6  1  0
  5  2  1  0
  6 57  1  0
  6  5  1  0
  7  9  1  0
  9  8  1  0
 10 11  1  0
 11 12  1  0
 13 15  1  0
 14 16  1  0
 14 17  1  0
 16 18  1  0
 17 19  1  0
 17 13  1  0
 18 12  1  0
 18 15  1  0
 20 19  1  0
 21 20  1  0
 22 27  1  0
 23 22  1  0
 23 24  1  0
 25 24  1  0
 25 26  1  0
 25 32  1  0
 27 21  1  0
 27 26  1  0
 28 21  2  0
 29 30  2  0
 30 49  1  0
 31 30  1  0
 31 34  1  0
 32 33  1  0
 32 29  1  0
 33 31  2  0
 34 35  1  0
 35 36  2  0
 36 37  1  0
 37 40  1  0
 38 37  2  0
 39 34  2  0
 39 38  1  0
 40 41  1  0
 41 42  1  0
 42 43  2  0
 44 43  1  0
 44 48  1  0
 45 44  2  0
 46 41  2  0
 46 45  1  0
 47 46  1  0
 49 50  1  0
 50 52  1  0
 50 53  1  0
 51 49  2  0
 54 29  1  0
 54 55  1  0
 56 54  1  0
 57 58  1  0
 58 59  1  0
 59 61  1  0
 60 71  2  0
 61 66  1  0
 62 70  1  0
 62 72  1  0
 63 69  1  0
 63 65  1  0
 64 70  1  0
 65 64  1  0
 66 65  2  0
 67 68  1  0
 67 61  2  0
 68 63  2  0
 69 62  1  0
 70 60  1  0
 72 74  2  0
 73 72  1  0
 75 73  1  0
 76 85  2  0
 76 81  1  0
 77 73  1  0
 77 81  1  0
 78 77  1  0
 79 80  1  0
 79 78  1  0
 80 76  1  0
 81 82  2  0
 82 83  1  0
 84 83  2  0
 85 84  1  0
 86 60  1  0
 86 91  1  0
 86 87  1  0
 87 90  1  1
 87 88  1  0
 89 87  1  0
 91 94  1  0
 92 96  1  0
 92 91  1  0
 93 92  2  0
 96 95  1  0
 98 99  1  0
 98 96  1  0
 98 97  1  0
M  ISO  4  20 100  21 100  58 101  59 101
M  END
>  <TORSDO>  (80) 
F 25

>  <SCORE>  (80) 
-8.371

>  <name>  (80) 
79

>  <ligand_id>  (80) 
79

>  <original_smiles>  (80) 
[H]c1c([H])c([H])c2c(c1[H])C([H])([H])C([H])([H])C([H])([H])C2([H])N([H])C(=O)C1([H])N(C(=O)C([H])(N([H])C(=O)C([H])(N([H])C([H])([H])[H])C([H])([H])[H])C(C([H])([H])[H])(C([H])([H])[H])C([H])([H])[H])C([H])([H])c2c([H])c(OC([H])([H])C([H])([H])n3nc(C([H])([H])C([H])([H])C([H])([H])C4([H])C([H])([H])C([H])([H])C([H])(C([H])([H])C([H])([H])C(=O)N5C([H])([H])C([H])([H])C([H])([H])C([H])(n6nc(-c7c([H])c([H])c(Oc8c([H])c([H])c(F)c([H])c8F)c([H])c7[H])c(C(=O)N([H])[H])c6N([H])[H])C5([H])[H])C([H])([H])C4([H])[H])c(C([H])(C([H])([H])[H])C([H])([H])[H])c3C([H])([H])[H])c([H])c([H])c2C1([H])[H]

>  <smiles>  (80) 
[H]c1c([H])c([H])c2c(c1[H])C([H])([H])C([H])([H])C([H])([H])C2([H])N([H])C(=O)C1([H])N(C(=O)C([H])(N([H])C(=O)C([H])(N([H])C([H])([H])[H])C([H])([H])[H])C(C([H])([H])[H])(C([H])([H])[H])C([H])([H])[H])C([H])([H])c2c([H])c(OC([H])([H])C([H])([H])n3nc(C([H])([H])C([H])([H])C([H])([H])C4([H])C([H])([H])C([H])([H])C([H])(C([H])([H])C([H])([H])C(=O)N5C([H])([H])C([H])([H])C([H])([H])C([H])(n6nc(-c7c([H])c([H])c(Oc8c([H])c([H])c(F)c([H])c8F)c([H])c7[H])c(C(=O)N([H])[H])c6N([H])[H])C5([H])[H])C([H])([H])C4([H])[H])c(C([H])(C([H])([H])[H])C([H])([H])[H])c3C([H])([H])[H])c([H])c([H])c2C1([H])[H]

$$$$
80:0:0
     RDKit          3D

 91 99  0  0  1  0  0  0  0  0999 V2000
  -28.4310  -17.7140   19.3340 C   0  0  0  0  0  3  0  0  0  0  0  0
  -29.9440  -19.5120   19.8890 C   0  0  0  0  0  3  0  0  0  0  0  0
  -29.6600  -18.1150   19.8920 C   0  0  0  0  0  0  0  0  0  0  0  0
  -27.5280  -18.6880   18.8760 C   0  0  0  0  0  0  0  0  0  0  0  0
  -28.9850  -20.4330   19.3840 C   0  0  0  0  0  0  0  0  0  0  0  0
  -26.1860  -18.2840   18.2980 C   0  0  0  0  0  1  0  0  0  0  0  0
  -27.7850  -20.0110   18.9220 N   0  0  0  0  0  0  0  0  0  0  0  0
  -30.6380  -17.0590   20.4460 C   0  0  0  0  0  2  0  0  0  0  0  0
  -30.8100  -14.5530   20.1380 C   0  0  0  0  0  0  0  0  0  0  0  0
  -30.3780  -12.4540   18.9040 C   0  0  0  0  0  2  0  0  0  0  0  0
  -29.3960  -12.7850   17.7640 C   0  0  0  0  0  2  0  0  0  0  0  0
  -27.9390  -12.6620   18.2540 C   0  0  0  0  0  2  0  0  0  0  0  0
  -27.6900  -13.3860   19.6080 C   0  0  0  0  0  3  0  0  0  0  0  0
  -28.8070  -13.0990   20.6320 C   0  0  0  0  0  2  0  0  0  0  0  0
  -30.0950  -13.4000   20.0000 N   0  0  0  0  0  0  0  0  0  0  0  0
  -31.9720  -14.6490   19.7390 O   0  0  0  0  0  0  0  0  0  0  0  0
  -30.1310  -15.6580   20.5310 N   0  0  0  0  0  0  0  0  0  0  0  0
  -29.1890  -15.5320   20.8690 H   0  0  0  0  0  0  0  0  0  0  0  0
  -25.3290  -13.9930   20.4260 C   0  0  0  0  0  0  0  0  0  0  0  0
  -24.2720  -13.2250   20.8190 C   0  0  0  0  0  0  0  0  0  0  0  0
  -24.7160  -11.8690   20.7460 C   0  0  0  0  0  0  0  0  0  0  0  0
  -26.3590  -13.1050   20.1420 N   0  0  0  0  0  0  0  0  0  0  0  0
  -25.9940  -11.8200   20.3920 N   0  0  0  0  0  0  0  0  0  0  0  0
  -23.9890  -10.6130   20.9520 C   0  0  0  0  0  0  0  0  0  0  0  0
  -24.4340   -9.6410   21.8720 C   0  0  0  0  0  3  0  0  0  0  0  0
  -23.7040   -8.4470   22.0700 C   0  0  0  0  0  3  0  0  0  0  0  0
  -22.5100   -8.2220   21.3450 C   0  0  0  0  0  0  0  0  0  0  0  0
  -22.0820   -9.1850   20.4130 C   0  0  0  0  0  3  0  0  0  0  0  0
  -22.8130  -10.3640   20.2140 C   0  0  0  0  0  3  0  0  0  0  0  0
  -21.7480   -7.0810   21.4420 O   0  0  0  0  0  0  0  0  0  0  0  0
  -21.7070   -6.3370   22.5930 C   0  0  0  0  0  0  0  0  0  0  0  0
  -21.2950   -6.8940   23.8250 C   0  0  0  0  0  3  0  0  0  0  0  0
  -21.1970   -6.0740   24.9650 C   0  0  0  0  0  3  0  0  0  0  0  0
  -21.5150   -4.7060   24.8830 C   0  0  0  0  0  0  0  0  0  0  0  0
  -21.9220   -4.1490   23.6570 C   0  0  0  0  0  3  0  0  0  0  0  0
  -22.0240   -4.9640   22.5170 C   0  0  0  0  0  0  0  0  0  0  0  0
  -22.4000   -4.4250   21.3310 F   0  0  0  0  0  0  0  0  0  0  0  0
  -21.4240   -3.9170   25.9760 F   0  0  0  0  0  0  0  0  0  0  0  0
  -22.8920  -13.7120   21.1540 C   0  0  0  0  0  0  0  0  0  0  0  0
  -22.1860  -12.9990   22.0200 N   0  0  0  0  0  0  0  0  0  0  0  0
  -22.4520  -14.7500   20.6640 O   0  0  0  0  0  0  0  0  0  0  0  0
  -22.5660  -12.1670   22.4460 H   0  0  0  0  0  0  0  0  0  0  0  0
  -21.2510  -13.2900   22.2770 H   0  0  0  0  0  0  0  0  0  0  0  0
  -25.4930  -15.3680   20.2690 N   0  0  0  0  0  0  0  0  0  0  0  0
  -24.7100  -15.9990   20.4000 H   0  0  0  0  0  0  0  0  0  0  0  0
  -26.3480  -15.8240   19.9730 H   0  0  0  0  0  0  0  0  0  0  0  0
  -29.2450  -21.9430   19.2010 C   0  0  0  0  0  2  0  0  0  0  0  0
  -28.9790  -22.8950   20.3980 C   0  0  0  0  0  2  0  0  0  0  0  0
  -28.7220  -24.3680   19.9420 C   0  0  0  0  0  2  0  0  0  0  0  0
  -28.7110  -25.4310   21.0760 C   0  0  0  0  0  2  0  0  0  0  0  0
  -28.7940  -26.7950   20.6110 O   0  0  0  0  0  0  0  0  0  0  0  0
  -24.7490  -31.9780   23.3920 C   0  0  0  0  0  0  0  0  0  0  0  0
  -27.6130  -27.5010   20.5600 C   0  0  0  0  0  0  0  0  0  0  0  0
  -23.6490  -30.5050   21.7360 C   0  0  0  0  0  3  0  0  0  0  0  0
  -25.1990  -28.9660   20.4160 C   0  0  0  0  0  0  0  0  0  0  0  0
  -26.1730  -30.9060   21.6500 C   0  0  0  0  0  2  0  0  0  0  0  0
  -26.3140  -29.5230   21.0490 C   0  0  0  0  0  0  0  0  0  0  0  0
  -27.5270  -28.7990   21.1170 C   0  0  0  0  0  3  0  0  0  0  0  0
  -26.4830  -26.9650   19.9060 C   0  0  0  0  0  3  0  0  0  0  0  0
  -25.2780  -27.6890   19.8380 C   0  0  0  0  0  3  0  0  0  0  0  0
  -23.9380  -29.8040   20.3810 C   0  0  0  0  0  2  0  0  0  0  0  0
  -24.8710  -31.1510   22.3160 N   0  0  0  0  0  0  0  0  0  0  0  0
  -23.6400  -32.2380   23.8750 O   0  0  0  0  0  0  0  0  0  0  0  0
  -22.9750  -29.4930   22.6910 C   0  0  0  0  0  0  0  0  0  0  0  0
  -21.6600  -29.2850   22.5150 N   0  0  0  0  0  0  0  0  0  0  0  0
  -23.6350  -28.8970   23.5450 O   0  0  0  0  0  0  0  0  0  0  0  0
  -21.1900  -29.8210   21.7990 H   0  0  0  0  0  0  0  0  0  0  0  0
  -18.2800  -28.0660   22.9120 C   0  0  0  0  0  0  0  0  0  0  0  0
  -20.8240  -28.3520   23.2710 C   0  0  0  0  0  3  0  0  0  0  0  0
  -20.9590  -26.9130   22.7230 C   0  0  0  0  0  2  0  0  0  0  0  0
  -19.8970  -26.5620   21.6760 C   0  0  0  0  0  2  0  0  0  0  0  0
  -18.4930  -26.7050   22.2690 C   0  0  0  0  0  2  0  0  0  0  0  0
  -19.3750  -28.8450   23.3680 C   0  0  0  0  0  0  0  0  0  0  0  0
  -19.1220  -30.1180   23.9270 C   0  0  0  0  0  3  0  0  0  0  0  0
  -17.8080  -30.6100   24.0350 C   0  0  0  0  0  3  0  0  0  0  0  0
  -16.7270  -29.8260   23.5950 C   0  0  0  0  0  3  0  0  0  0  0  0
  -16.9620  -28.5560   23.0400 C   0  0  0  0  0  3  0  0  0  0  0  0
  -25.9920  -32.6480   24.0550 C   0  0  0  0  0  3  0  0  0  0  0  0
  -25.6500  -34.0510   24.3110 N   0  0  0  0  0  0  0  0  0  0  0  0
  -25.9910  -35.0740   23.5160 C   0  0  0  0  0  0  0  0  0  0  0  0
  -26.6970  -34.9360   22.5120 O   0  0  0  0  0  0  0  0  0  0  0  0
  -25.0360  -34.2330   25.0910 H   0  0  0  0  0  0  0  0  0  0  0  0
  -24.2370  -36.8090   23.0280 C   0  0  0  0  0  1  0  0  0  0  0  0
  -25.4640  -36.4720   23.8890 C   0  0  0  0  0  3  0  0  0  0  0  0
  -27.5550  -37.4440   24.7350 C   0  0  0  0  0  1  0  0  0  0  0  0
  -26.4770  -37.5390   23.7540 N   0  0  0  0  0  0  0  0  0  0  0  0
  -26.0530  -38.4580   23.8390 H   0  0  0  0  0  0  0  0  0  0  0  0
  -26.4540  -31.9340   25.3840 C   0  0  1  0  0  0  0  0  0  0  0  0
  -25.3080  -31.7070   26.3970 C   0  0  0  0  0  1  0  0  0  0  0  0
  -27.0870  -30.5570   25.0740 C   0  0  0  0  0  1  0  0  0  0  0  0
  -27.5530  -32.7750   26.0750 C   0  0  0  0  0  1  0  0  0  0  0  0
  1  3  1  0
  2  3  2  0
  3  8  1  0
  4  7  1  0
  4  1  2  0
  5  2  1  0
  6  4  1  0
  7  5  2  0
  8 17  1  0
  9 17  1  0
 10 15  1  0
 11 12  1  0
 11 10  1  0
 13 12  1  0
 13 22  1  0
 13 14  1  0
 15  9  1  0
 15 14  1  0
 16  9  2  0
 17 18  1  0
 19 20  2  0
 20 39  1  0
 21 20  1  0
 21 24  1  0
 22 23  1  0
 22 19  1  0
 23 21  2  0
 24 25  1  0
 25 26  2  0
 27 30  1  0
 27 26  1  0
 28 27  2  0
 29 28  1  0
 29 24  2  0
 30 31  1  0
 31 32  1  0
 32 33  2  0
 34 33  1  0
 34 38  1  0
 35 34  2  0
 36 31  2  0
 36 35  1  0
 37 36  1  0
 39 40  1  0
 40 43  1  0
 40 42  1  0
 41 39  2  0
 44 45  1  0
 44 19  1  0
 46 44  1  0
 47  5  1  0
 47 48  1  0
 49 48  1  0
 49 50  1  0
 51 50  1  0
 52 63  2  0
 53 51  1  0
 53 58  1  0
 54 62  1  0
 54 64  1  0
 55 57  1  0
 56 62  1  0
 57 58  2  0
 57 56  1  0
 59 53  2  0
 60 59  1  0
 60 55  2  0
 61 55  1  0
 61 54  1  0
 62 52  1  0
 64 66  2  0
 65 64  1  0
 67 65  1  0
 68 77  2  0
 68 73  1  0
 69 65  1  0
 69 73  1  0
 70 69  1  0
 71 72  1  0
 71 70  1  0
 72 68  1  0
 73 74  2  0
 74 75  1  0
 76 75  2  0
 77 76  1  0
 78 52  1  0
 78 79  1  0
 78 88  1  0
 79 82  1  0
 80 84  1  0
 80 79  1  0
 81 80  2  0
 84 83  1  0
 86 87  1  0
 86 84  1  0
 86 85  1  0
 88 91  1  1
 88 89  1  0
 90 88  1  0
M  ISO  4   9 100  17 100  50 101  51 101
M  END
>  <TORSDO>  (81) 
F 21

>  <SCORE>  (81) 
-12.299

>  <name>  (81) 
80

>  <ligand_id>  (81) 
80

>  <original_smiles>  (81) 
[H]c1c([H])c([H])c2c(c1[H])C([H])([H])C([H])([H])C([H])([H])C2([H])N([H])C(=O)C1([H])N(C(=O)C([H])(N([H])C(=O)C([H])(N([H])C([H])([H])[H])C([H])([H])[H])C(C([H])([H])[H])(C([H])([H])[H])C([H])([H])[H])C([H])([H])c2c([H])c(OC([H])([H])C([H])([H])C([H])([H])C([H])([H])c3nc(C([H])([H])[H])c([H])c(C([H])([H])N([H])C(=O)N4C([H])([H])C([H])([H])C([H])([H])C([H])(n5nc(-c6c([H])c([H])c(Oc7c([H])c([H])c(F)c([H])c7F)c([H])c6[H])c(C(=O)N([H])[H])c5N([H])[H])C4([H])[H])c3[H])c([H])c([H])c2C1([H])[H]

>  <smiles>  (81) 
[H]c1c([H])c([H])c2c(c1[H])C([H])([H])C([H])([H])C([H])([H])C2([H])N([H])C(=O)C1([H])N(C(=O)C([H])(N([H])C(=O)C([H])(N([H])C([H])([H])[H])C([H])([H])[H])C(C([H])([H])[H])(C([H])([H])[H])C([H])([H])[H])C([H])([H])c2c([H])c(OC([H])([H])C([H])([H])C([H])([H])C([H])([H])c3nc(C([H])([H])[H])c([H])c(C([H])([H])N([H])C(=O)N4C([H])([H])C([H])([H])C([H])([H])C([H])(n5nc(-c6c([H])c([H])c(Oc7c([H])c([H])c(F)c([H])c7F)c([H])c6[H])c(C(=O)N([H])[H])c5N([H])[H])C4([H])[H])c3[H])c([H])c([H])c2C1([H])[H]

$$$$
81:0:0
     RDKit          3D

 96104  0  0  1  0  0  0  0  0999 V2000
  -30.2440  -20.5360   21.3390 C   0  0  0  0  0  3  0  0  0  0  0  0
  -30.7080  -21.5400   22.1400 C   0  0  0  0  0  0  0  0  0  0  0  0
  -29.7840  -22.4910   20.3160 C   0  0  0  0  0  3  0  0  0  0  0  0
  -29.6330  -21.0950   20.2420 N   0  0  0  0  0  0  0  0  0  0  0  0
  -30.4440  -22.6950   21.4670 N   0  0  0  0  0  0  0  0  0  0  0  0
  -30.7020  -23.6130   21.8070 H   0  0  0  0  0  0  0  0  0  0  0  0
  -31.3020  -21.5300   23.5130 C   0  0  0  0  0  2  0  0  0  0  0  0
  -31.1840  -20.1750   24.2310 C   0  0  0  0  0  2  0  0  0  0  0  0
  -30.2060  -20.2680   25.4130 C   0  0  0  0  0  2  0  0  0  0  0  0
  -29.5820  -18.9260   25.8210 C   0  0  0  0  0  2  0  0  0  0  0  0
  -27.8920  -17.8120   27.3780 C   0  0  0  0  0  1  0  0  0  0  0  0
  -28.3780  -19.1250   26.7570 C   0  0  0  0  0  2  0  0  0  0  0  0
  -28.8440  -20.1990   19.2900 C   0  0  0  0  0  2  0  0  0  0  0  0
  -29.1470  -18.5990   18.9930 C   0  0  0  0  0  3  0  0  0  0  0  0
  -29.5920  -17.4270   20.0210 C   0  0  0  0  0  3  0  0  0  0  0  0
  -30.4760  -14.8960   19.4750 C   0  0  0  0  0  0  0  0  0  0  0  0
  -30.3050  -12.5580   18.5890 C   0  0  0  0  0  2  0  0  0  0  0  0
  -29.1610  -12.4990   17.5510 C   0  0  0  0  0  2  0  0  0  0  0  0
  -27.7960  -12.2650   18.2350 C   0  0  0  0  0  2  0  0  0  0  0  0
  -27.5750  -13.1910   19.4600 C   0  0  0  0  0  3  0  0  0  0  0  0
  -28.8160  -13.2080   20.3790 C   0  0  0  0  0  2  0  0  0  0  0  0
  -29.9620  -13.6210   19.5550 N   0  0  0  0  0  0  0  0  0  0  0  0
  -31.6110  -15.0910   19.0330 O   0  0  0  0  0  0  0  0  0  0  0  0
  -29.5750  -15.9240   19.7010 N   0  0  0  0  0  0  0  0  0  0  0  0
  -28.6620  -15.5290   19.8740 H   0  0  0  0  0  0  0  0  0  0  0  0
  -25.3830  -13.7140   20.6910 C   0  0  0  0  0  0  0  0  0  0  0  0
  -24.4070  -12.9070   21.2100 C   0  0  0  0  0  0  0  0  0  0  0  0
  -24.8490  -11.5670   20.9950 C   0  0  0  0  0  0  0  0  0  0  0  0
  -26.3530  -12.8620   20.1890 N   0  0  0  0  0  0  0  0  0  0  0  0
  -26.0520  -11.5600   20.4330 N   0  0  0  0  0  0  0  0  0  0  0  0
  -24.1680  -10.2870   21.2350 C   0  0  0  0  0  0  0  0  0  0  0  0
  -24.6220   -9.3830   22.2200 C   0  0  0  0  0  3  0  0  0  0  0  0
  -23.9390   -8.1690   22.4450 C   0  0  0  0  0  3  0  0  0  0  0  0
  -22.7900   -7.8490   21.6840 C   0  0  0  0  0  0  0  0  0  0  0  0
  -22.3560   -8.7420   20.6880 C   0  0  0  0  0  3  0  0  0  0  0  0
  -23.0400   -9.9480   20.4620 C   0  0  0  0  0  3  0  0  0  0  0  0
  -22.0800   -6.6810   21.8150 O   0  0  0  0  0  0  0  0  0  0  0  0
  -21.8510   -6.1090   23.0410 C   0  0  0  0  0  0  0  0  0  0  0  0
  -21.1030   -6.7670   24.0420 C   0  0  0  0  0  3  0  0  0  0  0  0
  -20.8330   -6.1160   25.2620 C   0  0  0  0  0  3  0  0  0  0  0  0
  -21.3000   -4.8050   25.4800 C   0  0  0  0  0  0  0  0  0  0  0  0
  -22.0400   -4.1470   24.4820 C   0  0  0  0  0  3  0  0  0  0  0  0
  -22.3110   -4.7970   23.2650 C   0  0  0  0  0  0  0  0  0  0  0  0
  -23.0070   -4.1490   22.3000 F   0  0  0  0  0  0  0  0  0  0  0  0
  -21.0350   -4.1780   26.6480 F   0  0  0  0  0  0  0  0  0  0  0  0
  -23.0930  -13.3520   21.7860 C   0  0  0  0  0  0  0  0  0  0  0  0
  -22.5710  -12.6170   22.7610 N   0  0  0  0  0  0  0  0  0  0  0  0
  -22.5430  -14.3820   21.4010 O   0  0  0  0  0  0  0  0  0  0  0  0
  -23.0310  -11.7810   23.0900 H   0  0  0  0  0  0  0  0  0  0  0  0
  -21.6960  -12.8940   23.1850 H   0  0  0  0  0  0  0  0  0  0  0  0
  -25.5090  -15.0970   20.5830 N   0  0  0  0  0  0  0  0  0  0  0  0
  -24.7690  -15.7210   20.8860 H   0  0  0  0  0  0  0  0  0  0  0  0
  -26.2450  -15.5770   20.0820 H   0  0  0  0  0  0  0  0  0  0  0  0
  -29.4280  -23.7820   19.4670 C   0  0  0  0  0  3  0  0  0  0  0  0
  -29.0190  -25.1450   20.2820 C   0  0  0  0  0  3  0  0  0  0  0  0
  -29.0500  -26.5570   19.7550 O   0  0  0  0  0  0  0  0  0  0  0  0
  -24.6520  -31.4210   22.9510 C   0  0  0  0  0  0  0  0  0  0  0  0
  -27.8500  -27.3070   19.7700 C   0  0  0  0  0  0  0  0  0  0  0  0
  -23.6540  -29.9580   21.2310 C   0  0  0  0  0  3  0  0  0  0  0  0
  -25.3070  -28.6470   19.7780 C   0  0  0  0  0  0  0  0  0  0  0  0
  -26.1450  -30.5760   21.1200 C   0  0  0  0  0  2  0  0  0  0  0  0
  -26.4030  -29.2420   20.4190 C   0  0  0  0  0  0  0  0  0  0  0  0
  -27.6770  -28.5850   20.4030 C   0  0  0  0  0  3  0  0  0  0  0  0
  -26.7250  -26.7790   19.1030 C   0  0  0  0  0  3  0  0  0  0  0  0
  -25.4730  -27.4220   19.1130 C   0  0  0  0  0  3  0  0  0  0  0  0
  -23.9730  -29.3660   19.8330 C   0  0  0  0  0  2  0  0  0  0  0  0
  -24.8320  -30.6690   21.8240 N   0  0  0  0  0  0  0  0  0  0  0  0
  -23.5320  -31.5450   23.4710 O   0  0  0  0  0  0  0  0  0  0  0  0
  -23.1020  -28.8310   22.1360 C   0  0  0  0  0  0  0  0  0  0  0  0
  -21.8240  -28.4680   21.9390 N   0  0  0  0  0  0  0  0  0  0  0  0
  -23.8230  -28.2890   22.9770 O   0  0  0  0  0  0  0  0  0  0  0  0
  -21.2920  -28.9680   21.2390 H   0  0  0  0  0  0  0  0  0  0  0  0
  -18.6370  -26.7800   22.2500 C   0  0  0  0  0  0  0  0  0  0  0  0
  -21.1150  -27.4010   22.6500 C   0  0  0  0  0  3  0  0  0  0  0  0
  -21.4490  -26.0150   22.0510 C   0  0  0  0  0  2  0  0  0  0  0  0
  -20.4540  -25.5630   20.9780 C   0  0  0  0  0  2  0  0  0  0  0  0
  -19.0370  -25.4890   21.5550 C   0  0  0  0  0  2  0  0  0  0  0  0
  -19.6110  -27.6840   22.7490 C   0  0  0  0  0  0  0  0  0  0  0  0
  -19.1860  -28.8830   23.3590 C   0  0  0  0  0  3  0  0  0  0  0  0
  -17.8170  -29.1850   23.4780 C   0  0  0  0  0  3  0  0  0  0  0  0
  -16.8550  -28.2810   22.9950 C   0  0  0  0  0  3  0  0  0  0  0  0
  -17.2640  -27.0810   22.3860 C   0  0  0  0  0  3  0  0  0  0  0  0
  -25.8370  -32.1760   23.6270 C   0  0  0  0  0  3  0  0  0  0  0  0
  -26.4280  -31.4130   24.8750 C   0  0  1  0  0  0  0  0  0  0  0  0
  -25.3510  -30.9460   25.8830 C   0  0  0  0  0  1  0  0  0  0  0  0
  -27.2300  -30.1690   24.4290 C   0  0  0  0  0  1  0  0  0  0  0  0
  -27.4280  -32.3300   25.6200 C   0  0  0  0  0  1  0  0  0  0  0  0
  -25.3490  -33.5070   24.0190 N   0  0  0  0  0  0  0  0  0  0  0  0
  -25.5660  -34.6350   23.3290 C   0  0  0  0  0  0  0  0  0  0  0  0
  -26.2650  -34.6720   22.3130 O   0  0  0  0  0  0  0  0  0  0  0  0
  -24.7200  -33.5430   24.8070 H   0  0  0  0  0  0  0  0  0  0  0  0
  -23.6430  -36.2280   23.0170 C   0  0  0  0  0  1  0  0  0  0  0  0
  -24.9000  -35.9260   23.8460 C   0  0  0  0  0  3  0  0  0  0  0  0
  -26.8770  -37.0120   24.8110 C   0  0  0  0  0  1  0  0  0  0  0  0
  -25.7990  -37.1000   23.8290 N   0  0  0  0  0  0  0  0  0  0  0  0
  -25.2800  -37.9560   23.9990 H   0  0  0  0  0  0  0  0  0  0  0  0
  1  2  2  0
  2  7  1  0
  3 54  1  0
  3  5  1  0
  4  3  1  0
  4  1  1  0
  5  6  1  0
  5  2  1  0
  7  8  1  0
  8  9  1  0
  9 10  1  0
 10 12  1  0
 12 11  1  0
 13  4  1  0
 14 13  1  0
 14 15  2  0
 16 22  1  0
 16 24  1  0
 17 22  1  0
 18 19  1  0
 18 17  1  0
 20 19  1  0
 20 29  1  0
 20 21  1  0
 22 21  1  0
 23 16  2  0
 24 25  1  0
 24 15  1  0
 26 27  2  0
 27 46  1  0
 28 27  1  0
 28 31  1  0
 29 30  1  0
 29 26  1  0
 30 28  2  0
 31 32  1  0
 32 33  2  0
 34 37  1  0
 34 33  1  0
 35 34  2  0
 36 35  1  0
 36 31  2  0
 37 38  1  0
 38 43  2  0
 38 39  1  0
 39 40  2  0
 40 41  1  0
 41 45  1  0
 42 41  2  0
 43 42  1  0
 44 43  1  0
 46 47  1  0
 47 49  1  0
 47 50  1  0
 48 46  2  0
 51 26  1  0
 51 52  1  0
 53 51  1  0
 54 55  2  0
 56 58  1  0
 56 55  1  0
 57 68  2  0
 58 63  1  0
 59 67  1  0
 59 69  1  0
 60 66  1  0
 60 62  1  0
 61 67  1  0
 62 61  1  0
 63 62  2  0
 64 65  1  0
 64 58  2  0
 65 60  2  0
 66 59  1  0
 67 57  1  0
 69 71  2  0
 70 69  1  0
 72 70  1  0
 73 82  2  0
 73 78  1  0
 74 70  1  0
 74 78  1  0
 75 74  1  0
 76 77  1  0
 76 75  1  0
 77 73  1  0
 78 79  2  0
 79 80  1  0
 81 80  2  0
 82 81  1  0
 83 57  1  0
 83 88  1  0
 83 84  1  0
 84 87  1  1
 84 85  1  0
 86 84  1  0
 88 91  1  0
 89 93  1  0
 89 88  1  0
 90 89  2  0
 93 92  1  0
 95 93  1  0
 95 96  1  0
 95 94  1  0
M  ISO  4  16 100  24 100  55 101  56 101
M  END
>  <TORSDO>  (82) 
F 26

>  <SCORE>  (82) 
-2.672

>  <name>  (82) 
81

>  <ligand_id>  (82) 
81

>  <original_smiles>  (82) 
[H]c1c([H])c([H])c2c(c1[H])C([H])([H])C([H])([H])C([H])([H])C2([H])N([H])C(=O)C1([H])N(C(=O)C([H])(N([H])C(=O)C([H])(N([H])C([H])([H])[H])C([H])([H])[H])C(C([H])([H])[H])(C([H])([H])[H])C([H])([H])[H])C([H])([H])c2c([H])c(OC([H])([H])C([H])([H])c3n(C([H])([H])C([H])([H])C([H])([H])N([H])C(=O)N4C([H])([H])C([H])([H])C([H])([H])C([H])(n5nc(-c6c([H])c([H])c(Oc7c([H])c([H])c(F)c([H])c7F)c([H])c6[H])c(C(=O)N([H])[H])c5N([H])[H])C4([H])[H])c([H])c(C([H])([H])C([H])([H])C([H])([H])C([H])([H])C([H])([H])C([H])([H])[H])[n+]3[H])c([H])c([H])c2C1([H])[H]

>  <smiles>  (82) 
[H]c1c([H])c([H])c2c(c1[H])C([H])([H])C([H])([H])C([H])([H])C2([H])N([H])C(=O)C1([H])N(C(=O)C([H])(N([H])C(=O)C([H])(N([H])C([H])([H])[H])C([H])([H])[H])C(C([H])([H])[H])(C([H])([H])[H])C([H])([H])[H])C([H])([H])c2c([H])c(OC([H])([H])C([H])([H])c3n(C([H])([H])C([H])([H])C([H])([H])N([H])C(=O)N4C([H])([H])C([H])([H])C([H])([H])C([H])(n5nc(-c6c([H])c([H])c(Oc7c([H])c([H])c(F)c([H])c7F)c([H])c6[H])c(C(=O)N([H])[H])c5N([H])[H])C4([H])[H])c([H])c(C([H])([H])C([H])([H])C([H])([H])C([H])([H])C([H])([H])C([H])([H])[H])[n+]3[H])c([H])c([H])c2C1([H])[H]

$$$$
82:0:0
     RDKit          3D

 96104  0  0  1  0  0  0  0  0999 V2000
  -30.1610  -24.7350   17.7590 C   0  0  0  0  0  3  0  0  0  0  0  0
  -31.1850  -25.8840   19.6520 C   0  0  0  0  0  3  0  0  0  0  0  0
  -30.1540  -25.7860   18.6980 C   0  0  0  0  0  0  0  0  0  0  0  0
  -31.1390  -23.7240   17.8370 C   0  0  0  0  0  0  0  0  0  0  0  0
  -32.1650  -24.8780   19.7400 C   0  0  0  0  0  0  0  0  0  0  0  0
  -32.1060  -23.7680   18.8680 C   0  0  0  0  0  0  0  0  0  0  0  0
  -31.1020  -22.5720   16.8490 C   0  0  0  0  0  1  0  0  0  0  0  0
  -33.2320  -24.9620   20.8160 C   0  0  0  0  0  1  0  0  0  0  0  0
  -29.0150  -26.7800   18.7280 C   0  0  0  0  0  2  0  0  0  0  0  0
  -28.4110  -26.7910   20.0170 O   0  0  0  0  0  0  0  0  0  0  0  0
  -24.6090  -31.8710   23.2140 C   0  0  0  0  0  0  0  0  0  0  0  0
  -27.2390  -27.4910   20.0690 C   0  0  0  0  0  0  0  0  0  0  0  0
  -23.3940  -30.4930   21.5530 C   0  0  0  0  0  3  0  0  0  0  0  0
  -24.8420  -28.9610   20.1190 C   0  0  0  0  0  0  0  0  0  0  0  0
  -25.9180  -30.8470   21.3620 C   0  0  0  0  0  2  0  0  0  0  0  0
  -25.9970  -29.4830   20.7160 C   0  0  0  0  0  0  0  0  0  0  0  0
  -27.1980  -28.7470   20.7030 C   0  0  0  0  0  3  0  0  0  0  0  0
  -26.0690  -26.9590   19.4890 C   0  0  0  0  0  3  0  0  0  0  0  0
  -24.8680  -27.6920   19.5110 C   0  0  0  0  0  3  0  0  0  0  0  0
  -23.6010  -29.8220   20.1690 C   0  0  0  0  0  2  0  0  0  0  0  0
  -24.6580  -31.0840   22.1020 N   0  0  0  0  0  0  0  0  0  0  0  0
  -23.5290  -32.1450   23.7560 O   0  0  0  0  0  0  0  0  0  0  0  0
  -22.7380  -29.4660   22.5020 C   0  0  0  0  0  0  0  0  0  0  0  0
  -21.4110  -29.3020   22.3760 N   0  0  0  0  0  0  0  0  0  0  0  0
  -23.4170  -28.8210   23.3050 O   0  0  0  0  0  0  0  0  0  0  0  0
  -20.9260  -29.8740   21.6990 H   0  0  0  0  0  0  0  0  0  0  0  0
  -18.0260  -28.1370   22.8500 C   0  0  0  0  0  0  0  0  0  0  0  0
  -20.5840  -28.3640   23.1340 C   0  0  0  0  0  3  0  0  0  0  0  0
  -20.6750  -26.9390   22.5430 C   0  0  0  0  0  2  0  0  0  0  0  0
  -19.5730  -26.6380   21.5220 C   0  0  0  0  0  2  0  0  0  0  0  0
  -18.1910  -26.7920   22.1620 C   0  0  0  0  0  2  0  0  0  0  0  0
  -19.1510  -28.8830   23.2920 C   0  0  0  0  0  0  0  0  0  0  0  0
  -18.9440  -30.1440   23.8910 C   0  0  0  0  0  3  0  0  0  0  0  0
  -17.6450  -30.6580   24.0560 C   0  0  0  0  0  3  0  0  0  0  0  0
  -16.5330  -29.9090   23.6330 C   0  0  0  0  0  3  0  0  0  0  0  0
  -16.7250  -28.6510   23.0350 C   0  0  0  0  0  3  0  0  0  0  0  0
  -25.9010  -32.4840   23.8410 C   0  0  0  0  0  3  0  0  0  0  0  0
  -26.4460  -31.6610   25.0720 C   0  0  1  0  0  0  0  0  0  0  0  0
  -25.3750  -31.3710   26.1490 C   0  0  0  0  0  1  0  0  0  0  0  0
  -27.0270  -30.3050   24.6070 C   0  0  0  0  0  1  0  0  0  0  0  0
  -27.6060  -32.4310   25.7470 C   0  0  0  0  0  1  0  0  0  0  0  0
  -25.5890  -33.8640   24.2350 N   0  0  0  0  0  0  0  0  0  0  0  0
  -25.9030  -34.9490   23.5140 C   0  0  0  0  0  0  0  0  0  0  0  0
  -26.5580  -34.8940   22.4700 O   0  0  0  0  0  0  0  0  0  0  0  0
  -25.0060  -33.9810   25.0500 H   0  0  0  0  0  0  0  0  0  0  0  0
  -24.1470  -36.7310   23.2630 C   0  0  0  0  0  1  0  0  0  0  0  0
  -25.4100  -36.3130   24.0350 C   0  0  0  0  0  3  0  0  0  0  0  0
  -27.5590  -37.1790   24.8450 C   0  0  0  0  0  1  0  0  0  0  0  0
  -26.4270  -37.3820   23.9440 N   0  0  0  0  0  0  0  0  0  0  0  0
  -26.0170  -38.2880   24.1530 H   0  0  0  0  0  0  0  0  0  0  0  0
  -32.9090  -22.6850   19.1040 O   0  0  0  0  0  0  0  0  0  0  0  0
  -32.2280  -21.7550   19.9360 C   0  0  0  0  0  2  0  0  0  0  0  0
  -33.1080  -20.5660   20.3130 C   0  0  0  0  0  2  0  0  0  0  0  0
  -32.2850  -19.5660   21.1330 C   0  0  0  0  0  2  0  0  0  0  0  0
  -33.0610  -18.3110   21.5300 C   0  0  0  0  0  2  0  0  0  0  0  0
  -32.1360  -17.2830   22.1900 C   0  0  0  0  0  2  0  0  0  0  0  0
  -32.8700  -15.9820   22.5240 C   0  0  0  0  0  2  0  0  0  0  0  0
  -31.9410  -14.8510   23.0030 C   0  0  0  0  0  2  0  0  0  0  0  0
  -30.8780  -14.2160   20.7940 C   0  0  0  0  0  0  0  0  0  0  0  0
  -30.4000  -12.2840   19.3570 C   0  0  0  0  0  2  0  0  0  0  0  0
  -29.4610  -12.5390   18.1710 C   0  0  0  0  0  2  0  0  0  0  0  0
  -27.9960  -12.3780   18.6070 C   0  0  0  0  0  2  0  0  0  0  0  0
  -27.6630  -13.2040   19.8740 C   0  0  0  0  0  3  0  0  0  0  0  0
  -28.7040  -12.9660   20.9910 C   0  0  0  0  0  2  0  0  0  0  0  0
  -30.0550  -13.2020   20.4490 N   0  0  0  0  0  0  0  0  0  0  0  0
  -31.7660  -14.6510   20.0550 O   0  0  0  0  0  0  0  0  0  0  0  0
  -30.8360  -14.4760   22.1100 N   0  0  0  0  0  0  0  0  0  0  0  0
  -30.0460  -14.0540   22.5770 H   0  0  0  0  0  0  0  0  0  0  0  0
  -25.2590  -13.8170   20.5680 C   0  0  0  0  0  0  0  0  0  0  0  0
  -24.1830  -13.0450   20.9160 C   0  0  0  0  0  0  0  0  0  0  0  0
  -24.6380  -11.6910   20.8720 C   0  0  0  0  0  0  0  0  0  0  0  0
  -26.3030  -12.9340   20.3390 N   0  0  0  0  0  0  0  0  0  0  0  0
  -25.9310  -11.6490   20.5770 N   0  0  0  0  0  0  0  0  0  0  0  0
  -23.9050  -10.4300   21.0390 C   0  0  0  0  0  0  0  0  0  0  0  0
  -24.3610   -9.4220   21.9170 C   0  0  0  0  0  3  0  0  0  0  0  0
  -23.6280   -8.2250   22.0750 C   0  0  0  0  0  3  0  0  0  0  0  0
  -22.4260   -8.0280   21.3550 C   0  0  0  0  0  0  0  0  0  0  0  0
  -21.9890   -9.0250   20.4650 C   0  0  0  0  0  3  0  0  0  0  0  0
  -22.7220  -10.2130   20.3050 C   0  0  0  0  0  3  0  0  0  0  0  0
  -21.6630   -6.8870   21.4240 O   0  0  0  0  0  0  0  0  0  0  0  0
  -21.6850   -6.0740   22.5280 C   0  0  0  0  0  0  0  0  0  0  0  0
  -21.4010   -6.5650   23.8210 C   0  0  0  0  0  3  0  0  0  0  0  0
  -21.3660   -5.6800   24.9170 C   0  0  0  0  0  3  0  0  0  0  0  0
  -21.6040   -4.3060   24.7220 C   0  0  0  0  0  0  0  0  0  0  0  0
  -21.8820   -3.8150   23.4340 C   0  0  0  0  0  3  0  0  0  0  0  0
  -21.9190   -4.6970   22.3400 C   0  0  0  0  0  0  0  0  0  0  0  0
  -22.1660   -4.2150   21.0980 F   0  0  0  0  0  0  0  0  0  0  0  0
  -21.5630   -3.4540   25.7730 F   0  0  0  0  0  0  0  0  0  0  0  0
  -22.7860  -13.5240   21.1840 C   0  0  0  0  0  0  0  0  0  0  0  0
  -22.0510  -12.8230   22.0400 N   0  0  0  0  0  0  0  0  0  0  0  0
  -22.3540  -14.5560   20.6720 O   0  0  0  0  0  0  0  0  0  0  0  0
  -22.4130  -11.9870   22.4760 H   0  0  0  0  0  0  0  0  0  0  0  0
  -21.1130  -13.1250   22.2650 H   0  0  0  0  0  0  0  0  0  0  0  0
  -25.4340  -15.1880   20.4090 N   0  0  0  0  0  0  0  0  0  0  0  0
  -24.6750  -15.8520   20.5200 H   0  0  0  0  0  0  0  0  0  0  0  0
  -26.3010  -15.6230   20.1190 H   0  0  0  0  0  0  0  0  0  0  0  0
  1  4  2  0
  1  3  1  0
  2  5  1  0
  3  9  1  0
  3  2  2  0
  4  6  1  0
  5  8  1  0
  6 51  1  0
  6  5  2  0
  7  4  1  0
  9 10  1  0
 10 12  1  0
 11 22  2  0
 12 17  1  0
 13 21  1  0
 13 23  1  0
 14 20  1  0
 14 16  1  0
 15 21  1  0
 16 15  1  0
 17 16  2  0
 18 19  1  0
 18 12  2  0
 19 14  2  0
 20 13  1  0
 21 11  1  0
 23 25  2  0
 24 23  1  0
 26 24  1  0
 27 36  2  0
 27 32  1  0
 28 24  1  0
 28 32  1  0
 29 28  1  0
 30 31  1  0
 30 29  1  0
 31 27  1  0
 32 33  2  0
 33 34  1  0
 35 34  2  0
 36 35  1  0
 37 11  1  0
 37 42  1  0
 37 38  1  0
 38 41  1  1
 38 39  1  0
 40 38  1  0
 42 45  1  0
 43 47  1  0
 43 42  1  0
 44 43  2  0
 47 46  1  0
 49 47  1  0
 49 50  1  0
 49 48  1  0
 51 52  1  0
 52 53  1  0
 53 54  1  0
 54 55  1  0
 55 56  1  0
 56 57  1  0
 57 58  1  0
 59 67  1  0
 60 65  1  0
 61 62  1  0
 61 60  1  0
 63 62  1  0
 63 72  1  0
 63 64  1  0
 65 59  1  0
 65 64  1  0
 66 59  2  0
 67 68  1  0
 67 58  1  0
 69 70  2  0
 70 89  1  0
 71 70  1  0
 71 74  1  0
 72 69  1  0
 72 73  1  0
 73 71  2  0
 74 75  1  0
 75 76  2  0
 77 80  1  0
 77 76  1  0
 78 77  2  0
 79 78  1  0
 79 74  2  0
 80 81  1  0
 81 82  1  0
 82 83  2  0
 84 83  1  0
 84 88  1  0
 85 84  2  0
 86 81  2  0
 86 85  1  0
 87 86  1  0
 89 90  1  0
 90 93  1  0
 90 92  1  0
 91 89  2  0
 94 95  1  0
 94 69  1  0
 96 94  1  0
M  ISO  4   9 101  10 101  59 100  67 100
M  END
>  <TORSDO>  (83) 
F 25

>  <SCORE>  (83) 
-2.632

>  <name>  (83) 
82

>  <ligand_id>  (83) 
82

>  <original_smiles>  (83) 
[H]c1c([H])c([H])c2c(c1[H])C([H])([H])C([H])([H])C([H])([H])C2([H])N([H])C(=O)C1([H])N(C(=O)C([H])(N([H])C(=O)C([H])(N([H])C([H])([H])[H])C([H])([H])[H])C(C([H])([H])[H])(C([H])([H])[H])C([H])([H])[H])C([H])([H])c2c([H])c(OC([H])([H])c3c([H])c(C([H])([H])[H])c(OC([H])([H])C([H])([H])C([H])([H])C([H])([H])C([H])([H])C([H])([H])C([H])([H])N([H])C(=O)N4C([H])([H])C([H])([H])C([H])([H])C([H])(n5nc(-c6c([H])c([H])c(Oc7c([H])c([H])c(F)c([H])c7F)c([H])c6[H])c(C(=O)N([H])[H])c5N([H])[H])C4([H])[H])c(C([H])([H])[H])c3[H])c([H])c([H])c2C1([H])[H]

>  <smiles>  (83) 
[H]c1c([H])c([H])c2c(c1[H])C([H])([H])C([H])([H])C([H])([H])C2([H])N([H])C(=O)C1([H])N(C(=O)C([H])(N([H])C(=O)C([H])(N([H])C([H])([H])[H])C([H])([H])[H])C(C([H])([H])[H])(C([H])([H])[H])C([H])([H])[H])C([H])([H])c2c([H])c(OC([H])([H])c3c([H])c(C([H])([H])[H])c(OC([H])([H])C([H])([H])C([H])([H])C([H])([H])C([H])([H])C([H])([H])C([H])([H])N([H])C(=O)N4C([H])([H])C([H])([H])C([H])([H])C([H])(n5nc(-c6c([H])c([H])c(Oc7c([H])c([H])c(F)c([H])c7F)c([H])c6[H])c(C(=O)N([H])[H])c5N([H])[H])C4([H])[H])c(C([H])([H])[H])c3[H])c([H])c([H])c2C1([H])[H]

$$$$
83:0:0
     RDKit          3D

 93102  0  0  1  0  0  0  0  0999 V2000
  -29.7180  -21.6350   20.7230 C   0  0  0  0  0  3  0  0  0  0  0  0
  -28.6920  -22.5070   20.3490 C   0  0  0  0  0  0  0  0  0  0  0  0
  -28.0730  -20.4080   19.8180 C   0  0  0  0  0  3  0  0  0  0  0  0
  -27.9380  -18.0480   19.6830 C   0  0  0  0  0  3  0  0  0  0  0  0
  -29.8880  -19.1180   20.6190 C   0  0  0  0  0  3  0  0  0  0  0  0
  -27.3600  -19.2820   19.4380 C   0  0  0  0  0  0  0  0  0  0  0  0
  -29.2270  -17.9240   20.2890 C   0  0  0  0  0  0  0  0  0  0  0  0
  -25.9710  -19.3860   18.8360 C   0  0  0  0  0  1  0  0  0  0  0  0
  -29.2630  -20.3540   20.3800 N   0  0  0  0  0  0  0  0  0  0  0  0
  -27.7100  -21.6950   19.7560 N   0  0  0  0  0  0  0  0  0  0  0  0
  -26.8220  -22.0250   19.3950 H   0  0  0  0  0  0  0  0  0  0  0  0
  -28.5650  -24.0230   20.6720 C   0  0  0  0  0  3  0  0  0  0  0  0
  -28.5700  -25.0760   19.5010 C   0  0  0  0  0  3  0  0  0  0  0  0
  -28.5140  -26.5000   19.8940 O   0  0  0  0  0  0  0  0  0  0  0  0
  -24.5820  -31.6400   23.0210 C   0  0  0  0  0  0  0  0  0  0  0  0
  -27.3320  -27.2530   19.8590 C   0  0  0  0  0  0  0  0  0  0  0  0
  -23.4210  -30.2590   21.3370 C   0  0  0  0  0  3  0  0  0  0  0  0
  -24.9160  -28.7810   19.8870 C   0  0  0  0  0  0  0  0  0  0  0  0
  -25.9490  -30.6560   21.1700 C   0  0  0  0  0  2  0  0  0  0  0  0
  -26.0670  -29.2950   20.4920 C   0  0  0  0  0  0  0  0  0  0  0  0
  -27.2750  -28.5420   20.4670 C   0  0  0  0  0  3  0  0  0  0  0  0
  -26.1550  -26.7900   19.2250 C   0  0  0  0  0  3  0  0  0  0  0  0
  -24.9600  -27.5340   19.2460 C   0  0  0  0  0  3  0  0  0  0  0  0
  -23.6570  -29.6190   19.9430 C   0  0  0  0  0  2  0  0  0  0  0  0
  -24.6690  -30.8670   21.9010 N   0  0  0  0  0  0  0  0  0  0  0  0
  -23.4900  -31.8750   23.5560 O   0  0  0  0  0  0  0  0  0  0  0  0
  -22.7800  -29.2010   22.2670 C   0  0  0  0  0  0  0  0  0  0  0  0
  -21.4520  -29.0200   22.1530 N   0  0  0  0  0  0  0  0  0  0  0  0
  -23.4780  -28.5470   23.0480 O   0  0  0  0  0  0  0  0  0  0  0  0
  -20.9510  -29.6010   21.4930 H   0  0  0  0  0  0  0  0  0  0  0  0
  -18.0930  -27.7910   22.6580 C   0  0  0  0  0  0  0  0  0  0  0  0
  -20.6530  -28.0420   22.8950 C   0  0  0  0  0  3  0  0  0  0  0  0
  -20.7430  -26.6410   22.2480 C   0  0  0  0  0  2  0  0  0  0  0  0
  -19.6220  -26.3610   21.2440 C   0  0  0  0  0  2  0  0  0  0  0  0
  -18.2540  -26.4750   21.9160 C   0  0  0  0  0  2  0  0  0  0  0  0
  -19.2170  -28.5310   23.1080 C   0  0  0  0  0  0  0  0  0  0  0  0
  -19.0060  -29.7580   23.7740 C   0  0  0  0  0  3  0  0  0  0  0  0
  -17.7030  -30.2500   23.9870 C   0  0  0  0  0  3  0  0  0  0  0  0
  -16.5950  -29.5080   23.5450 C   0  0  0  0  0  3  0  0  0  0  0  0
  -16.7890  -28.2810   22.8890 C   0  0  0  0  0  3  0  0  0  0  0  0
  -25.8450  -32.2870   23.6660 C   0  0  0  0  0  3  0  0  0  0  0  0
  -26.3840  -31.4840   24.9120 C   0  0  1  0  0  0  0  0  0  0  0  0
  -25.3010  -31.1780   25.9730 C   0  0  0  0  0  1  0  0  0  0  0  0
  -27.0020  -30.1370   24.4690 C   0  0  0  0  0  1  0  0  0  0  0  0
  -27.5160  -32.2840   25.6000 C   0  0  0  0  0  1  0  0  0  0  0  0
  -25.4930  -33.6610   24.0470 N   0  0  0  0  0  0  0  0  0  0  0  0
  -25.7950  -34.7500   23.3280 C   0  0  0  0  0  0  0  0  0  0  0  0
  -26.4670  -34.7030   22.2930 O   0  0  0  0  0  0  0  0  0  0  0  0
  -24.8920  -33.7700   24.8510 H   0  0  0  0  0  0  0  0  0  0  0  0
  -24.0100  -36.4980   23.0380 C   0  0  0  0  0  1  0  0  0  0  0  0
  -25.2660  -36.1060   23.8340 C   0  0  0  0  0  3  0  0  0  0  0  0
  -27.3790  -37.0260   24.6820 C   0  0  0  0  0  1  0  0  0  0  0  0
  -26.2660  -37.1950   23.7520 N   0  0  0  0  0  0  0  0  0  0  0  0
  -25.8340  -38.0970   23.9310 H   0  0  0  0  0  0  0  0  0  0  0  0
  -29.7230  -16.4840   20.6770 C   0  0  0  0  0  2  0  0  0  0  0  0
  -31.0060  -14.4490   19.7670 C   0  0  0  0  0  0  0  0  0  0  0  0
  -30.6820  -12.1250   18.9500 C   0  0  0  0  0  2  0  0  0  0  0  0
  -29.6850  -12.1610   17.7730 C   0  0  0  0  0  2  0  0  0  0  0  0
  -28.2330  -12.0890   18.2870 C   0  0  0  0  0  2  0  0  0  0  0  0
  -27.9550  -13.0780   19.4530 C   0  0  0  0  0  3  0  0  0  0  0  0
  -29.0670  -13.0170   20.5230 C   0  0  0  0  0  2  0  0  0  0  0  0
  -30.3370  -13.2570   19.8360 N   0  0  0  0  0  0  0  0  0  0  0  0
  -32.1730  -14.4940   19.3750 O   0  0  0  0  0  0  0  0  0  0  0  0
  -30.2570  -15.5850   19.6170 N   0  0  0  0  0  0  0  0  0  0  0  0
  -30.6570  -16.1430   18.8760 H   0  0  0  0  0  0  0  0  0  0  0  0
  -25.6670  -13.8080   20.3580 C   0  0  0  0  0  0  0  0  0  0  0  0
  -24.5830  -13.0970   20.7920 C   0  0  0  0  0  0  0  0  0  0  0  0
  -24.9510  -11.7200   20.7060 C   0  0  0  0  0  0  0  0  0  0  0  0
  -26.6320  -12.8680   20.0320 N   0  0  0  0  0  0  0  0  0  0  0  0
  -26.2110  -11.6060   20.3030 N   0  0  0  0  0  0  0  0  0  0  0  0
  -24.1570  -10.5030   20.9200 C   0  0  0  0  0  0  0  0  0  0  0  0
  -24.5890   -9.4830   21.7970 C   0  0  0  0  0  3  0  0  0  0  0  0
  -23.7970   -8.3310   22.0000 C   0  0  0  0  0  3  0  0  0  0  0  0
  -22.5590   -8.1940   21.3310 C   0  0  0  0  0  0  0  0  0  0  0  0
  -22.1440   -9.2020   20.4430 C   0  0  0  0  0  3  0  0  0  0  0  0
  -22.9350  -10.3440   20.2360 C   0  0  0  0  0  3  0  0  0  0  0  0
  -21.7370   -7.0980   21.4500 O   0  0  0  0  0  0  0  0  0  0  0  0
  -21.7190   -6.3330   22.5890 C   0  0  0  0  0  0  0  0  0  0  0  0
  -21.4380   -6.8900   23.8550 C   0  0  0  0  0  3  0  0  0  0  0  0
  -21.3590   -6.0580   24.9900 C   0  0  0  0  0  3  0  0  0  0  0  0
  -21.5550   -4.6700   24.8610 C   0  0  0  0  0  0  0  0  0  0  0  0
  -21.8320   -4.1120   23.6020 C   0  0  0  0  0  3  0  0  0  0  0  0
  -21.9110   -4.9410   22.4680 C   0  0  0  0  0  0  0  0  0  0  0  0
  -22.1550   -4.3950   21.2520 F   0  0  0  0  0  0  0  0  0  0  0  0
  -21.4730   -3.8690   25.9490 F   0  0  0  0  0  0  0  0  0  0  0  0
  -23.2420  -13.6600   21.1630 C   0  0  0  0  0  0  0  0  0  0  0  0
  -22.5320  -13.0030   22.0730 N   0  0  0  0  0  0  0  0  0  0  0  0
  -22.8370  -14.7180   20.6840 O   0  0  0  0  0  0  0  0  0  0  0  0
  -22.8740  -12.1490   22.4850 H   0  0  0  0  0  0  0  0  0  0  0  0
  -21.6350  -13.3640   22.3650 H   0  0  0  0  0  0  0  0  0  0  0  0
  -25.9060  -15.1660   20.1750 N   0  0  0  0  0  0  0  0  0  0  0  0
  -25.0940  -15.7720   20.1480 H   0  0  0  0  0  0  0  0  0  0  0  0
  -26.6260  -15.4410   19.5200 H   0  0  0  0  0  0  0  0  0  0  0  0
  2 12  1  0
  2  1  2  0
  3  6  1  0
  3  9  1  0
  4  7  1  0
  6  4  2  0
  7  5  2  0
  7 55  1  0
  8  6  1  0
  9  5  1  0
  9  1  1  0
 10  3  1  0
 10  2  1  0
 11 10  1  0
 13 14  1  0
 13 12  2  0
 15 26  2  0
 16 14  1  0
 16 21  1  0
 17 25  1  0
 17 27  1  0
 18 24  1  0
 18 20  1  0
 19 25  1  0
 20 19  1  0
 21 20  2  0
 22 23  1  0
 22 16  2  0
 23 18  2  0
 24 17  1  0
 25 15  1  0
 27 29  2  0
 28 27  1  0
 30 28  1  0
 31 40  2  0
 31 36  1  0
 32 28  1  0
 32 36  1  0
 33 32  1  0
 34 35  1  0
 34 33  1  0
 35 31  1  0
 36 37  2  0
 37 38  1  0
 39 38  2  0
 40 39  1  0
 41 15  1  0
 41 46  1  0
 41 42  1  0
 42 45  1  1
 42 43  1  0
 44 42  1  0
 46 49  1  0
 47 51  1  0
 47 46  1  0
 48 47  2  0
 51 50  1  0
 53 51  1  0
 53 54  1  0
 53 52  1  0
 56 62  1  0
 57 62  1  0
 58 59  1  0
 58 57  1  0
 60 59  1  0
 60 69  1  0
 60 61  1  0
 62 61  1  0
 63 56  2  0
 64 56  1  0
 64 55  1  0
 65 64  1  0
 66 67  2  0
 67 86  1  0
 68 67  1  0
 68 71  1  0
 69 70  1  0
 69 66  1  0
 70 68  2  0
 71 72  1  0
 72 73  2  0
 74 77  1  0
 74 73  1  0
 75 74  2  0
 76 75  1  0
 76 71  2  0
 77 78  1  0
 78 79  1  0
 79 80  2  0
 81 80  1  0
 81 85  1  0
 82 81  2  0
 83 78  2  0
 83 82  1  0
 84 83  1  0
 86 87  1  0
 87 90  1  0
 87 89  1  0
 88 86  2  0
 91 66  1  0
 92 91  1  0
 93 91  1  0
M  ISO  4  13 101  14 101  56 100  64 100
M  END
>  <TORSDO>  (84) 
F 19

>  <SCORE>  (84) 
-13.509

>  <name>  (84) 
83

>  <ligand_id>  (84) 
83

>  <original_smiles>  (84) 
[H]c1c([H])c([H])c2c(c1[H])C([H])([H])C([H])([H])C([H])([H])C2([H])N([H])C(=O)C1([H])N(C(=O)C([H])(N([H])C(=O)C([H])(N([H])C([H])([H])[H])C([H])([H])[H])C(C([H])([H])[H])(C([H])([H])[H])C([H])([H])[H])C([H])([H])c2c([H])c(OC([H])([H])C([H])([H])c3c([H])n4c([H])c(C([H])([H])N([H])C(=O)N5C([H])([H])C([H])([H])C([H])([H])C([H])(n6nc(-c7c([H])c([H])c(Oc8c([H])c([H])c(F)c([H])c8F)c([H])c7[H])c(C(=O)N([H])[H])c6N([H])[H])C5([H])[H])c([H])c(C([H])([H])[H])c4[n+]3[H])c([H])c([H])c2C1([H])[H]

>  <smiles>  (84) 
[H]c1c([H])c([H])c2c(c1[H])C([H])([H])C([H])([H])C([H])([H])C2([H])N([H])C(=O)C1([H])N(C(=O)C([H])(N([H])C(=O)C([H])(N([H])C([H])([H])[H])C([H])([H])[H])C(C([H])([H])[H])(C([H])([H])[H])C([H])([H])[H])C([H])([H])c2c([H])c(OC([H])([H])C([H])([H])c3c([H])n4c([H])c(C([H])([H])N([H])C(=O)N5C([H])([H])C([H])([H])C([H])([H])C([H])(n6nc(-c7c([H])c([H])c(Oc8c([H])c([H])c(F)c([H])c8F)c([H])c7[H])c(C(=O)N([H])[H])c6N([H])[H])C5([H])[H])c([H])c(C([H])([H])[H])c4[n+]3[H])c([H])c([H])c2C1([H])[H]

$$$$
84:0:0
     RDKit          3D

 89 97  0  0  1  0  0  0  0  0999 V2000
  -30.8000  -20.6740   21.1250 C   0  0  0  0  0  3  0  0  0  0  0  0
  -31.2480  -18.2520   21.1600 C   0  0  0  0  0  3  0  0  0  0  0  0
  -31.6500  -19.5830   21.3980 C   0  0  0  0  0  0  0  0  0  0  0  0
  -29.5120  -20.4600   20.6080 C   0  0  0  0  0  0  0  0  0  0  0  0
  -29.9720  -17.9740   20.6410 C   0  0  0  0  0  0  0  0  0  0  0  0
  -29.1320  -19.1050   20.3930 N   0  0  0  0  0  0  0  0  0  0  0  0
  -32.8870  -19.8190   21.8960 F   0  0  0  0  0  0  0  0  0  0  0  0
  -29.0640  -16.4620   18.8430 C   0  0  0  0  0  1  0  0  0  0  0  0
  -29.5220  -16.4140   20.3170 C   0  0  0  0  0  3  0  0  0  0  0  0
  -30.4330  -15.0090   20.4520 C   0  0  0  0  0  0  0  0  0  0  0  0
  -30.3730  -12.6380   19.5640 C   0  0  0  0  0  2  0  0  0  0  0  0
  -29.4610  -12.5910   18.3120 C   0  0  0  0  0  2  0  0  0  0  0  0
  -27.9840  -12.3930   18.7090 C   0  0  0  0  0  2  0  0  0  0  0  0
  -27.5510  -13.3020   19.8890 C   0  0  0  0  0  3  0  0  0  0  0  0
  -28.5910  -13.3170   21.0270 C   0  0  0  0  0  2  0  0  0  0  0  0
  -29.8810  -13.7260   20.4560 N   0  0  0  0  0  0  0  0  0  0  0  0
  -31.6550  -15.0660   20.2650 O   0  0  0  0  0  0  0  0  0  0  0  0
  -25.1540  -13.8650   20.5840 C   0  0  0  0  0  0  0  0  0  0  0  0
  -24.0890  -13.0820   20.9350 C   0  0  0  0  0  0  0  0  0  0  0  0
  -24.5670  -11.7350   20.9160 C   0  0  0  0  0  0  0  0  0  0  0  0
  -26.2080  -12.9940   20.3660 N   0  0  0  0  0  0  0  0  0  0  0  0
  -25.8630  -11.7090   20.6310 N   0  0  0  0  0  0  0  0  0  0  0  0
  -23.8460  -10.4680   21.0920 C   0  0  0  0  0  0  0  0  0  0  0  0
  -24.2720   -9.5030   22.0320 C   0  0  0  0  0  3  0  0  0  0  0  0
  -23.5510   -8.3000   22.1980 C   0  0  0  0  0  3  0  0  0  0  0  0
  -22.3920   -8.0550   21.4230 C   0  0  0  0  0  0  0  0  0  0  0  0
  -21.9880   -9.0080   20.4730 C   0  0  0  0  0  3  0  0  0  0  0  0
  -22.7090  -10.2030   20.3050 C   0  0  0  0  0  3  0  0  0  0  0  0
  -21.6450   -6.9040   21.4980 O   0  0  0  0  0  0  0  0  0  0  0  0
  -21.5860   -6.1580   22.6480 C   0  0  0  0  0  0  0  0  0  0  0  0
  -21.1270   -6.7030   23.8660 C   0  0  0  0  0  3  0  0  0  0  0  0
  -21.0160   -5.8820   25.0070 C   0  0  0  0  0  3  0  0  0  0  0  0
  -21.3530   -4.5180   24.9290 C   0  0  0  0  0  0  0  0  0  0  0  0
  -21.8060   -3.9730   23.7150 C   0  0  0  0  0  3  0  0  0  0  0  0
  -21.9180   -4.7900   22.5760 C   0  0  0  0  0  0  0  0  0  0  0  0
  -22.3340   -4.2550   21.4030 F   0  0  0  0  0  0  0  0  0  0  0  0
  -21.2400   -3.7280   26.0220 F   0  0  0  0  0  0  0  0  0  0  0  0
  -22.6830  -13.5490   21.1750 C   0  0  0  0  0  0  0  0  0  0  0  0
  -21.9430  -12.8490   22.0280 N   0  0  0  0  0  0  0  0  0  0  0  0
  -22.2470  -14.5680   20.6410 O   0  0  0  0  0  0  0  0  0  0  0  0
  -22.3080  -12.0240   22.4820 H   0  0  0  0  0  0  0  0  0  0  0  0
  -20.9990  -13.1430   22.2310 H   0  0  0  0  0  0  0  0  0  0  0  0
  -25.3090  -15.2380   20.4090 N   0  0  0  0  0  0  0  0  0  0  0  0
  -24.5320  -15.8820   20.5060 H   0  0  0  0  0  0  0  0  0  0  0  0
  -26.1560  -15.6880   20.0900 H   0  0  0  0  0  0  0  0  0  0  0  0
  -28.5610  -21.7660   20.2920 C   0  0  0  0  0  2  0  0  0  0  0  0
  -28.9610  -23.3900   20.5330 C   0  0  0  0  0  3  0  0  0  0  0  0
  -27.9550  -24.7000   20.1940 C   0  0  0  0  0  3  0  0  0  0  0  0
  -28.2250  -26.2220   20.3870 O   0  0  0  0  0  0  0  0  0  0  0  0
  -24.6040  -31.9390   23.2910 C   0  0  0  0  0  0  0  0  0  0  0  0
  -27.1720  -27.2020   20.3000 C   0  0  0  0  0  0  0  0  0  0  0  0
  -23.4030  -30.5420   21.6530 C   0  0  0  0  0  3  0  0  0  0  0  0
  -24.8500  -28.9540   20.2430 C   0  0  0  0  0  0  0  0  0  0  0  0
  -25.9590  -30.7940   21.4990 C   0  0  0  0  0  2  0  0  0  0  0  0
  -26.0280  -29.3990   20.8550 C   0  0  0  0  0  0  0  0  0  0  0  0
  -27.1890  -28.5400   20.8660 C   0  0  0  0  0  3  0  0  0  0  0  0
  -25.9660  -26.8570   19.6480 C   0  0  0  0  0  3  0  0  0  0  0  0
  -24.8310  -27.6950   19.6230 C   0  0  0  0  0  3  0  0  0  0  0  0
  -23.6270  -29.8570   20.2790 C   0  0  0  0  0  2  0  0  0  0  0  0
  -24.6750  -31.1130   22.2020 N   0  0  0  0  0  0  0  0  0  0  0  0
  -23.5170  -32.2330   23.8120 O   0  0  0  0  0  0  0  0  0  0  0  0
  -22.7130  -29.5450   22.6160 C   0  0  0  0  0  0  0  0  0  0  0  0
  -21.3860  -29.3780   22.4790 N   0  0  0  0  0  0  0  0  0  0  0  0
  -23.3750  -28.9230   23.4510 O   0  0  0  0  0  0  0  0  0  0  0  0
  -20.9090  -29.9310   21.7810 H   0  0  0  0  0  0  0  0  0  0  0  0
  -17.9950  -28.1950   22.9590 C   0  0  0  0  0  0  0  0  0  0  0  0
  -20.5530  -28.4510   23.2500 C   0  0  0  0  0  3  0  0  0  0  0  0
  -20.6550  -27.0120   22.6900 C   0  0  0  0  0  2  0  0  0  0  0  0
  -19.5630  -26.6840   21.6670 C   0  0  0  0  0  2  0  0  0  0  0  0
  -18.1750  -26.8380   22.2950 C   0  0  0  0  0  2  0  0  0  0  0  0
  -19.1120  -28.9580   23.3930 C   0  0  0  0  0  0  0  0  0  0  0  0
  -18.8900  -30.2250   23.9730 C   0  0  0  0  0  3  0  0  0  0  0  0
  -17.5840  -30.7290   24.1240 C   0  0  0  0  0  3  0  0  0  0  0  0
  -16.4830  -29.9630   23.7060 C   0  0  0  0  0  3  0  0  0  0  0  0
  -16.6890  -28.6970   23.1290 C   0  0  0  0  0  3  0  0  0  0  0  0
  -25.8820  -32.5700   23.9220 C   0  0  0  0  0  3  0  0  0  0  0  0
  -26.3740  -31.8110   25.2160 C   0  0  1  0  0  0  0  0  0  0  0  0
  -25.2640  -31.6010   26.2740 C   0  0  0  0  0  1  0  0  0  0  0  0
  -26.9460  -30.4210   24.8570 C   0  0  0  0  0  1  0  0  0  0  0  0
  -27.5240  -32.6010   25.8820 C   0  0  0  0  0  1  0  0  0  0  0  0
  -25.5810  -33.9750   24.2350 N   0  0  0  0  0  0  0  0  0  0  0  0
  -25.9130  -35.0190   23.4630 C   0  0  0  0  0  0  0  0  0  0  0  0
  -26.5720  -34.8990   22.4270 O   0  0  0  0  0  0  0  0  0  0  0  0
  -24.9940  -34.1420   25.0400 H   0  0  0  0  0  0  0  0  0  0  0  0
  -24.1860  -36.8180   23.1190 C   0  0  0  0  0  1  0  0  0  0  0  0
  -25.4410  -36.4160   23.9120 C   0  0  0  0  0  3  0  0  0  0  0  0
  -27.5940  -37.3070   24.6910 C   0  0  0  0  0  1  0  0  0  0  0  0
  -26.4770  -37.4630   23.7630 N   0  0  0  0  0  0  0  0  0  0  0  0
  -26.0760  -38.3870   23.9000 H   0  0  0  0  0  0  0  0  0  0  0  0
  1  3  1  0
  2  3  2  0
  3  7  1  0
  4  1  2  0
  5  2  1  0
  6  4  1  0
  6  5  2  0
  9  8  1  0
  9 10  1  0
  9  5  1  0
 10 16  1  0
 11 16  1  0
 12 13  1  0
 12 11  1  0
 14 13  1  0
 14 21  1  0
 14 15  1  0
 16 15  1  0
 17 10  2  0
 18 19  2  0
 19 38  1  0
 20 19  1  0
 20 23  1  0
 21 18  1  0
 21 22  1  0
 22 20  2  0
 23 24  1  0
 24 25  2  0
 26 29  1  0
 26 25  1  0
 27 26  2  0
 28 27  1  0
 28 23  2  0
 29 30  1  0
 30 31  1  0
 31 32  2  0
 33 32  1  0
 33 37  1  0
 34 33  2  0
 35 30  2  0
 35 34  1  0
 36 35  1  0
 38 39  1  0
 39 42  1  0
 39 41  1  0
 40 38  2  0
 43 44  1  0
 43 18  1  0
 45 43  1  0
 46 47  1  0
 46  4  1  0
 48 49  1  0
 48 47  2  0
 50 61  2  0
 51 49  1  0
 51 56  1  0
 52 60  1  0
 52 62  1  0
 53 59  1  0
 53 55  1  0
 54 60  1  0
 55 56  2  0
 55 54  1  0
 57 51  2  0
 58 57  1  0
 58 53  2  0
 59 52  1  0
 60 50  1  0
 62 64  2  0
 63 62  1  0
 65 63  1  0
 66 75  2  0
 66 71  1  0
 67 63  1  0
 67 71  1  0
 68 67  1  0
 69 70  1  0
 69 68  1  0
 70 66  1  0
 71 72  2  0
 72 73  1  0
 74 73  2  0
 75 74  1  0
 76 50  1  0
 76 81  1  0
 76 77  1  0
 77 80  1  1
 77 78  1  0
 79 77  1  0
 81 84  1  0
 82 86  1  0
 82 81  1  0
 83 82  2  0
 86 85  1  0
 88 89  1  0
 88 86  1  0
 88 87  1  0
M  ISO  4   9 100  10 100  48 101  49 101
M  END
>  <TORSDO>  (85) 
F 20

>  <SCORE>  (85) 
-13.888

>  <name>  (85) 
84

>  <ligand_id>  (85) 
84

>  <original_smiles>  (85) 
[H]c1c([H])c([H])c2c(c1[H])C([H])([H])C([H])([H])C([H])([H])C2([H])N([H])C(=O)C1([H])N(C(=O)C([H])(N([H])C(=O)C([H])(N([H])C([H])([H])[H])C([H])([H])[H])C(C([H])([H])[H])(C([H])([H])[H])C([H])([H])[H])C([H])([H])c2c([H])c(OC([H])([H])C([H])([H])C([H])([H])c3nc(C([H])(C(=O)N4C([H])([H])C([H])([H])C([H])([H])C([H])(n5nc(-c6c([H])c([H])c(Oc7c([H])c([H])c(F)c([H])c7F)c([H])c6[H])c(C(=O)N([H])[H])c5N([H])[H])C4([H])[H])C([H])([H])[H])c([H])c(F)c3[H])c([H])c([H])c2C1([H])[H]

>  <smiles>  (85) 
[H]c1c([H])c([H])c2c(c1[H])C([H])([H])C([H])([H])C([H])([H])C2([H])N([H])C(=O)C1([H])N(C(=O)C([H])(N([H])C(=O)C([H])(N([H])C([H])([H])[H])C([H])([H])[H])C(C([H])([H])[H])(C([H])([H])[H])C([H])([H])[H])C([H])([H])c2c([H])c(OC([H])([H])C([H])([H])C([H])([H])c3nc(C([H])(C(=O)N4C([H])([H])C([H])([H])C([H])([H])C([H])(n5nc(-c6c([H])c([H])c(Oc7c([H])c([H])c(F)c([H])c7F)c([H])c6[H])c(C(=O)N([H])[H])c5N([H])[H])C4([H])[H])C([H])([H])[H])c([H])c(F)c3[H])c([H])c([H])c2C1([H])[H]

$$$$
85:0:0
     RDKit          3D

 92100  0  0  1  0  0  0  0  0999 V2000
  -30.2250  -22.4470   22.9110 C   0  0  0  0  0  3  0  0  0  0  0  0
  -30.9050  -20.2880   23.7260 C   0  0  0  0  0  3  0  0  0  0  0  0
  -30.7100  -21.6530   23.9600 C   0  0  0  0  0  0  0  0  0  0  0  0
  -29.8960  -21.8620   21.6640 C   0  0  0  0  0  0  0  0  0  0  0  0
  -30.1350  -20.4450   21.5240 C   0  0  0  0  0  0  0  0  0  0  0  0
  -30.9970  -22.2540   25.3250 C   0  0  0  0  0  1  0  0  0  0  0  0
  -30.6210  -19.7090   22.5480 N   0  0  0  0  0  0  0  0  0  0  0  0
  -29.2640  -22.7760   20.5710 C   0  0  0  0  0  3  0  0  0  0  0  0
  -29.0960  -24.3130   20.9250 C   0  0  0  0  0  3  0  0  0  0  0  0
  -28.3620  -25.2290   19.8910 C   0  0  0  0  0  2  0  0  0  0  0  0
  -28.3730  -26.6520   20.2370 O   0  0  0  0  0  0  0  0  0  0  0  0
  -24.6130  -31.9350   23.2820 C   0  0  0  0  0  0  0  0  0  0  0  0
  -27.2100  -27.4210   20.1880 C   0  0  0  0  0  0  0  0  0  0  0  0
  -23.3970  -30.5380   21.6450 C   0  0  0  0  0  3  0  0  0  0  0  0
  -24.8350  -28.9970   20.2070 C   0  0  0  0  0  0  0  0  0  0  0  0
  -25.9280  -30.8670   21.4460 C   0  0  0  0  0  2  0  0  0  0  0  0
  -26.0010  -29.4940   20.7980 C   0  0  0  0  0  0  0  0  0  0  0  0
  -27.1870  -28.7120   20.7870 C   0  0  0  0  0  3  0  0  0  0  0  0
  -26.0220  -26.9730   19.5610 C   0  0  0  0  0  3  0  0  0  0  0  0
  -24.8420  -27.7390   19.5860 C   0  0  0  0  0  3  0  0  0  0  0  0
  -23.5990  -29.8670   20.2630 C   0  0  0  0  0  2  0  0  0  0  0  0
  -24.6650  -31.1280   22.1830 N   0  0  0  0  0  0  0  0  0  0  0  0
  -23.5340  -32.2170   23.8230 O   0  0  0  0  0  0  0  0  0  0  0  0
  -22.7440  -29.5180   22.6070 C   0  0  0  0  0  0  0  0  0  0  0  0
  -21.4200  -29.3300   22.4740 N   0  0  0  0  0  0  0  0  0  0  0  0
  -23.4230  -28.9000   23.4300 O   0  0  0  0  0  0  0  0  0  0  0  0
  -20.9320  -29.8830   21.7830 H   0  0  0  0  0  0  0  0  0  0  0  0
  -18.0520  -28.1090   22.9510 C   0  0  0  0  0  0  0  0  0  0  0  0
  -20.6040  -28.3910   23.2440 C   0  0  0  0  0  3  0  0  0  0  0  0
  -20.7230  -26.9550   22.6820 C   0  0  0  0  0  2  0  0  0  0  0  0
  -19.6330  -26.6150   21.6610 C   0  0  0  0  0  2  0  0  0  0  0  0
  -18.2450  -26.7550   22.2890 C   0  0  0  0  0  2  0  0  0  0  0  0
  -19.1590  -28.8840   23.3850 C   0  0  0  0  0  0  0  0  0  0  0  0
  -18.9240  -30.1510   23.9600 C   0  0  0  0  0  3  0  0  0  0  0  0
  -17.6130  -30.6440   24.1040 C   0  0  0  0  0  3  0  0  0  0  0  0
  -16.5190  -29.8640   23.6880 C   0  0  0  0  0  3  0  0  0  0  0  0
  -16.7400  -28.5990   23.1180 C   0  0  0  0  0  3  0  0  0  0  0  0
  -25.9030  -32.5600   23.8960 C   0  0  0  0  0  3  0  0  0  0  0  0
  -25.6040  -33.9590   24.2290 N   0  0  0  0  0  0  0  0  0  0  0  0
  -25.9370  -35.0100   23.4690 C   0  0  0  0  0  0  0  0  0  0  0  0
  -26.5990  -34.9050   22.4330 O   0  0  0  0  0  0  0  0  0  0  0  0
  -25.0140  -34.1150   25.0340 H   0  0  0  0  0  0  0  0  0  0  0  0
  -24.2130  -36.8090   23.1230 C   0  0  0  0  0  1  0  0  0  0  0  0
  -25.4570  -36.4000   23.9300 C   0  0  0  0  0  3  0  0  0  0  0  0
  -27.5980  -37.2730   24.7550 C   0  0  0  0  0  1  0  0  0  0  0  0
  -26.4940  -37.4480   23.8140 N   0  0  0  0  0  0  0  0  0  0  0  0
  -26.0930  -38.3700   23.9630 H   0  0  0  0  0  0  0  0  0  0  0  0
  -26.4280  -31.7840   25.1660 C   0  0  1  0  0  0  0  0  0  0  0  0
  -25.3410  -31.5390   26.2370 C   0  0  0  0  0  1  0  0  0  0  0  0
  -27.0100  -30.4100   24.7630 C   0  0  0  0  0  1  0  0  0  0  0  0
  -27.5830  -32.5760   25.8240 C   0  0  0  0  0  1  0  0  0  0  0  0
  -29.6940  -19.5740   20.3230 C   0  0  0  0  0  2  0  0  0  0  0  0
  -30.4570  -18.2270   19.9640 C   0  0  0  0  0  2  0  0  0  0  0  0
  -30.6180  -17.0860   21.0370 C   0  0  0  0  0  2  0  0  0  0  0  0
  -31.0600  -14.6810   20.1270 C   0  0  0  0  0  0  0  0  0  0  0  0
  -30.7650  -12.5060   18.9570 C   0  0  0  0  0  2  0  0  0  0  0  0
  -29.7910  -12.7080   17.7760 C   0  0  0  0  0  2  0  0  0  0  0  0
  -28.3240  -12.5850   18.2370 C   0  0  0  0  0  2  0  0  0  0  0  0
  -28.0270  -13.4200   19.5110 C   0  0  0  0  0  3  0  0  0  0  0  0
  -29.1020  -13.1660   20.5910 C   0  0  0  0  0  2  0  0  0  0  0  0
  -30.4080  -13.4890   19.9950 N   0  0  0  0  0  0  0  0  0  0  0  0
  -32.2050  -14.8630   19.7030 O   0  0  0  0  0  0  0  0  0  0  0  0
  -30.2960  -15.6910   20.6190 N   0  0  0  0  0  0  0  0  0  0  0  0
  -29.3590  -15.3990   20.8500 H   0  0  0  0  0  0  0  0  0  0  0  0
  -25.6620  -14.0880   20.2640 C   0  0  0  0  0  0  0  0  0  0  0  0
  -24.5850  -13.3430   20.6640 C   0  0  0  0  0  0  0  0  0  0  0  0
  -25.0170  -11.9820   20.6400 C   0  0  0  0  0  0  0  0  0  0  0  0
  -26.6810  -13.1810   20.0210 N   0  0  0  0  0  0  0  0  0  0  0  0
  -26.3000  -11.9100   20.3060 N   0  0  0  0  0  0  0  0  0  0  0  0
  -24.2710  -10.7380   20.8600 C   0  0  0  0  0  0  0  0  0  0  0  0
  -24.6800   -9.7920   21.8250 C   0  0  0  0  0  3  0  0  0  0  0  0
  -23.9360   -8.6100   22.0300 C   0  0  0  0  0  3  0  0  0  0  0  0
  -22.7680   -8.3670   21.2700 C   0  0  0  0  0  0  0  0  0  0  0  0
  -22.3760   -9.3020   20.2950 C   0  0  0  0  0  3  0  0  0  0  0  0
  -23.1210  -10.4740   20.0890 C   0  0  0  0  0  3  0  0  0  0  0  0
  -21.9950   -7.2350   21.3800 O   0  0  0  0  0  0  0  0  0  0  0  0
  -21.8910   -6.5490   22.5640 C   0  0  0  0  0  0  0  0  0  0  0  0
  -21.4120   -7.1640   23.7400 C   0  0  0  0  0  3  0  0  0  0  0  0
  -21.2540   -6.4050   24.9170 C   0  0  0  0  0  3  0  0  0  0  0  0
  -21.5650   -5.0320   24.9160 C   0  0  0  0  0  0  0  0  0  0  0  0
  -22.0380   -4.4180   23.7440 C   0  0  0  0  0  3  0  0  0  0  0  0
  -22.1980   -5.1740   22.5700 C   0  0  0  0  0  0  0  0  0  0  0  0
  -22.6330   -4.5720   21.4370 F   0  0  0  0  0  0  0  0  0  0  0  0
  -21.4070   -4.3000   26.0440 F   0  0  0  0  0  0  0  0  0  0  0  0
  -23.2040  -13.8540   20.9580 C   0  0  0  0  0  0  0  0  0  0  0  0
  -22.4830  -13.1870   21.8520 N   0  0  0  0  0  0  0  0  0  0  0  0
  -22.7740  -14.8770   20.4280 O   0  0  0  0  0  0  0  0  0  0  0  0
  -22.8470  -12.3600   22.3010 H   0  0  0  0  0  0  0  0  0  0  0  0
  -21.5570  -13.5100   22.0920 H   0  0  0  0  0  0  0  0  0  0  0  0
  -25.8530  -15.4520   20.0680 N   0  0  0  0  0  0  0  0  0  0  0  0
  -25.1010  -16.1230   20.1830 H   0  0  0  0  0  0  0  0  0  0  0  0
  -26.6990  -15.8690   19.7000 H   0  0  0  0  0  0  0  0  0  0  0  0
  1  3  1  0
  2  3  2  0
  3  6  1  0
  4  1  2  0
  5  4  1  0
  5  7  2  0
  7  2  1  0
  8  9  2  0
  8  4  1  0
 10 11  1  0
 10  9  1  0
 12 23  2  0
 13 11  1  0
 13 18  1  0
 14 22  1  0
 14 24  1  0
 15 21  1  0
 15 17  1  0
 16 22  1  0
 17 16  1  0
 18 17  2  0
 19 20  1  0
 19 13  2  0
 20 15  2  0
 21 14  1  0
 22 12  1  0
 24 26  2  0
 25 24  1  0
 27 25  1  0
 28 37  2  0
 28 33  1  0
 29 25  1  0
 29 33  1  0
 30 29  1  0
 31 32  1  0
 31 30  1  0
 32 28  1  0
 33 34  2  0
 34 35  1  0
 36 35  2  0
 37 36  1  0
 38 12  1  0
 38 39  1  0
 38 48  1  0
 39 42  1  0
 40 44  1  0
 40 39  1  0
 41 40  2  0
 44 43  1  0
 46 44  1  0
 46 47  1  0
 46 45  1  0
 48 51  1  1
 48 49  1  0
 50 48  1  0
 52  5  1  0
 53 52  1  0
 53 54  1  0
 55 63  1  0
 56 61  1  0
 57 58  1  0
 57 56  1  0
 59 58  1  0
 59 68  1  0
 59 60  1  0
 61 55  1  0
 61 60  1  0
 62 55  2  0
 63 64  1  0
 63 54  1  0
 65 66  2  0
 66 85  1  0
 67 66  1  0
 67 70  1  0
 68 65  1  0
 68 69  1  0
 69 67  2  0
 70 71  1  0
 71 72  2  0
 73 76  1  0
 73 72  1  0
 74 73  2  0
 75 74  1  0
 75 70  2  0
 76 77  1  0
 77 82  2  0
 77 78  1  0
 78 79  2  0
 80 79  1  0
 80 84  1  0
 81 80  2  0
 82 81  1  0
 83 82  1  0
 85 86  1  0
 86 89  1  0
 86 88  1  0
 87 85  2  0
 90 91  1  0
 90 65  1  0
 92 90  1  0
M  ISO  4  10 101  11 101  55 100  63 100
M  END
>  <TORSDO>  (86) 
F 22

>  <SCORE>  (86) 
-12.728

>  <name>  (86) 
85

>  <ligand_id>  (86) 
85

>  <original_smiles>  (86) 
[H]c1nc(C([H])([H])C([H])([H])C([H])([H])N([H])C(=O)N2C([H])([H])C([H])([H])C([H])([H])C([H])(n3nc(-c4c([H])c([H])c(Oc5c([H])c([H])c(F)c([H])c5F)c([H])c4[H])c(C(=O)N([H])[H])c3N([H])[H])C2([H])[H])c(C([H])([H])C([H])([H])C([H])([H])Oc2c([H])c([H])c3c(c2[H])C([H])([H])N(C(=O)C([H])(N([H])C(=O)C([H])(N([H])C([H])([H])[H])C([H])([H])[H])C(C([H])([H])[H])(C([H])([H])[H])C([H])([H])[H])C([H])(C(=O)N([H])C2([H])c4c([H])c([H])c([H])c([H])c4C([H])([H])C([H])([H])C2([H])[H])C3([H])[H])c([H])c1C([H])([H])[H]

>  <smiles>  (86) 
[H]c1nc(C([H])([H])C([H])([H])C([H])([H])N([H])C(=O)N2C([H])([H])C([H])([H])C([H])([H])C([H])(n3nc(-c4c([H])c([H])c(Oc5c([H])c([H])c(F)c([H])c5F)c([H])c4[H])c(C(=O)N([H])[H])c3N([H])[H])C2([H])[H])c(C([H])([H])C([H])([H])C([H])([H])Oc2c([H])c([H])c3c(c2[H])C([H])([H])N(C(=O)C([H])(N([H])C(=O)C([H])(N([H])C([H])([H])[H])C([H])([H])[H])C(C([H])([H])[H])(C([H])([H])[H])C([H])([H])[H])C([H])(C(=O)N([H])C2([H])c4c([H])c([H])c([H])c([H])c4C([H])([H])C([H])([H])C2([H])[H])C3([H])[H])c([H])c1C([H])([H])[H]

$$$$
86:0:0
     RDKit          3D

 92100  0  0  1  0  0  0  0  0999 V2000
  -29.3440  -19.6900   20.7030 C   0  0  0  0  0  3  0  0  0  0  0  0
  -30.2870  -18.5980   20.5770 C   0  0  0  0  0  0  0  0  0  0  0  0
  -31.5310  -18.9530   19.9880 C   0  0  0  0  0  0  0  0  0  0  0  0
  -29.6530  -21.0350   20.2780 C   0  0  0  0  0  0  0  0  0  0  0  0
  -31.7760  -20.3090   19.6220 C   0  0  0  0  0  0  0  0  0  0  0  0
  -32.6090  -17.8900   19.8080 C   0  0  0  0  0  1  0  0  0  0  0  0
  -30.8560  -21.2940   19.7310 N   0  0  0  0  0  0  0  0  0  0  0  0
  -33.2500  -20.6240   17.5660 C   0  0  0  0  0  1  0  0  0  0  0  0
  -33.1220  -20.7930   19.0870 C   0  0  0  0  0  2  0  0  0  0  0  0
  -30.0960  -17.1760   21.2760 C   0  0  0  0  0  2  0  0  0  0  0  0
  -30.5920  -14.7260   20.3900 C   0  0  0  0  0  0  0  0  0  0  0  0
  -30.3600  -12.4930   19.2970 C   0  0  0  0  0  2  0  0  0  0  0  0
  -29.4000  -12.5870   18.0920 C   0  0  0  0  0  2  0  0  0  0  0  0
  -27.9360  -12.4220   18.5420 C   0  0  0  0  0  2  0  0  0  0  0  0
  -27.5840  -13.2960   19.7740 C   0  0  0  0  0  3  0  0  0  0  0  0
  -28.6540  -13.1760   20.8780 C   0  0  0  0  0  2  0  0  0  0  0  0
  -29.9420  -13.5250   20.2680 N   0  0  0  0  0  0  0  0  0  0  0  0
  -31.7970  -14.8080   20.1460 O   0  0  0  0  0  0  0  0  0  0  0  0
  -29.8130  -15.8450   20.5990 N   0  0  0  0  0  0  0  0  0  0  0  0
  -28.8310  -15.6290   20.5790 H   0  0  0  0  0  0  0  0  0  0  0  0
  -25.2000  -13.8960   20.5060 C   0  0  0  0  0  0  0  0  0  0  0  0
  -24.1330  -13.1260   20.8830 C   0  0  0  0  0  0  0  0  0  0  0  0
  -24.5940  -11.7740   20.8570 C   0  0  0  0  0  0  0  0  0  0  0  0
  -26.2420  -13.0140   20.2710 N   0  0  0  0  0  0  0  0  0  0  0  0
  -25.8840  -11.7330   20.5450 N   0  0  0  0  0  0  0  0  0  0  0  0
  -23.8670  -10.5130   21.0510 C   0  0  0  0  0  0  0  0  0  0  0  0
  -24.3100   -9.5370   21.9710 C   0  0  0  0  0  3  0  0  0  0  0  0
  -23.5810   -8.3440   22.1560 C   0  0  0  0  0  3  0  0  0  0  0  0
  -22.3930   -8.1160   21.4200 C   0  0  0  0  0  0  0  0  0  0  0  0
  -21.9680   -9.0820   20.4920 C   0  0  0  0  0  3  0  0  0  0  0  0
  -22.6980  -10.2680   20.3060 C   0  0  0  0  0  3  0  0  0  0  0  0
  -21.6380   -6.9740   21.5120 O   0  0  0  0  0  0  0  0  0  0  0  0
  -21.6220   -6.2120   22.6530 C   0  0  0  0  0  0  0  0  0  0  0  0
  -21.2540   -6.7530   23.9030 C   0  0  0  0  0  3  0  0  0  0  0  0
  -21.1800   -5.9200   25.0370 C   0  0  0  0  0  3  0  0  0  0  0  0
  -21.4670   -4.5470   24.9230 C   0  0  0  0  0  0  0  0  0  0  0  0
  -21.8310   -4.0050   23.6770 C   0  0  0  0  0  3  0  0  0  0  0  0
  -21.9040   -4.8360   22.5440 C   0  0  0  0  0  0  0  0  0  0  0  0
  -22.2330   -4.3040   21.3430 F   0  0  0  0  0  0  0  0  0  0  0  0
  -21.3910   -3.7450   26.0110 F   0  0  0  0  0  0  0  0  0  0  0  0
  -22.7380  -13.6090   21.1520 C   0  0  0  0  0  0  0  0  0  0  0  0
  -22.0100  -12.9210   22.0230 N   0  0  0  0  0  0  0  0  0  0  0  0
  -22.3030  -14.6330   20.6250 O   0  0  0  0  0  0  0  0  0  0  0  0
  -22.3770  -12.0930   22.4670 H   0  0  0  0  0  0  0  0  0  0  0  0
  -21.0750  -13.2290   22.2500 H   0  0  0  0  0  0  0  0  0  0  0  0
  -25.3640  -15.2650   20.3230 N   0  0  0  0  0  0  0  0  0  0  0  0
  -24.5940  -15.9160   20.4350 H   0  0  0  0  0  0  0  0  0  0  0  0
  -26.1960  -15.6990   19.9470 H   0  0  0  0  0  0  0  0  0  0  0  0
  -28.6350  -22.2530   20.2540 C   0  0  0  0  0  2  0  0  0  0  0  0
  -29.1160  -23.7910   20.4130 C   0  0  0  0  0  3  0  0  0  0  0  0
  -28.0360  -24.9430   20.0920 C   0  0  0  0  0  3  0  0  0  0  0  0
  -28.2930  -26.4130   20.2610 O   0  0  0  0  0  0  0  0  0  0  0  0
  -24.6020  -31.9150   23.2380 C   0  0  0  0  0  0  0  0  0  0  0  0
  -27.1900  -27.2990   20.2010 C   0  0  0  0  0  0  0  0  0  0  0  0
  -23.3910  -30.5090   21.6100 C   0  0  0  0  0  3  0  0  0  0  0  0
  -24.8330  -28.9420   20.1890 C   0  0  0  0  0  0  0  0  0  0  0  0
  -25.9350  -30.8080   21.4210 C   0  0  0  0  0  2  0  0  0  0  0  0
  -26.0090  -29.4230   20.7840 C   0  0  0  0  0  0  0  0  0  0  0  0
  -27.1890  -28.6130   20.7780 C   0  0  0  0  0  3  0  0  0  0  0  0
  -25.9880  -26.8890   19.5760 C   0  0  0  0  0  3  0  0  0  0  0  0
  -24.8290  -27.6850   19.5720 C   0  0  0  0  0  3  0  0  0  0  0  0
  -23.6020  -29.8230   20.2350 C   0  0  0  0  0  2  0  0  0  0  0  0
  -24.6630  -31.0950   22.1470 N   0  0  0  0  0  0  0  0  0  0  0  0
  -23.5200  -32.2010   23.7700 O   0  0  0  0  0  0  0  0  0  0  0  0
  -22.7210  -29.5040   22.5780 C   0  0  0  0  0  0  0  0  0  0  0  0
  -21.3910  -29.3390   22.4570 N   0  0  0  0  0  0  0  0  0  0  0  0
  -23.3960  -28.8740   23.3960 O   0  0  0  0  0  0  0  0  0  0  0  0
  -20.9040  -29.8980   21.7730 H   0  0  0  0  0  0  0  0  0  0  0  0
  -18.0060  -28.1700   22.9710 C   0  0  0  0  0  0  0  0  0  0  0  0
  -20.5670  -28.4130   23.2350 C   0  0  0  0  0  3  0  0  0  0  0  0
  -20.6570  -26.9760   22.6700 C   0  0  0  0  0  2  0  0  0  0  0  0
  -19.5530  -26.6550   21.6590 C   0  0  0  0  0  2  0  0  0  0  0  0
  -18.1740  -26.8140   22.3050 C   0  0  0  0  0  2  0  0  0  0  0  0
  -19.1300  -28.9280   23.3930 C   0  0  0  0  0  0  0  0  0  0  0  0
  -18.9200  -30.1960   23.9780 C   0  0  0  0  0  3  0  0  0  0  0  0
  -17.6190  -30.7080   24.1380 C   0  0  0  0  0  3  0  0  0  0  0  0
  -16.5100  -29.9480   23.7320 C   0  0  0  0  0  3  0  0  0  0  0  0
  -16.7030  -28.6790   23.1570 C   0  0  0  0  0  3  0  0  0  0  0  0
  -25.8890  -32.5490   23.8540 C   0  0  0  0  0  3  0  0  0  0  0  0
  -25.5790  -33.9460   24.1910 N   0  0  0  0  0  0  0  0  0  0  0  0
  -25.9010  -35.0010   23.4310 C   0  0  0  0  0  0  0  0  0  0  0  0
  -26.5560  -34.9010   22.3890 O   0  0  0  0  0  0  0  0  0  0  0  0
  -24.9990  -34.0990   25.0030 H   0  0  0  0  0  0  0  0  0  0  0  0
  -24.1590  -36.7870   23.1090 C   0  0  0  0  0  1  0  0  0  0  0  0
  -25.4180  -36.3880   23.8970 C   0  0  0  0  0  3  0  0  0  0  0  0
  -27.5680  -37.2730   24.6880 C   0  0  0  0  0  1  0  0  0  0  0  0
  -26.4440  -37.4440   23.7690 N   0  0  0  0  0  0  0  0  0  0  0  0
  -26.0390  -38.3610   23.9330 H   0  0  0  0  0  0  0  0  0  0  0  0
  -26.4120  -31.7760   25.1260 C   0  0  1  0  0  0  0  0  0  0  0  0
  -25.3280  -31.5390   26.2040 C   0  0  0  0  0  1  0  0  0  0  0  0
  -26.9860  -30.3970   24.7270 C   0  0  0  0  0  1  0  0  0  0  0  0
  -27.5700  -32.5650   25.7840 C   0  0  0  0  0  1  0  0  0  0  0  0
  2  1  1  0
  2 10  1  0
  3  2  2  0
  4  1  2  0
  5  7  2  0
  5  3  1  0
  6  3  1  0
  7  4  1  0
  8  9  1  0
  9  5  1  0
 11 19  1  0
 12 17  1  0
 13 14  1  0
 13 12  1  0
 15 14  1  0
 15 24  1  0
 15 16  1  0
 17 11  1  0
 17 16  1  0
 18 11  2  0
 19 10  1  0
 20 19  1  0
 21 22  2  0
 22 41  1  0
 23 22  1  0
 23 26  1  0
 24 21  1  0
 24 25  1  0
 25 23  2  0
 26 27  1  0
 27 28  2  0
 29 32  1  0
 29 28  1  0
 30 29  2  0
 31 30  1  0
 31 26  2  0
 32 33  1  0
 33 34  1  0
 34 35  2  0
 36 35  1  0
 36 40  1  0
 37 36  2  0
 38 33  2  0
 38 37  1  0
 39 38  1  0
 41 42  1  0
 42 45  1  0
 42 44  1  0
 43 41  2  0
 46 47  1  0
 46 21  1  0
 48 46  1  0
 49  4  1  0
 49 50  1  0
 51 52  1  0
 51 50  2  0
 53 64  2  0
 54 52  1  0
 54 59  1  0
 55 63  1  0
 55 65  1  0
 56 62  1  0
 56 58  1  0
 57 63  1  0
 58 57  1  0
 59 58  2  0
 60 54  2  0
 61 60  1  0
 61 56  2  0
 62 55  1  0
 63 53  1  0
 65 67  2  0
 66 65  1  0
 68 66  1  0
 69 78  2  0
 69 74  1  0
 70 66  1  0
 70 74  1  0
 71 70  1  0
 72 73  1  0
 72 71  1  0
 73 69  1  0
 74 75  2  0
 75 76  1  0
 77 76  2  0
 78 77  1  0
 79 53  1  0
 79 80  1  0
 79 89  1  0
 80 83  1  0
 81 85  1  0
 81 80  1  0
 82 81  2  0
 85 84  1  0
 87 85  1  0
 87 88  1  0
 87 86  1  0
 89 92  1  1
 89 90  1  0
 91 89  1  0
M  ISO  4  11 100  19 100  51 101  52 101
M  END
>  <TORSDO>  (87) 
F 21

>  <SCORE>  (87) 
-13.615

>  <name>  (87) 
86

>  <ligand_id>  (87) 
86

>  <original_smiles>  (87) 
[H]c1c([H])c([H])c2c(c1[H])C([H])([H])C([H])([H])C([H])([H])C2([H])N([H])C(=O)C1([H])N(C(=O)C([H])(N([H])C(=O)C([H])(N([H])C([H])([H])[H])C([H])([H])[H])C(C([H])([H])[H])(C([H])([H])[H])C([H])([H])[H])C([H])([H])c2c([H])c(OC([H])([H])C([H])([H])C([H])([H])c3nc(C([H])([H])C([H])([H])[H])c(C([H])([H])[H])c(C([H])([H])N([H])C(=O)N4C([H])([H])C([H])([H])C([H])([H])C([H])(n5nc(-c6c([H])c([H])c(Oc7c([H])c([H])c(F)c([H])c7F)c([H])c6[H])c(C(=O)N([H])[H])c5N([H])[H])C4([H])[H])c3[H])c([H])c([H])c2C1([H])[H]

>  <smiles>  (87) 
[H]c1c([H])c([H])c2c(c1[H])C([H])([H])C([H])([H])C([H])([H])C2([H])N([H])C(=O)C1([H])N(C(=O)C([H])(N([H])C(=O)C([H])(N([H])C([H])([H])[H])C([H])([H])[H])C(C([H])([H])[H])(C([H])([H])[H])C([H])([H])[H])C([H])([H])c2c([H])c(OC([H])([H])C([H])([H])C([H])([H])c3nc(C([H])([H])C([H])([H])[H])c(C([H])([H])[H])c(C([H])([H])N([H])C(=O)N4C([H])([H])C([H])([H])C([H])([H])C([H])(n5nc(-c6c([H])c([H])c(Oc7c([H])c([H])c(F)c([H])c7F)c([H])c6[H])c(C(=O)N([H])[H])c5N([H])[H])C4([H])[H])c3[H])c([H])c([H])c2C1([H])[H]

$$$$
87:0:0
     RDKit          3D

101109  0  0  1  0  0  0  0  0999 V2000
  -24.1070  -24.4710   22.5610 C   0  0  0  0  0  2  0  0  0  0  0  0
  -24.7910  -23.8910   20.1900 C   0  0  0  0  0  3  0  0  0  0  0  0
  -24.8870  -24.7600   21.2890 C   0  0  0  0  0  0  0  0  0  0  0  0
  -25.6990  -25.8990   21.1160 C   0  0  0  0  0  0  0  0  0  0  0  0
  -26.2530  -25.1870   19.0090 C   0  0  0  0  0  0  0  0  0  0  0  0
  -25.8470  -26.9800   22.1730 C   0  0  0  0  0  1  0  0  0  0  0  0
  -25.4810  -24.1060   19.0590 N   0  0  0  0  0  0  0  0  0  0  0  0
  -26.4010  -26.0800   19.9850 N   0  0  0  0  0  0  0  0  0  0  0  0
  -27.0410  -25.4310   17.7340 C   0  0  0  0  0  2  0  0  0  0  0  0
  -27.0680  -26.9090   17.2980 C   0  0  0  0  0  2  0  0  0  0  0  0
  -25.7540  -27.3520   16.9370 O   0  0  0  0  0  0  0  0  0  0  0  0
  -25.9190  -30.5930   23.2760 C   0  0  0  0  0  0  0  0  0  0  0  0
  -25.1390  -28.1860   17.8400 C   0  0  0  0  0  0  0  0  0  0  0  0
  -23.7520  -30.6690   22.0770 C   0  0  0  0  0  3  0  0  0  0  0  0
  -23.8090  -29.8990   19.6450 C   0  0  0  0  0  0  0  0  0  0  0  0
  -25.9520  -30.5030   20.7910 C   0  0  0  0  0  2  0  0  0  0  0  0
  -25.1980  -29.7390   19.7240 C   0  0  0  0  0  0  0  0  0  0  0  0
  -25.8700  -28.8880   18.8250 C   0  0  0  0  0  3  0  0  0  0  0  0
  -23.7430  -28.3660   17.7550 C   0  0  0  0  0  3  0  0  0  0  0  0
  -23.0720  -29.2140   18.6600 C   0  0  0  0  0  3  0  0  0  0  0  0
  -23.1740  -30.8370   20.6440 C   0  0  0  0  0  2  0  0  0  0  0  0
  -25.2480  -30.5630   22.0890 N   0  0  0  0  0  0  0  0  0  0  0  0
  -25.3180  -30.7580   24.3480 O   0  0  0  0  0  0  0  0  0  0  0  0
  -23.0460  -29.4740   22.7570 C   0  0  0  0  0  0  0  0  0  0  0  0
  -21.7030  -29.4990   22.7650 N   0  0  0  0  0  0  0  0  0  0  0  0
  -23.7010  -28.5390   23.2280 O   0  0  0  0  0  0  0  0  0  0  0  0
  -21.2400  -30.2970   22.3500 H   0  0  0  0  0  0  0  0  0  0  0  0
  -18.3190  -28.2430   22.7350 C   0  0  0  0  0  0  0  0  0  0  0  0
  -20.8330  -28.4570   23.3090 C   0  0  0  0  0  3  0  0  0  0  0  0
  -21.0140  -27.1230   22.5440 C   0  0  0  0  0  2  0  0  0  0  0  0
  -20.0300  -26.9690   21.3790 C   0  0  0  0  0  2  0  0  0  0  0  0
  -18.5820  -27.0170   21.8760 C   0  0  0  0  0  2  0  0  0  0  0  0
  -19.3760  -28.9270   23.3900 C   0  0  0  0  0  0  0  0  0  0  0  0
  -19.0800  -30.0890   24.1340 C   0  0  0  0  0  3  0  0  0  0  0  0
  -17.7600  -30.5680   24.2270 C   0  0  0  0  0  3  0  0  0  0  0  0
  -16.7150  -29.8790   23.5900 C   0  0  0  0  0  3  0  0  0  0  0  0
  -16.9940  -28.7130   22.8570 C   0  0  0  0  0  3  0  0  0  0  0  0
  -27.4730  -30.4470   23.3450 C   0  0  0  0  0  3  0  0  0  0  0  0
  -27.9680  -31.4700   24.2760 N   0  0  0  0  0  0  0  0  0  0  0  0
  -28.6570  -32.5600   23.9120 C   0  0  0  0  0  0  0  0  0  0  0  0
  -29.0050  -32.7770   22.7480 O   0  0  0  0  0  0  0  0  0  0  0  0
  -27.6730  -31.3850   25.2370 H   0  0  0  0  0  0  0  0  0  0  0  0
  -28.0920  -34.7990   24.9090 C   0  0  0  0  0  1  0  0  0  0  0  0
  -29.0160  -33.5750   25.0150 C   0  0  0  0  0  3  0  0  0  0  0  0
  -31.3710  -32.9570   25.3180 C   0  0  0  0  0  1  0  0  0  0  0  0
  -30.4270  -34.0130   24.9700 N   0  0  0  0  0  0  0  0  0  0  0  0
  -30.5830  -34.7980   25.5950 H   0  0  0  0  0  0  0  0  0  0  0  0
  -27.9410  -29.0070   23.7850 C   0  0  1  0  0  0  0  0  0  0  0  0
  -27.2500  -28.4940   25.0690 C   0  0  0  0  0  1  0  0  0  0  0  0
  -27.6670  -27.9790   22.6610 C   0  0  0  0  0  1  0  0  0  0  0  0
  -29.4680  -29.0060   24.0290 C   0  0  0  0  0  1  0  0  0  0  0  0
  -24.9650  -24.2170   23.8220 C   0  0  0  0  0  2  0  0  0  0  0  0
  -26.1760  -23.2690   23.6640 C   0  0  0  0  0  2  0  0  0  0  0  0
  -26.9370  -23.3820   22.3280 C   0  0  0  0  0  2  0  0  0  0  0  0
  -28.2220  -22.6490   22.3610 N   0  0  0  0  0  4  0  0  0  0  0  0
  -28.1850  -21.9690   23.1030 H   0  0  0  0  0  0  0  0  0  0  0  0
  -28.9640  -23.2970   22.5740 H   0  0  0  0  0  0  0  0  0  0  0  0
  -28.5390  -21.9270   21.1090 C   0  0  0  0  0  2  0  0  0  0  0  0
  -29.7860  -21.0400   21.2470 C   0  0  0  0  0  2  0  0  0  0  0  0
  -29.9620  -20.0930   20.0510 C   0  0  0  0  0  2  0  0  0  0  0  0
  -31.0470  -19.0460   20.3190 C   0  0  0  0  0  2  0  0  0  0  0  0
  -31.3880  -18.2030   19.0820 C   0  0  0  0  0  2  0  0  0  0  0  0
  -32.3650  -17.0630   19.3990 C   0  0  0  0  0  2  0  0  0  0  0  0
  -31.8880  -14.6260   19.1680 C   0  0  0  0  0  0  0  0  0  0  0  0
  -31.9440  -12.2870   19.9130 C   0  0  0  0  0  2  0  0  0  0  0  0
  -31.1400  -11.3150   19.0410 C   0  0  0  0  0  2  0  0  0  0  0  0
  -29.6750  -11.2680   19.5050 C   0  0  0  0  0  2  0  0  0  0  0  0
  -29.0450  -12.6790   19.6250 C   0  0  0  0  0  3  0  0  0  0  0  0
  -29.9580  -13.6350   20.4320 C   0  0  0  0  0  2  0  0  0  0  0  0
  -31.3180  -13.6130   19.8580 N   0  0  0  0  0  0  0  0  0  0  0  0
  -32.7420  -14.4740   18.2880 O   0  0  0  0  0  0  0  0  0  0  0  0
  -31.6640  -15.8220   19.7200 N   0  0  0  0  0  0  0  0  0  0  0  0
  -31.0320  -15.8380   20.5080 H   0  0  0  0  0  0  0  0  0  0  0  0
  -26.8310  -13.6270   20.5480 C   0  0  0  0  0  0  0  0  0  0  0  0
  -25.6700  -13.0210   20.9420 C   0  0  0  0  0  0  0  0  0  0  0  0
  -25.8850  -11.6160   20.7850 C   0  0  0  0  0  0  0  0  0  0  0  0
  -27.6940  -12.6040   20.1850 N   0  0  0  0  0  0  0  0  0  0  0  0
  -27.1270  -11.3850   20.3790 N   0  0  0  0  0  0  0  0  0  0  0  0
  -24.9620  -10.4850   20.9460 C   0  0  0  0  0  0  0  0  0  0  0  0
  -25.1500   -9.5160   21.9560 C   0  0  0  0  0  3  0  0  0  0  0  0
  -24.2390   -8.4470   22.1010 C   0  0  0  0  0  3  0  0  0  0  0  0
  -23.1240   -8.3400   21.2360 C   0  0  0  0  0  0  0  0  0  0  0  0
  -22.9530   -9.2960   20.2170 C   0  0  0  0  0  3  0  0  0  0  0  0
  -23.8640  -10.3560   20.0710 C   0  0  0  0  0  3  0  0  0  0  0  0
  -22.2030   -7.3220   21.2860 O   0  0  0  0  0  0  0  0  0  0  0  0
  -21.7620   -6.8090   22.4790 C   0  0  0  0  0  0  0  0  0  0  0  0
  -21.1170   -7.6150   23.4440 C   0  0  0  0  0  3  0  0  0  0  0  0
  -20.6170   -7.0350   24.6260 C   0  0  0  0  0  3  0  0  0  0  0  0
  -20.7510   -5.6500   24.8430 C   0  0  0  0  0  0  0  0  0  0  0  0
  -21.3880   -4.8450   23.8820 C   0  0  0  0  0  3  0  0  0  0  0  0
  -21.8880   -5.4240   22.7030 C   0  0  0  0  0  0  0  0  0  0  0  0
  -22.4820   -4.6400   21.7700 F   0  0  0  0  0  0  0  0  0  0  0  0
  -20.2650   -5.0900   25.9750 F   0  0  0  0  0  0  0  0  0  0  0  0
  -24.3960  -13.7040   21.3540 C   0  0  0  0  0  0  0  0  0  0  0  0
  -23.6460  -13.1030   22.2690 N   0  0  0  0  0  0  0  0  0  0  0  0
  -24.0850  -14.8040   20.8980 O   0  0  0  0  0  0  0  0  0  0  0  0
  -23.9130  -12.2100   22.6580 H   0  0  0  0  0  0  0  0  0  0  0  0
  -22.7930  -13.5420   22.5850 H   0  0  0  0  0  0  0  0  0  0  0  0
  -27.2190  -14.9610   20.4470 N   0  0  0  0  0  0  0  0  0  0  0  0
  -26.5820  -15.7230   20.6470 H   0  0  0  0  0  0  0  0  0  0  0  0
  -28.1140  -15.2720   20.0890 H   0  0  0  0  0  0  0  0  0  0  0  0
  1 52  1  0
  2  3  2  0
  3  1  1  0
  4  3  1  0
  4  6  1  0
  5  7  2  0
  5  8  1  0
  7  2  1  0
  8  4  2  0
  9  5  1  0
 10  9  1  0
 11 10  1  0
 11 13  1  0
 12 23  2  0
 13 18  1  0
 14 22  1  0
 14 24  1  0
 15 17  1  0
 15 21  1  0
 16 22  1  0
 17 16  1  0
 18 17  2  0
 19 13  2  0
 19 20  1  0
 20 15  2  0
 21 14  1  0
 22 12  1  0
 24 25  1  0
 24 26  2  0
 27 25  1  0
 28 37  2  0
 28 33  1  0
 29 25  1  0
 29 33  1  0
 30 29  1  0
 31 32  1  0
 31 30  1  0
 32 28  1  0
 33 34  2  0
 34 35  1  0
 36 35  2  0
 37 36  1  0
 38 12  1  0
 38 48  1  0
 38 39  1  0
 39 42  1  0
 40 39  1  0
 40 44  1  0
 41 40  2  0
 44 43  1  0
 46 44  1  0
 46 45  1  0
 46 47  1  0
 48 51  1  1
 48 49  1  0
 50 48  1  0
 53 52  1  0
 54 55  1  0
 54 53  1  0
 55 57  1  0
 55 56  1  0
 58 59  1  0
 58 55  1  0
 60 61  1  0
 60 59  1  0
 62 63  1  0
 62 61  1  0
 63 72  1  0
 64 72  1  0
 64 70  1  0
 66 67  1  0
 66 65  1  0
 68 67  1  0
 68 77  1  0
 68 69  1  0
 70 65  1  0
 70 69  1  0
 71 64  2  0
 72 73  1  0
 74 75  2  0
 75 94  1  0
 76 75  1  0
 76 79  1  0
 77 78  1  0
 77 74  1  0
 78 76  2  0
 79 80  1  0
 80 81  2  0
 82 85  1  0
 82 81  1  0
 83 82  2  0
 84 83  1  0
 84 79  2  0
 85 86  1  0
 86 91  2  0
 86 87  1  0
 87 88  2  0
 88 89  1  0
 89 93  1  0
 90 89  2  0
 91 90  1  0
 92 91  1  0
 94 95  1  0
 95 98  1  0
 95 97  1  0
 96 94  2  0
 99 74  1  0
 99100  1  0
101 99  1  0
M  ISO  4  10 101  11 101  64 100  72 100
M  END
>  <TORSDO>  (88) 
F 29

>  <SCORE>  (88) 
-3.661

>  <name>  (88) 
87

>  <ligand_id>  (88) 
87

>  <original_smiles>  (88) 
[H]c1nc(C([H])([H])C([H])([H])Oc2c([H])c([H])c3c(c2[H])C([H])([H])N(C(=O)C([H])(N([H])C(=O)C([H])(N([H])C([H])([H])[H])C([H])([H])[H])C(C([H])([H])[H])(C([H])([H])[H])C([H])([H])[H])C([H])(C(=O)N([H])C2([H])c4c([H])c([H])c([H])c([H])c4C([H])([H])C([H])([H])C2([H])[H])C3([H])[H])nc(C([H])([H])[H])c1C([H])([H])C([H])([H])C([H])([H])C([H])([H])[N+]([H])([H])C([H])([H])C([H])([H])C([H])([H])C([H])([H])C([H])([H])C([H])([H])N([H])C(=O)N1C([H])([H])C([H])([H])C([H])([H])C([H])(n2nc(-c3c([H])c([H])c(Oc4c([H])c([H])c(F)c([H])c4F)c([H])c3[H])c(C(=O)N([H])[H])c2N([H])[H])C1([H])[H]

>  <smiles>  (88) 
[H]c1nc(C([H])([H])C([H])([H])Oc2c([H])c([H])c3c(c2[H])C([H])([H])N(C(=O)C([H])(N([H])C(=O)C([H])(N([H])C([H])([H])[H])C([H])([H])[H])C(C([H])([H])[H])(C([H])([H])[H])C([H])([H])[H])C([H])(C(=O)N([H])C2([H])c4c([H])c([H])c([H])c([H])c4C([H])([H])C([H])([H])C2([H])[H])C3([H])[H])nc(C([H])([H])[H])c1C([H])([H])C([H])([H])C([H])([H])C([H])([H])[N+]([H])([H])C([H])([H])C([H])([H])C([H])([H])C([H])([H])C([H])([H])C([H])([H])N([H])C(=O)N1C([H])([H])C([H])([H])C([H])([H])C([H])(n2nc(-c3c([H])c([H])c(Oc4c([H])c([H])c(F)c([H])c4F)c([H])c3[H])c(C(=O)N([H])[H])c2N([H])[H])C1([H])[H]

$$$$
88:0:0
     RDKit          3D

100103  0  0  1  0  0  0  0  0999 V2000
  -24.4140  -28.6970   18.9230 C   0  0  0  0  0  2  0  0  0  0  0  0
  -25.3460  -28.0350   19.8010 C   0  0  0  0  0  2  0  0  0  0  0  0
  -26.0060  -27.9020   17.6630 C   0  0  0  0  0  3  0  0  0  0  0  0
  -26.5700  -26.7840   16.7650 C   0  0  0  0  0  2  0  0  0  0  0  0
  -24.5520  -25.8780   15.4780 C   0  0  0  0  0  2  0  0  0  0  0  0
  -24.1310  -28.4600   16.2680 C   0  0  0  0  0  2  0  0  0  0  0  0
  -23.5490  -27.1010   15.7300 C   0  0  0  0  0  3  0  0  0  0  0  0
  -25.5380  -25.5810   16.6310 C   0  0  0  0  0  3  0  0  0  0  0  0
  -24.8010  -28.4130   17.5960 N   0  0  0  0  0  0  0  0  0  0  0  0
  -26.3870  -28.3480   18.8640 N   0  0  0  0  0  0  0  0  0  0  0  0
  -27.3500  -28.2250   19.1370 H   0  0  0  0  0  0  0  0  0  0  0  0
  -25.8680  -24.1590   17.1170 O   0  0  0  0  0  0  0  0  0  0  0  0
  -23.2130  -28.1730   22.5410 C   0  0  0  0  0  0  0  0  0  0  0  0
  -24.9720  -23.7660   18.0320 C   0  0  0  0  0  3  0  0  0  0  0  0
  -21.4640  -27.0730   20.9130 C   0  0  0  0  0  3  0  0  0  0  0  0
  -22.7260  -25.2250   18.5210 C   0  0  0  0  0  0  0  0  0  0  0  0
  -24.4640  -26.3570   20.8980 C   0  0  0  0  0  0  0  0  0  0  0  0
  -24.2490  -25.3770   19.3080 C   0  0  0  0  0  0  0  0  0  0  0  0
  -25.2370  -24.5320   19.1240 C   0  0  0  0  0  2  0  0  0  0  0  0
  -23.6890  -23.4320   17.5000 C   0  0  0  0  0  2  0  0  0  0  0  0
  -22.5260  -24.1510   17.7410 C   0  0  0  0  0  2  0  0  0  0  0  0
  -21.1840  -26.0710   19.2620 C   0  0  0  0  0  3  0  0  0  0  0  0
  -23.0670  -27.1920   21.6010 N   0  0  0  0  0  0  0  0  0  0  0  0
  -22.2340  -28.7580   23.0340 O   0  0  0  0  0  0  0  0  0  0  0  0
  -20.6120  -26.4750   21.9850 C   0  0  0  0  0  0  0  0  0  0  0  0
  -19.3170  -26.6010   21.8280 N   0  0  0  0  0  0  0  0  0  0  0  0
  -21.1180  -25.7190   22.8130 O   0  0  0  0  0  0  0  0  0  0  0  0
  -18.9700  -27.1650   21.0650 H   0  0  0  0  0  0  0  0  0  0  0  0
  -15.9150  -26.1780   22.5520 C   0  0  0  0  0  0  0  0  0  0  0  0
  -18.4120  -25.7350   22.5370 C   0  0  0  0  0  3  0  0  0  0  0  0
  -18.1250  -24.4780   21.6860 C   0  0  0  0  0  2  0  0  0  0  0  0
  -16.9100  -24.6480   20.7850 C   0  0  0  0  0  2  0  0  0  0  0  0
  -15.6800  -24.9860   21.6330 C   0  0  0  0  0  2  0  0  0  0  0  0
  -17.2140  -26.5400   22.9600 C   0  0  0  0  0  0  0  0  0  0  0  0
  -17.4210  -27.6760   23.7760 C   0  0  0  0  0  3  0  0  0  0  0  0
  -16.3250  -28.4450   24.2040 C   0  0  0  0  0  3  0  0  0  0  0  0
  -15.0240  -28.0720   23.8170 C   0  0  0  0  0  3  0  0  0  0  0  0
  -14.8220  -26.9430   23.0010 C   0  0  0  0  0  3  0  0  0  0  0  0
  -24.6200  -28.5670   23.0550 C   0  0  0  0  0  3  0  0  0  0  0  0
  -24.9290  -27.9260   24.4640 C   0  0  1  0  0  0  0  0  0  0  0  0
  -23.8140  -28.1990   25.5010 C   0  0  0  0  0  1  0  0  0  0  0  0
  -25.1480  -26.4020   24.4480 C   0  0  0  0  0  1  0  0  0  0  0  0
  -26.2640  -28.4880   24.9850 C   0  0  0  0  0  1  0  0  0  0  0  0
  -24.6930  -30.0400   23.1580 N   0  0  0  0  0  0  0  0  0  0  0  0
  -25.3900  -30.8720   22.3700 C   0  0  0  0  0  0  0  0  0  0  0  0
  -26.0850  -30.4670   21.4360 O   0  0  0  0  0  0  0  0  0  0  0  0
  -24.1040  -30.4550   23.8620 H   0  0  0  0  0  0  0  0  0  0  0  0
  -24.3420  -33.0640   21.6750 C   0  0  0  0  0  1  0  0  0  0  0  0
  -25.2990  -32.3870   22.6660 C   0  0  0  0  0  3  0  0  0  0  0  0
  -27.5000  -32.7160   23.7150 C   0  0  0  0  0  1  0  0  0  0  0  0
  -26.6030  -33.0850   22.6280 N   0  0  0  0  0  0  0  0  0  0  0  0
  -26.4660  -34.0900   22.6580 H   0  0  0  0  0  0  0  0  0  0  0  0
  -25.2680  -25.7950   21.7590 C   0  0  0  0  0  1  0  0  0  0  0  0
  -26.1020  -23.9020   21.9190 C   0  0  0  0  0 15  0  0  0  0  0  0
  -26.9850  -22.2210   21.2140 C   0  0  0  0  0 15  0  0  0  0  0  0
  -28.3750  -20.8120   21.5660 C   0  0  0  0  0 15  0  0  0  0  0  0
  -29.4680  -19.3190   20.7700 C   0  0  0  0  0 15  0  0  0  0  0  0
  -31.3090  -18.5270   20.5850 C   0  0  0  0  0 15  0  0  0  0  0  0
  -32.4220  -17.1680   19.6060 C   0  0  0  0  0  1  0  0  0  0  0  0
  -34.0610  -16.7320   18.6690 C   0  0  0  0  0  0  0  0  0  0  0  0
  -35.4710  -15.0240   17.0740 C   0  0  0  0  0  2  0  0  0  0  0  0
  -34.6360  -14.0010   16.2360 C   0  0  0  0  0  2  0  0  0  0  0  0
  -34.1820  -12.8080   17.0930 C   0  0  0  0  0  2  0  0  0  0  0  0
  -33.7570  -13.2810   18.5000 C   0  0  0  0  0  3  0  0  0  0  0  0
  -34.7430  -14.2460   19.1670 C   0  0  0  0  0  2  0  0  0  0  0  0
  -34.7240  -15.4590   18.3540 N   0  0  0  0  0  0  0  0  0  0  0  0
  -34.6890  -17.5750   17.9790 O   0  0  0  0  0  0  0  0  0  0  0  0
  -32.3000  -12.1510   20.2160 C   0  0  0  0  0  0  0  0  0  0  0  0
  -32.3590  -10.9320   20.8240 C   0  0  0  0  0  0  0  0  0  0  0  0
  -33.5570  -10.3100   20.3520 C   0  0  0  0  0  0  0  0  0  0  0  0
  -33.4110  -12.2110   19.4030 N   0  0  0  0  0  0  0  0  0  0  0  0
  -34.2160  -11.1290   19.5400 N   0  0  0  0  0  0  0  0  0  0  0  0
  -34.0730   -8.9560   20.5770 C   0  0  0  0  0  0  0  0  0  0  0  0
  -35.4590   -8.6790   20.5860 C   0  0  0  0  0  3  0  0  0  0  0  0
  -35.9230   -7.3680   20.8290 C   0  0  0  0  0  3  0  0  0  0  0  0
  -35.0020   -6.3210   21.0680 C   0  0  0  0  0  0  0  0  0  0  0  0
  -33.6250   -6.5990   21.0320 C   0  0  0  0  0  3  0  0  0  0  0  0
  -33.1630   -7.9020   20.7850 C   0  0  0  0  0  3  0  0  0  0  0  0
  -35.3620   -5.0140   21.2880 O   0  0  0  0  0  0  0  0  0  0  0  0
  -36.6760   -4.6250   21.3210 C   0  0  0  0  0  0  0  0  0  0  0  0
  -37.6750   -5.4290   21.9130 C   0  0  0  0  0  3  0  0  0  0  0  0
  -39.0010   -4.9600   21.9890 C   0  0  0  0  0  3  0  0  0  0  0  0
  -39.3300   -3.6880   21.4840 C   0  0  0  0  0  0  0  0  0  0  0  0
  -38.3350   -2.8830   20.9000 C   0  0  0  0  0  3  0  0  0  0  0  0
  -37.0120   -3.3500   20.8220 C   0  0  0  0  0  0  0  0  0  0  0  0
  -36.0530   -2.5620   20.2780 F   0  0  0  0  0  0  0  0  0  0  0  0
  -40.6020   -3.2330   21.5640 F   0  0  0  0  0  0  0  0  0  0  0  0
  -31.3080  -10.3410   21.7130 C   0  0  0  0  0  0  0  0  0  0  0  0
  -31.7200   -9.5650   22.7070 N   0  0  0  0  0  0  0  0  0  0  0  0
  -30.1180  -10.6100   21.5570 O   0  0  0  0  0  0  0  0  0  0  0  0
  -32.7000   -9.3680   22.8400 H   0  0  0  0  0  0  0  0  0  0  0  0
  -31.0480   -9.1610   23.3450 H   0  0  0  0  0  0  0  0  0  0  0  0
  -31.3830  -13.1980   20.2580 N   0  0  0  0  0  0  0  0  0  0  0  0
  -30.5230  -13.1370   20.7940 H   0  0  0  0  0  0  0  0  0  0  0  0
  -31.4300  -14.0280   19.6820 H   0  0  0  0  0  0  0  0  0  0  0  0
  -22.3270  -26.8130   16.6320 C   0  0  0  0  0  2  0  0  0  0  0  0
  -21.1900  -26.0020   16.0130 C   0  0  0  0  0  2  0  0  0  0  0  0
  -19.9750  -25.9860   16.9510 C   0  0  0  0  0  2  0  0  0  0  0  0
  -17.7620  -24.9060   17.5440 C   0  0  0  0  0  1  0  0  0  0  0  0
  -18.8080  -25.1380   16.4430 C   0  0  0  0  0  2  0  0  0  0  0  0
  1  2  1  0
  3  4  1  0
  3 10  1  0
  5  7  1  0
  5  8  1  0
  7  6  1  0
  7 96  1  0
  8  4  1  0
  8 12  1  0
  9  6  1  0
  9  3  1  0
  9  1  1  0
 10 11  1  0
 10  2  1  0
 13 24  2  0
 14 12  1  0
 14 19  1  0
 15 23  1  0
 15 25  1  0
 16 22  2  0
 16 18  1  0
 17 23  1  0
 17 53  1  0
 18 17  2  0
 19 18  1  0
 20 21  1  0
 20 14  1  0
 21 16  1  0
 22 15  1  0
 23 13  1  0
 25 27  2  0
 26 25  1  0
 28 26  1  0
 29 34  2  0
 29 38  1  0
 30 26  1  0
 30 34  1  0
 31 30  1  0
 32 33  1  0
 32 31  1  0
 33 29  1  0
 34 35  1  0
 35 36  2  0
 37 36  1  0
 38 37  2  0
 39 13  1  0
 39 44  1  0
 39 40  1  0
 40 43  1  1
 40 41  1  0
 42 40  1  0
 44 47  1  0
 45 49  1  0
 45 44  1  0
 46 45  2  0
 49 48  1  0
 51 52  1  0
 51 49  1  0
 51 50  1  0
 60 59  1  0
 61 66  1  0
 62 61  1  0
 62 63  1  0
 64 63  1  0
 64 65  1  0
 64 71  1  0
 66 60  1  0
 66 65  1  0
 67 60  2  0
 68 93  1  0
 68 69  2  0
 69 88  1  0
 70 73  1  0
 70 69  1  0
 71 72  1  0
 71 68  1  0
 72 70  2  0
 73 74  2  0
 73 78  1  0
 74 75  1  0
 75 76  2  0
 76 79  1  0
 77 76  1  0
 78 77  2  0
 79 80  1  0
 80 81  1  0
 81 82  2  0
 83 87  1  0
 83 82  1  0
 84 83  2  0
 85 84  1  0
 85 80  2  0
 86 85  1  0
 88 89  1  0
 89 91  1  0
 89 92  1  0
 90 88  2  0
 93 94  1  0
 95 93  1  0
 97 96  1  0
 97 98  1  0
100 98  1  0
100 99  1  0
M  ISO  4   8 101  12 101  59 100  60 100
M  END
>  <TORSDO>  (89) 
F 27

>  <SCORE>  (89) 
-4.965

>  <name>  (89) 
88

>  <ligand_id>  (89) 
88

>  <original_smiles>  (89) 
[H]c1c([H])c([H])c2c(c1[H])C([H])([H])C([H])([H])C([H])([H])C2([H])N([H])C(=O)C1([H])N(C(=O)C([H])(N([H])C(=O)C([H])(N([H])C([H])([H])[H])C([H])([H])[H])C(C([H])([H])[H])(C([H])([H])[H])C([H])([H])[H])C([H])([H])c2c([H])c(OC3([H])C([H])([H])c4n(c([H])c(C([H])([H])C([H])([H])C([H])([H])C([H])([H])C([H])([H])C([H])([H])C([H])([H])C(=O)N5C([H])([H])C([H])([H])C([H])([H])C([H])(n6nc(-c7c([H])c([H])c(Oc8c([H])c([H])c(F)c([H])c8F)c([H])c7[H])c(C(=O)N([H])[H])c6N([H])[H])C5([H])[H])[n+]4[H])C([H])([H])C([H])(C([H])([H])C([H])([H])C([H])([H])C([H])([H])C([H])([H])[H])C3([H])[H])c([H])c([H])c2C1([H])[H]

>  <smiles>  (89) 
[H]c1c([H])c([H])c2c(c1[H])C([H])([H])C([H])([H])C([H])([H])C2([H])N([H])C(=O)C1([H])N(C(=O)C([H])(N([H])C(=O)C([H])(N([H])C([H])([H])[H])C([H])([H])[H])C(C([H])([H])[H])(C([H])([H])[H])C([H])([H])[H])C([H])([H])c2c([H])c(OC3([H])C([H])([H])c4n(c([H])c(C([H])([H])C([H])([H])C([H])([H])C([H])([H])C([H])([H])C([H])([H])C([H])([H])C(=O)N5C([H])([H])C([H])([H])C([H])([H])C([H])(n6nc(-c7c([H])c([H])c(Oc8c([H])c([H])c(F)c([H])c8F)c([H])c7[H])c(C(=O)N([H])[H])c6N([H])[H])C5([H])[H])[n+]4[H])C([H])([H])C([H])(C([H])([H])C([H])([H])C([H])([H])C([H])([H])C([H])([H])[H])C3([H])[H])c([H])c([H])c2C1([H])[H]

$$$$
89:0:0
     RDKit          3D

 92100  0  0  1  0  0  0  0  0999 V2000
  -29.2570  -23.1440   19.6340 C   0  0  0  0  0  0  0  0  0  0  0  0
  -28.7740  -21.8030   19.5580 C   0  0  0  0  0  0  0  0  0  0  0  0
  -28.3170  -24.1880   19.3650 C   0  0  0  0  0  0  0  0  0  0  0  0
  -26.6720  -22.5990   19.1090 C   0  0  0  0  0  0  0  0  0  0  0  0
  -30.7210  -23.4600   19.9130 C   0  0  0  0  0  1  0  0  0  0  0  0
  -25.2310  -22.2930   18.7600 C   0  0  0  0  0  1  0  0  0  0  0  0
  -27.4790  -21.5670   19.2900 N   0  0  0  0  0  0  0  0  0  0  0  0
  -27.0300  -23.8740   19.1250 N   0  0  0  0  0  0  0  0  0  0  0  0
  -29.6380  -20.5200   19.5690 C   0  0  0  0  0  2  0  0  0  0  0  0
  -29.3270  -19.4920   20.7070 C   0  0  0  0  0  2  0  0  0  0  0  0
  -29.2430  -17.9760   20.3030 C   0  0  0  0  0  2  0  0  0  0  0  0
  -30.2430  -17.0100   21.0080 C   0  0  0  0  0  2  0  0  0  0  0  0
  -30.6380  -14.5520   20.4430 C   0  0  0  0  0  0  0  0  0  0  0  0
  -30.3820  -12.3720   19.3100 C   0  0  0  0  0  2  0  0  0  0  0  0
  -29.4370  -12.5730   18.1040 C   0  0  0  0  0  2  0  0  0  0  0  0
  -27.9620  -12.4180   18.5340 C   0  0  0  0  0  2  0  0  0  0  0  0
  -27.6180  -13.2530   19.7990 C   0  0  0  0  0  3  0  0  0  0  0  0
  -28.6770  -13.0360   20.9050 C   0  0  0  0  0  2  0  0  0  0  0  0
  -29.9950  -13.3570   20.3320 N   0  0  0  0  0  0  0  0  0  0  0  0
  -31.7850  -14.7360   20.0230 O   0  0  0  0  0  0  0  0  0  0  0  0
  -29.8770  -15.5790   20.8830 N   0  0  0  0  0  0  0  0  0  0  0  0
  -28.9400  -15.3260   21.1610 H   0  0  0  0  0  0  0  0  0  0  0  0
  -25.2170  -13.8520   20.4950 C   0  0  0  0  0  0  0  0  0  0  0  0
  -24.1510  -13.0750   20.8670 C   0  0  0  0  0  0  0  0  0  0  0  0
  -24.6220  -11.7250   20.8480 C   0  0  0  0  0  0  0  0  0  0  0  0
  -26.2660  -12.9730   20.2760 N   0  0  0  0  0  0  0  0  0  0  0  0
  -25.9120  -11.6900   20.5440 N   0  0  0  0  0  0  0  0  0  0  0  0
  -23.9030  -10.4600   21.0460 C   0  0  0  0  0  0  0  0  0  0  0  0
  -24.3410   -9.4980   21.9800 C   0  0  0  0  0  3  0  0  0  0  0  0
  -23.6200   -8.2980   22.1630 C   0  0  0  0  0  3  0  0  0  0  0  0
  -22.4470   -8.0530   21.4110 C   0  0  0  0  0  0  0  0  0  0  0  0
  -22.0280   -9.0040   20.4650 C   0  0  0  0  0  3  0  0  0  0  0  0
  -22.7500  -10.1950   20.2790 C   0  0  0  0  0  3  0  0  0  0  0  0
  -21.6990   -6.9040   21.5030 O   0  0  0  0  0  0  0  0  0  0  0  0
  -21.6620   -6.1590   22.6540 C   0  0  0  0  0  0  0  0  0  0  0  0
  -21.2420   -6.7080   23.8850 C   0  0  0  0  0  3  0  0  0  0  0  0
  -21.1530   -5.8890   25.0290 C   0  0  0  0  0  3  0  0  0  0  0  0
  -21.4750   -4.5210   24.9420 C   0  0  0  0  0  0  0  0  0  0  0  0
  -21.8870   -3.9710   23.7150 C   0  0  0  0  0  3  0  0  0  0  0  0
  -21.9790   -4.7870   22.5750 C   0  0  0  0  0  0  0  0  0  0  0  0
  -22.3570   -4.2460   21.3920 F   0  0  0  0  0  0  0  0  0  0  0  0
  -21.3830   -3.7330   26.0390 F   0  0  0  0  0  0  0  0  0  0  0  0
  -22.7510  -13.5440   21.1320 C   0  0  0  0  0  0  0  0  0  0  0  0
  -22.0220  -12.8490   22.0000 N   0  0  0  0  0  0  0  0  0  0  0  0
  -22.3080  -14.5650   20.6060 O   0  0  0  0  0  0  0  0  0  0  0  0
  -22.3900  -12.0220   22.4460 H   0  0  0  0  0  0  0  0  0  0  0  0
  -21.0820  -13.1470   22.2200 H   0  0  0  0  0  0  0  0  0  0  0  0
  -25.3730  -15.2210   20.3050 N   0  0  0  0  0  0  0  0  0  0  0  0
  -24.5980  -15.8670   20.4020 H   0  0  0  0  0  0  0  0  0  0  0  0
  -26.2170  -15.6640   19.9660 H   0  0  0  0  0  0  0  0  0  0  0  0
  -28.6940  -25.6750   19.0970 C   0  0  0  0  0  2  0  0  0  0  0  0
  -28.4210  -26.6690   20.1220 O   0  0  0  0  0  0  0  0  0  0  0  0
  -24.6230  -31.8740   23.2430 C   0  0  0  0  0  0  0  0  0  0  0  0
  -27.2480  -27.4140   20.1040 C   0  0  0  0  0  0  0  0  0  0  0  0
  -23.4110  -30.4820   21.5980 C   0  0  0  0  0  3  0  0  0  0  0  0
  -24.8570  -28.9520   20.1570 C   0  0  0  0  0  0  0  0  0  0  0  0
  -25.9420  -30.8190   21.4080 C   0  0  0  0  0  2  0  0  0  0  0  0
  -26.0190  -29.4520   20.7540 C   0  0  0  0  0  0  0  0  0  0  0  0
  -27.2120  -28.6850   20.7350 C   0  0  0  0  0  3  0  0  0  0  0  0
  -26.0630  -26.9500   19.4950 C   0  0  0  0  0  3  0  0  0  0  0  0
  -24.8740  -27.6990   19.5290 C   0  0  0  0  0  3  0  0  0  0  0  0
  -23.6160  -29.8130   20.2130 C   0  0  0  0  0  2  0  0  0  0  0  0
  -24.6760  -31.0750   22.1390 N   0  0  0  0  0  0  0  0  0  0  0  0
  -23.5430  -32.1470   23.7850 O   0  0  0  0  0  0  0  0  0  0  0  0
  -22.7610  -29.4550   22.5550 C   0  0  0  0  0  0  0  0  0  0  0  0
  -21.4340  -29.2780   22.4340 N   0  0  0  0  0  0  0  0  0  0  0  0
  -23.4470  -28.8220   23.3640 O   0  0  0  0  0  0  0  0  0  0  0  0
  -20.9440  -29.8450   21.7570 H   0  0  0  0  0  0  0  0  0  0  0  0
  -18.0580  -28.0830   22.9390 C   0  0  0  0  0  0  0  0  0  0  0  0
  -20.6170  -28.3350   23.1980 C   0  0  0  0  0  3  0  0  0  0  0  0
  -20.7150  -26.9070   22.6130 C   0  0  0  0  0  2  0  0  0  0  0  0
  -19.6080  -26.5910   21.6030 C   0  0  0  0  0  2  0  0  0  0  0  0
  -18.2280  -26.7380   22.2530 C   0  0  0  0  0  2  0  0  0  0  0  0
  -19.1800  -28.8410   23.3670 C   0  0  0  0  0  0  0  0  0  0  0  0
  -18.9710  -30.1020   23.9660 C   0  0  0  0  0  3  0  0  0  0  0  0
  -17.6680  -30.6060   24.1420 C   0  0  0  0  0  3  0  0  0  0  0  0
  -16.5600  -29.8450   23.7320 C   0  0  0  0  0  3  0  0  0  0  0  0
  -16.7540  -28.5860   23.1370 C   0  0  0  0  0  3  0  0  0  0  0  0
  -25.9120  -32.5000   23.8610 C   0  0  0  0  0  3  0  0  0  0  0  0
  -25.6090  -33.8990   24.1930 N   0  0  0  0  0  0  0  0  0  0  0  0
  -25.9380  -34.9510   23.4320 C   0  0  0  0  0  0  0  0  0  0  0  0
  -26.5990  -34.8460   22.3950 O   0  0  0  0  0  0  0  0  0  0  0  0
  -25.0320  -34.0580   25.0050 H   0  0  0  0  0  0  0  0  0  0  0  0
  -24.2080  -36.7470   23.0870 C   0  0  0  0  0  1  0  0  0  0  0  0
  -25.4530  -36.3390   23.8920 C   0  0  0  0  0  3  0  0  0  0  0  0
  -27.5890  -37.2210   24.7170 C   0  0  0  0  0  1  0  0  0  0  0  0
  -26.4850  -37.3910   23.7780 N   0  0  0  0  0  0  0  0  0  0  0  0
  -26.0790  -38.3100   23.9300 H   0  0  0  0  0  0  0  0  0  0  0  0
  -26.4340  -31.7260   25.1350 C   0  0  1  0  0  0  0  0  0  0  0  0
  -25.3440  -31.4840   26.2070 C   0  0  0  0  0  1  0  0  0  0  0  0
  -27.0190  -30.3510   24.7370 C   0  0  0  0  0  1  0  0  0  0  0  0
  -27.5840  -32.5250   25.7950 C   0  0  0  0  0  1  0  0  0  0  0  0
  1  5  1  0
  2  9  1  0
  2  1  2  0
  3  1  1  0
  4  8  1  0
  4  7  2  0
  6  4  1  0
  7  2  1  0
  8  3  2  0
  9 10  1  0
 11 10  1  0
 11 12  1  0
 13 21  1  0
 14 19  1  0
 15 16  1  0
 15 14  1  0
 17 16  1  0
 17 26  1  0
 17 18  1  0
 19 13  1  0
 19 18  1  0
 20 13  2  0
 21 12  1  0
 21 22  1  0
 23 24  2  0
 24 43  1  0
 25 24  1  0
 25 28  1  0
 26 23  1  0
 26 27  1  0
 27 25  2  0
 28 29  1  0
 29 30  2  0
 31 34  1  0
 31 30  1  0
 32 31  2  0
 33 32  1  0
 33 28  2  0
 34 35  1  0
 35 36  1  0
 36 37  2  0
 38 37  1  0
 38 42  1  0
 39 38  2  0
 40 35  2  0
 40 39  1  0
 41 40  1  0
 43 44  1  0
 44 47  1  0
 44 46  1  0
 45 43  2  0
 48 49  1  0
 48 23  1  0
 50 48  1  0
 51  3  1  0
 51 52  1  0
 53 64  2  0
 54 52  1  0
 54 59  1  0
 55 63  1  0
 55 65  1  0
 56 62  1  0
 56 58  1  0
 57 63  1  0
 58 57  1  0
 59 58  2  0
 60 61  1  0
 60 54  2  0
 61 56  2  0
 62 55  1  0
 63 53  1  0
 65 67  2  0
 66 65  1  0
 68 66  1  0
 69 78  2  0
 69 74  1  0
 70 66  1  0
 70 74  1  0
 71 70  1  0
 72 73  1  0
 72 71  1  0
 73 69  1  0
 74 75  2  0
 75 76  1  0
 77 76  2  0
 78 77  1  0
 79 53  1  0
 79 80  1  0
 79 89  1  0
 80 83  1  0
 81 85  1  0
 81 80  1  0
 82 81  2  0
 85 84  1  0
 87 85  1  0
 87 88  1  0
 87 86  1  0
 89 92  1  1
 89 90  1  0
 91 89  1  0
M  ISO  4  13 100  21 100  51 101  52 101
M  END
>  <TORSDO>  (90) 
F 21

>  <SCORE>  (90) 
-13.566

>  <name>  (90) 
89

>  <ligand_id>  (90) 
89

>  <original_smiles>  (90) 
[H]c1c([H])c([H])c2c(c1[H])C([H])([H])C([H])([H])C([H])([H])C2([H])N([H])C(=O)C1([H])N(C(=O)C([H])(N([H])C(=O)C([H])(N([H])C([H])([H])[H])C([H])([H])[H])C(C([H])([H])[H])(C([H])([H])[H])C([H])([H])[H])C([H])([H])c2c([H])c(OC([H])([H])c3nc(C([H])([H])[H])nc(C([H])([H])C([H])([H])C([H])([H])C([H])([H])N([H])C(=O)N4C([H])([H])C([H])([H])C([H])([H])C([H])(n5nc(-c6c([H])c([H])c(Oc7c([H])c([H])c(F)c([H])c7F)c([H])c6[H])c(C(=O)N([H])[H])c5N([H])[H])C4([H])[H])c3C([H])([H])[H])c([H])c([H])c2C1([H])[H]

>  <smiles>  (90) 
[H]c1c([H])c([H])c2c(c1[H])C([H])([H])C([H])([H])C([H])([H])C2([H])N([H])C(=O)C1([H])N(C(=O)C([H])(N([H])C(=O)C([H])(N([H])C([H])([H])[H])C([H])([H])[H])C(C([H])([H])[H])(C([H])([H])[H])C([H])([H])[H])C([H])([H])c2c([H])c(OC([H])([H])c3nc(C([H])([H])[H])nc(C([H])([H])C([H])([H])C([H])([H])C([H])([H])N([H])C(=O)N4C([H])([H])C([H])([H])C([H])([H])C([H])(n5nc(-c6c([H])c([H])c(Oc7c([H])c([H])c(F)c([H])c7F)c([H])c6[H])c(C(=O)N([H])[H])c5N([H])[H])C4([H])[H])c3C([H])([H])[H])c([H])c([H])c2C1([H])[H]

$$$$
90:0:0
     RDKit          3D

 94102  0  0  1  0  0  0  0  0999 V2000
  -30.2810  -22.1680   21.5930 C   0  0  0  0  0  3  0  0  0  0  0  0
  -30.6790  -21.0630   20.8720 C   0  0  0  0  0  0  0  0  0  0  0  0
  -30.5960  -21.5400   19.5270 C   0  0  0  0  0  0  0  0  0  0  0  0
  -30.1690  -22.8010   19.4480 N   0  0  0  0  0  0  0  0  0  0  0  0
  -29.9860  -23.2110   20.7240 N   0  0  0  0  0  0  0  0  0  0  0  0
  -31.2050  -19.7210   21.4220 C   0  0  0  0  0  2  0  0  0  0  0  0
  -30.5690  -18.3840   20.9100 C   0  0  0  0  0  2  0  0  0  0  0  0
  -31.1720  -17.1120   21.5880 C   0  0  0  0  0  2  0  0  0  0  0  0
  -31.1620  -14.7990   20.5490 C   0  0  0  0  0  0  0  0  0  0  0  0
  -30.8070  -12.6740   19.3270 C   0  0  0  0  0  2  0  0  0  0  0  0
  -29.8860  -12.9090   18.1130 C   0  0  0  0  0  2  0  0  0  0  0  0
  -28.4050  -12.7890   18.5210 C   0  0  0  0  0  2  0  0  0  0  0  0
  -28.0680  -13.6110   19.7930 C   0  0  0  0  0  3  0  0  0  0  0  0
  -29.1050  -13.3670   20.9130 C   0  0  0  0  0  2  0  0  0  0  0  0
  -30.4400  -13.6550   20.3650 N   0  0  0  0  0  0  0  0  0  0  0  0
  -32.2870  -14.9470   20.0670 O   0  0  0  0  0  0  0  0  0  0  0  0
  -30.5560  -15.8140   21.2090 N   0  0  0  0  0  0  0  0  0  0  0  0
  -29.6200  -15.6310   21.5440 H   0  0  0  0  0  0  0  0  0  0  0  0
  -25.6790  -14.2480   20.5020 C   0  0  0  0  0  0  0  0  0  0  0  0
  -24.5860  -13.4900   20.8290 C   0  0  0  0  0  0  0  0  0  0  0  0
  -25.0120  -12.1290   20.7500 C   0  0  0  0  0  0  0  0  0  0  0  0
  -26.7030  -13.3490   20.2480 N   0  0  0  0  0  0  0  0  0  0  0  0
  -26.3050  -12.0670   20.4560 N   0  0  0  0  0  0  0  0  0  0  0  0
  -24.2490  -10.8810   20.8850 C   0  0  0  0  0  0  0  0  0  0  0  0
  -24.6190   -9.8850   21.8150 C   0  0  0  0  0  3  0  0  0  0  0  0
  -23.8600   -8.7020   21.9390 C   0  0  0  0  0  3  0  0  0  0  0  0
  -22.7140   -8.5060   21.1310 C   0  0  0  0  0  0  0  0  0  0  0  0
  -22.3630   -9.4900   20.1910 C   0  0  0  0  0  3  0  0  0  0  0  0
  -23.1240  -10.6650   20.0640 C   0  0  0  0  0  3  0  0  0  0  0  0
  -21.9300   -7.3790   21.1640 O   0  0  0  0  0  0  0  0  0  0  0  0
  -21.7820   -6.6380   22.3090 C   0  0  0  0  0  0  0  0  0  0  0  0
  -21.2920   -7.2060   23.5050 C   0  0  0  0  0  3  0  0  0  0  0  0
  -21.0890   -6.3940   24.6390 C   0  0  0  0  0  3  0  0  0  0  0  0
  -21.3660   -5.0160   24.5770 C   0  0  0  0  0  0  0  0  0  0  0  0
  -21.8480   -4.4480   23.3850 C   0  0  0  0  0  3  0  0  0  0  0  0
  -22.0520   -5.2560   22.2540 C   0  0  0  0  0  0  0  0  0  0  0  0
  -22.4970   -4.6990   21.1010 F   0  0  0  0  0  0  0  0  0  0  0  0
  -21.1630   -4.2340   25.6630 F   0  0  0  0  0  0  0  0  0  0  0  0
  -23.2000  -13.9950   21.1070 C   0  0  0  0  0  0  0  0  0  0  0  0
  -22.4530  -13.2960   21.9540 N   0  0  0  0  0  0  0  0  0  0  0  0
  -22.7880  -15.0420   20.6080 O   0  0  0  0  0  0  0  0  0  0  0  0
  -22.8000  -12.4490   22.3800 H   0  0  0  0  0  0  0  0  0  0  0  0
  -21.5210  -13.6120   22.1820 H   0  0  0  0  0  0  0  0  0  0  0  0
  -25.8840  -15.6190   20.3800 N   0  0  0  0  0  0  0  0  0  0  0  0
  -25.1340  -16.2910   20.4980 H   0  0  0  0  0  0  0  0  0  0  0  0
  -26.7530  -16.0420   20.0800 H   0  0  0  0  0  0  0  0  0  0  0  0
  -30.9730  -20.8150   18.2660 C   0  0  0  0  0  2  0  0  0  0  0  0
  -29.7490  -20.3420   17.4670 C   0  0  0  0  0  2  0  0  0  0  0  0
  -30.1550  -19.6680   16.1480 C   0  0  0  0  0  2  0  0  0  0  0  0
  -29.4410  -19.1190   13.7710 C   0  0  0  0  0  1  0  0  0  0  0  0
  -28.9760  -19.4780   15.1870 C   0  0  0  0  0  2  0  0  0  0  0  0
  -29.7050  -24.6300   21.0490 C   0  0  0  0  0  2  0  0  0  0  0  0
  -28.6740  -25.3810   20.1500 C   0  0  0  0  0  2  0  0  0  0  0  0
  -28.7120  -26.8250   20.3240 O   0  0  0  0  0  0  0  0  0  0  0  0
  -24.6680  -31.9680   23.1730 C   0  0  0  0  0  0  0  0  0  0  0  0
  -27.5240  -27.5380   20.2320 C   0  0  0  0  0  0  0  0  0  0  0  0
  -23.5420  -30.4990   21.5320 C   0  0  0  0  0  3  0  0  0  0  0  0
  -25.0790  -28.9880   20.1580 C   0  0  0  0  0  0  0  0  0  0  0  0
  -26.0620  -30.9340   21.3780 C   0  0  0  0  0  2  0  0  0  0  0  0
  -26.2090  -29.5560   20.7610 C   0  0  0  0  0  0  0  0  0  0  0  0
  -27.4320  -28.8400   20.7920 C   0  0  0  0  0  3  0  0  0  0  0  0
  -26.3740  -27.0010   19.6070 C   0  0  0  0  0  3  0  0  0  0  0  0
  -25.1600  -27.7130   19.5760 C   0  0  0  0  0  3  0  0  0  0  0  0
  -23.8020  -29.8040   20.1690 C   0  0  0  0  0  2  0  0  0  0  0  0
  -24.7740  -31.1510   22.0860 N   0  0  0  0  0  0  0  0  0  0  0  0
  -23.5670  -32.2110   23.6870 O   0  0  0  0  0  0  0  0  0  0  0  0
  -22.9070  -29.4720   22.4990 C   0  0  0  0  0  0  0  0  0  0  0  0
  -21.5950  -29.2310   22.3400 N   0  0  0  0  0  0  0  0  0  0  0  0
  -23.5930  -28.8940   23.3460 O   0  0  0  0  0  0  0  0  0  0  0  0
  -21.1000  -29.7490   21.6280 H   0  0  0  0  0  0  0  0  0  0  0  0
  -18.2640  -27.9020   22.7780 C   0  0  0  0  0  0  0  0  0  0  0  0
  -20.8000  -28.2740   23.1110 C   0  0  0  0  0  3  0  0  0  0  0  0
  -20.9780  -26.8370   22.5690 C   0  0  0  0  0  2  0  0  0  0  0  0
  -19.9200  -26.4470   21.5320 C   0  0  0  0  0  2  0  0  0  0  0  0
  -18.5140  -26.5480   22.1330 C   0  0  0  0  0  2  0  0  0  0  0  0
  -19.3360  -28.7190   23.2210 C   0  0  0  0  0  0  0  0  0  0  0  0
  -19.0500  -29.9830   23.7810 C   0  0  0  0  0  3  0  0  0  0  0  0
  -17.7210  -30.4320   23.9000 C   0  0  0  0  0  3  0  0  0  0  0  0
  -16.6620  -29.6120   23.4760 C   0  0  0  0  0  3  0  0  0  0  0  0
  -16.9330  -28.3490   22.9210 C   0  0  0  0  0  3  0  0  0  0  0  0
  -25.9180  -32.6550   23.8070 C   0  0  0  0  0  3  0  0  0  0  0  0
  -26.4530  -31.9120   25.0930 C   0  0  1  0  0  0  0  0  0  0  0  0
  -25.3530  -31.5930   26.1310 C   0  0  0  0  0  1  0  0  0  0  0  0
  -27.1360  -30.5790   24.7100 C   0  0  0  0  0  1  0  0  0  0  0  0
  -27.5330  -32.7760   25.7850 C   0  0  0  0  0  1  0  0  0  0  0  0
  -25.5470  -34.0400   24.1250 N   0  0  0  0  0  0  0  0  0  0  0  0
  -25.8610  -35.1040   23.3720 C   0  0  0  0  0  0  0  0  0  0  0  0
  -26.5630  -35.0250   22.3600 O   0  0  0  0  0  0  0  0  0  0  0  0
  -24.9270  -34.1730   24.9100 H   0  0  0  0  0  0  0  0  0  0  0  0
  -24.0870  -36.8370   22.9520 C   0  0  0  0  0  1  0  0  0  0  0  0
  -25.3080  -36.4720   23.8120 C   0  0  0  0  0  3  0  0  0  0  0  0
  -27.3800  -37.4210   24.7260 C   0  0  0  0  0  1  0  0  0  0  0  0
  -26.3070  -37.5630   23.7470 N   0  0  0  0  0  0  0  0  0  0  0  0
  -25.8610  -38.4650   23.8940 H   0  0  0  0  0  0  0  0  0  0  0  0
  2  6  1  0
  2  1  2  0
  3  2  1  0
  4  3  2  0
  4  5  1  0
  5 52  1  0
  5  1  1  0
  7  6  1  0
  7  8  1  0
  9 17  1  0
 10 15  1  0
 11 12  1  0
 11 10  1  0
 13 12  1  0
 13 22  1  0
 13 14  1  0
 15  9  1  0
 15 14  1  0
 16  9  2  0
 17 18  1  0
 17  8  1  0
 19 20  2  0
 20 39  1  0
 21 20  1  0
 21 24  1  0
 22 23  1  0
 22 19  1  0
 23 21  2  0
 24 25  1  0
 25 26  2  0
 27 30  1  0
 27 26  1  0
 28 27  2  0
 29 28  1  0
 29 24  2  0
 30 31  1  0
 31 32  1  0
 32 33  2  0
 34 33  1  0
 34 38  1  0
 35 34  2  0
 36 31  2  0
 36 35  1  0
 37 36  1  0
 39 40  1  0
 40 43  1  0
 40 42  1  0
 41 39  2  0
 44 45  1  0
 44 19  1  0
 46 44  1  0
 47  3  1  0
 48 47  1  0
 49 48  1  0
 50 51  1  0
 51 49  1  0
 53 54  1  0
 53 52  1  0
 55 66  2  0
 56 54  1  0
 56 61  1  0
 57 65  1  0
 57 67  1  0
 58 64  1  0
 58 60  1  0
 59 65  1  0
 60 61  2  0
 60 59  1  0
 62 56  2  0
 63 62  1  0
 63 58  2  0
 64 57  1  0
 65 55  1  0
 67 69  2  0
 68 67  1  0
 70 68  1  0
 71 80  2  0
 71 76  1  0
 72 68  1  0
 72 76  1  0
 73 72  1  0
 74 75  1  0
 74 73  1  0
 75 71  1  0
 76 77  2  0
 77 78  1  0
 79 78  2  0
 80 79  1  0
 81 55  1  0
 81 86  1  0
 81 82  1  0
 82 85  1  1
 82 83  1  0
 84 82  1  0
 86 89  1  0
 87 91  1  0
 87 86  1  0
 88 87  2  0
 91 90  1  0
 93 91  1  0
 93 94  1  0
 93 92  1  0
M  ISO  4   9 100  17 100  53 101  54 101
M  END
>  <TORSDO>  (91) 
F 25

>  <SCORE>  (91) 
-11.823

>  <name>  (91) 
90

>  <ligand_id>  (91) 
90

>  <original_smiles>  (91) 
[H]c1c([H])c([H])c2c(c1[H])C([H])([H])C([H])([H])C([H])([H])C2([H])N([H])C(=O)C1([H])N(C(=O)C([H])(N([H])C(=O)C([H])(N([H])C([H])([H])[H])C([H])([H])[H])C(C([H])([H])[H])(C([H])([H])[H])C([H])([H])[H])C([H])([H])c2c([H])c(OC([H])([H])C([H])([H])n3nc(C([H])([H])C([H])([H])C([H])([H])C([H])([H])C([H])([H])[H])c(C([H])([H])C([H])([H])C([H])([H])N([H])C(=O)N4C([H])([H])C([H])([H])C([H])([H])C([H])(n5nc(-c6c([H])c([H])c(Oc7c([H])c([H])c(F)c([H])c7F)c([H])c6[H])c(C(=O)N([H])[H])c5N([H])[H])C4([H])[H])c3[H])c([H])c([H])c2C1([H])[H]

>  <smiles>  (91) 
[H]c1c([H])c([H])c2c(c1[H])C([H])([H])C([H])([H])C([H])([H])C2([H])N([H])C(=O)C1([H])N(C(=O)C([H])(N([H])C(=O)C([H])(N([H])C([H])([H])[H])C([H])([H])[H])C(C([H])([H])[H])(C([H])([H])[H])C([H])([H])[H])C([H])([H])c2c([H])c(OC([H])([H])C([H])([H])n3nc(C([H])([H])C([H])([H])C([H])([H])C([H])([H])C([H])([H])[H])c(C([H])([H])C([H])([H])C([H])([H])N([H])C(=O)N4C([H])([H])C([H])([H])C([H])([H])C([H])(n5nc(-c6c([H])c([H])c(Oc7c([H])c([H])c(F)c([H])c7F)c([H])c6[H])c(C(=O)N([H])[H])c5N([H])[H])C4([H])[H])c3[H])c([H])c([H])c2C1([H])[H]

$$$$
91:0:0
     RDKit          3D

 86 94  0  0  1  0  0  0  0  0999 V2000
  -28.5450  -21.2630   19.6750 C   0  0  0  0  0  0  0  0  0  0  0  0
  -28.6310  -22.6580   20.3080 C   0  0  0  0  0  0  0  0  0  0  0  0
  -29.2860  -20.1900   20.3270 C   0  0  0  0  0  0  0  0  0  0  0  0
  -27.7520  -21.0210   18.4190 C   0  0  0  0  0  1  0  0  0  0  0  0
  -29.4150  -22.3540   21.3590 N   0  0  0  0  0  0  0  0  0  0  0  0
  -29.8080  -20.9580   21.3630 O   0  0  0  0  0  0  0  0  0  0  0  0
  -27.8520  -24.2240   20.0150 C   0  0  0  0  0  2  0  0  0  0  0  0
  -28.1610  -25.8210   20.3210 O   0  0  0  0  0  0  0  0  0  0  0  0
  -24.6230  -31.8520   23.2080 C   0  0  0  0  0  0  0  0  0  0  0  0
  -27.1720  -26.9430   20.2230 C   0  0  0  0  0  0  0  0  0  0  0  0
  -23.4280  -30.4490   21.5770 C   0  0  0  0  0  3  0  0  0  0  0  0
  -24.8760  -28.8340   20.1620 C   0  0  0  0  0  0  0  0  0  0  0  0
  -25.9940  -30.6530   21.4310 C   0  0  0  0  0  2  0  0  0  0  0  0
  -26.0640  -29.2380   20.7850 C   0  0  0  0  0  0  0  0  0  0  0  0
  -27.2050  -28.3130   20.7940 C   0  0  0  0  0  3  0  0  0  0  0  0
  -25.9560  -26.7010   19.5430 C   0  0  0  0  0  3  0  0  0  0  0  0
  -24.8480  -27.5870   19.5200 C   0  0  0  0  0  3  0  0  0  0  0  0
  -23.6580  -29.7570   20.2050 C   0  0  0  0  0  2  0  0  0  0  0  0
  -24.7030  -31.0120   22.1260 N   0  0  0  0  0  0  0  0  0  0  0  0
  -23.5330  -32.1470   23.7270 O   0  0  0  0  0  0  0  0  0  0  0  0
  -22.7310  -29.4600   22.5490 C   0  0  0  0  0  0  0  0  0  0  0  0
  -21.3990  -29.3020   22.4310 N   0  0  0  0  0  0  0  0  0  0  0  0
  -23.3960  -28.8340   23.3800 O   0  0  0  0  0  0  0  0  0  0  0  0
  -20.9160  -29.8590   21.7390 H   0  0  0  0  0  0  0  0  0  0  0  0
  -18.0130  -28.1080   22.9540 C   0  0  0  0  0  0  0  0  0  0  0  0
  -20.5740  -28.3710   23.2080 C   0  0  0  0  0  3  0  0  0  0  0  0
  -20.6710  -26.9350   22.6420 C   0  0  0  0  0  2  0  0  0  0  0  0
  -19.5670  -26.6100   21.6330 C   0  0  0  0  0  2  0  0  0  0  0  0
  -18.1870  -26.7570   22.2810 C   0  0  0  0  0  2  0  0  0  0  0  0
  -19.1340  -28.8720   23.3760 C   0  0  0  0  0  0  0  0  0  0  0  0
  -18.9150  -30.1340   23.9700 C   0  0  0  0  0  3  0  0  0  0  0  0
  -17.6110  -30.6330   24.1440 C   0  0  0  0  0  3  0  0  0  0  0  0
  -16.5040  -29.8650   23.7360 C   0  0  0  0  0  3  0  0  0  0  0  0
  -16.7070  -28.6050   23.1480 C   0  0  0  0  0  3  0  0  0  0  0  0
  -25.8950  -32.4980   23.8370 C   0  0  0  0  0  3  0  0  0  0  0  0
  -26.4010  -31.7380   25.1260 C   0  0  1  0  0  0  0  0  0  0  0  0
  -25.3000  -31.5150   26.1900 C   0  0  0  0  0  1  0  0  0  0  0  0
  -26.9830  -30.3540   24.7600 C   0  0  0  0  0  1  0  0  0  0  0  0
  -27.5500  -32.5360   25.7860 C   0  0  0  0  0  1  0  0  0  0  0  0
  -25.5770  -33.8990   24.1680 N   0  0  0  0  0  0  0  0  0  0  0  0
  -25.9090  -34.9590   23.4210 C   0  0  0  0  0  0  0  0  0  0  0  0
  -26.5790  -34.8630   22.3890 O   0  0  0  0  0  0  0  0  0  0  0  0
  -24.9800  -34.0460   24.9680 H   0  0  0  0  0  0  0  0  0  0  0  0
  -24.1860  -36.7650   23.0850 C   0  0  0  0  0  1  0  0  0  0  0  0
  -25.4270  -36.3480   23.8880 C   0  0  0  0  0  3  0  0  0  0  0  0
  -27.5650  -37.2280   24.7220 C   0  0  0  0  0  1  0  0  0  0  0  0
  -26.4620  -37.4010   23.7790 N   0  0  0  0  0  0  0  0  0  0  0  0
  -26.0580  -38.3210   23.9300 H   0  0  0  0  0  0  0  0  0  0  0  0
  -29.8840  -18.5550   20.0390 C   0  0  0  0  0  3  0  0  0  0  0  0
  -29.6070  -16.8630   20.6080 C   0  0  0  0  0  3  0  0  0  0  0  0
  -30.3910  -15.3150   20.2690 C   0  0  0  0  0  0  0  0  0  0  0  0
  -30.3770  -12.8670   19.3710 C   0  0  0  0  0  2  0  0  0  0  0  0
  -29.4490  -12.6940   18.1380 C   0  0  0  0  0  2  0  0  0  0  0  0
  -28.0000  -12.4220   18.5780 C   0  0  0  0  0  2  0  0  0  0  0  0
  -27.5590  -13.3690   19.7200 C   0  0  0  0  0  3  0  0  0  0  0  0
  -28.6110  -13.4890   20.8430 C   0  0  0  0  0  2  0  0  0  0  0  0
  -29.8530  -13.9930   20.2330 N   0  0  0  0  0  0  0  0  0  0  0  0
  -31.5910  -15.3180   19.9540 O   0  0  0  0  0  0  0  0  0  0  0  0
  -25.1880  -13.9230   20.4770 C   0  0  0  0  0  0  0  0  0  0  0  0
  -24.1280  -13.1440   20.8500 C   0  0  0  0  0  0  0  0  0  0  0  0
  -24.5970  -11.7950   20.8210 C   0  0  0  0  0  0  0  0  0  0  0  0
  -26.2320  -13.0500   20.2310 N   0  0  0  0  0  0  0  0  0  0  0  0
  -25.8890  -11.7630   20.5070 N   0  0  0  0  0  0  0  0  0  0  0  0
  -23.8710  -10.5320   21.0160 C   0  0  0  0  0  0  0  0  0  0  0  0
  -24.3080   -9.5630   21.9460 C   0  0  0  0  0  3  0  0  0  0  0  0
  -23.5790   -8.3670   22.1290 C   0  0  0  0  0  3  0  0  0  0  0  0
  -22.4000   -8.1320   21.3840 C   0  0  0  0  0  0  0  0  0  0  0  0
  -21.9830   -9.0900   20.4410 C   0  0  0  0  0  3  0  0  0  0  0  0
  -22.7120  -10.2770   20.2560 C   0  0  0  0  0  3  0  0  0  0  0  0
  -21.6440   -6.9880   21.4760 O   0  0  0  0  0  0  0  0  0  0  0  0
  -21.6040   -6.2440   22.6270 C   0  0  0  0  0  0  0  0  0  0  0  0
  -21.1910   -6.7970   23.8590 C   0  0  0  0  0  3  0  0  0  0  0  0
  -21.0980   -5.9780   25.0020 C   0  0  0  0  0  3  0  0  0  0  0  0
  -21.4080   -4.6070   24.9150 C   0  0  0  0  0  0  0  0  0  0  0  0
  -21.8130   -4.0530   23.6880 C   0  0  0  0  0  3  0  0  0  0  0  0
  -21.9070   -4.8700   22.5470 C   0  0  0  0  0  0  0  0  0  0  0  0
  -22.2780   -4.3260   21.3620 F   0  0  0  0  0  0  0  0  0  0  0  0
  -21.3110   -3.8180   26.0120 F   0  0  0  0  0  0  0  0  0  0  0  0
  -22.7300  -13.6210   21.1180 C   0  0  0  0  0  0  0  0  0  0  0  0
  -22.0020  -12.9280   21.9850 N   0  0  0  0  0  0  0  0  0  0  0  0
  -22.2940  -14.6440   20.5940 O   0  0  0  0  0  0  0  0  0  0  0  0
  -22.3690  -12.1000   22.4330 H   0  0  0  0  0  0  0  0  0  0  0  0
  -21.0640  -13.2310   22.2080 H   0  0  0  0  0  0  0  0  0  0  0  0
  -25.3470  -15.2940   20.2990 N   0  0  0  0  0  0  0  0  0  0  0  0
  -24.5790  -15.9460   20.4160 H   0  0  0  0  0  0  0  0  0  0  0  0
  -26.1960  -15.7360   19.9700 H   0  0  0  0  0  0  0  0  0  0  0  0
  1  2  1  0
  1  3  2  0
  2  5  2  0
  3  6  1  0
  4  1  1  0
  5  6  1  0
  7  2  1  0
  7  8  1  0
  9 20  2  0
 10  8  1  0
 10 15  1  0
 11 19  1  0
 11 21  1  0
 12 18  1  0
 12 14  1  0
 13 19  1  0
 14 15  2  0
 14 13  1  0
 16 10  2  0
 17 16  1  0
 17 12  2  0
 18 11  1  0
 19  9  1  0
 21 23  2  0
 22 21  1  0
 24 22  1  0
 25 34  2  0
 25 30  1  0
 26 22  1  0
 26 30  1  0
 27 26  1  0
 28 29  1  0
 28 27  1  0
 29 25  1  0
 30 31  2  0
 31 32  1  0
 33 32  2  0
 34 33  1  0
 35  9  1  0
 35 40  1  0
 35 36  1  0
 36 39  1  1
 36 37  1  0
 38 36  1  0
 40 43  1  0
 41 45  1  0
 41 40  1  0
 42 41  2  0
 45 44  1  0
 47 45  1  0
 47 48  1  0
 47 46  1  0
 49  3  1  0
 49 50  2  0
 51 50  1  0
 52 57  1  0
 53 54  1  0
 53 52  1  0
 55 54  1  0
 55 62  1  0
 55 56  1  0
 57 51  1  0
 57 56  1  0
 58 51  2  0
 59 60  2  0
 60 79  1  0
 61 60  1  0
 61 64  1  0
 62 59  1  0
 62 63  1  0
 63 61  2  0
 64 65  1  0
 65 66  2  0
 67 70  1  0
 67 66  1  0
 68 67  2  0
 69 68  1  0
 69 64  2  0
 70 71  1  0
 71 72  1  0
 72 73  2  0
 74 73  1  0
 74 78  1  0
 75 74  2  0
 76 71  2  0
 76 75  1  0
 77 76  1  0
 79 80  1  0
 80 83  1  0
 80 82  1  0
 81 79  2  0
 84 85  1  0
 84 59  1  0
 86 84  1  0
M  ISO  4   7 101   8 101  50 100  51 100
M  END
>  <TORSDO>  (92) 
F 19

>  <SCORE>  (92) 
-16.695

>  <name>  (92) 
91

>  <ligand_id>  (92) 
91

>  <original_smiles>  (92) 
[H]c1c([H])c([H])c2c(c1[H])C([H])([H])C([H])([H])C([H])([H])C2([H])N([H])C(=O)C1([H])N(C(=O)C([H])(N([H])C(=O)C([H])(N([H])C([H])([H])[H])C([H])([H])[H])C(C([H])([H])[H])(C([H])([H])[H])C([H])([H])[H])C([H])([H])c2c([H])c(OC([H])([H])c3noc(C([H])([H])C([H])([H])C(=O)N4C([H])([H])C([H])([H])C([H])([H])C([H])(n5nc(-c6c([H])c([H])c(Oc7c([H])c([H])c(F)c([H])c7F)c([H])c6[H])c(C(=O)N([H])[H])c5N([H])[H])C4([H])[H])c3C([H])([H])[H])c([H])c([H])c2C1([H])[H]

>  <smiles>  (92) 
[H]c1c([H])c([H])c2c(c1[H])C([H])([H])C([H])([H])C([H])([H])C2([H])N([H])C(=O)C1([H])N(C(=O)C([H])(N([H])C(=O)C([H])(N([H])C([H])([H])[H])C([H])([H])[H])C(C([H])([H])[H])(C([H])([H])[H])C([H])([H])[H])C([H])([H])c2c([H])c(OC([H])([H])c3noc(C([H])([H])C([H])([H])C(=O)N4C([H])([H])C([H])([H])C([H])([H])C([H])(n5nc(-c6c([H])c([H])c(Oc7c([H])c([H])c(F)c([H])c7F)c([H])c6[H])c(C(=O)N([H])[H])c5N([H])[H])C4([H])[H])c3C([H])([H])[H])c([H])c([H])c2C1([H])[H]

$$$$
92:0:0
     RDKit          3D

 95103  0  0  1  0  0  0  0  0999 V2000
  -30.8920  -24.3640   21.6550 C   0  0  0  0  0  0  0  0  0  0  0  0
  -31.5770  -25.0170   20.5910 C   0  0  0  0  0  0  0  0  0  0  0  0
  -29.6860  -25.0060   21.7270 C   0  0  0  0  0  0  0  0  0  0  0  0
  -32.9510  -24.7380   20.0530 C   0  0  0  0  0  1  0  0  0  0  0  0
  -28.5300  -24.7800   22.6490 C   0  0  0  0  0  1  0  0  0  0  0  0
  -30.8260  -25.9430   20.0140 N   0  0  0  0  0  0  0  0  0  0  0  0
  -29.6480  -25.9060   20.6780 N   0  0  0  0  0  0  0  0  0  0  0  0
  -31.3520  -23.1710   22.4550 C   0  0  0  0  0  2  0  0  0  0  0  0
  -30.7310  -21.9040   21.8470 C   0  0  0  0  0  2  0  0  0  0  0  0
  -31.2540  -20.5810   22.4170 C   0  0  0  0  0  2  0  0  0  0  0  0
  -30.6500  -19.3980   21.6450 C   0  0  0  0  0  2  0  0  0  0  0  0
  -31.2570  -18.0390   22.0090 C   0  0  0  0  0  2  0  0  0  0  0  0
  -30.5670  -16.8950   21.2510 C   0  0  0  0  0  2  0  0  0  0  0  0
  -31.2360  -15.5380   21.5020 C   0  0  0  0  0  2  0  0  0  0  0  0
  -30.5220  -13.8100   19.8430 C   0  0  0  0  0  0  0  0  0  0  0  0
  -30.1430  -11.6090   18.8010 C   0  0  0  0  0  2  0  0  0  0  0  0
  -29.0970  -11.6190   17.6740 C   0  0  0  0  0  2  0  0  0  0  0  0
  -27.6820  -11.4400   18.2490 C   0  0  0  0  0  2  0  0  0  0  0  0
  -27.3880  -12.4250   19.4080 C   0  0  0  0  0  3  0  0  0  0  0  0
  -28.5250  -12.4070   20.4530 C   0  0  0  0  0  2  0  0  0  0  0  0
  -29.8090  -12.6610   19.7700 N   0  0  0  0  0  0  0  0  0  0  0  0
  -31.3510  -14.1620   18.9960 O   0  0  0  0  0  0  0  0  0  0  0  0
  -30.4060  -14.4400   21.0190 N   0  0  0  0  0  0  0  0  0  0  0  0
  -29.7550  -14.0310   21.6750 H   0  0  0  0  0  0  0  0  0  0  0  0
  -25.0830  -13.0280   20.3880 C   0  0  0  0  0  0  0  0  0  0  0  0
  -24.0530  -12.2510   20.8520 C   0  0  0  0  0  0  0  0  0  0  0  0
  -24.4980  -10.8990   20.7340 C   0  0  0  0  0  0  0  0  0  0  0  0
  -26.0900  -12.1480   20.0230 N   0  0  0  0  0  0  0  0  0  0  0  0
  -25.7450  -10.8620   20.2830 N   0  0  0  0  0  0  0  0  0  0  0  0
  -23.7870   -9.6350   20.9690 C   0  0  0  0  0  0  0  0  0  0  0  0
  -24.2030   -8.7290   21.9700 C   0  0  0  0  0  3  0  0  0  0  0  0
  -23.4920   -7.5290   22.1880 C   0  0  0  0  0  3  0  0  0  0  0  0
  -22.3530   -7.2260   21.4060 C   0  0  0  0  0  0  0  0  0  0  0  0
  -21.9570   -8.1210   20.3970 C   0  0  0  0  0  3  0  0  0  0  0  0
  -22.6670   -9.3120   20.1770 C   0  0  0  0  0  3  0  0  0  0  0  0
  -21.6170   -6.0720   21.5310 O   0  0  0  0  0  0  0  0  0  0  0  0
  -21.4610   -5.4440   22.7400 C   0  0  0  0  0  0  0  0  0  0  0  0
  -20.8510   -6.0860   23.8400 C   0  0  0  0  0  3  0  0  0  0  0  0
  -20.6490   -5.3800   25.0420 C   0  0  0  0  0  3  0  0  0  0  0  0
  -21.0470   -4.0330   25.1460 C   0  0  0  0  0  0  0  0  0  0  0  0
  -21.6500   -3.3910   24.0500 C   0  0  0  0  0  3  0  0  0  0  0  0
  -21.8530   -4.0950   22.8490 C   0  0  0  0  0  0  0  0  0  0  0  0
  -22.4160   -3.4650   21.7890 F   0  0  0  0  0  0  0  0  0  0  0  0
  -20.8450   -3.3530   26.2980 F   0  0  0  0  0  0  0  0  0  0  0  0
  -22.6990  -12.7270   21.2900 C   0  0  0  0  0  0  0  0  0  0  0  0
  -22.0710  -12.0170   22.2220 N   0  0  0  0  0  0  0  0  0  0  0  0
  -22.2090  -13.7620   20.8420 O   0  0  0  0  0  0  0  0  0  0  0  0
  -22.4830  -11.1790   22.6050 H   0  0  0  0  0  0  0  0  0  0  0  0
  -21.1680  -12.3180   22.5580 H   0  0  0  0  0  0  0  0  0  0  0  0
  -25.2390  -14.4020   20.2320 N   0  0  0  0  0  0  0  0  0  0  0  0
  -24.5010  -15.0640   20.4440 H   0  0  0  0  0  0  0  0  0  0  0  0
  -26.0660  -14.8420   19.8450 H   0  0  0  0  0  0  0  0  0  0  0  0
  -28.5320  -26.7080   20.1970 C   0  0  0  0  0  2  0  0  0  0  0  0
  -27.4150  -25.8110   19.6280 C   0  0  0  0  0  2  0  0  0  0  0  0
  -26.7040  -26.4330   18.5640 O   0  0  0  0  0  0  0  0  0  0  0  0
  -24.3080  -31.3270   23.1560 C   0  0  0  0  0  0  0  0  0  0  0  0
  -25.7050  -27.2830   18.9550 C   0  0  0  0  0  0  0  0  0  0  0  0
  -22.6580  -30.4600   21.5250 C   0  0  0  0  0  3  0  0  0  0  0  0
  -23.6130  -29.0410   19.6350 C   0  0  0  0  0  0  0  0  0  0  0  0
  -25.1490  -30.5020   20.9650 C   0  0  0  0  0  2  0  0  0  0  0  0
  -24.9110  -29.2810   20.1050 C   0  0  0  0  0  0  0  0  0  0  0  0
  -25.9620  -28.4020   19.7730 C   0  0  0  0  0  3  0  0  0  0  0  0
  -24.3980  -27.0480   18.4840 C   0  0  0  0  0  3  0  0  0  0  0  0
  -23.3470  -27.9200   18.8290 C   0  0  0  0  0  3  0  0  0  0  0  0
  -22.5490  -30.0390   20.0350 C   0  0  0  0  0  2  0  0  0  0  0  0
  -24.0660  -30.7620   21.9390 N   0  0  0  0  0  0  0  0  0  0  0  0
  -23.3780  -31.6360   23.9130 O   0  0  0  0  0  0  0  0  0  0  0  0
  -21.9860  -29.3720   22.3930 C   0  0  0  0  0  0  0  0  0  0  0  0
  -20.6460  -29.3060   22.3370 N   0  0  0  0  0  0  0  0  0  0  0  0
  -22.6630  -28.5960   23.0720 O   0  0  0  0  0  0  0  0  0  0  0  0
  -20.1640  -29.9840   21.7620 H   0  0  0  0  0  0  0  0  0  0  0  0
  -17.2320  -28.2220   22.7920 C   0  0  0  0  0  0  0  0  0  0  0  0
  -19.8010  -28.3410   23.0380 C   0  0  0  0  0  3  0  0  0  0  0  0
  -19.8310  -26.9640   22.3350 C   0  0  0  0  0  2  0  0  0  0  0  0
  -18.7010  -26.7810   21.3170 C   0  0  0  0  0  2  0  0  0  0  0  0
  -17.3360  -26.9290   21.9980 C   0  0  0  0  0  2  0  0  0  0  0  0
  -18.3900  -28.8920   23.2670 C   0  0  0  0  0  0  0  0  0  0  0  0
  -18.2400  -30.1070   23.9700 C   0  0  0  0  0  3  0  0  0  0  0  0
  -16.9620  -30.6500   24.2020 C   0  0  0  0  0  3  0  0  0  0  0  0
  -15.8180  -29.9750   23.7440 C   0  0  0  0  0  3  0  0  0  0  0  0
  -15.9530  -28.7620   23.0460 C   0  0  0  0  0  3  0  0  0  0  0  0
  -25.7600  -31.6320   23.6430 C   0  0  0  0  0  3  0  0  0  0  0  0
  -26.2980  -30.5780   24.6870 C   0  0  1  0  0  0  0  0  0  0  0  0
  -25.3290  -30.3210   25.8640 C   0  0  0  0  0  1  0  0  0  0  0  0
  -26.5780  -29.2210   24.0000 C   0  0  0  0  0  1  0  0  0  0  0  0
  -27.6440  -31.0650   25.2760 C   0  0  0  0  0  1  0  0  0  0  0  0
  -25.7580  -32.9820   24.2180 N   0  0  0  0  0  0  0  0  0  0  0  0
  -26.2640  -34.0660   23.6120 C   0  0  0  0  0  0  0  0  0  0  0  0
  -26.8520  -34.0150   22.5290 O   0  0  0  0  0  0  0  0  0  0  0  0
  -25.2410  -33.1090   25.0750 H   0  0  0  0  0  0  0  0  0  0  0  0
  -24.9430  -36.2050   23.6590 C   0  0  0  0  0  1  0  0  0  0  0  0
  -26.0880  -35.4220   24.3220 C   0  0  0  0  0  3  0  0  0  0  0  0
  -28.3750  -35.6980   25.1740 C   0  0  0  0  0  1  0  0  0  0  0  0
  -27.3180  -36.2460   24.3280 N   0  0  0  0  0  0  0  0  0  0  0  0
  -27.1170  -37.1910   24.6420 H   0  0  0  0  0  0  0  0  0  0  0  0
  1  3  2  0
  1  8  1  0
  2  1  1  0
  3  5  1  0
  4  2  1  0
  6  2  2  0
  6  7  1  0
  7  3  1  0
  9 10  1  0
  9  8  1  0
 11 12  1  0
 11 10  1  0
 13 14  1  0
 13 12  1  0
 15 23  1  0
 16 21  1  0
 17 18  1  0
 17 16  1  0
 19 18  1  0
 19 28  1  0
 19 20  1  0
 21 15  1  0
 21 20  1  0
 22 15  2  0
 23 14  1  0
 23 24  1  0
 25 26  2  0
 26 45  1  0
 27 26  1  0
 27 30  1  0
 28 29  1  0
 28 25  1  0
 29 27  2  0
 30 31  1  0
 31 32  2  0
 33 36  1  0
 33 32  1  0
 34 33  2  0
 35 34  1  0
 35 30  2  0
 36 37  1  0
 37 42  2  0
 37 38  1  0
 38 39  2  0
 39 40  1  0
 40 44  1  0
 41 40  2  0
 42 41  1  0
 43 42  1  0
 45 46  1  0
 46 49  1  0
 46 48  1  0
 47 45  2  0
 50 25  1  0
 50 51  1  0
 52 50  1  0
 53  7  1  0
 54 53  1  0
 55 57  1  0
 55 54  1  0
 56 67  2  0
 57 62  1  0
 58 66  1  0
 58 68  1  0
 59 65  1  0
 59 61  1  0
 60 66  1  0
 61 60  1  0
 62 61  2  0
 63 64  1  0
 63 57  2  0
 64 59  2  0
 65 58  1  0
 66 56  1  0
 68 70  2  0
 69 68  1  0
 71 69  1  0
 72 81  2  0
 72 77  1  0
 73 69  1  0
 73 77  1  0
 74 73  1  0
 75 76  1  0
 75 74  1  0
 76 72  1  0
 77 78  2  0
 78 79  1  0
 80 79  2  0
 81 80  1  0
 82 56  1  0
 82 87  1  0
 82 83  1  0
 83 86  1  1
 83 84  1  0
 85 83  1  0
 87 90  1  0
 88 87  1  0
 88 92  1  0
 89 88  2  0
 92 91  1  0
 92 94  1  0
 94 95  1  0
 94 93  1  0
M  ISO  4  15 100  23 100  54 101  55 101
M  END
>  <TORSDO>  (93) 
F 25

>  <SCORE>  (93) 
-7.177

>  <name>  (93) 
92

>  <ligand_id>  (93) 
92

>  <original_smiles>  (93) 
[H]c1c([H])c([H])c2c(c1[H])C([H])([H])C([H])([H])C([H])([H])C2([H])N([H])C(=O)C1([H])N(C(=O)C([H])(N([H])C(=O)C([H])(N([H])C([H])([H])[H])C([H])([H])[H])C(C([H])([H])[H])(C([H])([H])[H])C([H])([H])[H])C([H])([H])c2c([H])c(OC([H])([H])C([H])([H])n3nc(C([H])([H])[H])c(C([H])([H])C([H])([H])C([H])([H])C([H])([H])C([H])([H])C([H])([H])C([H])([H])N([H])C(=O)N4C([H])([H])C([H])([H])C([H])([H])C([H])(n5nc(-c6c([H])c([H])c(Oc7c([H])c([H])c(F)c([H])c7F)c([H])c6[H])c(C(=O)N([H])[H])c5N([H])[H])C4([H])[H])c3C([H])([H])[H])c([H])c([H])c2C1([H])[H]

>  <smiles>  (93) 
[H]c1c([H])c([H])c2c(c1[H])C([H])([H])C([H])([H])C([H])([H])C2([H])N([H])C(=O)C1([H])N(C(=O)C([H])(N([H])C(=O)C([H])(N([H])C([H])([H])[H])C([H])([H])[H])C(C([H])([H])[H])(C([H])([H])[H])C([H])([H])[H])C([H])([H])c2c([H])c(OC([H])([H])C([H])([H])n3nc(C([H])([H])[H])c(C([H])([H])C([H])([H])C([H])([H])C([H])([H])C([H])([H])C([H])([H])C([H])([H])N([H])C(=O)N4C([H])([H])C([H])([H])C([H])([H])C([H])(n5nc(-c6c([H])c([H])c(Oc7c([H])c([H])c(F)c([H])c7F)c([H])c6[H])c(C(=O)N([H])[H])c5N([H])[H])C4([H])[H])c3C([H])([H])[H])c([H])c([H])c2C1([H])[H]

$$$$
93:0:0
     RDKit          3D

 92100  0  0  1  0  0  0  0  0999 V2000
  -29.1120  -21.2540   20.6380 C   0  0  0  0  0  3  0  0  0  0  0  0
  -29.8120  -20.3110   21.3420 C   0  0  0  0  0  0  0  0  0  0  0  0
  -31.0680  -20.9340   21.5910 C   0  0  0  0  0  0  0  0  0  0  0  0
  -31.1260  -22.1630   21.1020 N   0  0  0  0  0  0  0  0  0  0  0  0
  -29.9320  -22.3560   20.5030 N   0  0  0  0  0  0  0  0  0  0  0  0
  -32.3320  -20.8290   23.7630 C   0  0  0  0  0  1  0  0  0  0  0  0
  -32.2650  -20.3690   22.3040 C   0  0  0  0  0  2  0  0  0  0  0  0
  -29.4010  -18.9140   21.7330 C   0  0  0  0  0  2  0  0  0  0  0  0
  -29.9080  -17.9040   20.6950 C   0  0  0  0  0  2  0  0  0  0  0  0
  -29.7470  -16.4260   21.0910 C   0  0  0  0  0  2  0  0  0  0  0  0
  -31.0450  -14.5530   20.0870 C   0  0  0  0  0  0  0  0  0  0  0  0
  -30.6700  -12.4230   18.9500 C   0  0  0  0  0  2  0  0  0  0  0  0
  -29.7000  -12.6920   17.7810 C   0  0  0  0  0  2  0  0  0  0  0  0
  -28.2350  -12.5990   18.2530 C   0  0  0  0  0  2  0  0  0  0  0  0
  -27.9600  -13.4150   19.5440 C   0  0  0  0  0  3  0  0  0  0  0  0
  -29.0410  -13.1410   20.6170 C   0  0  0  0  0  2  0  0  0  0  0  0
  -30.3540  -13.3920   20.0040 N   0  0  0  0  0  0  0  0  0  0  0  0
  -32.2140  -14.6820   19.7220 O   0  0  0  0  0  0  0  0  0  0  0  0
  -30.2570  -15.6280   19.9870 N   0  0  0  0  0  0  0  0  0  0  0  0
  -30.5960  -16.2290   19.2490 H   0  0  0  0  0  0  0  0  0  0  0  0
  -25.5940  -14.0810   20.3070 C   0  0  0  0  0  0  0  0  0  0  0  0
  -24.5180  -13.3320   20.7000 C   0  0  0  0  0  0  0  0  0  0  0  0
  -24.9510  -11.9720   20.6620 C   0  0  0  0  0  0  0  0  0  0  0  0
  -26.6140  -13.1760   20.0550 N   0  0  0  0  0  0  0  0  0  0  0  0
  -26.2310  -11.9030   20.3250 N   0  0  0  0  0  0  0  0  0  0  0  0
  -24.2040  -10.7250   20.8660 C   0  0  0  0  0  0  0  0  0  0  0  0
  -24.6030   -9.7790   21.8350 C   0  0  0  0  0  3  0  0  0  0  0  0
  -23.8600   -8.5940   22.0250 C   0  0  0  0  0  3  0  0  0  0  0  0
  -22.7050   -8.3490   21.2440 C   0  0  0  0  0  0  0  0  0  0  0  0
  -22.3280   -9.2830   20.2630 C   0  0  0  0  0  3  0  0  0  0  0  0
  -23.0710  -10.4580   20.0720 C   0  0  0  0  0  3  0  0  0  0  0  0
  -21.9360   -7.2140   21.3430 O   0  0  0  0  0  0  0  0  0  0  0  0
  -21.7890   -6.5450   22.5320 C   0  0  0  0  0  0  0  0  0  0  0  0
  -21.2710   -7.1750   23.6830 C   0  0  0  0  0  3  0  0  0  0  0  0
  -21.0730   -6.4310   24.8640 C   0  0  0  0  0  3  0  0  0  0  0  0
  -21.3830   -5.0590   24.8920 C   0  0  0  0  0  0  0  0  0  0  0  0
  -21.8950   -4.4280   23.7460 C   0  0  0  0  0  3  0  0  0  0  0  0
  -22.0950   -5.1690   22.5670 C   0  0  0  0  0  0  0  0  0  0  0  0
  -22.5680   -4.5510   21.4580 F   0  0  0  0  0  0  0  0  0  0  0  0
  -21.1860   -4.3430   26.0240 F   0  0  0  0  0  0  0  0  0  0  0  0
  -23.1380  -13.8380   21.0040 C   0  0  0  0  0  0  0  0  0  0  0  0
  -22.4200  -13.1610   21.8930 N   0  0  0  0  0  0  0  0  0  0  0  0
  -22.7060  -14.8690   20.4900 O   0  0  0  0  0  0  0  0  0  0  0  0
  -22.7860  -12.3280   22.3320 H   0  0  0  0  0  0  0  0  0  0  0  0
  -21.4950  -13.4810   22.1400 H   0  0  0  0  0  0  0  0  0  0  0  0
  -25.7840  -15.4500   20.1230 N   0  0  0  0  0  0  0  0  0  0  0  0
  -25.0330  -16.1200   20.2490 H   0  0  0  0  0  0  0  0  0  0  0  0
  -26.6340  -15.8670   19.7680 H   0  0  0  0  0  0  0  0  0  0  0  0
  -29.6950  -23.5930   19.7710 C   0  0  0  0  0  2  0  0  0  0  0  0
  -28.5060  -24.4430   20.3240 C   0  0  0  0  0  2  0  0  0  0  0  0
  -28.5680  -25.9260   20.8080 C   0  0  0  0  0  2  0  0  0  0  0  0
  -28.2260  -26.8770   19.7940 O   0  0  0  0  0  0  0  0  0  0  0  0
  -24.5040  -31.8950   23.1960 C   0  0  0  0  0  0  0  0  0  0  0  0
  -27.0400  -27.5410   19.9490 C   0  0  0  0  0  0  0  0  0  0  0  0
  -23.2380  -30.5290   21.5640 C   0  0  0  0  0  3  0  0  0  0  0  0
  -24.6400  -29.0100   20.0750 C   0  0  0  0  0  0  0  0  0  0  0  0
  -25.7500  -30.8950   21.2890 C   0  0  0  0  0  2  0  0  0  0  0  0
  -25.8140  -29.5330   20.6340 C   0  0  0  0  0  0  0  0  0  0  0  0
  -27.0180  -28.8050   20.5730 C   0  0  0  0  0  3  0  0  0  0  0  0
  -25.8560  -27.0130   19.4010 C   0  0  0  0  0  3  0  0  0  0  0  0
  -24.6530  -27.7440   19.4620 C   0  0  0  0  0  3  0  0  0  0  0  0
  -23.4000  -29.8710   20.1680 C   0  0  0  0  0  2  0  0  0  0  0  0
  -24.5160  -31.1200   22.0750 N   0  0  0  0  0  0  0  0  0  0  0  0
  -23.4420  -32.1590   23.7770 O   0  0  0  0  0  0  0  0  0  0  0  0
  -22.6150  -29.4930   22.5280 C   0  0  0  0  0  0  0  0  0  0  0  0
  -21.2910  -29.3030   22.4230 N   0  0  0  0  0  0  0  0  0  0  0  0
  -23.3210  -28.8610   23.3180 O   0  0  0  0  0  0  0  0  0  0  0  0
  -20.7830  -29.8690   21.7570 H   0  0  0  0  0  0  0  0  0  0  0  0
  -17.9370  -28.0680   22.9490 C   0  0  0  0  0  0  0  0  0  0  0  0
  -20.4930  -28.3530   23.1990 C   0  0  0  0  0  3  0  0  0  0  0  0
  -20.6080  -26.9260   22.6140 C   0  0  0  0  0  2  0  0  0  0  0  0
  -19.5000  -26.5950   21.6100 C   0  0  0  0  0  2  0  0  0  0  0  0
  -18.1230  -26.7230   22.2670 C   0  0  0  0  0  2  0  0  0  0  0  0
  -19.0500  -28.8390   23.3730 C   0  0  0  0  0  0  0  0  0  0  0  0
  -18.8240  -30.0970   23.9700 C   0  0  0  0  0  3  0  0  0  0  0  0
  -17.5160  -30.5840   24.1480 C   0  0  0  0  0  3  0  0  0  0  0  0
  -16.4170  -29.8110   23.7410 C   0  0  0  0  0  3  0  0  0  0  0  0
  -16.6280  -28.5540   23.1470 C   0  0  0  0  0  3  0  0  0  0  0  0
  -25.8130  -32.5050   23.7860 C   0  0  0  0  0  3  0  0  0  0  0  0
  -25.5300  -33.9010   24.1370 N   0  0  0  0  0  0  0  0  0  0  0  0
  -25.8700  -34.9580   23.3870 C   0  0  0  0  0  0  0  0  0  0  0  0
  -26.5250  -34.8580   22.3460 O   0  0  0  0  0  0  0  0  0  0  0  0
  -24.9470  -34.0550   24.9470 H   0  0  0  0  0  0  0  0  0  0  0  0
  -24.1710  -36.7820   23.0640 C   0  0  0  0  0  1  0  0  0  0  0  0
  -25.4070  -36.3470   23.8670 C   0  0  0  0  0  3  0  0  0  0  0  0
  -27.5570  -37.1800   24.7080 C   0  0  0  0  0  1  0  0  0  0  0  0
  -26.4570  -37.3840   23.7690 N   0  0  0  0  0  0  0  0  0  0  0  0
  -26.0670  -38.3080   23.9330 H   0  0  0  0  0  0  0  0  0  0  0  0
  -26.3620  -31.7150   25.0360 C   0  0  1  0  0  0  0  0  0  0  0  0
  -25.2990  -31.4740   26.1320 C   0  0  0  0  0  1  0  0  0  0  0  0
  -26.9210  -30.3380   24.6040 C   0  0  0  0  0  1  0  0  0  0  0  0
  -27.5400  -32.4910   25.6720 C   0  0  0  0  0  1  0  0  0  0  0  0
  1  2  2  0
  2  3  1  0
  2  8  1  0
  3  7  1  0
  4  3  2  0
  5  1  1  0
  5  4  1  0
  7  6  1  0
  9 10  1  0
  9  8  1  0
 12 17  1  0
 13 14  1  0
 13 12  1  0
 15 14  1  0
 15 24  1  0
 15 16  1  0
 17 11  1  0
 17 16  1  0
 18 11  2  0
 19 11  1  0
 19 10  1  0
 20 19  1  0
 21 22  2  0
 22 41  1  0
 23 22  1  0
 23 26  1  0
 24 21  1  0
 24 25  1  0
 25 23  2  0
 26 27  1  0
 27 28  2  0
 29 32  1  0
 29 28  1  0
 30 29  2  0
 31 30  1  0
 31 26  2  0
 32 33  1  0
 33 38  2  0
 33 34  1  0
 34 35  2  0
 35 36  1  0
 36 40  1  0
 37 36  2  0
 38 37  1  0
 39 38  1  0
 41 42  1  0
 42 45  1  0
 42 44  1  0
 43 41  2  0
 46 47  1  0
 46 21  1  0
 48 46  1  0
 49 50  1  0
 49  5  1  0
 50 51  1  0
 52 54  1  0
 52 51  1  0
 53 64  2  0
 54 59  1  0
 55 63  1  0
 55 65  1  0
 56 62  1  0
 56 58  1  0
 57 63  1  0
 58 57  1  0
 59 58  2  0
 60 61  1  0
 60 54  2  0
 61 56  2  0
 62 55  1  0
 63 53  1  0
 65 67  2  0
 66 65  1  0
 68 66  1  0
 69 78  2  0
 69 74  1  0
 70 66  1  0
 70 74  1  0
 71 70  1  0
 72 73  1  0
 72 71  1  0
 73 69  1  0
 74 75  2  0
 75 76  1  0
 77 76  2  0
 78 77  1  0
 79 53  1  0
 79 80  1  0
 79 89  1  0
 80 83  1  0
 81 85  1  0
 81 80  1  0
 82 81  2  0
 85 84  1  0
 87 85  1  0
 87 88  1  0
 87 86  1  0
 89 92  1  1
 89 90  1  0
 91 89  1  0
M  ISO  4  11 100  19 100  51 101  52 101
M  END
>  <TORSDO>  (94) 
F 23

>  <SCORE>  (94) 
-12.076

>  <name>  (94) 
93

>  <ligand_id>  (94) 
93

>  <original_smiles>  (94) 
[H]c1c([H])c([H])c2c(c1[H])C([H])([H])C([H])([H])C([H])([H])C2([H])N([H])C(=O)C1([H])N(C(=O)C([H])(N([H])C(=O)C([H])(N([H])C([H])([H])[H])C([H])([H])[H])C(C([H])([H])[H])(C([H])([H])[H])C([H])([H])[H])C([H])([H])c2c([H])c(OC([H])([H])C([H])([H])C([H])([H])n3nc(C([H])([H])C([H])([H])[H])c(C([H])([H])C([H])([H])C([H])([H])N([H])C(=O)N4C([H])([H])C([H])([H])C([H])([H])C([H])(n5nc(-c6c([H])c([H])c(Oc7c([H])c([H])c(F)c([H])c7F)c([H])c6[H])c(C(=O)N([H])[H])c5N([H])[H])C4([H])[H])c3[H])c([H])c([H])c2C1([H])[H]

>  <smiles>  (94) 
[H]c1c([H])c([H])c2c(c1[H])C([H])([H])C([H])([H])C([H])([H])C2([H])N([H])C(=O)C1([H])N(C(=O)C([H])(N([H])C(=O)C([H])(N([H])C([H])([H])[H])C([H])([H])[H])C(C([H])([H])[H])(C([H])([H])[H])C([H])([H])[H])C([H])([H])c2c([H])c(OC([H])([H])C([H])([H])C([H])([H])n3nc(C([H])([H])C([H])([H])[H])c(C([H])([H])C([H])([H])C([H])([H])N([H])C(=O)N4C([H])([H])C([H])([H])C([H])([H])C([H])(n5nc(-c6c([H])c([H])c(Oc7c([H])c([H])c(F)c([H])c7F)c([H])c6[H])c(C(=O)N([H])[H])c5N([H])[H])C4([H])[H])c3[H])c([H])c([H])c2C1([H])[H]

$$$$
94:0:0
     RDKit          3D

 92100  0  0  1  0  0  0  0  0999 V2000
  -30.0550  -20.2760   18.9750 C   0  0  0  0  0  3  0  0  0  0  0  0
  -30.1100  -22.6760   18.6480 C   0  0  0  0  0  3  0  0  0  0  0  0
  -30.3480  -21.3790   18.1540 C   0  0  0  0  0  0  0  0  0  0  0  0
  -29.5410  -20.4950   20.2650 C   0  0  0  0  0  0  0  0  0  0  0  0
  -29.5970  -22.8420   19.9490 C   0  0  0  0  0  0  0  0  0  0  0  0
  -29.3150  -21.7610   20.7380 N   0  0  0  0  0  0  0  0  0  0  0  0
  -29.8170  -20.7590   15.7590 C   0  0  0  0  0  1  0  0  0  0  0  0
  -30.9040  -21.1670   16.7590 C   0  0  0  0  0  2  0  0  0  0  0  0
  -29.1300  -19.2980   21.1510 C   0  0  0  0  0  2  0  0  0  0  0  0
  -30.0820  -18.0520   21.2780 C   0  0  0  0  0  2  0  0  0  0  0  0
  -30.0170  -16.9520   20.1680 C   0  0  0  0  0  2  0  0  0  0  0  0
  -30.6590  -14.4910   20.2310 C   0  0  0  0  0  0  0  0  0  0  0  0
  -30.3490  -12.3180   19.1060 C   0  0  0  0  0  2  0  0  0  0  0  0
  -29.3840  -12.5360   17.9190 C   0  0  0  0  0  2  0  0  0  0  0  0
  -27.9180  -12.4010   18.3740 C   0  0  0  0  0  2  0  0  0  0  0  0
  -27.6110  -13.2240   19.6550 C   0  0  0  0  0  3  0  0  0  0  0  0
  -28.6900  -12.9930   20.7400 C   0  0  0  0  0  2  0  0  0  0  0  0
  -30.0020  -13.2980   20.1480 N   0  0  0  0  0  0  0  0  0  0  0  0
  -31.7860  -14.6600   19.7590 O   0  0  0  0  0  0  0  0  0  0  0  0
  -29.9090  -15.5430   20.6410 N   0  0  0  0  0  0  0  0  0  0  0  0
  -29.0210  -15.2860   21.0470 H   0  0  0  0  0  0  0  0  0  0  0  0
  -25.2270  -13.8380   20.4030 C   0  0  0  0  0  0  0  0  0  0  0  0
  -24.1640  -13.0690   20.7950 C   0  0  0  0  0  0  0  0  0  0  0  0
  -24.6220  -11.7170   20.7650 C   0  0  0  0  0  0  0  0  0  0  0  0
  -26.2660  -12.9530   20.1580 N   0  0  0  0  0  0  0  0  0  0  0  0
  -25.9070  -11.6730   20.4340 N   0  0  0  0  0  0  0  0  0  0  0  0
  -23.8960  -10.4580   20.9740 C   0  0  0  0  0  0  0  0  0  0  0  0
  -24.3360   -9.4990   21.9130 C   0  0  0  0  0  3  0  0  0  0  0  0
  -23.6120   -8.3040   22.1110 C   0  0  0  0  0  3  0  0  0  0  0  0
  -22.4310   -8.0600   21.3690 C   0  0  0  0  0  0  0  0  0  0  0  0
  -22.0100   -9.0060   20.4190 C   0  0  0  0  0  3  0  0  0  0  0  0
  -22.7350  -10.1930   20.2200 C   0  0  0  0  0  3  0  0  0  0  0  0
  -21.6760   -6.9160   21.4760 O   0  0  0  0  0  0  0  0  0  0  0  0
  -21.6350   -6.1870   22.6370 C   0  0  0  0  0  0  0  0  0  0  0  0
  -21.2030   -6.7520   23.8570 C   0  0  0  0  0  3  0  0  0  0  0  0
  -21.1090   -5.9490   25.0110 C   0  0  0  0  0  3  0  0  0  0  0  0
  -21.4360   -4.5820   24.9460 C   0  0  0  0  0  0  0  0  0  0  0  0
  -21.8610   -4.0160   23.7320 C   0  0  0  0  0  3  0  0  0  0  0  0
  -21.9570   -4.8170   22.5800 C   0  0  0  0  0  0  0  0  0  0  0  0
  -22.3480   -4.2610   21.4070 F   0  0  0  0  0  0  0  0  0  0  0  0
  -21.3390   -3.8080   26.0530 F   0  0  0  0  0  0  0  0  0  0  0  0
  -22.7730  -13.5520   21.0880 C   0  0  0  0  0  0  0  0  0  0  0  0
  -22.0570  -12.8620   21.9700 N   0  0  0  0  0  0  0  0  0  0  0  0
  -22.3290  -14.5760   20.5720 O   0  0  0  0  0  0  0  0  0  0  0  0
  -22.4280  -12.0350   22.4110 H   0  0  0  0  0  0  0  0  0  0  0  0
  -21.1230  -13.1670   22.2070 H   0  0  0  0  0  0  0  0  0  0  0  0
  -25.3900  -15.2070   20.2130 N   0  0  0  0  0  0  0  0  0  0  0  0
  -24.6220  -15.8600   20.3270 H   0  0  0  0  0  0  0  0  0  0  0  0
  -26.2280  -15.6450   19.8520 H   0  0  0  0  0  0  0  0  0  0  0  0
  -29.4330  -24.2760   20.5160 C   0  0  0  0  0  2  0  0  0  0  0  0
  -28.2760  -25.1440   19.9220 C   0  0  0  0  0  2  0  0  0  0  0  0
  -28.3620  -26.5680   20.2380 O   0  0  0  0  0  0  0  0  0  0  0  0
  -24.5810  -31.8560   23.2260 C   0  0  0  0  0  0  0  0  0  0  0  0
  -27.2070  -27.3430   20.1770 C   0  0  0  0  0  0  0  0  0  0  0  0
  -23.3770  -30.4580   21.5830 C   0  0  0  0  0  3  0  0  0  0  0  0
  -24.8280  -28.9070   20.1650 C   0  0  0  0  0  0  0  0  0  0  0  0
  -25.9110  -30.7870   21.4020 C   0  0  0  0  0  2  0  0  0  0  0  0
  -25.9900  -29.4110   20.7610 C   0  0  0  0  0  0  0  0  0  0  0  0
  -27.1800  -28.6380   20.7610 C   0  0  0  0  0  3  0  0  0  0  0  0
  -26.0230  -26.8750   19.5580 C   0  0  0  0  0  3  0  0  0  0  0  0
  -24.8420  -27.6400   19.5600 C   0  0  0  0  0  3  0  0  0  0  0  0
  -23.5900  -29.7760   20.2050 C   0  0  0  0  0  2  0  0  0  0  0  0
  -24.6410  -31.0490   22.1280 N   0  0  0  0  0  0  0  0  0  0  0  0
  -23.4990  -32.1360   23.7580 O   0  0  0  0  0  0  0  0  0  0  0  0
  -22.7130  -29.4430   22.5420 C   0  0  0  0  0  0  0  0  0  0  0  0
  -21.3880  -29.2670   22.4070 N   0  0  0  0  0  0  0  0  0  0  0  0
  -23.3880  -28.8170   23.3640 O   0  0  0  0  0  0  0  0  0  0  0  0
  -20.9050  -29.8220   21.7150 H   0  0  0  0  0  0  0  0  0  0  0  0
  -18.0050  -28.0890   22.8920 C   0  0  0  0  0  0  0  0  0  0  0  0
  -20.5620  -28.3350   23.1770 C   0  0  0  0  0  3  0  0  0  0  0  0
  -20.6600  -26.9020   22.6040 C   0  0  0  0  0  2  0  0  0  0  0  0
  -19.5620  -26.5830   21.5850 C   0  0  0  0  0  2  0  0  0  0  0  0
  -18.1780  -26.7380   22.2210 C   0  0  0  0  0  2  0  0  0  0  0  0
  -19.1250  -28.8470   23.3270 C   0  0  0  0  0  0  0  0  0  0  0  0
  -18.9100  -30.1120   23.9130 C   0  0  0  0  0  3  0  0  0  0  0  0
  -17.6070  -30.6220   24.0700 C   0  0  0  0  0  3  0  0  0  0  0  0
  -16.5010  -29.8620   23.6520 C   0  0  0  0  0  3  0  0  0  0  0  0
  -16.7010  -28.5980   23.0680 C   0  0  0  0  0  3  0  0  0  0  0  0
  -25.8670  -32.4830   23.8510 C   0  0  0  0  0  3  0  0  0  0  0  0
  -25.5620  -33.8820   24.1780 N   0  0  0  0  0  0  0  0  0  0  0  0
  -25.8990  -34.9320   23.4170 C   0  0  0  0  0  0  0  0  0  0  0  0
  -26.5700  -34.8240   22.3870 O   0  0  0  0  0  0  0  0  0  0  0  0
  -24.9670  -34.0400   24.9770 H   0  0  0  0  0  0  0  0  0  0  0  0
  -24.1790  -36.7300   23.0550 C   0  0  0  0  0  1  0  0  0  0  0  0
  -25.4170  -36.3220   23.8700 C   0  0  0  0  0  3  0  0  0  0  0  0
  -27.5500  -37.2010   24.7100 C   0  0  0  0  0  1  0  0  0  0  0  0
  -26.4540  -37.3710   23.7590 N   0  0  0  0  0  0  0  0  0  0  0  0
  -26.0510  -38.2930   23.9010 H   0  0  0  0  0  0  0  0  0  0  0  0
  -26.3770  -31.7100   25.1290 C   0  0  1  0  0  0  0  0  0  0  0  0
  -25.2790  -31.4760   26.1930 C   0  0  0  0  0  1  0  0  0  0  0  0
  -26.9560  -30.3300   24.7380 C   0  0  0  0  0  1  0  0  0  0  0  0
  -27.5280  -32.5000   25.7950 C   0  0  0  0  0  1  0  0  0  0  0  0
  1  4  1  0
  2  5  2  0
  3  2  1  0
  3  1  2  0
  4  6  2  0
  4  9  1  0
  5 50  1  0
  5  6  1  0
  7  8  1  0
  8  3  1  0
  9 10  1  0
 11 20  1  0
 11 10  1  0
 12 20  1  0
 13 18  1  0
 14 15  1  0
 14 13  1  0
 16 15  1  0
 16 25  1  0
 16 17  1  0
 18 12  1  0
 18 17  1  0
 19 12  2  0
 20 21  1  0
 22 23  2  0
 23 42  1  0
 24 23  1  0
 24 27  1  0
 25 22  1  0
 25 26  1  0
 26 24  2  0
 27 28  1  0
 28 29  2  0
 30 33  1  0
 30 29  1  0
 31 30  2  0
 32 31  1  0
 32 27  2  0
 33 34  1  0
 34 35  1  0
 35 36  2  0
 37 36  1  0
 37 41  1  0
 38 37  2  0
 39 34  2  0
 39 38  1  0
 40 39  1  0
 42 43  1  0
 43 46  1  0
 43 45  1  0
 44 42  2  0
 47 48  1  0
 47 22  1  0
 49 47  1  0
 51 52  1  0
 51 50  1  0
 53 64  2  0
 54 52  1  0
 54 59  1  0
 55 63  1  0
 55 65  1  0
 56 62  1  0
 56 58  1  0
 57 63  1  0
 58 57  1  0
 59 58  2  0
 60 61  1  0
 60 54  2  0
 61 56  2  0
 62 55  1  0
 63 53  1  0
 65 67  2  0
 66 65  1  0
 68 66  1  0
 69 78  2  0
 69 74  1  0
 70 66  1  0
 70 74  1  0
 71 70  1  0
 72 73  1  0
 72 71  1  0
 73 69  1  0
 74 75  2  0
 75 76  1  0
 77 76  2  0
 78 77  1  0
 79 53  1  0
 79 80  1  0
 79 89  1  0
 80 83  1  0
 81 85  1  0
 81 80  1  0
 82 81  2  0
 85 84  1  0
 87 85  1  0
 87 88  1  0
 87 86  1  0
 89 92  1  1
 89 90  1  0
 91 89  1  0
M  ISO  4  12 100  20 100  51 101  52 101
M  END
>  <TORSDO>  (95) 
F 22

>  <SCORE>  (95) 
-12.755

>  <name>  (95) 
94

>  <ligand_id>  (95) 
94

>  <original_smiles>  (95) 
[H]c1c([H])c([H])c2c(c1[H])C([H])([H])C([H])([H])C([H])([H])C2([H])N([H])C(=O)C1([H])N(C(=O)C([H])(N([H])C(=O)C([H])(N([H])C([H])([H])[H])C([H])([H])[H])C(C([H])([H])[H])(C([H])([H])[H])C([H])([H])[H])C([H])([H])c2c([H])c(OC([H])([H])C([H])([H])c3nc(C([H])([H])C([H])([H])C([H])([H])N([H])C(=O)N4C([H])([H])C([H])([H])C([H])([H])C([H])(n5nc(-c6c([H])c([H])c(Oc7c([H])c([H])c(F)c([H])c7F)c([H])c6[H])c(C(=O)N([H])[H])c5N([H])[H])C4([H])[H])c([H])c(C([H])([H])C([H])([H])[H])c3[H])c([H])c([H])c2C1([H])[H]

>  <smiles>  (95) 
[H]c1c([H])c([H])c2c(c1[H])C([H])([H])C([H])([H])C([H])([H])C2([H])N([H])C(=O)C1([H])N(C(=O)C([H])(N([H])C(=O)C([H])(N([H])C([H])([H])[H])C([H])([H])[H])C(C([H])([H])[H])(C([H])([H])[H])C([H])([H])[H])C([H])([H])c2c([H])c(OC([H])([H])C([H])([H])c3nc(C([H])([H])C([H])([H])C([H])([H])N([H])C(=O)N4C([H])([H])C([H])([H])C([H])([H])C([H])(n5nc(-c6c([H])c([H])c(Oc7c([H])c([H])c(F)c([H])c7F)c([H])c6[H])c(C(=O)N([H])[H])c5N([H])[H])C4([H])[H])c([H])c(C([H])([H])C([H])([H])[H])c3[H])c([H])c([H])c2C1([H])[H]

$$$$
95:0:0
     RDKit          3D

 92100  0  0  1  0  0  0  0  0999 V2000
  -29.3090  -20.9380   18.1820 C   0  0  0  0  0  0  0  0  0  0  0  0
  -29.3130  -22.0520   17.3130 C   0  0  0  0  0  0  0  0  0  0  0  0
  -29.3350  -21.4160   19.4690 C   0  0  0  0  0  0  0  0  0  0  0  0
  -29.3090  -22.0780   15.8120 C   0  0  0  0  0  1  0  0  0  0  0  0
  -29.3300  -23.1750   18.0000 N   0  0  0  0  0  0  0  0  0  0  0  0
  -29.2940  -22.8320   19.3170 N   0  0  0  0  0  0  0  0  0  0  0  0
  -29.2950  -19.3000   17.6370 Cl  0  0  0  0  0  0  0  0  0  0  0  0
  -29.4160  -20.6600   20.7950 C   0  0  0  0  0  2  0  0  0  0  0  0
  -29.1400  -19.1010   20.8560 C   0  0  0  0  0  2  0  0  0  0  0  0
  -30.3210  -18.0850   20.6090 C   0  0  0  0  0  2  0  0  0  0  0  0
  -30.4220  -16.8270   21.5510 C   0  0  0  0  0  2  0  0  0  0  0  0
  -30.5770  -14.5120   20.4820 C   0  0  0  0  0  0  0  0  0  0  0  0
  -30.2870  -12.3750   19.2590 C   0  0  0  0  0  2  0  0  0  0  0  0
  -29.3110  -12.5760   18.0810 C   0  0  0  0  0  2  0  0  0  0  0  0
  -27.8530  -12.3920   18.5440 C   0  0  0  0  0  2  0  0  0  0  0  0
  -27.5280  -13.1900   19.8350 C   0  0  0  0  0  3  0  0  0  0  0  0
  -28.6140  -12.9740   20.9120 C   0  0  0  0  0  2  0  0  0  0  0  0
  -29.9110  -13.3320   20.3140 N   0  0  0  0  0  0  0  0  0  0  0  0
  -31.7100  -14.6960   20.0310 O   0  0  0  0  0  0  0  0  0  0  0  0
  -29.8870  -15.5250   21.0670 N   0  0  0  0  0  0  0  0  0  0  0  0
  -28.9410  -15.3020   21.3420 H   0  0  0  0  0  0  0  0  0  0  0  0
  -25.1290  -13.7330   20.5840 C   0  0  0  0  0  0  0  0  0  0  0  0
  -24.0870  -12.9340   20.9690 C   0  0  0  0  0  0  0  0  0  0  0  0
  -24.5810  -11.5950   20.9330 C   0  0  0  0  0  0  0  0  0  0  0  0
  -26.1920  -12.8780   20.3380 N   0  0  0  0  0  0  0  0  0  0  0  0
  -25.8680  -11.5880   20.6060 N   0  0  0  0  0  0  0  0  0  0  0  0
  -23.8900  -10.3140   21.1350 C   0  0  0  0  0  0  0  0  0  0  0  0
  -24.3410   -9.3730   22.0850 C   0  0  0  0  0  3  0  0  0  0  0  0
  -23.6480   -8.1580   22.2730 C   0  0  0  0  0  3  0  0  0  0  0  0
  -22.4900   -7.8750   21.5090 C   0  0  0  0  0  0  0  0  0  0  0  0
  -22.0590   -8.8060   20.5490 C   0  0  0  0  0  3  0  0  0  0  0  0
  -22.7530  -10.0140   20.3580 C   0  0  0  0  0  3  0  0  0  0  0  0
  -21.7680   -6.7100   21.6060 O   0  0  0  0  0  0  0  0  0  0  0  0
  -21.7160   -5.9900   22.7720 C   0  0  0  0  0  0  0  0  0  0  0  0
  -21.2030   -6.5410   23.9660 C   0  0  0  0  0  3  0  0  0  0  0  0
  -21.1040   -5.7430   25.1240 C   0  0  0  0  0  3  0  0  0  0  0  0
  -21.5090   -4.3960   25.0890 C   0  0  0  0  0  0  0  0  0  0  0  0
  -22.0140   -3.8440   23.8990 C   0  0  0  0  0  3  0  0  0  0  0  0
  -22.1150   -4.6380   22.7430 C   0  0  0  0  0  0  0  0  0  0  0  0
  -22.5840   -4.0950   21.5940 F   0  0  0  0  0  0  0  0  0  0  0  0
  -21.4060   -3.6270   26.1980 F   0  0  0  0  0  0  0  0  0  0  0  0
  -22.6810  -13.3770   21.2610 C   0  0  0  0  0  0  0  0  0  0  0  0
  -21.9800  -12.6590   22.1300 N   0  0  0  0  0  0  0  0  0  0  0  0
  -22.2130  -14.3950   20.7520 O   0  0  0  0  0  0  0  0  0  0  0  0
  -22.3720  -11.8350   22.5630 H   0  0  0  0  0  0  0  0  0  0  0  0
  -21.0390  -12.9360   22.3670 H   0  0  0  0  0  0  0  0  0  0  0  0
  -25.2570  -15.1070   20.4040 N   0  0  0  0  0  0  0  0  0  0  0  0
  -24.4780  -15.7440   20.5280 H   0  0  0  0  0  0  0  0  0  0  0  0
  -26.0910  -15.5670   20.0600 H   0  0  0  0  0  0  0  0  0  0  0  0
  -29.3020  -23.9800   20.2690 C   0  0  0  0  0  2  0  0  0  0  0  0
  -28.2230  -25.0890   19.9440 C   0  0  0  0  0  2  0  0  0  0  0  0
  -28.3730  -26.4640   20.4300 O   0  0  0  0  0  0  0  0  0  0  0  0
  -24.5780  -31.8400   23.3350 C   0  0  0  0  0  0  0  0  0  0  0  0
  -27.2440  -27.2900   20.3490 C   0  0  0  0  0  0  0  0  0  0  0  0
  -23.4070  -30.4460   21.6690 C   0  0  0  0  0  3  0  0  0  0  0  0
  -24.8820  -28.8930   20.2850 C   0  0  0  0  0  0  0  0  0  0  0  0
  -25.9510  -30.7550   21.5490 C   0  0  0  0  0  2  0  0  0  0  0  0
  -26.0370  -29.3790   20.9100 C   0  0  0  0  0  0  0  0  0  0  0  0
  -27.2200  -28.5870   20.9380 C   0  0  0  0  0  3  0  0  0  0  0  0
  -26.0610  -26.8550   19.6990 C   0  0  0  0  0  3  0  0  0  0  0  0
  -24.8930  -27.6330   19.6750 C   0  0  0  0  0  3  0  0  0  0  0  0
  -23.6500  -29.7700   20.2960 C   0  0  0  0  0  2  0  0  0  0  0  0
  -24.6630  -31.0300   22.2420 N   0  0  0  0  0  0  0  0  0  0  0  0
  -23.4830  -32.1260   23.8390 O   0  0  0  0  0  0  0  0  0  0  0  0
  -22.7170  -29.4320   22.6110 C   0  0  0  0  0  0  0  0  0  0  0  0
  -21.3990  -29.2430   22.4300 N   0  0  0  0  0  0  0  0  0  0  0  0
  -23.3650  -28.8190   23.4620 O   0  0  0  0  0  0  0  0  0  0  0  0
  -20.9360  -29.7900   21.7180 H   0  0  0  0  0  0  0  0  0  0  0  0
  -18.0110  -28.0310   22.7970 C   0  0  0  0  0  0  0  0  0  0  0  0
  -20.5520  -28.3110   23.1780 C   0  0  0  0  0  3  0  0  0  0  0  0
  -20.6890  -26.8720   22.6310 C   0  0  0  0  0  2  0  0  0  0  0  0
  -19.6360  -26.5250   21.5740 C   0  0  0  0  0  2  0  0  0  0  0  0
  -18.2260  -26.6720   22.1520 C   0  0  0  0  0  2  0  0  0  0  0  0
  -19.1050  -28.8080   23.2640 C   0  0  0  0  0  0  0  0  0  0  0  0
  -18.8520  -30.0790   23.8230 C   0  0  0  0  0  3  0  0  0  0  0  0
  -17.5380  -30.5740   23.9230 C   0  0  0  0  0  3  0  0  0  0  0  0
  -16.4590  -29.7950   23.4720 C   0  0  0  0  0  3  0  0  0  0  0  0
  -16.6950  -28.5260   22.9140 C   0  0  0  0  0  3  0  0  0  0  0  0
  -25.8500  -32.4640   23.9880 C   0  0  0  0  0  3  0  0  0  0  0  0
  -25.5540  -33.8750   24.2710 N   0  0  0  0  0  0  0  0  0  0  0  0
  -25.9260  -34.9000   23.4930 C   0  0  0  0  0  0  0  0  0  0  0  0
  -26.6230  -34.7580   22.4850 O   0  0  0  0  0  0  0  0  0  0  0  0
  -24.9410  -34.0600   25.0500 H   0  0  0  0  0  0  0  0  0  0  0  0
  -24.2440  -36.7130   23.0330 C   0  0  0  0  0  1  0  0  0  0  0  0
  -25.4470  -36.3080   23.8980 C   0  0  0  0  0  3  0  0  0  0  0  0
  -27.5610  -37.1830   24.7910 C   0  0  0  0  0  1  0  0  0  0  0  0
  -26.5020  -37.3400   23.7980 N   0  0  0  0  0  0  0  0  0  0  0  0
  -26.1060  -38.2710   23.8990 H   0  0  0  0  0  0  0  0  0  0  0  0
  -26.3030  -31.7160   25.3020 C   0  0  1  0  0  0  0  0  0  0  0  0
  -25.1650  -31.5190   26.3290 C   0  0  0  0  0  1  0  0  0  0  0  0
  -26.8810  -30.3210   24.9640 C   0  0  0  0  0  1  0  0  0  0  0  0
  -27.4380  -32.5090   25.9890 C   0  0  0  0  0  1  0  0  0  0  0  0
  1  3  2  0
  2  5  2  0
  2  1  1  0
  3  8  1  0
  4  2  1  0
  5  6  1  0
  6  3  1  0
  6 50  1  0
  7  1  1  0
  8  9  1  0
 10  9  1  0
 10 11  1  0
 12 20  1  0
 13 18  1  0
 14 15  1  0
 14 13  1  0
 16 15  1  0
 16 25  1  0
 16 17  1  0
 18 12  1  0
 18 17  1  0
 19 12  2  0
 20 21  1  0
 20 11  1  0
 22 23  2  0
 23 42  1  0
 24 23  1  0
 24 27  1  0
 25 22  1  0
 25 26  1  0
 26 24  2  0
 27 28  1  0
 28 29  2  0
 30 33  1  0
 30 29  1  0
 31 30  2  0
 32 31  1  0
 32 27  2  0
 33 34  1  0
 34 35  1  0
 35 36  2  0
 37 36  1  0
 37 41  1  0
 38 37  2  0
 39 34  2  0
 39 38  1  0
 40 39  1  0
 42 43  1  0
 43 46  1  0
 43 45  1  0
 44 42  2  0
 47 48  1  0
 47 22  1  0
 49 47  1  0
 51 50  1  0
 51 52  1  0
 53 64  2  0
 54 52  1  0
 54 59  1  0
 55 63  1  0
 55 65  1  0
 56 62  1  0
 56 58  1  0
 57 63  1  0
 58 59  2  0
 58 57  1  0
 60 54  2  0
 61 60  1  0
 61 56  2  0
 62 55  1  0
 63 53  1  0
 65 67  2  0
 66 65  1  0
 68 66  1  0
 69 78  2  0
 69 74  1  0
 70 66  1  0
 70 74  1  0
 71 70  1  0
 72 73  1  0
 72 71  1  0
 73 69  1  0
 74 75  2  0
 75 76  1  0
 77 76  2  0
 78 77  1  0
 79 53  1  0
 79 80  1  0
 79 89  1  0
 80 83  1  0
 81 85  1  0
 81 80  1  0
 82 81  2  0
 85 84  1  0
 87 85  1  0
 87 88  1  0
 87 86  1  0
 89 92  1  1
 89 90  1  0
 91 89  1  0
M  ISO  4  12 100  20 100  51 101  52 101
M  END
>  <TORSDO>  (96) 
F 22

>  <SCORE>  (96) 
-12.696

>  <name>  (96) 
95

>  <ligand_id>  (96) 
95

>  <original_smiles>  (96) 
[H]c1c([H])c([H])c2c(c1[H])C([H])([H])C([H])([H])C([H])([H])C2([H])N([H])C(=O)C1([H])N(C(=O)C([H])(N([H])C(=O)C([H])(N([H])C([H])([H])[H])C([H])([H])[H])C(C([H])([H])[H])(C([H])([H])[H])C([H])([H])[H])C([H])([H])c2c([H])c(OC([H])([H])C([H])([H])n3nc(C([H])([H])[H])c(Cl)c3C([H])([H])C([H])([H])C([H])([H])C([H])([H])N([H])C(=O)N3C([H])([H])C([H])([H])C([H])([H])C([H])(n4nc(-c5c([H])c([H])c(Oc6c([H])c([H])c(F)c([H])c6F)c([H])c5[H])c(C(=O)N([H])[H])c4N([H])[H])C3([H])[H])c([H])c([H])c2C1([H])[H]

>  <smiles>  (96) 
[H]c1c([H])c([H])c2c(c1[H])C([H])([H])C([H])([H])C([H])([H])C2([H])N([H])C(=O)C1([H])N(C(=O)C([H])(N([H])C(=O)C([H])(N([H])C([H])([H])[H])C([H])([H])[H])C(C([H])([H])[H])(C([H])([H])[H])C([H])([H])[H])C([H])([H])c2c([H])c(OC([H])([H])C([H])([H])n3nc(C([H])([H])[H])c(Cl)c3C([H])([H])C([H])([H])C([H])([H])C([H])([H])N([H])C(=O)N3C([H])([H])C([H])([H])C([H])([H])C([H])(n4nc(-c5c([H])c([H])c(Oc6c([H])c([H])c(F)c([H])c6F)c([H])c5[H])c(C(=O)N([H])[H])c4N([H])[H])C3([H])[H])c([H])c([H])c2C1([H])[H]

$$$$
