0:0:0
     RDKit          3D

 95103  0  0  1  0  0  0  0  0999 V2000
  -32.5630  -21.0180   16.8960 C   0  0  0  0  0  3  0  0  0  0  0  0
  -33.1510  -19.1620   18.3200 C   0  0  0  0  0  3  0  0  0  0  0  0
  -33.3680  -19.8910   17.1390 C   0  0  0  0  0  0  0  0  0  0  0  0
  -31.6030  -21.3900   17.8580 C   0  0  0  0  0  0  0  0  0  0  0  0
  -32.0880  -19.5310   19.1750 C   0  0  0  0  0  0  0  0  0  0  0  0
  -34.4110  -19.4360   16.1350 C   0  0  0  0  0  1  0  0  0  0  0  0
  -31.3640  -20.6540   18.9670 N   0  0  0  0  0  0  0  0  0  0  0  0
  -30.7410  -22.6330   17.6700 C   0  0  0  0  0  2  0  0  0  0  0  0
  -31.5500  -23.9170   17.3860 C   0  0  0  0  0  2  0  0  0  0  0  0
  -30.6790  -25.1870   17.2860 C   0  0  0  0  0  2  0  0  0  0  0  0
  -30.2160  -25.7530   18.6500 C   0  0  0  0  0  2  0  0  0  0  0  0
  -28.7270  -26.1480   18.7100 C   0  0  0  0  0  2  0  0  0  0  0  0
  -28.4750  -26.8950   19.9040 O   0  0  0  0  0  0  0  0  0  0  0  0
  -24.6370  -31.9200   23.1930 C   0  0  0  0  0  0  0  0  0  0  0  0
  -27.2690  -27.5590   19.9810 C   0  0  0  0  0  0  0  0  0  0  0  0
  -23.4070  -30.5290   21.5540 C   0  0  0  0  0  3  0  0  0  0  0  0
  -24.8460  -29.0120   20.0910 C   0  0  0  0  0  0  0  0  0  0  0  0
  -25.9250  -30.9060   21.3200 C   0  0  0  0  0  2  0  0  0  0  0  0
  -26.0060  -29.5410   20.6690 C   0  0  0  0  0  0  0  0  0  0  0  0
  -27.2150  -28.8130   20.6270 C   0  0  0  0  0  3  0  0  0  0  0  0
  -26.0850  -27.0290   19.4230 C   0  0  0  0  0  3  0  0  0  0  0  0
  -24.8760  -27.7480   19.4780 C   0  0  0  0  0  3  0  0  0  0  0  0
  -23.5960  -29.8580   20.1650 C   0  0  0  0  0  2  0  0  0  0  0  0
  -24.6740  -31.1350   22.0800 N   0  0  0  0  0  0  0  0  0  0  0  0
  -23.5660  -32.1810   23.7570 O   0  0  0  0  0  0  0  0  0  0  0  0
  -22.7780  -29.4980   22.5180 C   0  0  0  0  0  0  0  0  0  0  0  0
  -21.4530  -29.3090   22.4120 N   0  0  0  0  0  0  0  0  0  0  0  0
  -23.4800  -28.8700   23.3150 O   0  0  0  0  0  0  0  0  0  0  0  0
  -20.9450  -29.8720   21.7440 H   0  0  0  0  0  0  0  0  0  0  0  0
  -18.1000  -28.0690   22.9400 C   0  0  0  0  0  0  0  0  0  0  0  0
  -20.6560  -28.3580   23.1880 C   0  0  0  0  0  3  0  0  0  0  0  0
  -20.7700  -26.9290   22.6070 C   0  0  0  0  0  2  0  0  0  0  0  0
  -19.6630  -26.5960   21.6020 C   0  0  0  0  0  2  0  0  0  0  0  0
  -18.2860  -26.7240   22.2600 C   0  0  0  0  0  2  0  0  0  0  0  0
  -19.2130  -28.8430   23.3620 C   0  0  0  0  0  0  0  0  0  0  0  0
  -18.9850  -30.1030   23.9570 C   0  0  0  0  0  3  0  0  0  0  0  0
  -17.6770  -30.5900   24.1340 C   0  0  0  0  0  3  0  0  0  0  0  0
  -16.5770  -29.8130   23.7270 C   0  0  0  0  0  3  0  0  0  0  0  0
  -16.7900  -28.5560   23.1350 C   0  0  0  0  0  3  0  0  0  0  0  0
  -25.9350  -32.5480   23.7940 C   0  0  0  0  0  3  0  0  0  0  0  0
  -26.4900  -31.7560   25.0400 C   0  0  1  0  0  0  0  0  0  0  0  0
  -25.4280  -31.4970   26.1320 C   0  0  0  0  0  1  0  0  0  0  0  0
  -27.0690  -30.3870   24.6090 C   0  0  0  0  0  1  0  0  0  0  0  0
  -27.6540  -32.5430   25.6870 C   0  0  0  0  0  1  0  0  0  0  0  0
  -25.6250  -33.9370   24.1550 N   0  0  0  0  0  0  0  0  0  0  0  0
  -25.9370  -35.0040   23.4080 C   0  0  0  0  0  0  0  0  0  0  0  0
  -26.5870  -34.9240   22.3620 O   0  0  0  0  0  0  0  0  0  0  0  0
  -25.0410  -34.0730   24.9670 H   0  0  0  0  0  0  0  0  0  0  0  0
  -24.1850  -36.7870   23.1250 C   0  0  0  0  0  1  0  0  0  0  0  0
  -25.4490  -36.3800   23.8990 C   0  0  0  0  0  3  0  0  0  0  0  0
  -27.5980  -37.2690   24.6890 C   0  0  0  0  0  1  0  0  0  0  0  0
  -26.4700  -37.4450   23.7770 N   0  0  0  0  0  0  0  0  0  0  0  0
  -26.0590  -38.3570   23.9520 H   0  0  0  0  0  0  0  0  0  0  0  0
  -31.5890  -18.6030   20.2900 C   0  0  0  0  0  2  0  0  0  0  0  0
  -31.9700  -17.1190   20.0440 C   0  0  0  0  0  2  0  0  0  0  0  0
  -31.1890  -14.9280   20.8640 C   0  0  0  0  0  0  0  0  0  0  0  0
  -30.8440  -12.6970   19.9650 C   0  0  0  0  0  2  0  0  0  0  0  0
  -30.0370  -12.7150   18.6580 C   0  0  0  0  0  2  0  0  0  0  0  0
  -28.5150  -12.6780   18.9380 C   0  0  0  0  0  2  0  0  0  0  0  0
  -28.0330  -13.5890   20.1090 C   0  0  0  0  0  3  0  0  0  0  0  0
  -29.0250  -13.6130   21.2970 C   0  0  0  0  0  2  0  0  0  0  0  0
  -30.3750  -13.8400   20.7470 N   0  0  0  0  0  0  0  0  0  0  0  0
  -32.3560  -14.7720   21.1950 O   0  0  0  0  0  0  0  0  0  0  0  0
  -30.8890  -16.1040   20.2110 N   0  0  0  0  0  0  0  0  0  0  0  0
  -25.6150  -14.2300   20.6290 C   0  0  0  0  0  0  0  0  0  0  0  0
  -24.5010  -13.4690   20.8610 C   0  0  0  0  0  0  0  0  0  0  0  0
  -24.9480  -12.1130   20.8580 C   0  0  0  0  0  0  0  0  0  0  0  0
  -26.6590  -13.3260   20.4940 N   0  0  0  0  0  0  0  0  0  0  0  0
  -26.2620  -12.0510   20.7000 N   0  0  0  0  0  0  0  0  0  0  0  0
  -24.1960  -10.8580   20.9420 C   0  0  0  0  0  0  0  0  0  0  0  0
  -24.5460   -9.8570   21.8730 C   0  0  0  0  0  3  0  0  0  0  0  0
  -23.7940   -8.6660   21.9530 C   0  0  0  0  0  3  0  0  0  0  0  0
  -22.6820   -8.4730   21.1000 C   0  0  0  0  0  0  0  0  0  0  0  0
  -22.3560   -9.4630   20.1570 C   0  0  0  0  0  3  0  0  0  0  0  0
  -23.1090  -10.6440   20.0750 C   0  0  0  0  0  3  0  0  0  0  0  0
  -21.9080   -7.3380   21.0910 O   0  0  0  0  0  0  0  0  0  0  0  0
  -21.7670   -6.5550   22.2070 C   0  0  0  0  0  0  0  0  0  0  0  0
  -21.2870   -7.0750   23.4290 C   0  0  0  0  0  3  0  0  0  0  0  0
  -21.0940   -6.2180   24.5310 C   0  0  0  0  0  3  0  0  0  0  0  0
  -21.3680   -4.8420   24.4100 C   0  0  0  0  0  0  0  0  0  0  0  0
  -21.8370   -4.3220   23.1920 C   0  0  0  0  0  3  0  0  0  0  0  0
  -22.0340   -5.1760   22.0930 C   0  0  0  0  0  0  0  0  0  0  0  0
  -22.4690   -4.6660   20.9160 F   0  0  0  0  0  0  0  0  0  0  0  0
  -21.1740   -4.0170   25.4650 F   0  0  0  0  0  0  0  0  0  0  0  0
  -23.0930  -13.9680   20.9780 C   0  0  0  0  0  0  0  0  0  0  0  0
  -22.2700  -13.2740   21.7580 N   0  0  0  0  0  0  0  0  0  0  0  0
  -22.7280  -15.0030   20.4250 O   0  0  0  0  0  0  0  0  0  0  0  0
  -22.5880  -12.4410   22.2300 H   0  0  0  0  0  0  0  0  0  0  0  0
  -21.3140  -13.5780   21.8850 H   0  0  0  0  0  0  0  0  0  0  0  0
  -25.8110  -15.6020   20.4910 N   0  0  0  0  0  0  0  0  0  0  0  0
  -25.0450  -16.2670   20.5380 H   0  0  0  0  0  0  0  0  0  0  0  0
  -26.7010  -16.0400   20.2940 H   0  0  0  0  0  0  0  0  0  0  0  0
  -29.7530  -16.3160   19.2770 C   0  0  0  0  0  2  0  0  0  0  0  0
  -30.8800  -16.8570   17.0080 C   0  0  0  0  0  1  0  0  0  0  0  0
  -29.8930  -17.3190   18.0970 C   0  0  0  0  0  2  0  0  0  0  0  0
  1  3  2  0
  1  4  1  0
  2  5  2  0
  3  2  1  0
  4  7  2  0
  5 54  1  0
  6  3  1  0
  7  5  1  0
  8  4  1  0
  9  8  1  0
 10  9  1  0
 10 11  1  0
 11 12  1  0
 12 13  1  0
 13 15  1  0
 14 25  2  0
 15 20  1  0
 16 24  1  0
 16 26  1  0
 17 23  1  0
 17 19  1  0
 18 24  1  0
 19 18  1  0
 20 19  2  0
 21 22  1  0
 21 15  2  0
 22 17  2  0
 23 16  1  0
 24 14  1  0
 26 28  2  0
 27 26  1  0
 29 27  1  0
 30 39  2  0
 30 35  1  0
 31 27  1  0
 31 35  1  0
 32 31  1  0
 33 34  1  0
 33 32  1  0
 34 30  1  0
 35 36  2  0
 36 37  1  0
 38 37  2  0
 39 38  1  0
 40 14  1  0
 40 45  1  0
 40 41  1  0
 41 44  1  1
 41 42  1  0
 43 41  1  0
 45 48  1  0
 46 50  1  0
 46 45  1  0
 47 46  2  0
 50 49  1  0
 52 50  1  0
 52 53  1  0
 52 51  1  0
 55 64  1  0
 55 54  1  0
 56 63  2  0
 57 62  1  0
 58 59  1  0
 58 57  1  0
 60 59  1  0
 60 68  1  0
 60 61  1  0
 62 56  1  0
 62 61  1  0
 64 56  1  0
 65 66  2  0
 66 85  1  0
 67 66  1  0
 67 70  1  0
 68 65  1  0
 68 69  1  0
 69 67  2  0
 70 71  1  0
 71 72  2  0
 73 72  1  0
 74 73  2  0
 75 74  1  0
 75 70  2  0
 76 73  1  0
 76 77  1  0
 77 78  1  0
 78 79  2  0
 80 79  1  0
 80 84  1  0
 81 80  2  0
 82 77  2  0
 82 81  1  0
 83 82  1  0
 85 86  1  0
 86 89  1  0
 86 88  1  0
 87 85  2  0
 90 91  1  0
 90 65  1  0
 92 90  1  0
 93 64  1  0
 94 95  1  0
 95 93  1  0
M  ISO  4  12 101  13 101  56 100  64 100
M  END
>  <TORSDO>  (1) 
F 25

>  <SCORE>  (1) 
-10.733

>  <name>  (1) 
0

>  <ligand_id>  (1) 
0

>  <original_smiles>  (1) 
[H]c1c([H])c([H])c2c(c1[H])C([H])([H])C([H])([H])C([H])([H])C2([H])N([H])C(=O)C1([H])N(C(=O)C([H])(N([H])C(=O)C([H])(N([H])C([H])([H])[H])C([H])([H])[H])C(C([H])([H])[H])(C([H])([H])[H])C([H])([H])[H])C([H])([H])c2c([H])c(OC([H])([H])C([H])([H])C([H])([H])C([H])([H])C([H])([H])c3nc(C([H])([H])C([H])([H])N(C(=O)N4C([H])([H])C([H])([H])C([H])([H])C([H])(n5nc(-c6c([H])c([H])c(Oc7c([H])c([H])c(F)c([H])c7F)c([H])c6[H])c(C(=O)N([H])[H])c5N([H])[H])C4([H])[H])C([H])([H])C([H])([H])C([H])([H])[H])c([H])c(C([H])([H])[H])c3[H])c([H])c([H])c2C1([H])[H]

>  <smiles>  (1) 
[H]c1c([H])c([H])c2c(c1[H])C([H])([H])C([H])([H])C([H])([H])C2([H])N([H])C(=O)C1([H])N(C(=O)C([H])(N([H])C(=O)C([H])(N([H])C([H])([H])[H])C([H])([H])[H])C(C([H])([H])[H])(C([H])([H])[H])C([H])([H])[H])C([H])([H])c2c([H])c(OC([H])([H])C([H])([H])C([H])([H])C([H])([H])C([H])([H])c3nc(C([H])([H])C([H])([H])N(C(=O)N4C([H])([H])C([H])([H])C([H])([H])C([H])(n5nc(-c6c([H])c([H])c(Oc7c([H])c([H])c(F)c([H])c7F)c([H])c6[H])c(C(=O)N([H])[H])c5N([H])[H])C4([H])[H])C([H])([H])C([H])([H])C([H])([H])[H])c([H])c(C([H])([H])[H])c3[H])c([H])c([H])c2C1([H])[H]

$$$$
1:0:0
     RDKit          3D

 90 98  0  0  1  0  0  0  0  0999 V2000
  -30.0170  -21.7170   21.1370 C   0  0  0  0  0  3  0  0  0  0  0  0
  -29.2450  -22.5640   20.2860 C   0  0  0  0  0  0  0  0  0  0  0  0
  -28.3920  -20.6060   19.3130 C   0  0  0  0  0  0  0  0  0  0  0  0
  -29.1680  -19.7500   20.1690 C   0  0  0  0  0  0  0  0  0  0  0  0
  -27.3600  -20.0570   18.3460 C   0  0  0  0  0  1  0  0  0  0  0  0
  -29.9710  -20.3460   21.0940 N   0  0  0  0  0  0  0  0  0  0  0  0
  -28.4520  -21.9780   19.3520 N   0  0  0  0  0  0  0  0  0  0  0  0
  -29.3910  -24.1320   20.3250 C   0  0  0  0  0  3  0  0  0  0  0  0
  -28.1650  -25.0740   19.9670 C   0  0  0  0  0  3  0  0  0  0  0  0
  -28.3290  -26.5270   20.2210 O   0  0  0  0  0  0  0  0  0  0  0  0
  -24.6100  -31.9120   23.2680 C   0  0  0  0  0  0  0  0  0  0  0  0
  -27.1990  -27.3570   20.1880 C   0  0  0  0  0  0  0  0  0  0  0  0
  -23.3950  -30.5240   21.6280 C   0  0  0  0  0  3  0  0  0  0  0  0
  -24.8320  -28.9700   20.1920 C   0  0  0  0  0  0  0  0  0  0  0  0
  -25.9330  -30.8320   21.4340 C   0  0  0  0  0  2  0  0  0  0  0  0
  -26.0040  -29.4580   20.7830 C   0  0  0  0  0  0  0  0  0  0  0  0
  -27.1910  -28.6650   20.7660 C   0  0  0  0  0  3  0  0  0  0  0  0
  -25.9970  -26.9170   19.5880 C   0  0  0  0  0  3  0  0  0  0  0  0
  -24.8310  -27.7040   19.5840 C   0  0  0  0  0  3  0  0  0  0  0  0
  -23.5970  -29.8480   20.2460 C   0  0  0  0  0  2  0  0  0  0  0  0
  -24.6670  -31.1060   22.1680 N   0  0  0  0  0  0  0  0  0  0  0  0
  -23.5300  -32.1980   23.8030 O   0  0  0  0  0  0  0  0  0  0  0  0
  -22.7250  -29.5130   22.5880 C   0  0  0  0  0  0  0  0  0  0  0  0
  -21.3970  -29.3440   22.4600 N   0  0  0  0  0  0  0  0  0  0  0  0
  -23.3980  -28.8820   23.4080 O   0  0  0  0  0  0  0  0  0  0  0  0
  -20.9110  -29.9110   21.7770 H   0  0  0  0  0  0  0  0  0  0  0  0
  -18.0120  -28.1730   22.9560 C   0  0  0  0  0  0  0  0  0  0  0  0
  -20.5710  -28.4110   23.2280 C   0  0  0  0  0  3  0  0  0  0  0  0
  -20.6620  -26.9780   22.6530 C   0  0  0  0  0  2  0  0  0  0  0  0
  -19.5570  -26.6640   21.6380 C   0  0  0  0  0  2  0  0  0  0  0  0
  -18.1770  -26.8220   22.2800 C   0  0  0  0  0  2  0  0  0  0  0  0
  -19.1360  -28.9260   23.3870 C   0  0  0  0  0  0  0  0  0  0  0  0
  -18.9260  -30.1900   23.9800 C   0  0  0  0  0  3  0  0  0  0  0  0
  -17.6250  -30.7000   24.1450 C   0  0  0  0  0  3  0  0  0  0  0  0
  -16.5150  -29.9430   23.7300 C   0  0  0  0  0  3  0  0  0  0  0  0
  -16.7110  -28.6810   23.1420 C   0  0  0  0  0  3  0  0  0  0  0  0
  -25.8980  -32.5350   23.8890 C   0  0  0  0  0  3  0  0  0  0  0  0
  -26.4050  -31.7610   25.1680 C   0  0  1  0  0  0  0  0  0  0  0  0
  -25.3120  -31.5320   26.2380 C   0  0  0  0  0  1  0  0  0  0  0  0
  -26.9760  -30.3790   24.7750 C   0  0  0  0  0  1  0  0  0  0  0  0
  -27.5570  -32.5500   25.8340 C   0  0  0  0  0  1  0  0  0  0  0  0
  -25.5970  -33.9350   24.2200 N   0  0  0  0  0  0  0  0  0  0  0  0
  -25.9150  -34.9880   23.4540 C   0  0  0  0  0  0  0  0  0  0  0  0
  -26.5630  -34.8820   22.4100 O   0  0  0  0  0  0  0  0  0  0  0  0
  -25.0180  -34.0890   25.0320 H   0  0  0  0  0  0  0  0  0  0  0  0
  -24.1750  -36.7800   23.1450 C   0  0  0  0  0  1  0  0  0  0  0  0
  -25.4390  -36.3770   23.9200 C   0  0  0  0  0  3  0  0  0  0  0  0
  -27.5960  -37.2700   24.6810 C   0  0  0  0  0  1  0  0  0  0  0  0
  -26.4650  -37.4320   23.7730 N   0  0  0  0  0  0  0  0  0  0  0  0
  -26.0600  -38.3500   23.9320 H   0  0  0  0  0  0  0  0  0  0  0  0
  -28.9900  -18.1780   20.2180 C   0  0  0  0  0  3  0  0  0  0  0  0
  -30.1750  -17.2240   20.7270 C   0  0  0  0  0  3  0  0  0  0  0  0
  -30.5990  -14.6590   20.4310 C   0  0  0  0  0  0  0  0  0  0  0  0
  -30.3580  -12.4410   19.3380 C   0  0  0  0  0  2  0  0  0  0  0  0
  -29.4270  -12.6210   18.1220 C   0  0  0  0  0  2  0  0  0  0  0  0
  -27.9480  -12.4600   18.5310 C   0  0  0  0  0  2  0  0  0  0  0  0
  -27.5930  -13.2710   19.8070 C   0  0  0  0  0  3  0  0  0  0  0  0
  -28.6530  -13.0990   20.9200 C   0  0  0  0  0  2  0  0  0  0  0  0
  -29.9580  -13.4500   20.3430 N   0  0  0  0  0  0  0  0  0  0  0  0
  -31.7510  -14.8070   20.0230 O   0  0  0  0  0  0  0  0  0  0  0  0
  -29.8430  -15.7470   20.7860 N   0  0  0  0  0  0  0  0  0  0  0  0
  -28.9200  -15.5300   21.1270 H   0  0  0  0  0  0  0  0  0  0  0  0
  -25.1930  -13.8600   20.5080 C   0  0  0  0  0  0  0  0  0  0  0  0
  -24.1300  -13.0860   20.8820 C   0  0  0  0  0  0  0  0  0  0  0  0
  -24.5920  -11.7350   20.8550 C   0  0  0  0  0  0  0  0  0  0  0  0
  -26.2420  -12.9800   20.2820 N   0  0  0  0  0  0  0  0  0  0  0  0
  -25.8850  -11.6970   20.5470 N   0  0  0  0  0  0  0  0  0  0  0  0
  -23.8670  -10.4740   21.0460 C   0  0  0  0  0  0  0  0  0  0  0  0
  -24.3050   -9.5040   21.9730 C   0  0  0  0  0  3  0  0  0  0  0  0
  -23.5820   -8.3060   22.1550 C   0  0  0  0  0  3  0  0  0  0  0  0
  -22.4060   -8.0700   21.4070 C   0  0  0  0  0  0  0  0  0  0  0  0
  -21.9850   -9.0280   20.4670 C   0  0  0  0  0  3  0  0  0  0  0  0
  -22.7100  -10.2170   20.2850 C   0  0  0  0  0  3  0  0  0  0  0  0
  -21.6520   -6.9240   21.4970 O   0  0  0  0  0  0  0  0  0  0  0  0
  -21.6110   -6.1760   22.6460 C   0  0  0  0  0  0  0  0  0  0  0  0
  -21.1890   -6.7240   23.8780 C   0  0  0  0  0  3  0  0  0  0  0  0
  -21.0970   -5.9010   25.0170 C   0  0  0  0  0  3  0  0  0  0  0  0
  -21.4150   -4.5330   24.9280 C   0  0  0  0  0  0  0  0  0  0  0  0
  -21.8280   -3.9850   23.7010 C   0  0  0  0  0  3  0  0  0  0  0  0
  -21.9210   -4.8040   22.5630 C   0  0  0  0  0  0  0  0  0  0  0  0
  -22.2990   -4.2670   21.3770 F   0  0  0  0  0  0  0  0  0  0  0  0
  -21.3210   -3.7400   26.0200 F   0  0  0  0  0  0  0  0  0  0  0  0
  -22.7300  -13.5640   21.1530 C   0  0  0  0  0  0  0  0  0  0  0  0
  -21.9990  -12.8730   22.0200 N   0  0  0  0  0  0  0  0  0  0  0  0
  -22.2910  -14.5850   20.6290 O   0  0  0  0  0  0  0  0  0  0  0  0
  -22.3590  -12.0460   22.4710 H   0  0  0  0  0  0  0  0  0  0  0  0
  -21.0590  -13.1770   22.2290 H   0  0  0  0  0  0  0  0  0  0  0  0
  -25.3600  -15.2310   20.3220 N   0  0  0  0  0  0  0  0  0  0  0  0
  -24.6000  -15.8970   20.4060 H   0  0  0  0  0  0  0  0  0  0  0  0
  -26.2120  -15.6530   19.9720 H   0  0  0  0  0  0  0  0  0  0  0  0
  2  8  1  0
  2  1  2  0
  3  7  2  0
  3  4  1  0
  4 51  1  0
  4  6  2  0
  5  3  1  0
  6  1  1  0
  7  2  1  0
  9 10  1  0
  9  8  2  0
 11 22  2  0
 12 10  1  0
 12 17  1  0
 13 21  1  0
 13 23  1  0
 14 20  1  0
 14 16  1  0
 15 21  1  0
 16 15  1  0
 17 16  2  0
 18 12  2  0
 19 18  1  0
 19 14  2  0
 20 13  1  0
 21 11  1  0
 23 25  2  0
 24 23  1  0
 26 24  1  0
 27 36  2  0
 27 32  1  0
 28 24  1  0
 28 32  1  0
 29 28  1  0
 30 31  1  0
 30 29  1  0
 31 27  1  0
 32 33  2  0
 33 34  1  0
 35 34  2  0
 36 35  1  0
 37 11  1  0
 37 42  1  0
 37 38  1  0
 38 41  1  1
 38 39  1  0
 40 38  1  0
 42 45  1  0
 43 47  1  0
 43 42  1  0
 44 43  2  0
 47 46  1  0
 49 47  1  0
 49 50  1  0
 49 48  1  0
 51 52  2  0
 52 61  1  0
 53 61  1  0
 54 59  1  0
 55 56  1  0
 55 54  1  0
 57 56  1  0
 57 66  1  0
 57 58  1  0
 59 53  1  0
 59 58  1  0
 60 53  2  0
 61 62  1  0
 63 64  2  0
 64 83  1  0
 65 64  1  0
 65 68  1  0
 66 63  1  0
 66 67  1  0
 67 65  2  0
 68 69  1  0
 69 70  2  0
 71 74  1  0
 71 70  1  0
 72 71  2  0
 73 72  1  0
 73 68  2  0
 74 75  1  0
 75 76  1  0
 76 77  2  0
 78 77  1  0
 78 82  1  0
 79 78  2  0
 80 75  2  0
 80 79  1  0
 81 80  1  0
 83 84  1  0
 84 87  1  0
 84 86  1  0
 85 83  2  0
 88 89  1  0
 88 63  1  0
 90 88  1  0
M  ISO  4   9 101  10 101  53 100  61 100
M  END
>  <TORSDO>  (2) 
F 20

>  <SCORE>  (2) 
-14.019

>  <name>  (2) 
1

>  <ligand_id>  (2) 
1

>  <original_smiles>  (2) 
[H]c1nc(C([H])([H])C([H])([H])N([H])C(=O)N2C([H])([H])C([H])([H])C([H])([H])C([H])(n3nc(-c4c([H])c([H])c(Oc5c([H])c([H])c(F)c([H])c5F)c([H])c4[H])c(C(=O)N([H])[H])c3N([H])[H])C2([H])[H])c(C([H])([H])[H])nc1C([H])([H])C([H])([H])Oc1c([H])c([H])c2c(c1[H])C([H])([H])N(C(=O)C([H])(N([H])C(=O)C([H])(N([H])C([H])([H])[H])C([H])([H])[H])C(C([H])([H])[H])(C([H])([H])[H])C([H])([H])[H])C([H])(C(=O)N([H])C1([H])c3c([H])c([H])c([H])c([H])c3C([H])([H])C([H])([H])C1([H])[H])C2([H])[H]

>  <smiles>  (2) 
[H]c1nc(C([H])([H])C([H])([H])N([H])C(=O)N2C([H])([H])C([H])([H])C([H])([H])C([H])(n3nc(-c4c([H])c([H])c(Oc5c([H])c([H])c(F)c([H])c5F)c([H])c4[H])c(C(=O)N([H])[H])c3N([H])[H])C2([H])[H])c(C([H])([H])[H])nc1C([H])([H])C([H])([H])Oc1c([H])c([H])c2c(c1[H])C([H])([H])N(C(=O)C([H])(N([H])C(=O)C([H])(N([H])C([H])([H])[H])C([H])([H])[H])C(C([H])([H])[H])(C([H])([H])[H])C([H])([H])[H])C([H])(C(=O)N([H])C1([H])c3c([H])c([H])c([H])c([H])c3C([H])([H])C([H])([H])C1([H])[H])C2([H])[H]

$$$$
2:0:0
     RDKit          3D

 93101  0  0  1  0  0  0  0  0999 V2000
  -31.1630  -21.3610   19.1140 C   0  0  0  0  0  3  0  0  0  0  0  0
  -30.6920  -20.0060   19.1120 C   0  0  0  0  0  0  0  0  0  0  0  0
  -30.0420  -22.1180   18.9060 C   0  0  0  0  0  0  0  0  0  0  0  0
  -29.3760  -19.9510   19.0820 N   0  0  0  0  0  0  0  0  0  0  0  0
  -28.9710  -21.2390   18.9090 N   0  0  0  0  0  0  0  0  0  0  0  0
  -26.7460  -20.3570   18.1550 C   0  0  0  0  0  1  0  0  0  0  0  0
  -27.5670  -21.5430   18.6680 C   0  0  0  0  0  2  0  0  0  0  0  0
  -31.4960  -18.7310   18.9460 C   0  0  0  0  0  2  0  0  0  0  0  0
  -31.5530  -17.7680   20.1660 C   0  0  0  0  0  2  0  0  0  0  0  0
  -32.4310  -16.4810   19.9410 C   0  0  0  0  0  2  0  0  0  0  0  0
  -31.1300  -14.3850   20.2460 C   0  0  0  0  0  0  0  0  0  0  0  0
  -30.2180  -13.0070   18.5270 C   0  0  0  0  0  2  0  0  0  0  0  0
  -29.2630  -11.9580   18.0990 C   0  0  0  0  0  2  0  0  0  0  0  0
  -27.9380  -11.9100   18.8140 C   0  0  0  0  0  2  0  0  0  0  0  0
  -27.5560  -13.1960   19.5310 C   0  0  0  0  0  3  0  0  0  0  0  0
  -28.7340  -13.6520   20.4570 C   0  0  0  0  0  2  0  0  0  0  0  0
  -30.1000  -13.5830   19.8400 N   0  0  0  0  0  0  0  0  0  0  0  0
  -31.2920  -14.6110   21.3920 O   0  0  0  0  0  0  0  0  0  0  0  0
  -31.9650  -15.0990   19.4130 N   0  0  0  0  0  0  0  0  0  0  0  0
  -25.2310  -13.9430   20.4280 C   0  0  0  0  0  0  0  0  0  0  0  0
  -24.1650  -13.1810   20.8000 C   0  0  0  0  0  0  0  0  0  0  0  0
  -24.5900  -11.8060   20.7840 C   0  0  0  0  0  0  0  0  0  0  0  0
  -26.2510  -13.0320   20.1630 N   0  0  0  0  0  0  0  0  0  0  0  0
  -25.8520  -11.7720   20.4630 N   0  0  0  0  0  0  0  0  0  0  0  0
  -23.9090  -10.5280   20.9840 C   0  0  0  0  0  0  0  0  0  0  0  0
  -24.3560   -9.5670   21.9220 C   0  0  0  0  0  3  0  0  0  0  0  0
  -23.6330   -8.3670   22.1360 C   0  0  0  0  0  3  0  0  0  0  0  0
  -22.4570   -8.1130   21.3870 C   0  0  0  0  0  0  0  0  0  0  0  0
  -22.0480   -9.0530   20.4160 C   0  0  0  0  0  3  0  0  0  0  0  0
  -22.7740  -10.2350   20.2100 C   0  0  0  0  0  3  0  0  0  0  0  0
  -21.7310   -6.9510   21.4650 O   0  0  0  0  0  0  0  0  0  0  0  0
  -21.6640   -6.2100   22.6180 C   0  0  0  0  0  0  0  0  0  0  0  0
  -21.2360   -6.7690   23.8400 C   0  0  0  0  0  3  0  0  0  0  0  0
  -21.1260   -5.9620   24.9920 C   0  0  0  0  0  3  0  0  0  0  0  0
  -21.4570   -4.6010   24.9240 C   0  0  0  0  0  0  0  0  0  0  0  0
  -21.8820   -4.0300   23.7120 C   0  0  0  0  0  3  0  0  0  0  0  0
  -21.9850   -4.8380   22.5560 C   0  0  0  0  0  0  0  0  0  0  0  0
  -22.3740   -4.2860   21.3850 F   0  0  0  0  0  0  0  0  0  0  0  0
  -21.3480   -3.8130   26.0250 F   0  0  0  0  0  0  0  0  0  0  0  0
  -22.7590  -13.6130   21.0900 C   0  0  0  0  0  0  0  0  0  0  0  0
  -22.0650  -12.9020   21.9570 N   0  0  0  0  0  0  0  0  0  0  0  0
  -22.2650  -14.5970   20.5310 O   0  0  0  0  0  0  0  0  0  0  0  0
  -22.4330  -12.0920   22.4420 H   0  0  0  0  0  0  0  0  0  0  0  0
  -21.1280  -13.1970   22.1550 H   0  0  0  0  0  0  0  0  0  0  0  0
  -25.4080  -15.3340   20.2610 N   0  0  0  0  0  0  0  0  0  0  0  0
  -24.6560  -15.9260   20.5980 H   0  0  0  0  0  0  0  0  0  0  0  0
  -26.2280  -15.8630   19.9860 H   0  0  0  0  0  0  0  0  0  0  0  0
  -33.5400  -13.0630   18.4780 C   0  0  0  0  0  1  0  0  0  0  0  0
  -33.2920  -14.4550   19.1270 C   0  0  0  0  0  2  0  0  0  0  0  0
  -29.9000  -23.5810   18.5530 C   0  0  0  0  0  3  0  0  0  0  0  0
  -28.9970  -24.4370   19.4870 C   0  0  0  0  0  3  0  0  0  0  0  0
  -28.9280  -25.9520   19.1430 C   0  0  0  0  0  2  0  0  0  0  0  0
  -28.4400  -26.7470   20.2250 O   0  0  0  0  0  0  0  0  0  0  0  0
  -24.5400  -31.8790   23.1970 C   0  0  0  0  0  0  0  0  0  0  0  0
  -27.2420  -27.4430   20.1350 C   0  0  0  0  0  0  0  0  0  0  0  0
  -23.3610  -30.4660   21.5460 C   0  0  0  0  0  3  0  0  0  0  0  0
  -24.8280  -28.9390   20.1350 C   0  0  0  0  0  0  0  0  0  0  0  0
  -25.8810  -30.8390   21.3670 C   0  0  0  0  0  2  0  0  0  0  0  0
  -25.9750  -29.4590   20.7470 C   0  0  0  0  0  0  0  0  0  0  0  0
  -27.1650  -28.7000   20.7700 C   0  0  0  0  0  3  0  0  0  0  0  0
  -26.0790  -26.9360   19.5110 C   0  0  0  0  0  3  0  0  0  0  0  0
  -24.8720  -27.6730   19.5200 C   0  0  0  0  0  3  0  0  0  0  0  0
  -23.5850  -29.7910   20.1640 C   0  0  0  0  0  2  0  0  0  0  0  0
  -24.6150  -31.0750   22.0990 N   0  0  0  0  0  0  0  0  0  0  0  0
  -23.4530  -32.1510   23.7250 O   0  0  0  0  0  0  0  0  0  0  0  0
  -22.7030  -29.4490   22.5080 C   0  0  0  0  0  0  0  0  0  0  0  0
  -21.3770  -29.2730   22.3860 N   0  0  0  0  0  0  0  0  0  0  0  0
  -23.3870  -28.8220   23.3230 O   0  0  0  0  0  0  0  0  0  0  0  0
  -20.8870  -29.8450   21.7160 H   0  0  0  0  0  0  0  0  0  0  0  0
  -17.9910  -28.1150   22.8760 C   0  0  0  0  0  0  0  0  0  0  0  0
  -20.5520  -28.3380   23.1490 C   0  0  0  0  0  3  0  0  0  0  0  0
  -20.6340  -26.9110   22.5590 C   0  0  0  0  0  2  0  0  0  0  0  0
  -19.5280  -26.6120   21.5430 C   0  0  0  0  0  2  0  0  0  0  0  0
  -18.1500  -26.7680   22.1910 C   0  0  0  0  0  2  0  0  0  0  0  0
  -19.1180  -28.8610   23.3120 C   0  0  0  0  0  0  0  0  0  0  0  0
  -18.9100  -30.1220   23.9080 C   0  0  0  0  0  3  0  0  0  0  0  0
  -17.6110  -30.6360   24.0790 C   0  0  0  0  0  3  0  0  0  0  0  0
  -16.5000  -29.8840   23.6590 C   0  0  0  0  0  3  0  0  0  0  0  0
  -16.6900  -28.6270   23.0620 C   0  0  0  0  0  3  0  0  0  0  0  0
  -25.8220  -32.5090   23.8320 C   0  0  0  0  0  3  0  0  0  0  0  0
  -25.5100  -33.9050   24.1670 N   0  0  0  0  0  0  0  0  0  0  0  0
  -25.8480  -34.9620   23.4130 C   0  0  0  0  0  0  0  0  0  0  0  0
  -26.5280  -34.8620   22.3870 O   0  0  0  0  0  0  0  0  0  0  0  0
  -24.9000  -34.0570   24.9590 H   0  0  0  0  0  0  0  0  0  0  0  0
  -24.1240  -36.7530   23.0620 C   0  0  0  0  0  1  0  0  0  0  0  0
  -25.3600  -36.3460   23.8760 C   0  0  0  0  0  3  0  0  0  0  0  0
  -27.4810  -37.2360   24.7310 C   0  0  0  0  0  1  0  0  0  0  0  0
  -26.3930  -37.3950   23.7680 N   0  0  0  0  0  0  0  0  0  0  0  0
  -25.9850  -38.3150   23.8990 H   0  0  0  0  0  0  0  0  0  0  0  0
  -26.3440  -31.7320   25.1050 C   0  0  1  0  0  0  0  0  0  0  0  0
  -25.2540  -31.4700   26.1670 C   0  0  0  0  0  1  0  0  0  0  0  0
  -26.9390  -30.3670   24.6920 C   0  0  0  0  0  1  0  0  0  0  0  0
  -27.4880  -32.5270   25.7740 C   0  0  0  0  0  1  0  0  0  0  0  0
  2  1  1  0
  3  5  1  0
  3  1  2  0
  4  2  2  0
  5  4  1  0
  6  7  1  0
  7  5  1  0
  8  2  1  0
  8  9  1  0
 10  9  1  0
 11 18  2  0
 12 17  1  0
 13 12  1  0
 13 14  1  0
 15 14  1  0
 15 23  1  0
 15 16  1  0
 17 11  1  0
 17 16  1  0
 19 10  1  0
 19 11  1  0
 20 21  2  0
 21 40  1  0
 22 21  1  0
 22 25  1  0
 23 20  1  0
 23 24  1  0
 24 22  2  0
 25 26  1  0
 26 27  2  0
 28 31  1  0
 28 27  1  0
 29 28  2  0
 30 29  1  0
 30 25  2  0
 31 32  1  0
 32 33  1  0
 33 34  2  0
 35 34  1  0
 35 39  1  0
 36 35  2  0
 37 32  2  0
 37 36  1  0
 38 37  1  0
 40 41  1  0
 41 44  1  0
 41 43  1  0
 42 40  2  0
 45 20  1  0
 45 46  1  0
 47 45  1  0
 48 49  1  0
 49 19  1  0
 50  3  1  0
 50 51  2  0
 52 51  1  0
 52 53  1  0
 54 65  2  0
 55 53  1  0
 55 60  1  0
 56 64  1  0
 56 66  1  0
 57 63  1  0
 57 59  1  0
 58 64  1  0
 59 60  2  0
 59 58  1  0
 61 62  1  0
 61 55  2  0
 62 57  2  0
 63 56  1  0
 64 54  1  0
 66 68  2  0
 67 66  1  0
 69 67  1  0
 70 79  2  0
 70 75  1  0
 71 67  1  0
 71 75  1  0
 72 71  1  0
 73 74  1  0
 73 72  1  0
 74 70  1  0
 75 76  2  0
 76 77  1  0
 78 77  2  0
 79 78  1  0
 80 54  1  0
 80 81  1  0
 80 90  1  0
 81 84  1  0
 82 86  1  0
 82 81  1  0
 83 82  2  0
 86 85  1  0
 88 86  1  0
 88 89  1  0
 88 87  1  0
 90 93  1  1
 90 91  1  0
 92 90  1  0
M  ISO  4  11 100  19 100  52 101  53 101
M  END
>  <TORSDO>  (3) 
F 24

>  <SCORE>  (3) 
-12.627

>  <name>  (3) 
2

>  <ligand_id>  (3) 
2

>  <original_smiles>  (3) 
[H]c1c([H])c([H])c2c(c1[H])C([H])([H])C([H])([H])C([H])([H])C2([H])N([H])C(=O)C1([H])N(C(=O)C([H])(N([H])C(=O)C([H])(N([H])C([H])([H])[H])C([H])([H])[H])C(C([H])([H])[H])(C([H])([H])[H])C([H])([H])[H])C([H])([H])c2c([H])c(OC([H])([H])C([H])([H])C([H])([H])c3c([H])c(C([H])([H])C([H])([H])C([H])([H])N(C(=O)N4C([H])([H])C([H])([H])C([H])([H])C([H])(n5nc(-c6c([H])c([H])c(Oc7c([H])c([H])c(F)c([H])c7F)c([H])c6[H])c(C(=O)N([H])[H])c5N([H])[H])C4([H])[H])C([H])([H])C([H])([H])[H])nn3C([H])([H])C([H])([H])[H])c([H])c([H])c2C1([H])[H]

>  <smiles>  (3) 
[H]c1c([H])c([H])c2c(c1[H])C([H])([H])C([H])([H])C([H])([H])C2([H])N([H])C(=O)C1([H])N(C(=O)C([H])(N([H])C(=O)C([H])(N([H])C([H])([H])[H])C([H])([H])[H])C(C([H])([H])[H])(C([H])([H])[H])C([H])([H])[H])C([H])([H])c2c([H])c(OC([H])([H])C([H])([H])C([H])([H])c3c([H])c(C([H])([H])C([H])([H])C([H])([H])N(C(=O)N4C([H])([H])C([H])([H])C([H])([H])C([H])(n5nc(-c6c([H])c([H])c(Oc7c([H])c([H])c(F)c([H])c7F)c([H])c6[H])c(C(=O)N([H])[H])c5N([H])[H])C4([H])[H])C([H])([H])C([H])([H])[H])nn3C([H])([H])C([H])([H])[H])c([H])c([H])c2C1([H])[H]

$$$$
3:0:0
     RDKit          3D

 91 99  0  0  1  0  0  0  0  0999 V2000
  -31.0080  -20.5970   21.7620 C   0  0  0  0  0  3  0  0  0  0  0  0
  -29.8750  -19.9700   21.3020 C   0  0  0  0  0  0  0  0  0  0  0  0
  -30.2460  -18.5310   21.4540 C   0  0  0  0  0  0  0  0  0  0  0  0
  -33.2440  -19.8730   22.7100 C   0  0  0  0  0  1  0  0  0  0  0  0
  -31.4650  -18.4170   21.9690 N   0  0  0  0  0  0  0  0  0  0  0  0
  -31.9220  -19.6610   22.1540 N   0  0  0  0  0  0  0  0  0  0  0  0
  -28.6550  -20.8420   20.7770 C   0  0  0  0  0  2  0  0  0  0  0  0
  -28.5840  -22.4150   21.2130 C   0  0  0  0  0  3  0  0  0  0  0  0
  -27.9090  -23.5910   20.3240 C   0  0  0  0  0  3  0  0  0  0  0  0
  -27.7370  -25.0560   20.9900 C   0  0  0  0  0  2  0  0  0  0  0  0
  -27.8370  -26.3450   20.2380 O   0  0  0  0  0  0  0  0  0  0  0  0
  -24.4880  -31.9700   23.3730 C   0  0  0  0  0  0  0  0  0  0  0  0
  -26.7690  -27.2560   20.2790 C   0  0  0  0  0  0  0  0  0  0  0  0
  -23.1690  -30.6310   21.7710 C   0  0  0  0  0  3  0  0  0  0  0  0
  -24.4960  -28.9960   20.3150 C   0  0  0  0  0  0  0  0  0  0  0  0
  -25.7160  -30.8160   21.5140 C   0  0  0  0  0  2  0  0  0  0  0  0
  -25.7080  -29.4290   20.8740 C   0  0  0  0  0  0  0  0  0  0  0  0
  -26.8500  -28.5720   20.8400 C   0  0  0  0  0  3  0  0  0  0  0  0
  -25.5420  -26.8750   19.7070 C   0  0  0  0  0  3  0  0  0  0  0  0
  -24.4190  -27.7260   19.7210 C   0  0  0  0  0  3  0  0  0  0  0  0
  -23.3090  -29.9350   20.3900 C   0  0  0  0  0  2  0  0  0  0  0  0
  -24.4800  -31.1570   22.2760 N   0  0  0  0  0  0  0  0  0  0  0  0
  -23.4350  -32.3040   23.9360 O   0  0  0  0  0  0  0  0  0  0  0  0
  -22.4810  -29.6560   22.7560 C   0  0  0  0  0  0  0  0  0  0  0  0
  -21.1530  -29.4910   22.6170 N   0  0  0  0  0  0  0  0  0  0  0  0
  -23.1410  -29.0510   23.6040 O   0  0  0  0  0  0  0  0  0  0  0  0
  -20.6820  -30.0330   21.9060 H   0  0  0  0  0  0  0  0  0  0  0  0
  -17.7670  -28.2890   23.0480 C   0  0  0  0  0  0  0  0  0  0  0  0
  -20.3110  -28.5850   23.4020 C   0  0  0  0  0  3  0  0  0  0  0  0
  -20.4450  -27.1260   22.9040 C   0  0  0  0  0  2  0  0  0  0  0  0
  -19.3850  -26.7420   21.8670 C   0  0  0  0  0  2  0  0  0  0  0  0
  -17.9780  -26.9090   22.4490 C   0  0  0  0  0  2  0  0  0  0  0  0
  -18.8620  -29.0820   23.4800 C   0  0  0  0  0  0  0  0  0  0  0  0
  -18.6140  -30.3720   23.9990 C   0  0  0  0  0  3  0  0  0  0  0  0
  -17.2990  -30.8690   24.0890 C   0  0  0  0  0  3  0  0  0  0  0  0
  -16.2170  -30.0740   23.6750 C   0  0  0  0  0  3  0  0  0  0  0  0
  -16.4510  -28.7860   23.1620 C   0  0  0  0  0  3  0  0  0  0  0  0
  -25.8170  -32.5400   23.9590 C   0  0  0  0  0  3  0  0  0  0  0  0
  -25.5910  -33.9540   24.2900 N   0  0  0  0  0  0  0  0  0  0  0  0
  -25.9890  -34.9880   23.5350 C   0  0  0  0  0  0  0  0  0  0  0  0
  -26.6570  -34.8460   22.5070 O   0  0  0  0  0  0  0  0  0  0  0  0
  -25.0050  -34.1450   25.0900 H   0  0  0  0  0  0  0  0  0  0  0  0
  -24.3980  -36.8970   23.1550 C   0  0  0  0  0  1  0  0  0  0  0  0
  -25.5850  -36.4020   23.9940 C   0  0  0  0  0  3  0  0  0  0  0  0
  -27.7460  -37.1420   24.8990 C   0  0  0  0  0  1  0  0  0  0  0  0
  -26.6910  -37.3830   23.9190 N   0  0  0  0  0  0  0  0  0  0  0  0
  -26.3410  -38.3280   24.0560 H   0  0  0  0  0  0  0  0  0  0  0  0
  -26.3220  -31.7500   25.2280 C   0  0  1  0  0  0  0  0  0  0  0  0
  -25.2430  -31.5700   26.3210 C   0  0  0  0  0  1  0  0  0  0  0  0
  -26.8290  -30.3450   24.8290 C   0  0  0  0  0  1  0  0  0  0  0  0
  -27.5280  -32.4880   25.8590 C   0  0  0  0  0  1  0  0  0  0  0  0
  -29.5960  -17.1100   21.2920 C   0  0  0  0  0  2  0  0  0  0  0  0
  -30.9570  -14.8710   20.8390 C   0  0  0  0  0  0  0  0  0  0  0  0
  -30.7360  -12.6580   19.7020 C   0  0  0  0  0  2  0  0  0  0  0  0
  -29.8670  -12.7960   18.4330 C   0  0  0  0  0  2  0  0  0  0  0  0
  -28.3660  -12.6910   18.7750 C   0  0  0  0  0  2  0  0  0  0  0  0
  -27.9560  -13.5050   20.0370 C   0  0  0  0  0  3  0  0  0  0  0  0
  -28.9610  -13.3460   21.1940 C   0  0  0  0  0  2  0  0  0  0  0  0
  -30.2780  -13.6890   20.6580 N   0  0  0  0  0  0  0  0  0  0  0  0
  -32.1890  -14.8570   20.7390 O   0  0  0  0  0  0  0  0  0  0  0  0
  -30.2910  -16.0390   20.4550 N   0  0  0  0  0  0  0  0  0  0  0  0
  -25.5420  -14.0830   20.6640 C   0  0  0  0  0  0  0  0  0  0  0  0
  -24.4600  -13.3030   20.9690 C   0  0  0  0  0  0  0  0  0  0  0  0
  -24.9270  -11.9530   20.9510 C   0  0  0  0  0  0  0  0  0  0  0  0
  -26.5950  -13.2060   20.4660 N   0  0  0  0  0  0  0  0  0  0  0  0
  -26.2320  -11.9220   20.7080 N   0  0  0  0  0  0  0  0  0  0  0  0
  -24.1950  -10.6870   21.0880 C   0  0  0  0  0  0  0  0  0  0  0  0
  -24.5710   -9.7160   22.0420 C   0  0  0  0  0  3  0  0  0  0  0  0
  -23.8400   -8.5160   22.1670 C   0  0  0  0  0  3  0  0  0  0  0  0
  -22.7170   -8.2800   21.3400 C   0  0  0  0  0  0  0  0  0  0  0  0
  -22.3600   -9.2400   20.3770 C   0  0  0  0  0  3  0  0  0  0  0  0
  -23.0910  -10.4320   20.2490 C   0  0  0  0  0  3  0  0  0  0  0  0
  -21.9570   -7.1350   21.3760 O   0  0  0  0  0  0  0  0  0  0  0  0
  -21.8250   -6.3940   22.5230 C   0  0  0  0  0  0  0  0  0  0  0  0
  -21.2690   -6.9370   23.7020 C   0  0  0  0  0  3  0  0  0  0  0  0
  -21.0890   -6.1200   24.8360 C   0  0  0  0  0  3  0  0  0  0  0  0
  -21.4540   -4.7610   24.7890 C   0  0  0  0  0  0  0  0  0  0  0  0
  -22.0030   -4.2190   23.6150 C   0  0  0  0  0  3  0  0  0  0  0  0
  -22.1870   -5.0330   22.4830 C   0  0  0  0  0  0  0  0  0  0  0  0
  -22.6950   -4.5000   21.3470 F   0  0  0  0  0  0  0  0  0  0  0  0
  -21.2750   -3.9740   25.8760 F   0  0  0  0  0  0  0  0  0  0  0  0
  -23.0490  -13.7760   21.1690 C   0  0  0  0  0  0  0  0  0  0  0  0
  -22.2750  -13.0680   21.9830 N   0  0  0  0  0  0  0  0  0  0  0  0
  -22.6410  -14.8070   20.6360 O   0  0  0  0  0  0  0  0  0  0  0  0
  -22.6170  -12.2350   22.4370 H   0  0  0  0  0  0  0  0  0  0  0  0
  -21.3230  -13.3620   22.1520 H   0  0  0  0  0  0  0  0  0  0  0  0
  -25.7120  -15.4550   20.5110 N   0  0  0  0  0  0  0  0  0  0  0  0
  -24.9350  -16.1020   20.5800 H   0  0  0  0  0  0  0  0  0  0  0  0
  -26.5760  -15.8950   20.2200 H   0  0  0  0  0  0  0  0  0  0  0  0
  -29.4830  -16.9330   18.2500 C   0  0  0  0  0  1  0  0  0  0  0  0
  -30.6900  -16.6320   19.1600 C   0  0  0  0  0  2  0  0  0  0  0  0
  1  6  1  0
  2  3  1  0
  2  1  2  0
  3  5  2  0
  5  6  1  0
  6  4  1  0
  7  8  1  0
  7  2  1  0
  9 10  1  0
  9  8  2  0
 11 13  1  0
 11 10  1  0
 12 23  2  0
 13 18  1  0
 14 22  1  0
 14 24  1  0
 15 21  1  0
 15 17  1  0
 16 22  1  0
 17 16  1  0
 18 17  2  0
 19 20  1  0
 19 13  2  0
 20 15  2  0
 21 14  1  0
 22 12  1  0
 24 26  2  0
 25 24  1  0
 27 25  1  0
 28 37  2  0
 28 33  1  0
 29 25  1  0
 29 33  1  0
 30 29  1  0
 31 32  1  0
 31 30  1  0
 32 28  1  0
 33 34  2  0
 34 35  1  0
 36 35  2  0
 37 36  1  0
 38 12  1  0
 38 39  1  0
 38 48  1  0
 39 42  1  0
 40 44  1  0
 40 39  1  0
 41 40  2  0
 44 43  1  0
 46 44  1  0
 46 47  1  0
 46 45  1  0
 48 51  1  1
 48 49  1  0
 50 48  1  0
 52  3  1  0
 54 59  1  0
 55 56  1  0
 55 54  1  0
 57 56  1  0
 57 65  1  0
 57 58  1  0
 59 53  1  0
 59 58  1  0
 60 53  2  0
 61 53  1  0
 61 52  1  0
 62 63  2  0
 63 82  1  0
 64 63  1  0
 64 67  1  0
 65 62  1  0
 65 66  1  0
 66 64  2  0
 67 68  1  0
 68 69  2  0
 70 73  1  0
 70 69  1  0
 71 70  2  0
 72 71  1  0
 72 67  2  0
 73 74  1  0
 74 75  1  0
 75 76  2  0
 77 76  1  0
 77 81  1  0
 78 77  2  0
 79 74  2  0
 79 78  1  0
 80 79  1  0
 82 83  1  0
 83 86  1  0
 83 85  1  0
 84 82  2  0
 87 88  1  0
 87 62  1  0
 89 87  1  0
 90 91  1  0
 91 61  1  0
M  ISO  4  10 101  11 101  53 100  61 100
M  END
>  <TORSDO>  (4) 
F 22

>  <SCORE>  (4) 
-12.396

>  <name>  (4) 
3

>  <ligand_id>  (4) 
3

>  <original_smiles>  (4) 
[H]c1c([H])c([H])c2c(c1[H])C([H])([H])C([H])([H])C([H])([H])C2([H])N([H])C(=O)C1([H])N(C(=O)C([H])(N([H])C(=O)C([H])(N([H])C([H])([H])[H])C([H])([H])[H])C(C([H])([H])[H])(C([H])([H])[H])C([H])([H])[H])C([H])([H])c2c([H])c(OC([H])([H])C([H])([H])C([H])([H])C([H])([H])c3c(C([H])([H])N(C(=O)N4C([H])([H])C([H])([H])C([H])([H])C([H])(n5nc(-c6c([H])c([H])c(Oc7c([H])c([H])c(F)c([H])c7F)c([H])c6[H])c(C(=O)N([H])[H])c5N([H])[H])C4([H])[H])C([H])([H])C([H])([H])[H])nn(C([H])([H])[H])c3[H])c([H])c([H])c2C1([H])[H]

>  <smiles>  (4) 
[H]c1c([H])c([H])c2c(c1[H])C([H])([H])C([H])([H])C([H])([H])C2([H])N([H])C(=O)C1([H])N(C(=O)C([H])(N([H])C(=O)C([H])(N([H])C([H])([H])[H])C([H])([H])[H])C(C([H])([H])[H])(C([H])([H])[H])C([H])([H])[H])C([H])([H])c2c([H])c(OC([H])([H])C([H])([H])C([H])([H])C([H])([H])c3c(C([H])([H])N(C(=O)N4C([H])([H])C([H])([H])C([H])([H])C([H])(n5nc(-c6c([H])c([H])c(Oc7c([H])c([H])c(F)c([H])c7F)c([H])c6[H])c(C(=O)N([H])[H])c5N([H])[H])C4([H])[H])C([H])([H])C([H])([H])[H])nn(C([H])([H])[H])c3[H])c([H])c([H])c2C1([H])[H]

$$$$
4:0:0
     RDKit          3D

 93101  0  0  1  0  0  0  0  0999 V2000
  -28.6200  -21.6740   19.8770 C   0  0  0  0  0  3  0  0  0  0  0  0
  -29.0700  -23.7250   21.0830 C   0  0  0  0  0  3  0  0  0  0  0  0
  -28.4780  -23.0960   19.9750 C   0  0  0  0  0  0  0  0  0  0  0  0
  -29.2770  -20.9400   20.9020 C   0  0  0  0  0  0  0  0  0  0  0  0
  -29.6980  -22.9360   22.0720 C   0  0  0  0  0  0  0  0  0  0  0  0
  -29.8060  -21.5870   21.9690 N   0  0  0  0  0  0  0  0  0  0  0  0
  -29.0840  -23.4740   24.5000 C   0  0  0  0  0  1  0  0  0  0  0  0
  -30.7290  -24.9670   23.2900 C   0  0  0  0  0  1  0  0  0  0  0  0
  -30.1690  -23.5370   23.4040 C   0  0  0  0  0  3  0  0  0  0  0  0
  -27.4750  -23.8820   19.0890 C   0  0  0  0  0  2  0  0  0  0  0  0
  -27.7880  -25.2930   18.4490 C   0  0  0  0  0  2  0  0  0  0  0  0
  -27.8770  -26.5430   19.2120 O   0  0  0  0  0  0  0  0  0  0  0  0
  -24.5160  -31.5790   23.1030 C   0  0  0  0  0  0  0  0  0  0  0  0
  -26.7680  -27.3810   19.3420 C   0  0  0  0  0  0  0  0  0  0  0  0
  -23.1760  -30.4320   21.3760 C   0  0  0  0  0  3  0  0  0  0  0  0
  -24.4790  -29.0330   19.6930 C   0  0  0  0  0  0  0  0  0  0  0  0
  -25.7140  -30.6920   21.0890 C   0  0  0  0  0  2  0  0  0  0  0  0
  -25.6960  -29.4090   20.2700 C   0  0  0  0  0  0  0  0  0  0  0  0
  -26.8440  -28.5850   20.0960 C   0  0  0  0  0  3  0  0  0  0  0  0
  -25.5200  -27.0410   18.7730 C   0  0  0  0  0  3  0  0  0  0  0  0
  -24.3850  -27.8480   18.9480 C   0  0  0  0  0  3  0  0  0  0  0  0
  -23.2910  -29.9410   19.9120 C   0  0  0  0  0  2  0  0  0  0  0  0
  -24.4910  -30.9130   21.9130 N   0  0  0  0  0  0  0  0  0  0  0  0
  -23.4740  -31.8180   23.7290 O   0  0  0  0  0  0  0  0  0  0  0  0
  -22.5370  -29.3170   22.2370 C   0  0  0  0  0  0  0  0  0  0  0  0
  -21.2030  -29.1770   22.1560 N   0  0  0  0  0  0  0  0  0  0  0  0
  -23.2370  -28.5870   22.9460 O   0  0  0  0  0  0  0  0  0  0  0  0
  -20.6970  -29.8310   21.5750 H   0  0  0  0  0  0  0  0  0  0  0  0
  -17.8370  -27.9230   22.6060 C   0  0  0  0  0  0  0  0  0  0  0  0
  -20.4000  -28.1680   22.8490 C   0  0  0  0  0  3  0  0  0  0  0  0
  -20.4920  -26.7940   22.1470 C   0  0  0  0  0  2  0  0  0  0  0  0
  -19.3720  -26.5610   21.1280 C   0  0  0  0  0  2  0  0  0  0  0  0
  -18.0020  -26.6400   21.8060 C   0  0  0  0  0  2  0  0  0  0  0  0
  -18.9630  -28.6480   23.0820 C   0  0  0  0  0  0  0  0  0  0  0  0
  -18.7500  -29.8500   23.7920 C   0  0  0  0  0  3  0  0  0  0  0  0
  -17.4480  -30.3310   24.0240 C   0  0  0  0  0  3  0  0  0  0  0  0
  -16.3380  -29.6050   23.5560 C   0  0  0  0  0  3  0  0  0  0  0  0
  -16.5340  -28.4000   22.8580 C   0  0  0  0  0  3  0  0  0  0  0  0
  -25.8530  -32.0950   23.7200 C   0  0  0  0  0  3  0  0  0  0  0  0
  -25.6240  -33.4710   24.1850 N   0  0  0  0  0  0  0  0  0  0  0  0
  -26.0010  -34.5730   23.5230 C   0  0  0  0  0  0  0  0  0  0  0  0
  -26.6440  -34.5320   22.4700 O   0  0  0  0  0  0  0  0  0  0  0  0
  -25.0640  -33.5790   25.0180 H   0  0  0  0  0  0  0  0  0  0  0  0
  -24.3610  -36.4760   23.3780 C   0  0  0  0  0  1  0  0  0  0  0  0
  -25.5960  -35.9370   24.1170 C   0  0  0  0  0  3  0  0  0  0  0  0
  -27.7890  -36.6370   24.9720 C   0  0  0  0  0  1  0  0  0  0  0  0
  -26.6810  -36.9410   24.0720 N   0  0  0  0  0  0  0  0  0  0  0  0
  -26.3280  -37.8660   24.3020 H   0  0  0  0  0  0  0  0  0  0  0  0
  -26.3840  -31.1890   24.8970 C   0  0  1  0  0  0  0  0  0  0  0  0
  -25.3300  -30.9200   25.9960 C   0  0  0  0  0  1  0  0  0  0  0  0
  -26.8720  -29.8220   24.3640 C   0  0  0  0  0  1  0  0  0  0  0  0
  -27.6100  -31.8630   25.5620 C   0  0  0  0  0  1  0  0  0  0  0  0
  -29.2090  -19.3830   21.0420 C   0  0  0  0  0  2  0  0  0  0  0  0
  -30.2690  -18.4740   20.3180 C   0  0  0  0  0  2  0  0  0  0  0  0
  -30.9320  -17.2780   21.1140 C   0  0  0  0  0  2  0  0  0  0  0  0
  -31.1890  -14.7650   20.6150 C   0  0  0  0  0  0  0  0  0  0  0  0
  -31.0190  -12.4740   19.6690 C   0  0  0  0  0  2  0  0  0  0  0  0
  -30.1760  -12.5020   18.3760 C   0  0  0  0  0  2  0  0  0  0  0  0
  -28.6740  -12.3840   18.6940 C   0  0  0  0  0  2  0  0  0  0  0  0
  -28.2250  -13.3500   19.8230 C   0  0  0  0  0  3  0  0  0  0  0  0
  -29.1780  -13.2930   21.0350 C   0  0  0  0  0  2  0  0  0  0  0  0
  -30.5350  -13.5660   20.5390 N   0  0  0  0  0  0  0  0  0  0  0  0
  -32.3780  -14.8670   20.2970 O   0  0  0  0  0  0  0  0  0  0  0  0
  -30.4450  -15.8720   20.9070 N   0  0  0  0  0  0  0  0  0  0  0  0
  -29.4710  -15.6910   21.1070 H   0  0  0  0  0  0  0  0  0  0  0  0
  -25.7930  -14.0230   20.3000 C   0  0  0  0  0  0  0  0  0  0  0  0
  -24.6860  -13.2890   20.6140 C   0  0  0  0  0  0  0  0  0  0  0  0
  -25.1200  -11.9290   20.6840 C   0  0  0  0  0  0  0  0  0  0  0  0
  -26.8370  -13.1160   20.2020 N   0  0  0  0  0  0  0  0  0  0  0  0
  -26.4300  -11.8520   20.4890 N   0  0  0  0  0  0  0  0  0  0  0  0
  -24.3510  -10.6920   20.8780 C   0  0  0  0  0  0  0  0  0  0  0  0
  -24.6380   -9.8010   21.9370 C   0  0  0  0  0  3  0  0  0  0  0  0
  -23.8750   -8.6270   22.1110 C   0  0  0  0  0  3  0  0  0  0  0  0
  -22.8150   -8.3320   21.2210 C   0  0  0  0  0  0  0  0  0  0  0  0
  -22.5500   -9.2080   20.1550 C   0  0  0  0  0  3  0  0  0  0  0  0
  -23.3110  -10.3750   19.9830 C   0  0  0  0  0  3  0  0  0  0  0  0
  -22.0400   -7.2010   21.2920 O   0  0  0  0  0  0  0  0  0  0  0  0
  -21.7390   -6.6110   22.4920 C   0  0  0  0  0  0  0  0  0  0  0  0
  -21.0490   -7.3040   23.5100 C   0  0  0  0  0  3  0  0  0  0  0  0
  -20.7000   -6.6370   24.7000 C   0  0  0  0  0  3  0  0  0  0  0  0
  -21.0340   -5.2820   24.8730 C   0  0  0  0  0  0  0  0  0  0  0  0
  -21.7200   -4.5900   23.8600 C   0  0  0  0  0  3  0  0  0  0  0  0
  -22.0700   -5.2540   22.6720 C   0  0  0  0  0  0  0  0  0  0  0  0
  -22.7110   -4.5790   21.6890 F   0  0  0  0  0  0  0  0  0  0  0  0
  -20.6930   -4.6390   26.0150 F   0  0  0  0  0  0  0  0  0  0  0  0
  -23.2820  -13.8020   20.7490 C   0  0  0  0  0  0  0  0  0  0  0  0
  -22.4860  -13.1790   21.6060 N   0  0  0  0  0  0  0  0  0  0  0  0
  -22.9020  -14.7950   20.1270 O   0  0  0  0  0  0  0  0  0  0  0  0
  -22.8170  -12.3840   22.1350 H   0  0  0  0  0  0  0  0  0  0  0  0
  -21.5360  -13.4960   21.7310 H   0  0  0  0  0  0  0  0  0  0  0  0
  -25.9950  -15.3830   20.0700 N   0  0  0  0  0  0  0  0  0  0  0  0
  -25.2080  -16.0190   20.0140 H   0  0  0  0  0  0  0  0  0  0  0  0
  -26.8610  -15.7910   19.7460 H   0  0  0  0  0  0  0  0  0  0  0  0
  1  3  2  0
  1  4  1  0
  2  5  2  0
  3  2  1  0
  4 53  1  0
  4  6  2  0
  5  9  1  0
  6  5  1  0
  8  9  1  0
  9  7  1  0
 10  3  1  0
 11 10  1  0
 11 12  1  0
 12 14  1  0
 13 24  2  0
 14 19  1  0
 15 23  1  0
 15 25  1  0
 16 22  1  0
 16 18  1  0
 17 23  1  0
 18 17  1  0
 19 18  2  0
 20 21  1  0
 20 14  2  0
 21 16  2  0
 22 15  1  0
 23 13  1  0
 25 27  2  0
 26 25  1  0
 28 26  1  0
 29 38  2  0
 29 34  1  0
 30 26  1  0
 30 34  1  0
 31 30  1  0
 32 33  1  0
 32 31  1  0
 33 29  1  0
 34 35  2  0
 35 36  1  0
 37 36  2  0
 38 37  1  0
 39 13  1  0
 39 40  1  0
 39 49  1  0
 40 43  1  0
 41 45  1  0
 41 40  1  0
 42 41  2  0
 45 44  1  0
 47 45  1  0
 47 48  1  0
 47 46  1  0
 49 52  1  1
 49 50  1  0
 51 49  1  0
 54 53  1  0
 54 55  1  0
 56 64  1  0
 57 62  1  0
 58 59  1  0
 58 57  1  0
 60 59  1  0
 60 69  1  0
 60 61  1  0
 62 56  1  0
 62 61  1  0
 63 56  2  0
 64 65  1  0
 64 55  1  0
 66 67  2  0
 67 68  1  0
 67 86  1  0
 68 71  1  0
 69 66  1  0
 69 70  1  0
 70 68  2  0
 71 72  1  0
 72 73  2  0
 74 77  1  0
 74 73  1  0
 75 74  2  0
 76 75  1  0
 76 71  2  0
 77 78  1  0
 78 83  2  0
 78 79  1  0
 79 80  2  0
 80 81  1  0
 81 85  1  0
 82 81  2  0
 83 82  1  0
 84 83  1  0
 86 87  1  0
 87 90  1  0
 87 89  1  0
 88 86  2  0
 91 66  1  0
 92 91  1  0
 93 91  1  0
M  ISO  4  11 101  12 101  56 100  64 100
M  END
>  <TORSDO>  (5) 
F 22

>  <SCORE>  (5) 
-9.104

>  <name>  (5) 
4

>  <ligand_id>  (5) 
4

>  <original_smiles>  (5) 
[H]c1c([H])c([H])c2c(c1[H])C([H])([H])C([H])([H])C([H])([H])C2([H])N([H])C(=O)C1([H])N(C(=O)C([H])(N([H])C(=O)C([H])(N([H])C([H])([H])[H])C([H])([H])[H])C(C([H])([H])[H])(C([H])([H])[H])C([H])([H])[H])C([H])([H])c2c([H])c(OC([H])([H])C([H])([H])c3c([H])c(C([H])([H])C([H])([H])C([H])([H])N([H])C(=O)N4C([H])([H])C([H])([H])C([H])([H])C([H])(n5nc(-c6c([H])c([H])c(Oc7c([H])c([H])c(F)c([H])c7F)c([H])c6[H])c(C(=O)N([H])[H])c5N([H])[H])C4([H])[H])nc(C([H])(C([H])([H])[H])C([H])([H])[H])c3[H])c([H])c([H])c2C1([H])[H]

>  <smiles>  (5) 
[H]c1c([H])c([H])c2c(c1[H])C([H])([H])C([H])([H])C([H])([H])C2([H])N([H])C(=O)C1([H])N(C(=O)C([H])(N([H])C(=O)C([H])(N([H])C([H])([H])[H])C([H])([H])[H])C(C([H])([H])[H])(C([H])([H])[H])C([H])([H])[H])C([H])([H])c2c([H])c(OC([H])([H])C([H])([H])c3c([H])c(C([H])([H])C([H])([H])C([H])([H])N([H])C(=O)N4C([H])([H])C([H])([H])C([H])([H])C([H])(n5nc(-c6c([H])c([H])c(Oc7c([H])c([H])c(F)c([H])c7F)c([H])c6[H])c(C(=O)N([H])[H])c5N([H])[H])C4([H])[H])nc(C([H])(C([H])([H])[H])C([H])([H])[H])c3[H])c([H])c([H])c2C1([H])[H]

$$$$
5:0:0
     RDKit          3D

 93101  0  0  1  0  0  0  0  0999 V2000
  -30.0400  -21.5220   19.5880 C   0  0  0  0  0  3  0  0  0  0  0  0
  -30.2240  -22.9800   21.4980 C   0  0  0  0  0  3  0  0  0  0  0  0
  -30.0210  -22.8750   20.1070 C   0  0  0  0  0  0  0  0  0  0  0  0
  -30.2380  -20.3790   20.4560 C   0  0  0  0  0  0  0  0  0  0  0  0
  -30.3950  -21.8280   22.3000 C   0  0  0  0  0  0  0  0  0  0  0  0
  -30.3730  -20.5770   21.7820 N   0  0  0  0  0  0  0  0  0  0  0  0
  -29.4190  -21.0230   24.4650 C   0  0  0  0  0  1  0  0  0  0  0  0
  -30.3590  -23.3410   24.3750 C   0  0  0  0  0  1  0  0  0  0  0  0
  -31.9070  -21.4100   24.2980 C   0  0  0  0  0  1  0  0  0  0  0  0
  -30.5170  -21.9020   23.8370 C   0  0  2  0  0  0  0  0  0  0  0  0
  -29.8780  -24.2100   19.2550 C   0  0  0  0  0  2  0  0  0  0  0  0
  -28.8040  -25.3320   19.6820 C   0  0  0  0  0  2  0  0  0  0  0  0
  -29.0290  -26.7990   19.4560 O   0  0  0  0  0  0  0  0  0  0  0  0
  -25.5180  -31.5040   23.7300 C   0  0  0  0  0  0  0  0  0  0  0  0
  -27.9380  -27.6750   19.6510 C   0  0  0  0  0  0  0  0  0  0  0  0
  -24.2370  -30.5120   21.8710 C   0  0  0  0  0  3  0  0  0  0  0  0
  -25.6110  -29.2990   20.0880 C   0  0  0  0  0  0  0  0  0  0  0  0
  -26.7770  -30.8310   21.6680 C   0  0  0  0  0  2  0  0  0  0  0  0
  -26.8100  -29.6240   20.7320 C   0  0  0  0  0  0  0  0  0  0  0  0
  -27.9780  -28.8260   20.5060 C   0  0  0  0  0  3  0  0  0  0  0  0
  -26.7130  -27.4260   18.9900 C   0  0  0  0  0  3  0  0  0  0  0  0
  -25.5670  -28.2090   19.2080 C   0  0  0  0  0  3  0  0  0  0  0  0
  -24.3930  -30.1550   20.3710 C   0  0  0  0  0  2  0  0  0  0  0  0
  -25.5320  -30.9530   22.4810 N   0  0  0  0  0  0  0  0  0  0  0  0
  -24.4590  -31.6680   24.3520 O   0  0  0  0  0  0  0  0  0  0  0  0
  -23.5880  -29.3150   22.6070 C   0  0  0  0  0  0  0  0  0  0  0  0
  -22.2770  -29.1070   22.3910 N   0  0  0  0  0  0  0  0  0  0  0  0
  -24.2660  -28.5810   23.3310 O   0  0  0  0  0  0  0  0  0  0  0  0
  -21.7870  -29.7560   21.7920 H   0  0  0  0  0  0  0  0  0  0  0  0
  -18.9820  -27.6130   22.3980 C   0  0  0  0  0  0  0  0  0  0  0  0
  -21.4760  -28.0160   22.9510 C   0  0  0  0  0  3  0  0  0  0  0  0
  -21.7490  -26.6880   22.2080 C   0  0  0  0  0  2  0  0  0  0  0  0
  -20.7720  -26.4290   21.0570 C   0  0  0  0  0  2  0  0  0  0  0  0
  -19.3320  -26.3840   21.5740 C   0  0  0  0  0  2  0  0  0  0  0  0
  -19.9910  -28.3870   23.0310 C   0  0  0  0  0  0  0  0  0  0  0  0
  -19.6140  -29.5380   23.7570 C   0  0  0  0  0  3  0  0  0  0  0  0
  -18.2630  -29.9170   23.8550 C   0  0  0  0  0  3  0  0  0  0  0  0
  -17.2680  -29.1380   23.2400 C   0  0  0  0  0  3  0  0  0  0  0  0
  -17.6270  -27.9870   22.5180 C   0  0  0  0  0  3  0  0  0  0  0  0
  -26.8320  -31.9720   24.4270 C   0  0  0  0  0  3  0  0  0  0  0  0
  -26.5680  -33.2840   25.0370 N   0  0  0  0  0  0  0  0  0  0  0  0
  -26.9320  -34.4580   24.5030 C   0  0  0  0  0  0  0  0  0  0  0  0
  -27.5930  -34.5450   23.4650 O   0  0  0  0  0  0  0  0  0  0  0  0
  -25.9820  -33.2910   25.8590 H   0  0  0  0  0  0  0  0  0  0  0  0
  -25.2740  -36.3490   24.5250 C   0  0  0  0  0  1  0  0  0  0  0  0
  -26.4910  -35.7390   25.2380 C   0  0  0  0  0  3  0  0  0  0  0  0
  -28.6500  -36.3500   26.2360 C   0  0  0  0  0  1  0  0  0  0  0  0
  -27.5630  -36.7530   25.3460 N   0  0  0  0  0  0  0  0  0  0  0  0
  -27.1910  -37.6370   25.6800 H   0  0  0  0  0  0  0  0  0  0  0  0
  -27.3570  -30.9530   25.5110 C   0  0  1  0  0  0  0  0  0  0  0  0
  -26.2820  -30.5380   26.5440 C   0  0  0  0  0  1  0  0  0  0  0  0
  -27.8890  -29.6650   24.8420 C   0  0  0  0  0  1  0  0  0  0  0  0
  -28.5460  -31.5740   26.2800 C   0  0  0  0  0  1  0  0  0  0  0  0
  -30.1040  -18.8440   20.0720 C   0  0  0  0  0  3  0  0  0  0  0  0
  -30.9620  -17.7230   20.8510 C   0  0  0  0  0  3  0  0  0  0  0  0
  -31.4320  -15.1370   20.5250 C   0  0  0  0  0  0  0  0  0  0  0  0
  -31.2570  -12.8140   19.6400 C   0  0  0  0  0  2  0  0  0  0  0  0
  -30.3570  -12.8200   18.3830 C   0  0  0  0  0  2  0  0  0  0  0  0
  -28.8680  -12.6960   18.7670 C   0  0  0  0  0  2  0  0  0  0  0  0
  -28.4640  -13.6670   19.9080 C   0  0  0  0  0  3  0  0  0  0  0  0
  -29.4780  -13.6190   21.0700 C   0  0  0  0  0  2  0  0  0  0  0  0
  -30.8020  -13.9180   20.5090 N   0  0  0  0  0  0  0  0  0  0  0  0
  -32.6280  -15.2390   20.2410 O   0  0  0  0  0  0  0  0  0  0  0  0
  -30.6330  -16.2470   20.6750 N   0  0  0  0  0  0  0  0  0  0  0  0
  -29.6610  -16.0190   20.8190 H   0  0  0  0  0  0  0  0  0  0  0  0
  -26.1030  -14.3540   20.6460 C   0  0  0  0  0  0  0  0  0  0  0  0
  -24.9890  -13.6210   20.9500 C   0  0  0  0  0  0  0  0  0  0  0  0
  -25.3730  -12.2500   20.8330 C   0  0  0  0  0  0  0  0  0  0  0  0
  -27.0970  -13.4320   20.3620 N   0  0  0  0  0  0  0  0  0  0  0  0
  -26.6630  -12.1570   20.5370 N   0  0  0  0  0  0  0  0  0  0  0  0
  -24.5730  -11.0230   20.9260 C   0  0  0  0  0  0  0  0  0  0  0  0
  -24.9270   -9.9740   21.8040 C   0  0  0  0  0  3  0  0  0  0  0  0
  -24.1310   -8.8120   21.8890 C   0  0  0  0  0  3  0  0  0  0  0  0
  -22.9650   -8.6900   21.0960 C   0  0  0  0  0  0  0  0  0  0  0  0
  -22.6300   -9.7260   20.2070 C   0  0  0  0  0  3  0  0  0  0  0  0
  -23.4270  -10.8800   20.1190 C   0  0  0  0  0  3  0  0  0  0  0  0
  -22.1450   -7.5880   21.0960 O   0  0  0  0  0  0  0  0  0  0  0  0
  -21.9930   -6.8030   22.2100 C   0  0  0  0  0  0  0  0  0  0  0  0
  -21.5450   -7.3350   23.4400 C   0  0  0  0  0  3  0  0  0  0  0  0
  -21.3340   -6.4810   24.5410 C   0  0  0  0  0  3  0  0  0  0  0  0
  -21.5600   -5.0970   24.4140 C   0  0  0  0  0  0  0  0  0  0  0  0
  -22.0010   -4.5660   23.1890 C   0  0  0  0  0  3  0  0  0  0  0  0
  -22.2130   -5.4160   22.0890 C   0  0  0  0  0  0  0  0  0  0  0  0
  -22.6170   -4.8960   20.9060 F   0  0  0  0  0  0  0  0  0  0  0  0
  -21.3510   -4.2760   25.4690 F   0  0  0  0  0  0  0  0  0  0  0  0
  -23.6160  -14.1600   21.2360 C   0  0  0  0  0  0  0  0  0  0  0  0
  -22.8370  -13.4510   22.0450 N   0  0  0  0  0  0  0  0  0  0  0  0
  -23.2440  -15.2390   20.7770 O   0  0  0  0  0  0  0  0  0  0  0  0
  -23.1510  -12.5770   22.4400 H   0  0  0  0  0  0  0  0  0  0  0  0
  -21.9140  -13.7890   22.2790 H   0  0  0  0  0  0  0  0  0  0  0  0
  -26.3490  -15.7230   20.5640 N   0  0  0  0  0  0  0  0  0  0  0  0
  -25.6160  -16.4080   20.7140 H   0  0  0  0  0  0  0  0  0  0  0  0
  -27.2200  -16.1370   20.2610 H   0  0  0  0  0  0  0  0  0  0  0  0
  1  3  2  0
  1  4  1  0
  2  5  2  0
  3  2  1  0
  4  6  2  0
  5 10  1  0
  6  5  1  0
 10  9  1  6
 10  8  1  0
 10  7  1  0
 11 12  1  0
 11  3  1  0
 13 15  1  0
 13 12  1  0
 14 25  2  0
 15 20  1  0
 16 24  1  0
 16 26  1  0
 17 23  1  0
 17 19  1  0
 18 24  1  0
 19 18  1  0
 20 19  2  0
 21 22  1  0
 21 15  2  0
 22 17  2  0
 23 16  1  0
 24 14  1  0
 26 28  2  0
 27 26  1  0
 29 27  1  0
 30 39  2  0
 30 35  1  0
 31 27  1  0
 31 35  1  0
 32 31  1  0
 33 34  1  0
 33 32  1  0
 34 30  1  0
 35 36  2  0
 36 37  1  0
 38 37  2  0
 39 38  1  0
 40 14  1  0
 40 41  1  0
 40 50  1  0
 41 44  1  0
 42 41  1  0
 42 46  1  0
 43 42  2  0
 46 45  1  0
 46 48  1  0
 48 49  1  0
 48 47  1  0
 50 53  1  1
 50 51  1  0
 52 50  1  0
 54  4  1  0
 54 55  2  0
 56 64  1  0
 57 62  1  0
 58 59  1  0
 58 57  1  0
 60 59  1  0
 60 69  1  0
 60 61  1  0
 62 56  1  0
 62 61  1  0
 63 56  2  0
 64 65  1  0
 64 55  1  0
 66 67  2  0
 67 86  1  0
 68 71  1  0
 68 67  1  0
 69 70  1  0
 69 66  1  0
 70 68  2  0
 71 72  1  0
 72 73  2  0
 74 73  1  0
 75 74  2  0
 76 75  1  0
 76 71  2  0
 77 74  1  0
 77 78  1  0
 78 79  1  0
 79 80  2  0
 81 80  1  0
 81 85  1  0
 82 81  2  0
 83 78  2  0
 83 82  1  0
 84 83  1  0
 86 87  1  0
 87 90  1  0
 87 89  1  0
 88 86  2  0
 91 66  1  0
 91 92  1  0
 93 91  1  0
M  ISO  4  12 101  13 101  56 100  64 100
M  END
>  <TORSDO>  (6) 
F 21

>  <SCORE>  (6) 
-8.842

>  <name>  (6) 
5

>  <ligand_id>  (6) 
5

>  <original_smiles>  (6) 
[H]c1c([H])c([H])c2c(c1[H])C([H])([H])C([H])([H])C([H])([H])C2([H])N([H])C(=O)C1([H])N(C(=O)C([H])(N([H])C(=O)C([H])(N([H])C([H])([H])[H])C([H])([H])[H])C(C([H])([H])[H])(C([H])([H])[H])C([H])([H])[H])C([H])([H])c2c([H])c(OC([H])([H])C([H])([H])c3c([H])c(C([H])([H])C([H])([H])N([H])C(=O)N4C([H])([H])C([H])([H])C([H])([H])C([H])(n5nc(-c6c([H])c([H])c(Oc7c([H])c([H])c(F)c([H])c7F)c([H])c6[H])c(C(=O)N([H])[H])c5N([H])[H])C4([H])[H])nc(C(C([H])([H])[H])(C([H])([H])[H])C([H])([H])[H])c3[H])c([H])c([H])c2C1([H])[H]

>  <smiles>  (6) 
[H]c1c([H])c([H])c2c(c1[H])C([H])([H])C([H])([H])C([H])([H])C2([H])N([H])C(=O)C1([H])N(C(=O)C([H])(N([H])C(=O)C([H])(N([H])C([H])([H])[H])C([H])([H])[H])C(C([H])([H])[H])(C([H])([H])[H])C([H])([H])[H])C([H])([H])c2c([H])c(OC([H])([H])C([H])([H])c3c([H])c(C([H])([H])C([H])([H])N([H])C(=O)N4C([H])([H])C([H])([H])C([H])([H])C([H])(n5nc(-c6c([H])c([H])c(Oc7c([H])c([H])c(F)c([H])c7F)c([H])c6[H])c(C(=O)N([H])[H])c5N([H])[H])C4([H])[H])nc(C(C([H])([H])[H])(C([H])([H])[H])C([H])([H])[H])c3[H])c([H])c([H])c2C1([H])[H]

$$$$
6:0:0
     RDKit          3D

 92100  0  0  1  0  0  0  0  0999 V2000
  -29.6330  -20.0130   20.7170 C   0  0  0  0  0  0  0  0  0  0  0  0
  -29.9920  -20.4950   22.0170 C   0  0  0  0  0  0  0  0  0  0  0  0
  -30.0950  -18.5000   20.5560 C   0  0  0  0  0  0  0  0  0  0  0  0
  -31.2500  -18.6790   22.5660 C   0  0  0  0  0  0  0  0  0  0  0  0
  -29.4140  -21.7380   22.6820 C   0  0  0  0  0  1  0  0  0  0  0  0
  -32.1620  -17.9970   23.5620 C   0  0  0  0  0  1  0  0  0  0  0  0
  -30.8030  -19.8650   22.8750 N   0  0  0  0  0  0  0  0  0  0  0  0
  -30.9160  -18.0020   21.4980 N   0  0  0  0  0  0  0  0  0  0  0  0
  -28.2760  -16.9260   19.6790 C   0  0  0  0  0  1  0  0  0  0  0  0
  -29.8020  -17.0710   19.6570 C   0  0  2  0  0  0  0  0  0  0  0  0
  -30.4670  -15.4310   19.9260 C   0  0  0  0  0  0  0  0  0  0  0  0
  -30.3870  -12.9930   19.0640 C   0  0  0  0  0  2  0  0  0  0  0  0
  -29.4340  -12.7970   17.8600 C   0  0  0  0  0  2  0  0  0  0  0  0
  -28.0050  -12.4950   18.3450 C   0  0  0  0  0  2  0  0  0  0  0  0
  -27.5710  -13.4480   19.4840 C   0  0  0  0  0  3  0  0  0  0  0  0
  -28.6540  -13.6410   20.5660 C   0  0  0  0  0  2  0  0  0  0  0  0
  -29.8680  -14.1380   19.8970 N   0  0  0  0  0  0  0  0  0  0  0  0
  -31.7000  -15.3190   19.8240 O   0  0  0  0  0  0  0  0  0  0  0  0
  -25.2190  -13.9700   20.3170 C   0  0  0  0  0  0  0  0  0  0  0  0
  -24.1850  -13.1760   20.7220 C   0  0  0  0  0  0  0  0  0  0  0  0
  -24.6790  -11.8350   20.6820 C   0  0  0  0  0  0  0  0  0  0  0  0
  -26.2710  -13.1130   20.0450 N   0  0  0  0  0  0  0  0  0  0  0  0
  -25.9620  -11.8240   20.3350 N   0  0  0  0  0  0  0  0  0  0  0  0
  -23.9840  -10.5600   20.8940 C   0  0  0  0  0  0  0  0  0  0  0  0
  -24.4390   -9.6200   21.8440 C   0  0  0  0  0  3  0  0  0  0  0  0
  -23.7400   -8.4110   22.0440 C   0  0  0  0  0  3  0  0  0  0  0  0
  -22.5720   -8.1340   21.2940 C   0  0  0  0  0  0  0  0  0  0  0  0
  -22.1370   -9.0630   20.3320 C   0  0  0  0  0  3  0  0  0  0  0  0
  -22.8380  -10.2640   20.1300 C   0  0  0  0  0  3  0  0  0  0  0  0
  -21.8430   -6.9740   21.4030 O   0  0  0  0  0  0  0  0  0  0  0  0
  -21.7870   -6.2660   22.5760 C   0  0  0  0  0  0  0  0  0  0  0  0
  -21.3190   -6.8480   23.7760 C   0  0  0  0  0  3  0  0  0  0  0  0
  -21.2150   -6.0650   24.9430 C   0  0  0  0  0  3  0  0  0  0  0  0
  -21.5670   -4.7020   24.9110 C   0  0  0  0  0  0  0  0  0  0  0  0
  -22.0280   -4.1210   23.7160 C   0  0  0  0  0  3  0  0  0  0  0  0
  -22.1350   -4.9010   22.5520 C   0  0  0  0  0  0  0  0  0  0  0  0
  -22.5600   -4.3300   21.3990 F   0  0  0  0  0  0  0  0  0  0  0  0
  -21.4590   -3.9480   26.0300 F   0  0  0  0  0  0  0  0  0  0  0  0
  -22.7860  -13.6260   21.0220 C   0  0  0  0  0  0  0  0  0  0  0  0
  -22.0980  -12.9340   21.9220 N   0  0  0  0  0  0  0  0  0  0  0  0
  -22.3120  -14.6290   20.4910 O   0  0  0  0  0  0  0  0  0  0  0  0
  -22.4950  -12.1230   22.3760 H   0  0  0  0  0  0  0  0  0  0  0  0
  -21.1600  -13.2200   22.1640 H   0  0  0  0  0  0  0  0  0  0  0  0
  -25.3360  -15.3430   20.1290 N   0  0  0  0  0  0  0  0  0  0  0  0
  -24.5490  -15.9710   20.2580 H   0  0  0  0  0  0  0  0  0  0  0  0
  -26.1470  -15.8040   19.7400 H   0  0  0  0  0  0  0  0  0  0  0  0
  -29.7860  -18.6400   17.4990 C   0  0  0  0  0  1  0  0  0  0  0  0
  -30.2390  -17.3410   18.1790 C   0  0  0  0  0  2  0  0  0  0  0  0
  -28.7310  -21.2570   19.9150 C   0  0  0  0  0  2  0  0  0  0  0  0
  -28.9730  -23.0430   19.8570 C   0  0  0  0  0  3  0  0  0  0  0  0
  -27.8940  -24.4570   19.7280 C   0  0  0  0  0  3  0  0  0  0  0  0
  -28.1330  -26.0740   19.7370 O   0  0  0  0  0  0  0  0  0  0  0  0
  -24.6200  -31.8280   23.0450 C   0  0  0  0  0  0  0  0  0  0  0  0
  -27.0980  -27.1340   19.7420 C   0  0  0  0  0  0  0  0  0  0  0  0
  -23.3700  -30.4800   21.4060 C   0  0  0  0  0  3  0  0  0  0  0  0
  -24.7710  -28.9530   19.8630 C   0  0  0  0  0  0  0  0  0  0  0  0
  -25.9210  -30.7410   21.1550 C   0  0  0  0  0  2  0  0  0  0  0  0
  -25.9780  -29.3610   20.4460 C   0  0  0  0  0  0  0  0  0  0  0  0
  -27.1350  -28.4720   20.3630 C   0  0  0  0  0  3  0  0  0  0  0  0
  -25.8590  -26.8660   19.1190 C   0  0  0  0  0  3  0  0  0  0  0  0
  -24.7330  -27.7260   19.1820 C   0  0  0  0  0  3  0  0  0  0  0  0
  -23.5430  -29.8500   19.9960 C   0  0  0  0  0  2  0  0  0  0  0  0
  -24.6600  -31.0420   21.9230 N   0  0  0  0  0  0  0  0  0  0  0  0
  -23.5520  -32.0830   23.6240 O   0  0  0  0  0  0  0  0  0  0  0  0
  -22.7310  -29.4390   22.3630 C   0  0  0  0  0  0  0  0  0  0  0  0
  -21.4040  -29.2340   22.2620 N   0  0  0  0  0  0  0  0  0  0  0  0
  -23.4330  -28.8170   23.1620 O   0  0  0  0  0  0  0  0  0  0  0  0
  -20.8880  -29.7900   21.5940 H   0  0  0  0  0  0  0  0  0  0  0  0
  -18.0860  -27.8540   22.7570 C   0  0  0  0  0  0  0  0  0  0  0  0
  -20.6280  -28.2530   23.0270 C   0  0  0  0  0  3  0  0  0  0  0  0
  -20.8040  -26.8290   22.4470 C   0  0  0  0  0  2  0  0  0  0  0  0
  -19.7230  -26.4530   21.4300 C   0  0  0  0  0  2  0  0  0  0  0  0
  -18.3350  -26.5200   22.0740 C   0  0  0  0  0  2  0  0  0  0  0  0
  -19.1630  -28.6740   23.1910 C   0  0  0  0  0  0  0  0  0  0  0  0
  -18.8750  -29.9170   23.7950 C   0  0  0  0  0  3  0  0  0  0  0  0
  -17.5440  -30.3440   23.9670 C   0  0  0  0  0  3  0  0  0  0  0  0
  -16.4830  -29.5230   23.5470 C   0  0  0  0  0  3  0  0  0  0  0  0
  -16.7550  -28.2790   22.9490 C   0  0  0  0  0  3  0  0  0  0  0  0
  -25.9110  -32.4600   23.6480 C   0  0  0  0  0  3  0  0  0  0  0  0
  -25.5890  -33.8350   24.0710 N   0  0  0  0  0  0  0  0  0  0  0  0
  -25.8980  -34.9430   23.3840 C   0  0  0  0  0  0  0  0  0  0  0  0
  -26.5510  -34.9160   22.3370 O   0  0  0  0  0  0  0  0  0  0  0  0
  -25.0070  -33.9280   24.8910 H   0  0  0  0  0  0  0  0  0  0  0  0
  -24.1490  -36.7450   23.1930 C   0  0  0  0  0  1  0  0  0  0  0  0
  -25.4120  -36.2950   23.9460 C   0  0  0  0  0  3  0  0  0  0  0  0
  -27.5570  -37.1460   24.7870 C   0  0  0  0  0  1  0  0  0  0  0  0
  -26.4330  -37.3630   23.8800 N   0  0  0  0  0  0  0  0  0  0  0  0
  -26.0230  -38.2680   24.0960 H   0  0  0  0  0  0  0  0  0  0  0  0
  -26.4940  -31.6410   24.8650 C   0  0  1  0  0  0  0  0  0  0  0  0
  -25.4540  -31.3460   25.9720 C   0  0  0  0  0  1  0  0  0  0  0  0
  -27.0720  -30.2860   24.3930 C   0  0  0  0  0  1  0  0  0  0  0  0
  -27.6670  -32.4180   25.5070 C   0  0  0  0  0  1  0  0  0  0  0  0
  1  2  2  0
  2  5  1  0
  2  7  1  0
  3  1  1  0
  3  8  2  0
  4  7  2  0
  4  6  1  0
  8  4  1  0
 10  9  1  6
 10 11  1  0
 10  3  1  0
 12 17  1  0
 13 14  1  0
 13 12  1  0
 15 14  1  0
 15 22  1  0
 15 16  1  0
 17 11  1  0
 17 16  1  0
 18 11  2  0
 19 20  2  0
 20 39  1  0
 21 20  1  0
 21 24  1  0
 22 19  1  0
 22 23  1  0
 23 21  2  0
 24 25  1  0
 25 26  2  0
 27 30  1  0
 27 26  1  0
 28 27  2  0
 29 28  1  0
 29 24  2  0
 30 31  1  0
 31 32  1  0
 32 33  2  0
 34 33  1  0
 34 38  1  0
 35 34  2  0
 36 31  2  0
 36 35  1  0
 37 36  1  0
 39 40  1  0
 40 43  1  0
 40 42  1  0
 41 39  2  0
 44 45  1  0
 44 19  1  0
 46 44  1  0
 47 48  1  0
 48 10  1  0
 49  1  1  0
 50 49  1  0
 51 52  1  0
 51 50  2  0
 52 54  1  0
 53 64  2  0
 54 59  1  0
 55 63  1  0
 55 65  1  0
 56 62  1  0
 56 58  1  0
 57 63  1  0
 58 57  1  0
 59 58  2  0
 60 61  1  0
 60 54  2  0
 61 56  2  0
 62 55  1  0
 63 53  1  0
 65 67  2  0
 66 65  1  0
 68 66  1  0
 69 78  2  0
 69 74  1  0
 70 66  1  0
 70 74  1  0
 71 70  1  0
 72 73  1  0
 72 71  1  0
 73 69  1  0
 74 75  2  0
 75 76  1  0
 77 76  2  0
 78 77  1  0
 79 53  1  0
 79 80  1  0
 79 89  1  0
 80 83  1  0
 81 85  1  0
 81 80  1  0
 82 81  2  0
 85 84  1  0
 87 85  1  0
 87 88  1  0
 87 86  1  0
 89 92  1  1
 89 90  1  0
 91 89  1  0
M  ISO  4  10 100  11 100  51 101  52 101
M  END
>  <TORSDO>  (7) 
F 21

>  <SCORE>  (7) 
-12.638

>  <name>  (7) 
6

>  <ligand_id>  (7) 
6

>  <original_smiles>  (7) 
[H]c1c([H])c([H])c2c(c1[H])C([H])([H])C([H])([H])C([H])([H])C2([H])N([H])C(=O)C1([H])N(C(=O)C([H])(N([H])C(=O)C([H])(N([H])C([H])([H])[H])C([H])([H])[H])C(C([H])([H])[H])(C([H])([H])[H])C([H])([H])[H])C([H])([H])c2c([H])c(OC([H])([H])C([H])([H])C([H])([H])c3c(C([H])([H])[H])nc(C([H])([H])[H])nc3C(C(=O)N3C([H])([H])C([H])([H])C([H])([H])C([H])(n4nc(-c5c([H])c([H])c(Oc6c([H])c([H])c(F)c([H])c6F)c([H])c5[H])c(C(=O)N([H])[H])c4N([H])[H])C3([H])[H])(C([H])([H])[H])C([H])([H])C([H])([H])[H])c([H])c([H])c2C1([H])[H]

>  <smiles>  (7) 
[H]c1c([H])c([H])c2c(c1[H])C([H])([H])C([H])([H])C([H])([H])C2([H])N([H])C(=O)C1([H])N(C(=O)C([H])(N([H])C(=O)C([H])(N([H])C([H])([H])[H])C([H])([H])[H])C(C([H])([H])[H])(C([H])([H])[H])C([H])([H])[H])C([H])([H])c2c([H])c(OC([H])([H])C([H])([H])C([H])([H])c3c(C([H])([H])[H])nc(C([H])([H])[H])nc3C(C(=O)N3C([H])([H])C([H])([H])C([H])([H])C([H])(n4nc(-c5c([H])c([H])c(Oc6c([H])c([H])c(F)c([H])c6F)c([H])c5[H])c(C(=O)N([H])[H])c4N([H])[H])C3([H])[H])(C([H])([H])[H])C([H])([H])C([H])([H])[H])c([H])c([H])c2C1([H])[H]

$$$$
7:0:0
     RDKit          3D

 92101  0  0  1  0  0  0  0  0999 V2000
  -30.1910  -23.4060   19.9460 C   0  0  0  0  0  3  0  0  0  0  0  0
  -28.8360  -23.5980   20.3520 C   0  0  0  0  0  0  0  0  0  0  0  0
  -30.4910  -22.0680   20.1410 C   0  0  0  0  0  0  0  0  0  0  0  0
  -31.7740  -21.3450   19.8990 C   0  0  0  0  0  1  0  0  0  0  0  0
  -28.3830  -22.3760   20.7770 N   0  0  0  0  0  0  0  0  0  0  0  0
  -29.3810  -21.4070   20.6490 N   0  0  0  0  0  0  0  0  0  0  0  0
  -29.2710  -19.9730   21.2100 C   0  0  0  0  0  2  0  0  0  0  0  0
  -28.9470  -16.3040   18.8950 C   0  0  0  0  0  3  0  0  0  0  0  0
  -29.7270  -16.2300   20.0760 C   0  0  0  0  0  0  0  0  0  0  0  0
  -28.4620  -18.5630   19.1640 C   0  0  0  0  0  0  0  0  0  0  0  0
  -29.2620  -18.6310   20.3350 C   0  0  0  0  0  0  0  0  0  0  0  0
  -27.6740  -19.7500   18.6340 C   0  0  0  0  0  1  0  0  0  0  0  0
  -28.3200  -17.4210   18.4540 N   0  0  0  0  0  0  0  0  0  0  0  0
  -29.8890  -17.4440   20.7770 N   0  0  0  0  0  0  0  0  0  0  0  0
  -30.5160  -14.8780   20.3130 C   0  0  0  0  0  0  0  0  0  0  0  0
  -30.3480  -12.5680   19.3690 C   0  0  0  0  0  2  0  0  0  0  0  0
  -29.4130  -12.5800   18.1370 C   0  0  0  0  0  2  0  0  0  0  0  0
  -27.9390  -12.4060   18.5590 C   0  0  0  0  0  2  0  0  0  0  0  0
  -27.5410  -13.2960   19.7670 C   0  0  0  0  0  3  0  0  0  0  0  0
  -28.6060  -13.2900   20.8820 C   0  0  0  0  0  2  0  0  0  0  0  0
  -29.8970  -13.6420   20.2820 N   0  0  0  0  0  0  0  0  0  0  0  0
  -31.7440  -14.9200   20.1720 O   0  0  0  0  0  0  0  0  0  0  0  0
  -25.1610  -13.8660   20.5190 C   0  0  0  0  0  0  0  0  0  0  0  0
  -24.1050  -13.0830   20.8910 C   0  0  0  0  0  0  0  0  0  0  0  0
  -24.5830  -11.7380   20.8660 C   0  0  0  0  0  0  0  0  0  0  0  0
  -26.2100  -12.9940   20.2770 N   0  0  0  0  0  0  0  0  0  0  0  0
  -25.8730  -11.7100   20.5540 N   0  0  0  0  0  0  0  0  0  0  0  0
  -23.8700  -10.4700   21.0610 C   0  0  0  0  0  0  0  0  0  0  0  0
  -24.3230   -9.5040   21.9870 C   0  0  0  0  0  3  0  0  0  0  0  0
  -23.6100   -8.3000   22.1710 C   0  0  0  0  0  3  0  0  0  0  0  0
  -22.4310   -8.0540   21.4270 C   0  0  0  0  0  0  0  0  0  0  0  0
  -22.0000   -9.0080   20.4880 C   0  0  0  0  0  3  0  0  0  0  0  0
  -22.7140  -10.2030   20.3040 C   0  0  0  0  0  3  0  0  0  0  0  0
  -21.6890   -6.9010   21.5180 O   0  0  0  0  0  0  0  0  0  0  0  0
  -21.6680   -6.1480   22.6640 C   0  0  0  0  0  0  0  0  0  0  0  0
  -21.2570   -6.6870   23.9020 C   0  0  0  0  0  3  0  0  0  0  0  0
  -21.1810   -5.8590   25.0400 C   0  0  0  0  0  3  0  0  0  0  0  0
  -21.5090   -4.4940   24.9420 C   0  0  0  0  0  0  0  0  0  0  0  0
  -21.9120   -3.9540   23.7070 C   0  0  0  0  0  3  0  0  0  0  0  0
  -21.9880   -4.7790   22.5720 C   0  0  0  0  0  0  0  0  0  0  0  0
  -22.3580   -4.2480   21.3800 F   0  0  0  0  0  0  0  0  0  0  0  0
  -21.4290   -3.6960   26.0320 F   0  0  0  0  0  0  0  0  0  0  0  0
  -22.7020  -13.5470   21.1570 C   0  0  0  0  0  0  0  0  0  0  0  0
  -21.9800  -12.8480   22.0240 N   0  0  0  0  0  0  0  0  0  0  0  0
  -22.2560  -14.5660   20.6300 O   0  0  0  0  0  0  0  0  0  0  0  0
  -22.3570  -12.0260   22.4720 H   0  0  0  0  0  0  0  0  0  0  0  0
  -21.0370  -13.1370   22.2410 H   0  0  0  0  0  0  0  0  0  0  0  0
  -25.3080  -15.2380   20.3390 N   0  0  0  0  0  0  0  0  0  0  0  0
  -24.5290  -15.8780   20.4540 H   0  0  0  0  0  0  0  0  0  0  0  0
  -26.1470  -15.6990   20.0120 H   0  0  0  0  0  0  0  0  0  0  0  0
  -27.8620  -24.8550   20.1900 C   0  0  0  0  0  2  0  0  0  0  0  0
  -28.2490  -26.3240   20.2680 O   0  0  0  0  0  0  0  0  0  0  0  0
  -24.6180  -31.9060   23.2470 C   0  0  0  0  0  0  0  0  0  0  0  0
  -27.1860  -27.2730   20.1910 C   0  0  0  0  0  0  0  0  0  0  0  0
  -23.4070  -30.5180   21.6100 C   0  0  0  0  0  3  0  0  0  0  0  0
  -24.8470  -28.9640   20.1770 C   0  0  0  0  0  0  0  0  0  0  0  0
  -25.9550  -30.8060   21.4260 C   0  0  0  0  0  2  0  0  0  0  0  0
  -26.0270  -29.4230   20.7770 C   0  0  0  0  0  0  0  0  0  0  0  0
  -27.2000  -28.5920   20.7700 C   0  0  0  0  0  3  0  0  0  0  0  0
  -25.9790  -26.9070   19.5410 C   0  0  0  0  0  3  0  0  0  0  0  0
  -24.8310  -27.7170   19.5450 C   0  0  0  0  0  3  0  0  0  0  0  0
  -23.6190  -29.8490   20.2280 C   0  0  0  0  0  2  0  0  0  0  0  0
  -24.6800  -31.0940   22.1510 N   0  0  0  0  0  0  0  0  0  0  0  0
  -23.5360  -32.1900   23.7840 O   0  0  0  0  0  0  0  0  0  0  0  0
  -22.7380  -29.5030   22.5690 C   0  0  0  0  0  0  0  0  0  0  0  0
  -21.4120  -29.3230   22.4380 N   0  0  0  0  0  0  0  0  0  0  0  0
  -23.4110  -28.8800   23.3940 O   0  0  0  0  0  0  0  0  0  0  0  0
  -20.9240  -29.8780   21.7490 H   0  0  0  0  0  0  0  0  0  0  0  0
  -18.0420  -28.0940   22.9200 C   0  0  0  0  0  0  0  0  0  0  0  0
  -20.5940  -28.3850   23.2120 C   0  0  0  0  0  3  0  0  0  0  0  0
  -20.7160  -26.9480   22.6540 C   0  0  0  0  0  2  0  0  0  0  0  0
  -19.6290  -26.6010   21.6320 C   0  0  0  0  0  2  0  0  0  0  0  0
  -18.2400  -26.7380   22.2610 C   0  0  0  0  0  2  0  0  0  0  0  0
  -19.1480  -28.8730   23.3520 C   0  0  0  0  0  0  0  0  0  0  0  0
  -18.9080  -30.1380   23.9300 C   0  0  0  0  0  3  0  0  0  0  0  0
  -17.5980  -30.6260   24.0780 C   0  0  0  0  0  3  0  0  0  0  0  0
  -16.5060  -29.8460   23.6590 C   0  0  0  0  0  3  0  0  0  0  0  0
  -16.7290  -28.5820   23.0860 C   0  0  0  0  0  3  0  0  0  0  0  0
  -25.9030  -32.5390   23.8670 C   0  0  0  0  0  3  0  0  0  0  0  0
  -26.4160  -31.7690   25.1470 C   0  0  1  0  0  0  0  0  0  0  0  0
  -25.3260  -31.5390   26.2190 C   0  0  0  0  0  1  0  0  0  0  0  0
  -26.9920  -30.3870   24.7610 C   0  0  0  0  0  1  0  0  0  0  0  0
  -27.5670  -32.5630   25.8090 C   0  0  0  0  0  1  0  0  0  0  0  0
  -25.5940  -33.9370   24.1990 N   0  0  0  0  0  0  0  0  0  0  0  0
  -25.9130  -34.9910   23.4340 C   0  0  0  0  0  0  0  0  0  0  0  0
  -26.5690  -34.8860   22.3950 O   0  0  0  0  0  0  0  0  0  0  0  0
  -25.0070  -34.0910   25.0060 H   0  0  0  0  0  0  0  0  0  0  0  0
  -24.1790  -36.7870   23.1070 C   0  0  0  0  0  1  0  0  0  0  0  0
  -25.4330  -36.3800   23.8970 C   0  0  0  0  0  3  0  0  0  0  0  0
  -27.5810  -37.2710   24.6910 C   0  0  0  0  0  1  0  0  0  0  0  0
  -26.4620  -37.4340   23.7660 N   0  0  0  0  0  0  0  0  0  0  0  0
  -26.0570  -38.3540   23.9170 H   0  0  0  0  0  0  0  0  0  0  0  0
  1  3  2  0
  1  2  1  0
  2  5  2  0
  3  6  1  0
  4  3  1  0
  6  5  1  0
  6  7  1  0
  8  9  1  0
  9 15  1  0
  9 14  2  0
 10 11  2  0
 11 14  1  0
 11  7  1  0
 12 10  1  0
 13  8  2  0
 13 10  1  0
 16 21  1  0
 17 18  1  0
 17 16  1  0
 19 18  1  0
 19 26  1  0
 19 20  1  0
 21 15  1  0
 21 20  1  0
 22 15  2  0
 23 24  2  0
 24 43  1  0
 25 24  1  0
 25 28  1  0
 26 23  1  0
 26 27  1  0
 27 25  2  0
 28 29  1  0
 29 30  2  0
 31 34  1  0
 31 30  1  0
 32 31  2  0
 33 32  1  0
 33 28  2  0
 34 35  1  0
 35 36  1  0
 36 37  2  0
 38 37  1  0
 38 42  1  0
 39 38  2  0
 40 35  2  0
 40 39  1  0
 41 40  1  0
 43 44  1  0
 44 47  1  0
 44 46  1  0
 45 43  2  0
 48 49  1  0
 48 23  1  0
 50 48  1  0
 51 52  1  0
 51  2  1  0
 53 64  2  0
 54 52  1  0
 54 59  1  0
 55 63  1  0
 55 65  1  0
 56 62  1  0
 56 58  1  0
 57 63  1  0
 58 57  1  0
 59 58  2  0
 60 61  1  0
 60 54  2  0
 61 56  2  0
 62 55  1  0
 63 53  1  0
 65 67  2  0
 66 65  1  0
 68 66  1  0
 69 78  2  0
 69 74  1  0
 70 66  1  0
 70 74  1  0
 71 70  1  0
 72 73  1  0
 72 71  1  0
 73 69  1  0
 74 75  2  0
 75 76  1  0
 77 76  2  0
 78 77  1  0
 79 53  1  0
 79 84  1  0
 79 80  1  0
 80 83  1  1
 80 81  1  0
 82 80  1  0
 84 87  1  0
 85 89  1  0
 85 84  1  0
 86 85  2  0
 89 88  1  0
 91 89  1  0
 91 92  1  0
 91 90  1  0
M  ISO  4   9 100  15 100  51 101  52 101
M  END
>  <TORSDO>  (8) 
F 19

>  <SCORE>  (8) 
-14.274

>  <name>  (8) 
7

>  <ligand_id>  (8) 
7

>  <original_smiles>  (8) 
[H]c1nc(C([H])([H])[H])c(C([H])([H])n2nc(C([H])([H])Oc3c([H])c([H])c4c(c3[H])C([H])([H])N(C(=O)C([H])(N([H])C(=O)C([H])(N([H])C([H])([H])[H])C([H])([H])[H])C(C([H])([H])[H])(C([H])([H])[H])C([H])([H])[H])C([H])(C(=O)N([H])C3([H])c5c([H])c([H])c([H])c([H])c5C([H])([H])C([H])([H])C3([H])[H])C4([H])[H])c([H])c2C([H])([H])[H])nc1C(=O)N1C([H])([H])C([H])([H])C([H])([H])C([H])(n2nc(-c3c([H])c([H])c(Oc4c([H])c([H])c(F)c([H])c4F)c([H])c3[H])c(C(=O)N([H])[H])c2N([H])[H])C1([H])[H]

>  <smiles>  (8) 
[H]c1nc(C([H])([H])[H])c(C([H])([H])n2nc(C([H])([H])Oc3c([H])c([H])c4c(c3[H])C([H])([H])N(C(=O)C([H])(N([H])C(=O)C([H])(N([H])C([H])([H])[H])C([H])([H])[H])C(C([H])([H])[H])(C([H])([H])[H])C([H])([H])[H])C([H])(C(=O)N([H])C3([H])c5c([H])c([H])c([H])c([H])c5C([H])([H])C([H])([H])C3([H])[H])C4([H])[H])c([H])c2C([H])([H])[H])nc1C(=O)N1C([H])([H])C([H])([H])C([H])([H])C([H])(n2nc(-c3c([H])c([H])c(Oc4c([H])c([H])c(F)c([H])c4F)c([H])c3[H])c(C(=O)N([H])[H])c2N([H])[H])C1([H])[H]

$$$$
8:0:0
     RDKit          3D

 98106  0  0  1  0  0  0  0  0999 V2000
  -29.4810  -21.6290   20.2430 C   0  0  0  0  0  2  0  0  0  0  0  0
  -30.6450  -19.2930   20.6540 C   0  0  0  0  0  3  0  0  0  0  0  0
  -28.4170  -19.3160   20.5910 C   0  0  0  0  0  3  0  0  0  0  0  0
  -29.5070  -20.1350   20.4910 C   0  0  0  0  0  0  0  0  0  0  0  0
  -30.2290  -17.9920   20.7950 C   0  0  0  0  0  0  0  0  0  0  0  0
  -27.9450  -16.8830   20.9380 C   0  0  0  0  0  1  0  0  0  0  0  0
  -28.8410  -18.0140   20.7790 N   0  0  0  0  0  0  0  0  0  0  0  0
  -31.0320  -16.7190   20.9600 C   0  0  0  0  0  2  0  0  0  0  0  0
  -31.6240  -14.5800   20.0590 C   0  0  0  0  0  0  0  0  0  0  0  0
  -31.2050  -12.3230   19.1970 C   0  0  0  0  0  2  0  0  0  0  0  0
  -30.3220  -12.4530   17.9400 C   0  0  0  0  0  2  0  0  0  0  0  0
  -28.8310  -12.4500   18.3260 C   0  0  0  0  0  2  0  0  0  0  0  0
  -28.4940  -13.4200   19.4930 C   0  0  0  0  0  3  0  0  0  0  0  0
  -29.5180  -13.3120   20.6460 C   0  0  0  0  0  2  0  0  0  0  0  0
  -30.8600  -13.4550   20.0680 N   0  0  0  0  0  0  0  0  0  0  0  0
  -32.8360  -14.5580   19.8270 O   0  0  0  0  0  0  0  0  0  0  0  0
  -30.9570  -15.7400   19.8490 N   0  0  0  0  0  0  0  0  0  0  0  0
  -26.1190  -14.2000   20.0870 C   0  0  0  0  0  0  0  0  0  0  0  0
  -24.9990  -13.5130   20.4670 C   0  0  0  0  0  0  0  0  0  0  0  0
  -25.3820  -12.1370   20.5290 C   0  0  0  0  0  0  0  0  0  0  0  0
  -27.1190  -13.2490   19.9490 N   0  0  0  0  0  0  0  0  0  0  0  0
  -26.6780  -12.0070   20.2700 N   0  0  0  0  0  0  0  0  0  0  0  0
  -24.5770  -10.9310   20.7610 C   0  0  0  0  0  0  0  0  0  0  0  0
  -24.9140  -10.0030   21.7720 C   0  0  0  0  0  3  0  0  0  0  0  0
  -24.1120   -8.8620   21.9910 C   0  0  0  0  0  3  0  0  0  0  0  0
  -22.9610   -8.6410   21.1970 C   0  0  0  0  0  0  0  0  0  0  0  0
  -22.6440   -9.5580   20.1780 C   0  0  0  0  0  3  0  0  0  0  0  0
  -23.4460  -10.6900   19.9580 C   0  0  0  0  0  3  0  0  0  0  0  0
  -22.1370   -7.5490   21.3190 O   0  0  0  0  0  0  0  0  0  0  0  0
  -21.9740   -6.9030   22.5180 C   0  0  0  0  0  0  0  0  0  0  0  0
  -21.5350   -7.5800   23.6770 C   0  0  0  0  0  3  0  0  0  0  0  0
  -21.3140   -6.8650   24.8700 C   0  0  0  0  0  3  0  0  0  0  0  0
  -21.5240   -5.4730   24.9090 C   0  0  0  0  0  0  0  0  0  0  0  0
  -21.9560   -4.7960   23.7550 C   0  0  0  0  0  3  0  0  0  0  0  0
  -22.1790   -5.5080   22.5630 C   0  0  0  0  0  0  0  0  0  0  0  0
  -22.5750   -4.8470   21.4490 F   0  0  0  0  0  0  0  0  0  0  0  0
  -21.3060   -4.7840   26.0520 F   0  0  0  0  0  0  0  0  0  0  0  0
  -23.6260  -14.0850   20.6670 C   0  0  0  0  0  0  0  0  0  0  0  0
  -22.8410  -13.4930   21.5610 N   0  0  0  0  0  0  0  0  0  0  0  0
  -23.2580  -15.0930   20.0670 O   0  0  0  0  0  0  0  0  0  0  0  0
  -23.1510  -12.6770   22.0650 H   0  0  0  0  0  0  0  0  0  0  0  0
  -21.9190  -13.8620   21.7400 H   0  0  0  0  0  0  0  0  0  0  0  0
  -26.3630  -15.5440   19.8210 N   0  0  0  0  0  0  0  0  0  0  0  0
  -25.6220  -16.2350   19.8250 H   0  0  0  0  0  0  0  0  0  0  0  0
  -27.2340  -15.9020   19.4520 H   0  0  0  0  0  0  0  0  0  0  0  0
  -31.1410  -16.3130   18.4900 C   0  0  0  0  0  2  0  0  0  0  0  0
  -29.9500  -17.1620   18.0100 C   0  0  0  0  0  2  0  0  0  0  0  0
  -29.2190  -19.0740   16.4830 C   0  0  0  0  0  1  0  0  0  0  0  0
  -30.3600  -18.1390   16.8980 C   0  0  0  0  0  2  0  0  0  0  0  0
  -30.0570  -22.0140   18.8650 C   0  0  0  0  0  2  0  0  0  0  0  0
  -29.5120  -23.3310   18.2680 C   0  0  0  0  0  2  0  0  0  0  0  0
  -30.1020  -24.5680   18.8370 N   0  0  0  0  0  4  0  0  0  0  0  0
  -31.1050  -24.4890   18.8200 H   0  0  0  0  0  0  0  0  0  0  0  0
  -29.8060  -24.6570   19.7970 H   0  0  0  0  0  0  0  0  0  0  0  0
  -29.6950  -25.7840   18.0910 C   0  0  0  0  0  2  0  0  0  0  0  0
  -30.3240  -27.1130   18.5790 C   0  0  0  0  0  2  0  0  0  0  0  0
  -30.1400  -27.4530   20.0700 C   0  0  0  0  0  2  0  0  0  0  0  0
  -28.9190  -26.9040   20.5380 O   0  0  0  0  0  0  0  0  0  0  0  0
  -24.7910  -31.9270   23.4480 C   0  0  0  0  0  0  0  0  0  0  0  0
  -27.7770  -27.6610   20.4580 C   0  0  0  0  0  0  0  0  0  0  0  0
  -23.7260  -30.4830   21.7450 C   0  0  0  0  0  3  0  0  0  0  0  0
  -25.3130  -29.0310   20.3750 C   0  0  0  0  0  0  0  0  0  0  0  0
  -26.2350  -30.9700   21.6580 C   0  0  0  0  0  2  0  0  0  0  0  0
  -26.4180  -29.6140   21.0110 C   0  0  0  0  0  0  0  0  0  0  0  0
  -27.6580  -28.9380   21.0490 C   0  0  0  0  0  3  0  0  0  0  0  0
  -26.6540  -27.0770   19.8420 C   0  0  0  0  0  3  0  0  0  0  0  0
  -25.4260  -27.7600   19.7860 C   0  0  0  0  0  3  0  0  0  0  0  0
  -24.0270  -29.8240   20.3710 C   0  0  0  0  0  2  0  0  0  0  0  0
  -24.9320  -31.1400   22.3440 N   0  0  0  0  0  0  0  0  0  0  0  0
  -23.6760  -32.1430   23.9420 O   0  0  0  0  0  0  0  0  0  0  0  0
  -23.0790  -29.4270   22.6700 C   0  0  0  0  0  0  0  0  0  0  0  0
  -21.7820  -29.1570   22.4540 N   0  0  0  0  0  0  0  0  0  0  0  0
  -23.7460  -28.8520   23.5350 O   0  0  0  0  0  0  0  0  0  0  0  0
  -21.3030  -29.6760   21.7310 H   0  0  0  0  0  0  0  0  0  0  0  0
  -18.4790  -27.7140   22.7030 C   0  0  0  0  0  0  0  0  0  0  0  0
  -20.9780  -28.1710   23.1780 C   0  0  0  0  0  3  0  0  0  0  0  0
  -21.2350  -26.7430   22.6460 C   0  0  0  0  0  2  0  0  0  0  0  0
  -20.2500  -26.3190   21.5530 C   0  0  0  0  0  2  0  0  0  0  0  0
  -18.8110  -26.3710   22.0770 C   0  0  0  0  0  2  0  0  0  0  0  0
  -19.4970  -28.5670   23.2070 C   0  0  0  0  0  0  0  0  0  0  0  0
  -19.1360  -29.8200   23.7470 C   0  0  0  0  0  3  0  0  0  0  0  0
  -17.7880  -30.2230   23.7910 C   0  0  0  0  0  3  0  0  0  0  0  0
  -16.7820  -29.3690   23.3070 C   0  0  0  0  0  3  0  0  0  0  0  0
  -17.1270  -28.1160   22.7670 C   0  0  0  0  0  3  0  0  0  0  0  0
  -26.0180  -32.6100   24.1290 C   0  0  0  0  0  3  0  0  0  0  0  0
  -25.6530  -34.0060   24.4000 N   0  0  0  0  0  0  0  0  0  0  0  0
  -26.0100  -35.0470   23.6350 C   0  0  0  0  0  0  0  0  0  0  0  0
  -26.7500  -34.9350   22.6540 O   0  0  0  0  0  0  0  0  0  0  0  0
  -25.0030  -34.1660   25.1560 H   0  0  0  0  0  0  0  0  0  0  0  0
  -24.2620  -36.7800   23.1160 C   0  0  0  0  0  1  0  0  0  0  0  0
  -25.4560  -36.4320   24.0190 C   0  0  0  0  0  3  0  0  0  0  0  0
  -27.5100  -37.3940   24.9590 C   0  0  0  0  0  1  0  0  0  0  0  0
  -26.4660  -37.5100   23.9440 N   0  0  0  0  0  0  0  0  0  0  0  0
  -26.0280  -38.4220   24.0440 H   0  0  0  0  0  0  0  0  0  0  0  0
  -26.4790  -31.8850   25.4520 C   0  0  1  0  0  0  0  0  0  0  0  0
  -25.3290  -31.6180   26.4490 C   0  0  0  0  0  1  0  0  0  0  0  0
  -27.1460  -30.5280   25.1260 C   0  0  0  0  0  1  0  0  0  0  0  0
  -27.5480  -32.7400   26.1740 C   0  0  0  0  0  1  0  0  0  0  0  0
  1  4  1  0
  2  5  2  0
  3  7  1  0
  4  3  2  0
  4  2  1  0
  5  8  1  0
  7  5  1  0
  7  6  1  0
  9 15  1  0
 10 15  1  0
 11 12  1  0
 11 10  1  0
 13 12  1  0
 13 21  1  0
 13 14  1  0
 15 14  1  0
 16  9  2  0
 17  9  1  0
 17  8  1  0
 18 19  2  0
 19 20  1  0
 19 38  1  0
 20 23  1  0
 21 18  1  0
 21 22  1  0
 22 20  2  0
 23 24  1  0
 24 25  2  0
 26 29  1  0
 26 25  1  0
 27 26  2  0
 28 27  1  0
 28 23  2  0
 29 30  1  0
 30 35  2  0
 30 31  1  0
 31 32  2  0
 32 33  1  0
 33 37  1  0
 34 33  2  0
 35 34  1  0
 36 35  1  0
 38 39  1  0
 39 42  1  0
 39 41  1  0
 40 38  2  0
 43 44  1  0
 43 18  1  0
 45 43  1  0
 46 17  1  0
 47 46  1  0
 48 49  1  0
 49 47  1  0
 50  1  1  0
 51 52  1  0
 51 50  1  0
 52 54  1  0
 53 52  1  0
 55 56  1  0
 55 52  1  0
 56 57  1  0
 57 58  1  0
 59 70  2  0
 60 58  1  0
 60 65  1  0
 61 69  1  0
 61 71  1  0
 62 64  1  0
 63 69  1  0
 64 65  2  0
 64 63  1  0
 66 60  2  0
 67 66  1  0
 67 62  2  0
 68 62  1  0
 68 61  1  0
 69 59  1  0
 71 73  2  0
 72 71  1  0
 74 72  1  0
 75 84  2  0
 75 80  1  0
 76 72  1  0
 76 80  1  0
 77 76  1  0
 78 79  1  0
 78 77  1  0
 79 75  1  0
 80 81  2  0
 81 82  1  0
 83 82  2  0
 84 83  1  0
 85 59  1  0
 85 86  1  0
 85 95  1  0
 86 89  1  0
 87 91  1  0
 87 86  1  0
 88 87  2  0
 91 90  1  0
 93 91  1  0
 93 94  1  0
 93 92  1  0
 95 98  1  1
 95 96  1  0
 97 95  1  0
M  ISO  4   9 100  17 100  57 101  58 101
M  END
>  <TORSDO>  (9) 
F 27

>  <SCORE>  (9) 
-10.043

>  <name>  (9) 
8

>  <ligand_id>  (9) 
8

>  <original_smiles>  (9) 
[H]c1c([H])c([H])c2c(c1[H])C([H])([H])C([H])([H])C([H])([H])C2([H])N([H])C(=O)C1([H])N(C(=O)C([H])(N([H])C(=O)C([H])(N([H])C([H])([H])[H])C([H])([H])[H])C(C([H])([H])[H])(C([H])([H])[H])C([H])([H])[H])C([H])([H])c2c([H])c(OC([H])([H])C([H])([H])C([H])([H])[N+]([H])([H])C([H])([H])C([H])([H])C([H])([H])c3c([H])c(C([H])([H])N(C(=O)N4C([H])([H])C([H])([H])C([H])([H])C([H])(n5nc(-c6c([H])c([H])c(Oc7c([H])c([H])c(F)c([H])c7F)c([H])c6[H])c(C(=O)N([H])[H])c5N([H])[H])C4([H])[H])C([H])([H])C([H])([H])C([H])([H])C([H])([H])[H])n(C([H])([H])[H])c3[H])c([H])c([H])c2C1([H])[H]

>  <smiles>  (9) 
[H]c1c([H])c([H])c2c(c1[H])C([H])([H])C([H])([H])C([H])([H])C2([H])N([H])C(=O)C1([H])N(C(=O)C([H])(N([H])C(=O)C([H])(N([H])C([H])([H])[H])C([H])([H])[H])C(C([H])([H])[H])(C([H])([H])[H])C([H])([H])[H])C([H])([H])c2c([H])c(OC([H])([H])C([H])([H])C([H])([H])[N+]([H])([H])C([H])([H])C([H])([H])C([H])([H])c3c([H])c(C([H])([H])N(C(=O)N4C([H])([H])C([H])([H])C([H])([H])C([H])(n5nc(-c6c([H])c([H])c(Oc7c([H])c([H])c(F)c([H])c7F)c([H])c6[H])c(C(=O)N([H])[H])c5N([H])[H])C4([H])[H])C([H])([H])C([H])([H])C([H])([H])C([H])([H])[H])n(C([H])([H])[H])c3[H])c([H])c([H])c2C1([H])[H]

$$$$
9:0:0
     RDKit          3D

 91 99  0  0  1  0  0  0  0  0999 V2000
  -27.3880  -21.4090   21.0010 C   0  0  0  0  0  2  0  0  0  0  0  0
  -28.8420  -21.1070   21.3990 C   0  0  0  0  0  2  0  0  0  0  0  0
  -29.2940  -19.7170   20.9030 C   0  0  0  0  0  2  0  0  0  0  0  0
  -30.7920  -19.4120   21.1480 C   0  0  0  0  0  2  0  0  0  0  0  0
  -31.6810  -16.9210   20.8730 C   0  0  0  0  0  3  0  0  0  0  0  0
  -31.9760  -16.2360   19.7240 C   0  0  0  0  0  0  0  0  0  0  0  0
  -31.2520  -18.1930   20.3870 C   0  0  0  0  0  0  0  0  0  0  0  0
  -31.8960  -16.8530   17.2100 C   0  0  0  0  0  1  0  0  0  0  0  0
  -31.3380  -18.2790   19.0640 N   0  0  0  0  0  0  0  0  0  0  0  0
  -31.7610  -17.0730   18.6420 N   0  0  0  0  0  0  0  0  0  0  0  0
  -32.5820  -14.8850   19.6120 C   0  0  0  0  0  0  0  0  0  0  0  0
  -32.1650  -12.5110   19.1450 C   0  0  0  0  0  2  0  0  0  0  0  0
  -31.2390  -12.4130   17.9160 C   0  0  0  0  0  2  0  0  0  0  0  0
  -29.7590  -12.4630   18.3450 C   0  0  0  0  0  2  0  0  0  0  0  0
  -29.4550  -13.6350   19.3150 C   0  0  0  0  0  3  0  0  0  0  0  0
  -30.5040  -13.7080   20.4460 C   0  0  0  0  0  2  0  0  0  0  0  0
  -31.8430  -13.7660   19.8440 N   0  0  0  0  0  0  0  0  0  0  0  0
  -33.7090  -14.8330   19.1100 O   0  0  0  0  0  0  0  0  0  0  0  0
  -27.2050  -14.5650   20.1470 C   0  0  0  0  0  0  0  0  0  0  0  0
  -26.0520  -13.9500   20.5510 C   0  0  0  0  0  0  0  0  0  0  0  0
  -26.3030  -12.5470   20.4690 C   0  0  0  0  0  0  0  0  0  0  0  0
  -28.0970  -13.5470   19.8500 N   0  0  0  0  0  0  0  0  0  0  0  0
  -27.5590  -12.3240   20.1000 N   0  0  0  0  0  0  0  0  0  0  0  0
  -25.4050  -11.4030   20.6650 C   0  0  0  0  0  0  0  0  0  0  0  0
  -25.6650  -10.4190   21.6430 C   0  0  0  0  0  3  0  0  0  0  0  0
  -24.7780   -9.3360   21.8240 C   0  0  0  0  0  3  0  0  0  0  0  0
  -23.6140   -9.2310   21.0250 C   0  0  0  0  0  0  0  0  0  0  0  0
  -23.3710  -10.2000   20.0360 C   0  0  0  0  0  3  0  0  0  0  0  0
  -24.2580  -11.2750   19.8550 C   0  0  0  0  0  3  0  0  0  0  0  0
  -22.7070   -8.2020   21.1140 O   0  0  0  0  0  0  0  0  0  0  0  0
  -22.4210   -7.5950   22.3110 C   0  0  0  0  0  0  0  0  0  0  0  0
  -21.9300   -8.3220   23.4160 C   0  0  0  0  0  3  0  0  0  0  0  0
  -21.5820   -7.6480   24.6040 C   0  0  0  0  0  3  0  0  0  0  0  0
  -21.7190   -6.2490   24.6840 C   0  0  0  0  0  0  0  0  0  0  0  0
  -22.2030   -5.5230   23.5820 C   0  0  0  0  0  3  0  0  0  0  0  0
  -22.5500   -6.1950   22.3970 C   0  0  0  0  0  0  0  0  0  0  0  0
  -22.9950   -5.4880   21.3300 F   0  0  0  0  0  0  0  0  0  0  0  0
  -21.3790   -5.5990   25.8220 F   0  0  0  0  0  0  0  0  0  0  0  0
  -24.7550  -14.6210   20.9020 C   0  0  0  0  0  0  0  0  0  0  0  0
  -23.9860  -14.0320   21.8110 N   0  0  0  0  0  0  0  0  0  0  0  0
  -24.4380  -15.7010   20.4030 O   0  0  0  0  0  0  0  0  0  0  0  0
  -24.2540  -13.1540   22.2300 H   0  0  0  0  0  0  0  0  0  0  0  0
  -23.1160  -14.4630   22.0910 H   0  0  0  0  0  0  0  0  0  0  0  0
  -27.5640  -15.9000   19.9870 N   0  0  0  0  0  0  0  0  0  0  0  0
  -26.9080  -16.6550   20.1470 H   0  0  0  0  0  0  0  0  0  0  0  0
  -28.4540  -16.2150   19.6230 H   0  0  0  0  0  0  0  0  0  0  0  0
  -26.9450  -22.8720   21.1840 C   0  0  0  0  0  2  0  0  0  0  0  0
  -28.0310  -23.9270   20.8750 C   0  0  0  0  0  2  0  0  0  0  0  0
  -27.4540  -25.1760   20.1830 C   0  0  0  0  0  2  0  0  0  0  0  0
  -28.4270  -26.3730   20.0420 C   0  0  0  0  0  2  0  0  0  0  0  0
  -28.0820  -27.3260   19.0210 O   0  0  0  0  0  0  0  0  0  0  0  0
  -24.6500  -31.8850   23.2780 C   0  0  0  0  0  0  0  0  0  0  0  0
  -26.9500  -28.0640   19.2620 C   0  0  0  0  0  0  0  0  0  0  0  0
  -23.2840  -30.7730   21.5420 C   0  0  0  0  0  3  0  0  0  0  0  0
  -24.5860  -29.5250   19.7420 C   0  0  0  0  0  0  0  0  0  0  0  0
  -25.7810  -31.1870   21.1730 C   0  0  0  0  0  2  0  0  0  0  0  0
  -25.7980  -29.9470   20.3080 C   0  0  0  0  0  0  0  0  0  0  0  0
  -26.9860  -29.2200   20.0730 C   0  0  0  0  0  3  0  0  0  0  0  0
  -25.7320  -27.6780   18.6650 C   0  0  0  0  0  3  0  0  0  0  0  0
  -24.5460  -28.3890   18.9170 C   0  0  0  0  0  3  0  0  0  0  0  0
  -23.3570  -30.3480   20.0520 C   0  0  0  0  0  2  0  0  0  0  0  0
  -24.5950  -31.2870   22.0550 N   0  0  0  0  0  0  0  0  0  0  0  0
  -23.6290  -32.0490   23.9580 O   0  0  0  0  0  0  0  0  0  0  0  0
  -22.7240  -29.5910   22.3690 C   0  0  0  0  0  0  0  0  0  0  0  0
  -21.4070  -29.3520   22.2530 N   0  0  0  0  0  0  0  0  0  0  0  0
  -23.4680  -28.9000   23.0700 O   0  0  0  0  0  0  0  0  0  0  0  0
  -20.8650  -29.9700   21.6650 H   0  0  0  0  0  0  0  0  0  0  0  0
  -18.1530  -27.8090   22.5290 C   0  0  0  0  0  0  0  0  0  0  0  0
  -20.6670  -28.2750   22.9080 C   0  0  0  0  0  3  0  0  0  0  0  0
  -20.9200  -26.9200   22.2060 C   0  0  0  0  0  2  0  0  0  0  0  0
  -19.8770  -26.5930   21.1310 C   0  0  0  0  0  2  0  0  0  0  0  0
  -18.4740  -26.5500   21.7420 C   0  0  0  0  0  2  0  0  0  0  0  0
  -19.1840  -28.6270   23.0650 C   0  0  0  0  0  0  0  0  0  0  0  0
  -18.8310  -29.8040   23.7590 C   0  0  0  0  0  3  0  0  0  0  0  0
  -17.4820  -30.1670   23.9250 C   0  0  0  0  0  3  0  0  0  0  0  0
  -16.4660  -29.3460   23.4080 C   0  0  0  0  0  3  0  0  0  0  0  0
  -16.8020  -28.1680   22.7160 C   0  0  0  0  0  3  0  0  0  0  0  0
  -25.9950  -32.4130   23.8710 C   0  0  0  0  0  3  0  0  0  0  0  0
  -25.7310  -33.7330   24.4550 N   0  0  0  0  0  0  0  0  0  0  0  0
  -26.0570  -34.8990   23.8800 C   0  0  0  0  0  0  0  0  0  0  0  0
  -26.6830  -34.9700   22.8180 O   0  0  0  0  0  0  0  0  0  0  0  0
  -25.1750  -33.7530   25.2980 H   0  0  0  0  0  0  0  0  0  0  0  0
  -24.3700  -36.7630   23.8970 C   0  0  0  0  0  1  0  0  0  0  0  0
  -25.6160  -36.1910   24.5940 C   0  0  0  0  0  3  0  0  0  0  0  0
  -27.7900  -36.8550   25.5150 C   0  0  0  0  0  1  0  0  0  0  0  0
  -26.6740  -37.2230   24.6480 N   0  0  0  0  0  0  0  0  0  0  0  0
  -26.2970  -38.1080   24.9750 H   0  0  0  0  0  0  0  0  0  0  0  0
  -26.6270  -31.4410   24.9420 C   0  0  1  0  0  0  0  0  0  0  0  0
  -25.6400  -31.0180   26.0550 C   0  0  0  0  0  1  0  0  0  0  0  0
  -27.1560  -30.1540   24.2650 C   0  0  0  0  0  1  0  0  0  0  0  0
  -27.8470  -32.1210   25.6090 C   0  0  0  0  0  1  0  0  0  0  0  0
  1 47  1  0
  1  2  1  0
  3  4  1  0
  3  2  1  0
  6  5  2  0
  7  5  1  0
  7  4  1  0
  8 10  1  0
  9  7  2  0
 10  9  1  0
 10  6  1  0
 11  6  1  0
 11 17  1  0
 12 17  1  0
 13 14  1  0
 13 12  1  0
 15 14  1  0
 15 22  1  0
 15 16  1  0
 17 16  1  0
 18 11  2  0
 19 20  2  0
 20 39  1  0
 21 20  1  0
 21 24  1  0
 22 23  1  0
 22 19  1  0
 23 21  2  0
 24 25  1  0
 25 26  2  0
 27 30  1  0
 27 26  1  0
 28 27  2  0
 29 28  1  0
 29 24  2  0
 30 31  1  0
 31 36  2  0
 31 32  1  0
 32 33  2  0
 33 34  1  0
 34 38  1  0
 35 34  2  0
 36 35  1  0
 37 36  1  0
 39 40  1  0
 40 43  1  0
 40 42  1  0
 41 39  2  0
 44 19  1  0
 44 45  1  0
 46 44  1  0
 48 47  1  0
 49 48  1  0
 50 49  1  0
 51 53  1  0
 51 50  1  0
 52 63  2  0
 53 58  1  0
 54 62  1  0
 54 64  1  0
 55 61  1  0
 55 57  1  0
 56 62  1  0
 57 56  1  0
 58 57  2  0
 59 60  1  0
 59 53  2  0
 60 55  2  0
 61 54  1  0
 62 52  1  0
 64 66  2  0
 65 64  1  0
 67 65  1  0
 68 77  2  0
 68 73  1  0
 69 65  1  0
 69 73  1  0
 70 69  1  0
 71 72  1  0
 71 70  1  0
 72 68  1  0
 73 74  2  0
 74 75  1  0
 76 75  2  0
 77 76  1  0
 78 52  1  0
 78 79  1  0
 78 88  1  0
 79 82  1  0
 80 79  1  0
 80 84  1  0
 81 80  2  0
 84 83  1  0
 84 86  1  0
 86 87  1  0
 86 85  1  0
 88 91  1  1
 88 89  1  0
 90 88  1  0
M  ISO  4   6 100  11 100  50 101  51 101
M  END
>  <TORSDO>  (10) 
F 24

>  <SCORE>  (10) 
-8.885

>  <name>  (10) 
9

>  <ligand_id>  (10) 
9

>  <original_smiles>  (10) 
[H]c1c([H])c([H])c2c(c1[H])C([H])([H])C([H])([H])C([H])([H])C2([H])N([H])C(=O)C1([H])N(C(=O)C([H])(N([H])C(=O)C([H])(N([H])C([H])([H])[H])C([H])([H])[H])C(C([H])([H])[H])(C([H])([H])[H])C([H])([H])[H])C([H])([H])c2c([H])c(OC([H])([H])C([H])([H])C([H])([H])C([H])([H])C([H])([H])C([H])([H])C([H])([H])C([H])([H])c3nn(C([H])([H])[H])c(C(=O)N4C([H])([H])C([H])([H])C([H])([H])C([H])(n5nc(-c6c([H])c([H])c(Oc7c([H])c([H])c(F)c([H])c7F)c([H])c6[H])c(C(=O)N([H])[H])c5N([H])[H])C4([H])[H])c3[H])c([H])c([H])c2C1([H])[H]

>  <smiles>  (10) 
[H]c1c([H])c([H])c2c(c1[H])C([H])([H])C([H])([H])C([H])([H])C2([H])N([H])C(=O)C1([H])N(C(=O)C([H])(N([H])C(=O)C([H])(N([H])C([H])([H])[H])C([H])([H])[H])C(C([H])([H])[H])(C([H])([H])[H])C([H])([H])[H])C([H])([H])c2c([H])c(OC([H])([H])C([H])([H])C([H])([H])C([H])([H])C([H])([H])C([H])([H])C([H])([H])C([H])([H])c3nn(C([H])([H])[H])c(C(=O)N4C([H])([H])C([H])([H])C([H])([H])C([H])(n5nc(-c6c([H])c([H])c(Oc7c([H])c([H])c(F)c([H])c7F)c([H])c6[H])c(C(=O)N([H])[H])c5N([H])[H])C4([H])[H])c3[H])c([H])c([H])c2C1([H])[H]

$$$$
10:0:0
     RDKit          3D

 90 98  0  0  1  0  0  0  0  0999 V2000
  -29.1630  -23.3330   19.1560 C   0  0  0  0  0  3  0  0  0  0  0  0
  -28.9890  -22.5580   21.2030 C   0  0  0  0  0  3  0  0  0  0  0  0
  -28.7920  -23.7370   20.4770 C   0  0  0  0  0  0  0  0  0  0  0  0
  -29.5900  -22.0160   19.1420 C   0  0  0  0  0  0  0  0  0  0  0  0
  -30.1600  -21.2410   17.9950 C   0  0  0  0  0  1  0  0  0  0  0  0
  -29.4730  -21.4750   20.4220 N   0  0  0  0  0  0  0  0  0  0  0  0
  -26.9580  -24.9730   21.7990 C   0  0  0  0  0  1  0  0  0  0  0  0
  -28.2810  -25.1560   21.0210 C   0  0  0  0  0  3  0  0  0  0  0  0
  -28.3350  -26.4020   20.1720 O   0  0  0  0  0  0  0  0  0  0  0  0
  -24.6540  -31.8830   23.2190 C   0  0  0  0  0  0  0  0  0  0  0  0
  -27.2470  -27.3020   20.1610 C   0  0  0  0  0  0  0  0  0  0  0  0
  -23.4400  -30.4760   21.5950 C   0  0  0  0  0  3  0  0  0  0  0  0
  -24.8840  -28.9240   20.1550 C   0  0  0  0  0  0  0  0  0  0  0  0
  -25.9770  -30.7980   21.3870 C   0  0  0  0  0  2  0  0  0  0  0  0
  -26.0570  -29.4130   20.7470 C   0  0  0  0  0  0  0  0  0  0  0  0
  -27.2440  -28.6130   20.7410 C   0  0  0  0  0  3  0  0  0  0  0  0
  -26.0620  -26.8870   19.5210 C   0  0  0  0  0  3  0  0  0  0  0  0
  -24.8900  -27.6670   19.5290 C   0  0  0  0  0  3  0  0  0  0  0  0
  -23.6430  -29.7930   20.2150 C   0  0  0  0  0  2  0  0  0  0  0  0
  -24.7110  -31.0710   22.1240 N   0  0  0  0  0  0  0  0  0  0  0  0
  -23.5760  -32.1580   23.7620 O   0  0  0  0  0  0  0  0  0  0  0  0
  -22.7870  -29.4630   22.5630 C   0  0  0  0  0  0  0  0  0  0  0  0
  -21.4600  -29.2810   22.4480 N   0  0  0  0  0  0  0  0  0  0  0  0
  -23.4740  -28.8410   23.3780 O   0  0  0  0  0  0  0  0  0  0  0  0
  -20.9630  -29.8330   21.7630 H   0  0  0  0  0  0  0  0  0  0  0  0
  -18.0930  -28.0670   22.9700 C   0  0  0  0  0  0  0  0  0  0  0  0
  -20.6510  -28.3430   23.2280 C   0  0  0  0  0  3  0  0  0  0  0  0
  -20.7580  -26.9090   22.6590 C   0  0  0  0  0  2  0  0  0  0  0  0
  -19.6540  -26.5740   21.6510 C   0  0  0  0  0  2  0  0  0  0  0  0
  -18.2740  -26.7150   22.2990 C   0  0  0  0  0  2  0  0  0  0  0  0
  -19.2090  -28.8370   23.3910 C   0  0  0  0  0  0  0  0  0  0  0  0
  -18.9840  -30.1000   23.9790 C   0  0  0  0  0  3  0  0  0  0  0  0
  -17.6770  -30.5960   24.1460 C   0  0  0  0  0  3  0  0  0  0  0  0
  -16.5760  -29.8240   23.7410 C   0  0  0  0  0  3  0  0  0  0  0  0
  -16.7840  -28.5600   23.1590 C   0  0  0  0  0  3  0  0  0  0  0  0
  -25.9410  -32.5200   23.8290 C   0  0  0  0  0  3  0  0  0  0  0  0
  -26.4770  -31.7460   25.0960 C   0  0  1  0  0  0  0  0  0  0  0  0
  -25.3960  -31.4920   26.1750 C   0  0  0  0  0  1  0  0  0  0  0  0
  -27.0730  -30.3780   24.6900 C   0  0  0  0  0  1  0  0  0  0  0  0
  -27.6250  -32.5480   25.7520 C   0  0  0  0  0  1  0  0  0  0  0  0
  -25.6270  -33.9140   24.1750 N   0  0  0  0  0  0  0  0  0  0  0  0
  -25.9390  -34.9750   23.4190 C   0  0  0  0  0  0  0  0  0  0  0  0
  -26.5930  -34.8830   22.3750 O   0  0  0  0  0  0  0  0  0  0  0  0
  -25.0460  -34.0570   24.9870 H   0  0  0  0  0  0  0  0  0  0  0  0
  -24.1920  -36.7630   23.1090 C   0  0  0  0  0  1  0  0  0  0  0  0
  -25.4510  -36.3580   23.8950 C   0  0  0  0  0  3  0  0  0  0  0  0
  -27.5980  -37.2480   24.6890 C   0  0  0  0  0  1  0  0  0  0  0  0
  -26.4750  -37.4180   23.7720 N   0  0  0  0  0  0  0  0  0  0  0  0
  -26.0680  -38.3360   23.9340 H   0  0  0  0  0  0  0  0  0  0  0  0
  -29.9640  -20.1130   20.9390 C   0  0  0  0  0  2  0  0  0  0  0  0
  -29.5560  -18.6690   20.3160 C   0  0  0  0  0  3  0  0  0  0  0  0
  -30.3310  -17.3560   20.8920 C   0  0  0  0  0  3  0  0  0  0  0  0
  -30.5980  -14.7720   20.4030 C   0  0  0  0  0  0  0  0  0  0  0  0
  -30.3890  -12.5000   19.3790 C   0  0  0  0  0  2  0  0  0  0  0  0
  -29.4660  -12.5740   18.1460 C   0  0  0  0  0  2  0  0  0  0  0  0
  -27.9950  -12.3870   18.5640 C   0  0  0  0  0  2  0  0  0  0  0  0
  -27.6030  -13.2700   19.7790 C   0  0  0  0  0  3  0  0  0  0  0  0
  -28.6550  -13.2060   20.9070 C   0  0  0  0  0  2  0  0  0  0  0  0
  -29.9520  -13.5580   20.3160 N   0  0  0  0  0  0  0  0  0  0  0  0
  -31.7920  -14.8530   20.1070 O   0  0  0  0  0  0  0  0  0  0  0  0
  -29.8550  -15.9210   20.6330 N   0  0  0  0  0  0  0  0  0  0  0  0
  -28.8660  -15.7620   20.7590 H   0  0  0  0  0  0  0  0  0  0  0  0
  -25.2030  -13.8400   20.4820 C   0  0  0  0  0  0  0  0  0  0  0  0
  -24.1430  -13.0580   20.8500 C   0  0  0  0  0  0  0  0  0  0  0  0
  -24.6190  -11.7120   20.8340 C   0  0  0  0  0  0  0  0  0  0  0  0
  -26.2580  -12.9710   20.2630 N   0  0  0  0  0  0  0  0  0  0  0  0
  -25.9150  -11.6860   20.5420 N   0  0  0  0  0  0  0  0  0  0  0  0
  -23.9010  -10.4450   21.0280 C   0  0  0  0  0  0  0  0  0  0  0  0
  -24.3400   -9.4840   21.9640 C   0  0  0  0  0  3  0  0  0  0  0  0
  -23.6250   -8.2810   22.1480 C   0  0  0  0  0  3  0  0  0  0  0  0
  -22.4530   -8.0290   21.3950 C   0  0  0  0  0  0  0  0  0  0  0  0
  -22.0330   -8.9780   20.4470 C   0  0  0  0  0  3  0  0  0  0  0  0
  -22.7480  -10.1730   20.2620 C   0  0  0  0  0  3  0  0  0  0  0  0
  -21.7070   -6.8790   21.4870 O   0  0  0  0  0  0  0  0  0  0  0  0
  -21.6740   -6.1330   22.6360 C   0  0  0  0  0  0  0  0  0  0  0  0
  -21.2640   -6.6830   23.8710 C   0  0  0  0  0  3  0  0  0  0  0  0
  -21.1810   -5.8630   25.0140 C   0  0  0  0  0  3  0  0  0  0  0  0
  -21.4930   -4.4930   24.9240 C   0  0  0  0  0  0  0  0  0  0  0  0
  -21.8950   -3.9430   23.6940 C   0  0  0  0  0  3  0  0  0  0  0  0
  -21.9820   -4.7600   22.5540 C   0  0  0  0  0  0  0  0  0  0  0  0
  -22.3500   -4.2210   21.3660 F   0  0  0  0  0  0  0  0  0  0  0  0
  -21.4050   -3.7010   26.0180 F   0  0  0  0  0  0  0  0  0  0  0  0
  -22.7370  -13.5230   21.0970 C   0  0  0  0  0  0  0  0  0  0  0  0
  -22.0030  -12.8320   21.9640 N   0  0  0  0  0  0  0  0  0  0  0  0
  -22.2950  -14.5340   20.5540 O   0  0  0  0  0  0  0  0  0  0  0  0
  -22.3700  -12.0120   22.4260 H   0  0  0  0  0  0  0  0  0  0  0  0
  -21.0590  -13.1300   22.1680 H   0  0  0  0  0  0  0  0  0  0  0  0
  -25.3550  -15.2110   20.2890 N   0  0  0  0  0  0  0  0  0  0  0  0
  -24.5750  -15.8560   20.3570 H   0  0  0  0  0  0  0  0  0  0  0  0
  -26.1960  -15.6510   19.9360 H   0  0  0  0  0  0  0  0  0  0  0  0
  1  3  1  0
  3  8  1  0
  3  2  2  0
  4  1  2  0
  4  6  1  0
  5  4  1  0
  6 50  1  0
  6  2  1  0
  8  7  1  0
  9  8  1  0
 10 21  2  0
 11  9  1  0
 11 16  1  0
 12 20  1  0
 12 22  1  0
 13 19  1  0
 13 15  1  0
 14 20  1  0
 15 14  1  0
 16 15  2  0
 17 18  1  0
 17 11  2  0
 18 13  2  0
 19 12  1  0
 20 10  1  0
 22 24  2  0
 23 22  1  0
 25 23  1  0
 26 35  2  0
 26 31  1  0
 27 23  1  0
 27 31  1  0
 28 27  1  0
 29 30  1  0
 29 28  1  0
 30 26  1  0
 31 32  2  0
 32 33  1  0
 34 33  2  0
 35 34  1  0
 36 10  1  0
 36 41  1  0
 36 37  1  0
 37 40  1  1
 37 38  1  0
 39 37  1  0
 41 44  1  0
 42 46  1  0
 42 41  1  0
 43 42  2  0
 46 45  1  0
 48 46  1  0
 48 49  1  0
 48 47  1  0
 51 52  2  0
 51 50  1  0
 53 61  1  0
 54 59  1  0
 55 56  1  0
 55 54  1  0
 57 56  1  0
 57 66  1  0
 57 58  1  0
 59 53  1  0
 59 58  1  0
 60 53  2  0
 61 62  1  0
 61 52  1  0
 63 64  2  0
 64 83  1  0
 65 64  1  0
 65 68  1  0
 66 63  1  0
 66 67  1  0
 67 65  2  0
 68 69  1  0
 69 70  2  0
 71 74  1  0
 71 70  1  0
 72 71  2  0
 73 72  1  0
 73 68  2  0
 74 75  1  0
 75 76  1  0
 76 77  2  0
 78 77  1  0
 78 82  1  0
 79 78  2  0
 80 75  2  0
 80 79  1  0
 81 80  1  0
 83 84  1  0
 84 87  1  0
 84 86  1  0
 85 83  2  0
 88 89  1  0
 88 63  1  0
 90 88  1  0
M  ISO  4   8 101   9 101  53 100  61 100
M  END
>  <TORSDO>  (11) 
F 20

>  <SCORE>  (11) 
-13.773

>  <name>  (11) 
10

>  <ligand_id>  (11) 
10

>  <original_smiles>  (11) 
[H]c1c([H])c([H])c2c(c1[H])C([H])([H])C([H])([H])C([H])([H])C2([H])N([H])C(=O)C1([H])N(C(=O)C([H])(N([H])C(=O)C([H])(N([H])C([H])([H])[H])C([H])([H])[H])C(C([H])([H])[H])(C([H])([H])[H])C([H])([H])[H])C([H])([H])c2c([H])c(OC([H])(c3c([H])c(C([H])([H])[H])n(C([H])([H])C([H])([H])C([H])([H])N([H])C(=O)N4C([H])([H])C([H])([H])C([H])([H])C([H])(n5nc(-c6c([H])c([H])c(Oc7c([H])c([H])c(F)c([H])c7F)c([H])c6[H])c(C(=O)N([H])[H])c5N([H])[H])C4([H])[H])c3[H])C([H])([H])[H])c([H])c([H])c2C1([H])[H]

>  <smiles>  (11) 
[H]c1c([H])c([H])c2c(c1[H])C([H])([H])C([H])([H])C([H])([H])C2([H])N([H])C(=O)C1([H])N(C(=O)C([H])(N([H])C(=O)C([H])(N([H])C([H])([H])[H])C([H])([H])[H])C(C([H])([H])[H])(C([H])([H])[H])C([H])([H])[H])C([H])([H])c2c([H])c(OC([H])(c3c([H])c(C([H])([H])[H])n(C([H])([H])C([H])([H])C([H])([H])N([H])C(=O)N4C([H])([H])C([H])([H])C([H])([H])C([H])(n5nc(-c6c([H])c([H])c(Oc7c([H])c([H])c(F)c([H])c7F)c([H])c6[H])c(C(=O)N([H])[H])c5N([H])[H])C4([H])[H])c3[H])C([H])([H])[H])c([H])c([H])c2C1([H])[H]

$$$$
11:0:0
     RDKit          3D

 91 99  0  0  1  0  0  0  0  0999 V2000
  -28.4780  -22.8610   17.7850 C   0  0  0  0  0  3  0  0  0  0  0  0
  -28.2430  -21.9390   16.7610 C   0  0  0  0  0  3  0  0  0  0  0  0
  -28.8380  -22.4650   19.1040 C   0  0  0  0  0  0  0  0  0  0  0  0
  -28.4270  -20.5930   17.0380 C   0  0  0  0  0  0  0  0  0  0  0  0
  -29.0480  -21.0130   19.2830 C   0  0  0  0  0  0  0  0  0  0  0  0
  -28.2440  -19.5290   15.9770 C   0  0  0  0  0  1  0  0  0  0  0  0
  -28.8280  -20.1710   18.2430 N   0  0  0  0  0  0  0  0  0  0  0  0
  -29.0260  -23.7040   20.0960 C   0  0  0  0  0  2  0  0  0  0  0  0
  -28.0060  -24.9740   19.9550 C   0  0  0  0  0  2  0  0  0  0  0  0
  -28.3180  -26.4280   20.1760 O   0  0  0  0  0  0  0  0  0  0  0  0
  -24.6430  -31.8980   23.2360 C   0  0  0  0  0  0  0  0  0  0  0  0
  -27.2300  -27.3400   20.1230 C   0  0  0  0  0  0  0  0  0  0  0  0
  -23.4350  -30.5230   21.5870 C   0  0  0  0  0  3  0  0  0  0  0  0
  -24.8770  -28.9990   20.1350 C   0  0  0  0  0  0  0  0  0  0  0  0
  -25.9800  -30.8370   21.3950 C   0  0  0  0  0  2  0  0  0  0  0  0
  -26.0560  -29.4610   20.7370 C   0  0  0  0  0  0  0  0  0  0  0  0
  -27.2350  -28.6460   20.7180 C   0  0  0  0  0  3  0  0  0  0  0  0
  -26.0220  -26.9580   19.4860 C   0  0  0  0  0  3  0  0  0  0  0  0
  -24.8700  -27.7570   19.4950 C   0  0  0  0  0  3  0  0  0  0  0  0
  -23.6450  -29.8780   20.1950 C   0  0  0  0  0  2  0  0  0  0  0  0
  -24.7080  -31.1000   22.1320 N   0  0  0  0  0  0  0  0  0  0  0  0
  -23.5590  -32.1640   23.7770 O   0  0  0  0  0  0  0  0  0  0  0  0
  -22.7770  -29.4880   22.5320 C   0  0  0  0  0  0  0  0  0  0  0  0
  -21.4500  -29.3070   22.4010 N   0  0  0  0  0  0  0  0  0  0  0  0
  -23.4570  -28.8550   23.3450 O   0  0  0  0  0  0  0  0  0  0  0  0
  -20.9600  -29.8730   21.7220 H   0  0  0  0  0  0  0  0  0  0  0  0
  -18.0800  -28.0770   22.8720 C   0  0  0  0  0  0  0  0  0  0  0  0
  -20.6340  -28.3590   23.1630 C   0  0  0  0  0  3  0  0  0  0  0  0
  -20.7540  -26.9290   22.5870 C   0  0  0  0  0  2  0  0  0  0  0  0
  -19.6630  -26.5960   21.5660 C   0  0  0  0  0  2  0  0  0  0  0  0
  -18.2740  -26.7300   22.1970 C   0  0  0  0  0  2  0  0  0  0  0  0
  -19.1880  -28.8460   23.3140 C   0  0  0  0  0  0  0  0  0  0  0  0
  -18.9530  -30.1070   23.9070 C   0  0  0  0  0  3  0  0  0  0  0  0
  -17.6410  -30.5950   24.0640 C   0  0  0  0  0  3  0  0  0  0  0  0
  -16.5480  -29.8220   23.6380 C   0  0  0  0  0  3  0  0  0  0  0  0
  -16.7670  -28.5650   23.0470 C   0  0  0  0  0  3  0  0  0  0  0  0
  -25.9240  -32.5280   23.8620 C   0  0  0  0  0  3  0  0  0  0  0  0
  -25.6050  -33.9160   24.2260 N   0  0  0  0  0  0  0  0  0  0  0  0
  -25.9360  -34.9910   23.4980 C   0  0  0  0  0  0  0  0  0  0  0  0
  -26.6140  -34.9160   22.4710 O   0  0  0  0  0  0  0  0  0  0  0  0
  -25.0080  -34.0460   25.0280 H   0  0  0  0  0  0  0  0  0  0  0  0
  -24.2160  -36.7970   23.1640 C   0  0  0  0  0  1  0  0  0  0  0  0
  -25.4390  -36.3660   23.9880 C   0  0  0  0  0  3  0  0  0  0  0  0
  -27.5590  -37.2180   24.8880 C   0  0  0  0  0  1  0  0  0  0  0  0
  -26.4730  -37.4230   23.9320 N   0  0  0  0  0  0  0  0  0  0  0  0
  -26.0640  -38.3360   24.1110 H   0  0  0  0  0  0  0  0  0  0  0  0
  -26.4520  -31.7330   25.1180 C   0  0  1  0  0  0  0  0  0  0  0  0
  -25.3680  -31.4630   26.1870 C   0  0  0  0  0  1  0  0  0  0  0  0
  -27.0380  -30.3710   24.6860 C   0  0  0  0  0  1  0  0  0  0  0  0
  -27.6050  -32.5170   25.7880 C   0  0  0  0  0  1  0  0  0  0  0  0
  -29.6460  -20.1430   20.4720 C   0  0  0  0  0  2  0  0  0  0  0  0
  -29.4750  -18.5100   20.3570 C   0  0  0  0  0  3  0  0  0  0  0  0
  -30.2250  -17.4350   21.2940 C   0  0  0  0  0  3  0  0  0  0  0  0
  -30.6810  -14.8350   21.0160 C   0  0  0  0  0  0  0  0  0  0  0  0
  -30.6200  -12.5330   20.0520 C   0  0  0  0  0  2  0  0  0  0  0  0
  -29.8030  -12.5450   18.7410 C   0  0  0  0  0  2  0  0  0  0  0  0
  -28.3010  -12.3470   19.0310 C   0  0  0  0  0  2  0  0  0  0  0  0
  -27.7890  -13.2610   20.1770 C   0  0  0  0  0  3  0  0  0  0  0  0
  -28.7380  -13.2380   21.3960 C   0  0  0  0  0  2  0  0  0  0  0  0
  -30.0760  -13.6040   20.9150 N   0  0  0  0  0  0  0  0  0  0  0  0
  -31.8910  -14.9520   20.8130 O   0  0  0  0  0  0  0  0  0  0  0  0
  -29.8750  -15.9520   21.1500 N   0  0  0  0  0  0  0  0  0  0  0  0
  -28.8940  -15.7380   21.2340 H   0  0  0  0  0  0  0  0  0  0  0  0
  -25.3290  -13.8050   20.6510 C   0  0  0  0  0  0  0  0  0  0  0  0
  -24.2510  -13.0130   20.9390 C   0  0  0  0  0  0  0  0  0  0  0  0
  -24.7450  -11.6730   20.9900 C   0  0  0  0  0  0  0  0  0  0  0  0
  -26.4110  -12.9470   20.5450 N   0  0  0  0  0  0  0  0  0  0  0  0
  -26.0610  -11.6600   20.8080 N   0  0  0  0  0  0  0  0  0  0  0  0
  -24.0310  -10.3990   21.1450 C   0  0  0  0  0  0  0  0  0  0  0  0
  -24.4100   -9.4550   22.1260 C   0  0  0  0  0  3  0  0  0  0  0  0
  -23.6990   -8.2440   22.2670 C   0  0  0  0  0  3  0  0  0  0  0  0
  -22.5940   -7.9690   21.4280 C   0  0  0  0  0  0  0  0  0  0  0  0
  -22.2350   -8.9010   20.4360 C   0  0  0  0  0  3  0  0  0  0  0  0
  -22.9460  -10.1030   20.2930 C   0  0  0  0  0  3  0  0  0  0  0  0
  -21.8570   -6.8100   21.4770 O   0  0  0  0  0  0  0  0  0  0  0  0
  -21.7440   -6.0780   22.6300 C   0  0  0  0  0  0  0  0  0  0  0  0
  -21.2320   -6.6360   23.8230 C   0  0  0  0  0  3  0  0  0  0  0  0
  -21.0730   -5.8280   24.9670 C   0  0  0  0  0  3  0  0  0  0  0  0
  -21.4110   -4.4630   24.9160 C   0  0  0  0  0  0  0  0  0  0  0  0
  -21.9140   -3.9040   23.7280 C   0  0  0  0  0  3  0  0  0  0  0  0
  -22.0760   -4.7090   22.5870 C   0  0  0  0  0  0  0  0  0  0  0  0
  -22.5410   -4.1620   21.4390 F   0  0  0  0  0  0  0  0  0  0  0  0
  -21.2500   -3.6840   26.0120 F   0  0  0  0  0  0  0  0  0  0  0  0
  -22.8230  -13.4610   21.0610 C   0  0  0  0  0  0  0  0  0  0  0  0
  -22.0320  -12.7720   21.8750 N   0  0  0  0  0  0  0  0  0  0  0  0
  -22.4140  -14.4590   20.4690 O   0  0  0  0  0  0  0  0  0  0  0  0
  -22.3700  -11.9660   22.3800 H   0  0  0  0  0  0  0  0  0  0  0  0
  -21.0700  -13.0560   21.9960 H   0  0  0  0  0  0  0  0  0  0  0  0
  -25.4760  -15.1740   20.4450 N   0  0  0  0  0  0  0  0  0  0  0  0
  -24.6870  -15.8110   20.4530 H   0  0  0  0  0  0  0  0  0  0  0  0
  -26.3430  -15.6240   20.1820 H   0  0  0  0  0  0  0  0  0  0  0  0
  1  3  1  0
  2  4  1  0
  2  1  2  0
  3  5  2  0
  3  8  1  0
  4  7  2  0
  5 51  1  0
  6  4  1  0
  7  5  1  0
  9  8  1  0
  9 10  1  0
 11 22  2  0
 12 10  1  0
 12 17  1  0
 13 21  1  0
 13 23  1  0
 14 20  1  0
 14 16  1  0
 15 21  1  0
 16 15  1  0
 17 16  2  0
 18 19  1  0
 18 12  2  0
 19 14  2  0
 20 13  1  0
 21 11  1  0
 23 25  2  0
 24 23  1  0
 26 24  1  0
 27 36  2  0
 27 32  1  0
 28 24  1  0
 28 32  1  0
 29 28  1  0
 30 31  1  0
 30 29  1  0
 31 27  1  0
 32 33  2  0
 33 34  1  0
 35 34  2  0
 36 35  1  0
 37 11  1  0
 37 38  1  0
 37 47  1  0
 38 41  1  0
 39 43  1  0
 39 38  1  0
 40 39  2  0
 43 42  1  0
 45 43  1  0
 45 46  1  0
 45 44  1  0
 47 50  1  1
 47 48  1  0
 49 47  1  0
 52 51  1  0
 52 53  2  0
 54 62  1  0
 55 60  1  0
 56 57  1  0
 56 55  1  0
 58 57  1  0
 58 67  1  0
 58 59  1  0
 60 54  1  0
 60 59  1  0
 61 54  2  0
 62 63  1  0
 62 53  1  0
 64 65  2  0
 65 66  1  0
 65 84  1  0
 66 69  1  0
 67 64  1  0
 67 68  1  0
 68 66  2  0
 69 70  1  0
 70 71  2  0
 72 75  1  0
 72 71  1  0
 73 72  2  0
 74 73  1  0
 74 69  2  0
 75 76  1  0
 76 77  1  0
 77 78  2  0
 79 78  1  0
 79 83  1  0
 80 79  2  0
 81 76  2  0
 81 80  1  0
 82 81  1  0
 84 85  1  0
 85 88  1  0
 85 87  1  0
 86 84  2  0
 89 90  1  0
 89 64  1  0
 91 89  1  0
M  ISO  4   9 101  10 101  54 100  62 100
M  END
>  <TORSDO>  (12) 
F 21

>  <SCORE>  (12) 
-12.670

>  <name>  (12) 
11

>  <ligand_id>  (12) 
11

>  <original_smiles>  (12) 
[H]c1c(C([H])([H])[H])nc(C([H])([H])C([H])([H])C([H])([H])N([H])C(=O)N2C([H])([H])C([H])([H])C([H])([H])C([H])(n3nc(-c4c([H])c([H])c(Oc5c([H])c([H])c(F)c([H])c5F)c([H])c4[H])c(C(=O)N([H])[H])c3N([H])[H])C2([H])[H])c(C([H])([H])C([H])([H])Oc2c([H])c([H])c3c(c2[H])C([H])([H])N(C(=O)C([H])(N([H])C(=O)C([H])(N([H])C([H])([H])[H])C([H])([H])[H])C(C([H])([H])[H])(C([H])([H])[H])C([H])([H])[H])C([H])(C(=O)N([H])C2([H])c4c([H])c([H])c([H])c([H])c4C([H])([H])C([H])([H])C2([H])[H])C3([H])[H])c1[H]

>  <smiles>  (12) 
[H]c1c(C([H])([H])[H])nc(C([H])([H])C([H])([H])C([H])([H])N([H])C(=O)N2C([H])([H])C([H])([H])C([H])([H])C([H])(n3nc(-c4c([H])c([H])c(Oc5c([H])c([H])c(F)c([H])c5F)c([H])c4[H])c(C(=O)N([H])[H])c3N([H])[H])C2([H])[H])c(C([H])([H])C([H])([H])Oc2c([H])c([H])c3c(c2[H])C([H])([H])N(C(=O)C([H])(N([H])C(=O)C([H])(N([H])C([H])([H])[H])C([H])([H])[H])C(C([H])([H])[H])(C([H])([H])[H])C([H])([H])[H])C([H])(C(=O)N([H])C2([H])c4c([H])c([H])c([H])c([H])c4C([H])([H])C([H])([H])C2([H])[H])C3([H])[H])c1[H]

$$$$
12:0:0
     RDKit          3D

 93101  0  0  1  0  0  0  0  0999 V2000
  -28.6380  -19.4110   18.3900 C   0  0  0  0  0  0  0  0  0  0  0  0
  -29.1010  -21.6730   18.1410 C   0  0  0  0  0  0  0  0  0  0  0  0
  -29.0530  -19.4560   19.7490 C   0  0  0  0  0  0  0  0  0  0  0  0
  -29.5000  -21.7710   19.5010 C   0  0  0  0  0  0  0  0  0  0  0  0
  -28.1500  -18.1470   17.6940 C   0  0  0  0  0  1  0  0  0  0  0  0
  -29.1730  -22.8230   17.1490 C   0  0  0  0  0  1  0  0  0  0  0  0
  -28.6550  -20.5130   17.6050 N   0  0  0  0  0  0  0  0  0  0  0  0
  -29.4430  -20.6500   20.3030 N   0  0  0  0  0  0  0  0  0  0  0  0
  -31.2370  -22.6950   21.1130 C   0  0  0  0  0  1  0  0  0  0  0  0
  -30.1560  -23.0740   20.0710 C   0  0  0  0  0  3  0  0  0  0  0  0
  -29.2410  -24.2640   20.6070 C   0  0  0  0  0  2  0  0  0  0  0  0
  -28.6970  -25.3870   19.6360 C   0  0  0  0  0  2  0  0  0  0  0  0
  -28.4500  -26.6800   20.2820 O   0  0  0  0  0  0  0  0  0  0  0  0
  -24.5660  -31.9170   23.2350 C   0  0  0  0  0  0  0  0  0  0  0  0
  -27.2550  -27.4040   20.2080 C   0  0  0  0  0  0  0  0  0  0  0  0
  -23.3770  -30.5130   21.5840 C   0  0  0  0  0  3  0  0  0  0  0  0
  -24.8480  -28.9500   20.1860 C   0  0  0  0  0  0  0  0  0  0  0  0
  -25.9120  -30.8470   21.4190 C   0  0  0  0  0  2  0  0  0  0  0  0
  -26.0020  -29.4690   20.7840 C   0  0  0  0  0  0  0  0  0  0  0  0
  -27.2000  -28.7040   20.7860 C   0  0  0  0  0  3  0  0  0  0  0  0
  -26.0680  -26.9090   19.6160 C   0  0  0  0  0  3  0  0  0  0  0  0
  -24.8790  -27.6720   19.6030 C   0  0  0  0  0  3  0  0  0  0  0  0
  -23.6060  -29.8210   20.2110 C   0  0  0  0  0  2  0  0  0  0  0  0
  -24.6360  -31.1070   22.1370 N   0  0  0  0  0  0  0  0  0  0  0  0
  -23.4780  -32.1960   23.7590 O   0  0  0  0  0  0  0  0  0  0  0  0
  -22.7050  -29.5020   22.5410 C   0  0  0  0  0  0  0  0  0  0  0  0
  -21.3810  -29.3310   22.4030 N   0  0  0  0  0  0  0  0  0  0  0  0
  -23.3740  -28.8720   23.3660 O   0  0  0  0  0  0  0  0  0  0  0  0
  -20.9010  -29.8910   21.7110 H   0  0  0  0  0  0  0  0  0  0  0  0
  -17.9890  -28.1750   22.8830 C   0  0  0  0  0  0  0  0  0  0  0  0
  -20.5480  -28.4010   23.1670 C   0  0  0  0  0  3  0  0  0  0  0  0
  -20.6370  -26.9720   22.5860 C   0  0  0  0  0  2  0  0  0  0  0  0
  -19.5360  -26.6650   21.5660 C   0  0  0  0  0  2  0  0  0  0  0  0
  -18.1520  -26.8260   22.2020 C   0  0  0  0  0  2  0  0  0  0  0  0
  -19.1150  -28.9230   23.3210 C   0  0  0  0  0  0  0  0  0  0  0  0
  -18.9090  -30.1850   23.9170 C   0  0  0  0  0  3  0  0  0  0  0  0
  -17.6090  -30.7030   24.0770 C   0  0  0  0  0  3  0  0  0  0  0  0
  -16.4980  -29.9530   23.6540 C   0  0  0  0  0  3  0  0  0  0  0  0
  -16.6890  -28.6910   23.0630 C   0  0  0  0  0  3  0  0  0  0  0  0
  -25.8450  -32.5460   23.8680 C   0  0  0  0  0  3  0  0  0  0  0  0
  -25.5360  -33.9460   24.1870 N   0  0  0  0  0  0  0  0  0  0  0  0
  -25.8840  -34.9940   23.4270 C   0  0  0  0  0  0  0  0  0  0  0  0
  -26.5650  -34.8840   22.4060 O   0  0  0  0  0  0  0  0  0  0  0  0
  -24.9230  -34.1050   24.9720 H   0  0  0  0  0  0  0  0  0  0  0  0
  -24.1690  -36.7950   23.0440 C   0  0  0  0  0  1  0  0  0  0  0  0
  -25.3970  -36.3860   23.8730 C   0  0  0  0  0  3  0  0  0  0  0  0
  -27.5210  -37.2670   24.7330 C   0  0  0  0  0  1  0  0  0  0  0  0
  -26.4350  -37.4340   23.7720 N   0  0  0  0  0  0  0  0  0  0  0  0
  -26.0300  -38.3560   23.9090 H   0  0  0  0  0  0  0  0  0  0  0  0
  -26.3420  -31.7800   25.1560 C   0  0  1  0  0  0  0  0  0  0  0  0
  -25.2310  -31.5500   26.2080 C   0  0  0  0  0  1  0  0  0  0  0  0
  -26.9240  -30.3990   24.7760 C   0  0  0  0  0  1  0  0  0  0  0  0
  -27.4860  -32.5730   25.8290 C   0  0  0  0  0  1  0  0  0  0  0  0
  -29.0420  -18.1700   20.6300 C   0  0  0  0  0  2  0  0  0  0  0  0
  -30.1700  -17.1080   20.3570 C   0  0  0  0  0  2  0  0  0  0  0  0
  -30.6210  -14.6100   20.4480 C   0  0  0  0  0  0  0  0  0  0  0  0
  -30.3550  -12.4210   19.3370 C   0  0  0  0  0  2  0  0  0  0  0  0
  -29.4260  -12.6390   18.1260 C   0  0  0  0  0  2  0  0  0  0  0  0
  -27.9450  -12.4920   18.5400 C   0  0  0  0  0  2  0  0  0  0  0  0
  -27.6030  -13.2940   19.8240 C   0  0  0  0  0  3  0  0  0  0  0  0
  -28.6620  -13.0730   20.9290 C   0  0  0  0  0  2  0  0  0  0  0  0
  -29.9760  -13.4110   20.3610 N   0  0  0  0  0  0  0  0  0  0  0  0
  -31.7800  -14.7570   20.0490 O   0  0  0  0  0  0  0  0  0  0  0  0
  -29.8590  -15.6950   20.7500 N   0  0  0  0  0  0  0  0  0  0  0  0
  -28.9300  -15.5060   21.0940 H   0  0  0  0  0  0  0  0  0  0  0  0
  -25.2020  -13.8860   20.5230 C   0  0  0  0  0  0  0  0  0  0  0  0
  -24.1330  -13.1130   20.8850 C   0  0  0  0  0  0  0  0  0  0  0  0
  -24.5950  -11.7620   20.8540 C   0  0  0  0  0  0  0  0  0  0  0  0
  -26.2510  -13.0070   20.2970 N   0  0  0  0  0  0  0  0  0  0  0  0
  -25.8890  -11.7220   20.5550 N   0  0  0  0  0  0  0  0  0  0  0  0
  -23.8660  -10.5020   21.0400 C   0  0  0  0  0  0  0  0  0  0  0  0
  -24.2920   -9.5370   21.9800 C   0  0  0  0  0  3  0  0  0  0  0  0
  -23.5700   -8.3370   22.1520 C   0  0  0  0  0  3  0  0  0  0  0  0
  -22.4040   -8.0920   21.3880 C   0  0  0  0  0  0  0  0  0  0  0  0
  -21.9970   -9.0450   20.4360 C   0  0  0  0  0  3  0  0  0  0  0  0
  -22.7200  -10.2370   20.2600 C   0  0  0  0  0  3  0  0  0  0  0  0
  -21.6480   -6.9490   21.4730 O   0  0  0  0  0  0  0  0  0  0  0  0
  -21.5870   -6.2120   22.6280 C   0  0  0  0  0  0  0  0  0  0  0  0
  -21.1280   -6.7670   23.8420 C   0  0  0  0  0  3  0  0  0  0  0  0
  -21.0120   -5.9560   24.9890 C   0  0  0  0  0  3  0  0  0  0  0  0
  -21.3460   -4.5890   24.9200 C   0  0  0  0  0  0  0  0  0  0  0  0
  -21.7950   -4.0330   23.7100 C   0  0  0  0  0  3  0  0  0  0  0  0
  -21.9120   -4.8410   22.5660 C   0  0  0  0  0  0  0  0  0  0  0  0
  -22.3280   -4.2960   21.3980 F   0  0  0  0  0  0  0  0  0  0  0  0
  -21.2280   -3.8070   26.0180 F   0  0  0  0  0  0  0  0  0  0  0  0
  -22.7340  -13.5890   21.1510 C   0  0  0  0  0  0  0  0  0  0  0  0
  -21.9980  -12.8910   22.0100 N   0  0  0  0  0  0  0  0  0  0  0  0
  -22.3000  -14.6170   20.6320 O   0  0  0  0  0  0  0  0  0  0  0  0
  -22.3600  -12.0610   22.4600 H   0  0  0  0  0  0  0  0  0  0  0  0
  -21.0570  -13.1880   22.2230 H   0  0  0  0  0  0  0  0  0  0  0  0
  -25.3640  -15.2570   20.3370 N   0  0  0  0  0  0  0  0  0  0  0  0
  -24.5840  -15.9020   20.4010 H   0  0  0  0  0  0  0  0  0  0  0  0
  -26.1920  -15.6820   19.9420 H   0  0  0  0  0  0  0  0  0  0  0  0
  1  3  1  0
  2  4  2  0
  3  8  2  0
  3 54  1  0
  4 10  1  0
  4  8  1  0
  5  1  1  0
  6  2  1  0
  7  2  1  0
  7  1  2  0
 10 11  1  0
 10  9  1  0
 12 13  1  0
 12 11  1  0
 14 25  2  0
 15 13  1  0
 15 20  1  0
 16 24  1  0
 16 26  1  0
 17 23  1  0
 17 19  1  0
 18 24  1  0
 19 20  2  0
 19 18  1  0
 21 15  2  0
 22 21  1  0
 22 17  2  0
 23 16  1  0
 24 14  1  0
 26 28  2  0
 27 26  1  0
 29 27  1  0
 30 39  2  0
 30 35  1  0
 31 27  1  0
 31 35  1  0
 32 31  1  0
 33 34  1  0
 33 32  1  0
 34 30  1  0
 35 36  2  0
 36 37  1  0
 38 37  2  0
 39 38  1  0
 40 14  1  0
 40 41  1  0
 40 50  1  0
 41 44  1  0
 42 46  1  0
 42 41  1  0
 43 42  2  0
 46 45  1  0
 48 46  1  0
 48 49  1  0
 48 47  1  0
 50 53  1  1
 50 51  1  0
 52 50  1  0
 55 54  1  0
 55 64  1  0
 56 64  1  0
 57 62  1  0
 58 59  1  0
 58 57  1  0
 60 59  1  0
 60 69  1  0
 60 61  1  0
 62 56  1  0
 62 61  1  0
 63 56  2  0
 64 65  1  0
 66 67  2  0
 67 86  1  0
 68 67  1  0
 68 71  1  0
 69 66  1  0
 69 70  1  0
 70 68  2  0
 71 72  1  0
 72 73  2  0
 74 77  1  0
 74 73  1  0
 75 74  2  0
 76 75  1  0
 76 71  2  0
 77 78  1  0
 78 79  1  0
 79 80  2  0
 81 80  1  0
 81 85  1  0
 82 81  2  0
 83 78  2  0
 83 82  1  0
 84 83  1  0
 86 87  1  0
 87 90  1  0
 87 89  1  0
 88 86  2  0
 91 92  1  0
 91 66  1  0
 93 91  1  0
M  ISO  4  12 101  13 101  56 100  64 100
M  END
>  <TORSDO>  (13) 
F 21

>  <SCORE>  (13) 
-13.635

>  <name>  (13) 
12

>  <ligand_id>  (13) 
12

>  <original_smiles>  (13) 
[H]c1c([H])c([H])c2c(c1[H])C([H])([H])C([H])([H])C([H])([H])C2([H])N([H])C(=O)C1([H])N(C(=O)C([H])(N([H])C(=O)C([H])(N([H])C([H])([H])[H])C([H])([H])[H])C(C([H])([H])[H])(C([H])([H])[H])C([H])([H])[H])C([H])([H])c2c([H])c(OC([H])([H])C([H])([H])C([H])(c3nc(C([H])([H])C([H])([H])N([H])C(=O)N4C([H])([H])C([H])([H])C([H])([H])C([H])(n5nc(-c6c([H])c([H])c(Oc7c([H])c([H])c(F)c([H])c7F)c([H])c6[H])c(C(=O)N([H])[H])c5N([H])[H])C4([H])[H])c(C([H])([H])[H])nc3C([H])([H])[H])C([H])([H])[H])c([H])c([H])c2C1([H])[H]

>  <smiles>  (13) 
[H]c1c([H])c([H])c2c(c1[H])C([H])([H])C([H])([H])C([H])([H])C2([H])N([H])C(=O)C1([H])N(C(=O)C([H])(N([H])C(=O)C([H])(N([H])C([H])([H])[H])C([H])([H])[H])C(C([H])([H])[H])(C([H])([H])[H])C([H])([H])[H])C([H])([H])c2c([H])c(OC([H])([H])C([H])([H])C([H])(c3nc(C([H])([H])C([H])([H])N([H])C(=O)N4C([H])([H])C([H])([H])C([H])([H])C([H])(n5nc(-c6c([H])c([H])c(Oc7c([H])c([H])c(F)c([H])c7F)c([H])c6[H])c(C(=O)N([H])[H])c5N([H])[H])C4([H])[H])c(C([H])([H])[H])nc3C([H])([H])[H])C([H])([H])[H])c([H])c([H])c2C1([H])[H]

$$$$
13:0:0
     RDKit          3D

 91 99  0  0  1  0  0  0  0  0999 V2000
  -27.7660  -20.5450   18.8270 C   0  0  0  0  0  3  0  0  0  0  0  0
  -28.6650  -20.4490   19.9270 C   0  0  0  0  0  0  0  0  0  0  0  0
  -28.9080  -18.9960   20.0120 C   0  0  0  0  0  0  0  0  0  0  0  0
  -27.4710  -17.1370   18.8980 C   0  0  0  0  0  1  0  0  0  0  0  0
  -27.3370  -19.4070   18.3650 N   0  0  0  0  0  0  0  0  0  0  0  0
  -27.9470  -18.4900   19.1200 N   0  0  0  0  0  0  0  0  0  0  0  0
  -28.9540  -21.9200   20.6240 C   0  0  0  0  0  2  0  0  0  0  0  0
  -28.6370  -23.4270   19.8830 C   0  0  0  0  0  2  0  0  0  0  0  0
  -28.0940  -24.8570   20.6010 C   0  0  0  0  0  2  0  0  0  0  0  0
  -28.2200  -26.3230   20.0890 O   0  0  0  0  0  0  0  0  0  0  0  0
  -24.5820  -31.9390   23.2130 C   0  0  0  0  0  0  0  0  0  0  0  0
  -27.1360  -27.2690   20.1170 C   0  0  0  0  0  0  0  0  0  0  0  0
  -23.3590  -30.5440   21.5870 C   0  0  0  0  0  3  0  0  0  0  0  0
  -24.7930  -28.9850   20.1290 C   0  0  0  0  0  0  0  0  0  0  0  0
  -25.9050  -30.8340   21.3730 C   0  0  0  0  0  2  0  0  0  0  0  0
  -25.9790  -29.4440   20.7160 C   0  0  0  0  0  0  0  0  0  0  0  0
  -27.1540  -28.6050   20.6880 C   0  0  0  0  0  3  0  0  0  0  0  0
  -25.9230  -26.9020   19.4990 C   0  0  0  0  0  3  0  0  0  0  0  0
  -24.7770  -27.7270   19.5010 C   0  0  0  0  0  3  0  0  0  0  0  0
  -23.5600  -29.8740   20.2000 C   0  0  0  0  0  2  0  0  0  0  0  0
  -24.6370  -31.1280   22.1130 N   0  0  0  0  0  0  0  0  0  0  0  0
  -23.5050  -32.2120   23.7650 O   0  0  0  0  0  0  0  0  0  0  0  0
  -22.7090  -29.5260   22.5570 C   0  0  0  0  0  0  0  0  0  0  0  0
  -21.3850  -29.3280   22.4380 N   0  0  0  0  0  0  0  0  0  0  0  0
  -23.3970  -28.9170   23.3810 O   0  0  0  0  0  0  0  0  0  0  0  0
  -20.8860  -29.8710   21.7480 H   0  0  0  0  0  0  0  0  0  0  0  0
  -18.0330  -28.0520   22.9480 C   0  0  0  0  0  0  0  0  0  0  0  0
  -20.5850  -28.3770   23.2130 C   0  0  0  0  0  3  0  0  0  0  0  0
  -20.7210  -26.9440   22.6480 C   0  0  0  0  0  2  0  0  0  0  0  0
  -19.6270  -26.5880   21.6350 C   0  0  0  0  0  2  0  0  0  0  0  0
  -18.2420  -26.7030   22.2790 C   0  0  0  0  0  2  0  0  0  0  0  0
  -19.1340  -28.8440   23.3720 C   0  0  0  0  0  0  0  0  0  0  0  0
  -18.8860  -30.1030   23.9610 C   0  0  0  0  0  3  0  0  0  0  0  0
  -17.5690  -30.5730   24.1280 C   0  0  0  0  0  3  0  0  0  0  0  0
  -16.4820  -29.7800   23.7180 C   0  0  0  0  0  3  0  0  0  0  0  0
  -16.7150  -28.5200   23.1350 C   0  0  0  0  0  3  0  0  0  0  0  0
  -25.8690  -32.5790   23.8200 C   0  0  0  0  0  3  0  0  0  0  0  0
  -25.5610  -33.9790   24.1490 N   0  0  0  0  0  0  0  0  0  0  0  0
  -25.9000  -35.0350   23.3960 C   0  0  0  0  0  0  0  0  0  0  0  0
  -26.5730  -34.9310   22.3670 O   0  0  0  0  0  0  0  0  0  0  0  0
  -24.9650  -34.1330   24.9490 H   0  0  0  0  0  0  0  0  0  0  0  0
  -24.1990  -36.8520   23.0220 C   0  0  0  0  0  1  0  0  0  0  0  0
  -25.4170  -36.4250   23.8560 C   0  0  0  0  0  3  0  0  0  0  0  0
  -27.5410  -37.2850   24.7420 C   0  0  0  0  0  1  0  0  0  0  0  0
  -26.4630  -37.4690   23.7740 N   0  0  0  0  0  0  0  0  0  0  0  0
  -26.0630  -38.3920   23.9190 H   0  0  0  0  0  0  0  0  0  0  0  0
  -26.3960  -31.8160   25.0980 C   0  0  1  0  0  0  0  0  0  0  0  0
  -25.3120  -31.5880   26.1780 C   0  0  0  0  0  1  0  0  0  0  0  0
  -26.9750  -30.4340   24.7150 C   0  0  0  0  0  1  0  0  0  0  0  0
  -27.5500  -32.6170   25.7470 C   0  0  0  0  0  1  0  0  0  0  0  0
  -29.7170  -17.7990   20.8280 C   0  0  0  0  0  2  0  0  0  0  0  0
  -30.7860  -15.2010   20.7140 C   0  0  0  0  0  0  0  0  0  0  0  0
  -30.6920  -12.8220   19.8280 C   0  0  0  0  0  2  0  0  0  0  0  0
  -29.8460  -12.6870   18.5450 C   0  0  0  0  0  2  0  0  0  0  0  0
  -28.3640  -12.4670   18.9000 C   0  0  0  0  0  2  0  0  0  0  0  0
  -27.8620  -13.4290   20.0070 C   0  0  0  0  0  3  0  0  0  0  0  0
  -28.8510  -13.5600   21.1830 C   0  0  0  0  0  2  0  0  0  0  0  0
  -30.1310  -13.9720   20.5960 N   0  0  0  0  0  0  0  0  0  0  0  0
  -32.0190  -15.1210   20.7660 O   0  0  0  0  0  0  0  0  0  0  0  0
  -30.2240  -16.4210   20.1820 N   0  0  0  0  0  0  0  0  0  0  0  0
  -25.4370  -13.9830   20.6050 C   0  0  0  0  0  0  0  0  0  0  0  0
  -24.3600  -13.2010   20.9000 C   0  0  0  0  0  0  0  0  0  0  0  0
  -24.8430  -11.8580   20.9200 C   0  0  0  0  0  0  0  0  0  0  0  0
  -26.5060  -13.1200   20.4380 N   0  0  0  0  0  0  0  0  0  0  0  0
  -26.1530  -11.8330   20.7020 N   0  0  0  0  0  0  0  0  0  0  0  0
  -24.1200  -10.5900   21.0750 C   0  0  0  0  0  0  0  0  0  0  0  0
  -24.5000   -9.6360   22.0430 C   0  0  0  0  0  3  0  0  0  0  0  0
  -23.7720   -8.4360   22.1880 C   0  0  0  0  0  3  0  0  0  0  0  0
  -22.6520   -8.1820   21.3610 C   0  0  0  0  0  0  0  0  0  0  0  0
  -22.2930   -9.1240   20.3810 C   0  0  0  0  0  3  0  0  0  0  0  0
  -23.0210  -10.3150   20.2360 C   0  0  0  0  0  3  0  0  0  0  0  0
  -21.9030   -7.0320   21.4120 O   0  0  0  0  0  0  0  0  0  0  0  0
  -21.7790   -6.3040   22.5670 C   0  0  0  0  0  0  0  0  0  0  0  0
  -21.2530   -6.8660   23.7500 C   0  0  0  0  0  3  0  0  0  0  0  0
  -21.0810   -6.0630   24.8950 C   0  0  0  0  0  3  0  0  0  0  0  0
  -21.4250   -4.6990   24.8570 C   0  0  0  0  0  0  0  0  0  0  0  0
  -21.9440   -4.1350   23.6780 C   0  0  0  0  0  3  0  0  0  0  0  0
  -22.1180   -4.9350   22.5350 C   0  0  0  0  0  0  0  0  0  0  0  0
  -22.6000   -4.3830   21.3960 F   0  0  0  0  0  0  0  0  0  0  0  0
  -21.2510   -3.9260   25.9530 F   0  0  0  0  0  0  0  0  0  0  0  0
  -22.9430  -13.6660   21.0630 C   0  0  0  0  0  0  0  0  0  0  0  0
  -22.1660  -12.9770   21.8910 N   0  0  0  0  0  0  0  0  0  0  0  0
  -22.5320  -14.6760   20.4910 O   0  0  0  0  0  0  0  0  0  0  0  0
  -22.5140  -12.1610   22.3720 H   0  0  0  0  0  0  0  0  0  0  0  0
  -21.2120  -13.2690   22.0480 H   0  0  0  0  0  0  0  0  0  0  0  0
  -25.5870  -15.3550   20.4400 N   0  0  0  0  0  0  0  0  0  0  0  0
  -24.8070  -15.9960   20.5270 H   0  0  0  0  0  0  0  0  0  0  0  0
  -26.4580  -15.8120   20.2220 H   0  0  0  0  0  0  0  0  0  0  0  0
  -30.8610  -16.7850   18.8910 C   0  0  0  0  0  2  0  0  0  0  0  0
  -32.2220  -18.7290   17.9500 C   0  0  0  0  0  1  0  0  0  0  0  0
  -32.1530  -17.6300   19.0190 C   0  0  0  0  0  2  0  0  0  0  0  0
  1  2  1  0
  2  3  2  0
  2  7  1  0
  3 51  1  0
  4  6  1  0
  5  1  2  0
  5  6  1  0
  6  3  1  0
  8  9  1  0
  8  7  1  0
 10 12  1  0
 10  9  1  0
 11 22  2  0
 12 17  1  0
 13 21  1  0
 13 23  1  0
 14 20  1  0
 14 16  1  0
 15 21  1  0
 16 15  1  0
 17 16  2  0
 18 19  1  0
 18 12  2  0
 19 14  2  0
 20 13  1  0
 21 11  1  0
 23 25  2  0
 24 23  1  0
 26 24  1  0
 27 36  2  0
 27 32  1  0
 28 24  1  0
 28 32  1  0
 29 28  1  0
 30 31  1  0
 30 29  1  0
 31 27  1  0
 32 33  2  0
 33 34  1  0
 35 34  2  0
 36 35  1  0
 37 11  1  0
 37 38  1  0
 37 47  1  0
 38 41  1  0
 39 43  1  0
 39 38  1  0
 40 39  2  0
 43 42  1  0
 45 43  1  0
 45 46  1  0
 45 44  1  0
 47 50  1  1
 47 48  1  0
 49 47  1  0
 52 59  2  0
 53 58  1  0
 54 55  1  0
 54 53  1  0
 56 55  1  0
 56 64  1  0
 56 57  1  0
 58 52  1  0
 58 57  1  0
 60 52  1  0
 60 51  1  0
 61 62  2  0
 62 63  1  0
 62 81  1  0
 63 66  1  0
 64 61  1  0
 64 65  1  0
 65 63  2  0
 66 67  1  0
 67 68  2  0
 69 72  1  0
 69 68  1  0
 70 69  2  0
 71 70  1  0
 71 66  2  0
 72 73  1  0
 73 74  1  0
 74 75  2  0
 76 75  1  0
 76 80  1  0
 77 76  2  0
 78 73  2  0
 78 77  1  0
 79 78  1  0
 81 82  1  0
 82 85  1  0
 82 84  1  0
 83 81  2  0
 86 87  1  0
 86 61  1  0
 88 86  1  0
 89 91  1  0
 89 60  1  0
 90 91  1  0
M  ISO  4   9 101  10 101  52 100  60 100
M  END
>  <TORSDO>  (14) 
F 22

>  <SCORE>  (14) 
-13.899

>  <name>  (14) 
13

>  <ligand_id>  (14) 
13

>  <original_smiles>  (14) 
[H]c1nn(C([H])([H])[H])c(C([H])([H])N(C(=O)N2C([H])([H])C([H])([H])C([H])([H])C([H])(n3nc(-c4c([H])c([H])c(Oc5c([H])c([H])c(F)c([H])c5F)c([H])c4[H])c(C(=O)N([H])[H])c3N([H])[H])C2([H])[H])C([H])([H])C([H])([H])C([H])([H])[H])c1C([H])([H])C([H])([H])C([H])([H])Oc1c([H])c([H])c2c(c1[H])C([H])([H])N(C(=O)C([H])(N([H])C(=O)C([H])(N([H])C([H])([H])[H])C([H])([H])[H])C(C([H])([H])[H])(C([H])([H])[H])C([H])([H])[H])C([H])(C(=O)N([H])C1([H])c3c([H])c([H])c([H])c([H])c3C([H])([H])C([H])([H])C1([H])[H])C2([H])[H]

>  <smiles>  (14) 
[H]c1nn(C([H])([H])[H])c(C([H])([H])N(C(=O)N2C([H])([H])C([H])([H])C([H])([H])C([H])(n3nc(-c4c([H])c([H])c(Oc5c([H])c([H])c(F)c([H])c5F)c([H])c4[H])c(C(=O)N([H])[H])c3N([H])[H])C2([H])[H])C([H])([H])C([H])([H])C([H])([H])[H])c1C([H])([H])C([H])([H])C([H])([H])Oc1c([H])c([H])c2c(c1[H])C([H])([H])N(C(=O)C([H])(N([H])C(=O)C([H])(N([H])C([H])([H])[H])C([H])([H])[H])C(C([H])([H])[H])(C([H])([H])[H])C([H])([H])[H])C([H])(C(=O)N([H])C1([H])c3c([H])c([H])c([H])c([H])c3C([H])([H])C([H])([H])C1([H])[H])C2([H])[H]

$$$$
14:0:0
     RDKit          3D

 90 98  0  0  1  0  0  0  0  0999 V2000
  -29.5590  -22.5170   21.8440 C   0  0  0  0  0  3  0  0  0  0  0  0
  -29.6400  -22.3170   19.4760 C   0  0  0  0  0  3  0  0  0  0  0  0
  -29.6270  -23.1580   20.5980 C   0  0  0  0  0  0  0  0  0  0  0  0
  -29.4630  -20.4670   20.8240 C   0  0  0  0  0  0  0  0  0  0  0  0
  -29.4770  -21.1760   21.9480 N   0  0  0  0  0  0  0  0  0  0  0  0
  -29.5640  -20.9750   19.5970 N   0  0  0  0  0  0  0  0  0  0  0  0
  -29.6950  -24.6820   20.4880 C   0  0  0  0  0  2  0  0  0  0  0  0
  -28.3600  -25.3370   20.0750 C   0  0  0  0  0  2  0  0  0  0  0  0
  -28.4340  -26.7670   20.1710 O   0  0  0  0  0  0  0  0  0  0  0  0
  -24.5740  -31.9060   23.2310 C   0  0  0  0  0  0  0  0  0  0  0  0
  -27.2440  -27.4710   20.1570 C   0  0  0  0  0  0  0  0  0  0  0  0
  -23.3720  -30.4920   21.5960 C   0  0  0  0  0  3  0  0  0  0  0  0
  -24.8330  -28.9570   20.1750 C   0  0  0  0  0  0  0  0  0  0  0  0
  -25.8950  -30.8680   21.3880 C   0  0  0  0  0  2  0  0  0  0  0  0
  -25.9890  -29.4950   20.7530 C   0  0  0  0  0  0  0  0  0  0  0  0
  -27.1970  -28.7600   20.7360 C   0  0  0  0  0  3  0  0  0  0  0  0
  -26.0660  -26.9480   19.5730 C   0  0  0  0  0  3  0  0  0  0  0  0
  -24.8660  -27.6840   19.5830 C   0  0  0  0  0  3  0  0  0  0  0  0
  -23.5820  -29.8070   20.2200 C   0  0  0  0  0  2  0  0  0  0  0  0
  -24.6320  -31.1040   22.1310 N   0  0  0  0  0  0  0  0  0  0  0  0
  -23.4920  -32.1740   23.7740 O   0  0  0  0  0  0  0  0  0  0  0  0
  -22.7290  -29.4710   22.5630 C   0  0  0  0  0  0  0  0  0  0  0  0
  -21.4050  -29.2830   22.4420 N   0  0  0  0  0  0  0  0  0  0  0  0
  -23.4190  -28.8500   23.3770 O   0  0  0  0  0  0  0  0  0  0  0  0
  -20.9100  -29.8360   21.7570 H   0  0  0  0  0  0  0  0  0  0  0  0
  -18.0370  -28.0790   22.9570 C   0  0  0  0  0  0  0  0  0  0  0  0
  -20.5950  -28.3440   23.2180 C   0  0  0  0  0  3  0  0  0  0  0  0
  -20.6990  -26.9120   22.6420 C   0  0  0  0  0  2  0  0  0  0  0  0
  -19.5940  -26.5860   21.6340 C   0  0  0  0  0  2  0  0  0  0  0  0
  -18.2150  -26.7290   22.2840 C   0  0  0  0  0  2  0  0  0  0  0  0
  -19.1560  -28.8440   23.3820 C   0  0  0  0  0  0  0  0  0  0  0  0
  -18.9370  -30.1090   23.9700 C   0  0  0  0  0  3  0  0  0  0  0  0
  -17.6320  -30.6080   24.1410 C   0  0  0  0  0  3  0  0  0  0  0  0
  -16.5270  -29.8390   23.7340 C   0  0  0  0  0  3  0  0  0  0  0  0
  -16.7310  -28.5770   23.1460 C   0  0  0  0  0  3  0  0  0  0  0  0
  -25.8580  -32.5470   23.8440 C   0  0  0  0  0  3  0  0  0  0  0  0
  -25.5440  -33.9450   24.1680 N   0  0  0  0  0  0  0  0  0  0  0  0
  -25.8780  -34.9960   23.4070 C   0  0  0  0  0  0  0  0  0  0  0  0
  -26.5570  -34.8910   22.3820 O   0  0  0  0  0  0  0  0  0  0  0  0
  -24.9440  -34.1000   24.9640 H   0  0  0  0  0  0  0  0  0  0  0  0
  -24.1540  -36.7860   23.0280 C   0  0  0  0  0  1  0  0  0  0  0  0
  -25.3820  -36.3830   23.8570 C   0  0  0  0  0  3  0  0  0  0  0  0
  -27.5060  -37.2710   24.7160 C   0  0  0  0  0  1  0  0  0  0  0  0
  -26.4160  -37.4380   23.7590 N   0  0  0  0  0  0  0  0  0  0  0  0
  -26.0060  -38.3570   23.9030 H   0  0  0  0  0  0  0  0  0  0  0  0
  -26.3870  -31.7840   25.1200 C   0  0  1  0  0  0  0  0  0  0  0  0
  -25.3000  -31.5420   26.1950 C   0  0  0  0  0  1  0  0  0  0  0  0
  -26.9760  -30.4090   24.7280 C   0  0  0  0  0  1  0  0  0  0  0  0
  -27.5330  -32.5880   25.7770 C   0  0  0  0  0  1  0  0  0  0  0  0
  -29.2480  -18.9580   20.9530 C   0  0  0  0  0  3  0  0  0  0  0  0
  -30.5300  -18.1190   21.1990 C   0  0  0  0  0  3  0  0  0  0  0  0
  -30.3020  -16.6150   21.5740 C   0  0  0  0  0  2  0  0  0  0  0  0
  -30.8630  -14.5420   20.3360 C   0  0  0  0  0  0  0  0  0  0  0  0
  -30.5770  -12.3310   19.2970 C   0  0  0  0  0  2  0  0  0  0  0  0
  -29.6460  -12.4750   18.0760 C   0  0  0  0  0  2  0  0  0  0  0  0
  -28.1700  -12.3500   18.5010 C   0  0  0  0  0  2  0  0  0  0  0  0
  -27.8100  -13.2320   19.7260 C   0  0  0  0  0  3  0  0  0  0  0  0
  -28.8630  -13.0950   20.8500 C   0  0  0  0  0  2  0  0  0  0  0  0
  -30.1860  -13.3630   20.2660 N   0  0  0  0  0  0  0  0  0  0  0  0
  -32.0490  -14.6610   20.0200 O   0  0  0  0  0  0  0  0  0  0  0  0
  -29.5280  -16.2100   19.2240 C   0  0  0  0  0  1  0  0  0  0  0  0
  -30.0870  -15.6500   20.4660 N   0  0  0  0  0  0  0  0  0  0  0  0
  -25.4180  -13.8670   20.4180 C   0  0  0  0  0  0  0  0  0  0  0  0
  -24.3420  -13.1040   20.7860 C   0  0  0  0  0  0  0  0  0  0  0  0
  -24.7990  -11.7500   20.7780 C   0  0  0  0  0  0  0  0  0  0  0  0
  -26.4580  -12.9740   20.2050 N   0  0  0  0  0  0  0  0  0  0  0  0
  -26.0900  -11.6990   20.4840 N   0  0  0  0  0  0  0  0  0  0  0  0
  -24.0670  -10.4940   20.9770 C   0  0  0  0  0  0  0  0  0  0  0  0
  -24.4880   -9.5380   21.9270 C   0  0  0  0  0  3  0  0  0  0  0  0
  -23.7570   -8.3450   22.1130 C   0  0  0  0  0  3  0  0  0  0  0  0
  -22.5920   -8.1010   21.3470 C   0  0  0  0  0  0  0  0  0  0  0  0
  -22.1920   -9.0450   20.3860 C   0  0  0  0  0  3  0  0  0  0  0  0
  -22.9230  -10.2300   20.1990 C   0  0  0  0  0  3  0  0  0  0  0  0
  -21.8330   -6.9590   21.4400 O   0  0  0  0  0  0  0  0  0  0  0  0
  -21.7640   -6.2360   22.6040 C   0  0  0  0  0  0  0  0  0  0  0  0
  -21.3230   -6.8140   23.8150 C   0  0  0  0  0  3  0  0  0  0  0  0
  -21.2010   -6.0170   24.9700 C   0  0  0  0  0  3  0  0  0  0  0  0
  -21.5070   -4.6430   24.9160 C   0  0  0  0  0  0  0  0  0  0  0  0
  -21.9410   -4.0650   23.7090 C   0  0  0  0  0  3  0  0  0  0  0  0
  -22.0650   -4.8600   22.5560 C   0  0  0  0  0  0  0  0  0  0  0  0
  -22.4640   -4.2950   21.3910 F   0  0  0  0  0  0  0  0  0  0  0  0
  -21.3810   -3.8750   26.0230 F   0  0  0  0  0  0  0  0  0  0  0  0
  -22.9450  -13.5920   21.0390 C   0  0  0  0  0  0  0  0  0  0  0  0
  -22.2080  -12.9110   21.9100 N   0  0  0  0  0  0  0  0  0  0  0  0
  -22.5150  -14.6110   20.5010 O   0  0  0  0  0  0  0  0  0  0  0  0
  -22.5700  -12.0870   22.3660 H   0  0  0  0  0  0  0  0  0  0  0  0
  -21.2720  -13.2190   22.1230 H   0  0  0  0  0  0  0  0  0  0  0  0
  -25.5930  -15.2340   20.2260 N   0  0  0  0  0  0  0  0  0  0  0  0
  -24.8340  -15.8980   20.3290 H   0  0  0  0  0  0  0  0  0  0  0  0
  -26.4620  -15.6630   19.9330 H   0  0  0  0  0  0  0  0  0  0  0  0
  1  5  1  0
  2  6  2  0
  2  3  1  0
  3  1  2  0
  4 50  1  0
  4  5  2  0
  6  4  1  0
  7  3  1  0
  8  9  1  0
  8  7  1  0
 10 21  2  0
 11  9  1  0
 11 16  1  0
 12 20  1  0
 12 22  1  0
 13 19  1  0
 13 15  1  0
 14 20  1  0
 15 14  1  0
 16 15  2  0
 17 18  1  0
 17 11  2  0
 18 13  2  0
 19 12  1  0
 20 10  1  0
 22 24  2  0
 23 22  1  0
 25 23  1  0
 26 35  2  0
 26 31  1  0
 27 23  1  0
 27 31  1  0
 28 27  1  0
 29 30  1  0
 29 28  1  0
 30 26  1  0
 31 32  2  0
 32 33  1  0
 34 33  2  0
 35 34  1  0
 36 10  1  0
 36 37  1  0
 36 46  1  0
 37 40  1  0
 38 42  1  0
 38 37  1  0
 39 38  2  0
 42 41  1  0
 44 42  1  0
 44 45  1  0
 44 43  1  0
 46 49  1  1
 46 47  1  0
 48 46  1  0
 50 51  2  0
 51 52  1  0
 53 62  1  0
 54 59  1  0
 55 56  1  0
 55 54  1  0
 57 56  1  0
 57 66  1  0
 57 58  1  0
 59 53  1  0
 59 58  1  0
 60 53  2  0
 61 62  1  0
 62 52  1  0
 63 64  2  0
 64 83  1  0
 65 64  1  0
 65 68  1  0
 66 63  1  0
 66 67  1  0
 67 65  2  0
 68 69  1  0
 69 70  2  0
 71 74  1  0
 71 70  1  0
 72 71  2  0
 73 72  1  0
 73 68  2  0
 74 75  1  0
 75 76  1  0
 76 77  2  0
 78 77  1  0
 78 82  1  0
 79 78  2  0
 80 75  2  0
 80 79  1  0
 81 80  1  0
 83 84  1  0
 84 87  1  0
 84 86  1  0
 85 83  2  0
 88 89  1  0
 88 63  1  0
 90 88  1  0
M  ISO  4   8 101   9 101  53 100  62 100
M  END
>  <TORSDO>  (15) 
F 21

>  <SCORE>  (15) 
-13.407

>  <name>  (15) 
14

>  <ligand_id>  (15) 
14

>  <original_smiles>  (15) 
[H]c1nc(C([H])([H])C([H])([H])C([H])([H])N(C(=O)N2C([H])([H])C([H])([H])C([H])([H])C([H])(n3nc(-c4c([H])c([H])c(Oc5c([H])c([H])c(F)c([H])c5F)c([H])c4[H])c(C(=O)N([H])[H])c3N([H])[H])C2([H])[H])C([H])([H])[H])nc([H])c1C([H])([H])C([H])([H])Oc1c([H])c([H])c2c(c1[H])C([H])([H])N(C(=O)C([H])(N([H])C(=O)C([H])(N([H])C([H])([H])[H])C([H])([H])[H])C(C([H])([H])[H])(C([H])([H])[H])C([H])([H])[H])C([H])(C(=O)N([H])C1([H])c3c([H])c([H])c([H])c([H])c3C([H])([H])C([H])([H])C1([H])[H])C2([H])[H]

>  <smiles>  (15) 
[H]c1nc(C([H])([H])C([H])([H])C([H])([H])N(C(=O)N2C([H])([H])C([H])([H])C([H])([H])C([H])(n3nc(-c4c([H])c([H])c(Oc5c([H])c([H])c(F)c([H])c5F)c([H])c4[H])c(C(=O)N([H])[H])c3N([H])[H])C2([H])[H])C([H])([H])[H])nc([H])c1C([H])([H])C([H])([H])Oc1c([H])c([H])c2c(c1[H])C([H])([H])N(C(=O)C([H])(N([H])C(=O)C([H])(N([H])C([H])([H])[H])C([H])([H])[H])C(C([H])([H])[H])(C([H])([H])[H])C([H])([H])[H])C([H])(C(=O)N([H])C1([H])c3c([H])c([H])c([H])c([H])c3C([H])([H])C([H])([H])C1([H])[H])C2([H])[H]

$$$$
15:0:0
     RDKit          3D

 89 97  0  0  1  0  0  0  0  0999 V2000
  -28.2030  -23.4940   20.1070 C   0  0  0  0  0  3  0  0  0  0  0  0
  -29.3510  -22.2650   20.3290 C   0  0  0  0  0  2  0  0  0  0  0  0
  -29.6260  -19.5080   21.0630 C   0  0  0  0  0  3  0  0  0  0  0  0
  -29.5580  -18.2110   20.3410 C   0  0  0  0  0  0  0  0  0  0  0  0
  -29.2590  -20.6150   20.2530 C   0  0  0  0  0  0  0  0  0  0  0  0
  -29.1380  -18.5730   19.1240 N   0  0  0  0  0  0  0  0  0  0  0  0
  -28.9940  -19.9970   19.0530 O   0  0  0  0  0  0  0  0  0  0  0  0
  -29.6160  -16.6250   20.8430 C   0  0  0  0  0  2  0  0  0  0  0  0
  -30.4860  -15.2950   20.3270 C   0  0  0  0  0  0  0  0  0  0  0  0
  -30.5010  -12.9280   19.3750 C   0  0  0  0  0  2  0  0  0  0  0  0
  -29.5730  -12.8660   18.1320 C   0  0  0  0  0  2  0  0  0  0  0  0
  -28.1070  -12.6240   18.5450 C   0  0  0  0  0  2  0  0  0  0  0  0
  -27.6750  -13.5280   19.7270 C   0  0  0  0  0  3  0  0  0  0  0  0
  -28.7160  -13.5230   20.8650 C   0  0  0  0  0  2  0  0  0  0  0  0
  -29.9850  -13.9900   20.2890 N   0  0  0  0  0  0  0  0  0  0  0  0
  -31.6570  -15.4300   19.9420 O   0  0  0  0  0  0  0  0  0  0  0  0
  -25.2690  -14.0680   20.4140 C   0  0  0  0  0  0  0  0  0  0  0  0
  -24.2150  -13.2770   20.7770 C   0  0  0  0  0  0  0  0  0  0  0  0
  -24.7080  -11.9350   20.7720 C   0  0  0  0  0  0  0  0  0  0  0  0
  -26.3330  -13.2080   20.2000 N   0  0  0  0  0  0  0  0  0  0  0  0
  -26.0030  -11.9220   20.4800 N   0  0  0  0  0  0  0  0  0  0  0  0
  -24.0040  -10.6600   20.9690 C   0  0  0  0  0  0  0  0  0  0  0  0
  -24.4320   -9.7230   21.9370 C   0  0  0  0  0  3  0  0  0  0  0  0
  -23.7290   -8.5130   22.1170 C   0  0  0  0  0  3  0  0  0  0  0  0
  -22.5860   -8.2290   21.3330 C   0  0  0  0  0  0  0  0  0  0  0  0
  -22.1830   -9.1540   20.3540 C   0  0  0  0  0  3  0  0  0  0  0  0
  -22.8840  -10.3570   20.1700 C   0  0  0  0  0  3  0  0  0  0  0  0
  -21.8570   -7.0690   21.4220 O   0  0  0  0  0  0  0  0  0  0  0  0
  -21.7850   -6.3560   22.5910 C   0  0  0  0  0  0  0  0  0  0  0  0
  -21.2870   -6.9270   23.7840 C   0  0  0  0  0  3  0  0  0  0  0  0
  -21.1600   -6.1350   24.9430 C   0  0  0  0  0  3  0  0  0  0  0  0
  -21.5240   -4.7750   24.9120 C   0  0  0  0  0  0  0  0  0  0  0  0
  -22.0140   -4.2050   23.7260 C   0  0  0  0  0  3  0  0  0  0  0  0
  -22.1420   -4.9920   22.5670 C   0  0  0  0  0  0  0  0  0  0  0  0
  -22.5950   -4.4310   21.4200 F   0  0  0  0  0  0  0  0  0  0  0  0
  -21.3980   -4.0120   26.0260 F   0  0  0  0  0  0  0  0  0  0  0  0
  -22.8040  -13.7250   21.0230 C   0  0  0  0  0  0  0  0  0  0  0  0
  -22.0820  -13.0210   21.8860 N   0  0  0  0  0  0  0  0  0  0  0  0
  -22.3520  -14.7340   20.4820 O   0  0  0  0  0  0  0  0  0  0  0  0
  -22.4670  -12.2060   22.3440 H   0  0  0  0  0  0  0  0  0  0  0  0
  -21.1320  -13.2960   22.0970 H   0  0  0  0  0  0  0  0  0  0  0  0
  -25.4100  -15.4400   20.2200 N   0  0  0  0  0  0  0  0  0  0  0  0
  -24.6260  -16.0760   20.3040 H   0  0  0  0  0  0  0  0  0  0  0  0
  -26.2450  -15.8810   19.8590 H   0  0  0  0  0  0  0  0  0  0  0  0
  -27.2290  -23.6030   21.3020 C   0  0  0  0  0  2  0  0  0  0  0  0
  -24.7900  -23.7850   22.0470 C   0  0  0  0  0  1  0  0  0  0  0  0
  -25.7550  -23.3220   20.9470 C   0  0  0  0  0  2  0  0  0  0  0  0
  -28.5160  -25.0330   19.4400 C   0  0  0  0  0  2  0  0  0  0  0  0
  -28.4630  -26.5080   19.9570 O   0  0  0  0  0  0  0  0  0  0  0  0
  -24.6810  -31.9440   23.1510 C   0  0  0  0  0  0  0  0  0  0  0  0
  -27.3630  -27.4410   19.8880 C   0  0  0  0  0  0  0  0  0  0  0  0
  -23.5000  -30.5600   21.4890 C   0  0  0  0  0  3  0  0  0  0  0  0
  -24.9700  -29.0960   19.9710 C   0  0  0  0  0  0  0  0  0  0  0  0
  -26.0360  -30.9320   21.2770 C   0  0  0  0  0  2  0  0  0  0  0  0
  -26.1450  -29.5680   20.5690 C   0  0  0  0  0  0  0  0  0  0  0  0
  -27.3370  -28.7550   20.5140 C   0  0  0  0  0  3  0  0  0  0  0  0
  -26.1600  -27.0710   19.2500 C   0  0  0  0  0  3  0  0  0  0  0  0
  -24.9900  -27.8640   19.2980 C   0  0  0  0  0  3  0  0  0  0  0  0
  -23.7120  -29.9410   20.0820 C   0  0  0  0  0  2  0  0  0  0  0  0
  -24.7590  -31.1670   22.0270 N   0  0  0  0  0  0  0  0  0  0  0  0
  -23.5980  -32.1670   23.7130 O   0  0  0  0  0  0  0  0  0  0  0  0
  -22.8870  -29.4940   22.4300 C   0  0  0  0  0  0  0  0  0  0  0  0
  -21.5660  -29.2690   22.3210 N   0  0  0  0  0  0  0  0  0  0  0  0
  -23.6000  -28.8720   23.2220 O   0  0  0  0  0  0  0  0  0  0  0  0
  -21.0450  -29.8190   21.6520 H   0  0  0  0  0  0  0  0  0  0  0  0
  -18.2510  -27.9060   22.8460 C   0  0  0  0  0  0  0  0  0  0  0  0
  -20.8010  -28.2730   23.0750 C   0  0  0  0  0  3  0  0  0  0  0  0
  -20.9540  -26.8660   22.4490 C   0  0  0  0  0  2  0  0  0  0  0  0
  -19.8470  -26.5290   21.4450 C   0  0  0  0  0  2  0  0  0  0  0  0
  -18.4730  -26.5900   22.1190 C   0  0  0  0  0  2  0  0  0  0  0  0
  -19.3430  -28.7020   23.2810 C   0  0  0  0  0  0  0  0  0  0  0  0
  -19.0810  -29.9310   23.9250 C   0  0  0  0  0  3  0  0  0  0  0  0
  -17.7580  -30.3640   24.1370 C   0  0  0  0  0  3  0  0  0  0  0  0
  -16.6810  -29.5650   23.7170 C   0  0  0  0  0  3  0  0  0  0  0  0
  -16.9290  -28.3370   23.0760 C   0  0  0  0  0  3  0  0  0  0  0  0
  -25.9480  -32.6090   23.7740 C   0  0  0  0  0  3  0  0  0  0  0  0
  -25.5890  -33.9860   24.1550 N   0  0  0  0  0  0  0  0  0  0  0  0
  -25.8650  -35.0770   23.4300 C   0  0  0  0  0  0  0  0  0  0  0  0
  -26.5160  -35.0340   22.3820 O   0  0  0  0  0  0  0  0  0  0  0  0
  -25.0030  -34.0880   24.9710 H   0  0  0  0  0  0  0  0  0  0  0  0
  -24.0580  -36.8120   23.1840 C   0  0  0  0  0  1  0  0  0  0  0  0
  -25.3380  -36.4310   23.9460 C   0  0  0  0  0  3  0  0  0  0  0  0
  -27.4580  -37.3760   24.7480 C   0  0  0  0  0  1  0  0  0  0  0  0
  -26.3240  -37.5280   23.8390 N   0  0  0  0  0  0  0  0  0  0  0  0
  -25.8860  -38.4250   24.0260 H   0  0  0  0  0  0  0  0  0  0  0  0
  -26.5100  -31.8240   25.0240 C   0  0  1  0  0  0  0  0  0  0  0  0
  -25.4410  -31.5210   26.1000 C   0  0  0  0  0  1  0  0  0  0  0  0
  -27.1330  -30.4760   24.5900 C   0  0  0  0  0  1  0  0  0  0  0  0
  -27.6450  -32.6390   25.6870 C   0  0  0  0  0  1  0  0  0  0  0  0
  1 48  1  0
  1  2  1  0
  1 45  1  0
  4  8  1  0
  4  3  1  0
  5  2  1  0
  5  3  2  0
  6  4  2  0
  7  6  1  0
  7  5  1  0
  9  8  1  0
 10 15  1  0
 11 12  1  0
 11 10  1  0
 13 12  1  0
 13 20  1  0
 13 14  1  0
 15  9  1  0
 15 14  1  0
 16  9  2  0
 17 18  2  0
 18 37  1  0
 19 18  1  0
 19 22  1  0
 20 17  1  0
 20 21  1  0
 21 19  2  0
 22 23  1  0
 23 24  2  0
 25 28  1  0
 25 24  1  0
 26 25  2  0
 27 26  1  0
 27 22  2  0
 28 29  1  0
 29 30  1  0
 30 31  2  0
 32 31  1  0
 32 36  1  0
 33 32  2  0
 34 29  2  0
 34 33  1  0
 35 34  1  0
 37 38  1  0
 38 41  1  0
 38 40  1  0
 39 37  2  0
 42 43  1  0
 42 17  1  0
 44 42  1  0
 47 45  1  0
 47 46  1  0
 48 49  1  0
 50 61  2  0
 51 49  1  0
 51 56  1  0
 52 60  1  0
 52 62  1  0
 53 59  1  0
 53 55  1  0
 54 60  1  0
 55 54  1  0
 56 55  2  0
 57 58  1  0
 57 51  2  0
 58 53  2  0
 59 52  1  0
 60 50  1  0
 62 64  2  0
 63 62  1  0
 65 63  1  0
 66 75  2  0
 66 71  1  0
 67 63  1  0
 67 71  1  0
 68 67  1  0
 69 70  1  0
 69 68  1  0
 70 66  1  0
 71 72  2  0
 72 73  1  0
 74 73  2  0
 75 74  1  0
 76 50  1  0
 76 77  1  0
 76 86  1  0
 77 80  1  0
 78 82  1  0
 78 77  1  0
 79 78  2  0
 82 81  1  0
 84 82  1  0
 84 85  1  0
 84 83  1  0
 86 89  1  1
 86 87  1  0
 88 86  1  0
M  ISO  4   8 100   9 100  48 101  49 101
M  END
>  <TORSDO>  (16) 
F 22

>  <SCORE>  (16) 
-14.332

>  <name>  (16) 
15

>  <ligand_id>  (16) 
15

>  <original_smiles>  (16) 
[H]c1c(C([H])([H])C(=O)N2C([H])([H])C([H])([H])C([H])([H])C([H])(n3nc(-c4c([H])c([H])c(Oc5c([H])c([H])c(F)c([H])c5F)c([H])c4[H])c(C(=O)N([H])[H])c3N([H])[H])C2([H])[H])noc1C([H])([H])C([H])(C([H])([H])Oc1c([H])c([H])c2c(c1[H])C([H])([H])N(C(=O)C([H])(N([H])C(=O)C([H])(N([H])C([H])([H])[H])C([H])([H])[H])C(C([H])([H])[H])(C([H])([H])[H])C([H])([H])[H])C([H])(C(=O)N([H])C1([H])c3c([H])c([H])c([H])c([H])c3C([H])([H])C([H])([H])C1([H])[H])C2([H])[H])C([H])([H])C([H])([H])C([H])([H])[H]

>  <smiles>  (16) 
[H]c1c(C([H])([H])C(=O)N2C([H])([H])C([H])([H])C([H])([H])C([H])(n3nc(-c4c([H])c([H])c(Oc5c([H])c([H])c(F)c([H])c5F)c([H])c4[H])c(C(=O)N([H])[H])c3N([H])[H])C2([H])[H])noc1C([H])([H])C([H])(C([H])([H])Oc1c([H])c([H])c2c(c1[H])C([H])([H])N(C(=O)C([H])(N([H])C(=O)C([H])(N([H])C([H])([H])[H])C([H])([H])[H])C(C([H])([H])[H])(C([H])([H])[H])C([H])([H])[H])C([H])(C(=O)N([H])C1([H])c3c([H])c([H])c([H])c([H])c3C([H])([H])C([H])([H])C1([H])[H])C2([H])[H])C([H])([H])C([H])([H])C([H])([H])[H]

$$$$
16:0:0
     RDKit          3D

 95103  0  0  1  0  0  0  0  0999 V2000
  -28.4820  -22.2650   19.8220 C   0  0  0  0  0  3  0  0  0  0  0  0
  -28.7670  -20.8840   19.9300 C   0  0  0  0  0  0  0  0  0  0  0  0
  -29.3740  -20.3890   21.1160 C   0  0  0  0  0  0  0  0  0  0  0  0
  -28.7920  -23.1290   20.8900 C   0  0  0  0  0  0  0  0  0  0  0  0
  -29.6380  -21.3380   22.1410 C   0  0  0  0  0  0  0  0  0  0  0  0
  -28.3910  -19.9650   18.7810 C   0  0  0  0  0  1  0  0  0  0  0  0
  -30.1860  -20.9520   23.5060 C   0  0  0  0  0  1  0  0  0  0  0  0
  -29.3620  -22.6580   22.0190 N   0  0  0  0  0  0  0  0  0  0  0  0
  -29.6470  -18.8720   21.3200 C   0  0  0  0  0  2  0  0  0  0  0  0
  -30.8360  -18.1870   20.5510 C   0  0  0  0  0  3  0  0  0  0  0  0
  -32.8780  -18.5930   19.0340 C   0  0  0  0  0  1  0  0  0  0  0  0
  -32.8850  -19.5750   21.3660 C   0  0  0  0  0  1  0  0  0  0  0  0
  -32.0070  -19.1500   20.1750 C   0  0  0  0  0  3  0  0  0  0  0  0
  -31.3570  -16.8900   21.2670 C   0  0  0  0  0  2  0  0  0  0  0  0
  -31.2710  -14.6060   20.2260 C   0  0  0  0  0  0  0  0  0  0  0  0
  -30.8790  -12.4270   19.1260 C   0  0  0  0  0  2  0  0  0  0  0  0
  -29.9340  -12.6040   17.9210 C   0  0  0  0  0  2  0  0  0  0  0  0
  -28.4610  -12.5220   18.3680 C   0  0  0  0  0  2  0  0  0  0  0  0
  -28.1590  -13.4250   19.5940 C   0  0  0  0  0  3  0  0  0  0  0  0
  -29.2120  -13.2220   20.7040 C   0  0  0  0  0  2  0  0  0  0  0  0
  -30.5410  -13.4620   20.1170 N   0  0  0  0  0  0  0  0  0  0  0  0
  -32.3760  -14.7380   19.6950 O   0  0  0  0  0  0  0  0  0  0  0  0
  -30.6930  -15.6250   20.8940 N   0  0  0  0  0  0  0  0  0  0  0  0
  -29.7690  -15.4550   21.2650 H   0  0  0  0  0  0  0  0  0  0  0  0
  -25.8060  -14.1450   20.3460 C   0  0  0  0  0  0  0  0  0  0  0  0
  -24.7050  -13.4220   20.7200 C   0  0  0  0  0  0  0  0  0  0  0  0
  -25.0950  -12.0500   20.6630 C   0  0  0  0  0  0  0  0  0  0  0  0
  -26.8010  -13.2150   20.0880 N   0  0  0  0  0  0  0  0  0  0  0  0
  -26.3770  -11.9490   20.3370 N   0  0  0  0  0  0  0  0  0  0  0  0
  -24.3080  -10.8240   20.8460 C   0  0  0  0  0  0  0  0  0  0  0  0
  -24.6880   -9.8340   21.7790 C   0  0  0  0  0  3  0  0  0  0  0  0
  -23.9040   -8.6730   21.9500 C   0  0  0  0  0  3  0  0  0  0  0  0
  -22.7260   -8.4920   21.1870 C   0  0  0  0  0  0  0  0  0  0  0  0
  -22.3650   -9.4710   20.2430 C   0  0  0  0  0  3  0  0  0  0  0  0
  -23.1490  -10.6240   20.0710 C   0  0  0  0  0  3  0  0  0  0  0  0
  -21.9170   -7.3850   21.2660 O   0  0  0  0  0  0  0  0  0  0  0  0
  -21.7900   -6.6690   22.4290 C   0  0  0  0  0  0  0  0  0  0  0  0
  -21.3570   -7.2710   23.6310 C   0  0  0  0  0  3  0  0  0  0  0  0
  -21.1730   -6.4840   24.7870 C   0  0  0  0  0  3  0  0  0  0  0  0
  -21.4120   -5.0980   24.7400 C   0  0  0  0  0  0  0  0  0  0  0  0
  -21.8380   -4.4960   23.5430 C   0  0  0  0  0  3  0  0  0  0  0  0
  -22.0230   -5.2800   22.3900 C   0  0  0  0  0  0  0  0  0  0  0  0
  -22.4130   -4.6910   21.2330 F   0  0  0  0  0  0  0  0  0  0  0  0
  -21.2280   -4.3400   25.8460 F   0  0  0  0  0  0  0  0  0  0  0  0
  -23.3380  -13.9670   21.0190 C   0  0  0  0  0  0  0  0  0  0  0  0
  -22.5940  -13.3050   21.8980 N   0  0  0  0  0  0  0  0  0  0  0  0
  -22.9410  -15.0150   20.5100 O   0  0  0  0  0  0  0  0  0  0  0  0
  -22.9280  -12.4560   22.3300 H   0  0  0  0  0  0  0  0  0  0  0  0
  -21.6770  -13.6510   22.1440 H   0  0  0  0  0  0  0  0  0  0  0  0
  -26.0410  -15.5070   20.1850 N   0  0  0  0  0  0  0  0  0  0  0  0
  -25.3140  -16.2010   20.3120 H   0  0  0  0  0  0  0  0  0  0  0  0
  -26.9110  -15.9020   19.8530 H   0  0  0  0  0  0  0  0  0  0  0  0
  -28.4410  -24.6280   20.9030 C   0  0  0  0  0  2  0  0  0  0  0  0
  -28.6330  -25.4100   19.5780 C   0  0  0  0  0  2  0  0  0  0  0  0
  -28.5430  -26.8380   19.7550 O   0  0  0  0  0  0  0  0  0  0  0  0
  -24.6020  -31.7490   23.0660 C   0  0  0  0  0  0  0  0  0  0  0  0
  -27.3170  -27.4810   19.7950 C   0  0  0  0  0  0  0  0  0  0  0  0
  -23.4030  -30.3600   21.4080 C   0  0  0  0  0  3  0  0  0  0  0  0
  -24.8700  -28.9080   19.9070 C   0  0  0  0  0  0  0  0  0  0  0  0
  -25.9090  -30.8050   21.1620 C   0  0  0  0  0  2  0  0  0  0  0  0
  -26.0240  -29.4530   20.4830 C   0  0  0  0  0  0  0  0  0  0  0  0
  -27.2460  -28.7480   20.4200 C   0  0  0  0  0  3  0  0  0  0  0  0
  -26.1410  -26.9450   19.2210 C   0  0  0  0  0  3  0  0  0  0  0  0
  -24.9240  -27.6560   19.2730 C   0  0  0  0  0  3  0  0  0  0  0  0
  -23.6010  -29.7260   20.0060 C   0  0  0  0  0  2  0  0  0  0  0  0
  -24.6580  -30.9850   21.9380 N   0  0  0  0  0  0  0  0  0  0  0  0
  -23.5250  -31.9710   23.6380 O   0  0  0  0  0  0  0  0  0  0  0  0
  -22.8030  -29.2920   22.3500 C   0  0  0  0  0  0  0  0  0  0  0  0
  -21.4850  -29.0630   22.2350 N   0  0  0  0  0  0  0  0  0  0  0  0
  -23.5220  -28.6730   23.1390 O   0  0  0  0  0  0  0  0  0  0  0  0
  -20.9650  -29.6200   21.5710 H   0  0  0  0  0  0  0  0  0  0  0  0
  -18.1710  -27.7060   22.7180 C   0  0  0  0  0  0  0  0  0  0  0  0
  -20.7150  -28.0730   22.9880 C   0  0  0  0  0  3  0  0  0  0  0  0
  -20.8800  -26.6600   22.3830 C   0  0  0  0  0  2  0  0  0  0  0  0
  -19.7880  -26.3090   21.3660 C   0  0  0  0  0  2  0  0  0  0  0  0
  -18.4040  -26.3790   22.0160 C   0  0  0  0  0  2  0  0  0  0  0  0
  -19.2560  -28.5090   23.1590 C   0  0  0  0  0  0  0  0  0  0  0  0
  -18.9830  -29.7520   23.7730 C   0  0  0  0  0  3  0  0  0  0  0  0
  -17.6580  -30.1910   23.9510 C   0  0  0  0  0  3  0  0  0  0  0  0
  -16.5870  -29.3860   23.5250 C   0  0  0  0  0  3  0  0  0  0  0  0
  -16.8440  -28.1460   22.9140 C   0  0  0  0  0  3  0  0  0  0  0  0
  -25.8810  -32.4000   23.6790 C   0  0  0  0  0  3  0  0  0  0  0  0
  -25.5360  -33.7740   24.0680 N   0  0  0  0  0  0  0  0  0  0  0  0
  -25.8250  -34.8640   23.3450 C   0  0  0  0  0  0  0  0  0  0  0  0
  -26.4830  -34.8200   22.3010 O   0  0  0  0  0  0  0  0  0  0  0  0
  -24.9510  -33.8800   24.8840 H   0  0  0  0  0  0  0  0  0  0  0  0
  -24.0370  -36.6130   23.0830 C   0  0  0  0  0  1  0  0  0  0  0  0
  -25.3030  -36.2180   23.8610 C   0  0  0  0  0  3  0  0  0  0  0  0
  -27.4210  -37.1330   24.6950 C   0  0  0  0  0  1  0  0  0  0  0  0
  -26.3000  -37.3060   23.7760 N   0  0  0  0  0  0  0  0  0  0  0  0
  -25.8680  -38.2060   23.9680 H   0  0  0  0  0  0  0  0  0  0  0  0
  -26.4570  -31.5980   24.9100 C   0  0  1  0  0  0  0  0  0  0  0  0
  -25.4030  -31.2850   25.9970 C   0  0  0  0  0  1  0  0  0  0  0  0
  -27.0710  -30.2570   24.4450 C   0  0  0  0  0  1  0  0  0  0  0  0
  -27.6030  -32.4030   25.5680 C   0  0  0  0  0  1  0  0  0  0  0  0
  1  2  2  0
  1  4  1  0
  2  3  1  0
  3  9  1  0
  3  5  2  0
  4 53  1  0
  4  8  2  0
  5  7  1  0
  6  2  1  0
  8  5  1  0
 10 14  1  0
 10  9  1  0
 11 13  1  0
 13 10  1  0
 13 12  1  0
 15 23  1  0
 16 21  1  0
 17 18  1  0
 17 16  1  0
 19 18  1  0
 19 28  1  0
 19 20  1  0
 21 15  1  0
 21 20  1  0
 22 15  2  0
 23 24  1  0
 23 14  1  0
 25 26  2  0
 26 45  1  0
 27 26  1  0
 27 30  1  0
 28 29  1  0
 28 25  1  0
 29 27  2  0
 30 31  1  0
 31 32  2  0
 33 36  1  0
 33 32  1  0
 34 33  2  0
 35 34  1  0
 35 30  2  0
 36 37  1  0
 37 38  1  0
 38 39  2  0
 40 39  1  0
 40 44  1  0
 41 40  2  0
 42 37  2  0
 42 41  1  0
 43 42  1  0
 45 46  1  0
 46 49  1  0
 46 48  1  0
 47 45  2  0
 50 51  1  0
 50 25  1  0
 52 50  1  0
 54 55  1  0
 54 53  1  0
 55 57  1  0
 56 67  2  0
 57 62  1  0
 58 66  1  0
 58 68  1  0
 59 65  1  0
 59 61  1  0
 60 66  1  0
 61 60  1  0
 62 61  2  0
 63 64  1  0
 63 57  2  0
 64 59  2  0
 65 58  1  0
 66 56  1  0
 68 70  2  0
 69 68  1  0
 71 69  1  0
 72 81  2  0
 72 77  1  0
 73 69  1  0
 73 77  1  0
 74 73  1  0
 75 76  1  0
 75 74  1  0
 76 72  1  0
 77 78  2  0
 78 79  1  0
 80 79  2  0
 81 80  1  0
 82 56  1  0
 82 83  1  0
 82 92  1  0
 83 86  1  0
 84 88  1  0
 84 83  1  0
 85 84  2  0
 88 87  1  0
 90 88  1  0
 90 91  1  0
 90 89  1  0
 92 95  1  1
 92 93  1  0
 94 92  1  0
M  ISO  4  15 100  23 100  54 101  55 101
M  END
>  <TORSDO>  (17) 
F 22

>  <SCORE>  (17) 
-12.641

>  <name>  (17) 
16

>  <ligand_id>  (17) 
16

>  <original_smiles>  (17) 
[H]c1c([H])c([H])c2c(c1[H])C([H])([H])C([H])([H])C([H])([H])C2([H])N([H])C(=O)C1([H])N(C(=O)C([H])(N([H])C(=O)C([H])(N([H])C([H])([H])[H])C([H])([H])[H])C(C([H])([H])[H])(C([H])([H])[H])C([H])([H])[H])C([H])([H])c2c([H])c(OC([H])([H])C([H])([H])c3nc(C([H])([H])[H])c(C([H])([H])C([H])(C([H])([H])N([H])C(=O)N4C([H])([H])C([H])([H])C([H])([H])C([H])(n5nc(-c6c([H])c([H])c(Oc7c([H])c([H])c(F)c([H])c7F)c([H])c6[H])c(C(=O)N([H])[H])c5N([H])[H])C4([H])[H])C([H])(C([H])([H])[H])C([H])([H])[H])c(C([H])([H])[H])c3[H])c([H])c([H])c2C1([H])[H]

>  <smiles>  (17) 
[H]c1c([H])c([H])c2c(c1[H])C([H])([H])C([H])([H])C([H])([H])C2([H])N([H])C(=O)C1([H])N(C(=O)C([H])(N([H])C(=O)C([H])(N([H])C([H])([H])[H])C([H])([H])[H])C(C([H])([H])[H])(C([H])([H])[H])C([H])([H])[H])C([H])([H])c2c([H])c(OC([H])([H])C([H])([H])c3nc(C([H])([H])[H])c(C([H])([H])C([H])(C([H])([H])N([H])C(=O)N4C([H])([H])C([H])([H])C([H])([H])C([H])(n5nc(-c6c([H])c([H])c(Oc7c([H])c([H])c(F)c([H])c7F)c([H])c6[H])c(C(=O)N([H])[H])c5N([H])[H])C4([H])[H])C([H])(C([H])([H])[H])C([H])([H])[H])c(C([H])([H])[H])c3[H])c([H])c([H])c2C1([H])[H]

$$$$
17:0:0
     RDKit          3D

 98106  0  0  1  0  0  0  0  0999 V2000
  -32.1130  -21.0760   19.9800 C   0  0  0  0  0  3  0  0  0  0  0  0
  -31.8180  -21.7890   18.7990 C   0  0  0  0  0  0  0  0  0  0  0  0
  -31.0450  -20.7450   20.8430 C   0  0  0  0  0  0  0  0  0  0  0  0
  -30.4570  -22.1220   18.5690 C   0  0  0  0  0  0  0  0  0  0  0  0
  -32.9470  -22.1210   17.8330 C   0  0  0  0  0  1  0  0  0  0  0  0
  -29.7720  -21.1230   20.5720 N   0  0  0  0  0  0  0  0  0  0  0  0
  -29.4820  -21.7860   19.4480 N   0  0  0  0  0  0  0  0  0  0  0  0
  -32.5400  -20.2730   22.8510 C   0  0  0  0  0  1  0  0  0  0  0  0
  -31.2470  -19.9040   22.1080 C   0  0  0  0  0  3  0  0  0  0  0  0
  -31.1790  -18.3820   21.8170 C   0  0  0  0  0  2  0  0  0  0  0  0
  -29.7610  -17.8710   21.4890 C   0  0  0  0  0  2  0  0  0  0  0  0
  -30.2930  -17.1320   19.0670 C   0  0  0  0  0  1  0  0  0  0  0  0
  -29.6570  -16.7620   20.4240 C   0  0  0  0  0  3  0  0  0  0  0  0
  -30.7110  -14.4440   20.4210 C   0  0  0  0  0  0  0  0  0  0  0  0
  -30.4150  -12.3080   19.2400 C   0  0  0  0  0  2  0  0  0  0  0  0
  -29.4720  -12.5800   18.0480 C   0  0  0  0  0  2  0  0  0  0  0  0
  -27.9920  -12.4640   18.4720 C   0  0  0  0  0  2  0  0  0  0  0  0
  -27.6770  -13.2560   19.7700 C   0  0  0  0  0  3  0  0  0  0  0  0
  -28.7300  -12.9540   20.8640 C   0  0  0  0  0  2  0  0  0  0  0  0
  -30.0670  -13.2520   20.3110 N   0  0  0  0  0  0  0  0  0  0  0  0
  -31.8170  -14.6690   19.9170 O   0  0  0  0  0  0  0  0  0  0  0  0
  -29.9360  -15.4110   20.9400 N   0  0  0  0  0  0  0  0  0  0  0  0
  -29.1600  -15.0230   21.4560 H   0  0  0  0  0  0  0  0  0  0  0  0
  -25.2800  -13.8920   20.4650 C   0  0  0  0  0  0  0  0  0  0  0  0
  -24.2060  -13.1320   20.8430 C   0  0  0  0  0  0  0  0  0  0  0  0
  -24.6570  -11.7770   20.8270 C   0  0  0  0  0  0  0  0  0  0  0  0
  -26.3190  -13.0000   20.2440 N   0  0  0  0  0  0  0  0  0  0  0  0
  -25.9460  -11.7230   20.5160 N   0  0  0  0  0  0  0  0  0  0  0  0
  -23.9220  -10.5230   21.0310 C   0  0  0  0  0  0  0  0  0  0  0  0
  -24.3510   -9.5590   21.9710 C   0  0  0  0  0  3  0  0  0  0  0  0
  -23.6190   -8.3680   22.1610 C   0  0  0  0  0  3  0  0  0  0  0  0
  -22.4420   -8.1310   21.4130 C   0  0  0  0  0  0  0  0  0  0  0  0
  -22.0290   -9.0840   20.4650 C   0  0  0  0  0  3  0  0  0  0  0  0
  -22.7630  -10.2670   20.2720 C   0  0  0  0  0  3  0  0  0  0  0  0
  -21.6800   -6.9910   21.5130 O   0  0  0  0  0  0  0  0  0  0  0  0
  -21.6310   -6.2570   22.6720 C   0  0  0  0  0  0  0  0  0  0  0  0
  -21.2090   -6.8220   23.8950 C   0  0  0  0  0  3  0  0  0  0  0  0
  -21.1090   -6.0140   25.0460 C   0  0  0  0  0  3  0  0  0  0  0  0
  -21.4200   -4.6430   24.9740 C   0  0  0  0  0  0  0  0  0  0  0  0
  -21.8370   -4.0780   23.7560 C   0  0  0  0  0  3  0  0  0  0  0  0
  -21.9390   -4.8830   22.6080 C   0  0  0  0  0  0  0  0  0  0  0  0
  -22.3210   -4.3290   21.4320 F   0  0  0  0  0  0  0  0  0  0  0  0
  -21.3170   -3.8660   26.0760 F   0  0  0  0  0  0  0  0  0  0  0  0
  -22.8130  -13.6230   21.1130 C   0  0  0  0  0  0  0  0  0  0  0  0
  -22.0800  -12.9420   21.9850 N   0  0  0  0  0  0  0  0  0  0  0  0
  -22.3840  -14.6470   20.5830 O   0  0  0  0  0  0  0  0  0  0  0  0
  -22.4370  -12.1130   22.4370 H   0  0  0  0  0  0  0  0  0  0  0  0
  -21.1460  -13.2580   22.2050 H   0  0  0  0  0  0  0  0  0  0  0  0
  -25.4580  -15.2590   20.2700 N   0  0  0  0  0  0  0  0  0  0  0  0
  -24.6970  -15.9220   20.3630 H   0  0  0  0  0  0  0  0  0  0  0  0
  -26.3070  -15.6830   19.9190 H   0  0  0  0  0  0  0  0  0  0  0  0
  -29.9560  -22.8590   17.3290 C   0  0  0  0  0  2  0  0  0  0  0  0
  -29.2940  -24.1530   17.6220 N   0  0  0  0  0  4  0  0  0  0  0  0
  -30.2480  -24.4210   17.8050 H   0  0  0  0  0  0  0  0  0  0  0  0
  -28.7240  -23.4380   18.0550 H   0  0  0  0  0  0  0  0  0  0  0  0
  -29.0060  -24.7710   18.9400 C   0  0  0  0  0  2  0  0  0  0  0  0
  -28.8450  -26.2930   18.8320 C   0  0  0  0  0  2  0  0  0  0  0  0
  -28.4420  -26.8220   20.0970 O   0  0  0  0  0  0  0  0  0  0  0  0
  -24.5600  -31.8880   23.2310 C   0  0  0  0  0  0  0  0  0  0  0  0
  -27.2410  -27.4890   20.1310 C   0  0  0  0  0  0  0  0  0  0  0  0
  -23.3640  -30.4870   21.5770 C   0  0  0  0  0  3  0  0  0  0  0  0
  -24.8270  -28.9490   20.1660 C   0  0  0  0  0  0  0  0  0  0  0  0
  -25.8880  -30.8510   21.3970 C   0  0  0  0  0  2  0  0  0  0  0  0
  -25.9770  -29.4810   20.7630 C   0  0  0  0  0  0  0  0  0  0  0  0
  -27.1820  -28.7500   20.7590 C   0  0  0  0  0  3  0  0  0  0  0  0
  -26.0670  -26.9480   19.5580 C   0  0  0  0  0  3  0  0  0  0  0  0
  -24.8630  -27.6750   19.5700 C   0  0  0  0  0  3  0  0  0  0  0  0
  -23.5830  -29.8060   20.1990 C   0  0  0  0  0  2  0  0  0  0  0  0
  -24.6210  -31.0910   22.1260 N   0  0  0  0  0  0  0  0  0  0  0  0
  -23.4760  -32.1560   23.7660 O   0  0  0  0  0  0  0  0  0  0  0  0
  -22.7120  -29.4620   22.5320 C   0  0  0  0  0  0  0  0  0  0  0  0
  -21.3860  -29.2800   22.4000 N   0  0  0  0  0  0  0  0  0  0  0  0
  -23.3940  -28.8350   23.3470 O   0  0  0  0  0  0  0  0  0  0  0  0
  -20.8960  -29.8460   21.7230 H   0  0  0  0  0  0  0  0  0  0  0  0
  -18.0090  -28.0950   22.8860 C   0  0  0  0  0  0  0  0  0  0  0  0
  -20.5670  -28.3390   23.1650 C   0  0  0  0  0  3  0  0  0  0  0  0
  -20.6620  -26.9110   22.5800 C   0  0  0  0  0  2  0  0  0  0  0  0
  -19.5610  -26.5990   21.5610 C   0  0  0  0  0  2  0  0  0  0  0  0
  -18.1790  -26.7490   22.2050 C   0  0  0  0  0  2  0  0  0  0  0  0
  -19.1310  -28.8500   23.3230 C   0  0  0  0  0  0  0  0  0  0  0  0
  -18.9180  -30.1130   23.9170 C   0  0  0  0  0  3  0  0  0  0  0  0
  -17.6150  -30.6190   24.0850 C   0  0  0  0  0  3  0  0  0  0  0  0
  -16.5070  -29.8620   23.6630 C   0  0  0  0  0  3  0  0  0  0  0  0
  -16.7070  -28.6030   23.0690 C   0  0  0  0  0  3  0  0  0  0  0  0
  -25.8440  -32.5180   23.8600 C   0  0  0  0  0  3  0  0  0  0  0  0
  -25.5390  -33.9210   24.1720 N   0  0  0  0  0  0  0  0  0  0  0  0
  -25.8890  -34.9630   23.4050 C   0  0  0  0  0  0  0  0  0  0  0  0
  -26.5730  -34.8450   22.3850 O   0  0  0  0  0  0  0  0  0  0  0  0
  -24.9390  -34.0880   24.9660 H   0  0  0  0  0  0  0  0  0  0  0  0
  -24.1820  -36.7610   23.0010 C   0  0  0  0  0  1  0  0  0  0  0  0
  -25.4020  -36.3560   23.8420 C   0  0  0  0  0  3  0  0  0  0  0  0
  -27.5230  -37.2300   24.7140 C   0  0  0  0  0  1  0  0  0  0  0  0
  -26.4440  -37.4020   23.7460 N   0  0  0  0  0  0  0  0  0  0  0  0
  -26.0390  -38.3250   23.8780 H   0  0  0  0  0  0  0  0  0  0  0  0
  -26.3480  -31.7550   25.1460 C   0  0  1  0  0  0  0  0  0  0  0  0
  -25.2470  -31.5310   26.2080 C   0  0  0  0  0  1  0  0  0  0  0  0
  -26.9270  -30.3730   24.7640 C   0  0  0  0  0  1  0  0  0  0  0  0
  -27.4960  -32.5500   25.8120 C   0  0  0  0  0  1  0  0  0  0  0  0
  1  3  1  0
  2  1  2  0
  3  9  1  0
  4  2  1  0
  4  7  2  0
  5  2  1  0
  6  3  2  0
  7  6  1  0
  9  8  1  0
 10  9  1  0
 11 10  1  0
 13 12  1  0
 13 22  1  0
 13 11  1  0
 14 22  1  0
 15 20  1  0
 16 17  1  0
 16 15  1  0
 18 17  1  0
 18 27  1  0
 18 19  1  0
 20 14  1  0
 20 19  1  0
 21 14  2  0
 22 23  1  0
 24 25  2  0
 25 44  1  0
 26 25  1  0
 26 29  1  0
 27 24  1  0
 27 28  1  0
 28 26  2  0
 29 30  1  0
 30 31  2  0
 32 35  1  0
 32 31  1  0
 33 32  2  0
 34 33  1  0
 34 29  2  0
 35 36  1  0
 36 37  1  0
 37 38  2  0
 39 38  1  0
 39 43  1  0
 40 39  2  0
 41 36  2  0
 41 40  1  0
 42 41  1  0
 44 45  1  0
 45 48  1  0
 45 47  1  0
 46 44  2  0
 49 50  1  0
 49 24  1  0
 51 49  1  0
 52 53  1  0
 52  4  1  0
 53 54  1  0
 53 55  1  0
 53 56  1  0
 57 56  1  0
 57 58  1  0
 58 60  1  0
 59 70  2  0
 60 65  1  0
 61 69  1  0
 61 71  1  0
 62 68  1  0
 62 64  1  0
 63 69  1  0
 64 63  1  0
 65 64  2  0
 66 67  1  0
 66 60  2  0
 67 62  2  0
 68 61  1  0
 69 59  1  0
 71 73  2  0
 72 71  1  0
 74 72  1  0
 75 84  2  0
 75 80  1  0
 76 72  1  0
 76 80  1  0
 77 76  1  0
 78 79  1  0
 78 77  1  0
 79 75  1  0
 80 81  2  0
 81 82  1  0
 83 82  2  0
 84 83  1  0
 85 59  1  0
 85 86  1  0
 85 95  1  0
 86 89  1  0
 87 91  1  0
 87 86  1  0
 88 87  2  0
 91 90  1  0
 93 91  1  0
 93 94  1  0
 93 92  1  0
 95 98  1  1
 95 96  1  0
 97 95  1  0
M  ISO  4  14 100  22 100  57 101  58 101
M  END
>  <TORSDO>  (18) 
F 24

>  <SCORE>  (18) 
-12.711

>  <name>  (18) 
17

>  <ligand_id>  (18) 
17

>  <original_smiles>  (18) 
[H]c1c([H])c([H])c2c(c1[H])C([H])([H])C([H])([H])C([H])([H])C2([H])N([H])C(=O)C1([H])N(C(=O)C([H])(N([H])C(=O)C([H])(N([H])C([H])([H])[H])C([H])([H])[H])C(C([H])([H])[H])(C([H])([H])[H])C([H])([H])[H])C([H])([H])c2c([H])c(OC([H])([H])C([H])([H])[N+]([H])([H])C([H])([H])c3nnc(C([H])(C([H])([H])[H])C([H])([H])C([H])([H])C([H])(N([H])C(=O)N4C([H])([H])C([H])([H])C([H])([H])C([H])(n5nc(-c6c([H])c([H])c(Oc7c([H])c([H])c(F)c([H])c7F)c([H])c6[H])c(C(=O)N([H])[H])c5N([H])[H])C4([H])[H])C([H])([H])[H])c([H])c3C([H])([H])[H])c([H])c([H])c2C1([H])[H]

>  <smiles>  (18) 
[H]c1c([H])c([H])c2c(c1[H])C([H])([H])C([H])([H])C([H])([H])C2([H])N([H])C(=O)C1([H])N(C(=O)C([H])(N([H])C(=O)C([H])(N([H])C([H])([H])[H])C([H])([H])[H])C(C([H])([H])[H])(C([H])([H])[H])C([H])([H])[H])C([H])([H])c2c([H])c(OC([H])([H])C([H])([H])[N+]([H])([H])C([H])([H])c3nnc(C([H])(C([H])([H])[H])C([H])([H])C([H])([H])C([H])(N([H])C(=O)N4C([H])([H])C([H])([H])C([H])([H])C([H])(n5nc(-c6c([H])c([H])c(Oc7c([H])c([H])c(F)c([H])c7F)c([H])c6[H])c(C(=O)N([H])[H])c5N([H])[H])C4([H])[H])C([H])([H])[H])c([H])c3C([H])([H])[H])c([H])c([H])c2C1([H])[H]

$$$$
18:0:0
     RDKit          3D

 92100  0  0  1  0  0  0  0  0999 V2000
  -29.7790  -21.7690   19.2030 C   0  0  0  0  0  3  0  0  0  0  0  0
  -29.1040  -23.7670   21.0450 C   0  0  0  0  0  3  0  0  0  0  0  0
  -29.5100  -23.0990   18.7710 C   0  0  0  0  0  0  0  0  0  0  0  0
  -29.4250  -22.4390   21.4840 C   0  0  0  0  0  0  0  0  0  0  0  0
  -29.7520  -21.3920   20.5660 C   0  0  0  0  0  0  0  0  0  0  0  0
  -29.1450  -24.1380   19.6780 C   0  0  0  0  0  0  0  0  0  0  0  0
  -29.6330  -23.3890   17.2830 C   0  0  0  0  0  1  0  0  0  0  0  0
  -29.3810  -22.1550   22.9750 C   0  0  0  0  0  1  0  0  0  0  0  0
  -30.0790  -19.9230   21.0500 C   0  0  0  0  0  3  0  0  0  0  0  0
  -30.0670  -18.7100   20.0330 C   0  0  0  0  0  3  0  0  0  0  0  0
  -30.1930  -16.0580   20.2290 C   0  0  0  0  0  3  0  0  0  0  0  0
  -30.6910  -17.3250   20.4530 C   0  0  0  0  0  0  0  0  0  0  0  0
  -30.9520  -14.7760   20.3400 C   0  0  0  0  0  0  0  0  0  0  0  0
  -30.6500  -12.5400   19.3190 C   0  0  0  0  0  2  0  0  0  0  0  0
  -29.7480  -12.7660   18.0920 C   0  0  0  0  0  2  0  0  0  0  0  0
  -28.2560  -12.6350   18.4600 C   0  0  0  0  0  2  0  0  0  0  0  0
  -27.8820  -13.4510   19.7260 C   0  0  0  0  0  3  0  0  0  0  0  0
  -28.9300  -13.3030   20.8490 C   0  0  0  0  0  2  0  0  0  0  0  0
  -30.2650  -13.5860   20.2920 N   0  0  0  0  0  0  0  0  0  0  0  0
  -32.1700  -14.7920   20.1420 O   0  0  0  0  0  0  0  0  0  0  0  0
  -25.4850  -14.0610   20.4210 C   0  0  0  0  0  0  0  0  0  0  0  0
  -24.4050  -13.2890   20.7630 C   0  0  0  0  0  0  0  0  0  0  0  0
  -24.8640  -11.9370   20.7340 C   0  0  0  0  0  0  0  0  0  0  0  0
  -26.5290  -13.1730   20.1990 N   0  0  0  0  0  0  0  0  0  0  0  0
  -26.1590  -11.8920   20.4460 N   0  0  0  0  0  0  0  0  0  0  0  0
  -24.1290  -10.6770   20.9050 C   0  0  0  0  0  0  0  0  0  0  0  0
  -24.5180   -9.7190   21.8670 C   0  0  0  0  0  3  0  0  0  0  0  0
  -23.7830   -8.5250   22.0230 C   0  0  0  0  0  3  0  0  0  0  0  0
  -22.6470   -8.2810   21.2180 C   0  0  0  0  0  0  0  0  0  0  0  0
  -22.2710   -9.2290   20.2520 C   0  0  0  0  0  3  0  0  0  0  0  0
  -23.0070  -10.4160   20.0920 C   0  0  0  0  0  3  0  0  0  0  0  0
  -21.8870   -7.1380   21.2870 O   0  0  0  0  0  0  0  0  0  0  0  0
  -21.7720   -6.4170   22.4480 C   0  0  0  0  0  0  0  0  0  0  0  0
  -21.2410   -6.9830   23.6270 C   0  0  0  0  0  3  0  0  0  0  0  0
  -21.0760   -6.1860   24.7770 C   0  0  0  0  0  3  0  0  0  0  0  0
  -21.4300   -4.8240   24.7480 C   0  0  0  0  0  0  0  0  0  0  0  0
  -21.9540   -4.2570   23.5720 C   0  0  0  0  0  3  0  0  0  0  0  0
  -22.1200   -5.0520   22.4250 C   0  0  0  0  0  0  0  0  0  0  0  0
  -22.6050   -4.4950   21.2880 F   0  0  0  0  0  0  0  0  0  0  0  0
  -21.2630   -4.0550   25.8500 F   0  0  0  0  0  0  0  0  0  0  0  0
  -23.0060  -13.7730   21.0050 C   0  0  0  0  0  0  0  0  0  0  0  0
  -22.2530  -13.0820   21.8550 N   0  0  0  0  0  0  0  0  0  0  0  0
  -22.5820  -14.7980   20.4740 O   0  0  0  0  0  0  0  0  0  0  0  0
  -22.5990  -12.2490   22.3070 H   0  0  0  0  0  0  0  0  0  0  0  0
  -21.3130  -13.3900   22.0600 H   0  0  0  0  0  0  0  0  0  0  0  0
  -25.6500  -15.4310   20.2590 N   0  0  0  0  0  0  0  0  0  0  0  0
  -24.8840  -16.0840   20.3800 H   0  0  0  0  0  0  0  0  0  0  0  0
  -26.5160  -15.8750   19.9740 H   0  0  0  0  0  0  0  0  0  0  0  0
  -31.8870  -17.5500   21.0280 O   0  0  0  0  0  0  0  0  0  0  0  0
  -32.1190  -18.4650   20.9190 H   0  0  0  0  0  0  0  0  0  0  0  0
  -28.7860  -25.5720   19.1280 C   0  0  0  0  0  2  0  0  0  0  0  0
  -28.5300  -26.6890   20.0350 O   0  0  0  0  0  0  0  0  0  0  0  0
  -24.6170  -31.8000   23.1840 C   0  0  0  0  0  0  0  0  0  0  0  0
  -27.3580  -27.4460   19.9730 C   0  0  0  0  0  0  0  0  0  0  0  0
  -23.4440  -30.4190   21.5000 C   0  0  0  0  0  3  0  0  0  0  0  0
  -24.9330  -28.9570   20.0220 C   0  0  0  0  0  0  0  0  0  0  0  0
  -25.9650  -30.8280   21.3110 C   0  0  0  0  0  2  0  0  0  0  0  0
  -26.0840  -29.4700   20.6340 C   0  0  0  0  0  0  0  0  0  0  0  0
  -27.2930  -28.7210   20.6090 C   0  0  0  0  0  3  0  0  0  0  0  0
  -26.1780  -26.9640   19.3600 C   0  0  0  0  0  3  0  0  0  0  0  0
  -24.9820  -27.7100   19.3750 C   0  0  0  0  0  3  0  0  0  0  0  0
  -23.6650  -29.7830   20.1010 C   0  0  0  0  0  2  0  0  0  0  0  0
  -24.6950  -31.0320   22.0580 N   0  0  0  0  0  0  0  0  0  0  0  0
  -23.5300  -32.0320   23.7300 O   0  0  0  0  0  0  0  0  0  0  0  0
  -22.8140  -29.3620   22.4360 C   0  0  0  0  0  0  0  0  0  0  0  0
  -21.4980  -29.1290   22.2850 N   0  0  0  0  0  0  0  0  0  0  0  0
  -23.5080  -28.7540   23.2550 O   0  0  0  0  0  0  0  0  0  0  0  0
  -20.9960  -29.6740   21.5970 H   0  0  0  0  0  0  0  0  0  0  0  0
  -18.1860  -27.7370   22.6780 C   0  0  0  0  0  0  0  0  0  0  0  0
  -20.7170  -28.1360   23.0250 C   0  0  0  0  0  3  0  0  0  0  0  0
  -20.9200  -26.7200   22.4390 C   0  0  0  0  0  2  0  0  0  0  0  0
  -19.8640  -26.3430   21.3950 C   0  0  0  0  0  2  0  0  0  0  0  0
  -18.4590  -26.4050   22.0020 C   0  0  0  0  0  2  0  0  0  0  0  0
  -19.2470  -28.5550   23.1490 C   0  0  0  0  0  0  0  0  0  0  0  0
  -18.9420  -29.7970   23.7460 C   0  0  0  0  0  3  0  0  0  0  0  0
  -17.6060  -30.2230   23.8830 C   0  0  0  0  0  3  0  0  0  0  0  0
  -16.5600  -29.4020   23.4280 C   0  0  0  0  0  3  0  0  0  0  0  0
  -16.8510  -28.1590   22.8330 C   0  0  0  0  0  3  0  0  0  0  0  0
  -25.8890  -32.4470   23.8190 C   0  0  0  0  0  3  0  0  0  0  0  0
  -25.5530  -33.8380   24.1620 N   0  0  0  0  0  0  0  0  0  0  0  0
  -25.8640  -34.9020   23.4140 C   0  0  0  0  0  0  0  0  0  0  0  0
  -26.5350  -34.8230   22.3820 O   0  0  0  0  0  0  0  0  0  0  0  0
  -24.9570  -33.9710   24.9650 H   0  0  0  0  0  0  0  0  0  0  0  0
  -24.1070  -36.6710   23.0770 C   0  0  0  0  0  1  0  0  0  0  0  0
  -25.3530  -36.2770   23.8850 C   0  0  0  0  0  3  0  0  0  0  0  0
  -27.4650  -37.1970   24.7380 C   0  0  0  0  0  1  0  0  0  0  0  0
  -26.3680  -37.3470   23.7870 N   0  0  0  0  0  0  0  0  0  0  0  0
  -25.9440  -38.2600   23.9310 H   0  0  0  0  0  0  0  0  0  0  0  0
  -26.4090  -31.6710   25.0910 C   0  0  1  0  0  0  0  0  0  0  0  0
  -25.3090  -31.4080   26.1460 C   0  0  0  0  0  1  0  0  0  0  0  0
  -27.0160  -30.3050   24.6900 C   0  0  0  0  0  1  0  0  0  0  0  0
  -27.5410  -32.4750   25.7730 C   0  0  0  0  0  1  0  0  0  0  0  0
  1  5  1  0
  2  4  1  0
  3  1  2  0
  3  6  1  0
  4  8  1  0
  5  9  1  0
  5  4  2  0
  6  2  2  0
  7  3  1  0
 10 12  1  0
 10  9  2  0
 11 13  1  0
 11 12  2  0
 12 49  1  0
 14 19  1  0
 15 16  1  0
 15 14  1  0
 17 16  1  0
 17 24  1  0
 17 18  1  0
 19 13  1  0
 19 18  1  0
 20 13  2  0
 21 22  2  0
 22 41  1  0
 23 22  1  0
 23 26  1  0
 24 21  1  0
 24 25  1  0
 25 23  2  0
 26 27  1  0
 27 28  2  0
 29 32  1  0
 29 28  1  0
 30 29  2  0
 31 30  1  0
 31 26  2  0
 32 33  1  0
 33 34  1  0
 34 35  2  0
 36 35  1  0
 36 40  1  0
 37 36  2  0
 38 33  2  0
 38 37  1  0
 39 38  1  0
 41 42  1  0
 42 45  1  0
 42 44  1  0
 43 41  2  0
 46 47  1  0
 46 21  1  0
 48 46  1  0
 50 49  1  0
 51  6  1  0
 51 52  1  0
 53 64  2  0
 54 52  1  0
 54 59  1  0
 55 63  1  0
 55 65  1  0
 56 62  1  0
 56 58  1  0
 57 63  1  0
 58 57  1  0
 59 58  2  0
 60 61  1  0
 60 54  2  0
 61 56  2  0
 62 55  1  0
 63 53  1  0
 65 67  2  0
 66 65  1  0
 68 66  1  0
 69 78  2  0
 69 74  1  0
 70 66  1  0
 70 74  1  0
 71 70  1  0
 72 73  1  0
 72 71  1  0
 73 69  1  0
 74 75  2  0
 75 76  1  0
 77 76  2  0
 78 77  1  0
 79 53  1  0
 79 80  1  0
 79 89  1  0
 80 83  1  0
 81 85  1  0
 81 80  1  0
 82 81  2  0
 85 84  1  0
 87 85  1  0
 87 88  1  0
 87 86  1  0
 89 92  1  1
 89 90  1  0
 91 89  1  0
M  ISO  4  11 100  13 100  51 101  52 101
M  END
>  <TORSDO>  (19) 
F 21

>  <SCORE>  (19) 
-13.485

>  <name>  (19) 
18

>  <ligand_id>  (19) 
18

>  <original_smiles>  (19) 
[H]OC(=C([H])C(=O)N1C([H])([H])C([H])([H])C([H])([H])C([H])(n2nc(-c3c([H])c([H])c(Oc4c([H])c([H])c(F)c([H])c4F)c([H])c3[H])c(C(=O)N([H])[H])c2N([H])[H])C1([H])[H])C([H])([H])C([H])([H])c1c([H])c(C([H])([H])[H])c(C([H])([H])Oc2c([H])c([H])c3c(c2[H])C([H])([H])N(C(=O)C([H])(N([H])C(=O)C([H])(N([H])C([H])([H])[H])C([H])([H])[H])C(C([H])([H])[H])(C([H])([H])[H])C([H])([H])[H])C([H])(C(=O)N([H])C2([H])c4c([H])c([H])c([H])c([H])c4C([H])([H])C([H])([H])C2([H])[H])C3([H])[H])c([H])c1C([H])([H])[H]

>  <smiles>  (19) 
[H]OC(=C([H])C(=O)N1C([H])([H])C([H])([H])C([H])([H])C([H])(n2nc(-c3c([H])c([H])c(Oc4c([H])c([H])c(F)c([H])c4F)c([H])c3[H])c(C(=O)N([H])[H])c2N([H])[H])C1([H])[H])C([H])([H])C([H])([H])c1c([H])c(C([H])([H])[H])c(C([H])([H])Oc2c([H])c([H])c3c(c2[H])C([H])([H])N(C(=O)C([H])(N([H])C(=O)C([H])(N([H])C([H])([H])[H])C([H])([H])[H])C(C([H])([H])[H])(C([H])([H])[H])C([H])([H])[H])C([H])(C(=O)N([H])C2([H])c4c([H])c([H])c([H])c([H])c4C([H])([H])C([H])([H])C2([H])[H])C3([H])[H])c([H])c1C([H])([H])[H]

$$$$
19:0:0
     RDKit          3D

 93101  0  0  1  0  0  0  0  0999 V2000
  -29.3960  -21.6370   20.6710 C   0  0  0  0  0  3  0  0  0  0  0  0
  -28.6710  -20.4870   20.8700 C   0  0  0  0  0  0  0  0  0  0  0  0
  -27.2450  -22.1790   20.5270 C   0  0  0  0  0  3  0  0  0  0  0  0
  -25.9630  -22.9400   20.4090 C   0  0  0  0  0  1  0  0  0  0  0  0
  -28.4980  -22.6620   20.5010 N   0  0  0  0  0  0  0  0  0  0  0  0
  -27.3570  -20.8630   20.7430 N   0  0  0  0  0  0  0  0  0  0  0  0
  -26.5630  -20.2390   20.8430 H   0  0  0  0  0  0  0  0  0  0  0  0
  -29.0620  -19.0820   21.2610 C   0  0  0  0  0  2  0  0  0  0  0  0
  -30.0170  -18.3350   20.2640 C   0  0  0  0  0  2  0  0  0  0  0  0
  -31.3710  -17.5640   20.4920 C   0  0  0  0  0  2  0  0  0  0  0  0
  -31.8970  -15.1120   20.0120 C   0  0  0  0  0  0  0  0  0  0  0  0
  -31.6760  -12.7580   19.2890 C   0  0  0  0  0  2  0  0  0  0  0  0
  -30.7120  -12.6880   18.0850 C   0  0  0  0  0  2  0  0  0  0  0  0
  -29.2400  -12.6180   18.5470 C   0  0  0  0  0  2  0  0  0  0  0  0
  -28.8980  -13.7000   19.6060 C   0  0  0  0  0  3  0  0  0  0  0  0
  -29.9560  -13.6830   20.7300 C   0  0  0  0  0  2  0  0  0  0  0  0
  -31.2790  -13.9070   20.1110 N   0  0  0  0  0  0  0  0  0  0  0  0
  -32.9740  -15.2940   19.4320 O   0  0  0  0  0  0  0  0  0  0  0  0
  -31.1640  -16.1100   20.5230 N   0  0  0  0  0  0  0  0  0  0  0  0
  -30.3020  -15.8020   20.9470 H   0  0  0  0  0  0  0  0  0  0  0  0
  -26.6080  -14.4870   20.4880 C   0  0  0  0  0  0  0  0  0  0  0  0
  -25.4890  -13.7940   20.8620 C   0  0  0  0  0  0  0  0  0  0  0  0
  -25.8100  -12.4100   20.7120 C   0  0  0  0  0  0  0  0  0  0  0  0
  -27.5470  -13.5290   20.1390 N   0  0  0  0  0  0  0  0  0  0  0  0
  -27.0700  -12.2710   20.3300 N   0  0  0  0  0  0  0  0  0  0  0  0
  -24.9760  -11.2120   20.8580 C   0  0  0  0  0  0  0  0  0  0  0  0
  -25.3100  -10.1860   21.7700 C   0  0  0  0  0  3  0  0  0  0  0  0
  -24.4830   -9.0510   21.9050 C   0  0  0  0  0  3  0  0  0  0  0  0
  -23.3060   -8.9340   21.1260 C   0  0  0  0  0  0  0  0  0  0  0  0
  -22.9900   -9.9490   20.2060 C   0  0  0  0  0  3  0  0  0  0  0  0
  -23.8170  -11.0750   20.0690 C   0  0  0  0  0  3  0  0  0  0  0  0
  -22.4550   -7.8580   21.1710 O   0  0  0  0  0  0  0  0  0  0  0  0
  -22.2170   -7.1780   22.3390 C   0  0  0  0  0  0  0  0  0  0  0  0
  -21.6840   -7.8180   23.4790 C   0  0  0  0  0  3  0  0  0  0  0  0
  -21.3900   -7.0670   24.6330 C   0  0  0  0  0  3  0  0  0  0  0  0
  -21.6130   -5.6780   24.6460 C   0  0  0  0  0  0  0  0  0  0  0  0
  -22.1400   -5.0380   23.5100 C   0  0  0  0  0  3  0  0  0  0  0  0
  -22.4350   -5.7850   22.3570 C   0  0  0  0  0  0  0  0  0  0  0  0
  -22.9210   -5.1600   21.2570 F   0  0  0  0  0  0  0  0  0  0  0  0
  -21.3210   -4.9550   25.7520 F   0  0  0  0  0  0  0  0  0  0  0  0
  -24.1590  -14.3790   21.2460 C   0  0  0  0  0  0  0  0  0  0  0  0
  -23.4210  -13.7060   22.1230 N   0  0  0  0  0  0  0  0  0  0  0  0
  -23.7820  -15.4640   20.8010 O   0  0  0  0  0  0  0  0  0  0  0  0
  -23.7380  -12.8240   22.5020 H   0  0  0  0  0  0  0  0  0  0  0  0
  -22.5290  -14.0740   22.4140 H   0  0  0  0  0  0  0  0  0  0  0  0
  -26.8920  -15.8480   20.4020 N   0  0  0  0  0  0  0  0  0  0  0  0
  -26.1890  -16.5520   20.5980 H   0  0  0  0  0  0  0  0  0  0  0  0
  -27.7560  -16.2390   20.0510 H   0  0  0  0  0  0  0  0  0  0  0  0
  -28.8160  -24.0930   20.4190 C   0  0  0  0  0  2  0  0  0  0  0  0
  -29.4640  -24.5320   19.0910 C   0  0  0  0  0  2  0  0  0  0  0  0
  -30.5810  -25.5660   19.3040 C   0  0  0  0  0  2  0  0  0  0  0  0
  -30.2320  -26.6820   20.3090 C   0  0  0  0  0  2  0  0  0  0  0  0
  -29.9100  -27.9020   19.6500 O   0  0  0  0  0  0  0  0  0  0  0  0
  -25.0010  -31.4050   23.4120 C   0  0  0  0  0  0  0  0  0  0  0  0
  -28.5980  -28.2890   19.7530 C   0  0  0  0  0  0  0  0  0  0  0  0
  -24.1450  -30.0460   21.5300 C   0  0  0  0  0  3  0  0  0  0  0  0
  -25.9140  -29.1280   19.9360 C   0  0  0  0  0  0  0  0  0  0  0  0
  -26.5090  -31.0140   21.4710 C   0  0  0  0  0  2  0  0  0  0  0  0
  -26.9140  -29.8250   20.6250 C   0  0  0  0  0  0  0  0  0  0  0  0
  -28.2620  -29.4240   20.5170 C   0  0  0  0  0  3  0  0  0  0  0  0
  -27.5860  -27.5800   19.0710 C   0  0  0  0  0  3  0  0  0  0  0  0
  -26.2420  -28.0050   19.1540 C   0  0  0  0  0  3  0  0  0  0  0  0
  -24.5040  -29.6520   20.0730 C   0  0  0  0  0  2  0  0  0  0  0  0
  -25.2340  -30.8290   22.1990 N   0  0  0  0  0  0  0  0  0  0  0  0
  -23.8890  -31.3300   23.9530 O   0  0  0  0  0  0  0  0  0  0  0  0
  -23.7480  -28.7660   22.2960 C   0  0  0  0  0  0  0  0  0  0  0  0
  -22.5430  -28.2490   22.0180 N   0  0  0  0  0  0  0  0  0  0  0  0
  -24.5290  -28.2470   23.0980 O   0  0  0  0  0  0  0  0  0  0  0  0
  -21.9640  -28.7270   21.3420 H   0  0  0  0  0  0  0  0  0  0  0  0
  -19.6640  -26.0840   21.9560 C   0  0  0  0  0  0  0  0  0  0  0  0
  -21.9780  -27.0320   22.5980 C   0  0  0  0  0  3  0  0  0  0  0  0
  -22.5650  -25.7730   21.9230 C   0  0  0  0  0  2  0  0  0  0  0  0
  -21.7280  -25.2960   20.7300 C   0  0  0  0  0  2  0  0  0  0  0  0
  -20.3060  -24.9460   21.1820 C   0  0  0  0  0  2  0  0  0  0  0  0
  -20.4460  -27.0730   22.6100 C   0  0  0  0  0  0  0  0  0  0  0  0
  -19.7940  -28.1280   23.2880 C   0  0  0  0  0  3  0  0  0  0  0  0
  -18.3870  -28.1910   23.3330 C   0  0  0  0  0  3  0  0  0  0  0  0
  -17.6170  -27.2050   22.6880 C   0  0  0  0  0  3  0  0  0  0  0  0
  -18.2570  -26.1610   21.9960 C   0  0  0  0  0  3  0  0  0  0  0  0
  -26.1080  -32.2030   24.1680 C   0  0  0  0  0  3  0  0  0  0  0  0
  -25.5940  -33.5600   24.4020 N   0  0  0  0  0  0  0  0  0  0  0  0
  -25.9060  -34.6270   23.6590 C   0  0  0  0  0  0  0  0  0  0  0  0
  -26.7250  -34.5880   22.7350 O   0  0  0  0  0  0  0  0  0  0  0  0
  -24.8820  -33.6590   25.1110 H   0  0  0  0  0  0  0  0  0  0  0  0
  -24.0430  -36.1850   22.9980 C   0  0  0  0  0  1  0  0  0  0  0  0
  -25.1970  -35.9540   23.9880 C   0  0  0  0  0  3  0  0  0  0  0  0
  -27.0790  -37.1120   25.0600 C   0  0  0  0  0  1  0  0  0  0  0  0
  -26.1010  -37.1230   23.9760 N   0  0  0  0  0  0  0  0  0  0  0  0
  -25.5700  -37.9880   24.0410 H   0  0  0  0  0  0  0  0  0  0  0  0
  -26.5460  -31.5300   25.5280 C   0  0  1  0  0  0  0  0  0  0  0  0
  -25.3650  -31.1870   26.4650 C   0  0  0  0  0  1  0  0  0  0  0  0
  -27.3350  -30.2260   25.2590 C   0  0  0  0  0  1  0  0  0  0  0  0
  -27.4940  -32.4790   26.2990 C   0  0  0  0  0  1  0  0  0  0  0  0
  1  2  2  0
  2  8  1  0
  3  4  1  0
  3  6  1  0
  5  3  1  0
  5  1  1  0
  6  7  1  0
  6  2  1  0
  9 10  1  0
  9  8  1  0
 10 19  1  0
 11 17  1  0
 11 19  1  0
 12 17  1  0
 13 14  1  0
 13 12  1  0
 15 14  1  0
 15 24  1  0
 15 16  1  0
 17 16  1  0
 18 11  2  0
 19 20  1  0
 21 22  2  0
 22 41  1  0
 23 26  1  0
 23 22  1  0
 24 25  1  0
 24 21  1  0
 25 23  2  0
 26 27  1  0
 27 28  2  0
 29 32  1  0
 29 28  1  0
 30 29  2  0
 31 30  1  0
 31 26  2  0
 32 33  1  0
 33 38  2  0
 33 34  1  0
 34 35  2  0
 35 36  1  0
 36 40  1  0
 37 36  2  0
 38 37  1  0
 39 38  1  0
 41 42  1  0
 42 45  1  0
 42 44  1  0
 43 41  2  0
 46 21  1  0
 46 47  1  0
 48 46  1  0
 49  5  1  0
 50 51  1  0
 50 49  1  0
 51 52  1  0
 53 55  1  0
 53 52  1  0
 54 65  2  0
 55 60  1  0
 56 64  1  0
 56 66  1  0
 57 63  1  0
 57 59  1  0
 58 64  1  0
 59 58  1  0
 60 59  2  0
 61 62  1  0
 61 55  2  0
 62 57  2  0
 63 56  1  0
 64 54  1  0
 66 68  2  0
 67 66  1  0
 69 67  1  0
 70 79  2  0
 70 75  1  0
 71 67  1  0
 71 75  1  0
 72 71  1  0
 73 74  1  0
 73 72  1  0
 74 70  1  0
 75 76  2  0
 76 77  1  0
 78 77  2  0
 79 78  1  0
 80 54  1  0
 80 81  1  0
 80 90  1  0
 81 84  1  0
 82 86  1  0
 82 81  1  0
 83 82  2  0
 86 85  1  0
 88 86  1  0
 88 89  1  0
 88 87  1  0
 90 93  1  1
 90 91  1  0
 92 90  1  0
M  ISO  4  11 100  19 100  52 101  53 101
M  END
>  <TORSDO>  (20) 
F 23

>  <SCORE>  (20) 
-6.593

>  <name>  (20) 
19

>  <ligand_id>  (20) 
19

>  <original_smiles>  (20) 
[H]c1c([H])c([H])c2c(c1[H])C([H])([H])C([H])([H])C([H])([H])C2([H])N([H])C(=O)C1([H])N(C(=O)C([H])(N([H])C(=O)C([H])(N([H])C([H])([H])[H])C([H])([H])[H])C(C([H])([H])[H])(C([H])([H])[H])C([H])([H])[H])C([H])([H])c2c([H])c(OC([H])([H])C([H])([H])C([H])([H])C([H])([H])n3c([H])c(C([H])([H])C([H])([H])C([H])([H])N([H])C(=O)N4C([H])([H])C([H])([H])C([H])([H])C([H])(n5nc(-c6c([H])c([H])c(Oc7c([H])c([H])c(F)c([H])c7F)c([H])c6[H])c(C(=O)N([H])[H])c5N([H])[H])C4([H])[H])[n+]([H])c3C([H])([H])[H])c([H])c([H])c2C1([H])[H]

>  <smiles>  (20) 
[H]c1c([H])c([H])c2c(c1[H])C([H])([H])C([H])([H])C([H])([H])C2([H])N([H])C(=O)C1([H])N(C(=O)C([H])(N([H])C(=O)C([H])(N([H])C([H])([H])[H])C([H])([H])[H])C(C([H])([H])[H])(C([H])([H])[H])C([H])([H])[H])C([H])([H])c2c([H])c(OC([H])([H])C([H])([H])C([H])([H])C([H])([H])n3c([H])c(C([H])([H])C([H])([H])C([H])([H])N([H])C(=O)N4C([H])([H])C([H])([H])C([H])([H])C([H])(n5nc(-c6c([H])c([H])c(Oc7c([H])c([H])c(F)c([H])c7F)c([H])c6[H])c(C(=O)N([H])[H])c5N([H])[H])C4([H])[H])[n+]([H])c3C([H])([H])[H])c([H])c([H])c2C1([H])[H]

$$$$
20:0:0
     RDKit          3D

 92100  0  0  1  0  0  0  0  0999 V2000
  -30.8570  -19.3190   21.6490 C   0  0  0  0  0  0  0  0  0  0  0  0
  -30.1080  -18.3250   21.0570 C   0  0  0  0  0  0  0  0  0  0  0  0
  -29.5120  -20.3470   20.2850 C   0  0  0  0  0  0  0  0  0  0  0  0
  -28.2680  -18.3690   19.3010 C   0  0  0  0  0  1  0  0  0  0  0  0
  -30.5010  -20.5640   21.1440 N   0  0  0  0  0  0  0  0  0  0  0  0
  -29.2520  -19.0050   20.1590 N   0  0  0  0  0  0  0  0  0  0  0  0
  -31.3090  -19.6610   24.1010 C   0  0  0  0  0  1  0  0  0  0  0  0
  -31.8730  -19.2180   22.7460 C   0  0  0  0  0  2  0  0  0  0  0  0
  -30.1240  -16.8430   21.4640 C   0  0  0  0  0  2  0  0  0  0  0  0
  -30.5490  -14.7630   20.0840 C   0  0  0  0  0  0  0  0  0  0  0  0
  -30.2840  -12.5940   18.9130 C   0  0  0  0  0  2  0  0  0  0  0  0
  -29.2560  -12.7600   17.7730 C   0  0  0  0  0  2  0  0  0  0  0  0
  -27.8160  -12.5760   18.2960 C   0  0  0  0  0  2  0  0  0  0  0  0
  -27.5310  -13.3930   19.5840 C   0  0  0  0  0  3  0  0  0  0  0  0
  -28.6590  -13.1920   20.6170 C   0  0  0  0  0  2  0  0  0  0  0  0
  -29.9230  -13.5600   19.9600 N   0  0  0  0  0  0  0  0  0  0  0  0
  -31.6990  -14.9660   19.6860 O   0  0  0  0  0  0  0  0  0  0  0  0
  -29.7530  -15.7600   20.5340 N   0  0  0  0  0  0  0  0  0  0  0  0
  -28.7810  -15.4990   20.5800 H   0  0  0  0  0  0  0  0  0  0  0  0
  -25.1840  -13.9440   20.4740 C   0  0  0  0  0  0  0  0  0  0  0  0
  -24.1530  -13.1430   20.8900 C   0  0  0  0  0  0  0  0  0  0  0  0
  -24.6280  -11.8000   20.7840 C   0  0  0  0  0  0  0  0  0  0  0  0
  -26.2200  -13.0830   20.1470 N   0  0  0  0  0  0  0  0  0  0  0  0
  -25.8940  -11.7900   20.3880 N   0  0  0  0  0  0  0  0  0  0  0  0
  -23.9310  -10.5230   20.9810 C   0  0  0  0  0  0  0  0  0  0  0  0
  -24.4020   -9.5570   21.8980 C   0  0  0  0  0  3  0  0  0  0  0  0
  -23.7030   -8.3440   22.0810 C   0  0  0  0  0  3  0  0  0  0  0  0
  -22.5220   -8.0880   21.3460 C   0  0  0  0  0  0  0  0  0  0  0  0
  -22.0710   -9.0430   20.4190 C   0  0  0  0  0  3  0  0  0  0  0  0
  -22.7690  -10.2460   20.2340 C   0  0  0  0  0  3  0  0  0  0  0  0
  -21.7960   -6.9240   21.4380 O   0  0  0  0  0  0  0  0  0  0  0  0
  -21.7410   -6.2000   22.6030 C   0  0  0  0  0  0  0  0  0  0  0  0
  -21.2300   -6.7490   23.7990 C   0  0  0  0  0  3  0  0  0  0  0  0
  -21.1300   -5.9480   24.9550 C   0  0  0  0  0  3  0  0  0  0  0  0
  -21.5310   -4.5990   24.9140 C   0  0  0  0  0  0  0  0  0  0  0  0
  -22.0320   -4.0490   23.7210 C   0  0  0  0  0  3  0  0  0  0  0  0
  -22.1350   -4.8470   22.5690 C   0  0  0  0  0  0  0  0  0  0  0  0
  -22.5990   -4.3060   21.4160 F   0  0  0  0  0  0  0  0  0  0  0  0
  -21.4270   -3.8270   26.0210 F   0  0  0  0  0  0  0  0  0  0  0  0
  -22.7720  -13.5940   21.2680 C   0  0  0  0  0  0  0  0  0  0  0  0
  -22.1050  -12.8560   22.1500 N   0  0  0  0  0  0  0  0  0  0  0  0
  -22.2930  -14.6350   20.8200 O   0  0  0  0  0  0  0  0  0  0  0  0
  -22.5070  -12.0120   22.5330 H   0  0  0  0  0  0  0  0  0  0  0  0
  -21.1820  -13.1390   22.4490 H   0  0  0  0  0  0  0  0  0  0  0  0
  -25.3260  -15.3190   20.3290 N   0  0  0  0  0  0  0  0  0  0  0  0
  -24.5780  -15.9740   20.5310 H   0  0  0  0  0  0  0  0  0  0  0  0
  -26.1450  -15.7660   19.9420 H   0  0  0  0  0  0  0  0  0  0  0  0
  -28.8830  -21.5110   19.5020 C   0  0  0  0  0  3  0  0  0  0  0  0
  -28.5320  -22.8000   20.3370 C   0  0  0  0  0  3  0  0  0  0  0  0
  -28.2230  -24.1310   19.5460 C   0  0  0  0  0  3  0  0  0  0  0  0
  -27.9850  -25.4030   20.4330 C   0  0  0  0  0  3  0  0  0  0  0  0
  -28.0490  -26.7020   19.7710 O   0  0  0  0  0  0  0  0  0  0  0  0
  -24.4860  -31.9240   23.1600 C   0  0  0  0  0  0  0  0  0  0  0  0
  -26.9210  -27.5040   19.8510 C   0  0  0  0  0  0  0  0  0  0  0  0
  -23.1900  -30.5810   21.5370 C   0  0  0  0  0  3  0  0  0  0  0  0
  -24.5630  -29.0730   19.9950 C   0  0  0  0  0  0  0  0  0  0  0  0
  -25.7120  -30.9120   21.2340 C   0  0  0  0  0  2  0  0  0  0  0  0
  -25.7550  -29.5590   20.5470 C   0  0  0  0  0  0  0  0  0  0  0  0
  -26.9420  -28.7820   20.4700 C   0  0  0  0  0  3  0  0  0  0  0  0
  -25.7140  -27.0470   19.2890 C   0  0  0  0  0  3  0  0  0  0  0  0
  -24.5400  -27.8190   19.3580 C   0  0  0  0  0  3  0  0  0  0  0  0
  -23.3300  -29.9400   20.1320 C   0  0  0  0  0  2  0  0  0  0  0  0
  -24.4840  -31.1530   22.0350 N   0  0  0  0  0  0  0  0  0  0  0  0
  -23.4350  -32.1920   23.7600 O   0  0  0  0  0  0  0  0  0  0  0  0
  -22.5680  -29.5410   22.4990 C   0  0  0  0  0  0  0  0  0  0  0  0
  -21.2420  -29.3450   22.3980 N   0  0  0  0  0  0  0  0  0  0  0  0
  -23.2770  -28.9130   23.2890 O   0  0  0  0  0  0  0  0  0  0  0  0
  -20.7230  -29.8980   21.7290 H   0  0  0  0  0  0  0  0  0  0  0  0
  -17.9050  -28.0640   22.9210 C   0  0  0  0  0  0  0  0  0  0  0  0
  -20.4570  -28.3830   23.1680 C   0  0  0  0  0  3  0  0  0  0  0  0
  -20.5900  -26.9650   22.5700 C   0  0  0  0  0  2  0  0  0  0  0  0
  -19.4840  -26.6290   21.5650 C   0  0  0  0  0  2  0  0  0  0  0  0
  -18.1080  -26.7270   22.2300 C   0  0  0  0  0  2  0  0  0  0  0  0
  -19.0090  -28.8480   23.3480 C   0  0  0  0  0  0  0  0  0  0  0  0
  -18.7680  -30.0980   23.9580 C   0  0  0  0  0  3  0  0  0  0  0  0
  -17.4570  -30.5670   24.1460 C   0  0  0  0  0  3  0  0  0  0  0  0
  -16.3640  -29.7810   23.7390 C   0  0  0  0  0  3  0  0  0  0  0  0
  -16.5900  -28.5320   23.1320 C   0  0  0  0  0  3  0  0  0  0  0  0
  -25.8050  -32.5260   23.7370 C   0  0  0  0  0  3  0  0  0  0  0  0
  -25.5350  -33.9260   24.0960 N   0  0  0  0  0  0  0  0  0  0  0  0
  -25.8730  -34.9820   23.3440 C   0  0  0  0  0  0  0  0  0  0  0  0
  -26.5190  -34.8780   22.2990 O   0  0  0  0  0  0  0  0  0  0  0  0
  -24.9650  -34.0800   24.9150 H   0  0  0  0  0  0  0  0  0  0  0  0
  -24.1970  -36.8290   23.0290 C   0  0  0  0  0  1  0  0  0  0  0  0
  -25.4260  -36.3740   23.8320 C   0  0  0  0  0  3  0  0  0  0  0  0
  -27.5760  -37.1870   24.6950 C   0  0  0  0  0  1  0  0  0  0  0  0
  -26.4880  -37.3990   23.7440 N   0  0  0  0  0  0  0  0  0  0  0  0
  -26.1080  -38.3280   23.9020 H   0  0  0  0  0  0  0  0  0  0  0  0
  -26.3590  -31.7320   24.9830 C   0  0  1  0  0  0  0  0  0  0  0  0
  -25.3060  -31.4950   26.0880 C   0  0  0  0  0  1  0  0  0  0  0  0
  -26.9030  -30.3490   24.5540 C   0  0  0  0  0  1  0  0  0  0  0  0
  -27.5450  -32.5000   25.6090 C   0  0  0  0  0  1  0  0  0  0  0  0
  1  8  1  0
  2  9  1  0
  2  1  2  0
  3  5  2  0
  4  6  1  0
  5  1  1  0
  6  3  1  0
  6  2  1  0
  8  7  1  0
 10 18  1  0
 11 16  1  0
 12 13  1  0
 12 11  1  0
 14 13  1  0
 14 23  1  0
 14 15  1  0
 16 10  1  0
 16 15  1  0
 17 10  2  0
 18 19  1  0
 18  9  1  0
 20 21  2  0
 21 40  1  0
 22 21  1  0
 22 25  1  0
 23 24  1  0
 23 20  1  0
 24 22  2  0
 25 26  1  0
 26 27  2  0
 28 31  1  0
 28 27  1  0
 29 28  2  0
 30 29  1  0
 30 25  2  0
 31 32  1  0
 32 33  1  0
 33 34  2  0
 35 34  1  0
 35 39  1  0
 36 35  2  0
 37 32  2  0
 37 36  1  0
 38 37  1  0
 40 41  1  0
 41 44  1  0
 41 43  1  0
 42 40  2  0
 45 20  1  0
 45 46  1  0
 47 45  1  0
 48  3  1  0
 48 49  2  0
 50 49  1  0
 50 51  2  0
 52 54  1  0
 52 51  1  0
 53 64  2  0
 54 59  1  0
 55 63  1  0
 55 65  1  0
 56 62  1  0
 56 58  1  0
 57 63  1  0
 58 57  1  0
 59 58  2  0
 60 61  1  0
 60 54  2  0
 61 56  2  0
 62 55  1  0
 63 53  1  0
 65 67  2  0
 66 65  1  0
 68 66  1  0
 69 78  2  0
 69 74  1  0
 70 66  1  0
 70 74  1  0
 71 70  1  0
 72 73  1  0
 72 71  1  0
 73 69  1  0
 74 75  2  0
 75 76  1  0
 77 76  2  0
 78 77  1  0
 79 53  1  0
 79 80  1  0
 79 89  1  0
 80 83  1  0
 81 85  1  0
 81 80  1  0
 82 81  2  0
 85 84  1  0
 87 85  1  0
 87 88  1  0
 87 86  1  0
 89 92  1  1
 89 90  1  0
 91 89  1  0
M  ISO  4  10 100  18 100  51 101  52 101
M  END
>  <TORSDO>  (21) 
F 22

>  <SCORE>  (21) 
-12.837

>  <name>  (21) 
20

>  <ligand_id>  (21) 
20

>  <original_smiles>  (21) 
[H]c1c([H])c([H])c2c(c1[H])C([H])([H])C([H])([H])C([H])([H])C2([H])N([H])C(=O)C1([H])N(C(=O)C([H])(N([H])C(=O)C([H])(N([H])C([H])([H])[H])C([H])([H])[H])C(C([H])([H])[H])(C([H])([H])[H])C([H])([H])[H])C([H])([H])c2c([H])c(OC([H])([H])C([H])([H])C([H])([H])C([H])([H])c3nc(C([H])([H])C([H])([H])[H])c(C([H])([H])N([H])C(=O)N4C([H])([H])C([H])([H])C([H])([H])C([H])(n5nc(-c6c([H])c([H])c(Oc7c([H])c([H])c(F)c([H])c7F)c([H])c6[H])c(C(=O)N([H])[H])c5N([H])[H])C4([H])[H])n3C([H])([H])[H])c([H])c([H])c2C1([H])[H]

>  <smiles>  (21) 
[H]c1c([H])c([H])c2c(c1[H])C([H])([H])C([H])([H])C([H])([H])C2([H])N([H])C(=O)C1([H])N(C(=O)C([H])(N([H])C(=O)C([H])(N([H])C([H])([H])[H])C([H])([H])[H])C(C([H])([H])[H])(C([H])([H])[H])C([H])([H])[H])C([H])([H])c2c([H])c(OC([H])([H])C([H])([H])C([H])([H])C([H])([H])c3nc(C([H])([H])C([H])([H])[H])c(C([H])([H])N([H])C(=O)N4C([H])([H])C([H])([H])C([H])([H])C([H])(n5nc(-c6c([H])c([H])c(Oc7c([H])c([H])c(F)c([H])c7F)c([H])c6[H])c(C(=O)N([H])[H])c5N([H])[H])C4([H])[H])n3C([H])([H])[H])c([H])c([H])c2C1([H])[H]

$$$$
21:0:0
     RDKit          3D

 92100  0  0  1  0  0  0  0  0999 V2000
  -29.4970  -21.4930   19.4210 C   0  0  0  0  0  2  0  0  0  0  0  0
  -28.9430  -18.9230   19.2860 C   0  0  0  0  0  3  0  0  0  0  0  0
  -30.8950  -18.3560   21.0280 C   0  0  0  0  0  3  0  0  0  0  0  0
  -29.6870  -19.9910   19.8690 C   0  0  0  0  0  0  0  0  0  0  0  0
  -30.1350  -17.2760   20.4710 C   0  0  0  0  0  0  0  0  0  0  0  0
  -30.6840  -19.6790   20.7420 N   0  0  0  0  0  0  0  0  0  0  0  0
  -29.1510  -17.5980   19.5800 N   0  0  0  0  0  0  0  0  0  0  0  0
  -28.9300  -15.6450   21.9020 C   0  0  0  0  0  1  0  0  0  0  0  0
  -31.3700  -15.6690   22.0590 C   0  0  0  0  0  1  0  0  0  0  0  0
  -30.2040  -15.7910   21.0410 C   0  0  2  0  0  0  0  0  0  0  0  0
  -30.5120  -14.6140   19.9790 C   0  0  0  0  0  0  0  0  0  0  0  0
  -30.1520  -12.4820   18.7040 C   0  0  0  0  0  2  0  0  0  0  0  0
  -29.0930  -12.6590   17.5930 C   0  0  0  0  0  2  0  0  0  0  0  0
  -27.6620  -12.4670   18.1350 C   0  0  0  0  0  2  0  0  0  0  0  0
  -27.4330  -13.2310   19.4630 C   0  0  0  0  0  3  0  0  0  0  0  0
  -28.5870  -12.9380   20.4420 C   0  0  0  0  0  2  0  0  0  0  0  0
  -29.8330  -13.4170   19.8170 N   0  0  0  0  0  0  0  0  0  0  0  0
  -31.5160  -14.7990   19.2780 O   0  0  0  0  0  0  0  0  0  0  0  0
  -25.1050  -13.7930   20.3940 C   0  0  0  0  0  0  0  0  0  0  0  0
  -24.0830  -13.0000   20.8390 C   0  0  0  0  0  0  0  0  0  0  0  0
  -24.5520  -11.6550   20.7410 C   0  0  0  0  0  0  0  0  0  0  0  0
  -26.1320  -12.9270   20.0500 N   0  0  0  0  0  0  0  0  0  0  0  0
  -25.8090  -11.6360   20.3160 N   0  0  0  0  0  0  0  0  0  0  0  0
  -23.8580  -10.3810   20.9720 C   0  0  0  0  0  0  0  0  0  0  0  0
  -24.3450   -9.4330   21.8980 C   0  0  0  0  0  3  0  0  0  0  0  0
  -23.6510   -8.2230   22.1140 C   0  0  0  0  0  3  0  0  0  0  0  0
  -22.4580   -7.9530   21.4050 C   0  0  0  0  0  0  0  0  0  0  0  0
  -21.9910   -8.8880   20.4650 C   0  0  0  0  0  3  0  0  0  0  0  0
  -22.6850  -10.0910   20.2490 C   0  0  0  0  0  3  0  0  0  0  0  0
  -21.7310   -6.7930   21.5320 O   0  0  0  0  0  0  0  0  0  0  0  0
  -21.6920   -6.0930   22.7110 C   0  0  0  0  0  0  0  0  0  0  0  0
  -21.2470   -6.6840   23.9140 C   0  0  0  0  0  3  0  0  0  0  0  0
  -21.1580   -5.9080   25.0880 C   0  0  0  0  0  3  0  0  0  0  0  0
  -21.5020   -4.5430   25.0580 C   0  0  0  0  0  0  0  0  0  0  0  0
  -21.9400   -3.9530   23.8590 C   0  0  0  0  0  3  0  0  0  0  0  0
  -22.0310   -4.7250   22.6890 C   0  0  0  0  0  0  0  0  0  0  0  0
  -22.4340   -4.1470   21.5310 F   0  0  0  0  0  0  0  0  0  0  0  0
  -21.4080   -3.7950   26.1810 F   0  0  0  0  0  0  0  0  0  0  0  0
  -22.7110  -13.4550   21.2470 C   0  0  0  0  0  0  0  0  0  0  0  0
  -22.0750  -12.7380   22.1660 N   0  0  0  0  0  0  0  0  0  0  0  0
  -22.2130  -14.4800   20.7820 O   0  0  0  0  0  0  0  0  0  0  0  0
  -22.4900  -11.9060   22.5580 H   0  0  0  0  0  0  0  0  0  0  0  0
  -21.1610  -13.0280   22.4850 H   0  0  0  0  0  0  0  0  0  0  0  0
  -25.2420  -15.1690   20.2350 N   0  0  0  0  0  0  0  0  0  0  0  0
  -24.4950  -15.8200   20.4460 H   0  0  0  0  0  0  0  0  0  0  0  0
  -26.0720  -15.6230   19.8730 H   0  0  0  0  0  0  0  0  0  0  0  0
  -27.8030  -22.1220   21.1250 C   0  0  0  0  0  1  0  0  0  0  0  0
  -29.0230  -22.5570   20.4010 N   0  0  2  0  0  4  0  0  0  0  0  0
  -29.7530  -22.5960   21.0990 H   0  0  0  0  0  0  0  0  0  0  0  0
  -28.9010  -23.9720   19.8120 C   0  0  0  0  0  3  0  0  0  0  0  0
  -28.3610  -25.1480   20.7480 C   0  0  0  0  0  3  0  0  0  0  0  0
  -28.4830  -26.5550   20.3000 O   0  0  0  0  0  0  0  0  0  0  0  0
  -24.6250  -31.9060   23.2390 C   0  0  0  0  0  0  0  0  0  0  0  0
  -27.3330  -27.3530   20.2850 C   0  0  0  0  0  0  0  0  0  0  0  0
  -23.4520  -30.4630   21.6140 C   0  0  0  0  0  3  0  0  0  0  0  0
  -24.9350  -28.9030   20.2330 C   0  0  0  0  0  0  0  0  0  0  0  0
  -25.9840  -30.8210   21.4380 C   0  0  0  0  0  2  0  0  0  0  0  0
  -26.0910  -29.4320   20.8220 C   0  0  0  0  0  0  0  0  0  0  0  0
  -27.2950  -28.6690   20.8360 C   0  0  0  0  0  3  0  0  0  0  0  0
  -26.1580  -26.8650   19.6780 C   0  0  0  0  0  3  0  0  0  0  0  0
  -24.9690  -27.6230   19.6520 C   0  0  0  0  0  3  0  0  0  0  0  0
  -23.6860  -29.7600   20.2500 C   0  0  0  0  0  2  0  0  0  0  0  0
  -24.7050  -31.0820   22.1540 N   0  0  0  0  0  0  0  0  0  0  0  0
  -23.5350  -32.1800   23.7600 O   0  0  0  0  0  0  0  0  0  0  0  0
  -22.7950  -29.4580   22.5890 C   0  0  0  0  0  0  0  0  0  0  0  0
  -21.4700  -29.2710   22.4610 N   0  0  0  0  0  0  0  0  0  0  0  0
  -23.4750  -28.8460   23.4160 O   0  0  0  0  0  0  0  0  0  0  0  0
  -20.9800  -29.8160   21.7650 H   0  0  0  0  0  0  0  0  0  0  0  0
  -18.1010  -28.0610   22.9660 C   0  0  0  0  0  0  0  0  0  0  0  0
  -20.6560  -28.3380   23.2410 C   0  0  0  0  0  3  0  0  0  0  0  0
  -20.7680  -26.9010   22.6820 C   0  0  0  0  0  2  0  0  0  0  0  0
  -19.6680  -26.5570   21.6700 C   0  0  0  0  0  2  0  0  0  0  0  0
  -18.2850  -26.7040   22.3100 C   0  0  0  0  0  2  0  0  0  0  0  0
  -19.2140  -28.8340   23.3900 C   0  0  0  0  0  0  0  0  0  0  0  0
  -18.9870  -30.1040   23.9630 C   0  0  0  0  0  3  0  0  0  0  0  0
  -17.6800  -30.6010   24.1200 C   0  0  0  0  0  3  0  0  0  0  0  0
  -16.5810  -29.8250   23.7110 C   0  0  0  0  0  3  0  0  0  0  0  0
  -16.7920  -28.5580   23.1420 C   0  0  0  0  0  3  0  0  0  0  0  0
  -25.8960  -32.5650   23.8620 C   0  0  0  0  0  3  0  0  0  0  0  0
  -25.5580  -33.9560   24.1930 N   0  0  0  0  0  0  0  0  0  0  0  0
  -25.8630  -35.0160   23.4310 C   0  0  0  0  0  0  0  0  0  0  0  0
  -26.5290  -34.9260   22.3970 O   0  0  0  0  0  0  0  0  0  0  0  0
  -24.9650  -34.0990   24.9980 H   0  0  0  0  0  0  0  0  0  0  0  0
  -24.0920  -36.7700   23.0900 C   0  0  0  0  0  1  0  0  0  0  0  0
  -25.3480  -36.3940   23.8920 C   0  0  0  0  0  3  0  0  0  0  0  0
  -27.4700  -37.3280   24.7060 C   0  0  0  0  0  1  0  0  0  0  0  0
  -26.3570  -37.4700   23.7700 N   0  0  0  0  0  0  0  0  0  0  0  0
  -25.9320  -38.3810   23.9170 H   0  0  0  0  0  0  0  0  0  0  0  0
  -26.4270  -31.8040   25.1390 C   0  0  1  0  0  0  0  0  0  0  0  0
  -25.3380  -31.5410   26.2040 C   0  0  0  0  0  1  0  0  0  0  0  0
  -27.0430  -30.4410   24.7460 C   0  0  0  0  0  1  0  0  0  0  0  0
  -27.5570  -32.6240   25.8050 C   0  0  0  0  0  1  0  0  0  0  0  0
  1  4  1  0
  1 48  1  0
  2  7  2  0
  2  4  1  0
  4  6  2  0
  5  3  2  0
  5 10  1  0
  6  3  1  0
  7  5  1  0
 10  8  1  1
 10  9  1  0
 11 10  1  0
 12 17  1  0
 13 14  1  0
 13 12  1  0
 15 14  1  0
 15 22  1  0
 15 16  1  0
 17 11  1  0
 17 16  1  0
 18 11  2  0
 19 20  2  0
 20 39  1  0
 21 20  1  0
 21 24  1  0
 22 23  1  0
 22 19  1  0
 23 21  2  0
 24 25  1  0
 25 26  2  0
 27 30  1  0
 27 26  1  0
 28 27  2  0
 29 28  1  0
 29 24  2  0
 30 31  1  0
 31 32  1  0
 32 33  2  0
 34 33  1  0
 34 38  1  0
 35 34  2  0
 36 31  2  0
 36 35  1  0
 37 36  1  0
 39 40  1  0
 40 43  1  0
 40 42  1  0
 41 39  2  0
 44 19  1  0
 44 45  1  0
 46 44  1  0
 48 49  1  1
 48 47  1  0
 50 48  1  0
 50 51  2  0
 52 51  1  0
 53 64  2  0
 54 52  1  0
 54 59  1  0
 55 63  1  0
 55 65  1  0
 56 62  1  0
 56 58  1  0
 57 63  1  0
 58 59  2  0
 58 57  1  0
 60 54  2  0
 61 60  1  0
 61 56  2  0
 62 55  1  0
 63 53  1  0
 65 67  2  0
 66 65  1  0
 68 66  1  0
 69 78  2  0
 69 74  1  0
 70 66  1  0
 70 74  1  0
 71 70  1  0
 72 73  1  0
 72 71  1  0
 73 69  1  0
 74 75  2  0
 75 76  1  0
 77 76  2  0
 78 77  1  0
 79 53  1  0
 79 80  1  0
 79 89  1  0
 80 83  1  0
 81 85  1  0
 81 80  1  0
 82 81  2  0
 85 84  1  0
 87 85  1  0
 87 88  1  0
 87 86  1  0
 89 92  1  1
 89 90  1  0
 91 89  1  0
M  ISO  4  10 100  11 100  51 101  52 101
M  END
>  <TORSDO>  (22) 
F 21

>  <SCORE>  (22) 
-11.888

>  <name>  (22) 
21

>  <ligand_id>  (22) 
21

>  <original_smiles>  (22) 
[H]c1nc(C([H])([H])[N+]([H])(C([H])([H])[H])C([H])([H])C([H])([H])Oc2c([H])c([H])c3c(c2[H])C([H])([H])N(C(=O)C([H])(N([H])C(=O)C([H])(N([H])C([H])([H])[H])C([H])([H])[H])C(C([H])([H])[H])(C([H])([H])[H])C([H])([H])[H])C([H])(C(=O)N([H])C2([H])c4c([H])c([H])c([H])c([H])c4C([H])([H])C([H])([H])C2([H])[H])C3([H])[H])c([H])nc1C(C(=O)N1C([H])([H])C([H])([H])C([H])([H])C([H])(n2nc(-c3c([H])c([H])c(Oc4c([H])c([H])c(F)c([H])c4F)c([H])c3[H])c(C(=O)N([H])[H])c2N([H])[H])C1([H])[H])(C([H])([H])[H])C([H])([H])[H]

>  <smiles>  (22) 
[H]c1nc(C([H])([H])[N+]([H])(C([H])([H])[H])C([H])([H])C([H])([H])Oc2c([H])c([H])c3c(c2[H])C([H])([H])N(C(=O)C([H])(N([H])C(=O)C([H])(N([H])C([H])([H])[H])C([H])([H])[H])C(C([H])([H])[H])(C([H])([H])[H])C([H])([H])[H])C([H])(C(=O)N([H])C2([H])c4c([H])c([H])c([H])c([H])c4C([H])([H])C([H])([H])C2([H])[H])C3([H])[H])c([H])nc1C(C(=O)N1C([H])([H])C([H])([H])C([H])([H])C([H])(n2nc(-c3c([H])c([H])c(Oc4c([H])c([H])c(F)c([H])c4F)c([H])c3[H])c(C(=O)N([H])[H])c2N([H])[H])C1([H])[H])(C([H])([H])[H])C([H])([H])[H]

$$$$
22:0:0
     RDKit          3D

 89 97  0  0  1  0  0  0  0  0999 V2000
  -29.2360  -20.6930   18.3430 C   0  0  0  0  0  3  0  0  0  0  0  0
  -29.1920  -20.4070   19.7370 C   0  0  0  0  0  0  0  0  0  0  0  0
  -29.5550  -18.9800   19.7700 C   0  0  0  0  0  0  0  0  0  0  0  0
  -30.1740  -17.4230   17.7880 C   0  0  0  0  0  1  0  0  0  0  0  0
  -29.5840  -19.6930   17.5820 N   0  0  0  0  0  0  0  0  0  0  0  0
  -29.7660  -18.6660   18.4210 N   0  0  0  0  0  0  0  0  0  0  0  0
  -28.7550  -21.7200   20.6390 C   0  0  0  0  0  2  0  0  0  0  0  0
  -28.7790  -23.3190   20.0350 C   0  0  0  0  0  3  0  0  0  0  0  0
  -28.0500  -24.7010   20.6810 C   0  0  0  0  0  3  0  0  0  0  0  0
  -28.2390  -26.1920   20.2610 O   0  0  0  0  0  0  0  0  0  0  0  0
  -24.5950  -31.8720   23.2390 C   0  0  0  0  0  0  0  0  0  0  0  0
  -27.1690  -27.1550   20.2380 C   0  0  0  0  0  0  0  0  0  0  0  0
  -23.3880  -30.4690   21.6100 C   0  0  0  0  0  3  0  0  0  0  0  0
  -24.8320  -28.8860   20.1880 C   0  0  0  0  0  0  0  0  0  0  0  0
  -25.9400  -30.7390   21.4290 C   0  0  0  0  0  2  0  0  0  0  0  0
  -26.0130  -29.3450   20.7880 C   0  0  0  0  0  0  0  0  0  0  0  0
  -27.1850  -28.5010   20.7820 C   0  0  0  0  0  3  0  0  0  0  0  0
  -25.9630  -26.7890   19.6070 C   0  0  0  0  0  3  0  0  0  0  0  0
  -24.8210  -27.6200   19.5790 C   0  0  0  0  0  3  0  0  0  0  0  0
  -23.6000  -29.7790   20.2350 C   0  0  0  0  0  2  0  0  0  0  0  0
  -24.6600  -31.0500   22.1440 N   0  0  0  0  0  0  0  0  0  0  0  0
  -23.5100  -32.1630   23.7690 O   0  0  0  0  0  0  0  0  0  0  0  0
  -22.7170  -29.4660   22.5820 C   0  0  0  0  0  0  0  0  0  0  0  0
  -21.3900  -29.2880   22.4560 N   0  0  0  0  0  0  0  0  0  0  0  0
  -23.3900  -28.8450   23.4060 O   0  0  0  0  0  0  0  0  0  0  0  0
  -20.9000  -29.8420   21.7700 H   0  0  0  0  0  0  0  0  0  0  0  0
  -18.0180  -28.0660   22.9670 C   0  0  0  0  0  0  0  0  0  0  0  0
  -20.5750  -28.3520   23.2330 C   0  0  0  0  0  3  0  0  0  0  0  0
  -20.6860  -26.9150   22.6730 C   0  0  0  0  0  2  0  0  0  0  0  0
  -19.5890  -26.5740   21.6600 C   0  0  0  0  0  2  0  0  0  0  0  0
  -18.2050  -26.7140   22.3000 C   0  0  0  0  0  2  0  0  0  0  0  0
  -19.1310  -28.8420   23.3900 C   0  0  0  0  0  0  0  0  0  0  0  0
  -18.9000  -30.1050   23.9750 C   0  0  0  0  0  3  0  0  0  0  0  0
  -17.5910  -30.5960   24.1370 C   0  0  0  0  0  3  0  0  0  0  0  0
  -16.4930  -29.8200   23.7250 C   0  0  0  0  0  3  0  0  0  0  0  0
  -16.7080  -28.5550   23.1510 C   0  0  0  0  0  3  0  0  0  0  0  0
  -25.8740  -32.5100   23.8640 C   0  0  0  0  0  3  0  0  0  0  0  0
  -26.3900  -31.7470   25.1480 C   0  0  1  0  0  0  0  0  0  0  0  0
  -25.2950  -31.5230   26.2180 C   0  0  0  0  0  1  0  0  0  0  0  0
  -26.9660  -30.3640   24.7710 C   0  0  0  0  0  1  0  0  0  0  0  0
  -27.5490  -32.5400   25.7990 C   0  0  0  0  0  1  0  0  0  0  0  0
  -25.5680  -33.9140   24.1910 N   0  0  0  0  0  0  0  0  0  0  0  0
  -25.9020  -34.9660   23.4320 C   0  0  0  0  0  0  0  0  0  0  0  0
  -26.5720  -34.8590   22.4010 O   0  0  0  0  0  0  0  0  0  0  0  0
  -24.9730  -34.0740   24.9920 H   0  0  0  0  0  0  0  0  0  0  0  0
  -24.1790  -36.7650   23.0830 C   0  0  0  0  0  1  0  0  0  0  0  0
  -25.4200  -36.3560   23.8910 C   0  0  0  0  0  3  0  0  0  0  0  0
  -27.5610  -37.2330   24.7100 C   0  0  0  0  0  1  0  0  0  0  0  0
  -26.4560  -37.4050   23.7730 N   0  0  0  0  0  0  0  0  0  0  0  0
  -26.0550  -38.3280   23.9200 H   0  0  0  0  0  0  0  0  0  0  0  0
  -29.8740  -17.7340   20.7960 C   0  0  0  0  0  2  0  0  0  0  0  0
  -30.5130  -15.0090   20.4470 C   0  0  0  0  0  0  0  0  0  0  0  0
  -30.4490  -12.6470   19.5010 C   0  0  0  0  0  2  0  0  0  0  0  0
  -29.5410  -12.5860   18.2520 C   0  0  0  0  0  2  0  0  0  0  0  0
  -28.0650  -12.3750   18.6480 C   0  0  0  0  0  2  0  0  0  0  0  0
  -27.6230  -13.3000   19.8150 C   0  0  0  0  0  3  0  0  0  0  0  0
  -28.6530  -13.3150   20.9630 C   0  0  0  0  0  2  0  0  0  0  0  0
  -29.9340  -13.7390   20.3780 N   0  0  0  0  0  0  0  0  0  0  0  0
  -31.7280  -15.0870   20.2460 O   0  0  0  0  0  0  0  0  0  0  0  0
  -29.6910  -16.1700   20.5360 N   0  0  0  0  0  0  0  0  0  0  0  0
  -28.7190  -15.9080   20.5820 H   0  0  0  0  0  0  0  0  0  0  0  0
  -25.2240  -13.8820   20.4900 C   0  0  0  0  0  0  0  0  0  0  0  0
  -24.1530  -13.1090   20.8490 C   0  0  0  0  0  0  0  0  0  0  0  0
  -24.6220  -11.7600   20.8440 C   0  0  0  0  0  0  0  0  0  0  0  0
  -26.2750  -13.0010   20.2860 N   0  0  0  0  0  0  0  0  0  0  0  0
  -25.9210  -11.7200   20.5620 N   0  0  0  0  0  0  0  0  0  0  0  0
  -23.8930  -10.5000   21.0340 C   0  0  0  0  0  0  0  0  0  0  0  0
  -24.3010   -9.5400   21.9870 C   0  0  0  0  0  3  0  0  0  0  0  0
  -23.5670   -8.3460   22.1620 C   0  0  0  0  0  3  0  0  0  0  0  0
  -22.4110   -8.1020   21.3820 C   0  0  0  0  0  0  0  0  0  0  0  0
  -22.0220   -9.0500   20.4190 C   0  0  0  0  0  3  0  0  0  0  0  0
  -22.7570  -10.2350   20.2420 C   0  0  0  0  0  3  0  0  0  0  0  0
  -21.6520   -6.9590   21.4630 O   0  0  0  0  0  0  0  0  0  0  0  0
  -21.5760   -6.2260   22.6200 C   0  0  0  0  0  0  0  0  0  0  0  0
  -21.1310   -6.7930   23.8350 C   0  0  0  0  0  3  0  0  0  0  0  0
  -21.0020   -5.9850   24.9830 C   0  0  0  0  0  3  0  0  0  0  0  0
  -21.3120   -4.6130   24.9180 C   0  0  0  0  0  0  0  0  0  0  0  0
  -21.7530   -4.0470   23.7100 C   0  0  0  0  0  3  0  0  0  0  0  0
  -21.8850   -4.8530   22.5640 C   0  0  0  0  0  0  0  0  0  0  0  0
  -22.2860   -4.2970   21.3970 F   0  0  0  0  0  0  0  0  0  0  0  0
  -21.1840   -3.8370   26.0190 F   0  0  0  0  0  0  0  0  0  0  0  0
  -22.7480  -13.5870   21.0800 C   0  0  0  0  0  0  0  0  0  0  0  0
  -21.9960  -12.9030   21.9340 N   0  0  0  0  0  0  0  0  0  0  0  0
  -22.3230  -14.6050   20.5380 O   0  0  0  0  0  0  0  0  0  0  0  0
  -22.3510  -12.0840   22.4010 H   0  0  0  0  0  0  0  0  0  0  0  0
  -21.0510  -13.2060   22.1260 H   0  0  0  0  0  0  0  0  0  0  0  0
  -25.3820  -15.2510   20.3020 N   0  0  0  0  0  0  0  0  0  0  0  0
  -24.5950  -15.8870   20.3980 H   0  0  0  0  0  0  0  0  0  0  0  0
  -26.2120  -15.6970   19.9300 H   0  0  0  0  0  0  0  0  0  0  0  0
  1  2  1  0
  2  3  2  0
  2  7  1  0
  3 51  1  0
  4  6  1  0
  5  1  2  0
  5  6  1  0
  6  3  1  0
  8  7  1  0
  8  9  2  0
 10  9  1  0
 11 22  2  0
 12 10  1  0
 12 17  1  0
 13 21  1  0
 13 23  1  0
 14 20  1  0
 14 16  1  0
 15 21  1  0
 16 15  1  0
 17 16  2  0
 18 12  2  0
 19 18  1  0
 19 14  2  0
 20 13  1  0
 21 11  1  0
 23 25  2  0
 24 23  1  0
 26 24  1  0
 27 36  2  0
 27 32  1  0
 28 24  1  0
 28 32  1  0
 29 28  1  0
 30 31  1  0
 30 29  1  0
 31 27  1  0
 32 33  2  0
 33 34  1  0
 35 34  2  0
 36 35  1  0
 37 11  1  0
 37 42  1  0
 37 38  1  0
 38 41  1  1
 38 39  1  0
 40 38  1  0
 42 45  1  0
 43 47  1  0
 43 42  1  0
 44 43  2  0
 47 46  1  0
 49 47  1  0
 49 50  1  0
 49 48  1  0
 52 60  1  0
 53 58  1  0
 54 55  1  0
 54 53  1  0
 56 55  1  0
 56 65  1  0
 56 57  1  0
 58 52  1  0
 58 57  1  0
 59 52  2  0
 60 61  1  0
 60 51  1  0
 62 63  2  0
 63 82  1  0
 64 63  1  0
 64 67  1  0
 65 62  1  0
 65 66  1  0
 66 64  2  0
 67 68  1  0
 68 69  2  0
 70 73  1  0
 70 69  1  0
 71 70  2  0
 72 71  1  0
 72 67  2  0
 73 74  1  0
 74 75  1  0
 75 76  2  0
 77 76  1  0
 77 81  1  0
 78 77  2  0
 79 74  2  0
 79 78  1  0
 80 79  1  0
 82 83  1  0
 83 86  1  0
 83 85  1  0
 84 82  2  0
 87 88  1  0
 87 62  1  0
 89 87  1  0
M  ISO  4   9 101  10 101  52 100  60 100
M  END
>  <TORSDO>  (23) 
F 20

>  <SCORE>  (23) 
-14.176

>  <name>  (23) 
22

>  <ligand_id>  (23) 
22

>  <original_smiles>  (23) 
[H]c1nn(C([H])([H])[H])c(C([H])([H])N([H])C(=O)N2C([H])([H])C([H])([H])C([H])([H])C([H])(n3nc(-c4c([H])c([H])c(Oc5c([H])c([H])c(F)c([H])c5F)c([H])c4[H])c(C(=O)N([H])[H])c3N([H])[H])C2([H])[H])c1C([H])([H])C([H])([H])C([H])([H])Oc1c([H])c([H])c2c(c1[H])C([H])([H])N(C(=O)C([H])(N([H])C(=O)C([H])(N([H])C([H])([H])[H])C([H])([H])[H])C(C([H])([H])[H])(C([H])([H])[H])C([H])([H])[H])C([H])(C(=O)N([H])C1([H])c3c([H])c([H])c([H])c([H])c3C([H])([H])C([H])([H])C1([H])[H])C2([H])[H]

>  <smiles>  (23) 
[H]c1nn(C([H])([H])[H])c(C([H])([H])N([H])C(=O)N2C([H])([H])C([H])([H])C([H])([H])C([H])(n3nc(-c4c([H])c([H])c(Oc5c([H])c([H])c(F)c([H])c5F)c([H])c4[H])c(C(=O)N([H])[H])c3N([H])[H])C2([H])[H])c1C([H])([H])C([H])([H])C([H])([H])Oc1c([H])c([H])c2c(c1[H])C([H])([H])N(C(=O)C([H])(N([H])C(=O)C([H])(N([H])C([H])([H])[H])C([H])([H])[H])C(C([H])([H])[H])(C([H])([H])[H])C([H])([H])[H])C([H])(C(=O)N([H])C1([H])c3c([H])c([H])c([H])c([H])c3C([H])([H])C([H])([H])C1([H])[H])C2([H])[H]

$$$$
23:0:0
     RDKit          3D

 91 99  0  0  1  0  0  0  0  0999 V2000
  -27.1310  -22.0080   19.9080 C   0  0  0  0  0  3  0  0  0  0  0  0
  -28.5430  -21.9820   19.7240 C   0  0  0  0  0  0  0  0  0  0  0  0
  -28.8570  -20.6280   19.7430 C   0  0  0  0  0  0  0  0  0  0  0  0
  -27.4520  -18.5800   20.4230 C   0  0  0  0  0  1  0  0  0  0  0  0
  -26.6260  -20.8130   20.1470 N   0  0  0  0  0  0  0  0  0  0  0  0
  -27.6810  -19.9750   20.0940 N   0  0  0  0  0  0  0  0  0  0  0  0
  -29.4610  -23.1940   19.5700 C   0  0  0  0  0  2  0  0  0  0  0  0
  -28.8300  -24.6170   19.3290 C   0  0  0  0  0  2  0  0  0  0  0  0
  -28.3360  -25.4560   20.5520 C   0  0  0  0  0  2  0  0  0  0  0  0
  -28.5520  -26.9000   20.4460 O   0  0  0  0  0  0  0  0  0  0  0  0
  -24.7720  -32.1030   23.5970 C   0  0  0  0  0  0  0  0  0  0  0  0
  -27.4290  -27.7120   20.4160 C   0  0  0  0  0  0  0  0  0  0  0  0
  -23.6000  -30.7850   21.8680 C   0  0  0  0  0  3  0  0  0  0  0  0
  -25.0710  -29.2960   20.4120 C   0  0  0  0  0  0  0  0  0  0  0  0
  -26.1380  -31.1180   21.7470 C   0  0  0  0  0  2  0  0  0  0  0  0
  -26.2260  -29.7710   21.0490 C   0  0  0  0  0  0  0  0  0  0  0  0
  -27.4100  -28.9900   21.0400 C   0  0  0  0  0  3  0  0  0  0  0  0
  -26.2580  -27.2750   19.7560 C   0  0  0  0  0  3  0  0  0  0  0  0
  -25.0870  -28.0520   19.7570 C   0  0  0  0  0  3  0  0  0  0  0  0
  -23.8380  -30.1700   20.4650 C   0  0  0  0  0  2  0  0  0  0  0  0
  -24.8560  -31.3500   22.4620 N   0  0  0  0  0  0  0  0  0  0  0  0
  -23.6790  -32.3520   24.1260 O   0  0  0  0  0  0  0  0  0  0  0  0
  -22.9160  -29.7270   22.7670 C   0  0  0  0  0  0  0  0  0  0  0  0
  -21.5970  -29.5440   22.5860 N   0  0  0  0  0  0  0  0  0  0  0  0
  -23.5730  -29.0740   23.5810 O   0  0  0  0  0  0  0  0  0  0  0  0
  -21.1230  -30.1260   21.9100 H   0  0  0  0  0  0  0  0  0  0  0  0
  -18.2210  -28.2910   22.8990 C   0  0  0  0  0  0  0  0  0  0  0  0
  -20.7610  -28.5730   23.2940 C   0  0  0  0  0  3  0  0  0  0  0  0
  -20.9070  -27.1590   22.6840 C   0  0  0  0  0  2  0  0  0  0  0  0
  -19.8560  -26.8530   21.6110 C   0  0  0  0  0  2  0  0  0  0  0  0
  -18.4450  -26.9630   22.1960 C   0  0  0  0  0  2  0  0  0  0  0  0
  -19.3090  -29.0540   23.4010 C   0  0  0  0  0  0  0  0  0  0  0  0
  -19.0470  -30.2990   24.0140 C   0  0  0  0  0  3  0  0  0  0  0  0
  -17.7300  -30.7800   24.1330 C   0  0  0  0  0  3  0  0  0  0  0  0
  -16.6560  -30.0140   23.6480 C   0  0  0  0  0  3  0  0  0  0  0  0
  -16.9020  -28.7710   23.0370 C   0  0  0  0  0  3  0  0  0  0  0  0
  -26.0430  -32.7020   24.2740 C   0  0  0  0  0  3  0  0  0  0  0  0
  -25.7710  -34.1200   24.5540 N   0  0  0  0  0  0  0  0  0  0  0  0
  -26.1850  -35.1410   23.7900 C   0  0  0  0  0  0  0  0  0  0  0  0
  -26.9050  -34.9860   22.7990 O   0  0  0  0  0  0  0  0  0  0  0  0
  -25.1470  -34.3170   25.3220 H   0  0  0  0  0  0  0  0  0  0  0  0
  -24.5440  -36.9850   23.3020 C   0  0  0  0  0  1  0  0  0  0  0  0
  -25.7270  -36.5580   24.1860 C   0  0  0  0  0  3  0  0  0  0  0  0
  -27.8480  -37.3870   25.1030 C   0  0  0  0  0  1  0  0  0  0  0  0
  -26.8000  -37.5720   24.1040 N   0  0  0  0  0  0  0  0  0  0  0  0
  -26.4180  -38.5080   24.2140 H   0  0  0  0  0  0  0  0  0  0  0  0
  -26.4590  -31.9450   25.5950 C   0  0  1  0  0  0  0  0  0  0  0  0
  -25.2990  -31.7610   26.6000 C   0  0  0  0  0  1  0  0  0  0  0  0
  -27.0230  -30.5440   25.2640 C   0  0  0  0  0  1  0  0  0  0  0  0
  -27.5860  -32.7230   26.3140 C   0  0  0  0  0  1  0  0  0  0  0  0
  -30.1700  -19.8610   19.5750 C   0  0  0  0  0  2  0  0  0  0  0  0
  -30.0830  -18.3820   19.0590 C   0  0  0  0  0  2  0  0  0  0  0  0
  -31.2710  -17.4620   19.4830 C   0  0  0  0  0  2  0  0  0  0  0  0
  -31.6430  -14.9510   19.6110 C   0  0  0  0  0  0  0  0  0  0  0  0
  -31.3580  -12.5720   19.0220 C   0  0  0  0  0  2  0  0  0  0  0  0
  -30.3960  -12.4900   17.8170 C   0  0  0  0  0  2  0  0  0  0  0  0
  -28.9280  -12.4540   18.2900 C   0  0  0  0  0  2  0  0  0  0  0  0
  -28.6060  -13.5590   19.3320 C   0  0  0  0  0  3  0  0  0  0  0  0
  -29.6810  -13.6010   20.4410 C   0  0  0  0  0  2  0  0  0  0  0  0
  -30.9910  -13.7710   19.7910 N   0  0  0  0  0  0  0  0  0  0  0  0
  -32.7940  -15.0200   19.1680 O   0  0  0  0  0  0  0  0  0  0  0  0
  -30.8840  -16.0560   19.7540 N   0  0  0  0  0  0  0  0  0  0  0  0
  -29.9480  -15.8920   20.0910 H   0  0  0  0  0  0  0  0  0  0  0  0
  -26.3170  -14.3700   20.1870 C   0  0  0  0  0  0  0  0  0  0  0  0
  -25.2040  -13.6910   20.6060 C   0  0  0  0  0  0  0  0  0  0  0  0
  -25.5350  -12.3040   20.5310 C   0  0  0  0  0  0  0  0  0  0  0  0
  -27.2620  -13.4000   19.8860 N   0  0  0  0  0  0  0  0  0  0  0  0
  -26.7980  -12.1530   20.1500 N   0  0  0  0  0  0  0  0  0  0  0  0
  -24.7070  -11.1110   20.7410 C   0  0  0  0  0  0  0  0  0  0  0  0
  -25.0440  -10.1400   21.7120 C   0  0  0  0  0  3  0  0  0  0  0  0
  -24.2230   -9.0080   21.9070 C   0  0  0  0  0  3  0  0  0  0  0  0
  -23.0500   -8.8410   21.1340 C   0  0  0  0  0  0  0  0  0  0  0  0
  -22.7320   -9.7970   20.1530 C   0  0  0  0  0  3  0  0  0  0  0  0
  -23.5520  -10.9200   19.9550 C   0  0  0  0  0  3  0  0  0  0  0  0
  -22.2040   -7.7630   21.2400 O   0  0  0  0  0  0  0  0  0  0  0  0
  -21.9980   -7.1240   22.4370 C   0  0  0  0  0  0  0  0  0  0  0  0
  -21.4920   -7.8020   23.5680 C   0  0  0  0  0  3  0  0  0  0  0  0
  -21.2300   -7.0910   24.7570 C   0  0  0  0  0  3  0  0  0  0  0  0
  -21.4650   -5.7040   24.8140 C   0  0  0  0  0  0  0  0  0  0  0  0
  -21.9650   -5.0260   23.6890 C   0  0  0  0  0  3  0  0  0  0  0  0
  -22.2280   -5.7340   22.5020 C   0  0  0  0  0  0  0  0  0  0  0  0
  -22.6880   -5.0720   21.4130 F   0  0  0  0  0  0  0  0  0  0  0  0
  -21.2050   -5.0200   25.9530 F   0  0  0  0  0  0  0  0  0  0  0  0
  -23.8710  -14.2890   20.9600 C   0  0  0  0  0  0  0  0  0  0  0  0
  -23.1350  -13.6560   21.8660 N   0  0  0  0  0  0  0  0  0  0  0  0
  -23.4970  -15.3530   20.4680 O   0  0  0  0  0  0  0  0  0  0  0  0
  -23.4520  -12.7940   22.2840 H   0  0  0  0  0  0  0  0  0  0  0  0
  -22.2410  -14.0360   22.1450 H   0  0  0  0  0  0  0  0  0  0  0  0
  -26.5950  -15.7230   20.0130 N   0  0  0  0  0  0  0  0  0  0  0  0
  -25.8880  -16.4350   20.1550 H   0  0  0  0  0  0  0  0  0  0  0  0
  -27.4410  -16.0800   19.5890 H   0  0  0  0  0  0  0  0  0  0  0  0
  1  5  2  0
  2  3  2  0
  2  1  1  0
  3  6  1  0
  6  5  1  0
  6  4  1  0
  7  2  1  0
  8  7  1  0
  8  9  1  0
 10  9  1  0
 11 22  2  0
 12 10  1  0
 12 17  1  0
 13 21  1  0
 13 23  1  0
 14 20  1  0
 14 16  1  0
 15 21  1  0
 16 15  1  0
 17 16  2  0
 18 19  1  0
 18 12  2  0
 19 14  2  0
 20 13  1  0
 21 11  1  0
 23 25  2  0
 24 23  1  0
 26 24  1  0
 27 36  2  0
 27 32  1  0
 28 24  1  0
 28 32  1  0
 29 28  1  0
 30 31  1  0
 30 29  1  0
 31 27  1  0
 32 33  2  0
 33 34  1  0
 35 34  2  0
 36 35  1  0
 37 11  1  0
 37 38  1  0
 37 47  1  0
 38 41  1  0
 39 43  1  0
 39 38  1  0
 40 39  2  0
 43 42  1  0
 45 43  1  0
 45 46  1  0
 45 44  1  0
 47 50  1  1
 47 48  1  0
 49 47  1  0
 51  3  1  0
 52 53  1  0
 52 51  1  0
 53 62  1  0
 54 62  1  0
 54 60  1  0
 55 60  1  0
 56 57  1  0
 56 55  1  0
 58 57  1  0
 58 67  1  0
 58 59  1  0
 60 59  1  0
 61 54  2  0
 62 63  1  0
 64 65  2  0
 65 84  1  0
 66 65  1  0
 66 69  1  0
 67 68  1  0
 67 64  1  0
 68 66  2  0
 69 70  1  0
 70 71  2  0
 72 75  1  0
 72 71  1  0
 73 72  2  0
 74 73  1  0
 74 69  2  0
 75 76  1  0
 76 81  2  0
 76 77  1  0
 77 78  2  0
 78 79  1  0
 79 83  1  0
 80 79  2  0
 81 80  1  0
 82 81  1  0
 84 85  1  0
 85 88  1  0
 85 87  1  0
 86 84  2  0
 89 90  1  0
 89 64  1  0
 91 89  1  0
M  ISO  4   9 101  10 101  54 100  62 100
M  END
>  <TORSDO>  (24) 
F 22

>  <SCORE>  (24) 
-10.265

>  <name>  (24) 
23

>  <ligand_id>  (24) 
23

>  <original_smiles>  (24) 
[H]c1nn(C([H])([H])[H])c(C([H])([H])C([H])([H])C([H])([H])N([H])C(=O)N2C([H])([H])C([H])([H])C([H])([H])C([H])(n3nc(-c4c([H])c([H])c(Oc5c([H])c([H])c(F)c([H])c5F)c([H])c4[H])c(C(=O)N([H])[H])c3N([H])[H])C2([H])[H])c1C([H])([H])C([H])([H])C([H])([H])Oc1c([H])c([H])c2c(c1[H])C([H])([H])N(C(=O)C([H])(N([H])C(=O)C([H])(N([H])C([H])([H])[H])C([H])([H])[H])C(C([H])([H])[H])(C([H])([H])[H])C([H])([H])[H])C([H])(C(=O)N([H])C1([H])c3c([H])c([H])c([H])c([H])c3C([H])([H])C([H])([H])C1([H])[H])C2([H])[H]

>  <smiles>  (24) 
[H]c1nn(C([H])([H])[H])c(C([H])([H])C([H])([H])C([H])([H])N([H])C(=O)N2C([H])([H])C([H])([H])C([H])([H])C([H])(n3nc(-c4c([H])c([H])c(Oc5c([H])c([H])c(F)c([H])c5F)c([H])c4[H])c(C(=O)N([H])[H])c3N([H])[H])C2([H])[H])c1C([H])([H])C([H])([H])C([H])([H])Oc1c([H])c([H])c2c(c1[H])C([H])([H])N(C(=O)C([H])(N([H])C(=O)C([H])(N([H])C([H])([H])[H])C([H])([H])[H])C(C([H])([H])[H])(C([H])([H])[H])C([H])([H])[H])C([H])(C(=O)N([H])C1([H])c3c([H])c([H])c([H])c([H])c3C([H])([H])C([H])([H])C1([H])[H])C2([H])[H]

$$$$
24:0:0
     RDKit          3D

 93101  0  0  1  0  0  0  0  0999 V2000
  -29.9290  -22.9660   20.0770 C   0  0  0  0  0  3  0  0  0  0  0  0
  -29.9830  -21.6700   20.6000 C   0  0  0  0  0  3  0  0  0  0  0  0
  -30.6620  -23.2690   18.9080 C   0  0  0  0  0  0  0  0  0  0  0  0
  -31.3860  -22.2200   18.2960 C   0  0  0  0  0  0  0  0  0  0  0  0
  -30.7790  -20.7130   19.9620 C   0  0  0  0  0  0  0  0  0  0  0  0
  -32.1290  -22.4340   16.9850 C   0  0  0  0  0  1  0  0  0  0  0  0
  -31.4610  -20.9760   18.8220 N   0  0  0  0  0  0  0  0  0  0  0  0
  -30.6910  -24.6810   18.3160 C   0  0  0  0  0  2  0  0  0  0  0  0
  -30.1810  -25.7900   19.2460 C   0  0  0  0  0  2  0  0  0  0  0  0
  -28.6650  -26.0000   19.1630 C   0  0  0  0  0  2  0  0  0  0  0  0
  -28.3640  -26.8910   20.2150 O   0  0  0  0  0  0  0  0  0  0  0  0
  -24.5330  -31.9700   23.2580 C   0  0  0  0  0  0  0  0  0  0  0  0
  -27.1550  -27.5360   20.1970 C   0  0  0  0  0  0  0  0  0  0  0  0
  -23.3080  -30.5570   21.6330 C   0  0  0  0  0  3  0  0  0  0  0  0
  -24.7490  -29.0010   20.2140 C   0  0  0  0  0  0  0  0  0  0  0  0
  -25.8250  -30.9160   21.4130 C   0  0  0  0  0  2  0  0  0  0  0  0
  -25.9010  -29.5400   20.7950 C   0  0  0  0  0  0  0  0  0  0  0  0
  -27.1020  -28.8070   20.7980 C   0  0  0  0  0  3  0  0  0  0  0  0
  -25.9850  -26.9900   19.6210 C   0  0  0  0  0  3  0  0  0  0  0  0
  -24.7790  -27.7210   19.6310 C   0  0  0  0  0  3  0  0  0  0  0  0
  -23.5060  -29.8610   20.2590 C   0  0  0  0  0  2  0  0  0  0  0  0
  -24.5740  -31.1620   22.1610 N   0  0  0  0  0  0  0  0  0  0  0  0
  -23.4570  -32.2510   23.8020 O   0  0  0  0  0  0  0  0  0  0  0  0
  -22.6630  -29.5450   22.6060 C   0  0  0  0  0  0  0  0  0  0  0  0
  -21.3400  -29.3580   22.4800 N   0  0  0  0  0  0  0  0  0  0  0  0
  -23.3470  -28.9320   23.4310 O   0  0  0  0  0  0  0  0  0  0  0  0
  -20.8460  -29.9040   21.7860 H   0  0  0  0  0  0  0  0  0  0  0  0
  -17.9690  -28.1600   22.9820 C   0  0  0  0  0  0  0  0  0  0  0  0
  -20.5240  -28.4280   23.2630 C   0  0  0  0  0  3  0  0  0  0  0  0
  -20.6350  -26.9890   22.7100 C   0  0  0  0  0  2  0  0  0  0  0  0
  -19.5400  -26.6460   21.6960 C   0  0  0  0  0  2  0  0  0  0  0  0
  -18.1540  -26.8000   22.3300 C   0  0  0  0  0  2  0  0  0  0  0  0
  -19.0840  -28.9320   23.4050 C   0  0  0  0  0  0  0  0  0  0  0  0
  -18.8580  -30.2070   23.9680 C   0  0  0  0  0  3  0  0  0  0  0  0
  -17.5520  -30.7080   24.1170 C   0  0  0  0  0  3  0  0  0  0  0  0
  -16.4520  -29.9330   23.7100 C   0  0  0  0  0  3  0  0  0  0  0  0
  -16.6630  -28.6590   23.1500 C   0  0  0  0  0  3  0  0  0  0  0  0
  -25.8290  -32.6010   23.8600 C   0  0  0  0  0  3  0  0  0  0  0  0
  -25.5300  -34.0010   24.1820 N   0  0  0  0  0  0  0  0  0  0  0  0
  -25.8660  -35.0450   23.4140 C   0  0  0  0  0  0  0  0  0  0  0  0
  -26.5370  -34.9320   22.3840 O   0  0  0  0  0  0  0  0  0  0  0  0
  -24.9390  -34.1680   24.9840 H   0  0  0  0  0  0  0  0  0  0  0  0
  -24.1500  -36.8430   23.0420 C   0  0  0  0  0  1  0  0  0  0  0  0
  -25.3840  -36.4380   23.8640 C   0  0  0  0  0  3  0  0  0  0  0  0
  -27.5210  -37.3080   24.7020 C   0  0  0  0  0  1  0  0  0  0  0  0
  -26.4230  -37.4870   23.7540 N   0  0  0  0  0  0  0  0  0  0  0  0
  -26.0200  -38.4090   23.9060 H   0  0  0  0  0  0  0  0  0  0  0  0
  -26.3620  -31.8350   25.1310 C   0  0  1  0  0  0  0  0  0  0  0  0
  -25.2820  -31.5990   26.2130 C   0  0  0  0  0  1  0  0  0  0  0  0
  -26.9410  -30.4580   24.7310 C   0  0  0  0  0  1  0  0  0  0  0  0
  -27.5210  -32.6320   25.7730 C   0  0  0  0  0  1  0  0  0  0  0  0
  -30.8650  -19.4640   20.5370 O   0  0  0  0  0  0  0  0  0  0  0  0
  -31.7800  -18.5230   19.9940 C   0  0  0  0  0  2  0  0  0  0  0  0
  -31.7870  -17.2680   20.8830 C   0  0  0  0  0  2  0  0  0  0  0  0
  -30.4130  -16.5510   20.9380 C   0  0  0  0  0  2  0  0  0  0  0  0
  -30.7770  -14.2930   20.0860 C   0  0  0  0  0  0  0  0  0  0  0  0
  -30.2250  -12.2770   18.7870 C   0  0  0  0  0  2  0  0  0  0  0  0
  -29.2100  -12.5820   17.6710 C   0  0  0  0  0  2  0  0  0  0  0  0
  -27.7710  -12.4630   18.2030 C   0  0  0  0  0  2  0  0  0  0  0  0
  -27.5590  -13.2480   19.5250 C   0  0  0  0  0  3  0  0  0  0  0  0
  -28.6830  -12.9490   20.5450 C   0  0  0  0  0  2  0  0  0  0  0  0
  -29.9890  -13.1980   19.9080 N   0  0  0  0  0  0  0  0  0  0  0  0
  -31.6760  -14.5900   19.2920 O   0  0  0  0  0  0  0  0  0  0  0  0
  -30.7800  -14.6710   22.5080 C   0  0  0  0  0  1  0  0  0  0  0  0
  -30.4930  -15.0970   21.1340 N   0  0  0  0  0  0  0  0  0  0  0  0
  -25.2140  -13.8780   20.3910 C   0  0  0  0  0  0  0  0  0  0  0  0
  -24.1660  -13.1150   20.8330 C   0  0  0  0  0  0  0  0  0  0  0  0
  -24.6100  -11.7590   20.7660 C   0  0  0  0  0  0  0  0  0  0  0  0
  -26.2340  -12.9860   20.0920 N   0  0  0  0  0  0  0  0  0  0  0  0
  -25.8750  -11.7070   20.3700 N   0  0  0  0  0  0  0  0  0  0  0  0
  -23.8850  -10.5040   21.0010 C   0  0  0  0  0  0  0  0  0  0  0  0
  -24.3670   -9.5330   21.9050 C   0  0  0  0  0  3  0  0  0  0  0  0
  -23.6460   -8.3420   22.1300 C   0  0  0  0  0  3  0  0  0  0  0  0
  -22.4250   -8.1130   21.4520 C   0  0  0  0  0  0  0  0  0  0  0  0
  -21.9590   -9.0740   20.5350 C   0  0  0  0  0  3  0  0  0  0  0  0
  -22.6820  -10.2570   20.3100 C   0  0  0  0  0  3  0  0  0  0  0  0
  -21.6660   -6.9760   21.5890 O   0  0  0  0  0  0  0  0  0  0  0  0
  -21.6840   -6.2330   22.7430 C   0  0  0  0  0  0  0  0  0  0  0  0
  -21.3650   -6.7990   23.9980 C   0  0  0  0  0  3  0  0  0  0  0  0
  -21.3270   -5.9850   25.1470 C   0  0  0  0  0  3  0  0  0  0  0  0
  -21.5960   -4.6070   25.0450 C   0  0  0  0  0  0  0  0  0  0  0  0
  -21.9050   -4.0410   23.7960 C   0  0  0  0  0  3  0  0  0  0  0  0
  -21.9450   -4.8520   22.6470 C   0  0  0  0  0  0  0  0  0  0  0  0
  -22.2230   -4.2980   21.4430 F   0  0  0  0  0  0  0  0  0  0  0  0
  -21.5520   -3.8240   26.1470 F   0  0  0  0  0  0  0  0  0  0  0  0
  -22.7950  -13.6040   21.2040 C   0  0  0  0  0  0  0  0  0  0  0  0
  -22.1290  -12.9190   22.1260 N   0  0  0  0  0  0  0  0  0  0  0  0
  -22.3260  -14.6290   20.7110 O   0  0  0  0  0  0  0  0  0  0  0  0
  -22.5240  -12.0930   22.5530 H   0  0  0  0  0  0  0  0  0  0  0  0
  -21.2100  -13.2260   22.4110 H   0  0  0  0  0  0  0  0  0  0  0  0
  -25.3850  -15.2470   20.2070 N   0  0  0  0  0  0  0  0  0  0  0  0
  -24.6520  -15.9230   20.3990 H   0  0  0  0  0  0  0  0  0  0  0  0
  -26.2280  -15.6780   19.8480 H   0  0  0  0  0  0  0  0  0  0  0  0
  1  2  2  0
  3  1  1  0
  4  7  1  0
  4  3  2  0
  5 52  1  0
  5  2  1  0
  6  4  1  0
  7  5  2  0
  8  3  1  0
  8  9  1  0
 10  9  1  0
 10 11  1  0
 12 23  2  0
 13 11  1  0
 13 18  1  0
 14 22  1  0
 14 24  1  0
 15 21  1  0
 15 17  1  0
 16 22  1  0
 17 18  2  0
 17 16  1  0
 19 20  1  0
 19 13  2  0
 20 15  2  0
 21 14  1  0
 22 12  1  0
 24 26  2  0
 25 24  1  0
 27 25  1  0
 28 37  2  0
 28 33  1  0
 29 25  1  0
 29 33  1  0
 30 29  1  0
 31 32  1  0
 31 30  1  0
 32 28  1  0
 33 34  2  0
 34 35  1  0
 36 35  2  0
 37 36  1  0
 38 12  1  0
 38 39  1  0
 38 48  1  0
 39 42  1  0
 40 44  1  0
 40 39  1  0
 41 40  2  0
 44 43  1  0
 46 44  1  0
 46 47  1  0
 46 45  1  0
 48 51  1  1
 48 49  1  0
 50 48  1  0
 53 52  1  0
 53 54  1  0
 54 55  1  0
 55 65  1  0
 56 65  1  0
 57 62  1  0
 58 59  1  0
 58 57  1  0
 60 59  1  0
 60 69  1  0
 60 61  1  0
 62 56  1  0
 62 61  1  0
 63 56  2  0
 65 64  1  0
 66 67  2  0
 67 86  1  0
 68 67  1  0
 68 71  1  0
 69 70  1  0
 69 66  1  0
 70 68  2  0
 71 72  1  0
 72 73  2  0
 74 77  1  0
 74 73  1  0
 75 74  2  0
 76 75  1  0
 76 71  2  0
 77 78  1  0
 78 79  1  0
 79 80  2  0
 81 80  1  0
 81 85  1  0
 82 81  2  0
 83 78  2  0
 83 82  1  0
 84 83  1  0
 86 87  1  0
 87 90  1  0
 87 89  1  0
 88 86  2  0
 91 66  1  0
 91 92  1  0
 93 91  1  0
M  ISO  4  10 101  11 101  56 100  65 100
M  END
>  <TORSDO>  (25) 
F 23

>  <SCORE>  (25) 
-11.355

>  <name>  (25) 
24

>  <ligand_id>  (25) 
24

>  <original_smiles>  (25) 
[H]c1c(OC([H])([H])C([H])([H])C([H])([H])N(C(=O)N2C([H])([H])C([H])([H])C([H])([H])C([H])(n3nc(-c4c([H])c([H])c(Oc5c([H])c([H])c(F)c([H])c5F)c([H])c4[H])c(C(=O)N([H])[H])c3N([H])[H])C2([H])[H])C([H])([H])[H])nc(C([H])([H])[H])c(C([H])([H])C([H])([H])C([H])([H])Oc2c([H])c([H])c3c(c2[H])C([H])([H])N(C(=O)C([H])(N([H])C(=O)C([H])(N([H])C([H])([H])[H])C([H])([H])[H])C(C([H])([H])[H])(C([H])([H])[H])C([H])([H])[H])C([H])(C(=O)N([H])C2([H])c4c([H])c([H])c([H])c([H])c4C([H])([H])C([H])([H])C2([H])[H])C3([H])[H])c1[H]

>  <smiles>  (25) 
[H]c1c(OC([H])([H])C([H])([H])C([H])([H])N(C(=O)N2C([H])([H])C([H])([H])C([H])([H])C([H])(n3nc(-c4c([H])c([H])c(Oc5c([H])c([H])c(F)c([H])c5F)c([H])c4[H])c(C(=O)N([H])[H])c3N([H])[H])C2([H])[H])C([H])([H])[H])nc(C([H])([H])[H])c(C([H])([H])C([H])([H])C([H])([H])Oc2c([H])c([H])c3c(c2[H])C([H])([H])N(C(=O)C([H])(N([H])C(=O)C([H])(N([H])C([H])([H])[H])C([H])([H])[H])C(C([H])([H])[H])(C([H])([H])[H])C([H])([H])[H])C([H])(C(=O)N([H])C2([H])c4c([H])c([H])c([H])c([H])c4C([H])([H])C([H])([H])C2([H])[H])C3([H])[H])c1[H]

$$$$
25:0:0
     RDKit          3D

 97105  0  0  1  0  0  0  0  0999 V2000
  -28.5350  -21.7620   19.7190 C   0  0  0  0  0  3  0  0  0  0  0  0
  -29.5460  -20.4720   21.5220 C   0  0  0  0  0  3  0  0  0  0  0  0
  -28.2770  -20.5740   19.0150 C   0  0  0  0  0  3  0  0  0  0  0  0
  -29.3220  -19.2810   20.7990 C   0  0  0  0  0  3  0  0  0  0  0  0
  -29.1200  -21.7150   21.0000 C   0  0  0  0  0  0  0  0  0  0  0  0
  -28.6500  -19.3220   19.5560 C   0  0  0  0  0  0  0  0  0  0  0  0
  -29.2540  -22.9740   21.8480 C   0  0  0  0  0  2  0  0  0  0  0  0
  -28.3240  -24.1450   21.4350 C   0  0  0  0  0  2  0  0  0  0  0  0
  -28.8120  -24.9540   20.2080 C   0  0  0  0  0  2  0  0  0  0  0  0
  -28.7380  -26.3630   20.4430 O   0  0  0  0  0  0  0  0  0  0  0  0
  -24.7930  -31.5990   23.1530 C   0  0  0  0  0  0  0  0  0  0  0  0
  -27.5280  -27.0190   20.3830 C   0  0  0  0  0  0  0  0  0  0  0  0
  -23.6340  -30.1150   21.5500 C   0  0  0  0  0  3  0  0  0  0  0  0
  -25.1230  -28.5060   20.2500 C   0  0  0  0  0  0  0  0  0  0  0  0
  -26.1630  -30.4680   21.4050 C   0  0  0  0  0  2  0  0  0  0  0  0
  -26.2620  -29.0680   20.8380 C   0  0  0  0  0  0  0  0  0  0  0  0
  -27.4640  -28.3340   20.8910 C   0  0  0  0  0  3  0  0  0  0  0  0
  -26.3620  -26.4620   19.8030 C   0  0  0  0  0  3  0  0  0  0  0  0
  -25.1670  -27.2020   19.7300 C   0  0  0  0  0  3  0  0  0  0  0  0
  -23.8800  -29.3640   20.2130 C   0  0  0  0  0  2  0  0  0  0  0  0
  -24.8800  -30.7450   22.0950 N   0  0  0  0  0  0  0  0  0  0  0  0
  -23.6960  -31.8980   23.6470 O   0  0  0  0  0  0  0  0  0  0  0  0
  -22.9600  -29.1400   22.5430 C   0  0  0  0  0  0  0  0  0  0  0  0
  -21.6520  -28.9010   22.3490 N   0  0  0  0  0  0  0  0  0  0  0  0
  -23.6100  -28.5980   23.4430 O   0  0  0  0  0  0  0  0  0  0  0  0
  -21.1910  -29.3870   21.5940 H   0  0  0  0  0  0  0  0  0  0  0  0
  -18.2910  -27.6330   22.7280 C   0  0  0  0  0  0  0  0  0  0  0  0
  -20.8180  -27.9940   23.1340 C   0  0  0  0  0  3  0  0  0  0  0  0
  -20.9970  -26.5310   22.6670 C   0  0  0  0  0  2  0  0  0  0  0  0
  -19.9690  -26.1000   21.6190 C   0  0  0  0  0  2  0  0  0  0  0  0
  -18.5490  -26.2450   22.1670 C   0  0  0  0  0  2  0  0  0  0  0  0
  -19.3590  -28.4620   23.1670 C   0  0  0  0  0  0  0  0  0  0  0  0
  -19.0650  -29.7560   23.6500 C   0  0  0  0  0  3  0  0  0  0  0  0
  -17.7360  -30.2220   23.7030 C   0  0  0  0  0  3  0  0  0  0  0  0
  -16.6850  -29.3930   23.2780 C   0  0  0  0  0  3  0  0  0  0  0  0
  -16.9620  -28.1020   22.7950 C   0  0  0  0  0  3  0  0  0  0  0  0
  -26.0640  -32.2620   23.7740 C   0  0  0  0  0  3  0  0  0  0  0  0
  -26.6180  -31.4870   25.0300 C   0  0  1  0  0  0  0  0  0  0  0  0
  -25.5310  -31.1340   26.0700 C   0  0  0  0  0  1  0  0  0  0  0  0
  -27.3040  -30.1690   24.6000 C   0  0  0  0  0  1  0  0  0  0  0  0
  -27.7010  -32.3370   25.7340 C   0  0  0  0  0  1  0  0  0  0  0  0
  -25.7130  -33.6430   24.1290 N   0  0  0  0  0  0  0  0  0  0  0  0
  -25.9810  -34.7160   23.3710 C   0  0  0  0  0  0  0  0  0  0  0  0
  -26.6220  -34.6460   22.3180 O   0  0  0  0  0  0  0  0  0  0  0  0
  -25.1430  -33.7690   24.9530 H   0  0  0  0  0  0  0  0  0  0  0  0
  -24.1560  -36.4230   23.1020 C   0  0  0  0  0  1  0  0  0  0  0  0
  -25.4520  -36.0800   23.8550 C   0  0  0  0  0  3  0  0  0  0  0  0
  -27.5840  -37.0570   24.5840 C   0  0  0  0  0  1  0  0  0  0  0  0
  -26.4300  -37.1780   23.6960 N   0  0  0  0  0  0  0  0  0  0  0  0
  -25.9900  -38.0780   23.8650 H   0  0  0  0  0  0  0  0  0  0  0  0
  -28.2130  -18.0460   18.8360 C   0  0  0  0  0  3  0  0  0  0  0  0
  -25.8530  -19.1540   18.6190 C   0  0  0  0  0  1  0  0  0  0  0  0
  -26.1320  -17.1100   20.1120 C   0  0  0  0  0  1  0  0  0  0  0  0
  -26.6600  -17.8630   18.8780 C   0  0  0  0  0  3  0  0  0  0  0  0
  -29.0970  -16.7530   19.0530 C   0  0  0  0  0  2  0  0  0  0  0  0
  -30.6330  -16.8280   18.7450 C   0  0  0  0  0  3  0  0  0  0  0  0
  -32.9540  -15.9990   18.3010 C   0  0  0  0  0  1  0  0  0  0  0  0
  -31.1510  -14.7240   17.2920 C   0  0  0  0  0  1  0  0  0  0  0  0
  -31.4940  -15.4840   18.5890 C   0  0  2  0  0  0  0  0  0  0  0  0
  -31.6190  -14.4180   19.7830 C   0  0  0  0  0  0  0  0  0  0  0  0
  -31.2710  -12.0380   19.3220 C   0  0  0  0  0  2  0  0  0  0  0  0
  -30.3520  -11.7050   18.1280 C   0  0  0  0  0  2  0  0  0  0  0  0
  -28.8640  -11.7850   18.5100 C   0  0  0  0  0  2  0  0  0  0  0  0
  -28.4770  -12.9710   19.4300 C   0  0  0  0  0  3  0  0  0  0  0  0
  -29.5110  -13.1990   20.5470 C   0  0  0  0  0  2  0  0  0  0  0  0
  -30.8260  -13.3110   19.8970 N   0  0  0  0  0  0  0  0  0  0  0  0
  -32.7580  -14.3360   20.2190 O   0  0  0  0  0  0  0  0  0  0  0  0
  -26.1130  -13.7420   20.0760 C   0  0  0  0  0  0  0  0  0  0  0  0
  -25.0050  -13.0660   20.4970 C   0  0  0  0  0  0  0  0  0  0  0  0
  -25.3910  -11.6920   20.5680 C   0  0  0  0  0  0  0  0  0  0  0  0
  -27.1210  -12.8030   19.9450 N   0  0  0  0  0  0  0  0  0  0  0  0
  -26.6860  -11.5680   20.3110 N   0  0  0  0  0  0  0  0  0  0  0  0
  -24.5870  -10.4860   20.8030 C   0  0  0  0  0  0  0  0  0  0  0  0
  -24.9670   -9.5240   21.7660 C   0  0  0  0  0  3  0  0  0  0  0  0
  -24.1770   -8.3750   21.9830 C   0  0  0  0  0  3  0  0  0  0  0  0
  -22.9870   -8.1880   21.2460 C   0  0  0  0  0  0  0  0  0  0  0  0
  -22.6210   -9.1360   20.2740 C   0  0  0  0  0  3  0  0  0  0  0  0
  -23.4110  -10.2760   20.0520 C   0  0  0  0  0  3  0  0  0  0  0  0
  -22.1590   -7.1010   21.3850 O   0  0  0  0  0  0  0  0  0  0  0  0
  -22.0290   -6.4450   22.5800 C   0  0  0  0  0  0  0  0  0  0  0  0
  -21.6010   -7.1030   23.7530 C   0  0  0  0  0  3  0  0  0  0  0  0
  -21.4200   -6.3730   24.9450 C   0  0  0  0  0  3  0  0  0  0  0  0
  -21.6550   -4.9840   24.9640 C   0  0  0  0  0  0  0  0  0  0  0  0
  -22.0750   -4.3240   23.7950 C   0  0  0  0  0  3  0  0  0  0  0  0
  -22.2600   -5.0530   22.6080 C   0  0  0  0  0  0  0  0  0  0  0  0
  -22.6480   -4.4110   21.4800 F   0  0  0  0  0  0  0  0  0  0  0  0
  -21.4740   -4.2800   26.1050 F   0  0  0  0  0  0  0  0  0  0  0  0
  -23.6280  -13.6360   20.7000 C   0  0  0  0  0  0  0  0  0  0  0  0
  -22.8470  -13.0560   21.6020 N   0  0  0  0  0  0  0  0  0  0  0  0
  -23.2560  -14.6390   20.0880 O   0  0  0  0  0  0  0  0  0  0  0  0
  -23.1510  -12.2440   22.1230 H   0  0  0  0  0  0  0  0  0  0  0  0
  -21.9190  -13.4230   21.7740 H   0  0  0  0  0  0  0  0  0  0  0  0
  -26.3410  -15.0620   19.7260 N   0  0  0  0  0  0  0  0  0  0  0  0
  -25.5620  -15.6970   19.6060 H   0  0  0  0  0  0  0  0  0  0  0  0
  -27.1730  -15.3520   19.2300 H   0  0  0  0  0  0  0  0  0  0  0  0
  -30.2100  -17.8800   16.3180 C   0  0  0  0  0  1  0  0  0  0  0  0
  -31.0030  -17.8880   17.6430 C   0  0  0  0  0  2  0  0  0  0  0  0
  1  5  1  0
  3  6  1  0
  3  1  2  0
  4  2  1  0
  5  2  2  0
  5  7  1  0
  6  4  2  0
  8  7  1  0
  9 10  1  0
  9  8  1  0
 11 22  2  0
 12 10  1  0
 12 17  1  0
 13 21  1  0
 13 23  1  0
 14 16  1  0
 15 21  1  0
 16 17  2  0
 16 15  1  0
 18 12  2  0
 19 18  1  0
 19 14  2  0
 20 14  1  0
 20 13  1  0
 21 11  1  0
 23 25  2  0
 24 23  1  0
 26 24  1  0
 27 36  2  0
 27 32  1  0
 28 24  1  0
 28 32  1  0
 29 28  1  0
 30 31  1  0
 30 29  1  0
 31 27  1  0
 32 33  2  0
 33 34  1  0
 35 34  2  0
 36 35  1  0
 37 11  1  0
 37 42  1  0
 37 38  1  0
 38 41  1  1
 38 39  1  0
 40 38  1  0
 42 45  1  0
 43 47  1  0
 43 42  1  0
 44 43  2  0
 47 46  1  0
 49 47  1  0
 49 50  1  0
 49 48  1  0
 51 54  1  0
 51 55  1  0
 51  6  1  0
 52 54  1  0
 54 53  1  0
 56 97  1  0
 56 55  1  0
 59 57  1  6
 58 59  1  0
 59 56  1  0
 59 60  1  0
 60 66  1  0
 60 67  2  0
 61 66  1  0
 62 63  1  0
 62 61  1  0
 64 63  1  0
 64 71  1  0
 64 65  1  0
 66 65  1  0
 68 69  2  0
 69 70  1  0
 69 88  1  0
 70 73  1  0
 71 68  1  0
 71 72  1  0
 72 70  2  0
 73 74  1  0
 74 75  2  0
 76 79  1  0
 76 75  1  0
 77 76  2  0
 78 77  1  0
 78 73  2  0
 79 80  1  0
 80 85  2  0
 80 81  1  0
 81 82  2  0
 82 83  1  0
 83 87  1  0
 84 83  2  0
 85 84  1  0
 86 85  1  0
 88 89  1  0
 89 92  1  0
 89 91  1  0
 90 88  2  0
 93 68  1  0
 94 93  1  0
 95 93  1  0
 96 97  1  0
M  ISO  4   9 101  10 101  59 100  60 100
M  END
>  <TORSDO>  (26) 
F 25

>  <SCORE>  (26) 
-9.752

>  <name>  (26) 
25

>  <ligand_id>  (26) 
25

>  <original_smiles>  (26) 
[H]c1c([H])c([H])c2c(c1[H])C([H])([H])C([H])([H])C([H])([H])C2([H])N([H])C(=O)C1([H])N(C(=O)C([H])(N([H])C(=O)C([H])(N([H])C([H])([H])[H])C([H])([H])[H])C(C([H])([H])[H])(C([H])([H])[H])C([H])([H])[H])C([H])([H])c2c([H])c(OC([H])([H])C([H])([H])C([H])([H])c3c([H])c([H])c(C([H])(C([H])([H])C([H])(C([H])([H])C([H])([H])[H])C(C(=O)N4C([H])([H])C([H])([H])C([H])([H])C([H])(n5nc(-c6c([H])c([H])c(Oc7c([H])c([H])c(F)c([H])c7F)c([H])c6[H])c(C(=O)N([H])[H])c5N([H])[H])C4([H])[H])(C([H])([H])[H])C([H])([H])[H])C([H])(C([H])([H])[H])C([H])([H])[H])c([H])c3[H])c([H])c([H])c2C1([H])[H]

>  <smiles>  (26) 
[H]c1c([H])c([H])c2c(c1[H])C([H])([H])C([H])([H])C([H])([H])C2([H])N([H])C(=O)C1([H])N(C(=O)C([H])(N([H])C(=O)C([H])(N([H])C([H])([H])[H])C([H])([H])[H])C(C([H])([H])[H])(C([H])([H])[H])C([H])([H])[H])C([H])([H])c2c([H])c(OC([H])([H])C([H])([H])C([H])([H])c3c([H])c([H])c(C([H])(C([H])([H])C([H])(C([H])([H])C([H])([H])[H])C(C(=O)N4C([H])([H])C([H])([H])C([H])([H])C([H])(n5nc(-c6c([H])c([H])c(Oc7c([H])c([H])c(F)c([H])c7F)c([H])c6[H])c(C(=O)N([H])[H])c5N([H])[H])C4([H])[H])(C([H])([H])[H])C([H])([H])[H])C([H])(C([H])([H])[H])C([H])([H])[H])c([H])c3[H])c([H])c([H])c2C1([H])[H]

$$$$
26:0:0
     RDKit          3D

 86 93  0  0  1  0  0  0  0  0999 V2000
  -29.1030  -20.5380   19.9800 C   0  0  0  0  0  2  0  0  0  0  0  0
  -28.3210  -22.2130   20.4970 C   0  0  0  0  0  2  0  0  0  0  0  0
  -28.0930  -24.0170   19.8820 C   0  0  0  0  0  2  0  0  0  0  0  0
  -28.0120  -25.6840   20.3820 O   0  0  0  0  0  0  0  0  0  0  0  0
  -24.5510  -31.9430   23.2170 C   0  0  0  0  0  0  0  0  0  0  0  0
  -27.0460  -26.8760   20.2440 C   0  0  0  0  0  0  0  0  0  0  0  0
  -23.3510  -30.5390   21.5930 C   0  0  0  0  0  3  0  0  0  0  0  0
  -24.7850  -28.8860   20.1780 C   0  0  0  0  0  0  0  0  0  0  0  0
  -25.9260  -30.6840   21.4560 C   0  0  0  0  0  2  0  0  0  0  0  0
  -25.9790  -29.2510   20.8090 C   0  0  0  0  0  0  0  0  0  0  0  0
  -27.0930  -28.2680   20.8170 C   0  0  0  0  0  3  0  0  0  0  0  0
  -25.8280  -26.7120   19.5420 C   0  0  0  0  0  3  0  0  0  0  0  0
  -24.7460  -27.6420   19.5210 C   0  0  0  0  0  3  0  0  0  0  0  0
  -23.5790  -29.8340   20.2240 C   0  0  0  0  0  2  0  0  0  0  0  0
  -24.6320  -31.0880   22.1410 N   0  0  0  0  0  0  0  0  0  0  0  0
  -23.4630  -32.2490   23.7320 O   0  0  0  0  0  0  0  0  0  0  0  0
  -22.6390  -29.5680   22.5740 C   0  0  0  0  0  0  0  0  0  0  0  0
  -21.3060  -29.4160   22.4570 N   0  0  0  0  0  0  0  0  0  0  0  0
  -23.2990  -28.9480   23.4130 O   0  0  0  0  0  0  0  0  0  0  0  0
  -20.8250  -29.9660   21.7590 H   0  0  0  0  0  0  0  0  0  0  0  0
  -17.9180  -28.2180   22.9910 C   0  0  0  0  0  0  0  0  0  0  0  0
  -20.4810  -28.4880   23.2410 C   0  0  0  0  0  3  0  0  0  0  0  0
  -20.5780  -27.0490   22.6800 C   0  0  0  0  0  2  0  0  0  0  0  0
  -19.4730  -26.7180   21.6730 C   0  0  0  0  0  2  0  0  0  0  0  0
  -18.0940  -26.8650   22.3200 C   0  0  0  0  0  2  0  0  0  0  0  0
  -19.0390  -28.9870   23.4080 C   0  0  0  0  0  0  0  0  0  0  0  0
  -18.8170  -30.2480   24.0010 C   0  0  0  0  0  3  0  0  0  0  0  0
  -17.5110  -30.7440   24.1760 C   0  0  0  0  0  3  0  0  0  0  0  0
  -16.4060  -29.9740   23.7720 C   0  0  0  0  0  3  0  0  0  0  0  0
  -16.6110  -28.7120   23.1850 C   0  0  0  0  0  3  0  0  0  0  0  0
  -25.8210  -32.5930   23.8450 C   0  0  0  0  0  3  0  0  0  0  0  0
  -25.5110  -34.0020   24.1540 N   0  0  0  0  0  0  0  0  0  0  0  0
  -25.8640  -35.0540   23.4020 C   0  0  0  0  0  0  0  0  0  0  0  0
  -26.5440  -34.9380   22.3800 O   0  0  0  0  0  0  0  0  0  0  0  0
  -24.9070  -34.1650   24.9470 H   0  0  0  0  0  0  0  0  0  0  0  0
  -24.1770  -36.8870   23.0210 C   0  0  0  0  0  1  0  0  0  0  0  0
  -25.3950  -36.4550   23.8530 C   0  0  0  0  0  3  0  0  0  0  0  0
  -27.5260  -37.3150   24.7260 C   0  0  0  0  0  1  0  0  0  0  0  0
  -26.4490  -37.4900   23.7550 N   0  0  0  0  0  0  0  0  0  0  0  0
  -26.0540  -38.4190   23.8840 H   0  0  0  0  0  0  0  0  0  0  0  0
  -26.3100  -31.8550   25.1540 C   0  0  1  0  0  0  0  0  0  0  0  0
  -25.1990  -31.6560   26.2130 C   0  0  0  0  0  1  0  0  0  0  0  0
  -26.8860  -30.4620   24.8220 C   0  0  0  0  0  1  0  0  0  0  0  0
  -27.4580  -32.6570   25.8110 C   0  0  0  0  0  1  0  0  0  0  0  0
  -28.9600  -18.6280   20.2470 C   0  0  0  0  0  2  0  0  0  0  0  0
  -30.3960  -15.7110   20.0800 C   0  0  0  0  0  0  0  0  0  0  0  0
  -30.2830  -13.2060   19.2210 C   0  0  0  0  0  2  0  0  0  0  0  0
  -29.3670  -12.8190   18.0360 C   0  0  0  0  0  2  0  0  0  0  0  0
  -27.9700  -12.4650   18.5490 C   0  0  0  0  0  2  0  0  0  0  0  0
  -27.4980  -13.4670   19.6290 C   0  0  0  0  0  3  0  0  0  0  0  0
  -28.5640  -13.8230   20.6980 C   0  0  0  0  0  2  0  0  0  0  0  0
  -29.7100  -14.4250   19.9740 N   0  0  0  0  0  0  0  0  0  0  0  0
  -31.5950  -15.4120   19.8990 O   0  0  0  0  0  0  0  0  0  0  0  0
  -30.0600  -17.2510   20.2530 N   0  0  0  0  0  0  0  0  0  0  0  0
  -25.1600  -13.9560   20.4770 C   0  0  0  0  0  0  0  0  0  0  0  0
  -24.1240  -13.1570   20.8680 C   0  0  0  0  0  0  0  0  0  0  0  0
  -24.6150  -11.8150   20.8150 C   0  0  0  0  0  0  0  0  0  0  0  0
  -26.2100  -13.1040   20.1980 N   0  0  0  0  0  0  0  0  0  0  0  0
  -25.8990  -11.8080   20.4680 N   0  0  0  0  0  0  0  0  0  0  0  0
  -23.9120  -10.5390   21.0160 C   0  0  0  0  0  0  0  0  0  0  0  0
  -24.3600   -9.5870   21.9570 C   0  0  0  0  0  3  0  0  0  0  0  0
  -23.6500   -8.3810   22.1500 C   0  0  0  0  0  3  0  0  0  0  0  0
  -22.4790   -8.1200   21.4010 C   0  0  0  0  0  0  0  0  0  0  0  0
  -22.0490   -9.0610   20.4490 C   0  0  0  0  0  3  0  0  0  0  0  0
  -22.7600  -10.2580   20.2540 C   0  0  0  0  0  3  0  0  0  0  0  0
  -21.7390   -6.9650   21.5030 O   0  0  0  0  0  0  0  0  0  0  0  0
  -21.6930   -6.2390   22.6660 C   0  0  0  0  0  0  0  0  0  0  0  0
  -21.2200   -6.7970   23.8740 C   0  0  0  0  0  3  0  0  0  0  0  0
  -21.1230   -5.9960   25.0290 C   0  0  0  0  0  3  0  0  0  0  0  0
  -21.4910   -4.6380   24.9790 C   0  0  0  0  0  0  0  0  0  0  0  0
  -21.9580   -4.0800   23.7760 C   0  0  0  0  0  3  0  0  0  0  0  0
  -22.0560   -4.8780   22.6230 C   0  0  0  0  0  0  0  0  0  0  0  0
  -22.4860   -4.3290   21.4620 F   0  0  0  0  0  0  0  0  0  0  0  0
  -21.3910   -3.8670   26.0870 F   0  0  0  0  0  0  0  0  0  0  0  0
  -22.7260  -13.6110   21.1700 C   0  0  0  0  0  0  0  0  0  0  0  0
  -22.0260  -12.9000   22.0460 N   0  0  0  0  0  0  0  0  0  0  0  0
  -22.2660  -14.6350   20.6660 O   0  0  0  0  0  0  0  0  0  0  0  0
  -22.4130  -12.0730   22.4780 H   0  0  0  0  0  0  0  0  0  0  0  0
  -21.0900  -13.1890   22.2910 H   0  0  0  0  0  0  0  0  0  0  0  0
  -25.2940  -15.3320   20.3010 N   0  0  0  0  0  0  0  0  0  0  0  0
  -24.5230  -15.9730   20.4450 H   0  0  0  0  0  0  0  0  0  0  0  0
  -26.1310  -15.7880   19.9640 H   0  0  0  0  0  0  0  0  0  0  0  0
  -31.7950  -17.7000   22.0760 C   0  0  0  0  0  1  0  0  0  0  0  0
  -31.3000  -18.0060   20.6410 C   0  0  0  0  0  3  0  0  0  0  0  0
  -32.7390  -19.3320   18.9380 C   0  0  0  0  0  1  0  0  0  0  0  0
  -32.4240  -17.9690   19.5660 C   0  0  0  0  0  2  0  0  0  0  0  0
  1 45  1  0
  1  2  1  0
  3  4  1  0
  3  2  1  0
  5 16  2  0
  6  4  1  0
  6 11  1  0
  7 15  1  0
  7 17  1  0
  8 14  1  0
  8 10  1  0
  9 15  1  0
 10 11  2  0
 10  9  1  0
 12  6  2  0
 13 12  1  0
 13  8  2  0
 14  7  1  0
 15  5  1  0
 17 19  2  0
 18 17  1  0
 20 18  1  0
 21 30  2  0
 21 26  1  0
 22 18  1  0
 22 26  1  0
 23 22  1  0
 24 25  1  0
 24 23  1  0
 25 21  1  0
 26 27  2  0
 27 28  1  0
 29 28  2  0
 30 29  1  0
 31  5  1  0
 31 32  1  0
 31 41  1  0
 32 35  1  0
 33 37  1  0
 33 32  1  0
 34 33  2  0
 37 36  1  0
 39 37  1  0
 39 40  1  0
 39 38  1  0
 41 44  1  1
 41 42  1  0
 43 41  1  0
 45 54  1  0
 46 54  1  0
 47 52  1  0
 48 49  1  0
 48 47  1  0
 50 49  1  0
 50 58  1  0
 50 51  1  0
 52 46  1  0
 52 51  1  0
 53 46  2  0
 54 84  1  0
 55 56  2  0
 56 75  1  0
 57 56  1  0
 57 60  1  0
 58 59  1  0
 58 55  1  0
 59 57  2  0
 60 61  1  0
 61 62  2  0
 63 66  1  0
 63 62  1  0
 64 63  2  0
 65 64  1  0
 65 60  2  0
 66 67  1  0
 67 68  1  0
 68 69  2  0
 70 69  1  0
 70 74  1  0
 71 70  2  0
 72 67  2  0
 72 71  1  0
 73 72  1  0
 75 76  1  0
 76 79  1  0
 76 78  1  0
 77 75  2  0
 80 81  1  0
 80 55  1  0
 82 80  1  0
 84 83  1  0
 85 86  1  0
 86 84  1  0
M  ISO  4   3 101   4 101  46 100  54 100
M  END
>  <TORSDO>  (27) 
F 21

>  <SCORE>  (27) 
-14.939

>  <name>  (27) 
26

>  <ligand_id>  (27) 
26

>  <original_smiles>  (27) 
[H]c1c([H])c([H])c2c(c1[H])C([H])([H])C([H])([H])C([H])([H])C2([H])N([H])C(=O)C1([H])N(C(=O)C([H])(N([H])C(=O)C([H])(N([H])C([H])([H])[H])C([H])([H])[H])C(C([H])([H])[H])(C([H])([H])[H])C([H])([H])[H])C([H])([H])c2c([H])c(OC([H])([H])C([H])([H])C([H])([H])C([H])([H])N(C(=O)N3C([H])([H])C([H])([H])C([H])([H])C([H])(n4nc(-c5c([H])c([H])c(Oc6c([H])c([H])c(F)c([H])c6F)c([H])c5[H])c(C(=O)N([H])[H])c4N([H])[H])C3([H])[H])C([H])(C([H])([H])[H])C([H])([H])C([H])([H])[H])c([H])c([H])c2C1([H])[H]

>  <smiles>  (27) 
[H]c1c([H])c([H])c2c(c1[H])C([H])([H])C([H])([H])C([H])([H])C2([H])N([H])C(=O)C1([H])N(C(=O)C([H])(N([H])C(=O)C([H])(N([H])C([H])([H])[H])C([H])([H])[H])C(C([H])([H])[H])(C([H])([H])[H])C([H])([H])[H])C([H])([H])c2c([H])c(OC([H])([H])C([H])([H])C([H])([H])C([H])([H])N(C(=O)N3C([H])([H])C([H])([H])C([H])([H])C([H])(n4nc(-c5c([H])c([H])c(Oc6c([H])c([H])c(F)c([H])c6F)c([H])c5[H])c(C(=O)N([H])[H])c4N([H])[H])C3([H])[H])C([H])(C([H])([H])[H])C([H])([H])C([H])([H])[H])c([H])c([H])c2C1([H])[H]

$$$$
27:0:0
     RDKit          3D

 94102  0  0  1  0  0  0  0  0999 V2000
  -28.4970  -23.4960   20.1140 C   0  0  0  0  0  3  0  0  0  0  0  0
  -29.1960  -22.3370   19.7660 C   0  0  0  0  0  0  0  0  0  0  0  0
  -29.2370  -24.5360   20.6950 C   0  0  0  0  0  0  0  0  0  0  0  0
  -31.1420  -23.2740   20.5340 C   0  0  0  0  0  0  0  0  0  0  0  0
  -32.6330  -23.1490   20.7680 C   0  0  0  0  0  1  0  0  0  0  0  0
  -30.5220  -22.2230   20.0060 N   0  0  0  0  0  0  0  0  0  0  0  0
  -30.5670  -24.4170   20.8890 N   0  0  0  0  0  0  0  0  0  0  0  0
  -28.5040  -21.1350   19.1450 C   0  0  0  0  0  2  0  0  0  0  0  0
  -29.9360  -19.3890   18.1830 C   0  0  0  0  0  1  0  0  0  0  0  0
  -29.3300  -19.9380   19.4190 N   0  0  2  0  0  4  0  0  0  0  0  0
  -30.0790  -20.4040   19.9290 H   0  0  0  0  0  0  0  0  0  0  0  0
  -28.6390  -18.9550   20.3040 C   0  0  0  0  0  2  0  0  0  0  0  0
  -29.5400  -17.9300   21.0450 C   0  0  0  0  0  2  0  0  0  0  0  0
  -30.0780  -16.7850   20.1660 C   0  0  0  0  0  2  0  0  0  0  0  0
  -30.6690  -14.4150   20.3660 C   0  0  0  0  0  0  0  0  0  0  0  0
  -30.3560  -12.2580   19.2470 C   0  0  0  0  0  2  0  0  0  0  0  0
  -29.4170  -12.4900   18.0470 C   0  0  0  0  0  2  0  0  0  0  0  0
  -27.9430  -12.3620   18.4770 C   0  0  0  0  0  2  0  0  0  0  0  0
  -27.6120  -13.1960   19.7450 C   0  0  0  0  0  3  0  0  0  0  0  0
  -28.6700  -12.9610   20.8510 C   0  0  0  0  0  2  0  0  0  0  0  0
  -29.9990  -13.2380   20.2820 N   0  0  0  0  0  0  0  0  0  0  0  0
  -31.7940  -14.5930   19.8930 O   0  0  0  0  0  0  0  0  0  0  0  0
  -29.9180  -15.4530   20.7550 N   0  0  0  0  0  0  0  0  0  0  0  0
  -29.0150  -15.2170   21.1370 H   0  0  0  0  0  0  0  0  0  0  0  0
  -25.2080  -13.8080   20.4320 C   0  0  0  0  0  0  0  0  0  0  0  0
  -24.1400  -13.0370   20.8060 C   0  0  0  0  0  0  0  0  0  0  0  0
  -24.6040  -11.6860   20.7910 C   0  0  0  0  0  0  0  0  0  0  0  0
  -26.2570  -12.9260   20.2170 N   0  0  0  0  0  0  0  0  0  0  0  0
  -25.8950  -11.6470   20.4890 N   0  0  0  0  0  0  0  0  0  0  0  0
  -23.8790  -10.4240   20.9910 C   0  0  0  0  0  0  0  0  0  0  0  0
  -24.3000   -9.4770   21.9510 C   0  0  0  0  0  3  0  0  0  0  0  0
  -23.5770   -8.2800   22.1390 C   0  0  0  0  0  3  0  0  0  0  0  0
  -22.4200   -8.0200   21.3660 C   0  0  0  0  0  0  0  0  0  0  0  0
  -22.0190   -8.9550   20.3960 C   0  0  0  0  0  3  0  0  0  0  0  0
  -22.7430  -10.1450   20.2060 C   0  0  0  0  0  3  0  0  0  0  0  0
  -21.6710   -6.8730   21.4600 O   0  0  0  0  0  0  0  0  0  0  0  0
  -21.5920   -6.1590   22.6290 C   0  0  0  0  0  0  0  0  0  0  0  0
  -21.1230   -6.7430   23.8270 C   0  0  0  0  0  3  0  0  0  0  0  0
  -20.9900   -5.9580   24.9890 C   0  0  0  0  0  3  0  0  0  0  0  0
  -21.3160   -4.5890   24.9540 C   0  0  0  0  0  0  0  0  0  0  0  0
  -21.7770   -4.0050   23.7610 C   0  0  0  0  0  3  0  0  0  0  0  0
  -21.9120   -4.7870   22.6010 C   0  0  0  0  0  0  0  0  0  0  0  0
  -22.3360   -4.2150   21.4490 F   0  0  0  0  0  0  0  0  0  0  0  0
  -21.1830   -3.8310   26.0680 F   0  0  0  0  0  0  0  0  0  0  0  0
  -22.7410  -13.5140   21.0700 C   0  0  0  0  0  0  0  0  0  0  0  0
  -22.0120  -12.8240   21.9410 N   0  0  0  0  0  0  0  0  0  0  0  0
  -22.3020  -14.5340   20.5420 O   0  0  0  0  0  0  0  0  0  0  0  0
  -22.3790  -11.9960   22.3890 H   0  0  0  0  0  0  0  0  0  0  0  0
  -21.0760  -13.1280   22.1630 H   0  0  0  0  0  0  0  0  0  0  0  0
  -25.3680  -15.1770   20.2390 N   0  0  0  0  0  0  0  0  0  0  0  0
  -24.5940  -15.8250   20.3430 H   0  0  0  0  0  0  0  0  0  0  0  0
  -26.2110  -15.6180   19.8940 H   0  0  0  0  0  0  0  0  0  0  0  0
  -28.5710  -25.8370   21.1130 C   0  0  0  0  0  2  0  0  0  0  0  0
  -28.4810  -26.7560   20.0250 O   0  0  0  0  0  0  0  0  0  0  0  0
  -24.6540  -31.8430   23.1920 C   0  0  0  0  0  0  0  0  0  0  0  0
  -27.3250  -27.4860   20.0490 C   0  0  0  0  0  0  0  0  0  0  0  0
  -23.4510  -30.4460   21.5410 C   0  0  0  0  0  3  0  0  0  0  0  0
  -24.9110  -28.9370   20.0970 C   0  0  0  0  0  0  0  0  0  0  0  0
  -25.9680  -30.8390   21.3320 C   0  0  0  0  0  2  0  0  0  0  0  0
  -26.0650  -29.4770   20.6800 C   0  0  0  0  0  0  0  0  0  0  0  0
  -27.2790  -28.7560   20.6590 C   0  0  0  0  0  3  0  0  0  0  0  0
  -26.1600  -26.9490   19.4650 C   0  0  0  0  0  3  0  0  0  0  0  0
  -24.9500  -27.6680   19.4930 C   0  0  0  0  0  3  0  0  0  0  0  0
  -23.6560  -29.7790   20.1570 C   0  0  0  0  0  2  0  0  0  0  0  0
  -24.7090  -31.0570   22.0800 N   0  0  0  0  0  0  0  0  0  0  0  0
  -23.5750  -32.1020   23.7430 O   0  0  0  0  0  0  0  0  0  0  0  0
  -22.8130  -29.4110   22.4950 C   0  0  0  0  0  0  0  0  0  0  0  0
  -21.4900  -29.2190   22.3700 N   0  0  0  0  0  0  0  0  0  0  0  0
  -23.5070  -28.7820   23.2980 O   0  0  0  0  0  0  0  0  0  0  0  0
  -20.9930  -29.7840   21.6950 H   0  0  0  0  0  0  0  0  0  0  0  0
  -18.1290  -27.9820   22.8530 C   0  0  0  0  0  0  0  0  0  0  0  0
  -20.6820  -28.2680   23.1330 C   0  0  0  0  0  3  0  0  0  0  0  0
  -20.8040  -26.8400   22.5520 C   0  0  0  0  0  2  0  0  0  0  0  0
  -19.7090  -26.5100   21.5330 C   0  0  0  0  0  2  0  0  0  0  0  0
  -18.3230  -26.6360   22.1730 C   0  0  0  0  0  2  0  0  0  0  0  0
  -19.2390  -28.7550   23.2880 C   0  0  0  0  0  0  0  0  0  0  0  0
  -19.0060  -30.0150   23.8810 C   0  0  0  0  0  3  0  0  0  0  0  0
  -17.6960  -30.5030   24.0440 C   0  0  0  0  0  3  0  0  0  0  0  0
  -16.6010  -29.7270   23.6240 C   0  0  0  0  0  3  0  0  0  0  0  0
  -16.8180  -28.4690   23.0340 C   0  0  0  0  0  3  0  0  0  0  0  0
  -25.9390  -32.4760   23.8120 C   0  0  0  0  0  3  0  0  0  0  0  0
  -25.6200  -33.8660   24.1660 N   0  0  0  0  0  0  0  0  0  0  0  0
  -25.9330  -34.9320   23.4170 C   0  0  0  0  0  0  0  0  0  0  0  0
  -26.5910  -34.8510   22.3760 O   0  0  0  0  0  0  0  0  0  0  0  0
  -25.0330  -34.0030   24.9760 H   0  0  0  0  0  0  0  0  0  0  0  0
  -24.1740  -36.7040   23.1130 C   0  0  0  0  0  1  0  0  0  0  0  0
  -25.4330  -36.3070   23.8990 C   0  0  0  0  0  3  0  0  0  0  0  0
  -27.5690  -37.2050   24.7070 C   0  0  0  0  0  1  0  0  0  0  0  0
  -26.4490  -37.3770   23.7860 N   0  0  0  0  0  0  0  0  0  0  0  0
  -26.0330  -38.2860   23.9630 H   0  0  0  0  0  0  0  0  0  0  0  0
  -26.4810  -31.6880   25.0670 C   0  0  1  0  0  0  0  0  0  0  0  0
  -25.4030  -31.4150   26.1410 C   0  0  0  0  0  1  0  0  0  0  0  0
  -27.0760  -30.3260   24.6390 C   0  0  0  0  0  1  0  0  0  0  0  0
  -27.6330  -32.4810   25.7280 C   0  0  0  0  0  1  0  0  0  0  0  0
  1  3  1  0
  2  6  1  0
  2  1  2  0
  3  7  2  0
  3 53  1  0
  4  5  1  0
  4  7  1  0
  6  4  2  0
  8 10  1  0
  8  2  1  0
  9 10  1  0
 10 11  1  1
 10 12  1  0
 12 13  1  0
 14 23  1  0
 14 13  1  0
 15 23  1  0
 16 21  1  0
 17 18  1  0
 17 16  1  0
 19 18  1  0
 19 28  1  0
 19 20  1  0
 21 15  1  0
 21 20  1  0
 22 15  2  0
 23 24  1  0
 25 26  2  0
 26 45  1  0
 27 26  1  0
 27 30  1  0
 28 25  1  0
 28 29  1  0
 29 27  2  0
 30 31  1  0
 31 32  2  0
 33 36  1  0
 33 32  1  0
 34 33  2  0
 35 34  1  0
 35 30  2  0
 36 37  1  0
 37 38  1  0
 38 39  2  0
 40 39  1  0
 40 44  1  0
 41 40  2  0
 42 37  2  0
 42 41  1  0
 43 42  1  0
 45 46  1  0
 46 49  1  0
 46 48  1  0
 47 45  2  0
 50 51  1  0
 50 25  1  0
 52 50  1  0
 54 56  1  0
 54 53  1  0
 55 66  2  0
 56 61  1  0
 57 65  1  0
 57 67  1  0
 58 64  1  0
 58 60  1  0
 59 65  1  0
 60 59  1  0
 61 60  2  0
 62 63  1  0
 62 56  2  0
 63 58  2  0
 64 57  1  0
 65 55  1  0
 67 69  2  0
 68 67  1  0
 70 68  1  0
 71 80  2  0
 71 76  1  0
 72 68  1  0
 72 76  1  0
 73 72  1  0
 74 75  1  0
 74 73  1  0
 75 71  1  0
 76 77  2  0
 77 78  1  0
 79 78  2  0
 80 79  1  0
 81 55  1  0
 81 82  1  0
 81 91  1  0
 82 85  1  0
 83 87  1  0
 83 82  1  0
 84 83  2  0
 87 86  1  0
 89 87  1  0
 89 90  1  0
 89 88  1  0
 91 94  1  1
 91 92  1  0
 93 91  1  0
M  ISO  4  15 100  23 100  53 101  54 101
M  END
>  <TORSDO>  (28) 
F 22

>  <SCORE>  (28) 
-12.663

>  <name>  (28) 
27

>  <ligand_id>  (28) 
27

>  <original_smiles>  (28) 
[H]c1c(C([H])([H])Oc2c([H])c([H])c3c(c2[H])C([H])([H])N(C(=O)C([H])(N([H])C(=O)C([H])(N([H])C([H])([H])[H])C([H])([H])[H])C(C([H])([H])[H])(C([H])([H])[H])C([H])([H])[H])C([H])(C(=O)N([H])C2([H])c4c([H])c([H])c([H])c([H])c4C([H])([H])C([H])([H])C2([H])[H])C3([H])[H])nc(C([H])([H])[H])nc1C([H])([H])[N+]([H])(C([H])([H])[H])C([H])([H])C([H])([H])C([H])([H])N([H])C(=O)N1C([H])([H])C([H])([H])C([H])([H])C([H])(n2nc(-c3c([H])c([H])c(Oc4c([H])c([H])c(F)c([H])c4F)c([H])c3[H])c(C(=O)N([H])[H])c2N([H])[H])C1([H])[H]

>  <smiles>  (28) 
[H]c1c(C([H])([H])Oc2c([H])c([H])c3c(c2[H])C([H])([H])N(C(=O)C([H])(N([H])C(=O)C([H])(N([H])C([H])([H])[H])C([H])([H])[H])C(C([H])([H])[H])(C([H])([H])[H])C([H])([H])[H])C([H])(C(=O)N([H])C2([H])c4c([H])c([H])c([H])c([H])c4C([H])([H])C([H])([H])C2([H])[H])C3([H])[H])nc(C([H])([H])[H])nc1C([H])([H])[N+]([H])(C([H])([H])[H])C([H])([H])C([H])([H])C([H])([H])N([H])C(=O)N1C([H])([H])C([H])([H])C([H])([H])C([H])(n2nc(-c3c([H])c([H])c(Oc4c([H])c([H])c(F)c([H])c4F)c([H])c3[H])c(C(=O)N([H])[H])c2N([H])[H])C1([H])[H]

$$$$
28:0:0
     RDKit          3D

 91 99  0  0  1  0  0  0  0  0999 V2000
  -28.2220  -23.9250   18.6880 C   0  0  0  0  0  3  0  0  0  0  0  0
  -28.3710  -22.7830   17.8840 C   0  0  0  0  0  0  0  0  0  0  0  0
  -28.8280  -21.5660   18.4650 C   0  0  0  0  0  0  0  0  0  0  0  0
  -28.4610  -23.8560   20.0640 C   0  0  0  0  0  0  0  0  0  0  0  0
  -29.0500  -21.4900   19.8700 C   0  0  0  0  0  0  0  0  0  0  0  0
  -28.0280  -22.9110   16.4060 C   0  0  0  0  0  1  0  0  0  0  0  0
  -29.1230  -20.3750   17.5580 C   0  0  0  0  0  1  0  0  0  0  0  0
  -28.8550  -22.6420   20.6310 N   0  0  0  0  0  0  0  0  0  0  0  0
  -29.7090  -20.1880   20.5490 C   0  0  0  0  0  2  0  0  0  0  0  0
  -29.1640  -18.6520   20.4250 C   0  0  0  0  0  3  0  0  0  0  0  0
  -30.1670  -17.4480   20.8700 C   0  0  0  0  0  3  0  0  0  0  0  0
  -30.5780  -14.8540   20.5510 C   0  0  0  0  0  0  0  0  0  0  0  0
  -30.4320  -12.6110   19.4620 C   0  0  0  0  0  2  0  0  0  0  0  0
  -29.4990  -12.7140   18.2360 C   0  0  0  0  0  2  0  0  0  0  0  0
  -28.0300  -12.5090   18.6530 C   0  0  0  0  0  2  0  0  0  0  0  0
  -27.6380  -13.3470   19.8980 C   0  0  0  0  0  3  0  0  0  0  0  0
  -28.6890  -13.2240   21.0220 C   0  0  0  0  0  2  0  0  0  0  0  0
  -29.9780  -13.6200   20.4450 N   0  0  0  0  0  0  0  0  0  0  0  0
  -31.7690  -14.9810   20.2600 O   0  0  0  0  0  0  0  0  0  0  0  0
  -29.7770  -15.9660   20.7810 N   0  0  0  0  0  0  0  0  0  0  0  0
  -28.8110  -15.7570   20.9820 H   0  0  0  0  0  0  0  0  0  0  0  0
  -25.2270  -13.8830   20.5910 C   0  0  0  0  0  0  0  0  0  0  0  0
  -24.1740  -13.0850   20.9430 C   0  0  0  0  0  0  0  0  0  0  0  0
  -24.6680  -11.7440   20.9140 C   0  0  0  0  0  0  0  0  0  0  0  0
  -26.2940  -13.0280   20.3670 N   0  0  0  0  0  0  0  0  0  0  0  0
  -25.9630  -11.7360   20.6260 N   0  0  0  0  0  0  0  0  0  0  0  0
  -23.9670  -10.4660   21.0840 C   0  0  0  0  0  0  0  0  0  0  0  0
  -24.3920   -9.5100   22.0330 C   0  0  0  0  0  3  0  0  0  0  0  0
  -23.6890   -8.2970   22.1900 C   0  0  0  0  0  3  0  0  0  0  0  0
  -22.5470   -8.0310   21.3970 C   0  0  0  0  0  0  0  0  0  0  0  0
  -22.1430   -8.9750   20.4370 C   0  0  0  0  0  3  0  0  0  0  0  0
  -22.8470  -10.1800   20.2780 C   0  0  0  0  0  3  0  0  0  0  0  0
  -21.8160   -6.8690   21.4630 O   0  0  0  0  0  0  0  0  0  0  0  0
  -21.7330   -6.1350   22.6190 C   0  0  0  0  0  0  0  0  0  0  0  0
  -21.2030   -6.6790   23.8100 C   0  0  0  0  0  3  0  0  0  0  0  0
  -21.0700   -5.8690   24.9560 C   0  0  0  0  0  3  0  0  0  0  0  0
  -21.4590   -4.5170   24.9110 C   0  0  0  0  0  0  0  0  0  0  0  0
  -21.9830   -3.9730   23.7260 C   0  0  0  0  0  3  0  0  0  0  0  0
  -22.1170   -4.7800   22.5820 C   0  0  0  0  0  0  0  0  0  0  0  0
  -22.6020   -4.2440   21.4360 F   0  0  0  0  0  0  0  0  0  0  0  0
  -21.3280   -3.7370   26.0100 F   0  0  0  0  0  0  0  0  0  0  0  0
  -22.7620  -13.5290   21.1920 C   0  0  0  0  0  0  0  0  0  0  0  0
  -22.0370  -12.8110   22.0400 N   0  0  0  0  0  0  0  0  0  0  0  0
  -22.3110  -14.5490   20.6700 O   0  0  0  0  0  0  0  0  0  0  0  0
  -22.4170  -11.9850   22.4790 H   0  0  0  0  0  0  0  0  0  0  0  0
  -21.0900  -13.0870   22.2540 H   0  0  0  0  0  0  0  0  0  0  0  0
  -25.3610  -15.2590   20.4190 N   0  0  0  0  0  0  0  0  0  0  0  0
  -24.5690  -15.8850   20.5110 H   0  0  0  0  0  0  0  0  0  0  0  0
  -26.1790  -15.7130   20.0340 H   0  0  0  0  0  0  0  0  0  0  0  0
  -28.1530  -25.1460   20.9370 C   0  0  0  0  0  2  0  0  0  0  0  0
  -28.2940  -26.5270   20.3750 O   0  0  0  0  0  0  0  0  0  0  0  0
  -24.5350  -31.9890   23.3490 C   0  0  0  0  0  0  0  0  0  0  0  0
  -27.1780  -27.3820   20.3670 C   0  0  0  0  0  0  0  0  0  0  0  0
  -23.3530  -30.5820   21.7030 C   0  0  0  0  0  3  0  0  0  0  0  0
  -24.8200  -29.0100   20.3120 C   0  0  0  0  0  0  0  0  0  0  0  0
  -25.8990  -30.8830   21.5620 C   0  0  0  0  0  2  0  0  0  0  0  0
  -25.9840  -29.5000   20.9180 C   0  0  0  0  0  0  0  0  0  0  0  0
  -27.1690  -28.7020   20.9250 C   0  0  0  0  0  3  0  0  0  0  0  0
  -25.9890  -26.9410   19.7500 C   0  0  0  0  0  3  0  0  0  0  0  0
  -24.8250  -27.7360   19.7200 C   0  0  0  0  0  3  0  0  0  0  0  0
  -23.5870  -29.8950   20.3320 C   0  0  0  0  0  2  0  0  0  0  0  0
  -24.6140  -31.1700   22.2600 N   0  0  0  0  0  0  0  0  0  0  0  0
  -23.4440  -32.2770   23.8630 O   0  0  0  0  0  0  0  0  0  0  0  0
  -22.6690  -29.5760   22.6580 C   0  0  0  0  0  0  0  0  0  0  0  0
  -21.3470  -29.3890   22.5010 N   0  0  0  0  0  0  0  0  0  0  0  0
  -23.3310  -28.9640   23.5030 O   0  0  0  0  0  0  0  0  0  0  0  0
  -20.8750  -29.9310   21.7910 H   0  0  0  0  0  0  0  0  0  0  0  0
  -17.9650  -28.1830   22.9420 C   0  0  0  0  0  0  0  0  0  0  0  0
  -20.5150  -28.4590   23.2650 C   0  0  0  0  0  3  0  0  0  0  0  0
  -20.6380  -27.0200   22.7130 C   0  0  0  0  0  2  0  0  0  0  0  0
  -19.5600  -26.6770   21.6790 C   0  0  0  0  0  2  0  0  0  0  0  0
  -18.1630  -26.8260   22.2870 C   0  0  0  0  0  2  0  0  0  0  0  0
  -19.0700  -28.9560   23.3870 C   0  0  0  0  0  0  0  0  0  0  0  0
  -18.8310  -30.2270   23.9570 C   0  0  0  0  0  3  0  0  0  0  0  0
  -17.5210  -30.7220   24.0880 C   0  0  0  0  0  3  0  0  0  0  0  0
  -16.4290  -29.9460   23.6600 C   0  0  0  0  0  3  0  0  0  0  0  0
  -16.6520  -28.6780   23.0940 C   0  0  0  0  0  3  0  0  0  0  0  0
  -25.8110  -32.6230   23.9880 C   0  0  0  0  0  3  0  0  0  0  0  0
  -26.2860  -31.8840   25.3000 C   0  0  1  0  0  0  0  0  0  0  0  0
  -25.1590  -31.6790   26.3400 C   0  0  0  0  0  1  0  0  0  0  0  0
  -26.8750  -30.4920   24.9690 C   0  0  0  0  0  1  0  0  0  0  0  0
  -27.4230  -32.6890   25.9720 C   0  0  0  0  0  1  0  0  0  0  0  0
  -25.5160  -34.0350   24.2700 N   0  0  0  0  0  0  0  0  0  0  0  0
  -25.8790  -35.0600   23.4890 C   0  0  0  0  0  0  0  0  0  0  0  0
  -26.5720  -34.9180   22.4770 O   0  0  0  0  0  0  0  0  0  0  0  0
  -24.9170  -34.2240   25.0620 H   0  0  0  0  0  0  0  0  0  0  0  0
  -24.2000  -36.8720   23.0250 C   0  0  0  0  0  1  0  0  0  0  0  0
  -25.4010  -36.4670   23.8940 C   0  0  0  0  0  3  0  0  0  0  0  0
  -27.5130  -37.3380   24.7920 C   0  0  0  0  0  1  0  0  0  0  0  0
  -26.4560  -37.5000   23.7960 N   0  0  0  0  0  0  0  0  0  0  0  0
  -26.0610  -38.4300   23.9040 H   0  0  0  0  0  0  0  0  0  0  0  0
  1  4  1  0
  2  3  1  0
  2  1  2  0
  3  5  2  0
  4  8  2  0
  4 50  1  0
  5  9  1  0
  5  8  1  0
  6  2  1  0
  7  3  1  0
 10  9  1  0
 10 11  2  0
 12 20  1  0
 13 18  1  0
 14 15  1  0
 14 13  1  0
 16 15  1  0
 16 25  1  0
 16 17  1  0
 18 12  1  0
 18 17  1  0
 19 12  2  0
 20 11  1  0
 20 21  1  0
 22 23  2  0
 23 42  1  0
 24 23  1  0
 24 27  1  0
 25 22  1  0
 25 26  1  0
 26 24  2  0
 27 28  1  0
 28 29  2  0
 30 33  1  0
 30 29  1  0
 31 30  2  0
 32 31  1  0
 32 27  2  0
 33 34  1  0
 34 35  1  0
 35 36  2  0
 37 36  1  0
 37 41  1  0
 38 37  2  0
 39 34  2  0
 39 38  1  0
 40 39  1  0
 42 43  1  0
 43 46  1  0
 43 45  1  0
 44 42  2  0
 47 48  1  0
 47 22  1  0
 49 47  1  0
 51 50  1  0
 52 63  2  0
 53 51  1  0
 53 58  1  0
 54 62  1  0
 54 64  1  0
 55 61  1  0
 55 57  1  0
 56 62  1  0
 57 58  2  0
 57 56  1  0
 59 53  2  0
 60 59  1  0
 60 55  2  0
 61 54  1  0
 62 52  1  0
 64 66  2  0
 65 64  1  0
 67 65  1  0
 68 77  2  0
 68 73  1  0
 69 65  1  0
 69 73  1  0
 70 69  1  0
 71 72  1  0
 71 70  1  0
 72 68  1  0
 73 74  2  0
 74 75  1  0
 76 75  2  0
 77 76  1  0
 78 52  1  0
 78 83  1  0
 78 79  1  0
 79 82  1  1
 79 80  1  0
 81 79  1  0
 83 86  1  0
 84 88  1  0
 84 83  1  0
 85 84  2  0
 88 87  1  0
 90 88  1  0
 90 91  1  0
 90 89  1  0
M  ISO  4  12 100  20 100  50 101  51 101
M  END
>  <TORSDO>  (29) 
F 20

>  <SCORE>  (29) 
-12.845

>  <name>  (29) 
28

>  <ligand_id>  (29) 
28

>  <original_smiles>  (29) 
[H]c1c([H])c([H])c2c(c1[H])C([H])([H])C([H])([H])C([H])([H])C2([H])N([H])C(=O)C1([H])N(C(=O)C([H])(N([H])C(=O)C([H])(N([H])C([H])([H])[H])C([H])([H])[H])C(C([H])([H])[H])(C([H])([H])[H])C([H])([H])[H])C([H])([H])c2c([H])c(OC([H])([H])c3nc(C([H])([H])C([H])([H])C([H])([H])N([H])C(=O)N4C([H])([H])C([H])([H])C([H])([H])C([H])(n5nc(-c6c([H])c([H])c(Oc7c([H])c([H])c(F)c([H])c7F)c([H])c6[H])c(C(=O)N([H])[H])c5N([H])[H])C4([H])[H])c(C([H])([H])[H])c(C([H])([H])[H])c3[H])c([H])c([H])c2C1([H])[H]

>  <smiles>  (29) 
[H]c1c([H])c([H])c2c(c1[H])C([H])([H])C([H])([H])C([H])([H])C2([H])N([H])C(=O)C1([H])N(C(=O)C([H])(N([H])C(=O)C([H])(N([H])C([H])([H])[H])C([H])([H])[H])C(C([H])([H])[H])(C([H])([H])[H])C([H])([H])[H])C([H])([H])c2c([H])c(OC([H])([H])c3nc(C([H])([H])C([H])([H])C([H])([H])N([H])C(=O)N4C([H])([H])C([H])([H])C([H])([H])C([H])(n5nc(-c6c([H])c([H])c(Oc7c([H])c([H])c(F)c([H])c7F)c([H])c6[H])c(C(=O)N([H])[H])c5N([H])[H])C4([H])[H])c(C([H])([H])[H])c(C([H])([H])[H])c3[H])c([H])c([H])c2C1([H])[H]

$$$$
29:0:0
     RDKit          3D

 94102  0  0  1  0  0  0  0  0999 V2000
  -30.6100  -19.5610   21.1570 C   0  0  0  0  0  3  0  0  0  0  0  0
  -29.9590  -18.5680   20.3670 C   0  0  0  0  0  0  0  0  0  0  0  0
  -28.3370  -20.1850   19.8650 C   0  0  0  0  0  0  0  0  0  0  0  0
  -29.0040  -21.1830   20.6480 C   0  0  0  0  0  0  0  0  0  0  0  0
  -27.0450  -20.4860   19.1330 C   0  0  0  0  0  1  0  0  0  0  0  0
  -30.1450  -20.8390   21.3000 N   0  0  0  0  0  0  0  0  0  0  0  0
  -28.8030  -18.9010   19.7280 N   0  0  0  0  0  0  0  0  0  0  0  0
  -28.3950  -22.5900   20.9850 C   0  0  0  0  0  2  0  0  0  0  0  0
  -28.9100  -23.9250   20.2980 C   0  0  0  0  0  2  0  0  0  0  0  0
  -28.2360  -25.2440   20.8750 C   0  0  0  0  0  2  0  0  0  0  0  0
  -28.4870  -26.5690   20.2700 O   0  0  0  0  0  0  0  0  0  0  0  0
  -24.6620  -31.9040   23.2280 C   0  0  0  0  0  0  0  0  0  0  0  0
  -27.3820  -27.4170   20.2080 C   0  0  0  0  0  0  0  0  0  0  0  0
  -23.5050  -30.4980   21.5610 C   0  0  0  0  0  3  0  0  0  0  0  0
  -25.0000  -28.9780   20.1500 C   0  0  0  0  0  0  0  0  0  0  0  0
  -26.0390  -30.8600   21.4200 C   0  0  0  0  0  2  0  0  0  0  0  0
  -26.1500  -29.4870   20.7710 C   0  0  0  0  0  0  0  0  0  0  0  0
  -27.3480  -28.7170   20.7900 C   0  0  0  0  0  3  0  0  0  0  0  0
  -26.2190  -26.9590   19.5530 C   0  0  0  0  0  3  0  0  0  0  0  0
  -25.0360  -27.7190   19.5300 C   0  0  0  0  0  3  0  0  0  0  0  0
  -23.7510  -29.8350   20.1810 C   0  0  0  0  0  2  0  0  0  0  0  0
  -24.7530  -31.1040   22.1270 N   0  0  0  0  0  0  0  0  0  0  0  0
  -23.5660  -32.1650   23.7460 O   0  0  0  0  0  0  0  0  0  0  0  0
  -22.8400  -29.4670   22.5050 C   0  0  0  0  0  0  0  0  0  0  0  0
  -21.5160  -29.2890   22.3680 N   0  0  0  0  0  0  0  0  0  0  0  0
  -23.5160  -28.8320   23.3200 O   0  0  0  0  0  0  0  0  0  0  0  0
  -21.0300  -29.8560   21.6850 H   0  0  0  0  0  0  0  0  0  0  0  0
  -18.1270  -28.1250   22.8700 C   0  0  0  0  0  0  0  0  0  0  0  0
  -20.6920  -28.3430   23.1220 C   0  0  0  0  0  3  0  0  0  0  0  0
  -20.7700  -26.9260   22.5080 C   0  0  0  0  0  2  0  0  0  0  0  0
  -19.6540  -26.6430   21.4970 C   0  0  0  0  0  2  0  0  0  0  0  0
  -18.2790  -26.7910   22.1570 C   0  0  0  0  0  2  0  0  0  0  0  0
  -19.2600  -28.8600   23.3080 C   0  0  0  0  0  0  0  0  0  0  0  0
  -19.0650  -30.1100   23.9340 C   0  0  0  0  0  3  0  0  0  0  0  0
  -17.7700  -30.6250   24.1250 C   0  0  0  0  0  3  0  0  0  0  0  0
  -16.6510  -29.8860   23.7050 C   0  0  0  0  0  3  0  0  0  0  0  0
  -16.8310  -28.6380   23.0820 C   0  0  0  0  0  3  0  0  0  0  0  0
  -25.9270  -32.5500   23.8750 C   0  0  0  0  0  3  0  0  0  0  0  0
  -25.6020  -33.9500   24.1830 N   0  0  0  0  0  0  0  0  0  0  0  0
  -25.9410  -34.9960   23.4190 C   0  0  0  0  0  0  0  0  0  0  0  0
  -26.6310  -34.8850   22.4010 O   0  0  0  0  0  0  0  0  0  0  0  0
  -24.9900  -34.1080   24.9700 H   0  0  0  0  0  0  0  0  0  0  0  0
  -24.2180  -36.7800   23.0040 C   0  0  0  0  0  1  0  0  0  0  0  0
  -25.4380  -36.3860   23.8510 C   0  0  0  0  0  3  0  0  0  0  0  0
  -27.5400  -37.2930   24.7390 C   0  0  0  0  0  1  0  0  0  0  0  0
  -26.4690  -37.4420   23.7560 N   0  0  0  0  0  0  0  0  0  0  0  0
  -26.0550  -38.3630   23.8770 H   0  0  0  0  0  0  0  0  0  0  0  0
  -26.4150  -31.7940   25.1710 C   0  0  1  0  0  0  0  0  0  0  0  0
  -25.2950  -31.5590   26.2120 C   0  0  0  0  0  1  0  0  0  0  0  0
  -27.0170  -30.4170   24.8080 C   0  0  0  0  0  1  0  0  0  0  0  0
  -27.5420  -32.6030   25.8560 C   0  0  0  0  0  1  0  0  0  0  0  0
  -30.6970  -17.2360   19.9800 C   0  0  0  0  0  3  0  0  0  0  0  0
  -30.8010  -14.7050   20.1770 C   0  0  0  0  0  0  0  0  0  0  0  0
  -30.4700  -12.5080   19.0930 C   0  0  0  0  0  2  0  0  0  0  0  0
  -29.5070  -12.6770   17.9010 C   0  0  0  0  0  2  0  0  0  0  0  0
  -28.0490  -12.5160   18.3680 C   0  0  0  0  0  2  0  0  0  0  0  0
  -27.7250  -13.3590   19.6320 C   0  0  0  0  0  3  0  0  0  0  0  0
  -28.8150  -13.2220   20.7180 C   0  0  0  0  0  2  0  0  0  0  0  0
  -30.1030  -13.5320   20.0910 N   0  0  0  0  0  0  0  0  0  0  0  0
  -31.9970  -14.7400   19.8800 O   0  0  0  0  0  0  0  0  0  0  0  0
  -30.1090  -15.8840   20.3080 N   0  0  0  0  0  0  0  0  0  0  0  0
  -29.1200  -15.8440   20.4950 H   0  0  0  0  0  0  0  0  0  0  0  0
  -25.3500  -13.9330   20.4140 C   0  0  0  0  0  0  0  0  0  0  0  0
  -24.2970  -13.1490   20.8020 C   0  0  0  0  0  0  0  0  0  0  0  0
  -24.7690  -11.8010   20.7570 C   0  0  0  0  0  0  0  0  0  0  0  0
  -26.3950  -13.0610   20.1520 N   0  0  0  0  0  0  0  0  0  0  0  0
  -26.0530  -11.7740   20.4220 N   0  0  0  0  0  0  0  0  0  0  0  0
  -24.0550  -10.5330   20.9550 C   0  0  0  0  0  0  0  0  0  0  0  0
  -24.4980   -9.5740   21.8940 C   0  0  0  0  0  3  0  0  0  0  0  0
  -23.7820   -8.3720   22.0820 C   0  0  0  0  0  3  0  0  0  0  0  0
  -22.6100   -8.1190   21.3310 C   0  0  0  0  0  0  0  0  0  0  0  0
  -22.1860   -9.0660   20.3800 C   0  0  0  0  0  3  0  0  0  0  0  0
  -22.9020  -10.2600   20.1910 C   0  0  0  0  0  3  0  0  0  0  0  0
  -21.8660   -6.9670   21.4260 O   0  0  0  0  0  0  0  0  0  0  0  0
  -21.8110   -6.2410   22.5880 C   0  0  0  0  0  0  0  0  0  0  0  0
  -21.3200   -6.7960   23.7910 C   0  0  0  0  0  3  0  0  0  0  0  0
  -21.2140   -5.9950   24.9450 C   0  0  0  0  0  3  0  0  0  0  0  0
  -21.5900   -4.6390   24.8980 C   0  0  0  0  0  0  0  0  0  0  0  0
  -22.0730   -4.0820   23.7000 C   0  0  0  0  0  3  0  0  0  0  0  0
  -22.1800   -4.8820   22.5490 C   0  0  0  0  0  0  0  0  0  0  0  0
  -22.6270   -4.3350   21.3920 F   0  0  0  0  0  0  0  0  0  0  0  0
  -21.4800   -3.8660   26.0040 F   0  0  0  0  0  0  0  0  0  0  0  0
  -22.9020  -13.6150   21.1030 C   0  0  0  0  0  0  0  0  0  0  0  0
  -22.1930  -12.9070   21.9750 N   0  0  0  0  0  0  0  0  0  0  0  0
  -22.4490  -14.6430   20.6000 O   0  0  0  0  0  0  0  0  0  0  0  0
  -22.5730  -12.0750   22.4020 H   0  0  0  0  0  0  0  0  0  0  0  0
  -21.2590  -13.2030   22.2190 H   0  0  0  0  0  0  0  0  0  0  0  0
  -25.4980  -15.3050   20.2370 N   0  0  0  0  0  0  0  0  0  0  0  0
  -24.7260  -15.9500   20.3580 H   0  0  0  0  0  0  0  0  0  0  0  0
  -26.3340  -15.7540   19.8840 H   0  0  0  0  0  0  0  0  0  0  0  0
  -31.0880  -17.3010   18.4720 C   0  0  0  0  0  2  0  0  0  0  0  0
  -32.1050  -18.5340   16.5020 C   0  0  0  0  0  1  0  0  0  0  0  0
  -33.3630  -18.4790   18.6790 C   0  0  0  0  0  1  0  0  0  0  0  0
  -31.9660  -18.5000   18.0320 C   0  0  0  0  0  3  0  0  0  0  0  0
  1  6  1  0
  2  1  2  0
  3  4  1  0
  4  8  1  0
  4  6  2  0
  5  3  1  0
  7  3  2  0
  7  2  1  0
  9 10  1  0
  9  8  1  0
 11 10  1  0
 12 23  2  0
 13 11  1  0
 13 18  1  0
 14 22  1  0
 14 24  1  0
 15 21  1  0
 15 17  1  0
 16 22  1  0
 17 18  2  0
 17 16  1  0
 19 13  2  0
 20 19  1  0
 20 15  2  0
 21 14  1  0
 22 12  1  0
 24 26  2  0
 25 24  1  0
 27 25  1  0
 28 37  2  0
 28 33  1  0
 29 25  1  0
 29 33  1  0
 30 29  1  0
 31 32  1  0
 31 30  1  0
 32 28  1  0
 33 34  2  0
 34 35  1  0
 36 35  2  0
 37 36  1  0
 38 12  1  0
 38 39  1  0
 38 48  1  0
 39 42  1  0
 40 44  1  0
 40 39  1  0
 41 40  2  0
 44 43  1  0
 46 44  1  0
 46 47  1  0
 46 45  1  0
 48 51  1  1
 48 49  1  0
 50 48  1  0
 52 91  1  0
 52 61  1  0
 52  2  1  0
 53 61  1  0
 54 59  1  0
 55 56  1  0
 55 54  1  0
 57 56  1  0
 57 66  1  0
 57 58  1  0
 59 53  1  0
 59 58  1  0
 60 53  2  0
 61 62  1  0
 63 64  2  0
 64 83  1  0
 65 64  1  0
 65 68  1  0
 66 63  1  0
 66 67  1  0
 67 65  2  0
 68 69  1  0
 69 70  2  0
 71 74  1  0
 71 70  1  0
 72 71  2  0
 73 72  1  0
 73 68  2  0
 74 75  1  0
 75 76  1  0
 76 77  2  0
 78 77  1  0
 78 82  1  0
 79 78  2  0
 80 75  2  0
 80 79  1  0
 81 80  1  0
 83 84  1  0
 84 87  1  0
 84 86  1  0
 85 83  2  0
 88 89  1  0
 88 63  1  0
 90 88  1  0
 92 94  1  0
 94 91  1  0
 94 93  1  0
M  ISO  4  10 101  11 101  53 100  61 100
M  END
>  <TORSDO>  (30) 
F 22

>  <SCORE>  (30) 
-13.312

>  <name>  (30) 
29

>  <ligand_id>  (30) 
29

>  <original_smiles>  (30) 
[H]c1nc(C([H])([H])C([H])([H])C([H])([H])Oc2c([H])c([H])c3c(c2[H])C([H])([H])N(C(=O)C([H])(N([H])C(=O)C([H])(N([H])C([H])([H])[H])C([H])([H])[H])C(C([H])([H])[H])(C([H])([H])[H])C([H])([H])[H])C([H])(C(=O)N([H])C2([H])c4c([H])c([H])c([H])c([H])c4C([H])([H])C([H])([H])C2([H])[H])C3([H])[H])c(C([H])([H])[H])nc1C([H])(N([H])C(=O)N1C([H])([H])C([H])([H])C([H])([H])C([H])(n2nc(-c3c([H])c([H])c(Oc4c([H])c([H])c(F)c([H])c4F)c([H])c3[H])c(C(=O)N([H])[H])c2N([H])[H])C1([H])[H])C([H])([H])C([H])(C([H])([H])[H])C([H])([H])[H]

>  <smiles>  (30) 
[H]c1nc(C([H])([H])C([H])([H])C([H])([H])Oc2c([H])c([H])c3c(c2[H])C([H])([H])N(C(=O)C([H])(N([H])C(=O)C([H])(N([H])C([H])([H])[H])C([H])([H])[H])C(C([H])([H])[H])(C([H])([H])[H])C([H])([H])[H])C([H])(C(=O)N([H])C2([H])c4c([H])c([H])c([H])c([H])c4C([H])([H])C([H])([H])C2([H])[H])C3([H])[H])c(C([H])([H])[H])nc1C([H])(N([H])C(=O)N1C([H])([H])C([H])([H])C([H])([H])C([H])(n2nc(-c3c([H])c([H])c(Oc4c([H])c([H])c(F)c([H])c4F)c([H])c3[H])c(C(=O)N([H])[H])c2N([H])[H])C1([H])[H])C([H])([H])C([H])(C([H])([H])[H])C([H])([H])[H]

$$$$
30:0:0
     RDKit          3D

 94101  0  0  1  0  0  0  0  0999 V2000
  -29.6240  -21.0740   19.9970 N   0  0  1  0  0  4  0  0  0  0  0  0
  -30.5520  -21.3240   20.3100 H   0  0  0  0  0  0  0  0  0  0  0  0
  -28.0190  -22.2110   21.6870 C   0  0  0  0  0  1  0  0  0  0  0  0
  -28.7050  -22.2950   20.3000 C   0  0  0  0  0  3  0  0  0  0  0  0
  -29.2640  -23.8130   20.1860 C   0  0  0  0  0  2  0  0  0  0  0  0
  -28.2050  -24.9610   19.8010 C   0  0  0  0  0  2  0  0  0  0  0  0
  -28.4110  -26.4120   20.0940 O   0  0  0  0  0  0  0  0  0  0  0  0
  -24.6080  -31.7690   23.1920 C   0  0  0  0  0  0  0  0  0  0  0  0
  -27.2870  -27.2670   20.0640 C   0  0  0  0  0  0  0  0  0  0  0  0
  -23.4310  -30.3870   21.5220 C   0  0  0  0  0  3  0  0  0  0  0  0
  -24.9050  -28.8720   20.0750 C   0  0  0  0  0  0  0  0  0  0  0  0
  -25.9690  -30.7170   21.3660 C   0  0  0  0  0  2  0  0  0  0  0  0
  -26.0660  -29.3470   20.7000 C   0  0  0  0  0  0  0  0  0  0  0  0
  -27.2560  -28.5530   20.6970 C   0  0  0  0  0  3  0  0  0  0  0  0
  -26.0990  -26.8580   19.4120 C   0  0  0  0  0  3  0  0  0  0  0  0
  -24.9220  -27.6300   19.4240 C   0  0  0  0  0  3  0  0  0  0  0  0
  -23.6640  -29.7390   20.1310 C   0  0  0  0  0  2  0  0  0  0  0  0
  -24.6890  -30.9760   22.0820 N   0  0  0  0  0  0  0  0  0  0  0  0
  -23.5180  -32.0330   23.7180 O   0  0  0  0  0  0  0  0  0  0  0  0
  -22.7670  -29.3500   22.4580 C   0  0  0  0  0  0  0  0  0  0  0  0
  -21.4420  -29.1780   22.3250 N   0  0  0  0  0  0  0  0  0  0  0  0
  -23.4420  -28.7040   23.2650 O   0  0  0  0  0  0  0  0  0  0  0  0
  -20.9580  -29.7470   21.6440 H   0  0  0  0  0  0  0  0  0  0  0  0
  -18.0540  -27.9990   22.8160 C   0  0  0  0  0  0  0  0  0  0  0  0
  -20.6180  -28.2260   23.0720 C   0  0  0  0  0  3  0  0  0  0  0  0
  -20.7030  -26.8140   22.4500 C   0  0  0  0  0  2  0  0  0  0  0  0
  -19.5870  -26.5350   21.4380 C   0  0  0  0  0  2  0  0  0  0  0  0
  -18.2120  -26.6690   22.0980 C   0  0  0  0  0  2  0  0  0  0  0  0
  -19.1840  -28.7360   23.2590 C   0  0  0  0  0  0  0  0  0  0  0  0
  -18.9830  -29.9820   23.8910 C   0  0  0  0  0  3  0  0  0  0  0  0
  -17.6860  -30.4880   24.0940 C   0  0  0  0  0  3  0  0  0  0  0  0
  -16.5690  -29.7480   23.6660 C   0  0  0  0  0  3  0  0  0  0  0  0
  -16.7530  -28.5070   23.0300 C   0  0  0  0  0  3  0  0  0  0  0  0
  -25.8810  -32.4000   23.8350 C   0  0  0  0  0  3  0  0  0  0  0  0
  -26.3710  -31.6260   25.1210 C   0  0  1  0  0  0  0  0  0  0  0  0
  -25.2590  -31.3850   26.1680 C   0  0  0  0  0  1  0  0  0  0  0  0
  -26.9660  -30.2480   24.7440 C   0  0  0  0  0  1  0  0  0  0  0  0
  -27.5080  -32.4230   25.8040 C   0  0  0  0  0  1  0  0  0  0  0  0
  -25.5610  -33.7970   24.1620 N   0  0  0  0  0  0  0  0  0  0  0  0
  -25.9120  -34.8530   23.4150 C   0  0  0  0  0  0  0  0  0  0  0  0
  -26.6070  -34.7520   22.3990 O   0  0  0  0  0  0  0  0  0  0  0  0
  -24.9460  -33.9500   24.9470 H   0  0  0  0  0  0  0  0  0  0  0  0
  -24.1930  -36.6530   23.0350 C   0  0  0  0  0  1  0  0  0  0  0  0
  -25.4170  -36.2400   23.8680 C   0  0  0  0  0  3  0  0  0  0  0  0
  -27.5340  -37.1220   24.7460 C   0  0  0  0  0  1  0  0  0  0  0  0
  -26.4510  -37.2960   23.7820 N   0  0  0  0  0  0  0  0  0  0  0  0
  -26.0420  -38.2140   23.9300 H   0  0  0  0  0  0  0  0  0  0  0  0
  -29.3300  -19.7650   20.7730 C   0  0  0  0  0  2  0  0  0  0  0  0
  -29.8430  -18.3250   20.2480 C   0  0  0  0  0  2  0  0  0  0  0  0
  -30.0860  -17.1520   21.3050 C   0  0  0  0  0  2  0  0  0  0  0  0
  -30.5850  -14.6630   20.6200 C   0  0  0  0  0  0  0  0  0  0  0  0
  -30.4240  -12.4310   19.5270 C   0  0  0  0  0  2  0  0  0  0  0  0
  -29.4970  -12.5290   18.2960 C   0  0  0  0  0  2  0  0  0  0  0  0
  -28.0160  -12.3660   18.6970 C   0  0  0  0  0  2  0  0  0  0  0  0
  -27.6280  -13.2230   19.9310 C   0  0  0  0  0  3  0  0  0  0  0  0
  -28.6640  -13.0780   21.0620 C   0  0  0  0  0  2  0  0  0  0  0  0
  -29.9740  -13.4420   20.5040 N   0  0  0  0  0  0  0  0  0  0  0  0
  -31.7640  -14.8270   20.2990 O   0  0  0  0  0  0  0  0  0  0  0  0
  -29.7720  -15.7210   20.9390 N   0  0  0  0  0  0  0  0  0  0  0  0
  -28.8120  -15.4510   21.0940 H   0  0  0  0  0  0  0  0  0  0  0  0
  -25.2190  -13.7990   20.6020 C   0  0  0  0  0  0  0  0  0  0  0  0
  -24.1540  -13.0170   20.9530 C   0  0  0  0  0  0  0  0  0  0  0  0
  -24.6290  -11.6680   20.9330 C   0  0  0  0  0  0  0  0  0  0  0  0
  -26.2740  -12.9270   20.3900 N   0  0  0  0  0  0  0  0  0  0  0  0
  -25.9230  -11.6410   20.6490 N   0  0  0  0  0  0  0  0  0  0  0  0
  -23.9110  -10.4000   21.1090 C   0  0  0  0  0  0  0  0  0  0  0  0
  -24.3360   -9.4330   22.0480 C   0  0  0  0  0  3  0  0  0  0  0  0
  -23.6170   -8.2320   22.2110 C   0  0  0  0  0  3  0  0  0  0  0  0
  -22.4600   -7.9840   21.4340 C   0  0  0  0  0  0  0  0  0  0  0  0
  -22.0550   -8.9400   20.4850 C   0  0  0  0  0  3  0  0  0  0  0  0
  -22.7750  -10.1350   20.3210 C   0  0  0  0  0  3  0  0  0  0  0  0
  -21.7110   -6.8350   21.5070 O   0  0  0  0  0  0  0  0  0  0  0  0
  -21.6560   -6.0850   22.6550 C   0  0  0  0  0  0  0  0  0  0  0  0
  -21.1970   -6.6230   23.8770 C   0  0  0  0  0  3  0  0  0  0  0  0
  -21.0930   -5.7970   25.0140 C   0  0  0  0  0  3  0  0  0  0  0  0
  -21.4360   -4.4350   24.9320 C   0  0  0  0  0  0  0  0  0  0  0  0
  -21.8900   -3.8960   23.7150 C   0  0  0  0  0  3  0  0  0  0  0  0
  -21.9960   -4.7190   22.5780 C   0  0  0  0  0  0  0  0  0  0  0  0
  -22.4130   -4.1880   21.4030 F   0  0  0  0  0  0  0  0  0  0  0  0
  -21.3280   -3.6410   26.0220 F   0  0  0  0  0  0  0  0  0  0  0  0
  -22.7480  -13.4810   21.2000 C   0  0  0  0  0  0  0  0  0  0  0  0
  -22.0110  -12.7780   22.0530 N   0  0  0  0  0  0  0  0  0  0  0  0
  -22.3090  -14.5020   20.6700 O   0  0  0  0  0  0  0  0  0  0  0  0
  -22.3790  -11.9510   22.5020 H   0  0  0  0  0  0  0  0  0  0  0  0
  -21.0660  -13.0680   22.2610 H   0  0  0  0  0  0  0  0  0  0  0  0
  -25.3780  -15.1720   20.4230 N   0  0  0  0  0  0  0  0  0  0  0  0
  -24.6010  -15.8220   20.4910 H   0  0  0  0  0  0  0  0  0  0  0  0
  -26.2220  -15.6020   20.0670 H   0  0  0  0  0  0  0  0  0  0  0  0
  -29.7490  -20.8070   18.5220 C   0  0  0  0  0  3  0  0  0  0  0  0
  -30.7030  -21.7630   17.7600 C   0  0  0  0  0  3  0  0  0  0  0  0
  -31.9220  -22.4790   15.6720 C   0  0  0  0  0  1  0  0  0  0  0  0
  -32.2690  -20.1570   16.5030 C   0  0  0  0  0  1  0  0  0  0  0  0
  -30.0720  -20.8100   15.4760 C   0  0  0  0  0  1  0  0  0  0  0  0
  -31.2290  -21.2880   16.3730 C   0  0  1  0  0  0  0  0  0  0  0  0
  1  4  1  0
  1  2  1  1
  1 48  1  0
  4  3  1  0
  5  4  1  0
  6  7  1  0
  6  5  1  0
  8 19  2  0
  9  7  1  0
  9 14  1  0
 10 18  1  0
 10 20  1  0
 11 17  1  0
 11 13  1  0
 12 18  1  0
 13 12  1  0
 14 13  2  0
 15 16  1  0
 15  9  2  0
 16 11  2  0
 17 10  1  0
 18  8  1  0
 20 22  2  0
 21 20  1  0
 23 21  1  0
 24 33  2  0
 24 29  1  0
 25 21  1  0
 25 29  1  0
 26 25  1  0
 27 28  1  0
 27 26  1  0
 28 24  1  0
 29 30  2  0
 30 31  1  0
 32 31  2  0
 33 32  1  0
 34  8  1  0
 34 39  1  0
 34 35  1  0
 35 38  1  1
 35 36  1  0
 37 35  1  0
 39 42  1  0
 40 44  1  0
 40 39  1  0
 41 40  2  0
 44 43  1  0
 46 44  1  0
 46 47  1  0
 46 45  1  0
 49 48  1  0
 49 50  1  0
 51 59  1  0
 52 57  1  0
 53 54  1  0
 53 52  1  0
 55 54  1  0
 55 64  1  0
 55 56  1  0
 57 51  1  0
 57 56  1  0
 58 51  2  0
 59 60  1  0
 59 50  1  0
 61 62  2  0
 62 81  1  0
 63 62  1  0
 63 66  1  0
 64 61  1  0
 64 65  1  0
 65 63  2  0
 66 67  1  0
 67 68  2  0
 69 72  1  0
 69 68  1  0
 70 69  2  0
 71 70  1  0
 71 66  2  0
 72 73  1  0
 73 74  1  0
 74 75  2  0
 76 75  1  0
 76 80  1  0
 77 76  2  0
 78 73  2  0
 78 77  1  0
 79 78  1  0
 81 82  1  0
 82 85  1  0
 82 84  1  0
 83 81  2  0
 86 87  1  0
 86 61  1  0
 88 86  1  0
 89  1  1  0
 90 89  2  0
 94 91  1  6
 93 94  1  0
 94 92  1  0
 94 90  1  0
M  ISO  4   6 101   7 101  51 100  59 100
M  END
>  <TORSDO>  (31) 
F 25

>  <SCORE>  (31) 
-12.196

>  <name>  (31) 
30

>  <ligand_id>  (31) 
30

>  <original_smiles>  (31) 
[H]c1c([H])c([H])c2c(c1[H])C([H])([H])C([H])([H])C([H])([H])C2([H])N([H])C(=O)C1([H])N(C(=O)C([H])(N([H])C(=O)C([H])(N([H])C([H])([H])[H])C([H])([H])[H])C(C([H])([H])[H])(C([H])([H])[H])C([H])([H])[H])C([H])([H])c2c([H])c(OC([H])([H])C([H])([H])C([H])(C([H])([H])[H])[N+]([H])(C([H])([H])C([H])([H])C([H])([H])N([H])C(=O)N3C([H])([H])C([H])([H])C([H])([H])C([H])(n4nc(-c5c([H])c([H])c(Oc6c([H])c([H])c(F)c([H])c6F)c([H])c5[H])c(C(=O)N([H])[H])c4N([H])[H])C3([H])[H])C([H])([H])C([H])([H])C(C([H])([H])[H])(C([H])([H])[H])C([H])([H])[H])c([H])c([H])c2C1([H])[H]

>  <smiles>  (31) 
[H]c1c([H])c([H])c2c(c1[H])C([H])([H])C([H])([H])C([H])([H])C2([H])N([H])C(=O)C1([H])N(C(=O)C([H])(N([H])C(=O)C([H])(N([H])C([H])([H])[H])C([H])([H])[H])C(C([H])([H])[H])(C([H])([H])[H])C([H])([H])[H])C([H])([H])c2c([H])c(OC([H])([H])C([H])([H])C([H])(C([H])([H])[H])[N+]([H])(C([H])([H])C([H])([H])C([H])([H])N([H])C(=O)N3C([H])([H])C([H])([H])C([H])([H])C([H])(n4nc(-c5c([H])c([H])c(Oc6c([H])c([H])c(F)c([H])c6F)c([H])c5[H])c(C(=O)N([H])[H])c4N([H])[H])C3([H])[H])C([H])([H])C([H])([H])C(C([H])([H])[H])(C([H])([H])[H])C([H])([H])[H])c([H])c([H])c2C1([H])[H]

$$$$
31:0:0
     RDKit          3D

 92100  0  0  1  0  0  0  0  0999 V2000
  -27.1170  -20.8250   19.9550 C   0  0  0  0  0  3  0  0  0  0  0  0
  -27.3290  -22.0470   19.3130 C   0  0  0  0  0  3  0  0  0  0  0  0
  -28.2120  -19.9620   20.1490 C   0  0  0  0  0  0  0  0  0  0  0  0
  -28.6290  -22.3840   18.9040 C   0  0  0  0  0  0  0  0  0  0  0  0
  -29.4870  -20.3780   19.6830 C   0  0  0  0  0  0  0  0  0  0  0  0
  -27.9650  -18.6200   20.8230 C   0  0  0  0  0  1  0  0  0  0  0  0
  -29.6810  -21.5610   19.0710 N   0  0  0  0  0  0  0  0  0  0  0  0
  -28.9320  -23.7330   18.3010 C   0  0  0  0  0  2  0  0  0  0  0  0
  -28.3370  -24.8630   19.1460 C   0  0  0  0  0  2  0  0  0  0  0  0
  -28.7150  -26.2400   18.6120 C   0  0  0  0  0  2  0  0  0  0  0  0
  -28.4690  -27.2270   19.5960 O   0  0  0  0  0  0  0  0  0  0  0  0
  -24.5690  -31.8580   23.2340 C   0  0  0  0  0  0  0  0  0  0  0  0
  -27.2330  -27.8250   19.6770 C   0  0  0  0  0  0  0  0  0  0  0  0
  -23.3430  -30.5700   21.5120 C   0  0  0  0  0  3  0  0  0  0  0  0
  -24.7860  -29.2210   19.9030 C   0  0  0  0  0  0  0  0  0  0  0  0
  -25.8430  -31.0240   21.2720 C   0  0  0  0  0  2  0  0  0  0  0  0
  -25.9400  -29.7170   20.5190 C   0  0  0  0  0  0  0  0  0  0  0  0
  -27.1560  -29.0150   20.4250 C   0  0  0  0  0  3  0  0  0  0  0  0
  -26.0620  -27.3410   19.0420 C   0  0  0  0  0  3  0  0  0  0  0  0
  -24.8410  -28.0270   19.1640 C   0  0  0  0  0  3  0  0  0  0  0  0
  -23.5160  -30.0280   20.0660 C   0  0  0  0  0  2  0  0  0  0  0  0
  -24.6050  -31.1590   22.0640 N   0  0  0  0  0  0  0  0  0  0  0  0
  -23.5010  -32.0530   23.8290 O   0  0  0  0  0  0  0  0  0  0  0  0
  -22.7650  -29.4420   22.3950 C   0  0  0  0  0  0  0  0  0  0  0  0
  -21.4670  -29.1570   22.2130 N   0  0  0  0  0  0  0  0  0  0  0  0
  -23.4780  -28.8330   23.1970 O   0  0  0  0  0  0  0  0  0  0  0  0
  -20.9490  -29.7050   21.5400 H   0  0  0  0  0  0  0  0  0  0  0  0
  -18.2210  -27.5980   22.4500 C   0  0  0  0  0  0  0  0  0  0  0  0
  -20.7100  -28.1180   22.9100 C   0  0  0  0  0  3  0  0  0  0  0  0
  -21.0090  -26.7230   22.3140 C   0  0  0  0  0  2  0  0  0  0  0  0
  -20.0190  -26.3120   21.2190 C   0  0  0  0  0  2  0  0  0  0  0  0
  -18.5880  -26.2940   21.7670 C   0  0  0  0  0  2  0  0  0  0  0  0
  -19.2170  -28.4630   22.9740 C   0  0  0  0  0  0  0  0  0  0  0  0
  -18.8270  -29.6840   23.5640 C   0  0  0  0  0  3  0  0  0  0  0  0
  -17.4660  -30.0410   23.6450 C   0  0  0  0  0  3  0  0  0  0  0  0
  -16.4820  -29.1710   23.1420 C   0  0  0  0  0  3  0  0  0  0  0  0
  -16.8610  -27.9540   22.5490 C   0  0  0  0  0  3  0  0  0  0  0  0
  -25.8620  -32.4720   23.8570 C   0  0  0  0  0  3  0  0  0  0  0  0
  -25.5680  -33.8700   24.1940 N   0  0  0  0  0  0  0  0  0  0  0  0
  -25.9180  -34.9220   23.4430 C   0  0  0  0  0  0  0  0  0  0  0  0
  -26.5970  -34.8170   22.4180 O   0  0  0  0  0  0  0  0  0  0  0  0
  -24.9700  -34.0290   24.9920 H   0  0  0  0  0  0  0  0  0  0  0  0
  -24.2100  -36.7280   23.0850 C   0  0  0  0  0  1  0  0  0  0  0  0
  -25.4410  -36.3110   23.9050 C   0  0  0  0  0  3  0  0  0  0  0  0
  -27.5690  -37.1760   24.7700 C   0  0  0  0  0  1  0  0  0  0  0  0
  -26.4840  -37.3540   23.8090 N   0  0  0  0  0  0  0  0  0  0  0  0
  -26.0840  -38.2770   23.9510 H   0  0  0  0  0  0  0  0  0  0  0  0
  -26.3760  -31.6820   25.1210 C   0  0  1  0  0  0  0  0  0  0  0  0
  -25.2810  -31.4240   26.1820 C   0  0  0  0  0  1  0  0  0  0  0  0
  -26.9600  -30.3110   24.7080 C   0  0  0  0  0  1  0  0  0  0  0  0
  -27.5250  -32.4670   25.7980 C   0  0  0  0  0  1  0  0  0  0  0  0
  -30.7550  -19.5430   19.8510 C   0  0  0  0  0  2  0  0  0  0  0  0
  -30.7110  -18.1230   19.2510 C   0  0  0  0  0  2  0  0  0  0  0  0
  -31.7930  -17.2180   19.8850 C   0  0  0  0  0  2  0  0  0  0  0  0
  -31.8880  -14.7540   19.5120 C   0  0  0  0  0  0  0  0  0  0  0  0
  -31.5690  -12.3800   18.8920 C   0  0  0  0  0  2  0  0  0  0  0  0
  -30.5650  -12.2390   17.7290 C   0  0  0  0  0  2  0  0  0  0  0  0
  -29.1180  -12.2350   18.2470 C   0  0  0  0  0  2  0  0  0  0  0  0
  -28.8300  -13.3720   19.2600 C   0  0  0  0  0  3  0  0  0  0  0  0
  -29.9200  -13.3920   20.3500 C   0  0  0  0  0  2  0  0  0  0  0  0
  -31.2190  -13.5780   19.6740 N   0  0  0  0  0  0  0  0  0  0  0  0
  -32.9170  -14.8520   18.8410 O   0  0  0  0  0  0  0  0  0  0  0  0
  -31.3210  -15.8350   20.0630 N   0  0  0  0  0  0  0  0  0  0  0  0
  -30.4620  -15.7000   20.5830 H   0  0  0  0  0  0  0  0  0  0  0  0
  -26.5660  -14.2040   20.1490 C   0  0  0  0  0  0  0  0  0  0  0  0
  -25.4610  -13.5340   20.5900 C   0  0  0  0  0  0  0  0  0  0  0  0
  -25.7770  -12.1420   20.5050 C   0  0  0  0  0  0  0  0  0  0  0  0
  -27.4980  -13.2270   19.8310 N   0  0  0  0  0  0  0  0  0  0  0  0
  -27.0290  -11.9820   20.1000 N   0  0  0  0  0  0  0  0  0  0  0  0
  -24.9430  -10.9610   20.7340 C   0  0  0  0  0  0  0  0  0  0  0  0
  -25.2460  -10.0490   21.7680 C   0  0  0  0  0  3  0  0  0  0  0  0
  -24.4270   -8.9200   21.9860 C   0  0  0  0  0  3  0  0  0  0  0  0
  -23.2920   -8.7010   21.1710 C   0  0  0  0  0  0  0  0  0  0  0  0
  -23.0050   -9.6060   20.1310 C   0  0  0  0  0  3  0  0  0  0  0  0
  -23.8220  -10.7250   19.9100 C   0  0  0  0  0  3  0  0  0  0  0  0
  -22.4530   -7.6170   21.2950 O   0  0  0  0  0  0  0  0  0  0  0  0
  -22.1550   -7.0670   22.5150 C   0  0  0  0  0  0  0  0  0  0  0  0
  -21.5220   -7.8170   23.5330 C   0  0  0  0  0  3  0  0  0  0  0  0
  -21.1710   -7.1930   24.7480 C   0  0  0  0  0  3  0  0  0  0  0  0
  -21.4350   -5.8260   24.9410 C   0  0  0  0  0  0  0  0  0  0  0  0
  -22.0540   -5.0750   23.9260 C   0  0  0  0  0  3  0  0  0  0  0  0
  -22.4090   -5.6930   22.7130 C   0  0  0  0  0  0  0  0  0  0  0  0
  -22.9860   -4.9620   21.7290 F   0  0  0  0  0  0  0  0  0  0  0  0
  -21.0900   -5.2260   26.1060 F   0  0  0  0  0  0  0  0  0  0  0  0
  -24.1410  -14.1310   20.9870 C   0  0  0  0  0  0  0  0  0  0  0  0
  -23.4480  -13.4950   21.9260 N   0  0  0  0  0  0  0  0  0  0  0  0
  -23.7420  -15.1900   20.5010 O   0  0  0  0  0  0  0  0  0  0  0  0
  -23.7910  -12.6360   22.3310 H   0  0  0  0  0  0  0  0  0  0  0  0
  -22.5610  -13.8640   22.2410 H   0  0  0  0  0  0  0  0  0  0  0  0
  -26.8550  -15.5580   19.9700 N   0  0  0  0  0  0  0  0  0  0  0  0
  -27.7070  -15.8960   19.5500 H   0  0  0  0  0  0  0  0  0  0  0  0
  -26.1770  -16.2930   20.1480 H   0  0  0  0  0  0  0  0  0  0  0  0
  1  3  1  0
  2  1  2  0
  3  6  1  0
  4  7  2  0
  4  2  1  0
  5 52  1  0
  5  3  2  0
  7  5  1  0
  8  4  1  0
  8  9  1  0
 10  9  1  0
 10 11  1  0
 11 13  1  0
 12 23  2  0
 13 18  1  0
 14 22  1  0
 14 24  1  0
 15 21  1  0
 15 17  1  0
 16 22  1  0
 17 16  1  0
 18 17  2  0
 19 20  1  0
 19 13  2  0
 20 15  2  0
 21 14  1  0
 22 12  1  0
 24 26  2  0
 25 24  1  0
 27 25  1  0
 28 37  2  0
 28 33  1  0
 29 25  1  0
 29 33  1  0
 30 29  1  0
 31 32  1  0
 31 30  1  0
 32 28  1  0
 33 34  2  0
 34 35  1  0
 36 35  2  0
 37 36  1  0
 38 12  1  0
 38 39  1  0
 38 48  1  0
 39 42  1  0
 40 44  1  0
 40 39  1  0
 41 40  2  0
 44 43  1  0
 46 44  1  0
 46 47  1  0
 46 45  1  0
 48 51  1  1
 48 49  1  0
 50 48  1  0
 53 52  1  0
 53 54  1  0
 54 63  1  0
 55 61  1  0
 55 63  1  0
 56 61  1  0
 57 58  1  0
 57 56  1  0
 59 58  1  0
 59 68  1  0
 59 60  1  0
 61 60  1  0
 62 55  2  0
 63 64  1  0
 65 66  2  0
 66 85  1  0
 67 66  1  0
 67 70  1  0
 68 69  1  0
 68 65  1  0
 69 67  2  0
 70 71  1  0
 71 72  2  0
 73 76  1  0
 73 72  1  0
 74 73  2  0
 75 74  1  0
 75 70  2  0
 76 77  1  0
 77 82  2  0
 77 78  1  0
 78 79  2  0
 79 80  1  0
 80 84  1  0
 81 80  2  0
 82 81  1  0
 83 82  1  0
 85 86  1  0
 86 89  1  0
 86 88  1  0
 87 85  2  0
 90 92  1  0
 90 65  1  0
 91 90  1  0
M  ISO  4  10 101  11 101  55 100  63 100
M  END
>  <TORSDO>  (32) 
F 22

>  <SCORE>  (32) 
-10.446

>  <name>  (32) 
31

>  <ligand_id>  (32) 
31

>  <original_smiles>  (32) 
[H]c1c(C([H])([H])C([H])([H])C([H])([H])Oc2c([H])c([H])c3c(c2[H])C([H])([H])N(C(=O)C([H])(N([H])C(=O)C([H])(N([H])C([H])([H])[H])C([H])([H])[H])C(C([H])([H])[H])(C([H])([H])[H])C([H])([H])[H])C([H])(C(=O)N([H])C2([H])c4c([H])c([H])c([H])c([H])c4C([H])([H])C([H])([H])C2([H])[H])C3([H])[H])nc(C([H])([H])C([H])([H])C([H])([H])N([H])C(=O)N2C([H])([H])C([H])([H])C([H])([H])C([H])(n3nc(-c4c([H])c([H])c(Oc5c([H])c([H])c(F)c([H])c5F)c([H])c4[H])c(C(=O)N([H])[H])c3N([H])[H])C2([H])[H])c(C([H])([H])[H])c1[H]

>  <smiles>  (32) 
[H]c1c(C([H])([H])C([H])([H])C([H])([H])Oc2c([H])c([H])c3c(c2[H])C([H])([H])N(C(=O)C([H])(N([H])C(=O)C([H])(N([H])C([H])([H])[H])C([H])([H])[H])C(C([H])([H])[H])(C([H])([H])[H])C([H])([H])[H])C([H])(C(=O)N([H])C2([H])c4c([H])c([H])c([H])c([H])c4C([H])([H])C([H])([H])C2([H])[H])C3([H])[H])nc(C([H])([H])C([H])([H])C([H])([H])N([H])C(=O)N2C([H])([H])C([H])([H])C([H])([H])C([H])(n3nc(-c4c([H])c([H])c(Oc5c([H])c([H])c(F)c([H])c5F)c([H])c4[H])c(C(=O)N([H])[H])c3N([H])[H])C2([H])[H])c(C([H])([H])[H])c1[H]

$$$$
32:0:0
     RDKit          3D

 93101  0  0  1  0  0  0  0  0999 V2000
  -29.4220  -21.7320   23.0840 C   0  0  0  0  0  3  0  0  0  0  0  0
  -28.8670  -21.6560   21.7870 C   0  0  0  0  0  0  0  0  0  0  0  0
  -29.2470  -24.0270   23.0380 C   0  0  0  0  0  0  0  0  0  0  0  0
  -28.6260  -23.9560   21.7590 C   0  0  0  0  0  0  0  0  0  0  0  0
  -29.6290  -22.9130   23.7050 N   0  0  0  0  0  0  0  0  0  0  0  0
  -28.4620  -22.7670   21.1180 N   0  0  0  0  0  0  0  0  0  0  0  0
  -28.3310  -25.7490   24.6560 C   0  0  0  0  0  1  0  0  0  0  0  0
  -29.5140  -25.3320   23.7730 C   0  0  0  0  0  2  0  0  0  0  0  0
  -28.7020  -20.3080   21.0960 C   0  0  0  0  0  2  0  0  0  0  0  0
  -29.9950  -19.4610   21.1030 C   0  0  0  0  0  2  0  0  0  0  0  0
  -29.7400  -17.9830   20.7700 C   0  0  0  0  0  2  0  0  0  0  0  0
  -30.9860  -17.0940   20.9480 C   0  0  0  0  0  2  0  0  0  0  0  0
  -31.2810  -14.6720   20.4330 C   0  0  0  0  0  0  0  0  0  0  0  0
  -30.9740  -12.4560   19.4060 C   0  0  0  0  0  2  0  0  0  0  0  0
  -30.0620  -12.6100   18.1720 C   0  0  0  0  0  2  0  0  0  0  0  0
  -28.5760  -12.5210   18.5740 C   0  0  0  0  0  2  0  0  0  0  0  0
  -28.2240  -13.4390   19.7760 C   0  0  0  0  0  3  0  0  0  0  0  0
  -29.2500  -13.2600   20.9180 C   0  0  0  0  0  2  0  0  0  0  0  0
  -30.5970  -13.5000   20.3680 N   0  0  0  0  0  0  0  0  0  0  0  0
  -32.3920  -14.8460   19.9250 O   0  0  0  0  0  0  0  0  0  0  0  0
  -30.6000  -15.6860   20.9800 N   0  0  0  0  0  0  0  0  0  0  0  0
  -29.6950  -15.4600   21.3650 H   0  0  0  0  0  0  0  0  0  0  0  0
  -25.8530  -14.1370   20.5060 C   0  0  0  0  0  0  0  0  0  0  0  0
  -24.7480  -13.4030   20.8450 C   0  0  0  0  0  0  0  0  0  0  0  0
  -25.1450  -12.0330   20.7640 C   0  0  0  0  0  0  0  0  0  0  0  0
  -26.8560  -13.2160   20.2420 N   0  0  0  0  0  0  0  0  0  0  0  0
  -26.4330  -11.9450   20.4520 N   0  0  0  0  0  0  0  0  0  0  0  0
  -24.3600  -10.8010   20.9060 C   0  0  0  0  0  0  0  0  0  0  0  0
  -24.7290   -9.7900   21.8210 C   0  0  0  0  0  3  0  0  0  0  0  0
  -23.9450   -8.6230   21.9530 C   0  0  0  0  0  3  0  0  0  0  0  0
  -22.7800   -8.4590   21.1670 C   0  0  0  0  0  0  0  0  0  0  0  0
  -22.4300   -9.4590   20.2410 C   0  0  0  0  0  3  0  0  0  0  0  0
  -23.2140  -10.6160   20.1080 C   0  0  0  0  0  3  0  0  0  0  0  0
  -21.9730   -7.3490   21.2080 O   0  0  0  0  0  0  0  0  0  0  0  0
  -21.8250   -6.6070   22.3540 C   0  0  0  0  0  0  0  0  0  0  0  0
  -21.3500   -7.1790   23.5550 C   0  0  0  0  0  3  0  0  0  0  0  0
  -21.1460   -6.3650   24.6870 C   0  0  0  0  0  3  0  0  0  0  0  0
  -21.4090   -4.9850   24.6210 C   0  0  0  0  0  0  0  0  0  0  0  0
  -21.8780   -4.4140   23.4240 C   0  0  0  0  0  3  0  0  0  0  0  0
  -22.0830   -5.2230   22.2930 C   0  0  0  0  0  0  0  0  0  0  0  0
  -22.5130   -4.6630   21.1370 F   0  0  0  0  0  0  0  0  0  0  0  0
  -21.2070   -4.2020   25.7070 F   0  0  0  0  0  0  0  0  0  0  0  0
  -23.3750  -13.9360   21.1350 C   0  0  0  0  0  0  0  0  0  0  0  0
  -22.6160  -13.2490   21.9820 N   0  0  0  0  0  0  0  0  0  0  0  0
  -22.9840  -14.9960   20.6470 O   0  0  0  0  0  0  0  0  0  0  0  0
  -22.9440  -12.3910   22.4000 H   0  0  0  0  0  0  0  0  0  0  0  0
  -21.6930  -13.5870   22.2140 H   0  0  0  0  0  0  0  0  0  0  0  0
  -26.0800  -15.5040   20.3800 N   0  0  0  0  0  0  0  0  0  0  0  0
  -25.3370  -16.1830   20.5100 H   0  0  0  0  0  0  0  0  0  0  0  0
  -26.9460  -15.9210   20.0640 H   0  0  0  0  0  0  0  0  0  0  0  0
  -28.0610  -25.1890   21.0630 C   0  0  0  0  0  2  0  0  0  0  0  0
  -28.9750  -25.7710   19.9640 C   0  0  0  0  0  2  0  0  0  0  0  0
  -28.8970  -27.1970   19.8980 O   0  0  0  0  0  0  0  0  0  0  0  0
  -24.6250  -31.8170   23.1520 C   0  0  0  0  0  0  0  0  0  0  0  0
  -27.6550  -27.7910   19.8850 C   0  0  0  0  0  0  0  0  0  0  0  0
  -23.5570  -30.4310   21.4020 C   0  0  0  0  0  3  0  0  0  0  0  0
  -25.1470  -29.0890   19.9290 C   0  0  0  0  0  0  0  0  0  0  0  0
  -26.0510  -30.9870   21.2880 C   0  0  0  0  0  2  0  0  0  0  0  0
  -26.2480  -29.6690   20.5690 C   0  0  0  0  0  0  0  0  0  0  0  0
  -27.5040  -29.0300   20.5400 C   0  0  0  0  0  3  0  0  0  0  0  0
  -26.5380  -27.2120   19.2420 C   0  0  0  0  0  3  0  0  0  0  0  0
  -25.2850  -27.8570   19.2630 C   0  0  0  0  0  3  0  0  0  0  0  0
  -23.8420  -29.8460   19.9930 C   0  0  0  0  0  2  0  0  0  0  0  0
  -24.7590  -31.0910   22.0060 N   0  0  0  0  0  0  0  0  0  0  0  0
  -23.5160  -31.9790   23.6820 O   0  0  0  0  0  0  0  0  0  0  0  0
  -22.9650  -29.3110   22.2880 C   0  0  0  0  0  0  0  0  0  0  0  0
  -21.6540  -29.0660   22.1420 N   0  0  0  0  0  0  0  0  0  0  0  0
  -23.6830  -28.6690   23.0610 O   0  0  0  0  0  0  0  0  0  0  0  0
  -21.1320  -29.6400   21.4950 H   0  0  0  0  0  0  0  0  0  0  0  0
  -18.3420  -27.6980   22.5840 C   0  0  0  0  0  0  0  0  0  0  0  0
  -20.8910  -28.0330   22.8420 C   0  0  0  0  0  3  0  0  0  0  0  0
  -21.0400  -26.6600   22.1460 C   0  0  0  0  0  2  0  0  0  0  0  0
  -19.9360  -26.3810   21.1220 C   0  0  0  0  0  2  0  0  0  0  0  0
  -18.5600  -26.4190   21.7930 C   0  0  0  0  0  2  0  0  0  0  0  0
  -19.4380  -28.4640   23.0630 C   0  0  0  0  0  0  0  0  0  0  0  0
  -19.1820  -29.6650   23.7580 C   0  0  0  0  0  3  0  0  0  0  0  0
  -17.8620  -30.1000   23.9840 C   0  0  0  0  0  3  0  0  0  0  0  0
  -16.7820  -29.3280   23.5240 C   0  0  0  0  0  3  0  0  0  0  0  0
  -17.0210  -28.1300   22.8290 C   0  0  0  0  0  3  0  0  0  0  0  0
  -25.8500  -32.5030   23.8370 C   0  0  0  0  0  3  0  0  0  0  0  0
  -25.4590  -33.8800   24.1620 N   0  0  0  0  0  0  0  0  0  0  0  0
  -25.7730  -34.9550   23.4260 C   0  0  0  0  0  0  0  0  0  0  0  0
  -26.4940  -34.8940   22.4260 O   0  0  0  0  0  0  0  0  0  0  0  0
  -24.8240  -34.0000   24.9380 H   0  0  0  0  0  0  0  0  0  0  0  0
  -23.9720  -36.6580   23.0100 C   0  0  0  0  0  1  0  0  0  0  0  0
  -25.1970  -36.3120   23.8720 C   0  0  0  0  0  3  0  0  0  0  0  0
  -27.2460  -37.2950   24.7990 C   0  0  0  0  0  1  0  0  0  0  0  0
  -26.1780  -37.4180   23.8090 N   0  0  0  0  0  0  0  0  0  0  0  0
  -25.7200  -38.3150   23.9470 H   0  0  0  0  0  0  0  0  0  0  0  0
  -26.3470  -31.7440   25.1270 C   0  0  1  0  0  0  0  0  0  0  0  0
  -25.2190  -31.4400   26.1400 C   0  0  0  0  0  1  0  0  0  0  0  0
  -27.0180  -30.4040   24.7480 C   0  0  0  0  0  1  0  0  0  0  0  0
  -27.4250  -32.5880   25.8490 C   0  0  0  0  0  1  0  0  0  0  0  0
  1  5  1  0
  2  1  2  0
  3  5  2  0
  3  8  1  0
  4  3  1  0
  6  4  2  0
  6  2  1  0
  8  7  1  0
  9 10  1  0
  9  2  1  0
 11 12  1  0
 11 10  1  0
 12 21  1  0
 13 21  1  0
 14 19  1  0
 15 16  1  0
 15 14  1  0
 17 16  1  0
 17 26  1  0
 17 18  1  0
 19 13  1  0
 19 18  1  0
 20 13  2  0
 21 22  1  0
 23 24  2  0
 24 43  1  0
 25 24  1  0
 25 28  1  0
 26 27  1  0
 26 23  1  0
 27 25  2  0
 28 29  1  0
 29 30  2  0
 31 34  1  0
 31 30  1  0
 32 31  2  0
 33 32  1  0
 33 28  2  0
 34 35  1  0
 35 36  1  0
 36 37  2  0
 38 37  1  0
 38 42  1  0
 39 38  2  0
 40 35  2  0
 40 39  1  0
 41 40  1  0
 43 44  1  0
 44 47  1  0
 44 46  1  0
 45 43  2  0
 48 23  1  0
 48 49  1  0
 50 48  1  0
 51  4  1  0
 52 51  1  0
 53 52  1  0
 54 65  2  0
 55 53  1  0
 55 60  1  0
 56 64  1  0
 56 66  1  0
 57 63  1  0
 57 59  1  0
 58 64  1  0
 59 58  1  0
 60 59  2  0
 61 62  1  0
 61 55  2  0
 62 57  2  0
 63 56  1  0
 64 54  1  0
 66 68  2  0
 67 66  1  0
 69 67  1  0
 70 79  2  0
 70 75  1  0
 71 67  1  0
 71 75  1  0
 72 71  1  0
 73 74  1  0
 73 72  1  0
 74 70  1  0
 75 76  2  0
 76 77  1  0
 78 77  2  0
 79 78  1  0
 80 54  1  0
 80 81  1  0
 80 90  1  0
 81 84  1  0
 82 86  1  0
 82 81  1  0
 83 82  2  0
 86 85  1  0
 88 86  1  0
 88 89  1  0
 88 87  1  0
 90 93  1  1
 90 91  1  0
 92 90  1  0
M  ISO  4  13 100  21 100  52 101  53 101
M  END
>  <TORSDO>  (33) 
F 23

>  <SCORE>  (33) 
-11.284

>  <name>  (33) 
32

>  <ligand_id>  (33) 
32

>  <original_smiles>  (33) 
[H]c1nc(C([H])([H])C([H])([H])[H])c(C([H])([H])C([H])([H])Oc2c([H])c([H])c3c(c2[H])C([H])([H])N(C(=O)C([H])(N([H])C(=O)C([H])(N([H])C([H])([H])[H])C([H])([H])[H])C(C([H])([H])[H])(C([H])([H])[H])C([H])([H])[H])C([H])(C(=O)N([H])C2([H])c4c([H])c([H])c([H])c([H])c4C([H])([H])C([H])([H])C2([H])[H])C3([H])[H])nc1C([H])([H])C([H])([H])C([H])([H])C([H])([H])N([H])C(=O)N1C([H])([H])C([H])([H])C([H])([H])C([H])(n2nc(-c3c([H])c([H])c(Oc4c([H])c([H])c(F)c([H])c4F)c([H])c3[H])c(C(=O)N([H])[H])c2N([H])[H])C1([H])[H]

>  <smiles>  (33) 
[H]c1nc(C([H])([H])C([H])([H])[H])c(C([H])([H])C([H])([H])Oc2c([H])c([H])c3c(c2[H])C([H])([H])N(C(=O)C([H])(N([H])C(=O)C([H])(N([H])C([H])([H])[H])C([H])([H])[H])C(C([H])([H])[H])(C([H])([H])[H])C([H])([H])[H])C([H])(C(=O)N([H])C2([H])c4c([H])c([H])c([H])c([H])c4C([H])([H])C([H])([H])C2([H])[H])C3([H])[H])nc1C([H])([H])C([H])([H])C([H])([H])C([H])([H])N([H])C(=O)N1C([H])([H])C([H])([H])C([H])([H])C([H])(n2nc(-c3c([H])c([H])c(Oc4c([H])c([H])c(F)c([H])c4F)c([H])c3[H])c(C(=O)N([H])[H])c2N([H])[H])C1([H])[H]

$$$$
33:0:0
     RDKit          3D

 90 98  0  0  1  0  0  0  0  0999 V2000
  -30.2950  -23.4080   19.6170 C   0  0  0  0  0  3  0  0  0  0  0  0
  -29.0040  -23.9920   19.7480 C   0  0  0  0  0  0  0  0  0  0  0  0
  -28.2530  -21.8750   20.4670 C   0  0  0  0  0  0  0  0  0  0  0  0
  -29.5550  -21.2940   20.3370 C   0  0  0  0  0  0  0  0  0  0  0  0
  -27.0890  -21.0620   20.9960 C   0  0  0  0  0  1  0  0  0  0  0  0
  -30.5660  -22.0940   19.8980 N   0  0  0  0  0  0  0  0  0  0  0  0
  -27.9790  -23.1910   20.1660 N   0  0  0  0  0  0  0  0  0  0  0  0
  -29.9630  -19.8690   20.8860 C   0  0  0  0  0  2  0  0  0  0  0  0
  -29.6800  -18.4980   20.1190 C   0  0  0  0  0  2  0  0  0  0  0  0
  -30.4220  -17.2180   20.7340 C   0  0  0  0  0  2  0  0  0  0  0  0
  -30.6800  -14.7220   20.0290 C   0  0  0  0  0  0  0  0  0  0  0  0
  -30.3770  -12.5080   18.9330 C   0  0  0  0  0  2  0  0  0  0  0  0
  -29.3770  -12.6480   17.7640 C   0  0  0  0  0  2  0  0  0  0  0  0
  -27.9280  -12.4910   18.2660 C   0  0  0  0  0  2  0  0  0  0  0  0
  -27.6340  -13.3560   19.5220 C   0  0  0  0  0  3  0  0  0  0  0  0
  -28.7420  -13.1910   20.5840 C   0  0  0  0  0  2  0  0  0  0  0  0
  -30.0200  -13.5240   19.9420 N   0  0  0  0  0  0  0  0  0  0  0  0
  -31.8400  -14.8410   19.6260 O   0  0  0  0  0  0  0  0  0  0  0  0
  -29.9490  -15.8180   20.4170 N   0  0  0  0  0  0  0  0  0  0  0  0
  -28.9900  -15.6130   20.6570 H   0  0  0  0  0  0  0  0  0  0  0  0
  -25.2840  -13.9740   20.3510 C   0  0  0  0  0  0  0  0  0  0  0  0
  -24.2260  -13.2070   20.7640 C   0  0  0  0  0  0  0  0  0  0  0  0
  -24.6760  -11.8530   20.7100 C   0  0  0  0  0  0  0  0  0  0  0  0
  -26.3080  -13.0840   20.0680 N   0  0  0  0  0  0  0  0  0  0  0  0
  -25.9510  -11.8050   20.3450 N   0  0  0  0  0  0  0  0  0  0  0  0
  -23.9490  -10.5960   20.9260 C   0  0  0  0  0  0  0  0  0  0  0  0
  -24.4020   -9.6280   21.8500 C   0  0  0  0  0  3  0  0  0  0  0  0
  -23.6740   -8.4370   22.0550 C   0  0  0  0  0  3  0  0  0  0  0  0
  -22.4790   -8.2020   21.3360 C   0  0  0  0  0  0  0  0  0  0  0  0
  -22.0430   -9.1570   20.4000 C   0  0  0  0  0  3  0  0  0  0  0  0
  -22.7720  -10.3410   20.1940 C   0  0  0  0  0  3  0  0  0  0  0  0
  -21.7210   -7.0620   21.4490 O   0  0  0  0  0  0  0  0  0  0  0  0
  -21.6940   -6.3280   22.6070 C   0  0  0  0  0  0  0  0  0  0  0  0
  -21.2870   -6.8910   23.8370 C   0  0  0  0  0  3  0  0  0  0  0  0
  -21.2090   -6.0830   24.9880 C   0  0  0  0  0  3  0  0  0  0  0  0
  -21.5270   -4.7140   24.9130 C   0  0  0  0  0  0  0  0  0  0  0  0
  -21.9290   -4.1520   23.6880 C   0  0  0  0  0  3  0  0  0  0  0  0
  -22.0090   -4.9560   22.5380 C   0  0  0  0  0  0  0  0  0  0  0  0
  -22.3760   -4.4040   21.3560 F   0  0  0  0  0  0  0  0  0  0  0  0
  -21.4450   -3.9360   26.0170 F   0  0  0  0  0  0  0  0  0  0  0  0
  -22.8470  -13.6970   21.0970 C   0  0  0  0  0  0  0  0  0  0  0  0
  -22.1510  -13.0010   21.9910 N   0  0  0  0  0  0  0  0  0  0  0  0
  -22.3980  -14.7280   20.6020 O   0  0  0  0  0  0  0  0  0  0  0  0
  -22.5270  -12.1650   22.4110 H   0  0  0  0  0  0  0  0  0  0  0  0
  -21.2280  -13.3140   22.2600 H   0  0  0  0  0  0  0  0  0  0  0  0
  -25.4520  -15.3420   20.1700 N   0  0  0  0  0  0  0  0  0  0  0  0
  -24.6920  -16.0000   20.3080 H   0  0  0  0  0  0  0  0  0  0  0  0
  -26.2810  -15.7730   19.7820 H   0  0  0  0  0  0  0  0  0  0  0  0
  -28.7030  -25.4390   19.1930 C   0  0  0  0  0  2  0  0  0  0  0  0
  -28.4880  -26.5880   20.1010 O   0  0  0  0  0  0  0  0  0  0  0  0
  -24.6550  -31.8740   23.1600 C   0  0  0  0  0  0  0  0  0  0  0  0
  -27.3380  -27.3930   20.0380 C   0  0  0  0  0  0  0  0  0  0  0  0
  -23.4730  -30.4830   21.4990 C   0  0  0  0  0  3  0  0  0  0  0  0
  -24.9470  -28.9710   20.0550 C   0  0  0  0  0  0  0  0  0  0  0  0
  -26.0080  -30.8340   21.3270 C   0  0  0  0  0  2  0  0  0  0  0  0
  -26.1060  -29.4650   20.6640 C   0  0  0  0  0  0  0  0  0  0  0  0
  -27.3000  -28.6840   20.6530 C   0  0  0  0  0  3  0  0  0  0  0  0
  -26.1430  -26.9430   19.4290 C   0  0  0  0  0  3  0  0  0  0  0  0
  -24.9660  -27.7160   19.4330 C   0  0  0  0  0  3  0  0  0  0  0  0
  -23.6990  -29.8280   20.1110 C   0  0  0  0  0  2  0  0  0  0  0  0
  -24.7320  -31.0790   22.0540 N   0  0  0  0  0  0  0  0  0  0  0  0
  -23.5680  -32.1340   23.6940 O   0  0  0  0  0  0  0  0  0  0  0  0
  -22.8170  -29.4480   22.4420 C   0  0  0  0  0  0  0  0  0  0  0  0
  -21.4920  -29.2640   22.3120 N   0  0  0  0  0  0  0  0  0  0  0  0
  -23.4980  -28.8130   23.2510 O   0  0  0  0  0  0  0  0  0  0  0  0
  -20.9980  -29.8330   21.6360 H   0  0  0  0  0  0  0  0  0  0  0  0
  -18.1200  -28.0510   22.7970 C   0  0  0  0  0  0  0  0  0  0  0  0
  -20.6780  -28.3100   23.0680 C   0  0  0  0  0  3  0  0  0  0  0  0
  -20.7820  -26.8900   22.4650 C   0  0  0  0  0  2  0  0  0  0  0  0
  -19.6790  -26.5840   21.4470 C   0  0  0  0  0  2  0  0  0  0  0  0
  -18.2970  -26.7150   22.0950 C   0  0  0  0  0  2  0  0  0  0  0  0
  -19.2370  -28.8070   23.2390 C   0  0  0  0  0  0  0  0  0  0  0  0
  -19.0160  -30.0600   23.8520 C   0  0  0  0  0  3  0  0  0  0  0  0
  -17.7110  -30.5550   24.0290 C   0  0  0  0  0  3  0  0  0  0  0  0
  -16.6070  -29.7940   23.6050 C   0  0  0  0  0  3  0  0  0  0  0  0
  -16.8130  -28.5440   22.9950 C   0  0  0  0  0  3  0  0  0  0  0  0
  -25.9270  -32.5120   23.7960 C   0  0  0  0  0  3  0  0  0  0  0  0
  -26.4310  -31.7450   25.0790 C   0  0  1  0  0  0  0  0  0  0  0  0
  -25.3250  -31.5060   26.1340 C   0  0  0  0  0  1  0  0  0  0  0  0
  -27.0230  -30.3690   24.6960 C   0  0  0  0  0  1  0  0  0  0  0  0
  -27.5700  -32.5450   25.7530 C   0  0  0  0  0  1  0  0  0  0  0  0
  -25.6080  -33.9100   24.1200 N   0  0  0  0  0  0  0  0  0  0  0  0
  -25.9460  -34.9630   23.3630 C   0  0  0  0  0  0  0  0  0  0  0  0
  -26.6280  -34.8600   22.3390 O   0  0  0  0  0  0  0  0  0  0  0  0
  -25.0020  -34.0620   24.9120 H   0  0  0  0  0  0  0  0  0  0  0  0
  -24.2190  -36.7530   22.9880 C   0  0  0  0  0  1  0  0  0  0  0  0
  -25.4510  -36.3520   23.8120 C   0  0  0  0  0  3  0  0  0  0  0  0
  -27.5740  -37.2470   24.6660 C   0  0  0  0  0  1  0  0  0  0  0  0
  -26.4830  -37.4060   23.7070 N   0  0  0  0  0  0  0  0  0  0  0  0
  -26.0730  -38.3270   23.8450 H   0  0  0  0  0  0  0  0  0  0  0  0
  1  2  2  0
  1  6  1  0
  2  7  1  0
  3  5  1  0
  4  3  1  0
  4  8  1  0
  6  4  2  0
  7  3  2  0
  9 10  1  0
  9  8  1  0
 11 19  1  0
 12 17  1  0
 13 14  1  0
 13 12  1  0
 15 14  1  0
 15 24  1  0
 15 16  1  0
 17 11  1  0
 17 16  1  0
 18 11  2  0
 19 20  1  0
 19 10  1  0
 21 22  2  0
 22 41  1  0
 23 22  1  0
 23 26  1  0
 24 25  1  0
 24 21  1  0
 25 23  2  0
 26 27  1  0
 27 28  2  0
 29 32  1  0
 29 28  1  0
 30 29  2  0
 31 30  1  0
 31 26  2  0
 32 33  1  0
 33 34  1  0
 34 35  2  0
 36 35  1  0
 36 40  1  0
 37 36  2  0
 38 33  2  0
 38 37  1  0
 39 38  1  0
 41 42  1  0
 42 45  1  0
 42 44  1  0
 43 41  2  0
 46 47  1  0
 46 21  1  0
 48 46  1  0
 49  2  1  0
 49 50  1  0
 51 62  2  0
 52 50  1  0
 52 57  1  0
 53 61  1  0
 53 63  1  0
 54 60  1  0
 54 56  1  0
 55 61  1  0
 56 55  1  0
 57 56  2  0
 58 59  1  0
 58 52  2  0
 59 54  2  0
 60 53  1  0
 61 51  1  0
 63 65  2  0
 64 63  1  0
 66 64  1  0
 67 76  2  0
 67 72  1  0
 68 64  1  0
 68 72  1  0
 69 68  1  0
 70 71  1  0
 70 69  1  0
 71 67  1  0
 72 73  2  0
 73 74  1  0
 75 74  2  0
 76 75  1  0
 77 51  1  0
 77 82  1  0
 77 78  1  0
 78 81  1  1
 78 79  1  0
 80 78  1  0
 82 85  1  0
 83 87  1  0
 83 82  1  0
 84 83  2  0
 87 86  1  0
 89 87  1  0
 89 90  1  0
 89 88  1  0
M  ISO  4  11 100  19 100  49 101  50 101
M  END
>  <TORSDO>  (34) 
F 20

>  <SCORE>  (34) 
-12.534

>  <name>  (34) 
33

>  <ligand_id>  (34) 
33

>  <original_smiles>  (34) 
[H]c1nc(C([H])([H])C([H])([H])C([H])([H])N([H])C(=O)N2C([H])([H])C([H])([H])C([H])([H])C([H])(n3nc(-c4c([H])c([H])c(Oc5c([H])c([H])c(F)c([H])c5F)c([H])c4[H])c(C(=O)N([H])[H])c3N([H])[H])C2([H])[H])c(C([H])([H])[H])nc1C([H])([H])Oc1c([H])c([H])c2c(c1[H])C([H])([H])N(C(=O)C([H])(N([H])C(=O)C([H])(N([H])C([H])([H])[H])C([H])([H])[H])C(C([H])([H])[H])(C([H])([H])[H])C([H])([H])[H])C([H])(C(=O)N([H])C1([H])c3c([H])c([H])c([H])c([H])c3C([H])([H])C([H])([H])C1([H])[H])C2([H])[H]

>  <smiles>  (34) 
[H]c1nc(C([H])([H])C([H])([H])C([H])([H])N([H])C(=O)N2C([H])([H])C([H])([H])C([H])([H])C([H])(n3nc(-c4c([H])c([H])c(Oc5c([H])c([H])c(F)c([H])c5F)c([H])c4[H])c(C(=O)N([H])[H])c3N([H])[H])C2([H])[H])c(C([H])([H])[H])nc1C([H])([H])Oc1c([H])c([H])c2c(c1[H])C([H])([H])N(C(=O)C([H])(N([H])C(=O)C([H])(N([H])C([H])([H])[H])C([H])([H])[H])C(C([H])([H])[H])(C([H])([H])[H])C([H])([H])[H])C([H])(C(=O)N([H])C1([H])c3c([H])c([H])c([H])c([H])c3C([H])([H])C([H])([H])C1([H])[H])C2([H])[H]

$$$$
34:0:0
     RDKit          3D

 90 98  0  0  1  0  0  0  0  0999 V2000
  -28.9920  -21.8020   19.6840 C   0  0  0  0  0  3  0  0  0  0  0  0
  -30.5380  -23.1420   20.9540 C   0  0  0  0  0  3  0  0  0  0  0  0
  -29.4250  -23.0910   20.0890 C   0  0  0  0  0  0  0  0  0  0  0  0
  -29.7300  -20.6800   20.1360 C   0  0  0  0  0  0  0  0  0  0  0  0
  -31.1880  -22.0320   21.3750 N   0  0  0  0  0  0  0  0  0  0  0  0
  -30.8070  -20.8250   20.9500 N   0  0  0  0  0  0  0  0  0  0  0  0
  -28.8180  -24.3910   19.5590 C   0  0  0  0  0  2  0  0  0  0  0  0
  -28.3510  -25.3770   20.6550 C   0  0  0  0  0  2  0  0  0  0  0  0
  -28.4000  -26.7370   20.2050 O   0  0  0  0  0  0  0  0  0  0  0  0
  -24.5470  -31.8960   23.2350 C   0  0  0  0  0  0  0  0  0  0  0  0
  -27.2180  -27.4400   20.2120 C   0  0  0  0  0  0  0  0  0  0  0  0
  -23.3530  -30.4770   21.5980 C   0  0  0  0  0  3  0  0  0  0  0  0
  -24.8160  -28.9280   20.1990 C   0  0  0  0  0  0  0  0  0  0  0  0
  -25.8770  -30.8460   21.4050 C   0  0  0  0  0  2  0  0  0  0  0  0
  -25.9690  -29.4670   20.7830 C   0  0  0  0  0  0  0  0  0  0  0  0
  -27.1750  -28.7320   20.7830 C   0  0  0  0  0  3  0  0  0  0  0  0
  -26.0500  -26.9090   19.6240 C   0  0  0  0  0  3  0  0  0  0  0  0
  -24.8500  -27.6460   19.6180 C   0  0  0  0  0  3  0  0  0  0  0  0
  -23.5710  -29.7830   20.2280 C   0  0  0  0  0  2  0  0  0  0  0  0
  -24.6110  -31.0890   22.1390 N   0  0  0  0  0  0  0  0  0  0  0  0
  -23.4620  -32.1680   23.7680 O   0  0  0  0  0  0  0  0  0  0  0  0
  -22.6980  -29.4640   22.5640 C   0  0  0  0  0  0  0  0  0  0  0  0
  -21.3740  -29.2840   22.4370 N   0  0  0  0  0  0  0  0  0  0  0  0
  -23.3800  -28.8380   23.3810 O   0  0  0  0  0  0  0  0  0  0  0  0
  -20.8840  -29.8380   21.7480 H   0  0  0  0  0  0  0  0  0  0  0  0
  -17.9950  -28.1050   22.9350 C   0  0  0  0  0  0  0  0  0  0  0  0
  -20.5530  -28.3510   23.2100 C   0  0  0  0  0  3  0  0  0  0  0  0
  -20.6520  -26.9190   22.6390 C   0  0  0  0  0  2  0  0  0  0  0  0
  -19.5500  -26.5960   21.6250 C   0  0  0  0  0  2  0  0  0  0  0  0
  -18.1670  -26.7510   22.2650 C   0  0  0  0  0  2  0  0  0  0  0  0
  -19.1160  -28.8630   23.3640 C   0  0  0  0  0  0  0  0  0  0  0  0
  -18.9010  -30.1300   23.9470 C   0  0  0  0  0  3  0  0  0  0  0  0
  -17.5990  -30.6390   24.1060 C   0  0  0  0  0  3  0  0  0  0  0  0
  -16.4930  -29.8770   23.6940 C   0  0  0  0  0  3  0  0  0  0  0  0
  -16.6920  -28.6120   23.1140 C   0  0  0  0  0  3  0  0  0  0  0  0
  -25.8270  -32.5360   23.8580 C   0  0  0  0  0  3  0  0  0  0  0  0
  -25.5120  -33.9300   24.1910 N   0  0  0  0  0  0  0  0  0  0  0  0
  -25.8450  -34.9860   23.4350 C   0  0  0  0  0  0  0  0  0  0  0  0
  -26.5200  -34.8860   22.4060 O   0  0  0  0  0  0  0  0  0  0  0  0
  -24.9160  -34.0820   24.9920 H   0  0  0  0  0  0  0  0  0  0  0  0
  -24.1110  -36.7690   23.0660 C   0  0  0  0  0  1  0  0  0  0  0  0
  -25.3470  -36.3700   23.8910 C   0  0  0  0  0  3  0  0  0  0  0  0
  -27.4710  -37.2580   24.7430 C   0  0  0  0  0  1  0  0  0  0  0  0
  -26.3750  -37.4280   23.7910 N   0  0  0  0  0  0  0  0  0  0  0  0
  -25.9650  -38.3460   23.9410 H   0  0  0  0  0  0  0  0  0  0  0  0
  -26.3520  -31.7620   25.1300 C   0  0  1  0  0  0  0  0  0  0  0  0
  -25.2620  -31.5130   26.1970 C   0  0  0  0  0  1  0  0  0  0  0  0
  -26.9440  -30.3920   24.7260 C   0  0  0  0  0  1  0  0  0  0  0  0
  -27.4990  -32.5610   25.7920 C   0  0  0  0  0  1  0  0  0  0  0  0
  -29.4860  -19.2720   19.5820 C   0  0  0  0  0  2  0  0  0  0  0  0
  -29.8180  -18.0910   20.5360 C   0  0  0  0  0  2  0  0  0  0  0  0
  -29.8280  -16.7090   19.8220 C   0  0  0  0  0  2  0  0  0  0  0  0
  -30.8610  -14.4840   20.1210 C   0  0  0  0  0  0  0  0  0  0  0  0
  -30.4860  -12.3550   18.9260 C   0  0  0  0  0  2  0  0  0  0  0  0
  -29.4840  -12.6020   17.7770 C   0  0  0  0  0  2  0  0  0  0  0  0
  -28.0300  -12.4810   18.2750 C   0  0  0  0  0  2  0  0  0  0  0  0
  -27.7730  -13.2800   19.5790 C   0  0  0  0  0  3  0  0  0  0  0  0
  -28.8790  -12.9960   20.6190 C   0  0  0  0  0  2  0  0  0  0  0  0
  -30.1750  -13.3130   19.9980 N   0  0  0  0  0  0  0  0  0  0  0  0
  -31.9430  -14.6830   19.5570 O   0  0  0  0  0  0  0  0  0  0  0  0
  -30.1410  -15.6950   22.1080 C   0  0  0  0  0  1  0  0  0  0  0  0
  -30.1570  -15.5200   20.6510 N   0  0  0  0  0  0  0  0  0  0  0  0
  -25.4260  -13.9090   20.4240 C   0  0  0  0  0  0  0  0  0  0  0  0
  -24.3670  -13.1420   20.8340 C   0  0  0  0  0  0  0  0  0  0  0  0
  -24.8090  -11.7860   20.7550 C   0  0  0  0  0  0  0  0  0  0  0  0
  -26.4440  -13.0180   20.1210 N   0  0  0  0  0  0  0  0  0  0  0  0
  -26.0790  -11.7360   20.3790 N   0  0  0  0  0  0  0  0  0  0  0  0
  -24.0770  -10.5290   20.9610 C   0  0  0  0  0  0  0  0  0  0  0  0
  -24.5260   -9.5540   21.8790 C   0  0  0  0  0  3  0  0  0  0  0  0
  -23.7970   -8.3620   22.0710 C   0  0  0  0  0  3  0  0  0  0  0  0
  -22.6030   -8.1360   21.3450 C   0  0  0  0  0  0  0  0  0  0  0  0
  -22.1720   -9.0990   20.4150 C   0  0  0  0  0  3  0  0  0  0  0  0
  -22.9030  -10.2830   20.2210 C   0  0  0  0  0  3  0  0  0  0  0  0
  -21.8430   -6.9960   21.4470 O   0  0  0  0  0  0  0  0  0  0  0  0
  -21.7890   -6.2700   22.6100 C   0  0  0  0  0  0  0  0  0  0  0  0
  -21.3730   -6.8470   23.8290 C   0  0  0  0  0  3  0  0  0  0  0  0
  -21.2610   -6.0480   24.9840 C   0  0  0  0  0  3  0  0  0  0  0  0
  -21.5580   -4.6730   24.9220 C   0  0  0  0  0  0  0  0  0  0  0  0
  -21.9690   -4.0960   23.7070 C   0  0  0  0  0  3  0  0  0  0  0  0
  -22.0810   -4.8930   22.5540 C   0  0  0  0  0  0  0  0  0  0  0  0
  -22.4560   -4.3280   21.3810 F   0  0  0  0  0  0  0  0  0  0  0  0
  -21.4470   -3.9030   26.0290 F   0  0  0  0  0  0  0  0  0  0  0  0
  -22.9920  -13.6310   21.1870 C   0  0  0  0  0  0  0  0  0  0  0  0
  -22.3030  -12.9320   22.0820 N   0  0  0  0  0  0  0  0  0  0  0  0
  -22.5390  -14.6690   20.7050 O   0  0  0  0  0  0  0  0  0  0  0  0
  -22.6830  -12.0920   22.4930 H   0  0  0  0  0  0  0  0  0  0  0  0
  -21.3820  -13.2440   22.3580 H   0  0  0  0  0  0  0  0  0  0  0  0
  -25.6000  -15.2790   20.2660 N   0  0  0  0  0  0  0  0  0  0  0  0
  -24.8570  -15.9440   20.4530 H   0  0  0  0  0  0  0  0  0  0  0  0
  -26.4500  -15.7200   19.9340 H   0  0  0  0  0  0  0  0  0  0  0  0
  1  3  2  0
  1  4  1  0
  2  5  2  0
  3  2  1  0
  4  6  2  0
  6  5  1  0
  7  3  1  0
  7  8  1  0
  9 11  1  0
  9  8  1  0
 10 21  2  0
 11 16  1  0
 12 20  1  0
 12 22  1  0
 13 19  1  0
 13 15  1  0
 14 20  1  0
 15 14  1  0
 16 15  2  0
 17 11  2  0
 18 17  1  0
 18 13  2  0
 19 12  1  0
 20 10  1  0
 22 24  2  0
 23 22  1  0
 25 23  1  0
 26 35  2  0
 26 31  1  0
 27 23  1  0
 27 31  1  0
 28 27  1  0
 29 30  1  0
 29 28  1  0
 30 26  1  0
 31 32  2  0
 32 33  1  0
 34 33  2  0
 35 34  1  0
 36 10  1  0
 36 37  1  0
 36 46  1  0
 37 40  1  0
 38 42  1  0
 38 37  1  0
 39 38  2  0
 42 41  1  0
 44 42  1  0
 44 45  1  0
 44 43  1  0
 46 49  1  1
 46 47  1  0
 48 46  1  0
 50  4  1  0
 50 51  1  0
 52 51  1  0
 52 62  1  0
 53 62  1  0
 54 59  1  0
 55 56  1  0
 55 54  1  0
 57 56  1  0
 57 66  1  0
 57 58  1  0
 59 53  1  0
 59 58  1  0
 60 53  2  0
 62 61  1  0
 63 64  2  0
 64 83  1  0
 65 64  1  0
 65 68  1  0
 66 67  1  0
 66 63  1  0
 67 65  2  0
 68 69  1  0
 69 70  2  0
 71 74  1  0
 71 70  1  0
 72 71  2  0
 73 72  1  0
 73 68  2  0
 74 75  1  0
 75 76  1  0
 76 77  2  0
 78 77  1  0
 78 82  1  0
 79 78  2  0
 80 75  2  0
 80 79  1  0
 81 80  1  0
 83 84  1  0
 84 87  1  0
 84 86  1  0
 85 83  2  0
 88 63  1  0
 88 89  1  0
 90 88  1  0
M  ISO  4   8 101   9 101  53 100  62 100
M  END
>  <TORSDO>  (35) 
F 21

>  <SCORE>  (35) 
-13.032

>  <name>  (35) 
34

>  <ligand_id>  (35) 
34

>  <original_smiles>  (35) 
[H]c1nnc(C([H])([H])C([H])([H])C([H])([H])N(C(=O)N2C([H])([H])C([H])([H])C([H])([H])C([H])(n3nc(-c4c([H])c([H])c(Oc5c([H])c([H])c(F)c([H])c5F)c([H])c4[H])c(C(=O)N([H])[H])c3N([H])[H])C2([H])[H])C([H])([H])[H])c([H])c1C([H])([H])C([H])([H])Oc1c([H])c([H])c2c(c1[H])C([H])([H])N(C(=O)C([H])(N([H])C(=O)C([H])(N([H])C([H])([H])[H])C([H])([H])[H])C(C([H])([H])[H])(C([H])([H])[H])C([H])([H])[H])C([H])(C(=O)N([H])C1([H])c3c([H])c([H])c([H])c([H])c3C([H])([H])C([H])([H])C1([H])[H])C2([H])[H]

>  <smiles>  (35) 
[H]c1nnc(C([H])([H])C([H])([H])C([H])([H])N(C(=O)N2C([H])([H])C([H])([H])C([H])([H])C([H])(n3nc(-c4c([H])c([H])c(Oc5c([H])c([H])c(F)c([H])c5F)c([H])c4[H])c(C(=O)N([H])[H])c3N([H])[H])C2([H])[H])C([H])([H])[H])c([H])c1C([H])([H])C([H])([H])Oc1c([H])c([H])c2c(c1[H])C([H])([H])N(C(=O)C([H])(N([H])C(=O)C([H])(N([H])C([H])([H])[H])C([H])([H])[H])C(C([H])([H])[H])(C([H])([H])[H])C([H])([H])[H])C([H])(C(=O)N([H])C1([H])c3c([H])c([H])c([H])c([H])c3C([H])([H])C([H])([H])C1([H])[H])C2([H])[H]

$$$$
35:0:0
     RDKit          3D

 94102  0  0  1  0  0  0  0  0999 V2000
  -30.5010  -23.7270   19.4370 C   0  0  0  0  0  0  0  0  0  0  0  0
  -29.9880  -25.0490   19.5840 C   0  0  0  0  0  0  0  0  0  0  0  0
  -33.4010  -25.5450   20.1160 C   0  0  0  0  0  1  0  0  0  0  0  0
  -31.8050  -23.7490   19.6040 N   0  0  0  0  0  0  0  0  0  0  0  0
  -30.9860  -25.8680   19.8310 N   0  0  0  0  0  0  0  0  0  0  0  0
  -32.0680  -25.0550   19.8430 N   0  0  0  0  0  0  0  0  0  0  0  0
  -29.7680  -22.4390   19.1890 C   0  0  0  0  0  2  0  0  0  0  0  0
  -30.2700  -21.4210   20.1300 N   0  0  0  0  0  4  0  0  0  0  0  0
  -30.0300  -21.7120   21.0620 H   0  0  0  0  0  0  0  0  0  0  0  0
  -31.2750  -21.4570   20.0520 H   0  0  0  0  0  0  0  0  0  0  0  0
  -29.7980  -20.0440   19.8880 C   0  0  0  0  0  2  0  0  0  0  0  0
  -30.4170  -19.0530   20.8930 C   0  0  0  0  0  2  0  0  0  0  0  0
  -29.9590  -17.6050   20.6670 C   0  0  0  0  0  2  0  0  0  0  0  0
  -30.5910  -16.6240   21.6720 C   0  0  0  0  0  2  0  0  0  0  0  0
  -30.7050  -14.3810   20.5900 C   0  0  0  0  0  0  0  0  0  0  0  0
  -30.3630  -12.2840   19.3440 C   0  0  0  0  0  2  0  0  0  0  0  0
  -29.4280  -12.5320   18.1460 C   0  0  0  0  0  2  0  0  0  0  0  0
  -27.9500  -12.4060   18.5670 C   0  0  0  0  0  2  0  0  0  0  0  0
  -27.6210  -13.2240   19.8460 C   0  0  0  0  0  3  0  0  0  0  0  0
  -28.6640  -12.9470   20.9510 C   0  0  0  0  0  2  0  0  0  0  0  0
  -30.0040  -13.2350   20.4040 N   0  0  0  0  0  0  0  0  0  0  0  0
  -31.7640  -14.6360   20.0080 O   0  0  0  0  0  0  0  0  0  0  0  0
  -30.1360  -15.2600   21.4230 N   0  0  0  0  0  0  0  0  0  0  0  0
  -29.2750  -14.9700   21.8650 H   0  0  0  0  0  0  0  0  0  0  0  0
  -25.2160  -13.8560   20.5250 C   0  0  0  0  0  0  0  0  0  0  0  0
  -24.1400  -13.0920   20.8900 C   0  0  0  0  0  0  0  0  0  0  0  0
  -24.5930  -11.7380   20.8740 C   0  0  0  0  0  0  0  0  0  0  0  0
  -26.2590  -12.9650   20.3110 N   0  0  0  0  0  0  0  0  0  0  0  0
  -25.8840  -11.6870   20.5750 N   0  0  0  0  0  0  0  0  0  0  0  0
  -23.8580  -10.4820   21.0690 C   0  0  0  0  0  0  0  0  0  0  0  0
  -24.2990   -9.5050   21.9880 C   0  0  0  0  0  3  0  0  0  0  0  0
  -23.5680   -8.3110   22.1720 C   0  0  0  0  0  3  0  0  0  0  0  0
  -22.3800   -8.0880   21.4350 C   0  0  0  0  0  0  0  0  0  0  0  0
  -21.9580   -9.0540   20.5050 C   0  0  0  0  0  3  0  0  0  0  0  0
  -22.6900  -10.2380   20.3200 C   0  0  0  0  0  3  0  0  0  0  0  0
  -21.6180   -6.9490   21.5280 O   0  0  0  0  0  0  0  0  0  0  0  0
  -21.6020   -6.1840   22.6660 C   0  0  0  0  0  0  0  0  0  0  0  0
  -21.2420   -6.7230   23.9220 C   0  0  0  0  0  3  0  0  0  0  0  0
  -21.1720   -5.8850   25.0530 C   0  0  0  0  0  3  0  0  0  0  0  0
  -21.4510   -4.5100   24.9300 C   0  0  0  0  0  0  0  0  0  0  0  0
  -21.8020   -3.9710   23.6800 C   0  0  0  0  0  3  0  0  0  0  0  0
  -21.8740   -4.8060   22.5510 C   0  0  0  0  0  0  0  0  0  0  0  0
  -22.1930   -4.2780   21.3450 F   0  0  0  0  0  0  0  0  0  0  0  0
  -21.3750   -3.7040   26.0140 F   0  0  0  0  0  0  0  0  0  0  0  0
  -22.7440  -13.5800   21.1500 C   0  0  0  0  0  0  0  0  0  0  0  0
  -22.0070  -12.8960   22.0190 N   0  0  0  0  0  0  0  0  0  0  0  0
  -22.3130  -14.6020   20.6180 O   0  0  0  0  0  0  0  0  0  0  0  0
  -22.3680  -12.0690   22.4730 H   0  0  0  0  0  0  0  0  0  0  0  0
  -21.0680  -13.2020   22.2310 H   0  0  0  0  0  0  0  0  0  0  0  0
  -25.3920  -15.2240   20.3380 N   0  0  0  0  0  0  0  0  0  0  0  0
  -24.6320  -15.8880   20.4400 H   0  0  0  0  0  0  0  0  0  0  0  0
  -26.2540  -15.6520   20.0210 H   0  0  0  0  0  0  0  0  0  0  0  0
  -28.5600  -25.5270   19.4990 C   0  0  0  0  0  2  0  0  0  0  0  0
  -28.4320  -26.8140   20.0970 O   0  0  0  0  0  0  0  0  0  0  0  0
  -24.5980  -31.8790   23.2250 C   0  0  0  0  0  0  0  0  0  0  0  0
  -27.2150  -27.4570   20.1060 C   0  0  0  0  0  0  0  0  0  0  0  0
  -23.3690  -30.4730   21.6000 C   0  0  0  0  0  3  0  0  0  0  0  0
  -24.8040  -28.9290   20.1620 C   0  0  0  0  0  0  0  0  0  0  0  0
  -25.8890  -30.8380   21.3660 C   0  0  0  0  0  2  0  0  0  0  0  0
  -25.9660  -29.4660   20.7310 C   0  0  0  0  0  0  0  0  0  0  0  0
  -27.1690  -28.7340   20.7020 C   0  0  0  0  0  3  0  0  0  0  0  0
  -26.0320  -26.9190   19.5480 C   0  0  0  0  0  3  0  0  0  0  0  0
  -24.8300  -27.6520   19.5750 C   0  0  0  0  0  3  0  0  0  0  0  0
  -23.5600  -29.7860   20.2200 C   0  0  0  0  0  2  0  0  0  0  0  0
  -24.6380  -31.0780   22.1220 N   0  0  0  0  0  0  0  0  0  0  0  0
  -23.5240  -32.1530   23.7780 O   0  0  0  0  0  0  0  0  0  0  0  0
  -22.7340  -29.4540   22.5720 C   0  0  0  0  0  0  0  0  0  0  0  0
  -21.4080  -29.2680   22.4560 N   0  0  0  0  0  0  0  0  0  0  0  0
  -23.4260  -28.8330   23.3810 O   0  0  0  0  0  0  0  0  0  0  0  0
  -20.9120  -29.8210   21.7720 H   0  0  0  0  0  0  0  0  0  0  0  0
  -18.0420  -28.0660   22.9750 C   0  0  0  0  0  0  0  0  0  0  0  0
  -20.6000  -28.3330   23.2360 C   0  0  0  0  0  3  0  0  0  0  0  0
  -20.7050  -26.8990   22.6680 C   0  0  0  0  0  2  0  0  0  0  0  0
  -19.6000  -26.5670   21.6600 C   0  0  0  0  0  2  0  0  0  0  0  0
  -18.2210  -26.7120   22.3080 C   0  0  0  0  0  2  0  0  0  0  0  0
  -19.1600  -28.8340   23.3960 C   0  0  0  0  0  0  0  0  0  0  0  0
  -18.9400  -30.1010   23.9770 C   0  0  0  0  0  3  0  0  0  0  0  0
  -17.6350  -30.6010   24.1430 C   0  0  0  0  0  3  0  0  0  0  0  0
  -16.5310  -29.8290   23.7390 C   0  0  0  0  0  3  0  0  0  0  0  0
  -16.7360  -28.5640   23.1610 C   0  0  0  0  0  3  0  0  0  0  0  0
  -25.8930  -32.5090   23.8260 C   0  0  0  0  0  3  0  0  0  0  0  0
  -25.5860  -33.9040   24.1710 N   0  0  0  0  0  0  0  0  0  0  0  0
  -25.9010  -34.9610   23.4100 C   0  0  0  0  0  0  0  0  0  0  0  0
  -26.5520  -34.8650   22.3670 O   0  0  0  0  0  0  0  0  0  0  0  0
  -25.0030  -34.0500   24.9810 H   0  0  0  0  0  0  0  0  0  0  0  0
  -24.1540  -36.7430   23.1010 C   0  0  0  0  0  1  0  0  0  0  0  0
  -25.4150  -36.3440   23.8840 C   0  0  0  0  0  3  0  0  0  0  0  0
  -27.5650  -37.2350   24.6660 C   0  0  0  0  0  1  0  0  0  0  0  0
  -26.4380  -37.4040   23.7520 N   0  0  0  0  0  0  0  0  0  0  0  0
  -26.0320  -38.3200   23.9140 H   0  0  0  0  0  0  0  0  0  0  0  0
  -26.4370  -31.7300   25.0860 C   0  0  1  0  0  0  0  0  0  0  0  0
  -25.3650  -31.4790   26.1730 C   0  0  0  0  0  1  0  0  0  0  0  0
  -27.0160  -30.3570   24.6690 C   0  0  0  0  0  1  0  0  0  0  0  0
  -27.5970  -32.5210   25.7320 C   0  0  0  0  0  1  0  0  0  0  0  0
  1  2  1  0
  1  4  2  0
  2  5  2  0
  4  6  1  0
  5  6  1  0
  6  3  1  0
  7  1  1  0
  7  8  1  0
  8  9  1  0
 10  8  1  0
 11  8  1  0
 11 12  1  0
 13 12  1  0
 13 14  1  0
 15 23  1  0
 16 21  1  0
 17 18  1  0
 17 16  1  0
 19 18  1  0
 19 28  1  0
 19 20  1  0
 21 15  1  0
 21 20  1  0
 22 15  2  0
 23 14  1  0
 23 24  1  0
 25 26  2  0
 26 45  1  0
 27 26  1  0
 27 30  1  0
 28 25  1  0
 28 29  1  0
 29 27  2  0
 30 31  1  0
 31 32  2  0
 33 36  1  0
 33 32  1  0
 34 33  2  0
 35 34  1  0
 35 30  2  0
 36 37  1  0
 37 38  1  0
 38 39  2  0
 40 39  1  0
 40 44  1  0
 41 40  2  0
 42 37  2  0
 42 41  1  0
 43 42  1  0
 45 46  1  0
 46 49  1  0
 46 48  1  0
 47 45  2  0
 50 51  1  0
 50 25  1  0
 52 50  1  0
 53  2  1  0
 53 54  1  0
 54 56  1  0
 55 66  2  0
 56 61  1  0
 57 65  1  0
 57 67  1  0
 58 64  1  0
 58 60  1  0
 59 65  1  0
 60 59  1  0
 61 60  2  0
 62 63  1  0
 62 56  2  0
 63 58  2  0
 64 57  1  0
 65 55  1  0
 67 69  2  0
 68 67  1  0
 70 68  1  0
 71 80  2  0
 71 76  1  0
 72 68  1  0
 72 76  1  0
 73 72  1  0
 74 75  1  0
 74 73  1  0
 75 71  1  0
 76 77  2  0
 77 78  1  0
 79 78  2  0
 80 79  1  0
 81 55  1  0
 81 82  1  0
 81 91  1  0
 82 85  1  0
 83 87  1  0
 83 82  1  0
 84 83  2  0
 87 86  1  0
 89 87  1  0
 89 90  1  0
 89 88  1  0
 91 94  1  1
 91 92  1  0
 93 91  1  0
M  ISO  4  15 100  23 100  53 101  54 101
M  END
>  <TORSDO>  (36) 
F 23

>  <SCORE>  (36) 
-12.763

>  <name>  (36) 
35

>  <ligand_id>  (36) 
35

>  <original_smiles>  (36) 
[H]c1c([H])c([H])c2c(c1[H])C([H])([H])C([H])([H])C([H])([H])C2([H])N([H])C(=O)C1([H])N(C(=O)C([H])(N([H])C(=O)C([H])(N([H])C([H])([H])[H])C([H])([H])[H])C(C([H])([H])[H])(C([H])([H])[H])C([H])([H])[H])C([H])([H])c2c([H])c(OC([H])([H])c3nn(C([H])([H])[H])nc3C([H])([H])[N+]([H])([H])C([H])([H])C([H])([H])C([H])([H])C([H])([H])N([H])C(=O)N3C([H])([H])C([H])([H])C([H])([H])C([H])(n4nc(-c5c([H])c([H])c(Oc6c([H])c([H])c(F)c([H])c6F)c([H])c5[H])c(C(=O)N([H])[H])c4N([H])[H])C3([H])[H])c([H])c([H])c2C1([H])[H]

>  <smiles>  (36) 
[H]c1c([H])c([H])c2c(c1[H])C([H])([H])C([H])([H])C([H])([H])C2([H])N([H])C(=O)C1([H])N(C(=O)C([H])(N([H])C(=O)C([H])(N([H])C([H])([H])[H])C([H])([H])[H])C(C([H])([H])[H])(C([H])([H])[H])C([H])([H])[H])C([H])([H])c2c([H])c(OC([H])([H])c3nn(C([H])([H])[H])nc3C([H])([H])[N+]([H])([H])C([H])([H])C([H])([H])C([H])([H])C([H])([H])N([H])C(=O)N3C([H])([H])C([H])([H])C([H])([H])C([H])(n4nc(-c5c([H])c([H])c(Oc6c([H])c([H])c(F)c([H])c6F)c([H])c5[H])c(C(=O)N([H])[H])c4N([H])[H])C3([H])[H])c([H])c([H])c2C1([H])[H]

$$$$
37:0:0
     RDKit          3D

 93100  0  0  1  0  0  0  0  0999 V2000
  -30.2390  -22.0100   18.9290 C   0  0  0  0  0  2  0  0  0  0  0  0
  -29.5950  -21.1560   20.0360 C   0  0  0  0  0  2  0  0  0  0  0  0
  -30.4000  -19.8650   20.2900 C   0  0  0  0  0  2  0  0  0  0  0  0
  -29.8390  -18.9980   21.4330 C   0  0  0  0  0  2  0  0  0  0  0  0
  -30.9390  -17.6500   23.3090 C   0  0  0  0  0  1  0  0  0  0  0  0
  -30.7080  -17.7520   21.7840 C   0  0  0  0  0  3  0  0  0  0  0  0
  -30.0770  -16.4450   21.2220 C   0  0  0  0  0  2  0  0  0  0  0  0
  -31.5610  -14.5340   20.5890 C   0  0  0  0  0  0  0  0  0  0  0  0
  -31.1180  -12.5010   19.3010 C   0  0  0  0  0  2  0  0  0  0  0  0
  -30.2670  -12.9310   18.0930 C   0  0  0  0  0  2  0  0  0  0  0  0
  -28.7610  -12.9080   18.4450 C   0  0  0  0  0  2  0  0  0  0  0  0
  -28.4410  -13.6190   19.7910 C   0  0  0  0  0  3  0  0  0  0  0  0
  -29.4320  -13.1930   20.8980 C   0  0  0  0  0  2  0  0  0  0  0  0
  -30.7890  -13.4300   20.3920 N   0  0  0  0  0  0  0  0  0  0  0  0
  -32.7850  -14.5000   20.4330 O   0  0  0  0  0  0  0  0  0  0  0  0
  -30.9290  -15.7010   20.2790 N   0  0  0  0  0  0  0  0  0  0  0  0
  -26.0590  -14.3890   20.3670 C   0  0  0  0  0  0  0  0  0  0  0  0
  -24.9190  -13.6910   20.6740 C   0  0  0  0  0  0  0  0  0  0  0  0
  -25.2890  -12.3130   20.6720 C   0  0  0  0  0  0  0  0  0  0  0  0
  -27.0500  -13.4350   20.1950 N   0  0  0  0  0  0  0  0  0  0  0  0
  -26.5890  -12.1830   20.4400 N   0  0  0  0  0  0  0  0  0  0  0  0
  -24.4660  -11.1040   20.8240 C   0  0  0  0  0  0  0  0  0  0  0  0
  -24.7960  -10.1040   21.7660 C   0  0  0  0  0  3  0  0  0  0  0  0
  -23.9840   -8.9590   21.9060 C   0  0  0  0  0  3  0  0  0  0  0  0
  -22.8270   -8.8040   21.1070 C   0  0  0  0  0  0  0  0  0  0  0  0
  -22.5150   -9.7930   20.1550 C   0  0  0  0  0  3  0  0  0  0  0  0
  -23.3290  -10.9300   20.0110 C   0  0  0  0  0  3  0  0  0  0  0  0
  -21.9940   -7.7110   21.1550 O   0  0  0  0  0  0  0  0  0  0  0  0
  -21.8480   -6.9690   22.3000 C   0  0  0  0  0  0  0  0  0  0  0  0
  -21.4490   -7.5570   23.5210 C   0  0  0  0  0  3  0  0  0  0  0  0
  -21.2370   -6.7480   24.6550 C   0  0  0  0  0  3  0  0  0  0  0  0
  -21.4210   -5.3550   24.5710 C   0  0  0  0  0  0  0  0  0  0  0  0
  -21.8170   -4.7680   23.3550 C   0  0  0  0  0  3  0  0  0  0  0  0
  -22.0280   -5.5740   22.2220 C   0  0  0  0  0  0  0  0  0  0  0  0
  -22.3860   -5.0030   21.0480 F   0  0  0  0  0  0  0  0  0  0  0  0
  -21.2120   -4.5740   25.6570 F   0  0  0  0  0  0  0  0  0  0  0  0
  -23.5480  -14.2670   20.8670 C   0  0  0  0  0  0  0  0  0  0  0  0
  -22.7350  -13.6360   21.7090 N   0  0  0  0  0  0  0  0  0  0  0  0
  -23.2040  -15.3080   20.3090 O   0  0  0  0  0  0  0  0  0  0  0  0
  -23.0260  -12.7900   22.1760 H   0  0  0  0  0  0  0  0  0  0  0  0
  -21.8170  -14.0130   21.8910 H   0  0  0  0  0  0  0  0  0  0  0  0
  -26.3270  -15.7410   20.1940 N   0  0  0  0  0  0  0  0  0  0  0  0
  -25.6070  -16.4520   20.2540 H   0  0  0  0  0  0  0  0  0  0  0  0
  -27.2230  -16.1050   19.8980 H   0  0  0  0  0  0  0  0  0  0  0  0
  -31.3940  -16.4900   19.1130 C   0  0  0  0  0  2  0  0  0  0  0  0
  -30.7410  -17.6000   16.8860 C   0  0  0  0  0  1  0  0  0  0  0  0
  -30.2490  -17.0300   18.2240 C   0  0  0  0  0  2  0  0  0  0  0  0
  -29.6310  -23.4140   18.7570 C   0  0  0  0  0  2  0  0  0  0  0  0
  -30.3550  -24.2070   17.6520 C   0  0  0  0  0  2  0  0  0  0  0  0
  -29.8470  -25.6480   17.4790 C   0  0  0  0  0  2  0  0  0  0  0  0
  -30.2840  -26.6140   18.5990 C   0  0  0  0  0  2  0  0  0  0  0  0
  -29.1710  -27.5540   19.1010 C   0  0  0  0  0  2  0  0  0  0  0  0
  -28.2000  -26.8500   19.8760 O   0  0  0  0  0  0  0  0  0  0  0  0
  -24.4930  -31.9720   23.2570 C   0  0  0  0  0  0  0  0  0  0  0  0
  -27.0350  -27.5560   20.0470 C   0  0  0  0  0  0  0  0  0  0  0  0
  -23.2290  -30.5860   21.6390 C   0  0  0  0  0  3  0  0  0  0  0  0
  -24.6340  -29.0370   20.1770 C   0  0  0  0  0  0  0  0  0  0  0  0
  -25.7520  -30.9190   21.3920 C   0  0  0  0  0  2  0  0  0  0  0  0
  -25.8080  -29.5530   20.7400 C   0  0  0  0  0  0  0  0  0  0  0  0
  -27.0040  -28.8110   20.6930 C   0  0  0  0  0  3  0  0  0  0  0  0
  -25.8420  -27.0290   19.5130 C   0  0  0  0  0  3  0  0  0  0  0  0
  -24.6420  -27.7630   19.5750 C   0  0  0  0  0  3  0  0  0  0  0  0
  -23.4000  -29.9090   20.2520 C   0  0  0  0  0  2  0  0  0  0  0  0
  -24.5080  -31.1740   22.1520 N   0  0  0  0  0  0  0  0  0  0  0  0
  -23.4300  -32.2530   23.8280 O   0  0  0  0  0  0  0  0  0  0  0  0
  -22.5920  -29.5670   22.6140 C   0  0  0  0  0  0  0  0  0  0  0  0
  -21.2710  -29.3630   22.4930 N   0  0  0  0  0  0  0  0  0  0  0  0
  -23.2860  -28.9570   23.4320 O   0  0  0  0  0  0  0  0  0  0  0  0
  -20.7680  -29.9040   21.8030 H   0  0  0  0  0  0  0  0  0  0  0  0
  -17.9250  -28.0970   22.9770 C   0  0  0  0  0  0  0  0  0  0  0  0
  -20.4690  -28.4250   23.2790 C   0  0  0  0  0  3  0  0  0  0  0  0
  -20.6190  -26.9830   22.7420 C   0  0  0  0  0  2  0  0  0  0  0  0
  -19.5410  -26.6040   21.7230 C   0  0  0  0  0  2  0  0  0  0  0  0
  -18.1450  -26.7360   22.3390 C   0  0  0  0  0  2  0  0  0  0  0  0
  -19.0150  -28.8980   23.4010 C   0  0  0  0  0  0  0  0  0  0  0  0
  -18.7580  -30.1750   23.9490 C   0  0  0  0  0  3  0  0  0  0  0  0
  -17.4370  -30.6440   24.0850 C   0  0  0  0  0  3  0  0  0  0  0  0
  -16.3600  -29.8390   23.6800 C   0  0  0  0  0  3  0  0  0  0  0  0
  -16.6040  -28.5680   23.1300 C   0  0  0  0  0  3  0  0  0  0  0  0
  -25.8060  -32.5830   23.8410 C   0  0  0  0  0  3  0  0  0  0  0  0
  -26.3500  -31.7920   25.0950 C   0  0  1  0  0  0  0  0  0  0  0  0
  -25.2860  -31.5610   26.1890 C   0  0  0  0  0  1  0  0  0  0  0  0
  -26.8950  -30.4060   24.6760 C   0  0  0  0  0  1  0  0  0  0  0  0
  -27.5250  -32.5590   25.7440 C   0  0  0  0  0  1  0  0  0  0  0  0
  -25.5280  -33.9810   24.1910 N   0  0  0  0  0  0  0  0  0  0  0  0
  -25.8480  -35.0340   23.4270 C   0  0  0  0  0  0  0  0  0  0  0  0
  -26.4860  -34.9320   22.3770 O   0  0  0  0  0  0  0  0  0  0  0  0
  -24.9760  -34.1360   25.0220 H   0  0  0  0  0  0  0  0  0  0  0  0
  -24.1260  -36.8410   23.1240 C   0  0  0  0  0  1  0  0  0  0  0  0
  -25.3820  -36.4200   23.9050 C   0  0  0  0  0  3  0  0  0  0  0  0
  -27.5440  -37.2820   24.6860 C   0  0  0  0  0  1  0  0  0  0  0  0
  -26.4180  -37.4670   23.7760 N   0  0  0  0  0  0  0  0  0  0  0  0
  -26.0230  -38.3880   23.9520 H   0  0  0  0  0  0  0  0  0  0  0  0
  1  2  1  0
  2  3  1  0
  3  4  1  0
  4  6  1  0
  6  5  1  0
  7  6  1  0
  9 14  1  0
 10 11  1  0
 10  9  1  0
 12 11  1  0
 12 20  1  0
 12 13  1  0
 14  8  1  0
 14 13  1  0
 15  8  2  0
 16  8  1  0
 16  7  1  0
 17 18  2  0
 18 37  1  0
 19 18  1  0
 19 22  1  0
 20 17  1  0
 20 21  1  0
 21 19  2  0
 22 23  1  0
 23 24  2  0
 25 28  1  0
 25 24  1  0
 26 25  2  0
 27 26  1  0
 27 22  2  0
 28 29  1  0
 29 30  1  0
 30 31  2  0
 32 31  1  0
 32 36  1  0
 33 32  2  0
 34 29  2  0
 34 33  1  0
 35 34  1  0
 37 38  1  0
 38 41  1  0
 38 40  1  0
 39 37  2  0
 42 43  1  0
 42 17  1  0
 44 42  1  0
 45 16  1  0
 46 47  1  0
 47 45  1  0
 48  1  1  0
 49 48  1  0
 50 49  1  0
 50 51  1  0
 51 52  1  0
 52 53  1  0
 53 55  1  0
 54 65  2  0
 55 60  1  0
 56 64  1  0
 56 66  1  0
 57 63  1  0
 57 59  1  0
 58 64  1  0
 59 58  1  0
 60 59  2  0
 61 62  1  0
 61 55  2  0
 62 57  2  0
 63 56  1  0
 64 54  1  0
 66 68  2  0
 67 66  1  0
 69 67  1  0
 70 79  2  0
 70 75  1  0
 71 67  1  0
 71 75  1  0
 72 71  1  0
 73 74  1  0
 73 72  1  0
 74 70  1  0
 75 76  2  0
 76 77  1  0
 78 77  2  0
 79 78  1  0
 80 54  1  0
 80 85  1  0
 80 81  1  0
 81 84  1  1
 81 82  1  0
 83 81  1  0
 85 88  1  0
 86 90  1  0
 86 85  1  0
 87 86  2  0
 90 89  1  0
 92 90  1  0
 92 93  1  0
 92 91  1  0
M  ISO  4   8 100  16 100  52 101  53 101
M  END
>  <TORSDO>  (37) 
F 28

>  <SCORE>  (37) 
-9.811

>  <name>  (37) 
37

>  <ligand_id>  (37) 
37

>  <original_smiles>  (37) 
[H]c1c([H])c([H])c2c(c1[H])C([H])([H])C([H])([H])C([H])([H])C2([H])N([H])C(=O)C1([H])N(C(=O)C([H])(N([H])C(=O)C([H])(N([H])C([H])([H])[H])C([H])([H])[H])C(C([H])([H])[H])(C([H])([H])[H])C([H])([H])[H])C([H])([H])c2c([H])c(OC([H])([H])C([H])([H])C([H])([H])C([H])([H])C([H])([H])C([H])([H])C([H])([H])C([H])([H])C([H])([H])C([H])(C([H])([H])[H])C([H])([H])N(C(=O)N3C([H])([H])C([H])([H])C([H])([H])C([H])(n4nc(-c5c([H])c([H])c(Oc6c([H])c([H])c(F)c([H])c6F)c([H])c5[H])c(C(=O)N([H])[H])c4N([H])[H])C3([H])[H])C([H])([H])C([H])([H])C([H])([H])[H])c([H])c([H])c2C1([H])[H]

>  <smiles>  (37) 
[H]c1c([H])c([H])c2c(c1[H])C([H])([H])C([H])([H])C([H])([H])C2([H])N([H])C(=O)C1([H])N(C(=O)C([H])(N([H])C(=O)C([H])(N([H])C([H])([H])[H])C([H])([H])[H])C(C([H])([H])[H])(C([H])([H])[H])C([H])([H])[H])C([H])([H])c2c([H])c(OC([H])([H])C([H])([H])C([H])([H])C([H])([H])C([H])([H])C([H])([H])C([H])([H])C([H])([H])C([H])([H])C([H])(C([H])([H])[H])C([H])([H])N(C(=O)N3C([H])([H])C([H])([H])C([H])([H])C([H])(n4nc(-c5c([H])c([H])c(Oc6c([H])c([H])c(F)c([H])c6F)c([H])c5[H])c(C(=O)N([H])[H])c4N([H])[H])C3([H])[H])C([H])([H])C([H])([H])C([H])([H])[H])c([H])c([H])c2C1([H])[H]

$$$$
38:0:0
     RDKit          3D

 91 99  0  0  1  0  0  0  0  0999 V2000
  -30.6590  -20.2700   21.1050 C   0  0  0  0  0  3  0  0  0  0  0  0
  -31.3820  -19.1180   21.3050 C   0  0  0  0  0  0  0  0  0  0  0  0
  -32.7180  -19.5060   20.9990 C   0  0  0  0  0  0  0  0  0  0  0  0
  -33.9630  -18.6590   21.0520 C   0  0  0  0  0  1  0  0  0  0  0  0
  -32.8020  -20.7820   20.6480 N   0  0  0  0  0  0  0  0  0  0  0  0
  -31.5410  -21.2690   20.7190 N   0  0  0  0  0  0  0  0  0  0  0  0
  -30.9280  -17.7410   21.7560 C   0  0  0  0  0  2  0  0  0  0  0  0
  -30.2260  -16.9550   20.6330 C   0  0  0  0  0  2  0  0  0  0  0  0
  -30.6950  -14.5160   20.4090 C   0  0  0  0  0  0  0  0  0  0  0  0
  -30.3740  -12.3760   19.2350 C   0  0  0  0  0  2  0  0  0  0  0  0
  -29.4270  -12.6100   18.0400 C   0  0  0  0  0  2  0  0  0  0  0  0
  -27.9540  -12.4740   18.4730 C   0  0  0  0  0  2  0  0  0  0  0  0
  -27.6260  -13.2950   19.7460 C   0  0  0  0  0  3  0  0  0  0  0  0
  -28.6870  -13.0480   20.8460 C   0  0  0  0  0  2  0  0  0  0  0  0
  -30.0170  -13.3420   20.2840 N   0  0  0  0  0  0  0  0  0  0  0  0
  -31.8050  -14.7090   19.9080 O   0  0  0  0  0  0  0  0  0  0  0  0
  -29.9960  -15.5330   20.9380 N   0  0  0  0  0  0  0  0  0  0  0  0
  -29.1160  -15.2870   21.3640 H   0  0  0  0  0  0  0  0  0  0  0  0
  -25.2250  -13.9020   20.4480 C   0  0  0  0  0  0  0  0  0  0  0  0
  -24.1590  -13.1300   20.8220 C   0  0  0  0  0  0  0  0  0  0  0  0
  -24.6230  -11.7780   20.8030 C   0  0  0  0  0  0  0  0  0  0  0  0
  -26.2730  -13.0220   20.2250 N   0  0  0  0  0  0  0  0  0  0  0  0
  -25.9130  -11.7410   20.4940 N   0  0  0  0  0  0  0  0  0  0  0  0
  -23.9010  -10.5170   21.0050 C   0  0  0  0  0  0  0  0  0  0  0  0
  -24.3420   -9.5520   21.9380 C   0  0  0  0  0  3  0  0  0  0  0  0
  -23.6180   -8.3550   22.1260 C   0  0  0  0  0  3  0  0  0  0  0  0
  -22.4410   -8.1130   21.3800 C   0  0  0  0  0  0  0  0  0  0  0  0
  -22.0190   -9.0660   20.4350 C   0  0  0  0  0  3  0  0  0  0  0  0
  -22.7430  -10.2550   20.2460 C   0  0  0  0  0  3  0  0  0  0  0  0
  -21.6900   -6.9670   21.4770 O   0  0  0  0  0  0  0  0  0  0  0  0
  -21.6550   -6.2210   22.6280 C   0  0  0  0  0  0  0  0  0  0  0  0
  -21.2540   -6.7770   23.8620 C   0  0  0  0  0  3  0  0  0  0  0  0
  -21.1670   -5.9610   25.0070 C   0  0  0  0  0  3  0  0  0  0  0  0
  -21.4720   -4.5900   24.9200 C   0  0  0  0  0  0  0  0  0  0  0  0
  -21.8650   -4.0320   23.6910 C   0  0  0  0  0  3  0  0  0  0  0  0
  -21.9540   -4.8450   22.5470 C   0  0  0  0  0  0  0  0  0  0  0  0
  -22.3140   -4.2990   21.3610 F   0  0  0  0  0  0  0  0  0  0  0  0
  -21.3790   -3.8040   26.0170 F   0  0  0  0  0  0  0  0  0  0  0  0
  -22.7600  -13.6040   21.0920 C   0  0  0  0  0  0  0  0  0  0  0  0
  -22.0360  -12.9150   21.9650 N   0  0  0  0  0  0  0  0  0  0  0  0
  -22.3170  -14.6240   20.5640 O   0  0  0  0  0  0  0  0  0  0  0  0
  -22.4070  -12.0890   22.4120 H   0  0  0  0  0  0  0  0  0  0  0  0
  -21.0990  -13.2170   22.1900 H   0  0  0  0  0  0  0  0  0  0  0  0
  -25.3830  -15.2740   20.2640 N   0  0  0  0  0  0  0  0  0  0  0  0
  -24.6140  -15.9260   20.3740 H   0  0  0  0  0  0  0  0  0  0  0  0
  -26.2320  -15.7200   19.9390 H   0  0  0  0  0  0  0  0  0  0  0  0
  -31.3250  -22.6890   20.4040 C   0  0  0  0  0  2  0  0  0  0  0  0
  -29.8700  -23.2200   20.5570 C   0  0  0  0  0  2  0  0  0  0  0  0
  -29.7670  -24.7650   20.3970 C   0  0  0  0  0  2  0  0  0  0  0  0
  -28.3480  -25.3360   20.1400 C   0  0  0  0  0  2  0  0  0  0  0  0
  -28.3730  -26.7730   20.2260 O   0  0  0  0  0  0  0  0  0  0  0  0
  -24.5600  -31.9750   23.2600 C   0  0  0  0  0  0  0  0  0  0  0  0
  -27.1770  -27.4740   20.2130 C   0  0  0  0  0  0  0  0  0  0  0  0
  -23.3380  -30.5590   21.6420 C   0  0  0  0  0  3  0  0  0  0  0  0
  -24.7770  -28.9920   20.2290 C   0  0  0  0  0  0  0  0  0  0  0  0
  -25.8660  -30.9010   21.4240 C   0  0  0  0  0  2  0  0  0  0  0  0
  -25.9410  -29.5200   20.8000 C   0  0  0  0  0  0  0  0  0  0  0  0
  -27.1400  -28.7700   20.7810 C   0  0  0  0  0  3  0  0  0  0  0  0
  -25.9920  -26.9590   19.6420 C   0  0  0  0  0  3  0  0  0  0  0  0
  -24.7970  -27.7100   19.6500 C   0  0  0  0  0  3  0  0  0  0  0  0
  -23.5360  -29.8590   20.2700 C   0  0  0  0  0  2  0  0  0  0  0  0
  -24.6050  -31.1620   22.1660 N   0  0  0  0  0  0  0  0  0  0  0  0
  -23.4830  -32.2630   23.8020 O   0  0  0  0  0  0  0  0  0  0  0  0
  -22.6880  -29.5520   22.6200 C   0  0  0  0  0  0  0  0  0  0  0  0
  -21.3640  -29.3610   22.4880 N   0  0  0  0  0  0  0  0  0  0  0  0
  -23.3710  -28.9470   23.4500 O   0  0  0  0  0  0  0  0  0  0  0  0
  -20.8790  -29.9020   21.7860 H   0  0  0  0  0  0  0  0  0  0  0  0
  -17.9920  -28.1460   22.9710 C   0  0  0  0  0  0  0  0  0  0  0  0
  -20.5450  -28.4330   23.2680 C   0  0  0  0  0  3  0  0  0  0  0  0
  -20.6660  -26.9890   22.7250 C   0  0  0  0  0  2  0  0  0  0  0  0
  -19.5750  -26.6380   21.7070 C   0  0  0  0  0  2  0  0  0  0  0  0
  -18.1840  -26.7840   22.3280 C   0  0  0  0  0  2  0  0  0  0  0  0
  -19.0990  -28.9280   23.3960 C   0  0  0  0  0  0  0  0  0  0  0  0
  -18.8610  -30.2040   23.9520 C   0  0  0  0  0  3  0  0  0  0  0  0
  -17.5490  -30.6950   24.0930 C   0  0  0  0  0  3  0  0  0  0  0  0
  -16.4570  -29.9120   23.6810 C   0  0  0  0  0  3  0  0  0  0  0  0
  -16.6800  -28.6400   23.1250 C   0  0  0  0  0  3  0  0  0  0  0  0
  -25.8510  -32.6040   23.8670 C   0  0  0  0  0  3  0  0  0  0  0  0
  -25.5480  -34.0060   24.1930 N   0  0  0  0  0  0  0  0  0  0  0  0
  -25.8880  -35.0510   23.4270 C   0  0  0  0  0  0  0  0  0  0  0  0
  -26.5590  -34.9360   22.3990 O   0  0  0  0  0  0  0  0  0  0  0  0
  -24.9590  -34.1680   24.9960 H   0  0  0  0  0  0  0  0  0  0  0  0
  -24.1740  -36.8520   23.0520 C   0  0  0  0  0  1  0  0  0  0  0  0
  -25.4060  -36.4440   23.8750 C   0  0  0  0  0  3  0  0  0  0  0  0
  -27.5400  -37.3140   24.7160 C   0  0  0  0  0  1  0  0  0  0  0  0
  -26.4460  -37.4890   23.7660 N   0  0  0  0  0  0  0  0  0  0  0  0
  -26.0440  -38.4100   23.9150 H   0  0  0  0  0  0  0  0  0  0  0  0
  -26.3750  -31.8370   25.1430 C   0  0  1  0  0  0  0  0  0  0  0  0
  -25.2900  -31.6050   26.2220 C   0  0  0  0  0  1  0  0  0  0  0  0
  -26.9510  -30.4560   24.7490 C   0  0  0  0  0  1  0  0  0  0  0  0
  -27.5330  -32.6360   25.7860 C   0  0  0  0  0  1  0  0  0  0  0  0
  1  2  2  0
  2  7  1  0
  3  4  1  0
  3  2  1  0
  5  6  1  0
  5  3  2  0
  6  1  1  0
  8 17  1  0
  8  7  1  0
  9 17  1  0
 10 15  1  0
 11 12  1  0
 11 10  1  0
 13 12  1  0
 13 22  1  0
 13 14  1  0
 15  9  1  0
 15 14  1  0
 16  9  2  0
 17 18  1  0
 19 20  2  0
 20 39  1  0
 21 20  1  0
 21 24  1  0
 22 19  1  0
 22 23  1  0
 23 21  2  0
 24 25  1  0
 25 26  2  0
 27 30  1  0
 27 26  1  0
 28 27  2  0
 29 28  1  0
 29 24  2  0
 30 31  1  0
 31 32  1  0
 32 33  2  0
 34 33  1  0
 34 38  1  0
 35 34  2  0
 36 31  2  0
 36 35  1  0
 37 36  1  0
 39 40  1  0
 40 43  1  0
 40 42  1  0
 41 39  2  0
 44 45  1  0
 44 19  1  0
 46 44  1  0
 47 48  1  0
 47  6  1  0
 49 48  1  0
 50 51  1  0
 50 49  1  0
 52 63  2  0
 53 51  1  0
 53 58  1  0
 54 62  1  0
 54 64  1  0
 55 61  1  0
 55 57  1  0
 56 62  1  0
 57 56  1  0
 58 57  2  0
 59 60  1  0
 59 53  2  0
 60 55  2  0
 61 54  1  0
 62 52  1  0
 64 66  2  0
 65 64  1  0
 67 65  1  0
 68 77  2  0
 68 73  1  0
 69 65  1  0
 69 73  1  0
 70 69  1  0
 71 72  1  0
 71 70  1  0
 72 68  1  0
 73 74  2  0
 74 75  1  0
 76 75  2  0
 77 76  1  0
 78 52  1  0
 78 79  1  0
 78 88  1  0
 79 82  1  0
 80 84  1  0
 80 79  1  0
 81 80  2  0
 84 83  1  0
 86 84  1  0
 86 87  1  0
 86 85  1  0
 88 91  1  1
 88 89  1  0
 90 88  1  0
M  ISO  4   9 100  17 100  50 101  51 101
M  END
>  <TORSDO>  (38) 
F 22

>  <SCORE>  (38) 
-12.985

>  <name>  (38) 
38

>  <ligand_id>  (38) 
38

>  <original_smiles>  (38) 
[H]c1c([H])c([H])c2c(c1[H])C([H])([H])C([H])([H])C([H])([H])C2([H])N([H])C(=O)C1([H])N(C(=O)C([H])(N([H])C(=O)C([H])(N([H])C([H])([H])[H])C([H])([H])[H])C(C([H])([H])[H])(C([H])([H])[H])C([H])([H])[H])C([H])([H])c2c([H])c(OC([H])([H])C([H])([H])C([H])([H])C([H])([H])n3nc(C([H])([H])[H])c(C([H])([H])C([H])([H])N([H])C(=O)N4C([H])([H])C([H])([H])C([H])([H])C([H])(n5nc(-c6c([H])c([H])c(Oc7c([H])c([H])c(F)c([H])c7F)c([H])c6[H])c(C(=O)N([H])[H])c5N([H])[H])C4([H])[H])c3[H])c([H])c([H])c2C1([H])[H]

>  <smiles>  (38) 
[H]c1c([H])c([H])c2c(c1[H])C([H])([H])C([H])([H])C([H])([H])C2([H])N([H])C(=O)C1([H])N(C(=O)C([H])(N([H])C(=O)C([H])(N([H])C([H])([H])[H])C([H])([H])[H])C(C([H])([H])[H])(C([H])([H])[H])C([H])([H])[H])C([H])([H])c2c([H])c(OC([H])([H])C([H])([H])C([H])([H])C([H])([H])n3nc(C([H])([H])[H])c(C([H])([H])C([H])([H])N([H])C(=O)N4C([H])([H])C([H])([H])C([H])([H])C([H])(n5nc(-c6c([H])c([H])c(Oc7c([H])c([H])c(F)c([H])c7F)c([H])c6[H])c(C(=O)N([H])[H])c5N([H])[H])C4([H])[H])c3[H])c([H])c([H])c2C1([H])[H]

$$$$
39:0:0
     RDKit          3D

 93101  0  0  1  0  0  0  0  0999 V2000
  -29.1650  -20.7360   18.0020 C   0  0  0  0  0  3  0  0  0  0  0  0
  -28.6790  -19.5180   18.5290 C   0  0  0  0  0  0  0  0  0  0  0  0
  -27.5940  -20.6730   20.2060 C   0  0  0  0  0  0  0  0  0  0  0  0
  -28.0930  -21.9030   19.6900 C   0  0  0  0  0  0  0  0  0  0  0  0
  -26.6950  -20.5870   21.4250 C   0  0  0  0  0  1  0  0  0  0  0  0
  -28.8590  -21.9290   18.5680 N   0  0  0  0  0  0  0  0  0  0  0  0
  -27.8840  -19.4870   19.6250 N   0  0  0  0  0  0  0  0  0  0  0  0
  -28.9660  -18.1870   17.8510 C   0  0  0  0  0  2  0  0  0  0  0  0
  -30.1010  -17.3510   18.4820 C   0  0  0  0  0  2  0  0  0  0  0  0
  -29.8450  -16.8700   19.9360 C   0  0  0  0  0  2  0  0  0  0  0  0
  -31.4770  -15.0130   19.8560 C   0  0  0  0  0  0  0  0  0  0  0  0
  -31.1900  -12.6900   19.0750 C   0  0  0  0  0  2  0  0  0  0  0  0
  -30.2390  -12.6380   17.8650 C   0  0  0  0  0  2  0  0  0  0  0  0
  -28.7760  -12.5260   18.3340 C   0  0  0  0  0  2  0  0  0  0  0  0
  -28.4150  -13.5810   19.4110 C   0  0  0  0  0  3  0  0  0  0  0  0
  -29.4800  -13.6130   20.5320 C   0  0  0  0  0  2  0  0  0  0  0  0
  -30.7950  -13.8370   19.9090 N   0  0  0  0  0  0  0  0  0  0  0  0
  -32.5620  -15.1290   19.2780 O   0  0  0  0  0  0  0  0  0  0  0  0
  -31.8140  -16.8480   21.3920 C   0  0  0  0  0  1  0  0  0  0  0  0
  -30.9410  -16.0650   20.5160 N   0  0  0  0  0  0  0  0  0  0  0  0
  -26.0880  -14.2950   20.2490 C   0  0  0  0  0  0  0  0  0  0  0  0
  -24.9960  -13.5680   20.6430 C   0  0  0  0  0  0  0  0  0  0  0  0
  -25.3820  -12.1970   20.5520 C   0  0  0  0  0  0  0  0  0  0  0  0
  -27.0720  -13.3680   19.9450 N   0  0  0  0  0  0  0  0  0  0  0  0
  -26.6540  -12.1000   20.1850 N   0  0  0  0  0  0  0  0  0  0  0  0
  -24.6010  -10.9690   20.7390 C   0  0  0  0  0  0  0  0  0  0  0  0
  -24.9300  -10.0290   21.7400 C   0  0  0  0  0  3  0  0  0  0  0  0
  -24.1530   -8.8640   21.9120 C   0  0  0  0  0  3  0  0  0  0  0  0
  -23.0320   -8.6300   21.0800 C   0  0  0  0  0  0  0  0  0  0  0  0
  -22.7210   -9.5580   20.0710 C   0  0  0  0  0  3  0  0  0  0  0  0
  -23.5000  -10.7140   19.8980 C   0  0  0  0  0  3  0  0  0  0  0  0
  -22.2340   -7.5140   21.1570 O   0  0  0  0  0  0  0  0  0  0  0  0
  -21.9520   -6.9120   22.3570 C   0  0  0  0  0  0  0  0  0  0  0  0
  -21.2740   -7.5920   23.3910 C   0  0  0  0  0  3  0  0  0  0  0  0
  -20.9440   -6.9150   24.5810 C   0  0  0  0  0  3  0  0  0  0  0  0
  -21.2800   -5.5580   24.7360 C   0  0  0  0  0  0  0  0  0  0  0  0
  -21.9500   -4.8750   23.7050 C   0  0  0  0  0  3  0  0  0  0  0  0
  -22.2820   -5.5510   22.5170 C   0  0  0  0  0  0  0  0  0  0  0  0
  -22.9090   -4.8840   21.5190 F   0  0  0  0  0  0  0  0  0  0  0  0
  -20.9560   -4.9030   25.8760 F   0  0  0  0  0  0  0  0  0  0  0  0
  -23.6410  -14.1090   20.9960 C   0  0  0  0  0  0  0  0  0  0  0  0
  -22.9210  -13.4280   21.8790 N   0  0  0  0  0  0  0  0  0  0  0  0
  -23.2300  -15.1680   20.5210 O   0  0  0  0  0  0  0  0  0  0  0  0
  -23.2660  -12.5710   22.2840 H   0  0  0  0  0  0  0  0  0  0  0  0
  -22.0120  -13.7710   22.1580 H   0  0  0  0  0  0  0  0  0  0  0  0
  -26.3150  -15.6600   20.1070 N   0  0  0  0  0  0  0  0  0  0  0  0
  -25.5960  -16.3500   20.2980 H   0  0  0  0  0  0  0  0  0  0  0  0
  -27.1900  -16.0740   19.8180 H   0  0  0  0  0  0  0  0  0  0  0  0
  -27.7140  -23.2550   20.2950 C   0  0  0  0  0  2  0  0  0  0  0  0
  -28.7650  -24.3740   20.1530 C   0  0  0  0  0  2  0  0  0  0  0  0
  -28.3110  -25.4760   19.1840 C   0  0  0  0  0  2  0  0  0  0  0  0
  -29.1010  -26.7900   19.3020 C   0  0  0  0  0  2  0  0  0  0  0  0
  -28.6340  -27.7590   18.3640 O   0  0  0  0  0  0  0  0  0  0  0  0
  -24.5090  -31.3340   22.9120 C   0  0  0  0  0  0  0  0  0  0  0  0
  -27.3860  -28.2490   18.6510 C   0  0  0  0  0  0  0  0  0  0  0  0
  -23.3330  -30.1220   21.1060 C   0  0  0  0  0  3  0  0  0  0  0  0
  -24.8090  -29.2230   19.2310 C   0  0  0  0  0  0  0  0  0  0  0  0
  -25.7150  -30.9790   20.7640 C   0  0  0  0  0  2  0  0  0  0  0  0
  -25.9320  -29.8130   19.8250 C   0  0  0  0  0  0  0  0  0  0  0  0
  -27.2250  -29.3250   19.5450 C   0  0  0  0  0  3  0  0  0  0  0  0
  -26.2550  -27.6770   18.0350 C   0  0  0  0  0  3  0  0  0  0  0  0
  -24.9610  -28.1470   18.3360 C   0  0  0  0  0  3  0  0  0  0  0  0
  -23.4610  -29.8020   19.5920 C   0  0  0  0  0  2  0  0  0  0  0  0
  -24.5430  -30.8140   21.6530 N   0  0  0  0  0  0  0  0  0  0  0  0
  -23.4810  -31.2830   23.6000 O   0  0  0  0  0  0  0  0  0  0  0  0
  -22.9850  -28.8160   21.8570 C   0  0  0  0  0  0  0  0  0  0  0  0
  -21.7190  -28.3820   21.7420 N   0  0  0  0  0  0  0  0  0  0  0  0
  -23.8440  -28.2070   22.5000 O   0  0  0  0  0  0  0  0  0  0  0  0
  -21.0770  -28.9390   21.1970 H   0  0  0  0  0  0  0  0  0  0  0  0
  -18.7300  -26.3710   22.0270 C   0  0  0  0  0  0  0  0  0  0  0  0
  -21.1730  -27.1600   22.3310 C   0  0  0  0  0  3  0  0  0  0  0  0
  -21.5700  -25.9180   21.4990 C   0  0  0  0  0  2  0  0  0  0  0  0
  -20.5230  -25.5360   20.4480 C   0  0  0  0  0  2  0  0  0  0  0  0
  -19.1760  -25.2420   21.1130 C   0  0  0  0  0  2  0  0  0  0  0  0
  -19.6660  -27.2810   22.5850 C   0  0  0  0  0  0  0  0  0  0  0  0
  -19.1960  -28.3340   23.3990 C   0  0  0  0  0  3  0  0  0  0  0  0
  -17.8200  -28.4860   23.6560 C   0  0  0  0  0  3  0  0  0  0  0  0
  -16.8990  -27.5730   23.1130 C   0  0  0  0  0  3  0  0  0  0  0  0
  -17.3550  -26.5150   22.3060 C   0  0  0  0  0  3  0  0  0  0  0  0
  -25.7520  -32.0410   23.5390 C   0  0  0  0  0  3  0  0  0  0  0  0
  -25.3330  -33.3880   23.9460 N   0  0  0  0  0  0  0  0  0  0  0  0
  -25.5920  -34.5050   23.2540 C   0  0  0  0  0  0  0  0  0  0  0  0
  -26.2780  -34.5140   22.2270 O   0  0  0  0  0  0  0  0  0  0  0  0
  -24.7190  -33.4500   24.7440 H   0  0  0  0  0  0  0  0  0  0  0  0
  -23.7400  -36.1820   22.9700 C   0  0  0  0  0  1  0  0  0  0  0  0
  -24.9950  -35.8230   23.7830 C   0  0  0  0  0  3  0  0  0  0  0  0
  -27.0380  -36.8130   24.7140 C   0  0  0  0  0  1  0  0  0  0  0  0
  -25.9470  -36.9540   23.7540 N   0  0  0  0  0  0  0  0  0  0  0  0
  -25.4710  -37.8300   23.9440 H   0  0  0  0  0  0  0  0  0  0  0  0
  -26.3640  -31.2520   24.7600 C   0  0  1  0  0  0  0  0  0  0  0  0
  -25.3260  -30.8710   25.8420 C   0  0  0  0  0  1  0  0  0  0  0  0
  -27.0400  -29.9480   24.2770 C   0  0  0  0  0  1  0  0  0  0  0  0
  -27.4720  -32.1000   25.4280 C   0  0  0  0  0  1  0  0  0  0  0  0
  1  2  2  0
  1  6  1  0
  2  7  1  0
  3  5  1  0
  4  3  1  0
  4 49  1  0
  6  4  2  0
  7  3  2  0
  8  9  1  0
  8  2  1  0
  9 10  1  0
 10 20  1  0
 11 17  1  0
 11 20  1  0
 12 17  1  0
 13 14  1  0
 13 12  1  0
 15 14  1  0
 15 24  1  0
 15 16  1  0
 17 16  1  0
 18 11  2  0
 20 19  1  0
 21 22  2  0
 22 41  1  0
 23 22  1  0
 23 26  1  0
 24 25  1  0
 24 21  1  0
 25 23  2  0
 26 27  1  0
 27 28  2  0
 29 32  1  0
 29 28  1  0
 30 29  2  0
 31 30  1  0
 31 26  2  0
 32 33  1  0
 33 38  2  0
 33 34  1  0
 34 35  2  0
 35 36  1  0
 36 40  1  0
 37 36  2  0
 38 37  1  0
 39 38  1  0
 41 42  1  0
 42 45  1  0
 42 44  1  0
 43 41  2  0
 46 21  1  0
 46 47  1  0
 48 46  1  0
 50 49  1  0
 51 52  1  0
 51 50  1  0
 53 55  1  0
 53 52  1  0
 54 65  2  0
 55 60  1  0
 56 64  1  0
 56 66  1  0
 57 63  1  0
 57 59  1  0
 58 64  1  0
 59 58  1  0
 60 59  2  0
 61 62  1  0
 61 55  2  0
 62 57  2  0
 63 56  1  0
 64 54  1  0
 66 68  2  0
 67 66  1  0
 69 67  1  0
 70 79  2  0
 70 75  1  0
 71 67  1  0
 71 75  1  0
 72 71  1  0
 73 74  1  0
 73 72  1  0
 74 70  1  0
 75 76  2  0
 76 77  1  0
 78 77  2  0
 79 78  1  0
 80 54  1  0
 80 81  1  0
 80 90  1  0
 81 84  1  0
 82 86  1  0
 82 81  1  0
 83 82  2  0
 86 85  1  0
 88 86  1  0
 88 89  1  0
 88 87  1  0
 90 93  1  1
 90 91  1  0
 92 90  1  0
M  ISO  4  11 100  20 100  52 101  53 101
M  END
>  <TORSDO>  (39) 
F 23

>  <SCORE>  (39) 
-4.883

>  <name>  (39) 
39

>  <ligand_id>  (39) 
39

>  <original_smiles>  (39) 
[H]c1nc(C([H])([H])C([H])([H])C([H])([H])C([H])([H])Oc2c([H])c([H])c3c(c2[H])C([H])([H])N(C(=O)C([H])(N([H])C(=O)C([H])(N([H])C([H])([H])[H])C([H])([H])[H])C(C([H])([H])[H])(C([H])([H])[H])C([H])([H])[H])C([H])(C(=O)N([H])C2([H])c4c([H])c([H])c([H])c([H])c4C([H])([H])C([H])([H])C2([H])[H])C3([H])[H])c(C([H])([H])[H])nc1C([H])([H])C([H])([H])C([H])([H])N(C(=O)N1C([H])([H])C([H])([H])C([H])([H])C([H])(n2nc(-c3c([H])c([H])c(Oc4c([H])c([H])c(F)c([H])c4F)c([H])c3[H])c(C(=O)N([H])[H])c2N([H])[H])C1([H])[H])C([H])([H])[H]

>  <smiles>  (39) 
[H]c1nc(C([H])([H])C([H])([H])C([H])([H])C([H])([H])Oc2c([H])c([H])c3c(c2[H])C([H])([H])N(C(=O)C([H])(N([H])C(=O)C([H])(N([H])C([H])([H])[H])C([H])([H])[H])C(C([H])([H])[H])(C([H])([H])[H])C([H])([H])[H])C([H])(C(=O)N([H])C2([H])c4c([H])c([H])c([H])c([H])c4C([H])([H])C([H])([H])C2([H])[H])C3([H])[H])c(C([H])([H])[H])nc1C([H])([H])C([H])([H])C([H])([H])N(C(=O)N1C([H])([H])C([H])([H])C([H])([H])C([H])(n2nc(-c3c([H])c([H])c(Oc4c([H])c([H])c(F)c([H])c4F)c([H])c3[H])c(C(=O)N([H])[H])c2N([H])[H])C1([H])[H])C([H])([H])[H]

$$$$
40:0:0
     RDKit          3D

 92100  0  0  1  0  0  0  0  0999 V2000
  -28.3040  -19.9270   20.9000 C   0  0  0  0  0  3  0  0  0  0  0  0
  -29.2960  -19.2500   20.1690 C   0  0  0  0  0  0  0  0  0  0  0  0
  -30.1760  -20.0830   19.4430 C   0  0  0  0  0  0  0  0  0  0  0  0
  -28.9840  -21.9550   20.0720 C   0  0  0  0  0  0  0  0  0  0  0  0
  -28.1510  -21.2660   20.8450 N   0  0  0  0  0  0  0  0  0  0  0  0
  -30.0110  -21.4260   19.4100 N   0  0  0  0  0  0  0  0  0  0  0  0
  -32.6790  -19.7680   19.4010 C   0  0  0  0  0  1  0  0  0  0  0  0
  -31.3600  -19.5540   18.6520 C   0  0  0  0  0  2  0  0  0  0  0  0
  -29.2810  -17.7120   20.1020 C   0  0  0  0  0  2  0  0  0  0  0  0
  -30.2400  -16.9440   21.0460 C   0  0  0  0  0  2  0  0  0  0  0  0
  -30.6840  -14.5170   20.4340 C   0  0  0  0  0  0  0  0  0  0  0  0
  -30.3950  -12.3830   19.2310 C   0  0  0  0  0  2  0  0  0  0  0  0
  -29.4300  -12.6010   18.0450 C   0  0  0  0  0  2  0  0  0  0  0  0
  -27.9600  -12.4670   18.4900 C   0  0  0  0  0  2  0  0  0  0  0  0
  -27.6410  -13.2800   19.7710 C   0  0  0  0  0  3  0  0  0  0  0  0
  -28.7050  -13.0160   20.8610 C   0  0  0  0  0  2  0  0  0  0  0  0
  -30.0270  -13.3340   20.2910 N   0  0  0  0  0  0  0  0  0  0  0  0
  -31.7940  -14.7370   19.9420 O   0  0  0  0  0  0  0  0  0  0  0  0
  -29.9610  -15.4960   21.0120 N   0  0  0  0  0  0  0  0  0  0  0  0
  -29.0660  -15.2030   21.3760 H   0  0  0  0  0  0  0  0  0  0  0  0
  -25.2470  -13.9020   20.4860 C   0  0  0  0  0  0  0  0  0  0  0  0
  -24.1760  -13.1350   20.8570 C   0  0  0  0  0  0  0  0  0  0  0  0
  -24.6300  -11.7800   20.8230 C   0  0  0  0  0  0  0  0  0  0  0  0
  -26.2870  -13.0150   20.2530 N   0  0  0  0  0  0  0  0  0  0  0  0
  -25.9190  -11.7340   20.5100 N   0  0  0  0  0  0  0  0  0  0  0  0
  -23.9000  -10.5210   21.0170 C   0  0  0  0  0  0  0  0  0  0  0  0
  -24.3300   -9.5530   21.9520 C   0  0  0  0  0  3  0  0  0  0  0  0
  -23.6000   -8.3590   22.1340 C   0  0  0  0  0  3  0  0  0  0  0  0
  -22.4280   -8.1210   21.3780 C   0  0  0  0  0  0  0  0  0  0  0  0
  -22.0180   -9.0760   20.4310 C   0  0  0  0  0  3  0  0  0  0  0  0
  -22.7480  -10.2620   20.2500 C   0  0  0  0  0  3  0  0  0  0  0  0
  -21.6690   -6.9780   21.4650 O   0  0  0  0  0  0  0  0  0  0  0  0
  -21.6100   -6.2390   22.6200 C   0  0  0  0  0  0  0  0  0  0  0  0
  -21.1640   -6.7980   23.8370 C   0  0  0  0  0  3  0  0  0  0  0  0
  -21.0580   -5.9880   24.9860 C   0  0  0  0  0  3  0  0  0  0  0  0
  -21.3830   -4.6200   24.9160 C   0  0  0  0  0  0  0  0  0  0  0  0
  -21.8180   -4.0600   23.7030 C   0  0  0  0  0  3  0  0  0  0  0  0
  -21.9310   -4.8680   22.5570 C   0  0  0  0  0  0  0  0  0  0  0  0
  -22.3330   -4.3200   21.3850 F   0  0  0  0  0  0  0  0  0  0  0  0
  -21.2720   -3.8400   26.0170 F   0  0  0  0  0  0  0  0  0  0  0  0
  -22.7810  -13.6180   21.1340 C   0  0  0  0  0  0  0  0  0  0  0  0
  -22.0530  -12.9210   21.9990 N   0  0  0  0  0  0  0  0  0  0  0  0
  -22.3440  -14.6450   20.6170 O   0  0  0  0  0  0  0  0  0  0  0  0
  -22.4140  -12.0870   22.4370 H   0  0  0  0  0  0  0  0  0  0  0  0
  -21.1180  -13.2280   22.2270 H   0  0  0  0  0  0  0  0  0  0  0  0
  -25.4220  -15.2730   20.3070 N   0  0  0  0  0  0  0  0  0  0  0  0
  -24.6650  -15.9400   20.4120 H   0  0  0  0  0  0  0  0  0  0  0  0
  -26.2750  -15.6930   19.9640 H   0  0  0  0  0  0  0  0  0  0  0  0
  -28.6730  -23.4450   19.8720 C   0  0  0  0  0  2  0  0  0  0  0  0
  -29.2010  -24.3910   20.9770 C   0  0  0  0  0  2  0  0  0  0  0  0
  -28.3420  -25.6590   21.2160 C   0  0  0  0  0  2  0  0  0  0  0  0
  -28.4480  -26.6810   20.2110 O   0  0  0  0  0  0  0  0  0  0  0  0
  -24.6080  -31.8850   23.2080 C   0  0  0  0  0  0  0  0  0  0  0  0
  -27.3170  -27.4650   20.1590 C   0  0  0  0  0  0  0  0  0  0  0  0
  -23.4310  -30.4680   21.5570 C   0  0  0  0  0  3  0  0  0  0  0  0
  -24.9130  -28.9460   20.1420 C   0  0  0  0  0  0  0  0  0  0  0  0
  -25.9540  -30.8560   21.3770 C   0  0  0  0  0  2  0  0  0  0  0  0
  -26.0610  -29.4850   20.7370 C   0  0  0  0  0  0  0  0  0  0  0  0
  -27.2710  -28.7520   20.7420 C   0  0  0  0  0  3  0  0  0  0  0  0
  -26.1580  -26.9440   19.5490 C   0  0  0  0  0  3  0  0  0  0  0  0
  -24.9560  -27.6760   19.5420 C   0  0  0  0  0  3  0  0  0  0  0  0
  -23.6580  -29.7890   20.1800 C   0  0  0  0  0  2  0  0  0  0  0  0
  -24.6820  -31.0840   22.1060 N   0  0  0  0  0  0  0  0  0  0  0  0
  -23.5200  -32.1470   23.7380 O   0  0  0  0  0  0  0  0  0  0  0  0
  -22.7820  -29.4430   22.5150 C   0  0  0  0  0  0  0  0  0  0  0  0
  -21.4570  -29.2650   22.3930 N   0  0  0  0  0  0  0  0  0  0  0  0
  -23.4680  -28.8100   23.3230 O   0  0  0  0  0  0  0  0  0  0  0  0
  -20.9660  -29.8260   21.7100 H   0  0  0  0  0  0  0  0  0  0  0  0
  -18.0750  -28.1050   22.9230 C   0  0  0  0  0  0  0  0  0  0  0  0
  -20.6390  -28.3260   23.1590 C   0  0  0  0  0  3  0  0  0  0  0  0
  -20.7150  -26.9030   22.5590 C   0  0  0  0  0  2  0  0  0  0  0  0
  -19.5930  -26.6110   21.5570 C   0  0  0  0  0  2  0  0  0  0  0  0
  -18.2230  -26.7650   22.2240 C   0  0  0  0  0  2  0  0  0  0  0  0
  -19.2100  -28.8450   23.3490 C   0  0  0  0  0  0  0  0  0  0  0  0
  -19.0160  -30.1020   23.9610 C   0  0  0  0  0  3  0  0  0  0  0  0
  -17.7210  -30.6180   24.1550 C   0  0  0  0  0  3  0  0  0  0  0  0
  -16.6010  -29.8730   23.7470 C   0  0  0  0  0  3  0  0  0  0  0  0
  -16.7790  -28.6190   23.1370 C   0  0  0  0  0  3  0  0  0  0  0  0
  -25.8820  -32.5300   23.8370 C   0  0  0  0  0  3  0  0  0  0  0  0
  -25.5550  -33.9210   24.1740 N   0  0  0  0  0  0  0  0  0  0  0  0
  -25.8780  -34.9820   23.4210 C   0  0  0  0  0  0  0  0  0  0  0  0
  -26.5550  -34.8920   22.3930 O   0  0  0  0  0  0  0  0  0  0  0  0
  -24.9530  -34.0630   24.9720 H   0  0  0  0  0  0  0  0  0  0  0  0
  -24.1350  -36.7560   23.0570 C   0  0  0  0  0  1  0  0  0  0  0  0
  -25.3710  -36.3620   23.8810 C   0  0  0  0  0  3  0  0  0  0  0  0
  -27.4860  -37.2630   24.7440 C   0  0  0  0  0  1  0  0  0  0  0  0
  -26.3940  -37.4260   23.7860 N   0  0  0  0  0  0  0  0  0  0  0  0
  -25.9780  -38.3420   23.9340 H   0  0  0  0  0  0  0  0  0  0  0  0
  -26.4070  -31.7560   25.1080 C   0  0  1  0  0  0  0  0  0  0  0  0
  -25.3150  -31.4910   26.1710 C   0  0  0  0  0  1  0  0  0  0  0  0
  -27.0120  -30.3930   24.7020 C   0  0  0  0  0  1  0  0  0  0  0  0
  -27.5460  -32.5610   25.7770 C   0  0  0  0  0  1  0  0  0  0  0  0
  2  1  2  0
  3  2  1  0
  4  5  2  0
  5  1  1  0
  6  3  2  0
  6  4  1  0
  8  7  1  0
  8  3  1  0
  9  2  1  0
  9 10  1  0
 11 19  1  0
 12 17  1  0
 13 14  1  0
 13 12  1  0
 15 14  1  0
 15 24  1  0
 15 16  1  0
 17 11  1  0
 17 16  1  0
 18 11  2  0
 19 10  1  0
 19 20  1  0
 21 22  2  0
 22 41  1  0
 23 22  1  0
 23 26  1  0
 24 21  1  0
 24 25  1  0
 25 23  2  0
 26 27  1  0
 27 28  2  0
 29 32  1  0
 29 28  1  0
 30 29  2  0
 31 30  1  0
 31 26  2  0
 32 33  1  0
 33 34  1  0
 34 35  2  0
 36 35  1  0
 36 40  1  0
 37 36  2  0
 38 33  2  0
 38 37  1  0
 39 38  1  0
 41 42  1  0
 42 45  1  0
 42 44  1  0
 43 41  2  0
 46 47  1  0
 46 21  1  0
 48 46  1  0
 49  4  1  0
 49 50  1  0
 50 51  1  0
 52 51  1  0
 53 64  2  0
 54 52  1  0
 54 59  1  0
 55 63  1  0
 55 65  1  0
 56 62  1  0
 56 58  1  0
 57 63  1  0
 58 59  2  0
 58 57  1  0
 60 54  2  0
 61 60  1  0
 61 56  2  0
 62 55  1  0
 63 53  1  0
 65 67  2  0
 66 65  1  0
 68 66  1  0
 69 78  2  0
 69 74  1  0
 70 66  1  0
 70 74  1  0
 71 70  1  0
 72 73  1  0
 72 71  1  0
 73 69  1  0
 74 75  2  0
 75 76  1  0
 77 76  2  0
 78 77  1  0
 79 53  1  0
 79 80  1  0
 79 89  1  0
 80 83  1  0
 81 85  1  0
 81 80  1  0
 82 81  2  0
 85 84  1  0
 87 85  1  0
 87 88  1  0
 87 86  1  0
 89 92  1  1
 89 90  1  0
 91 89  1  0
M  ISO  4  11 100  19 100  51 101  52 101
M  END
>  <TORSDO>  (40) 
F 22

>  <SCORE>  (40) 
-13.151

>  <name>  (40) 
40

>  <ligand_id>  (40) 
40

>  <original_smiles>  (40) 
[H]c1nc(C([H])([H])C([H])([H])C([H])([H])Oc2c([H])c([H])c3c(c2[H])C([H])([H])N(C(=O)C([H])(N([H])C(=O)C([H])(N([H])C([H])([H])[H])C([H])([H])[H])C(C([H])([H])[H])(C([H])([H])[H])C([H])([H])[H])C([H])(C(=O)N([H])C2([H])c4c([H])c([H])c([H])c([H])c4C([H])([H])C([H])([H])C2([H])[H])C3([H])[H])nc(C([H])([H])C([H])([H])[H])c1C([H])([H])C([H])([H])N([H])C(=O)N1C([H])([H])C([H])([H])C([H])([H])C([H])(n2nc(-c3c([H])c([H])c(Oc4c([H])c([H])c(F)c([H])c4F)c([H])c3[H])c(C(=O)N([H])[H])c2N([H])[H])C1([H])[H]

>  <smiles>  (40) 
[H]c1nc(C([H])([H])C([H])([H])C([H])([H])Oc2c([H])c([H])c3c(c2[H])C([H])([H])N(C(=O)C([H])(N([H])C(=O)C([H])(N([H])C([H])([H])[H])C([H])([H])[H])C(C([H])([H])[H])(C([H])([H])[H])C([H])([H])[H])C([H])(C(=O)N([H])C2([H])c4c([H])c([H])c([H])c([H])c4C([H])([H])C([H])([H])C2([H])[H])C3([H])[H])nc(C([H])([H])C([H])([H])[H])c1C([H])([H])C([H])([H])N([H])C(=O)N1C([H])([H])C([H])([H])C([H])([H])C([H])(n2nc(-c3c([H])c([H])c(Oc4c([H])c([H])c(F)c([H])c4F)c([H])c3[H])c(C(=O)N([H])[H])c2N([H])[H])C1([H])[H]

$$$$
41:0:0
     RDKit          3D

 91 93  0  0  1  0  0  0  0  0999 V2000
  -23.9070  -25.0860   22.0010 C   0  0  0  0  0  3  0  0  0  0  0  0
  -23.6420  -23.7770   21.4890 C   0  0  0  0  0  2  0  0  0  0  0  0
  -21.3240  -25.7450   21.8830 C   0  0  0  0  0  2  0  0  0  0  0  0
  -19.9170  -27.9640   20.5640 C   0  0  0  0  0  3  0  0  0  0  0  0
  -21.2140  -23.1980   20.9960 C   0  0  0  0  0  1  0  0  0  0  0  0
  -22.6400  -25.7870   22.4920 N   0  0  0  0  0  2  0  0  0  0  0  0
  -22.0400  -24.3200   21.4400 N   0  0  0  0  0  0  0  0  0  0  0  0
  -25.2880  -25.9050   22.2540 C   0  0  0  0  0  2  0  0  0  0  0  0
  -26.7780  -25.6440   21.5810 C   0  0  0  0  0  2  0  0  0  0  0  0
  -27.9080  -26.7010   21.4240 O   0  0  0  0  0  0  0  0  0  0  0  0
  -24.5890  -32.3700   23.2850 C   0  0  0  0  0  0  0  0  0  0  0  0
  -27.4820  -27.8210   20.7690 C   0  0  0  0  0  0  0  0  0  0  0  0
  -23.7950  -31.0910   21.3770 C   0  0  0  0  0  3  0  0  0  0  0  0
  -25.4520  -29.6030   20.1590 C   0  0  0  0  0  0  0  0  0  0  0  0
  -26.2870  -31.3510   21.7410 C   0  0  0  0  0  2  0  0  0  0  0  0
  -26.4500  -29.9980   21.0640 C   0  0  0  0  0  0  0  0  0  0  0  0
  -27.4970  -29.0990   21.3800 C   0  0  0  0  0  3  0  0  0  0  0  0
  -26.6420  -27.5570   19.6820 C   0  0  0  0  0  3  0  0  0  0  0  0
  -25.5650  -28.4080   19.4350 C   0  0  0  0  0  3  0  0  0  0  0  0
  -24.2620  -30.5190   20.0150 C   0  0  0  0  0  2  0  0  0  0  0  0
  -24.9030  -31.6430   22.1800 N   0  0  0  0  0  0  0  0  0  0  0  0
  -23.4090  -32.6090   23.5940 O   0  0  0  0  0  0  0  0  0  0  0  0
  -23.1110  -30.0050   22.1930 C   0  0  0  0  0  0  0  0  0  0  0  0
  -21.8070  -30.0450   22.1550 N   0  0  0  0  0  0  0  0  0  0  0  0
  -23.7390  -29.1460   22.8160 O   0  0  0  0  0  0  0  0  0  0  0  0
  -21.3320  -30.8070   21.6940 H   0  0  0  0  0  0  0  0  0  0  0  0
  -18.3690  -28.3590   23.1760 C   0  0  0  0  0  0  0  0  0  0  0  0
  -21.1730  -28.7860   22.3000 C   0  0  0  0  0  2  0  0  0  0  0  0
  -21.0790  -28.1100   20.2770 C   0  0  0  0  0  2  0  0  0  0  0  0
  -19.1440  -27.0670   20.0010 C   0  0  0  0  0  1  0  0  0  0  0  0
  -18.0750  -27.1280   21.8050 C   0  0  0  0  0  1  0  0  0  0  0  0
  -19.7560  -29.0390   23.4060 C   0  0  0  0  0  0  0  0  0  0  0  0
  -19.7400  -30.3170   24.1300 C   0  0  0  0  0  3  0  0  0  0  0  0
  -18.5870  -31.0320   24.5490 C   0  0  0  0  0  3  0  0  0  0  0  0
  -17.3280  -30.5000   24.2350 C   0  0  0  0  0  3  0  0  0  0  0  0
  -17.2480  -29.2300   23.5710 C   0  0  0  0  0  3  0  0  0  0  0  0
  -25.6990  -32.9480   24.1950 C   0  0  0  0  0  3  0  0  0  0  0  0
  -25.3360  -34.3430   24.4590 N   0  0  0  0  0  0  0  0  0  0  0  0
  -25.7920  -35.3840   23.7520 C   0  0  0  0  0  0  0  0  0  0  0  0
  -26.6350  -35.2680   22.8580 O   0  0  0  0  0  0  0  0  0  0  0  0
  -24.6090  -34.5020   25.1410 H   0  0  0  0  0  0  0  0  0  0  0  0
  -24.1550  -37.1660   23.0700 C   0  0  0  0  0  1  0  0  0  0  0  0
  -25.2280  -36.7750   24.0970 C   0  0  0  0  0  3  0  0  0  0  0  0
  -27.1930  -37.6510   25.2800 C   0  0  0  0  0  1  0  0  0  0  0  0
  -26.2680  -37.8240   24.1620 N   0  0  0  0  0  0  0  0  0  0  0  0
  -25.8450  -38.7450   24.2390 H   0  0  0  0  0  0  0  0  0  0  0  0
  -25.8790  -32.1460   25.5380 C   0  0  1  0  0  0  0  0  0  0  0  0
  -24.5620  -31.9050   26.3110 C   0  0  0  0  0  1  0  0  0  0  0  0
  -26.5270  -30.7680   25.2680 C   0  0  0  0  0  1  0  0  0  0  0  0
  -26.8480  -32.9170   26.4610 C   0  0  0  0  0  1  0  0  0  0  0  0
  -24.8230  -22.0600   21.3280 C   0  0  0  0  0 15  0  0  0  0  0  0
  -26.3370  -20.7810   20.4330 C   0  0  0  0  0 15  0  0  0  0  0  0
  -27.8300  -19.2070   20.6350 C   0  0  0  0  0 15  0  0  0  0  0  0
  -29.8720  -16.3810   19.8320 C   0  0  0  0  0  0  0  0  0  0  0  0
  -30.6850  -13.8350   18.9490 C   0  0  0  0  0  2  0  0  0  0  0  0
  -29.8770  -13.1380   17.7930 C   0  0  0  0  0  2  0  0  0  0  0  0
  -28.4910  -12.6830   18.2810 C   0  0  0  0  0  2  0  0  0  0  0  0
  -27.9480  -13.7270   19.2730 C   0  0  0  0  0  3  0  0  0  0  0  0
  -28.9030  -14.0450   20.4120 C   0  0  0  0  0  2  0  0  0  0  0  0
  -29.8410  -14.8970   19.7370 N   0  0  0  0  0  0  0  0  0  0  0  0
  -31.1060  -16.5600   19.5570 O   0  0  0  0  0  0  0  0  0  0  0  0
  -28.6280  -17.4900   20.1030 N   0  0  0  0  0  2  0  0  0  0  0  0
  -27.8280  -16.8650   20.1490 H   0  0  0  0  0  0  0  0  0  0  0  0
  -25.7780  -14.4030   20.2790 C   0  0  0  0  0  0  0  0  0  0  0  0
  -24.7150  -13.6790   20.7200 C   0  0  0  0  0  0  0  0  0  0  0  0
  -25.0720  -12.3040   20.5510 C   0  0  0  0  0  0  0  0  0  0  0  0
  -26.6770  -13.4610   19.8370 N   0  0  0  0  0  0  0  0  0  0  0  0
  -26.3020  -12.1900   20.0810 N   0  0  0  0  0  0  0  0  0  0  0  0
  -24.2890  -11.0880   20.7290 C   0  0  0  0  0  0  0  0  0  0  0  0
  -24.7020  -10.0650   21.6080 C   0  0  0  0  0  3  0  0  0  0  0  0
  -23.9120   -8.9080   21.7680 C   0  0  0  0  0  3  0  0  0  0  0  0
  -22.7010   -8.7730   21.0490 C   0  0  0  0  0  0  0  0  0  0  0  0
  -22.3130   -9.7860   20.1540 C   0  0  0  0  0  3  0  0  0  0  0  0
  -23.1020  -10.9340   19.9910 C   0  0  0  0  0  3  0  0  0  0  0  0
  -21.8770   -7.6790   21.1260 O   0  0  0  0  0  0  0  0  0  0  0  0
  -21.7550   -6.9560   22.2840 C   0  0  0  0  0  0  0  0  0  0  0  0
  -21.3580   -7.5530   23.5000 C   0  0  0  0  0  3  0  0  0  0  0  0
  -21.1770   -6.7590   24.6490 C   0  0  0  0  0  3  0  0  0  0  0  0
  -21.3840   -5.3670   24.5820 C   0  0  0  0  0  0  0  0  0  0  0  0
  -21.7760   -4.7700   23.3700 C   0  0  0  0  0  3  0  0  0  0  0  0
  -21.9570   -5.5630   22.2230 C   0  0  0  0  0  0  0  0  0  0  0  0
  -22.3150   -4.9810   21.0530 F   0  0  0  0  0  0  0  0  0  0  0  0
  -21.2020   -4.6010   25.6820 F   0  0  0  0  0  0  0  0  0  0  0  0
  -23.4000  -14.2390   21.1570 C   0  0  0  0  0  0  0  0  0  0  0  0
  -22.7150  -13.5480   22.0580 N   0  0  0  0  0  0  0  0  0  0  0  0
  -22.9990  -15.3230   20.7330 O   0  0  0  0  0  0  0  0  0  0  0  0
  -23.0600  -12.6710   22.4170 H   0  0  0  0  0  0  0  0  0  0  0  0
  -21.8310  -13.9010   22.3960 H   0  0  0  0  0  0  0  0  0  0  0  0
  -26.0430  -15.7700   20.1730 N   0  0  0  0  0  0  0  0  0  0  0  0
  -25.2420  -16.3720   20.3310 H   0  0  0  0  0  0  0  0  0  0  0  0
  -26.5580  -16.0620   19.3500 H   0  0  0  0  0  0  0  0  0  0  0  0
  1  8  1  0
  1  6  1  0
  2  1  1  0
  3  6  1  0
  5  7  1  0
  7  2  1  0
  7  3  1  0
  9  8  1  0
 10  9  1  0
 11 22  2  0
 12 17  1  0
 12 10  1  0
 13 21  1  0
 13 23  1  0
 14 16  1  0
 15 21  1  0
 16 17  2  0
 16 15  1  0
 18 12  2  0
 19 18  1  0
 19 14  2  0
 20 14  1  0
 20 13  1  0
 21 11  1  0
 23 25  2  0
 24 23  1  0
 24 28  1  0
 26 24  1  0
 27 32  2  0
 27 36  1  0
 28 32  1  0
 29  4  2  0
 30  4  1  0
 31 27  1  0
 32 33  1  0
 33 34  2  0
 35 34  1  0
 36 35  2  0
 37 11  1  0
 37 38  1  0
 37 47  1  0
 38 41  1  0
 39 43  1  0
 39 38  1  0
 40 39  2  0
 43 42  1  0
 43 45  1  0
 45 46  1  0
 45 44  1  0
 47 48  1  1
 47 50  1  0
 49 47  1  0
 54 62  1  0
 55 60  1  0
 56 57  1  0
 56 55  1  0
 58 57  1  0
 58 67  1  0
 58 59  1  0
 60 54  1  0
 60 59  1  0
 61 54  2  0
 62 63  1  0
 64 65  2  0
 65 84  1  0
 66 65  1  0
 66 69  1  0
 67 68  1  0
 67 64  1  0
 68 66  2  0
 69 70  1  0
 70 71  2  0
 72 75  1  0
 72 71  1  0
 73 72  2  0
 74 73  1  0
 74 69  2  0
 75 76  1  0
 76 77  1  0
 77 78  2  0
 79 78  1  0
 79 83  1  0
 80 79  2  0
 81 76  2  0
 81 80  1  0
 82 81  1  0
 84 85  1  0
 85 88  1  0
 85 87  1  0
 86 84  2  0
 89 64  1  0
 89 90  1  0
 91 89  1  0
M  ISO  4   9 101  10 101  54 100  62 100
M  END
>  <TORSDO>  (41) 
F 21

>  <SCORE>  (41) 
-5.120

>  <name>  (41) 
41

>  <ligand_id>  (41) 
41

>  <original_smiles>  (41) 
[H]c1c([H])c([H])c2c(c1[H])C([H])([H])C([H])([H])C([H])([H])C2([H])N([H])C(=O)C1([H])N(C(=O)C([H])(N([H])C(=O)C([H])(N([H])C([H])([H])[H])C([H])([H])[H])C(C([H])([H])[H])(C([H])([H])[H])C([H])([H])[H])C([H])([H])c2c([H])c(OC([H])([H])C([H])([H])c3nc(C([H])([H])[H])n(C([H])([H])[H])c3C([H])([H])C([H])([H])C([H])([H])N([H])C(=O)N3C([H])([H])C([H])([H])C([H])([H])C([H])(n4nc(-c5c([H])c([H])c(Oc6c([H])c([H])c(F)c([H])c6F)c([H])c5[H])c(C(=O)N([H])[H])c4N([H])[H])C3([H])[H])c([H])c([H])c2C1([H])[H]

>  <smiles>  (41) 
[H]c1c([H])c([H])c2c(c1[H])C([H])([H])C([H])([H])C([H])([H])C2([H])N([H])C(=O)C1([H])N(C(=O)C([H])(N([H])C(=O)C([H])(N([H])C([H])([H])[H])C([H])([H])[H])C(C([H])([H])[H])(C([H])([H])[H])C([H])([H])[H])C([H])([H])c2c([H])c(OC([H])([H])C([H])([H])c3nc(C([H])([H])[H])n(C([H])([H])[H])c3C([H])([H])C([H])([H])C([H])([H])N([H])C(=O)N3C([H])([H])C([H])([H])C([H])([H])C([H])(n4nc(-c5c([H])c([H])c(Oc6c([H])c([H])c(F)c([H])c6F)c([H])c5[H])c(C(=O)N([H])[H])c4N([H])[H])C3([H])[H])c([H])c([H])c2C1([H])[H]

$$$$
42:0:0
     RDKit          3D

 96104  0  0  1  0  0  0  0  0999 V2000
  -28.1020  -20.7800   19.6260 C   0  0  0  0  0  3  0  0  0  0  0  0
  -28.1970  -22.0970   19.1350 C   0  0  0  0  0  0  0  0  0  0  0  0
  -28.1320  -19.6830   18.7460 C   0  0  0  0  0  0  0  0  0  0  0  0
  -28.3520  -22.2570   17.7340 C   0  0  0  0  0  0  0  0  0  0  0  0
  -28.2680  -19.9520   17.3660 C   0  0  0  0  0  0  0  0  0  0  0  0
  -28.4420  -23.6010   17.0340 C   0  0  0  0  0  1  0  0  0  0  0  0
  -28.3980  -21.2060   16.8910 N   0  0  0  0  0  0  0  0  0  0  0  0
  -26.9720  -18.9780   15.4180 C   0  0  0  0  0  1  0  0  0  0  0  0
  -28.2230  -18.8690   16.2960 C   0  0  0  0  0  2  0  0  0  0  0  0
  -28.0240  -23.2220   20.1650 C   0  0  0  0  0  2  0  0  0  0  0  0
  -28.6810  -24.6000   19.9350 C   0  0  0  0  0  2  0  0  0  0  0  0
  -28.4950  -25.4970   21.1700 C   0  0  0  0  0  2  0  0  0  0  0  0
  -28.6120  -26.8880   20.8690 O   0  0  0  0  0  0  0  0  0  0  0  0
  -24.5470  -32.0700   23.5460 C   0  0  0  0  0  0  0  0  0  0  0  0
  -27.4210  -27.5690   20.7850 C   0  0  0  0  0  0  0  0  0  0  0  0
  -23.4480  -30.5700   21.9130 C   0  0  0  0  0  3  0  0  0  0  0  0
  -24.9960  -29.0020   20.6320 C   0  0  0  0  0  0  0  0  0  0  0  0
  -25.9690  -30.9760   21.8110 C   0  0  0  0  0  2  0  0  0  0  0  0
  -26.1130  -29.5810   21.2440 C   0  0  0  0  0  0  0  0  0  0  0  0
  -27.3310  -28.8730   21.3180 C   0  0  0  0  0  3  0  0  0  0  0  0
  -26.2880  -26.9940   20.1710 C   0  0  0  0  0  3  0  0  0  0  0  0
  -25.0760  -27.7060   20.0910 C   0  0  0  0  0  3  0  0  0  0  0  0
  -23.7360  -29.8360   20.5770 C   0  0  0  0  0  2  0  0  0  0  0  0
  -24.6700  -31.2220   22.4820 N   0  0  0  0  0  0  0  0  0  0  0  0
  -23.4380  -32.3460   24.0180 O   0  0  0  0  0  0  0  0  0  0  0  0
  -22.7690  -29.5820   22.8850 C   0  0  0  0  0  0  0  0  0  0  0  0
  -21.4740  -29.3120   22.6570 N   0  0  0  0  0  0  0  0  0  0  0  0
  -23.4080  -29.0560   23.8000 O   0  0  0  0  0  0  0  0  0  0  0  0
  -21.0230  -29.7840   21.8850 H   0  0  0  0  0  0  0  0  0  0  0  0
  -18.1390  -27.9540   22.9300 C   0  0  0  0  0  0  0  0  0  0  0  0
  -20.6400  -28.3830   23.4170 C   0  0  0  0  0  3  0  0  0  0  0  0
  -20.8770  -26.9260   22.9580 C   0  0  0  0  0  2  0  0  0  0  0  0
  -19.8940  -26.4670   21.8760 C   0  0  0  0  0  2  0  0  0  0  0  0
  -18.4510  -26.5730   22.3780 C   0  0  0  0  0  2  0  0  0  0  0  0
  -19.1690  -28.8110   23.4010 C   0  0  0  0  0  0  0  0  0  0  0  0
  -18.8280  -30.0990   23.8690 C   0  0  0  0  0  3  0  0  0  0  0  0
  -17.4890  -30.5310   23.8750 C   0  0  0  0  0  3  0  0  0  0  0  0
  -16.4710  -29.6730   23.4260 C   0  0  0  0  0  3  0  0  0  0  0  0
  -16.7970  -28.3900   22.9570 C   0  0  0  0  0  3  0  0  0  0  0  0
  -25.7910  -32.7510   24.1960 C   0  0  0  0  0  3  0  0  0  0  0  0
  -26.2380  -32.0620   25.5430 C   0  0  1  0  0  0  0  0  0  0  0  0
  -25.0750  -31.8160   26.5340 C   0  0  0  0  0  1  0  0  0  0  0  0
  -26.9100  -30.7010   25.2510 C   0  0  0  0  0  1  0  0  0  0  0  0
  -27.2950  -32.9390   26.2510 C   0  0  0  0  0  1  0  0  0  0  0  0
  -25.4520  -34.1630   24.4170 N   0  0  0  0  0  0  0  0  0  0  0  0
  -25.7940  -35.1630   23.5920 C   0  0  0  0  0  0  0  0  0  0  0  0
  -26.4980  -34.9960   22.5930 O   0  0  0  0  0  0  0  0  0  0  0  0
  -24.8300  -34.3700   25.1850 H   0  0  0  0  0  0  0  0  0  0  0  0
  -24.0400  -36.8870   23.0740 C   0  0  0  0  0  1  0  0  0  0  0  0
  -25.2740  -36.5720   23.9330 C   0  0  0  0  0  3  0  0  0  0  0  0
  -27.3820  -37.5560   24.7240 C   0  0  0  0  0  1  0  0  0  0  0  0
  -26.2880  -37.6350   23.7570 N   0  0  0  0  0  0  0  0  0  0  0  0
  -25.8610  -38.5530   23.8370 H   0  0  0  0  0  0  0  0  0  0  0  0
  -27.9380  -18.2800   19.3090 C   0  0  0  0  0  2  0  0  0  0  0  0
  -29.2460  -17.4860   19.5020 C   0  0  0  0  0  2  0  0  0  0  0  0
  -29.0350  -16.2910   20.4540 C   0  0  0  0  0  2  0  0  0  0  0  0
  -30.7840  -14.5710   20.1800 C   0  0  0  0  0  0  0  0  0  0  0  0
  -30.5950  -12.1930   19.5150 C   0  0  0  0  0  2  0  0  0  0  0  0
  -29.6640  -12.0200   18.2970 C   0  0  0  0  0  2  0  0  0  0  0  0
  -28.1940  -11.8840   18.7430 C   0  0  0  0  0  2  0  0  0  0  0  0
  -27.7810  -12.9920   19.7380 C   0  0  0  0  0  3  0  0  0  0  0  0
  -28.8240  -13.1130   20.8790 C   0  0  0  0  0  2  0  0  0  0  0  0
  -30.1440  -13.3690   20.2760 N   0  0  0  0  0  0  0  0  0  0  0  0
  -31.8540  -14.6900   19.5670 O   0  0  0  0  0  0  0  0  0  0  0  0
  -30.2840  -15.6230   20.8860 N   0  0  0  0  0  0  0  0  0  0  0  0
  -25.4430  -13.7140   20.5370 C   0  0  0  0  0  0  0  0  0  0  0  0
  -24.3530  -12.9870   20.9320 C   0  0  0  0  0  0  0  0  0  0  0  0
  -24.7500  -11.6160   20.8670 C   0  0  0  0  0  0  0  0  0  0  0  0
  -26.4350  -12.7860   20.2580 N   0  0  0  0  0  0  0  0  0  0  0  0
  -26.0240  -11.5180   20.5170 N   0  0  0  0  0  0  0  0  0  0  0  0
  -23.9750  -10.3850   21.0610 C   0  0  0  0  0  0  0  0  0  0  0  0
  -24.3980   -9.3800   21.9580 C   0  0  0  0  0  3  0  0  0  0  0  0
  -23.6290   -8.2120   22.1390 C   0  0  0  0  0  3  0  0  0  0  0  0
  -22.4170   -8.0440   21.4270 C   0  0  0  0  0  0  0  0  0  0  0  0
  -22.0120   -9.0370   20.5180 C   0  0  0  0  0  3  0  0  0  0  0  0
  -22.7830  -10.1960   20.3340 C   0  0  0  0  0  3  0  0  0  0  0  0
  -21.6140   -6.9330   21.5210 O   0  0  0  0  0  0  0  0  0  0  0  0
  -21.5960   -6.1560   22.6500 C   0  0  0  0  0  0  0  0  0  0  0  0
  -21.2580   -6.6860   23.9140 C   0  0  0  0  0  3  0  0  0  0  0  0
  -21.1820   -5.8340   25.0350 C   0  0  0  0  0  3  0  0  0  0  0  0
  -21.4320   -4.4560   24.8920 C   0  0  0  0  0  0  0  0  0  0  0  0
  -21.7650   -3.9270   23.6320 C   0  0  0  0  0  3  0  0  0  0  0  0
  -21.8420   -4.7750   22.5140 C   0  0  0  0  0  0  0  0  0  0  0  0
  -22.1410   -4.2570   21.2980 F   0  0  0  0  0  0  0  0  0  0  0  0
  -21.3510   -3.6380   25.9680 F   0  0  0  0  0  0  0  0  0  0  0  0
  -22.9880  -13.5200   21.2520 C   0  0  0  0  0  0  0  0  0  0  0  0
  -22.2590  -12.8420   22.1330 N   0  0  0  0  0  0  0  0  0  0  0  0
  -22.5790  -14.5710   20.7600 O   0  0  0  0  0  0  0  0  0  0  0  0
  -22.6040  -11.9960   22.5600 H   0  0  0  0  0  0  0  0  0  0  0  0
  -21.3470  -13.1830   22.3950 H   0  0  0  0  0  0  0  0  0  0  0  0
  -25.6640  -15.0760   20.3670 N   0  0  0  0  0  0  0  0  0  0  0  0
  -24.9260  -15.7590   20.4960 H   0  0  0  0  0  0  0  0  0  0  0  0
  -26.5140  -15.4660   19.9870 H   0  0  0  0  0  0  0  0  0  0  0  0
  -31.2410  -16.5290   21.5600 C   0  0  0  0  0  2  0  0  0  0  0  0
  -31.5960  -18.5530   23.1160 C   0  0  0  0  0  1  0  0  0  0  0  0
  -30.5830  -17.6210   22.4340 C   0  0  0  0  0  2  0  0  0  0  0  0
  2  1  1  0
  2 10  1  0
  3 54  1  0
  3  1  2  0
  4  2  2  0
  5  3  1  0
  6  4  1  0
  7  5  2  0
  7  4  1  0
  8  9  1  0
  9  5  1  0
 11 10  1  0
 11 12  1  0
 13 12  1  0
 14 25  2  0
 15 13  1  0
 15 20  1  0
 16 24  1  0
 16 26  1  0
 17 19  1  0
 18 24  1  0
 19 20  2  0
 19 18  1  0
 21 15  2  0
 22 21  1  0
 22 17  2  0
 23 17  1  0
 23 16  1  0
 24 14  1  0
 26 28  2  0
 27 26  1  0
 29 27  1  0
 30 39  2  0
 30 35  1  0
 31 27  1  0
 32 31  1  0
 33 34  1  0
 33 32  1  0
 34 30  1  0
 35 31  1  0
 35 36  2  0
 36 37  1  0
 38 37  2  0
 39 38  1  0
 40 14  1  0
 40 45  1  0
 40 41  1  0
 41 44  1  1
 41 42  1  0
 43 41  1  0
 45 48  1  0
 46 50  1  0
 46 45  1  0
 47 46  2  0
 50 49  1  0
 52 53  1  0
 52 50  1  0
 52 51  1  0
 54 55  1  0
 55 56  1  0
 56 65  1  0
 57 63  1  0
 57 65  1  0
 58 63  1  0
 59 60  1  0
 59 58  1  0
 61 60  1  0
 61 69  1  0
 61 62  1  0
 63 62  1  0
 64 57  2  0
 65 94  1  0
 66 67  2  0
 67 86  1  0
 68 67  1  0
 68 71  1  0
 69 70  1  0
 69 66  1  0
 70 68  2  0
 71 72  1  0
 72 73  2  0
 74 77  1  0
 74 73  1  0
 75 74  2  0
 76 75  1  0
 76 71  2  0
 77 78  1  0
 78 79  1  0
 79 80  2  0
 81 80  1  0
 81 85  1  0
 82 81  2  0
 83 78  2  0
 83 82  1  0
 84 83  1  0
 86 87  1  0
 87 90  1  0
 87 89  1  0
 88 86  2  0
 91 92  1  0
 91 66  1  0
 93 91  1  0
 94 96  1  0
 96 95  1  0
M  ISO  4  12 101  13 101  57 100  65 100
M  END
>  <TORSDO>  (42) 
F 25

>  <SCORE>  (42) 
-10.946

>  <name>  (42) 
42

>  <ligand_id>  (42) 
42

>  <original_smiles>  (42) 
[H]c1c([H])c([H])c2c(c1[H])C([H])([H])C([H])([H])C([H])([H])C2([H])N([H])C(=O)C1([H])N(C(=O)C([H])(N([H])C(=O)C([H])(N([H])C([H])([H])[H])C([H])([H])[H])C(C([H])([H])[H])(C([H])([H])[H])C([H])([H])[H])C([H])([H])c2c([H])c(OC([H])([H])C([H])([H])C([H])([H])c3c(C([H])([H])[H])nc(C([H])([H])C([H])([H])[H])c(C([H])([H])C([H])([H])C([H])([H])N(C(=O)N4C([H])([H])C([H])([H])C([H])([H])C([H])(n5nc(-c6c([H])c([H])c(Oc7c([H])c([H])c(F)c([H])c7F)c([H])c6[H])c(C(=O)N([H])[H])c5N([H])[H])C4([H])[H])C([H])([H])C([H])([H])C([H])([H])[H])c3[H])c([H])c([H])c2C1([H])[H]

>  <smiles>  (42) 
[H]c1c([H])c([H])c2c(c1[H])C([H])([H])C([H])([H])C([H])([H])C2([H])N([H])C(=O)C1([H])N(C(=O)C([H])(N([H])C(=O)C([H])(N([H])C([H])([H])[H])C([H])([H])[H])C(C([H])([H])[H])(C([H])([H])[H])C([H])([H])[H])C([H])([H])c2c([H])c(OC([H])([H])C([H])([H])C([H])([H])c3c(C([H])([H])[H])nc(C([H])([H])C([H])([H])[H])c(C([H])([H])C([H])([H])C([H])([H])N(C(=O)N4C([H])([H])C([H])([H])C([H])([H])C([H])(n5nc(-c6c([H])c([H])c(Oc7c([H])c([H])c(F)c([H])c7F)c([H])c6[H])c(C(=O)N([H])[H])c5N([H])[H])C4([H])[H])C([H])([H])C([H])([H])C([H])([H])[H])c3[H])c([H])c([H])c2C1([H])[H]

$$$$
43:0:0
     RDKit          3D

 93101  0  0  1  0  0  0  0  0999 V2000
  -30.1390  -23.1700   21.0960 C   0  0  0  0  0  3  0  0  0  0  0  0
  -31.0020  -22.0700   21.0490 C   0  0  0  0  0  0  0  0  0  0  0  0
  -28.8010  -22.9640   20.7360 C   0  0  0  0  0  0  0  0  0  0  0  0
  -29.2780  -20.7200   20.3540 C   0  0  0  0  0  0  0  0  0  0  0  0
  -30.5640  -20.8580   20.6610 N   0  0  0  0  0  0  0  0  0  0  0  0
  -28.3770  -21.7180   20.3740 N   0  0  0  0  0  0  0  0  0  0  0  0
  -32.4810  -22.1990   21.3710 C   0  0  0  0  0  2  0  0  0  0  0  0
  -33.3210  -23.4610   19.2820 C   0  0  0  0  0  1  0  0  0  0  0  0
  -33.3830  -22.1790   20.1240 C   0  0  0  0  0  2  0  0  0  0  0  0
  -27.8060  -24.1420   20.7880 C   0  0  0  0  0  2  0  0  0  0  0  0
  -28.0380  -25.2890   19.7500 C   0  0  0  0  0  2  0  0  0  0  0  0
  -28.0310  -26.6400   20.2760 O   0  0  0  0  0  0  0  0  0  0  0  0
  -24.5460  -32.0320   23.3910 C   0  0  0  0  0  0  0  0  0  0  0  0
  -26.8740  -27.4050   20.2910 C   0  0  0  0  0  0  0  0  0  0  0  0
  -23.2250  -30.6690   21.8080 C   0  0  0  0  0  3  0  0  0  0  0  0
  -24.5540  -29.0440   20.3610 C   0  0  0  0  0  0  0  0  0  0  0  0
  -25.7610  -30.8960   21.5310 C   0  0  0  0  0  2  0  0  0  0  0  0
  -25.7570  -29.5140   20.9030 C   0  0  0  0  0  0  0  0  0  0  0  0
  -26.9150  -28.7020   20.8630 C   0  0  0  0  0  3  0  0  0  0  0  0
  -25.6440  -26.9480   19.7650 C   0  0  0  0  0  3  0  0  0  0  0  0
  -24.4950  -27.7610   19.7920 C   0  0  0  0  0  3  0  0  0  0  0  0
  -23.3590  -29.9670   20.4310 C   0  0  0  0  0  2  0  0  0  0  0  0
  -24.5310  -31.2170   22.2990 N   0  0  0  0  0  0  0  0  0  0  0  0
  -23.4950  -32.3580   23.9610 O   0  0  0  0  0  0  0  0  0  0  0  0
  -22.5590  -29.6890   22.8010 C   0  0  0  0  0  0  0  0  0  0  0  0
  -21.2490  -29.4540   22.6240 N   0  0  0  0  0  0  0  0  0  0  0  0
  -23.2210  -29.1390   23.6850 O   0  0  0  0  0  0  0  0  0  0  0  0
  -20.7760  -29.9490   21.8800 H   0  0  0  0  0  0  0  0  0  0  0  0
  -17.9270  -28.0640   22.9420 C   0  0  0  0  0  0  0  0  0  0  0  0
  -20.4230  -28.5400   23.4130 C   0  0  0  0  0  3  0  0  0  0  0  0
  -20.6740  -27.0680   23.0080 C   0  0  0  0  0  2  0  0  0  0  0  0
  -19.7010  -26.5630   21.9400 C   0  0  0  0  0  2  0  0  0  0  0  0
  -18.2560  -26.6700   22.4360 C   0  0  0  0  0  2  0  0  0  0  0  0
  -18.9460  -28.9480   23.3850 C   0  0  0  0  0  0  0  0  0  0  0  0
  -18.5870  -30.2460   23.8100 C   0  0  0  0  0  3  0  0  0  0  0  0
  -17.2410  -30.6600   23.8010 C   0  0  0  0  0  3  0  0  0  0  0  0
  -16.2370  -29.7750   23.3740 C   0  0  0  0  0  3  0  0  0  0  0  0
  -16.5800  -28.4800   22.9500 C   0  0  0  0  0  3  0  0  0  0  0  0
  -25.8780  -32.6110   23.9630 C   0  0  0  0  0  3  0  0  0  0  0  0
  -25.6470  -34.0290   24.2740 N   0  0  0  0  0  0  0  0  0  0  0  0
  -26.0050  -35.0500   23.4850 C   0  0  0  0  0  0  0  0  0  0  0  0
  -26.6370  -34.8950   22.4360 O   0  0  0  0  0  0  0  0  0  0  0  0
  -25.0940  -34.2260   25.0950 H   0  0  0  0  0  0  0  0  0  0  0  0
  -24.3540  -36.9140   23.1420 C   0  0  0  0  0  1  0  0  0  0  0  0
  -25.5970  -36.4680   23.9270 C   0  0  0  0  0  3  0  0  0  0  0  0
  -27.7930  -37.2670   24.6820 C   0  0  0  0  0  1  0  0  0  0  0  0
  -26.6750  -37.4690   23.7630 N   0  0  0  0  0  0  0  0  0  0  0  0
  -26.3180  -38.4100   23.9010 H   0  0  0  0  0  0  0  0  0  0  0  0
  -26.3960  -31.8420   25.2390 C   0  0  1  0  0  0  0  0  0  0  0  0
  -25.3200  -31.6570   26.3340 C   0  0  0  0  0  1  0  0  0  0  0  0
  -26.9270  -30.4410   24.8530 C   0  0  0  0  0  1  0  0  0  0  0  0
  -27.5860  -32.6080   25.8650 C   0  0  0  0  0  1  0  0  0  0  0  0
  -28.8780  -19.3400   19.7960 C   0  0  0  0  0  2  0  0  0  0  0  0
  -29.0300  -18.0910   20.7310 C   0  0  0  0  0  2  0  0  0  0  0  0
  -29.5690  -16.8430   19.9600 C   0  0  0  0  0  2  0  0  0  0  0  0
  -30.1850  -14.4560   20.3570 C   0  0  0  0  0  0  0  0  0  0  0  0
  -30.0010  -12.2230   19.3450 C   0  0  0  0  0  2  0  0  0  0  0  0
  -29.0040  -12.3160   18.1690 C   0  0  0  0  0  2  0  0  0  0  0  0
  -27.5610  -12.0930   18.6640 C   0  0  0  0  0  2  0  0  0  0  0  0
  -27.2110  -12.9470   19.9150 C   0  0  0  0  0  3  0  0  0  0  0  0
  -28.3250  -12.8650   20.9840 C   0  0  0  0  0  2  0  0  0  0  0  0
  -29.5960  -13.2290   20.3410 N   0  0  0  0  0  0  0  0  0  0  0  0
  -31.3250  -14.6410   19.9240 O   0  0  0  0  0  0  0  0  0  0  0  0
  -29.3660  -15.5100   20.5840 N   0  0  0  0  0  0  0  0  0  0  0  0
  -28.4360  -15.2890   20.9110 H   0  0  0  0  0  0  0  0  0  0  0  0
  -24.8330  -13.4040   20.7800 C   0  0  0  0  0  0  0  0  0  0  0  0
  -23.8270  -12.5640   21.1820 C   0  0  0  0  0  0  0  0  0  0  0  0
  -24.3540  -11.2420   21.0800 C   0  0  0  0  0  0  0  0  0  0  0  0
  -25.9060  -12.5860   20.4610 N   0  0  0  0  0  0  0  0  0  0  0  0
  -25.6260  -11.2800   20.7020 N   0  0  0  0  0  0  0  0  0  0  0  0
  -23.7030   -9.9390   21.2660 C   0  0  0  0  0  0  0  0  0  0  0  0
  -24.1920   -8.9930   22.1940 C   0  0  0  0  0  3  0  0  0  0  0  0
  -23.5370   -7.7530   22.3670 C   0  0  0  0  0  3  0  0  0  0  0  0
  -22.3790   -7.4510   21.6120 C   0  0  0  0  0  0  0  0  0  0  0  0
  -21.9100   -8.3860   20.6720 C   0  0  0  0  0  3  0  0  0  0  0  0
  -22.5660   -9.6170   20.4970 C   0  0  0  0  0  3  0  0  0  0  0  0
  -21.6920   -6.2640   21.6960 O   0  0  0  0  0  0  0  0  0  0  0  0
  -21.6530   -5.5350   22.8580 C   0  0  0  0  0  0  0  0  0  0  0  0
  -21.1320   -6.0710   24.0560 C   0  0  0  0  0  3  0  0  0  0  0  0
  -21.0480   -5.2660   25.2090 C   0  0  0  0  0  3  0  0  0  0  0  0
  -21.4720   -3.9240   25.1650 C   0  0  0  0  0  0  0  0  0  0  0  0
  -21.9840   -3.3860   23.9710 C   0  0  0  0  0  3  0  0  0  0  0  0
  -22.0720   -4.1900   22.8200 C   0  0  0  0  0  0  0  0  0  0  0  0
  -22.5490   -3.6610   21.6670 F   0  0  0  0  0  0  0  0  0  0  0  0
  -21.3820   -3.1480   26.2700 F   0  0  0  0  0  0  0  0  0  0  0  0
  -22.4240  -12.9610   21.5420 C   0  0  0  0  0  0  0  0  0  0  0  0
  -21.7780  -12.2040   22.4230 N   0  0  0  0  0  0  0  0  0  0  0  0
  -21.9100  -13.9780   21.0800 O   0  0  0  0  0  0  0  0  0  0  0  0
  -22.2070  -11.3820   22.8220 H   0  0  0  0  0  0  0  0  0  0  0  0
  -20.8390  -12.4510   22.7040 H   0  0  0  0  0  0  0  0  0  0  0  0
  -24.9190  -14.7850   20.6420 N   0  0  0  0  0  0  0  0  0  0  0  0
  -24.1310  -15.3930   20.8350 H   0  0  0  0  0  0  0  0  0  0  0  0
  -25.7170  -15.2800   20.2650 H   0  0  0  0  0  0  0  0  0  0  0  0
  2  1  2  0
  2  7  1  0
  3 10  1  0
  3  1  1  0
  4  6  1  0
  4  5  2  0
  5  2  1  0
  6  3  2  0
  8  9  1  0
  9  7  1  0
 11 12  1  0
 11 10  1  0
 12 14  1  0
 13 24  2  0
 14 19  1  0
 15 23  1  0
 15 25  1  0
 16 22  1  0
 16 18  1  0
 17 23  1  0
 18 17  1  0
 19 18  2  0
 20 21  1  0
 20 14  2  0
 21 16  2  0
 22 15  1  0
 23 13  1  0
 25 27  2  0
 26 25  1  0
 28 26  1  0
 29 38  2  0
 29 34  1  0
 30 26  1  0
 31 30  1  0
 32 33  1  0
 32 31  1  0
 33 29  1  0
 34 30  1  0
 34 35  2  0
 36 35  1  0
 37 36  2  0
 38 37  1  0
 39 13  1  0
 39 40  1  0
 39 49  1  0
 40 43  1  0
 41 45  1  0
 41 40  1  0
 42 41  2  0
 45 44  1  0
 47 48  1  0
 47 45  1  0
 47 46  1  0
 49 52  1  1
 49 50  1  0
 51 49  1  0
 53  4  1  0
 53 54  1  0
 55 64  1  0
 55 54  1  0
 56 64  1  0
 57 62  1  0
 58 59  1  0
 58 57  1  0
 60 59  1  0
 60 69  1  0
 60 61  1  0
 62 56  1  0
 62 61  1  0
 63 56  2  0
 64 65  1  0
 66 67  2  0
 67 86  1  0
 68 67  1  0
 68 71  1  0
 69 70  1  0
 69 66  1  0
 70 68  2  0
 71 72  1  0
 72 73  2  0
 74 77  1  0
 74 73  1  0
 75 74  2  0
 76 75  1  0
 76 71  2  0
 77 78  1  0
 78 79  1  0
 79 80  2  0
 81 80  1  0
 81 85  1  0
 82 81  2  0
 83 78  2  0
 83 82  1  0
 84 83  1  0
 86 87  1  0
 87 90  1  0
 87 89  1  0
 88 86  2  0
 91 66  1  0
 91 92  1  0
 93 91  1  0
M  ISO  4  11 101  12 101  56 100  64 100
M  END
>  <TORSDO>  (43) 
F 23

>  <SCORE>  (43) 
-11.496

>  <name>  (43) 
43

>  <ligand_id>  (43) 
43

>  <original_smiles>  (43) 
[H]c1c(C([H])([H])C([H])([H])Oc2c([H])c([H])c3c(c2[H])C([H])([H])N(C(=O)C([H])(N([H])C(=O)C([H])(N([H])C([H])([H])[H])C([H])([H])[H])C(C([H])([H])[H])(C([H])([H])[H])C([H])([H])[H])C([H])(C(=O)N([H])C2([H])c4c([H])c([H])c([H])c([H])c4C([H])([H])C([H])([H])C2([H])[H])C3([H])[H])nc(C([H])([H])C([H])([H])C([H])([H])N([H])C(=O)N2C([H])([H])C([H])([H])C([H])([H])C([H])(n3nc(-c4c([H])c([H])c(Oc5c([H])c([H])c(F)c([H])c5F)c([H])c4[H])c(C(=O)N([H])[H])c3N([H])[H])C2([H])[H])nc1C([H])([H])C([H])([H])C([H])([H])[H]

>  <smiles>  (43) 
[H]c1c(C([H])([H])C([H])([H])Oc2c([H])c([H])c3c(c2[H])C([H])([H])N(C(=O)C([H])(N([H])C(=O)C([H])(N([H])C([H])([H])[H])C([H])([H])[H])C(C([H])([H])[H])(C([H])([H])[H])C([H])([H])[H])C([H])(C(=O)N([H])C2([H])c4c([H])c([H])c([H])c([H])c4C([H])([H])C([H])([H])C2([H])[H])C3([H])[H])nc(C([H])([H])C([H])([H])C([H])([H])N([H])C(=O)N2C([H])([H])C([H])([H])C([H])([H])C([H])(n3nc(-c4c([H])c([H])c(Oc5c([H])c([H])c(F)c([H])c5F)c([H])c4[H])c(C(=O)N([H])[H])c3N([H])[H])C2([H])[H])nc1C([H])([H])C([H])([H])C([H])([H])[H]

$$$$
44:0:0
     RDKit          3D

 90 98  0  0  1  0  0  0  0  0999 V2000
  -30.5100  -21.4120   19.5450 C   0  0  0  0  0  3  0  0  0  0  0  0
  -29.6430  -20.8760   20.5360 C   0  0  0  0  0  0  0  0  0  0  0  0
  -30.0100  -22.6490   19.2380 C   0  0  0  0  0  0  0  0  0  0  0  0
  -30.5100  -23.6570   18.2540 C   0  0  0  0  0  1  0  0  0  0  0  0
  -28.6580  -21.7540   20.8060 N   0  0  0  0  0  0  0  0  0  0  0  0
  -28.8890  -22.8610   20.0240 N   0  0  0  0  0  0  0  0  0  0  0  0
  -29.8370  -19.5580   21.3080 C   0  0  0  0  0  2  0  0  0  0  0  0
  -29.6300  -18.1890   20.5540 C   0  0  0  0  0  2  0  0  0  0  0  0
  -30.3100  -16.9630   21.2780 C   0  0  0  0  0  2  0  0  0  0  0  0
  -30.6140  -14.5470   20.4480 C   0  0  0  0  0  0  0  0  0  0  0  0
  -30.3490  -12.3610   19.3060 C   0  0  0  0  0  2  0  0  0  0  0  0
  -29.3960  -12.5330   18.1040 C   0  0  0  0  0  2  0  0  0  0  0  0
  -27.9260  -12.3880   18.5460 C   0  0  0  0  0  2  0  0  0  0  0  0
  -27.5910  -13.2380   19.8020 C   0  0  0  0  0  3  0  0  0  0  0  0
  -28.6500  -13.0360   20.9070 C   0  0  0  0  0  2  0  0  0  0  0  0
  -29.9610  -13.3560   20.3230 N   0  0  0  0  0  0  0  0  0  0  0  0
  -31.7700  -14.7080   20.0480 O   0  0  0  0  0  0  0  0  0  0  0  0
  -29.8670  -15.5890   20.9030 N   0  0  0  0  0  0  0  0  0  0  0  0
  -28.9130  -15.3560   21.1370 H   0  0  0  0  0  0  0  0  0  0  0  0
  -25.2000  -13.8570   20.5140 C   0  0  0  0  0  0  0  0  0  0  0  0
  -24.1300  -13.0930   20.8880 C   0  0  0  0  0  0  0  0  0  0  0  0
  -24.5840  -11.7390   20.8630 C   0  0  0  0  0  0  0  0  0  0  0  0
  -26.2400  -12.9700   20.2850 N   0  0  0  0  0  0  0  0  0  0  0  0
  -25.8740  -11.6910   20.5540 N   0  0  0  0  0  0  0  0  0  0  0  0
  -23.8510  -10.4820   21.0610 C   0  0  0  0  0  0  0  0  0  0  0  0
  -24.2920   -9.5080   21.9820 C   0  0  0  0  0  3  0  0  0  0  0  0
  -23.5600   -8.3150   22.1660 C   0  0  0  0  0  3  0  0  0  0  0  0
  -22.3730   -8.0900   21.4300 C   0  0  0  0  0  0  0  0  0  0  0  0
  -21.9510   -9.0540   20.4980 C   0  0  0  0  0  3  0  0  0  0  0  0
  -22.6820  -10.2390   20.3120 C   0  0  0  0  0  3  0  0  0  0  0  0
  -21.6100   -6.9510   21.5250 O   0  0  0  0  0  0  0  0  0  0  0  0
  -21.5910   -6.1930   22.6690 C   0  0  0  0  0  0  0  0  0  0  0  0
  -21.2220   -6.7360   23.9180 C   0  0  0  0  0  3  0  0  0  0  0  0
  -21.1470   -5.9040   25.0530 C   0  0  0  0  0  3  0  0  0  0  0  0
  -21.4320   -4.5300   24.9390 C   0  0  0  0  0  0  0  0  0  0  0  0
  -21.7950   -3.9870   23.6940 C   0  0  0  0  0  3  0  0  0  0  0  0
  -21.8720   -4.8160   22.5620 C   0  0  0  0  0  0  0  0  0  0  0  0
  -22.2020   -4.2830   21.3610 F   0  0  0  0  0  0  0  0  0  0  0  0
  -21.3530   -3.7290   26.0270 F   0  0  0  0  0  0  0  0  0  0  0  0
  -22.7360  -13.5810   21.1620 C   0  0  0  0  0  0  0  0  0  0  0  0
  -22.0070  -12.8940   22.0340 N   0  0  0  0  0  0  0  0  0  0  0  0
  -22.3030  -14.6060   20.6360 O   0  0  0  0  0  0  0  0  0  0  0  0
  -22.3690  -12.0660   22.4840 H   0  0  0  0  0  0  0  0  0  0  0  0
  -21.0710  -13.2030   22.2580 H   0  0  0  0  0  0  0  0  0  0  0  0
  -25.3700  -15.2270   20.3290 N   0  0  0  0  0  0  0  0  0  0  0  0
  -24.5950  -15.8740   20.4310 H   0  0  0  0  0  0  0  0  0  0  0  0
  -26.2090  -15.6650   19.9730 H   0  0  0  0  0  0  0  0  0  0  0  0
  -27.9730  -24.0370   20.0010 C   0  0  0  0  0  2  0  0  0  0  0  0
  -28.4420  -25.3120   20.7920 C   0  0  0  0  0  2  0  0  0  0  0  0
  -28.4000  -26.6160   20.1370 O   0  0  0  0  0  0  0  0  0  0  0  0
  -24.6030  -31.8720   23.2370 C   0  0  0  0  0  0  0  0  0  0  0  0
  -27.2320  -27.3640   20.1910 C   0  0  0  0  0  0  0  0  0  0  0  0
  -23.3970  -30.4630   21.6030 C   0  0  0  0  0  3  0  0  0  0  0  0
  -24.8470  -28.9080   20.1900 C   0  0  0  0  0  0  0  0  0  0  0  0
  -25.9260  -30.8080   21.4030 C   0  0  0  0  0  2  0  0  0  0  0  0
  -26.0100  -29.4290   20.7700 C   0  0  0  0  0  0  0  0  0  0  0  0
  -27.2080  -28.6680   20.7570 C   0  0  0  0  0  3  0  0  0  0  0  0
  -26.0480  -26.8660   19.6120 C   0  0  0  0  0  3  0  0  0  0  0  0
  -24.8630  -27.6290   19.6060 C   0  0  0  0  0  3  0  0  0  0  0  0
  -23.6080  -29.7760   20.2270 C   0  0  0  0  0  2  0  0  0  0  0  0
  -24.6600  -31.0640   22.1390 N   0  0  0  0  0  0  0  0  0  0  0  0
  -23.5210  -32.1470   23.7750 O   0  0  0  0  0  0  0  0  0  0  0  0
  -22.7410  -29.4480   22.5680 C   0  0  0  0  0  0  0  0  0  0  0  0
  -21.4160  -29.2700   22.4440 N   0  0  0  0  0  0  0  0  0  0  0  0
  -23.4230  -28.8240   23.3850 O   0  0  0  0  0  0  0  0  0  0  0  0
  -20.9240  -29.8270   21.7590 H   0  0  0  0  0  0  0  0  0  0  0  0
  -18.0400  -28.0760   22.9480 C   0  0  0  0  0  0  0  0  0  0  0  0
  -20.5980  -28.3340   23.2180 C   0  0  0  0  0  3  0  0  0  0  0  0
  -20.6990  -26.9020   22.6470 C   0  0  0  0  0  2  0  0  0  0  0  0
  -19.5970  -26.5740   21.6350 C   0  0  0  0  0  2  0  0  0  0  0  0
  -18.2170  -26.7240   22.2780 C   0  0  0  0  0  2  0  0  0  0  0  0
  -19.1600  -28.8390   23.3750 C   0  0  0  0  0  0  0  0  0  0  0  0
  -18.9420  -30.1050   23.9610 C   0  0  0  0  0  3  0  0  0  0  0  0
  -17.6370  -30.6080   24.1240 C   0  0  0  0  0  3  0  0  0  0  0  0
  -16.5330  -29.8420   23.7140 C   0  0  0  0  0  3  0  0  0  0  0  0
  -16.7350  -28.5780   23.1310 C   0  0  0  0  0  3  0  0  0  0  0  0
  -25.8890  -32.5050   23.8550 C   0  0  0  0  0  3  0  0  0  0  0  0
  -25.5780  -33.9030   24.1860 N   0  0  0  0  0  0  0  0  0  0  0  0
  -25.9030  -34.9540   23.4240 C   0  0  0  0  0  0  0  0  0  0  0  0
  -26.5680  -34.8510   22.3880 O   0  0  0  0  0  0  0  0  0  0  0  0
  -24.9870  -34.0570   24.9900 H   0  0  0  0  0  0  0  0  0  0  0  0
  -24.1650  -36.7410   23.0830 C   0  0  0  0  0  1  0  0  0  0  0  0
  -25.4160  -36.3420   23.8830 C   0  0  0  0  0  3  0  0  0  0  0  0
  -27.5550  -37.2350   24.6930 C   0  0  0  0  0  1  0  0  0  0  0  0
  -26.4430  -37.3980   23.7600 N   0  0  0  0  0  0  0  0  0  0  0  0
  -26.0340  -38.3160   23.9140 H   0  0  0  0  0  0  0  0  0  0  0  0
  -26.4130  -31.7330   25.1290 C   0  0  1  0  0  0  0  0  0  0  0  0
  -25.3260  -31.4960   26.2030 C   0  0  0  0  0  1  0  0  0  0  0  0
  -26.9950  -30.3560   24.7320 C   0  0  0  0  0  1  0  0  0  0  0  0
  -27.5650  -32.5290   25.7860 C   0  0  0  0  0  1  0  0  0  0  0  0
  1  2  1  0
  2  5  2  0
  2  7  1  0
  3  1  2  0
  3  6  1  0
  4  3  1  0
  6  5  1  0
  8  9  1  0
  8  7  1  0
 10 18  1  0
 11 16  1  0
 12 13  1  0
 12 11  1  0
 14 13  1  0
 14 23  1  0
 14 15  1  0
 16 10  1  0
 16 15  1  0
 17 10  2  0
 18 19  1  0
 18  9  1  0
 20 21  2  0
 21 40  1  0
 22 21  1  0
 22 25  1  0
 23 20  1  0
 23 24  1  0
 24 22  2  0
 25 26  1  0
 26 27  2  0
 28 31  1  0
 28 27  1  0
 29 28  2  0
 30 29  1  0
 30 25  2  0
 31 32  1  0
 32 33  1  0
 33 34  2  0
 35 34  1  0
 35 39  1  0
 36 35  2  0
 37 32  2  0
 37 36  1  0
 38 37  1  0
 40 41  1  0
 41 44  1  0
 41 43  1  0
 42 40  2  0
 45 46  1  0
 45 20  1  0
 47 45  1  0
 48  6  1  0
 48 49  1  0
 50 52  1  0
 50 49  1  0
 51 62  2  0
 52 57  1  0
 53 61  1  0
 53 63  1  0
 54 60  1  0
 54 56  1  0
 55 61  1  0
 56 55  1  0
 57 56  2  0
 58 52  2  0
 59 58  1  0
 59 54  2  0
 60 53  1  0
 61 51  1  0
 63 65  2  0
 64 63  1  0
 66 64  1  0
 67 76  2  0
 67 72  1  0
 68 64  1  0
 68 72  1  0
 69 68  1  0
 70 71  1  0
 70 69  1  0
 71 67  1  0
 72 73  2  0
 73 74  1  0
 75 74  2  0
 76 75  1  0
 77 51  1  0
 77 78  1  0
 77 87  1  0
 78 81  1  0
 79 83  1  0
 79 78  1  0
 80 79  2  0
 83 82  1  0
 85 83  1  0
 85 86  1  0
 85 84  1  0
 87 90  1  1
 87 88  1  0
 89 87  1  0
M  ISO  4  10 100  18 100  49 101  50 101
M  END
>  <TORSDO>  (44) 
F 21

>  <SCORE>  (44) 
-13.330

>  <name>  (44) 
44

>  <ligand_id>  (44) 
44

>  <original_smiles>  (44) 
[H]c1c([H])c([H])c2c(c1[H])C([H])([H])C([H])([H])C([H])([H])C2([H])N([H])C(=O)C1([H])N(C(=O)C([H])(N([H])C(=O)C([H])(N([H])C([H])([H])[H])C([H])([H])[H])C(C([H])([H])[H])(C([H])([H])[H])C([H])([H])[H])C([H])([H])c2c([H])c(OC([H])([H])C([H])([H])n3nc(C([H])([H])C([H])([H])C([H])([H])N([H])C(=O)N4C([H])([H])C([H])([H])C([H])([H])C([H])(n5nc(-c6c([H])c([H])c(Oc7c([H])c([H])c(F)c([H])c7F)c([H])c6[H])c(C(=O)N([H])[H])c5N([H])[H])C4([H])[H])c([H])c3C([H])([H])[H])c([H])c([H])c2C1([H])[H]

>  <smiles>  (44) 
[H]c1c([H])c([H])c2c(c1[H])C([H])([H])C([H])([H])C([H])([H])C2([H])N([H])C(=O)C1([H])N(C(=O)C([H])(N([H])C(=O)C([H])(N([H])C([H])([H])[H])C([H])([H])[H])C(C([H])([H])[H])(C([H])([H])[H])C([H])([H])[H])C([H])([H])c2c([H])c(OC([H])([H])C([H])([H])n3nc(C([H])([H])C([H])([H])C([H])([H])N([H])C(=O)N4C([H])([H])C([H])([H])C([H])([H])C([H])(n5nc(-c6c([H])c([H])c(Oc7c([H])c([H])c(F)c([H])c7F)c([H])c6[H])c(C(=O)N([H])[H])c5N([H])[H])C4([H])[H])c([H])c3C([H])([H])[H])c([H])c([H])c2C1([H])[H]

$$$$
45:0:0
     RDKit          3D

 91 99  0  0  1  0  0  0  0  0999 V2000
  -27.6310  -22.1570   20.0810 C   0  0  0  0  0  3  0  0  0  0  0  0
  -28.0690  -20.7920   20.2090 C   0  0  0  0  0  0  0  0  0  0  0  0
  -28.5010  -23.2790   19.9190 C   0  0  0  0  0  0  0  0  0  0  0  0
  -29.4480  -20.4440   20.1880 C   0  0  0  0  0  0  0  0  0  0  0  0
  -29.8660  -22.8390   19.8610 C   0  0  0  0  0  0  0  0  0  0  0  0
  -27.0210  -19.7090   20.4080 C   0  0  0  0  0  1  0  0  0  0  0  0
  -30.3000  -21.5150   20.0120 N   0  0  0  0  0  0  0  0  0  0  0  0
  -31.6370  -24.3100   20.9200 C   0  0  0  0  0  1  0  0  0  0  0  0
  -30.9710  -23.8530   19.6180 C   0  0  0  0  0  2  0  0  0  0  0  0
  -27.8010  -24.7320   19.6060 C   0  0  0  0  0  2  0  0  0  0  0  0
  -28.1540  -26.1860   19.9740 O   0  0  0  0  0  0  0  0  0  0  0  0
  -24.4830  -31.7750   23.0390 C   0  0  0  0  0  0  0  0  0  0  0  0
  -27.1030  -27.1730   19.8980 C   0  0  0  0  0  0  0  0  0  0  0  0
  -23.2810  -30.3690   21.4120 C   0  0  0  0  0  3  0  0  0  0  0  0
  -24.7370  -28.8600   19.9360 C   0  0  0  0  0  0  0  0  0  0  0  0
  -25.8270  -30.6970   21.2040 C   0  0  0  0  0  2  0  0  0  0  0  0
  -25.9170  -29.3180   20.5350 C   0  0  0  0  0  0  0  0  0  0  0  0
  -27.0980  -28.4870   20.5120 C   0  0  0  0  0  3  0  0  0  0  0  0
  -25.8990  -26.8410   19.2260 C   0  0  0  0  0  3  0  0  0  0  0  0
  -24.7390  -27.6330   19.2670 C   0  0  0  0  0  3  0  0  0  0  0  0
  -23.4890  -29.7220   20.0200 C   0  0  0  0  0  2  0  0  0  0  0  0
  -24.5510  -30.9670   21.9390 N   0  0  0  0  0  0  0  0  0  0  0  0
  -23.4020  -32.0300   23.5910 O   0  0  0  0  0  0  0  0  0  0  0  0
  -22.6490  -29.3320   22.3730 C   0  0  0  0  0  0  0  0  0  0  0  0
  -21.3250  -29.1250   22.2650 N   0  0  0  0  0  0  0  0  0  0  0  0
  -23.3500  -28.7190   23.1820 O   0  0  0  0  0  0  0  0  0  0  0  0
  -20.8140  -29.6730   21.5860 H   0  0  0  0  0  0  0  0  0  0  0  0
  -17.9870  -27.8150   22.7890 C   0  0  0  0  0  0  0  0  0  0  0  0
  -20.5380  -28.1640   23.0430 C   0  0  0  0  0  3  0  0  0  0  0  0
  -20.6850  -26.7340   22.4720 C   0  0  0  0  0  2  0  0  0  0  0  0
  -19.5890  -26.3700   21.4650 C   0  0  0  0  0  2  0  0  0  0  0  0
  -18.2060  -26.4700   22.1160 C   0  0  0  0  0  2  0  0  0  0  0  0
  -19.0820  -28.6170   23.2090 C   0  0  0  0  0  0  0  0  0  0  0  0
  -18.8230  -29.8720   23.8010 C   0  0  0  0  0  3  0  0  0  0  0  0
  -17.5010  -30.3270   23.9740 C   0  0  0  0  0  3  0  0  0  0  0  0
  -16.4230  -29.5240   23.5680 C   0  0  0  0  0  3  0  0  0  0  0  0
  -16.6660  -28.2690   22.9810 C   0  0  0  0  0  3  0  0  0  0  0  0
  -25.7600  -32.4320   23.6450 C   0  0  0  0  0  3  0  0  0  0  0  0
  -26.3360  -31.6420   24.8840 C   0  0  1  0  0  0  0  0  0  0  0  0
  -25.2820  -31.3400   25.9750 C   0  0  0  0  0  1  0  0  0  0  0  0
  -26.9500  -30.2930   24.4410 C   0  0  0  0  0  1  0  0  0  0  0  0
  -27.4800  -32.4530   25.5360 C   0  0  0  0  0  1  0  0  0  0  0  0
  -25.4130  -33.8090   24.0310 N   0  0  0  0  0  0  0  0  0  0  0  0
  -25.7100  -34.9010   23.3150 C   0  0  0  0  0  0  0  0  0  0  0  0
  -26.3740  -34.8580   22.2760 O   0  0  0  0  0  0  0  0  0  0  0  0
  -24.8200  -33.9140   24.8410 H   0  0  0  0  0  0  0  0  0  0  0  0
  -23.9420  -36.6700   23.0370 C   0  0  0  0  0  1  0  0  0  0  0  0
  -25.1910  -36.2570   23.8330 C   0  0  0  0  0  3  0  0  0  0  0  0
  -27.3040  -37.1520   24.7080 C   0  0  0  0  0  1  0  0  0  0  0  0
  -26.2000  -37.3380   23.7710 N   0  0  0  0  0  0  0  0  0  0  0  0
  -25.7730  -38.2410   23.9580 H   0  0  0  0  0  0  0  0  0  0  0  0
  -29.9920  -18.9670   20.6510 C   0  0  0  0  0  2  0  0  0  0  0  0
  -30.1610  -17.5660   19.7640 C   0  0  0  0  0  2  0  0  0  0  0  0
  -30.8860  -14.9600   19.9580 C   0  0  0  0  0  0  0  0  0  0  0  0
  -30.6440  -12.6510   18.9530 C   0  0  0  0  0  2  0  0  0  0  0  0
  -29.6490  -12.6690   17.7690 C   0  0  0  0  0  2  0  0  0  0  0  0
  -28.2050  -12.4730   18.2660 C   0  0  0  0  0  2  0  0  0  0  0  0
  -27.8780  -13.3730   19.4850 C   0  0  0  0  0  3  0  0  0  0  0  0
  -28.9860  -13.3110   20.5560 C   0  0  0  0  0  2  0  0  0  0  0  0
  -30.2480  -13.7200   19.9160 N   0  0  0  0  0  0  0  0  0  0  0  0
  -31.9920  -15.0510   19.4140 O   0  0  0  0  0  0  0  0  0  0  0  0
  -29.9320  -16.1840   21.8490 C   0  0  0  0  0  1  0  0  0  0  0  0
  -30.2220  -16.1310   20.4120 N   0  0  0  0  0  0  0  0  0  0  0  0
  -25.5400  -13.9670   20.3490 C   0  0  0  0  0  0  0  0  0  0  0  0
  -24.4890  -13.1960   20.7630 C   0  0  0  0  0  0  0  0  0  0  0  0
  -24.9370  -11.8410   20.6890 C   0  0  0  0  0  0  0  0  0  0  0  0
  -26.5620  -13.0830   20.0420 N   0  0  0  0  0  0  0  0  0  0  0  0
  -26.2100  -11.7980   20.3100 N   0  0  0  0  0  0  0  0  0  0  0  0
  -24.2100  -10.5840   20.9020 C   0  0  0  0  0  0  0  0  0  0  0  0
  -24.6390   -9.6320   21.8540 C   0  0  0  0  0  3  0  0  0  0  0  0
  -23.9110   -8.4390   22.0530 C   0  0  0  0  0  3  0  0  0  0  0  0
  -22.7390   -8.1880   21.3000 C   0  0  0  0  0  0  0  0  0  0  0  0
  -22.3300   -9.1280   20.3370 C   0  0  0  0  0  3  0  0  0  0  0  0
  -23.0580  -10.3130   20.1360 C   0  0  0  0  0  3  0  0  0  0  0  0
  -21.9840   -7.0460   21.4060 O   0  0  0  0  0  0  0  0  0  0  0  0
  -21.8650   -6.3700   22.5940 C   0  0  0  0  0  0  0  0  0  0  0  0
  -21.3720   -6.9930   23.7600 C   0  0  0  0  0  3  0  0  0  0  0  0
  -21.2010   -6.2430   24.9400 C   0  0  0  0  0  3  0  0  0  0  0  0
  -21.5130   -4.8710   24.9550 C   0  0  0  0  0  0  0  0  0  0  0  0
  -22.0000   -4.2470   23.7930 C   0  0  0  0  0  3  0  0  0  0  0  0
  -22.1730   -4.9940   22.6150 C   0  0  0  0  0  0  0  0  0  0  0  0
  -22.6220   -4.3840   21.4920 F   0  0  0  0  0  0  0  0  0  0  0  0
  -21.3420   -4.1470   26.0870 F   0  0  0  0  0  0  0  0  0  0  0  0
  -23.1130  -13.6830   21.1160 C   0  0  0  0  0  0  0  0  0  0  0  0
  -22.4310  -12.9890   22.0210 N   0  0  0  0  0  0  0  0  0  0  0  0
  -22.6530  -14.7120   20.6240 O   0  0  0  0  0  0  0  0  0  0  0  0
  -22.8170  -12.1570   22.4410 H   0  0  0  0  0  0  0  0  0  0  0  0
  -21.5110  -13.2980   22.3010 H   0  0  0  0  0  0  0  0  0  0  0  0
  -25.7090  -15.3390   20.1860 N   0  0  0  0  0  0  0  0  0  0  0  0
  -24.9580  -15.9990   20.3510 H   0  0  0  0  0  0  0  0  0  0  0  0
  -26.5530  -15.7750   19.8390 H   0  0  0  0  0  0  0  0  0  0  0  0
  1  2  1  0
  2  6  1  0
  3  1  2  0
  4  2  2  0
  4 52  1  0
  5  3  1  0
  5  7  2  0
  7  4  1  0
  9  5  1  0
  9  8  1  0
 10  3  1  0
 10 11  1  0
 12 23  2  0
 13 11  1  0
 13 18  1  0
 14 22  1  0
 14 24  1  0
 15 21  1  0
 15 17  1  0
 16 22  1  0
 17 16  1  0
 18 17  2  0
 19 20  1  0
 19 13  2  0
 20 15  2  0
 21 14  1  0
 22 12  1  0
 24 26  2  0
 25 24  1  0
 27 25  1  0
 28 37  2  0
 28 33  1  0
 29 25  1  0
 29 33  1  0
 30 29  1  0
 31 32  1  0
 31 30  1  0
 32 28  1  0
 33 34  2  0
 34 35  1  0
 36 35  2  0
 37 36  1  0
 38 12  1  0
 38 43  1  0
 38 39  1  0
 39 42  1  1
 39 40  1  0
 41 39  1  0
 43 46  1  0
 44 48  1  0
 44 43  1  0
 45 44  2  0
 48 47  1  0
 50 48  1  0
 50 51  1  0
 50 49  1  0
 53 63  1  0
 53 52  1  0
 54 63  1  0
 55 60  1  0
 56 57  1  0
 56 55  1  0
 58 57  1  0
 58 67  1  0
 58 59  1  0
 60 54  1  0
 60 59  1  0
 61 54  2  0
 63 62  1  0
 64 65  2  0
 65 84  1  0
 66 65  1  0
 66 69  1  0
 67 68  1  0
 67 64  1  0
 68 66  2  0
 69 70  1  0
 70 71  2  0
 72 75  1  0
 72 71  1  0
 73 72  2  0
 74 73  1  0
 74 69  2  0
 75 76  1  0
 76 81  2  0
 76 77  1  0
 77 78  2  0
 78 79  1  0
 79 83  1  0
 80 79  2  0
 81 80  1  0
 82 81  1  0
 84 85  1  0
 85 88  1  0
 85 87  1  0
 86 84  2  0
 89 64  1  0
 89 90  1  0
 91 89  1  0
M  ISO  4  10 101  11 101  54 100  63 100
M  END
>  <TORSDO>  (45) 
F 20

>  <SCORE>  (45) 
-12.379

>  <name>  (45) 
45

>  <ligand_id>  (45) 
45

>  <original_smiles>  (45) 
[H]c1c([H])c([H])c2c(c1[H])C([H])([H])C([H])([H])C([H])([H])C2([H])N([H])C(=O)C1([H])N(C(=O)C([H])(N([H])C(=O)C([H])(N([H])C([H])([H])[H])C([H])([H])[H])C(C([H])([H])[H])(C([H])([H])[H])C([H])([H])[H])C([H])([H])c2c([H])c(OC([H])([H])c3c(C([H])([H])C([H])([H])[H])nc(C([H])([H])C([H])([H])N(C(=O)N4C([H])([H])C([H])([H])C([H])([H])C([H])(n5nc(-c6c([H])c([H])c(Oc7c([H])c([H])c(F)c([H])c7F)c([H])c6[H])c(C(=O)N([H])[H])c5N([H])[H])C4([H])[H])C([H])([H])[H])c(C([H])([H])[H])c3[H])c([H])c([H])c2C1([H])[H]

>  <smiles>  (45) 
[H]c1c([H])c([H])c2c(c1[H])C([H])([H])C([H])([H])C([H])([H])C2([H])N([H])C(=O)C1([H])N(C(=O)C([H])(N([H])C(=O)C([H])(N([H])C([H])([H])[H])C([H])([H])[H])C(C([H])([H])[H])(C([H])([H])[H])C([H])([H])[H])C([H])([H])c2c([H])c(OC([H])([H])c3c(C([H])([H])C([H])([H])[H])nc(C([H])([H])C([H])([H])N(C(=O)N4C([H])([H])C([H])([H])C([H])([H])C([H])(n5nc(-c6c([H])c([H])c(Oc7c([H])c([H])c(F)c([H])c7F)c([H])c6[H])c(C(=O)N([H])[H])c5N([H])[H])C4([H])[H])C([H])([H])[H])c(C([H])([H])[H])c3[H])c([H])c([H])c2C1([H])[H]

$$$$
46:0:0
     RDKit          3D

 93101  0  0  1  0  0  0  0  0999 V2000
  -29.1830  -23.5990   21.1900 C   0  0  0  0  0  3  0  0  0  0  0  0
  -28.9620  -21.6310   19.2940 C   0  0  0  0  0  3  0  0  0  0  0  0
  -29.6360  -22.2750   21.5040 C   0  0  0  0  0  0  0  0  0  0  0  0
  -29.5770  -21.2500   20.5040 C   0  0  0  0  0  0  0  0  0  0  0  0
  -28.6640  -23.8970   19.9100 C   0  0  0  0  0  0  0  0  0  0  0  0
  -28.5290  -22.8880   19.0110 N   0  0  0  0  0  0  0  0  0  0  0  0
  -30.2430  -22.0030   22.8850 C   0  0  1  0  0  0  0  0  0  0  0  0
  -29.8620  -22.9230   23.7740 F   0  0  0  0  0  0  0  0  0  0  0  0
  -29.8700  -20.8120   23.3560 F   0  0  0  0  0  0  0  0  0  0  0  0
  -31.5730  -22.0320   22.7930 F   0  0  0  0  0  0  0  0  0  0  0  0
  -30.3310  -19.8710   20.6030 C   0  0  0  0  0  2  0  0  0  0  0  0
  -29.5740  -18.4780   20.6170 C   0  0  0  0  0  2  0  0  0  0  0  0
  -30.5520  -17.2240   20.6230 C   0  0  0  0  0  2  0  0  0  0  0  0
  -30.6940  -14.6990   20.3800 C   0  0  0  0  0  0  0  0  0  0  0  0
  -30.4040  -12.4720   19.3320 C   0  0  0  0  0  2  0  0  0  0  0  0
  -29.4640  -12.6190   18.1170 C   0  0  0  0  0  2  0  0  0  0  0  0
  -27.9930  -12.4750   18.5520 C   0  0  0  0  0  2  0  0  0  0  0  0
  -27.6450  -13.3380   19.7960 C   0  0  0  0  0  3  0  0  0  0  0  0
  -28.7140  -13.2050   20.9040 C   0  0  0  0  0  2  0  0  0  0  0  0
  -30.0180  -13.5120   20.3030 N   0  0  0  0  0  0  0  0  0  0  0  0
  -31.8710  -14.7880   20.0280 O   0  0  0  0  0  0  0  0  0  0  0  0
  -29.9810  -15.8340   20.6470 N   0  0  0  0  0  0  0  0  0  0  0  0
  -28.9970  -15.7280   20.8430 H   0  0  0  0  0  0  0  0  0  0  0  0
  -25.2620  -13.9200   20.5530 C   0  0  0  0  0  0  0  0  0  0  0  0
  -24.1990  -13.1380   20.9170 C   0  0  0  0  0  0  0  0  0  0  0  0
  -24.6630  -11.7880   20.8600 C   0  0  0  0  0  0  0  0  0  0  0  0
  -26.3050  -13.0440   20.2940 N   0  0  0  0  0  0  0  0  0  0  0  0
  -25.9510  -11.7560   20.5410 N   0  0  0  0  0  0  0  0  0  0  0  0
  -23.9380  -10.5220   21.0370 C   0  0  0  0  0  0  0  0  0  0  0  0
  -24.3640   -9.5520   21.9720 C   0  0  0  0  0  3  0  0  0  0  0  0
  -23.6410   -8.3510   22.1390 C   0  0  0  0  0  3  0  0  0  0  0  0
  -22.4760   -8.1130   21.3700 C   0  0  0  0  0  0  0  0  0  0  0  0
  -22.0690   -9.0700   20.4250 C   0  0  0  0  0  3  0  0  0  0  0  0
  -22.7940  -10.2630   20.2580 C   0  0  0  0  0  3  0  0  0  0  0  0
  -21.7250   -6.9650   21.4460 O   0  0  0  0  0  0  0  0  0  0  0  0
  -21.6410   -6.2330   22.6040 C   0  0  0  0  0  0  0  0  0  0  0  0
  -21.1340   -6.7870   23.7990 C   0  0  0  0  0  3  0  0  0  0  0  0
  -21.0020   -5.9800   24.9470 C   0  0  0  0  0  3  0  0  0  0  0  0
  -21.3650   -4.6220   24.8990 C   0  0  0  0  0  0  0  0  0  0  0  0
  -21.8660   -4.0680   23.7080 C   0  0  0  0  0  3  0  0  0  0  0  0
  -22.0010   -4.8710   22.5630 C   0  0  0  0  0  0  0  0  0  0  0  0
  -22.4640   -4.3280   21.4110 F   0  0  0  0  0  0  0  0  0  0  0  0
  -21.2310   -3.8450   25.9990 F   0  0  0  0  0  0  0  0  0  0  0  0
  -22.8030  -13.6100   21.2090 C   0  0  0  0  0  0  0  0  0  0  0  0
  -22.0860  -12.9000   22.0720 N   0  0  0  0  0  0  0  0  0  0  0  0
  -22.3590  -14.6410   20.7050 O   0  0  0  0  0  0  0  0  0  0  0  0
  -22.4580  -12.0630   22.4970 H   0  0  0  0  0  0  0  0  0  0  0  0
  -21.1520  -13.1980   22.3150 H   0  0  0  0  0  0  0  0  0  0  0  0
  -25.4270  -15.2930   20.4040 N   0  0  0  0  0  0  0  0  0  0  0  0
  -24.6690  -15.9510   20.5520 H   0  0  0  0  0  0  0  0  0  0  0  0
  -26.2850  -15.7420   20.1100 H   0  0  0  0  0  0  0  0  0  0  0  0
  -28.2970  -25.3250   19.3430 C   0  0  0  0  0  2  0  0  0  0  0  0
  -28.1810  -26.5330   20.1820 O   0  0  0  0  0  0  0  0  0  0  0  0
  -24.5540  -31.9600   23.2280 C   0  0  0  0  0  0  0  0  0  0  0  0
  -27.0560  -27.3710   20.1190 C   0  0  0  0  0  0  0  0  0  0  0  0
  -23.2990  -30.5600   21.6280 C   0  0  0  0  0  3  0  0  0  0  0  0
  -24.7010  -29.0020   20.1680 C   0  0  0  0  0  0  0  0  0  0  0  0
  -25.8360  -30.8650   21.3770 C   0  0  0  0  0  2  0  0  0  0  0  0
  -25.8900  -29.4830   20.7320 C   0  0  0  0  0  0  0  0  0  0  0  0
  -27.0630  -28.6750   20.7080 C   0  0  0  0  0  3  0  0  0  0  0  0
  -25.8360  -26.9410   19.5450 C   0  0  0  0  0  3  0  0  0  0  0  0
  -24.6760  -27.7350   19.5690 C   0  0  0  0  0  3  0  0  0  0  0  0
  -23.4750  -29.8830   20.2430 C   0  0  0  0  0  2  0  0  0  0  0  0
  -24.5840  -31.1460   22.1330 N   0  0  0  0  0  0  0  0  0  0  0  0
  -23.4890  -32.2450   23.7920 O   0  0  0  0  0  0  0  0  0  0  0  0
  -22.6600  -29.5480   22.6090 C   0  0  0  0  0  0  0  0  0  0  0  0
  -21.3390  -29.3300   22.4830 N   0  0  0  0  0  0  0  0  0  0  0  0
  -23.3520  -28.9600   23.4450 O   0  0  0  0  0  0  0  0  0  0  0  0
  -20.8370  -29.8590   21.7840 H   0  0  0  0  0  0  0  0  0  0  0  0
  -18.0040  -28.0110   22.9610 C   0  0  0  0  0  0  0  0  0  0  0  0
  -20.5440  -28.3910   23.2760 C   0  0  0  0  0  3  0  0  0  0  0  0
  -20.7180  -26.9410   22.7680 C   0  0  0  0  0  2  0  0  0  0  0  0
  -19.6560  -26.5270   21.7450 C   0  0  0  0  0  2  0  0  0  0  0  0
  -18.2520  -26.6430   22.3470 C   0  0  0  0  0  2  0  0  0  0  0  0
  -19.0800  -28.8370   23.3810 C   0  0  0  0  0  0  0  0  0  0  0  0
  -18.7960  -30.1140   23.9120 C   0  0  0  0  0  3  0  0  0  0  0  0
  -17.4680  -30.5670   24.0270 C   0  0  0  0  0  3  0  0  0  0  0  0
  -16.4060  -29.7390   23.6220 C   0  0  0  0  0  3  0  0  0  0  0  0
  -16.6750  -28.4640   23.0950 C   0  0  0  0  0  3  0  0  0  0  0  0
  -25.8580  -32.5890   23.8080 C   0  0  0  0  0  3  0  0  0  0  0  0
  -25.5640  -33.9900   24.1390 N   0  0  0  0  0  0  0  0  0  0  0  0
  -25.8840  -35.0390   23.3690 C   0  0  0  0  0  0  0  0  0  0  0  0
  -26.5260  -34.9270   22.3210 O   0  0  0  0  0  0  0  0  0  0  0  0
  -24.9940  -34.1520   24.9560 H   0  0  0  0  0  0  0  0  0  0  0  0
  -24.1690  -36.8470   23.0340 C   0  0  0  0  0  1  0  0  0  0  0  0
  -25.4140  -36.4300   23.8330 C   0  0  0  0  0  3  0  0  0  0  0  0
  -27.5630  -37.2940   24.6480 C   0  0  0  0  0  1  0  0  0  0  0  0
  -26.4550  -37.4730   23.7140 N   0  0  0  0  0  0  0  0  0  0  0  0
  -26.0560  -38.3960   23.8700 H   0  0  0  0  0  0  0  0  0  0  0  0
  -26.4100  -31.8200   25.0700 C   0  0  1  0  0  0  0  0  0  0  0  0
  -25.3460  -31.5860   26.1680 C   0  0  0  0  0  1  0  0  0  0  0  0
  -26.9860  -30.4410   24.6690 C   0  0  0  0  0  1  0  0  0  0  0  0
  -27.5760  -32.6180   25.6970 C   0  0  0  0  0  1  0  0  0  0  0  0
  1  3  1  0
  2  4  1  0
  3  7  1  0
  4 11  1  0
  4  3  2  0
  5  1  2  0
  6  2  2  0
  6  5  1  0
  7  9  1  1
  7  8  1  0
 10  7  1  0
 11 12  1  0
 12 13  1  0
 13 22  1  0
 14 22  1  0
 15 20  1  0
 16 17  1  0
 16 15  1  0
 18 17  1  0
 18 27  1  0
 18 19  1  0
 20 14  1  0
 20 19  1  0
 21 14  2  0
 22 23  1  0
 24 25  2  0
 25 44  1  0
 26 25  1  0
 26 29  1  0
 27 28  1  0
 27 24  1  0
 28 26  2  0
 29 30  1  0
 30 31  2  0
 32 35  1  0
 32 31  1  0
 33 32  2  0
 34 33  1  0
 34 29  2  0
 35 36  1  0
 36 37  1  0
 37 38  2  0
 39 38  1  0
 39 43  1  0
 40 39  2  0
 41 36  2  0
 41 40  1  0
 42 41  1  0
 44 45  1  0
 45 48  1  0
 45 47  1  0
 46 44  2  0
 49 50  1  0
 49 24  1  0
 51 49  1  0
 52  5  1  0
 52 53  1  0
 54 65  2  0
 55 53  1  0
 55 60  1  0
 56 64  1  0
 56 66  1  0
 57 63  1  0
 57 59  1  0
 58 64  1  0
 59 58  1  0
 60 59  2  0
 61 62  1  0
 61 55  2  0
 62 57  2  0
 63 56  1  0
 64 54  1  0
 66 68  2  0
 67 66  1  0
 69 67  1  0
 70 79  2  0
 70 75  1  0
 71 67  1  0
 71 75  1  0
 72 71  1  0
 73 74  1  0
 73 72  1  0
 74 70  1  0
 75 76  2  0
 76 77  1  0
 78 77  2  0
 79 78  1  0
 80 54  1  0
 80 81  1  0
 80 90  1  0
 81 84  1  0
 82 86  1  0
 82 81  1  0
 83 82  2  0
 86 85  1  0
 88 86  1  0
 88 89  1  0
 88 87  1  0
 90 93  1  1
 90 91  1  0
 92 90  1  0
M  ISO  4  14 100  22 100  52 101  53 101
M  END
>  <TORSDO>  (46) 
F 21

>  <SCORE>  (46) 
-13.729

>  <name>  (46) 
46

>  <ligand_id>  (46) 
46

>  <original_smiles>  (46) 
[H]c1nc(C([H])([H])Oc2c([H])c([H])c3c(c2[H])C([H])([H])N(C(=O)C([H])(N([H])C(=O)C([H])(N([H])C([H])([H])[H])C([H])([H])[H])C(C([H])([H])[H])(C([H])([H])[H])C([H])([H])[H])C([H])(C(=O)N([H])C2([H])c4c([H])c([H])c([H])c([H])c4C([H])([H])C([H])([H])C2([H])[H])C3([H])[H])c([H])c(C(F)(F)F)c1C([H])([H])C([H])([H])C([H])([H])N([H])C(=O)N1C([H])([H])C([H])([H])C([H])([H])C([H])(n2nc(-c3c([H])c([H])c(Oc4c([H])c([H])c(F)c([H])c4F)c([H])c3[H])c(C(=O)N([H])[H])c2N([H])[H])C1([H])[H]

>  <smiles>  (46) 
[H]c1nc(C([H])([H])Oc2c([H])c([H])c3c(c2[H])C([H])([H])N(C(=O)C([H])(N([H])C(=O)C([H])(N([H])C([H])([H])[H])C([H])([H])[H])C(C([H])([H])[H])(C([H])([H])[H])C([H])([H])[H])C([H])(C(=O)N([H])C2([H])c4c([H])c([H])c([H])c([H])c4C([H])([H])C([H])([H])C2([H])[H])C3([H])[H])c([H])c(C(F)(F)F)c1C([H])([H])C([H])([H])C([H])([H])N([H])C(=O)N1C([H])([H])C([H])([H])C([H])([H])C([H])(n2nc(-c3c([H])c([H])c(Oc4c([H])c([H])c(F)c([H])c4F)c([H])c3[H])c(C(=O)N([H])[H])c2N([H])[H])C1([H])[H]

$$$$
47:0:0
     RDKit          3D

 92 99  0  0  1  0  0  0  0  0999 V2000
  -29.0150  -21.7010   20.2860 N   0  0  1  0  0  4  0  0  0  0  0  0
  -28.8350  -21.4440   19.3280 H   0  0  0  0  0  0  0  0  0  0  0  0
  -29.9320  -20.5860   20.8390 C   0  0  0  0  0  2  0  0  0  0  0  0
  -29.4710  -19.0310   20.7940 C   0  0  0  0  0  3  0  0  0  0  0  0
  -30.5650  -17.8770   21.0360 C   0  0  0  0  0  3  0  0  0  0  0  0
  -30.9000  -15.3030   20.8470 C   0  0  0  0  0  0  0  0  0  0  0  0
  -30.7460  -13.0650   19.7680 C   0  0  0  0  0  2  0  0  0  0  0  0
  -29.9030  -13.1810   18.4790 C   0  0  0  0  0  2  0  0  0  0  0  0
  -28.4020  -13.0320   18.7950 C   0  0  0  0  0  2  0  0  0  0  0  0
  -27.9500  -13.9030   19.9980 C   0  0  0  0  0  3  0  0  0  0  0  0
  -28.9170  -13.7650   21.1930 C   0  0  0  0  0  2  0  0  0  0  0  0
  -30.2630  -14.0970   20.7090 N   0  0  0  0  0  0  0  0  0  0  0  0
  -32.1040  -15.4120   20.5950 O   0  0  0  0  0  0  0  0  0  0  0  0
  -30.1250  -16.4240   21.0540 N   0  0  0  0  0  0  0  0  0  0  0  0
  -29.1410  -16.2490   21.1930 H   0  0  0  0  0  0  0  0  0  0  0  0
  -25.5080  -14.5070   20.5140 C   0  0  0  0  0  0  0  0  0  0  0  0
  -24.4150  -13.7370   20.8060 C   0  0  0  0  0  0  0  0  0  0  0  0
  -24.8780  -12.3870   20.8340 C   0  0  0  0  0  0  0  0  0  0  0  0
  -26.5680  -13.6250   20.3790 N   0  0  0  0  0  0  0  0  0  0  0  0
  -26.1900  -12.3470   20.6330 N   0  0  0  0  0  0  0  0  0  0  0  0
  -24.1400  -11.1260   20.9770 C   0  0  0  0  0  0  0  0  0  0  0  0
  -24.5310  -10.1450   21.9160 C   0  0  0  0  0  3  0  0  0  0  0  0
  -23.7920   -8.9500   22.0500 C   0  0  0  0  0  3  0  0  0  0  0  0
  -22.6470   -8.7280   21.2470 C   0  0  0  0  0  0  0  0  0  0  0  0
  -22.2770   -9.6980   20.2990 C   0  0  0  0  0  3  0  0  0  0  0  0
  -23.0150  -10.8850   20.1620 C   0  0  0  0  0  3  0  0  0  0  0  0
  -21.8840   -7.5860   21.2910 O   0  0  0  0  0  0  0  0  0  0  0  0
  -21.8480   -6.7870   22.4070 C   0  0  0  0  0  0  0  0  0  0  0  0
  -21.4820   -7.2910   23.6730 C   0  0  0  0  0  3  0  0  0  0  0  0
  -21.3900   -6.4200   24.7760 C   0  0  0  0  0  3  0  0  0  0  0  0
  -21.6550   -5.0480   24.6160 C   0  0  0  0  0  0  0  0  0  0  0  0
  -22.0170   -4.5430   23.3540 C   0  0  0  0  0  3  0  0  0  0  0  0
  -22.1090   -5.4100   22.2510 C   0  0  0  0  0  0  0  0  0  0  0  0
  -22.4340   -4.9160   21.0320 F   0  0  0  0  0  0  0  0  0  0  0  0
  -21.5590   -4.2100   25.6750 F   0  0  0  0  0  0  0  0  0  0  0  0
  -23.0000  -14.2160   20.9550 C   0  0  0  0  0  0  0  0  0  0  0  0
  -22.2060  -13.5410   21.7770 N   0  0  0  0  0  0  0  0  0  0  0  0
  -22.6030  -15.2260   20.3720 O   0  0  0  0  0  0  0  0  0  0  0  0
  -22.5360  -12.7220   22.2660 H   0  0  0  0  0  0  0  0  0  0  0  0
  -21.2530  -13.8440   21.9180 H   0  0  0  0  0  0  0  0  0  0  0  0
  -25.6860  -15.8750   20.3280 N   0  0  0  0  0  0  0  0  0  0  0  0
  -24.9100  -16.5270   20.3690 H   0  0  0  0  0  0  0  0  0  0  0  0
  -26.5460  -16.3050   20.0140 H   0  0  0  0  0  0  0  0  0  0  0  0
  -27.7010  -21.7090   21.0010 C   0  0  0  0  0  2  0  0  0  0  0  0
  -26.2520  -22.9750   19.3170 C   0  0  0  0  0  1  0  0  0  0  0  0
  -25.6520  -22.9850   21.7620 C   0  0  0  0  0  1  0  0  0  0  0  0
  -26.8100  -22.9490   20.7520 C   0  0  0  0  0  3  0  0  0  0  0  0
  -29.6430  -23.1080   20.2580 C   0  0  0  0  0  2  0  0  0  0  0  0
  -28.9490  -24.3290   19.4530 C   0  0  0  0  0  3  0  0  0  0  0  0
  -29.6520  -24.4900   18.3290 F   0  0  0  0  0  0  0  0  0  0  0  0
  -28.8370  -25.7570   20.1820 C   0  0  0  0  0  2  0  0  0  0  0  0
  -28.6530  -27.0320   19.4470 O   0  0  0  0  0  0  0  0  0  0  0  0
  -24.7170  -31.8510   23.1520 C   0  0  0  0  0  0  0  0  0  0  0  0
  -27.4760  -27.7730   19.5990 C   0  0  0  0  0  0  0  0  0  0  0  0
  -23.5410  -30.5630   21.4020 C   0  0  0  0  0  3  0  0  0  0  0  0
  -25.0290  -29.2330   19.8010 C   0  0  0  0  0  0  0  0  0  0  0  0
  -26.0520  -31.0380   21.1930 C   0  0  0  0  0  2  0  0  0  0  0  0
  -26.1840  -29.7330   20.4140 C   0  0  0  0  0  0  0  0  0  0  0  0
  -27.4130  -29.0180   20.2980 C   0  0  0  0  0  3  0  0  0  0  0  0
  -26.2960  -27.3130   18.9810 C   0  0  0  0  0  3  0  0  0  0  0  0
  -25.0840  -28.0300   19.0760 C   0  0  0  0  0  3  0  0  0  0  0  0
  -23.7500  -30.0340   19.9580 C   0  0  0  0  0  2  0  0  0  0  0  0
  -24.7900  -31.1640   21.9750 N   0  0  0  0  0  0  0  0  0  0  0  0
  -23.6370  -32.0140   23.7370 O   0  0  0  0  0  0  0  0  0  0  0  0
  -22.9570  -29.4230   22.2710 C   0  0  0  0  0  0  0  0  0  0  0  0
  -21.6400  -29.1860   22.1530 N   0  0  0  0  0  0  0  0  0  0  0  0
  -23.6880  -28.7570   23.0090 O   0  0  0  0  0  0  0  0  0  0  0  0
  -21.1050  -29.7820   21.5370 H   0  0  0  0  0  0  0  0  0  0  0  0
  -18.3460  -27.7490   22.5740 C   0  0  0  0  0  0  0  0  0  0  0  0
  -20.8900  -28.1310   22.8390 C   0  0  0  0  0  3  0  0  0  0  0  0
  -21.0640  -26.7710   22.1260 C   0  0  0  0  0  2  0  0  0  0  0  0
  -19.9650  -26.4820   21.0990 C   0  0  0  0  0  2  0  0  0  0  0  0
  -18.5890  -26.4840   21.7700 C   0  0  0  0  0  2  0  0  0  0  0  0
  -19.4270  -28.5310   23.0630 C   0  0  0  0  0  0  0  0  0  0  0  0
  -19.1460  -29.7170   23.7760 C   0  0  0  0  0  3  0  0  0  0  0  0
  -17.8170  -30.1210   24.0050 C   0  0  0  0  0  3  0  0  0  0  0  0
  -16.7520  -29.3350   23.5330 C   0  0  0  0  0  3  0  0  0  0  0  0
  -17.0180  -28.1500   22.8230 C   0  0  0  0  0  3  0  0  0  0  0  0
  -25.9820  -32.4840   23.8100 C   0  0  0  0  0  3  0  0  0  0  0  0
  -25.6280  -33.8450   24.2380 N   0  0  0  0  0  0  0  0  0  0  0  0
  -25.9410  -34.9610   23.5660 C   0  0  0  0  0  0  0  0  0  0  0  0
  -26.6280  -34.9540   22.5400 O   0  0  0  0  0  0  0  0  0  0  0  0
  -25.0220  -33.9250   25.0390 H   0  0  0  0  0  0  0  0  0  0  0  0
  -24.1590  -36.7210   23.3310 C   0  0  0  0  0  1  0  0  0  0  0  0
  -25.4090  -36.2990   24.1180 C   0  0  0  0  0  3  0  0  0  0  0  0
  -27.5150  -37.1860   25.0190 C   0  0  0  0  0  1  0  0  0  0  0  0
  -26.4090  -37.3890   24.0870 N   0  0  0  0  0  0  0  0  0  0  0  0
  -25.9750  -38.2830   24.2980 H   0  0  0  0  0  0  0  0  0  0  0  0
  -26.5350  -31.6460   25.0280 C   0  0  1  0  0  0  0  0  0  0  0  0
  -25.4620  -31.3040   26.0880 C   0  0  0  0  0  1  0  0  0  0  0  0
  -27.1530  -30.3160   24.5400 C   0  0  0  0  0  1  0  0  0  0  0  0
  -27.6700  -32.4280   25.7310 C   0  0  0  0  0  1  0  0  0  0  0  0
  1  3  1  0
  1 44  1  0
  1  2  1  6
  4  3  1  0
  4  5  2  0
  5 14  1  0
  6 14  1  0
  7 12  1  0
  8  9  1  0
  8  7  1  0
 10  9  1  0
 10 19  1  0
 10 11  1  0
 12  6  1  0
 12 11  1  0
 13  6  2  0
 14 15  1  0
 16 17  2  0
 17 18  1  0
 17 36  1  0
 18 21  1  0
 19 16  1  0
 19 20  1  0
 20 18  2  0
 21 22  1  0
 22 23  2  0
 24 27  1  0
 24 23  1  0
 25 24  2  0
 26 25  1  0
 26 21  2  0
 27 28  1  0
 28 29  1  0
 29 30  2  0
 31 30  1  0
 31 35  1  0
 32 31  2  0
 33 28  2  0
 33 32  1  0
 34 33  1  0
 36 37  1  0
 37 40  1  0
 37 39  1  0
 38 36  2  0
 41 42  1  0
 41 16  1  0
 43 41  1  0
 45 47  1  0
 47 44  1  0
 47 46  1  0
 48  1  1  0
 49 50  1  0
 49 51  1  0
 49 48  1  0
 52 54  1  0
 52 51  1  0
 53 64  2  0
 54 59  1  0
 55 63  1  0
 55 65  1  0
 56 62  1  0
 56 58  1  0
 57 63  1  0
 58 57  1  0
 59 58  2  0
 60 61  1  0
 60 54  2  0
 61 56  2  0
 62 55  1  0
 63 53  1  0
 65 67  2  0
 66 65  1  0
 68 66  1  0
 69 78  2  0
 69 74  1  0
 70 66  1  0
 70 74  1  0
 71 70  1  0
 72 73  1  0
 72 71  1  0
 73 69  1  0
 74 75  2  0
 75 76  1  0
 77 76  2  0
 78 77  1  0
 79 53  1  0
 79 80  1  0
 79 89  1  0
 80 83  1  0
 81 85  1  0
 81 80  1  0
 82 81  2  0
 85 84  1  0
 87 85  1  0
 87 88  1  0
 87 86  1  0
 89 92  1  1
 89 90  1  0
 91 89  1  0
M  ISO  4   6 100  14 100  51 101  52 101
M  END
>  <TORSDO>  (47) 
F 24

>  <SCORE>  (47) 
-10.659

>  <name>  (47) 
47

>  <ligand_id>  (47) 
47

>  <original_smiles>  (47) 
[H]c1c([H])c([H])c2c(c1[H])C([H])([H])C([H])([H])C([H])([H])C2([H])N([H])C(=O)C1([H])N(C(=O)C([H])(N([H])C(=O)C([H])(N([H])C([H])([H])[H])C([H])([H])[H])C(C([H])([H])[H])(C([H])([H])[H])C([H])([H])[H])C([H])([H])c2c([H])c(OC([H])([H])C([H])(F)C([H])([H])[N+]([H])(C([H])([H])C([H])([H])C([H])([H])N([H])C(=O)N3C([H])([H])C([H])([H])C([H])([H])C([H])(n4nc(-c5c([H])c([H])c(Oc6c([H])c([H])c(F)c([H])c6F)c([H])c5[H])c(C(=O)N([H])[H])c4N([H])[H])C3([H])[H])C([H])([H])C([H])(C([H])([H])[H])C([H])([H])[H])c([H])c([H])c2C1([H])[H]

>  <smiles>  (47) 
[H]c1c([H])c([H])c2c(c1[H])C([H])([H])C([H])([H])C([H])([H])C2([H])N([H])C(=O)C1([H])N(C(=O)C([H])(N([H])C(=O)C([H])(N([H])C([H])([H])[H])C([H])([H])[H])C(C([H])([H])[H])(C([H])([H])[H])C([H])([H])[H])C([H])([H])c2c([H])c(OC([H])([H])C([H])(F)C([H])([H])[N+]([H])(C([H])([H])C([H])([H])C([H])([H])N([H])C(=O)N3C([H])([H])C([H])([H])C([H])([H])C([H])(n4nc(-c5c([H])c([H])c(Oc6c([H])c([H])c(F)c([H])c6F)c([H])c5[H])c(C(=O)N([H])[H])c4N([H])[H])C3([H])[H])C([H])([H])C([H])(C([H])([H])[H])C([H])([H])[H])c([H])c([H])c2C1([H])[H]

$$$$
48:0:0
     RDKit          3D

 90 98  0  0  1  0  0  0  0  0999 V2000
  -27.5680  -22.1910   20.1800 C   0  0  0  0  0  2  0  0  0  0  0  0
  -28.8000  -21.4200   20.3780 C   0  0  0  0  0  0  0  0  0  0  0  0
  -29.7850  -22.4840   20.5370 C   0  0  0  0  0  0  0  0  0  0  0  0
  -28.3440  -24.5050   20.3030 C   0  0  0  0  0  0  0  0  0  0  0  0
  -27.3440  -23.5980   20.1430 N   0  0  0  0  0  0  0  0  0  0  0  0
  -29.5540  -23.8860   20.4840 N   0  0  0  0  0  0  0  0  0  0  0  0
  -31.9180  -21.4080   19.6590 C   0  0  0  0  0  1  0  0  0  0  0  0
  -31.4330  -21.4450   22.1800 C   0  0  0  0  0  1  0  0  0  0  0  0
  -31.2450  -22.1440   20.8250 C   0  0  0  0  0  3  0  0  0  0  0  0
  -28.2700  -26.0080   20.2660 O   0  0  0  0  0  0  0  0  0  0  0  0
  -24.6170  -31.9000   23.2300 C   0  0  0  0  0  0  0  0  0  0  0  0
  -27.1730  -27.0140   20.2480 C   0  0  0  0  0  0  0  0  0  0  0  0
  -23.4160  -30.4930   21.6030 C   0  0  0  0  0  3  0  0  0  0  0  0
  -24.8600  -28.8740   20.1900 C   0  0  0  0  0  0  0  0  0  0  0  0
  -25.9770  -30.7100   21.4440 C   0  0  0  0  0  2  0  0  0  0  0  0
  -26.0440  -29.2930   20.8050 C   0  0  0  0  0  0  0  0  0  0  0  0
  -27.1900  -28.3840   20.8090 C   0  0  0  0  0  3  0  0  0  0  0  0
  -25.9590  -26.7390   19.5810 C   0  0  0  0  0  3  0  0  0  0  0  0
  -24.8390  -27.6150   19.5600 C   0  0  0  0  0  3  0  0  0  0  0  0
  -23.6400  -29.7950   20.2310 C   0  0  0  0  0  2  0  0  0  0  0  0
  -24.6920  -31.0620   22.1450 N   0  0  0  0  0  0  0  0  0  0  0  0
  -23.5310  -32.1940   23.7550 O   0  0  0  0  0  0  0  0  0  0  0  0
  -22.7280  -29.5050   22.5800 C   0  0  0  0  0  0  0  0  0  0  0  0
  -21.3990  -29.3330   22.4560 N   0  0  0  0  0  0  0  0  0  0  0  0
  -23.3960  -28.8920   23.4170 O   0  0  0  0  0  0  0  0  0  0  0  0
  -20.9120  -29.8790   21.7580 H   0  0  0  0  0  0  0  0  0  0  0  0
  -18.0230  -28.1130   22.9730 C   0  0  0  0  0  0  0  0  0  0  0  0
  -20.5800  -28.4000   23.2370 C   0  0  0  0  0  3  0  0  0  0  0  0
  -20.6930  -26.9620   22.6780 C   0  0  0  0  0  2  0  0  0  0  0  0
  -19.5940  -26.6210   21.6660 C   0  0  0  0  0  2  0  0  0  0  0  0
  -18.2100  -26.7590   22.3070 C   0  0  0  0  0  2  0  0  0  0  0  0
  -19.1350  -28.8890   23.3950 C   0  0  0  0  0  0  0  0  0  0  0  0
  -18.9030  -30.1530   23.9800 C   0  0  0  0  0  3  0  0  0  0  0  0
  -17.5920  -30.6410   24.1470 C   0  0  0  0  0  3  0  0  0  0  0  0
  -16.4960  -29.8620   23.7380 C   0  0  0  0  0  3  0  0  0  0  0  0
  -16.7110  -28.6000   23.1570 C   0  0  0  0  0  3  0  0  0  0  0  0
  -25.8930  -32.5460   23.8530 C   0  0  0  0  0  3  0  0  0  0  0  0
  -26.4020  -31.7920   25.1430 C   0  0  1  0  0  0  0  0  0  0  0  0
  -25.3050  -31.5700   26.2100 C   0  0  0  0  0  1  0  0  0  0  0  0
  -26.9860  -30.4060   24.7810 C   0  0  0  0  0  1  0  0  0  0  0  0
  -27.5510  -32.5930   25.8010 C   0  0  0  0  0  1  0  0  0  0  0  0
  -25.5790  -33.9480   24.1790 N   0  0  0  0  0  0  0  0  0  0  0  0
  -25.9100  -35.0050   23.4230 C   0  0  0  0  0  0  0  0  0  0  0  0
  -26.5730  -34.9020   22.3890 O   0  0  0  0  0  0  0  0  0  0  0  0
  -24.9880  -34.1020   24.9820 H   0  0  0  0  0  0  0  0  0  0  0  0
  -24.1860  -36.8110   23.0840 C   0  0  0  0  0  1  0  0  0  0  0  0
  -25.4300  -36.3950   23.8870 C   0  0  0  0  0  3  0  0  0  0  0  0
  -27.5680  -37.2800   24.7150 C   0  0  0  0  0  1  0  0  0  0  0  0
  -26.4660  -37.4460   23.7710 N   0  0  0  0  0  0  0  0  0  0  0  0
  -26.0620  -38.3680   23.9140 H   0  0  0  0  0  0  0  0  0  0  0  0
  -28.8460  -19.6640   20.5680 C   0  0  0  0  0  3  0  0  0  0  0  0
  -29.9070  -18.2570   20.2090 C   0  0  0  0  0  3  0  0  0  0  0  0
  -30.4110  -15.3390   20.1850 C   0  0  0  0  0  0  0  0  0  0  0  0
  -30.3500  -12.9190   19.2520 C   0  0  0  0  0  2  0  0  0  0  0  0
  -29.3890  -12.7400   18.0490 C   0  0  0  0  0  2  0  0  0  0  0  0
  -27.9550  -12.4600   18.5290 C   0  0  0  0  0  2  0  0  0  0  0  0
  -27.5410  -13.3960   19.6910 C   0  0  0  0  0  3  0  0  0  0  0  0
  -28.6250  -13.5200   20.7840 C   0  0  0  0  0  2  0  0  0  0  0  0
  -29.8360  -14.0360   20.1260 N   0  0  0  0  0  0  0  0  0  0  0  0
  -31.6150  -15.3440   19.8910 O   0  0  0  0  0  0  0  0  0  0  0  0
  -29.6600  -16.6070   20.3740 N   0  0  0  0  0  0  0  0  0  0  0  0
  -28.7020  -16.4050   20.6200 H   0  0  0  0  0  0  0  0  0  0  0  0
  -25.1980  -13.9320   20.5370 C   0  0  0  0  0  0  0  0  0  0  0  0
  -24.1490  -13.1440   20.9220 C   0  0  0  0  0  0  0  0  0  0  0  0
  -24.6160  -11.7950   20.8430 C   0  0  0  0  0  0  0  0  0  0  0  0
  -26.2310  -13.0650   20.2360 N   0  0  0  0  0  0  0  0  0  0  0  0
  -25.8970  -11.7720   20.4870 N   0  0  0  0  0  0  0  0  0  0  0  0
  -23.8960  -10.5270   21.0240 C   0  0  0  0  0  0  0  0  0  0  0  0
  -24.3390   -9.5490   21.9400 C   0  0  0  0  0  3  0  0  0  0  0  0
  -23.6170   -8.3480   22.1120 C   0  0  0  0  0  3  0  0  0  0  0  0
  -22.4360   -8.1180   21.3670 C   0  0  0  0  0  0  0  0  0  0  0  0
  -22.0110   -9.0850   20.4410 C   0  0  0  0  0  3  0  0  0  0  0  0
  -22.7340  -10.2760   20.2670 C   0  0  0  0  0  3  0  0  0  0  0  0
  -21.6820   -6.9720   21.4500 O   0  0  0  0  0  0  0  0  0  0  0  0
  -21.6230   -6.2310   22.6040 C   0  0  0  0  0  0  0  0  0  0  0  0
  -21.1480   -6.7760   23.8170 C   0  0  0  0  0  3  0  0  0  0  0  0
  -21.0400   -5.9600   24.9600 C   0  0  0  0  0  3  0  0  0  0  0  0
  -21.3950   -4.6000   24.8920 C   0  0  0  0  0  0  0  0  0  0  0  0
  -21.8610   -4.0540   23.6840 C   0  0  0  0  0  3  0  0  0  0  0  0
  -21.9730   -4.8670   22.5420 C   0  0  0  0  0  0  0  0  0  0  0  0
  -22.4040   -4.3300   21.3760 F   0  0  0  0  0  0  0  0  0  0  0  0
  -21.2820   -3.8140   25.9880 F   0  0  0  0  0  0  0  0  0  0  0  0
  -22.7610  -13.6120   21.2460 C   0  0  0  0  0  0  0  0  0  0  0  0
  -22.0600  -12.8930   22.1150 N   0  0  0  0  0  0  0  0  0  0  0  0
  -22.3100  -14.6490   20.7640 O   0  0  0  0  0  0  0  0  0  0  0  0
  -22.4390  -12.0540   22.5280 H   0  0  0  0  0  0  0  0  0  0  0  0
  -21.1290  -13.1870   22.3760 H   0  0  0  0  0  0  0  0  0  0  0  0
  -25.3510  -15.3070   20.3850 N   0  0  0  0  0  0  0  0  0  0  0  0
  -24.5810  -15.9530   20.5290 H   0  0  0  0  0  0  0  0  0  0  0  0
  -26.1730  -15.7490   19.9960 H   0  0  0  0  0  0  0  0  0  0  0  0
  1  2  1  0
  2  3  2  0
  2 51  1  0
  3  9  1  0
  4  6  2  0
  5  1  1  0
  5  4  2  0
  6  3  1  0
  7  9  1  0
  9  8  1  0
 10  4  1  0
 11 22  2  0
 12 10  1  0
 12 17  1  0
 13 21  1  0
 13 23  1  0
 14 20  1  0
 14 16  1  0
 15 21  1  0
 16 17  2  0
 16 15  1  0
 18 12  2  0
 19 18  1  0
 19 14  2  0
 20 13  1  0
 21 11  1  0
 23 25  2  0
 24 23  1  0
 26 24  1  0
 27 36  2  0
 27 32  1  0
 28 24  1  0
 28 32  1  0
 29 28  1  0
 30 31  1  0
 30 29  1  0
 31 27  1  0
 32 33  2  0
 33 34  1  0
 35 34  2  0
 36 35  1  0
 37 11  1  0
 37 42  1  0
 37 38  1  0
 38 41  1  1
 38 39  1  0
 40 38  1  0
 42 45  1  0
 43 47  1  0
 43 42  1  0
 44 43  2  0
 47 46  1  0
 49 47  1  0
 49 50  1  0
 49 48  1  0
 52 61  1  0
 52 51  2  0
 53 61  1  0
 54 59  1  0
 55 56  1  0
 55 54  1  0
 57 56  1  0
 57 66  1  0
 57 58  1  0
 59 53  1  0
 59 58  1  0
 60 53  2  0
 61 62  1  0
 63 64  2  0
 64 83  1  0
 65 64  1  0
 65 68  1  0
 66 67  1  0
 66 63  1  0
 67 65  2  0
 68 69  1  0
 69 70  2  0
 71 74  1  0
 71 70  1  0
 72 71  2  0
 73 72  1  0
 73 68  2  0
 74 75  1  0
 75 76  1  0
 76 77  2  0
 78 77  1  0
 78 82  1  0
 79 78  2  0
 80 75  2  0
 80 79  1  0
 81 80  1  0
 83 84  1  0
 84 87  1  0
 84 86  1  0
 85 83  2  0
 88 89  1  0
 88 63  1  0
 90 88  1  0
M  ISO  4   4 101  10 101  53 100  61 100
M  END
>  <TORSDO>  (48) 
F 19

>  <SCORE>  (48) 
-15.570

>  <name>  (48) 
48

>  <ligand_id>  (48) 
48

>  <original_smiles>  (48) 
[H]c1nc(Oc2c([H])c([H])c3c(c2[H])C([H])([H])N(C(=O)C([H])(N([H])C(=O)C([H])(N([H])C([H])([H])[H])C([H])([H])[H])C(C([H])([H])[H])(C([H])([H])[H])C([H])([H])[H])C([H])(C(=O)N([H])C2([H])c4c([H])c([H])c([H])c([H])c4C([H])([H])C([H])([H])C2([H])[H])C3([H])[H])nc(C([H])(C([H])([H])[H])C([H])([H])[H])c1C([H])([H])C([H])([H])N([H])C(=O)N1C([H])([H])C([H])([H])C([H])([H])C([H])(n2nc(-c3c([H])c([H])c(Oc4c([H])c([H])c(F)c([H])c4F)c([H])c3[H])c(C(=O)N([H])[H])c2N([H])[H])C1([H])[H]

>  <smiles>  (48) 
[H]c1nc(Oc2c([H])c([H])c3c(c2[H])C([H])([H])N(C(=O)C([H])(N([H])C(=O)C([H])(N([H])C([H])([H])[H])C([H])([H])[H])C(C([H])([H])[H])(C([H])([H])[H])C([H])([H])[H])C([H])(C(=O)N([H])C2([H])c4c([H])c([H])c([H])c([H])c4C([H])([H])C([H])([H])C2([H])[H])C3([H])[H])nc(C([H])(C([H])([H])[H])C([H])([H])[H])c1C([H])([H])C([H])([H])N([H])C(=O)N1C([H])([H])C([H])([H])C([H])([H])C([H])(n2nc(-c3c([H])c([H])c(Oc4c([H])c([H])c(F)c([H])c4F)c([H])c3[H])c(C(=O)N([H])[H])c2N([H])[H])C1([H])[H]

$$$$
49:0:0
     RDKit          3D

 92100  0  0  1  0  0  0  0  0999 V2000
  -29.2300  -19.2710   20.9100 C   0  0  0  0  0  3  0  0  0  0  0  0
  -28.8040  -18.5190   19.8000 C   0  0  0  0  0  0  0  0  0  0  0  0
  -29.1300  -20.6770   20.9080 C   0  0  0  0  0  0  0  0  0  0  0  0
  -28.1500  -19.2570   18.7630 C   0  0  0  0  0  0  0  0  0  0  0  0
  -28.4210  -21.3320   19.8570 C   0  0  0  0  0  0  0  0  0  0  0  0
  -27.5720  -18.5880   17.5250 C   0  0  0  0  0  1  0  0  0  0  0  0
  -27.9500  -20.6040   18.8150 N   0  0  0  0  0  0  0  0  0  0  0  0
  -29.0020  -22.1770   23.0020 C   0  0  0  0  0  1  0  0  0  0  0  0
  -29.8850  -21.4090   22.0110 C   0  0  0  0  0  2  0  0  0  0  0  0
  -29.0440  -16.9700   19.7540 C   0  0  0  0  0  2  0  0  0  0  0  0
  -31.2990  -17.1890   21.2180 C   0  0  0  0  0  1  0  0  0  0  0  0
  -30.1110  -16.2760   20.7230 C   0  0  0  0  0  3  0  0  0  0  0  0
  -30.6520  -14.9030   20.1360 C   0  0  0  0  0  0  0  0  0  0  0  0
  -30.2660  -12.6730   19.1070 C   0  0  0  0  0  2  0  0  0  0  0  0
  -29.2990  -12.6740   17.8870 C   0  0  0  0  0  2  0  0  0  0  0  0
  -27.8430  -13.0600   18.2460 C   0  0  0  0  0  2  0  0  0  0  0  0
  -27.6060  -12.9670   19.7560 C   0  0  0  0  0  3  0  0  0  0  0  0
  -28.6180  -13.5580   20.7230 C   0  0  0  0  0  2  0  0  0  0  0  0
  -29.9110  -13.7600   20.0490 N   0  0  0  0  0  0  0  0  0  0  0  0
  -31.7860  -14.9280   19.6560 O   0  0  0  0  0  0  0  0  0  0  0  0
  -25.2360  -13.9230   20.4740 C   0  0  0  0  0  0  0  0  0  0  0  0
  -24.1380  -13.1790   20.8700 C   0  0  0  0  0  0  0  0  0  0  0  0
  -24.5310  -11.8170   20.7700 C   0  0  0  0  0  0  0  0  0  0  0  0
  -26.2200  -12.9660   20.2030 N   0  0  0  0  0  0  0  0  0  0  0  0
  -25.7770  -11.7190   20.4140 N   0  0  0  0  0  0  0  0  0  0  0  0
  -23.8190  -10.5600   20.9600 C   0  0  0  0  0  0  0  0  0  0  0  0
  -24.3060   -9.5850   21.8580 C   0  0  0  0  0  3  0  0  0  0  0  0
  -23.6120   -8.3700   22.0270 C   0  0  0  0  0  3  0  0  0  0  0  0
  -22.4310   -8.1200   21.2910 C   0  0  0  0  0  0  0  0  0  0  0  0
  -21.9730   -9.0840   20.3720 C   0  0  0  0  0  3  0  0  0  0  0  0
  -22.6630  -10.2940   20.2010 C   0  0  0  0  0  3  0  0  0  0  0  0
  -21.7140   -6.9540   21.3760 O   0  0  0  0  0  0  0  0  0  0  0  0
  -21.6740   -6.2090   22.5260 C   0  0  0  0  0  0  0  0  0  0  0  0
  -21.1950   -6.7480   23.7390 C   0  0  0  0  0  3  0  0  0  0  0  0
  -21.0830   -5.9270   24.8770 C   0  0  0  0  0  3  0  0  0  0  0  0
  -21.4420   -4.5690   24.8080 C   0  0  0  0  0  0  0  0  0  0  0  0
  -21.9130   -4.0280   23.6010 C   0  0  0  0  0  3  0  0  0  0  0  0
  -22.0250   -4.8450   22.4630 C   0  0  0  0  0  0  0  0  0  0  0  0
  -22.4580   -4.3100   21.2950 F   0  0  0  0  0  0  0  0  0  0  0  0
  -21.3370   -3.7850   25.9020 F   0  0  0  0  0  0  0  0  0  0  0  0
  -22.7700  -13.6740   21.2380 C   0  0  0  0  0  0  0  0  0  0  0  0
  -22.0880  -12.9360   22.1140 N   0  0  0  0  0  0  0  0  0  0  0  0
  -22.3120  -14.7200   20.7930 O   0  0  0  0  0  0  0  0  0  0  0  0
  -22.4890  -12.0970   22.5040 H   0  0  0  0  0  0  0  0  0  0  0  0
  -21.1610  -13.2230   22.3920 H   0  0  0  0  0  0  0  0  0  0  0  0
  -25.4640  -15.2900   20.3430 N   0  0  0  0  0  0  0  0  0  0  0  0
  -24.7490  -15.9860   20.5320 H   0  0  0  0  0  0  0  0  0  0  0  0
  -26.3530  -15.7020   20.1000 H   0  0  0  0  0  0  0  0  0  0  0  0
  -27.9540  -22.8210   19.9440 C   0  0  0  0  0  2  0  0  0  0  0  0
  -28.6020  -23.9530   19.0690 C   0  0  0  0  0  2  0  0  0  0  0  0
  -28.4040  -25.3840   19.7100 C   0  0  0  0  0  2  0  0  0  0  0  0
  -28.3210  -26.5900   18.8760 O   0  0  0  0  0  0  0  0  0  0  0  0
  -24.5910  -31.3270   22.8110 C   0  0  0  0  0  0  0  0  0  0  0  0
  -27.1670  -27.3480   19.0470 C   0  0  0  0  0  0  0  0  0  0  0  0
  -23.3270  -30.0530   21.1150 C   0  0  0  0  0  3  0  0  0  0  0  0
  -24.7300  -28.7590   19.4230 C   0  0  0  0  0  0  0  0  0  0  0  0
  -25.8170  -30.5620   20.7670 C   0  0  0  0  0  2  0  0  0  0  0  0
  -25.9180  -29.2720   19.9620 C   0  0  0  0  0  0  0  0  0  0  0  0
  -27.1430  -28.5790   19.7630 C   0  0  0  0  0  3  0  0  0  0  0  0
  -25.9510  -26.8630   18.5200 C   0  0  0  0  0  3  0  0  0  0  0  0
  -24.7390  -27.5510   18.7080 C   0  0  0  0  0  3  0  0  0  0  0  0
  -23.4610  -29.5470   19.6540 C   0  0  0  0  0  2  0  0  0  0  0  0
  -24.6020  -30.6550   21.6230 N   0  0  0  0  0  0  0  0  0  0  0  0
  -23.5460  -31.4700   23.4600 O   0  0  0  0  0  0  0  0  0  0  0  0
  -22.8000  -28.8960   21.9970 C   0  0  0  0  0  0  0  0  0  0  0  0
  -21.4910  -28.6130   21.9020 N   0  0  0  0  0  0  0  0  0  0  0  0
  -23.5660  -28.2610   22.7250 O   0  0  0  0  0  0  0  0  0  0  0  0
  -20.9280  -29.1740   21.2770 H   0  0  0  0  0  0  0  0  0  0  0  0
  -18.2660  -27.0440   22.3670 C   0  0  0  0  0  0  0  0  0  0  0  0
  -20.7910  -27.5400   22.6100 C   0  0  0  0  0  3  0  0  0  0  0  0
  -21.0250  -26.1770   21.9200 C   0  0  0  0  0  2  0  0  0  0  0  0
  -19.9350  -25.8270   20.9020 C   0  0  0  0  0  2  0  0  0  0  0  0
  -18.5610  -25.7770   21.5800 C   0  0  0  0  0  2  0  0  0  0  0  0
  -19.3140  -27.8790   22.8390 C   0  0  0  0  0  0  0  0  0  0  0  0
  -18.9860  -29.0590   23.5380 C   0  0  0  0  0  3  0  0  0  0  0  0
  -17.6430  -29.4130   23.7650 C   0  0  0  0  0  3  0  0  0  0  0  0
  -16.6090  -28.5760   23.3110 C   0  0  0  0  0  3  0  0  0  0  0  0
  -16.9220  -27.3920   22.6190 C   0  0  0  0  0  3  0  0  0  0  0  0
  -25.8900  -31.9560   23.4020 C   0  0  0  0  0  3  0  0  0  0  0  0
  -25.5220  -33.2570   23.9790 N   0  0  0  0  0  0  0  0  0  0  0  0
  -25.7060  -34.4370   23.3740 C   0  0  0  0  0  0  0  0  0  0  0  0
  -26.2690  -34.5500   22.2820 O   0  0  0  0  0  0  0  0  0  0  0  0
  -24.9930  -33.2400   24.8380 H   0  0  0  0  0  0  0  0  0  0  0  0
  -23.8270  -36.1080   23.4830 C   0  0  0  0  0  1  0  0  0  0  0  0
  -25.1770  -35.6930   24.0920 C   0  0  0  0  0  3  0  0  0  0  0  0
  -27.3230  -36.6270   24.8370 C   0  0  0  0  0  1  0  0  0  0  0  0
  -26.1120  -36.8360   24.0450 N   0  0  0  0  0  0  0  0  0  0  0  0
  -25.6620  -37.6850   24.3750 H   0  0  0  0  0  0  0  0  0  0  0  0
  -26.5880  -31.0450   24.4850 C   0  0  1  0  0  0  0  0  0  0  0  0
  -25.6320  -30.5710   25.6030 C   0  0  0  0  0  1  0  0  0  0  0  0
  -27.2130  -29.7920   23.8290 C   0  0  0  0  0  1  0  0  0  0  0  0
  -27.7480  -31.8190   25.1560 C   0  0  0  0  0  1  0  0  0  0  0  0
  2  1  2  0
  3  1  1  0
  3  9  1  0
  4  7  2  0
  4  2  1  0
  5 49  1  0
  5  3  2  0
  6  4  1  0
  7  5  1  0
  9  8  1  0
 10  2  1  0
 10 12  1  0
 12 11  1  0
 13 12  1  0
 14 19  1  0
 15 16  1  0
 15 14  1  0
 17 16  1  0
 17 24  1  0
 17 18  1  0
 19 13  1  0
 19 18  1  0
 20 13  2  0
 21 22  2  0
 22 41  1  0
 23 22  1  0
 23 26  1  0
 24 25  1  0
 24 21  1  0
 25 23  2  0
 26 27  1  0
 27 28  2  0
 29 32  1  0
 29 28  1  0
 30 29  2  0
 31 30  1  0
 31 26  2  0
 32 33  1  0
 33 34  1  0
 34 35  2  0
 36 35  1  0
 36 40  1  0
 37 36  2  0
 38 33  2  0
 38 37  1  0
 39 38  1  0
 41 42  1  0
 42 45  1  0
 42 44  1  0
 43 41  2  0
 46 21  1  0
 46 47  1  0
 48 46  1  0
 50 51  1  0
 50 49  1  0
 52 54  1  0
 52 51  1  0
 53 64  2  0
 54 59  1  0
 55 63  1  0
 55 65  1  0
 56 62  1  0
 56 58  1  0
 57 63  1  0
 58 57  1  0
 59 58  2  0
 60 61  1  0
 60 54  2  0
 61 56  2  0
 62 55  1  0
 63 53  1  0
 65 67  2  0
 66 65  1  0
 68 66  1  0
 69 78  2  0
 69 74  1  0
 70 66  1  0
 70 74  1  0
 71 70  1  0
 72 73  1  0
 72 71  1  0
 73 69  1  0
 74 75  2  0
 75 76  1  0
 77 76  2  0
 78 77  1  0
 79 53  1  0
 79 80  1  0
 79 89  1  0
 80 83  1  0
 81 80  1  0
 81 85  1  0
 82 81  2  0
 85 84  1  0
 87 85  1  0
 87 88  1  0
 87 86  1  0
 89 92  1  1
 89 90  1  0
 91 89  1  0
M  ISO  4  12 100  13 100  51 101  52 101
M  END
>  <TORSDO>  (49) 
F 22

>  <SCORE>  (49) 
-11.307

>  <name>  (49) 
49

>  <ligand_id>  (49) 
49

>  <original_smiles>  (49) 
[H]c1c([H])c([H])c2c(c1[H])C([H])([H])C([H])([H])C([H])([H])C2([H])N([H])C(=O)C1([H])N(C(=O)C([H])(N([H])C(=O)C([H])(N([H])C([H])([H])[H])C([H])([H])[H])C(C([H])([H])[H])(C([H])([H])[H])C([H])([H])[H])C([H])([H])c2c([H])c(OC([H])([H])C([H])([H])C([H])([H])c3nc(C([H])([H])[H])c(C([H])([H])C([H])(C(=O)N4C([H])([H])C([H])([H])C([H])([H])C([H])(n5nc(-c6c([H])c([H])c(Oc7c([H])c([H])c(F)c([H])c7F)c([H])c6[H])c(C(=O)N([H])[H])c5N([H])[H])C4([H])[H])C([H])([H])[H])c([H])c3C([H])([H])C([H])([H])[H])c([H])c([H])c2C1([H])[H]

>  <smiles>  (49) 
[H]c1c([H])c([H])c2c(c1[H])C([H])([H])C([H])([H])C([H])([H])C2([H])N([H])C(=O)C1([H])N(C(=O)C([H])(N([H])C(=O)C([H])(N([H])C([H])([H])[H])C([H])([H])[H])C(C([H])([H])[H])(C([H])([H])[H])C([H])([H])[H])C([H])([H])c2c([H])c(OC([H])([H])C([H])([H])C([H])([H])c3nc(C([H])([H])[H])c(C([H])([H])C([H])(C(=O)N4C([H])([H])C([H])([H])C([H])([H])C([H])(n5nc(-c6c([H])c([H])c(Oc7c([H])c([H])c(F)c([H])c7F)c([H])c6[H])c(C(=O)N([H])[H])c5N([H])[H])C4([H])[H])C([H])([H])[H])c([H])c3C([H])([H])C([H])([H])[H])c([H])c([H])c2C1([H])[H]

$$$$
50:0:0
     RDKit          3D

 92100  0  0  1  0  0  0  0  0999 V2000
  -30.2100  -19.4820   19.0780 C   0  0  0  0  0  3  0  0  0  0  0  0
  -31.9650  -20.2250   20.1710 C   0  0  0  0  0  3  0  0  0  0  0  0
  -31.4560  -19.0650   19.6380 C   0  0  0  0  0  0  0  0  0  0  0  0
  -29.9790  -20.7770   19.2560 N   0  0  0  0  0  0  0  0  0  0  0  0
  -31.0620  -21.2380   19.9260 N   0  0  0  0  0  0  0  0  0  0  0  0
  -32.1070  -17.6930   19.6230 C   0  0  0  0  0  2  0  0  0  0  0  0
  -31.1600  -16.5630   19.1660 C   0  0  0  0  0  2  0  0  0  0  0  0
  -31.8140  -14.2210   18.9310 C   0  0  0  0  0  0  0  0  0  0  0  0
  -31.1880  -11.9970   18.0620 C   0  0  0  0  0  2  0  0  0  0  0  0
  -30.0990  -12.1270   16.9750 C   0  0  0  0  0  2  0  0  0  0  0  0
  -28.6940  -12.1410   17.6090 C   0  0  0  0  0  2  0  0  0  0  0  0
  -28.5810  -13.1580   18.7730 C   0  0  0  0  0  3  0  0  0  0  0  0
  -29.7610  -12.9970   19.7550 C   0  0  0  0  0  2  0  0  0  0  0  0
  -31.0250  -13.1120   19.0050 N   0  0  0  0  0  0  0  0  0  0  0  0
  -32.7270  -14.3400   18.1060 O   0  0  0  0  0  0  0  0  0  0  0  0
  -31.4680  -15.2430   19.7480 N   0  0  0  0  0  0  0  0  0  0  0  0
  -26.4030  -14.0530   19.8160 C   0  0  0  0  0  0  0  0  0  0  0  0
  -25.3270  -13.4150   20.3750 C   0  0  0  0  0  0  0  0  0  0  0  0
  -25.6160  -12.0190   20.3090 C   0  0  0  0  0  0  0  0  0  0  0  0
  -27.2940  -13.0490   19.4570 N   0  0  0  0  0  0  0  0  0  0  0  0
  -26.8280  -11.8220   19.8020 N   0  0  0  0  0  0  0  0  0  0  0  0
  -24.7880  -10.8530   20.6450 C   0  0  0  0  0  0  0  0  0  0  0  0
  -25.0680  -10.0470   21.7720 C   0  0  0  0  0  3  0  0  0  0  0  0
  -24.2530   -8.9370   22.0810 C   0  0  0  0  0  3  0  0  0  0  0  0
  -23.1380   -8.6320   21.2660 C   0  0  0  0  0  0  0  0  0  0  0  0
  -22.8770   -9.4200   20.1320 C   0  0  0  0  0  3  0  0  0  0  0  0
  -23.6930  -10.5190   19.8220 C   0  0  0  0  0  3  0  0  0  0  0  0
  -22.2990   -7.5640   21.4760 O   0  0  0  0  0  0  0  0  0  0  0  0
  -21.8790   -7.2110   22.7320 C   0  0  0  0  0  0  0  0  0  0  0  0
  -21.1770   -8.1110   23.5650 C   0  0  0  0  0  3  0  0  0  0  0  0
  -20.7140   -7.6840   24.8270 C   0  0  0  0  0  3  0  0  0  0  0  0
  -20.9390   -6.3600   25.2500 C   0  0  0  0  0  0  0  0  0  0  0  0
  -21.6320   -5.4620   24.4160 C   0  0  0  0  0  3  0  0  0  0  0  0
  -22.0980   -5.8870   23.1600 C   0  0  0  0  0  0  0  0  0  0  0  0
  -22.7510   -5.0130   22.3550 F   0  0  0  0  0  0  0  0  0  0  0  0
  -20.4810   -5.9460   26.4550 F   0  0  0  0  0  0  0  0  0  0  0  0
  -24.0540  -14.0560   20.8510 C   0  0  0  0  0  0  0  0  0  0  0  0
  -23.4370  -13.5020   21.8890 N   0  0  0  0  0  0  0  0  0  0  0  0
  -23.6170  -15.0830   20.3330 O   0  0  0  0  0  0  0  0  0  0  0  0
  -23.8050  -12.6730   22.3320 H   0  0  0  0  0  0  0  0  0  0  0  0
  -22.5840  -13.9090   22.2450 H   0  0  0  0  0  0  0  0  0  0  0  0
  -26.6830  -15.3910   19.5570 N   0  0  0  0  0  0  0  0  0  0  0  0
  -25.9870  -16.1180   19.6920 H   0  0  0  0  0  0  0  0  0  0  0  0
  -27.4800  -15.7080   19.0170 H   0  0  0  0  0  0  0  0  0  0  0  0
  -31.8850  -15.1880   21.1620 C   0  0  0  0  0  2  0  0  0  0  0  0
  -31.2740  -15.7690   23.5740 C   0  0  0  0  0  1  0  0  0  0  0  0
  -31.0820  -16.1190   22.0930 C   0  0  0  0  0  2  0  0  0  0  0  0
  -31.1870  -22.6660   20.2010 C   0  0  0  0  0  2  0  0  0  0  0  0
  -29.8630  -23.3490   20.6230 C   0  0  0  0  0  2  0  0  0  0  0  0
  -29.6280  -24.7030   19.9200 C   0  0  0  0  0  2  0  0  0  0  0  0
  -28.4040  -25.4730   20.4510 C   0  0  0  0  0  2  0  0  0  0  0  0
  -28.3580  -26.7420   19.8090 O   0  0  0  0  0  0  0  0  0  0  0  0
  -24.6480  -31.8270   23.1360 C   0  0  0  0  0  0  0  0  0  0  0  0
  -27.1760  -27.4300   19.9280 C   0  0  0  0  0  0  0  0  0  0  0  0
  -23.3820  -30.4650   21.5010 C   0  0  0  0  0  3  0  0  0  0  0  0
  -24.7830  -28.9220   20.0290 C   0  0  0  0  0  0  0  0  0  0  0  0
  -25.9020  -30.8040   21.2440 C   0  0  0  0  0  2  0  0  0  0  0  0
  -25.9590  -29.4400   20.5890 C   0  0  0  0  0  0  0  0  0  0  0  0
  -27.1600  -28.7030   20.5330 C   0  0  0  0  0  3  0  0  0  0  0  0
  -25.9880  -26.9090   19.3730 C   0  0  0  0  0  3  0  0  0  0  0  0
  -24.7890  -27.6520   19.4220 C   0  0  0  0  0  3  0  0  0  0  0  0
  -23.5490  -29.7940   20.1110 C   0  0  0  0  0  2  0  0  0  0  0  0
  -24.6640  -31.0460   22.0190 N   0  0  0  0  0  0  0  0  0  0  0  0
  -23.5870  -32.1030   23.7100 O   0  0  0  0  0  0  0  0  0  0  0  0
  -22.7420  -29.4400   22.4660 C   0  0  0  0  0  0  0  0  0  0  0  0
  -21.4050  -29.3190   22.4070 N   0  0  0  0  0  0  0  0  0  0  0  0
  -23.4420  -28.7580   23.2180 O   0  0  0  0  0  0  0  0  0  0  0  0
  -20.9030  -29.9200   21.7690 H   0  0  0  0  0  0  0  0  0  0  0  0
  -18.0100  -28.3240   23.1200 C   0  0  0  0  0  0  0  0  0  0  0  0
  -20.5930  -28.3920   23.1920 C   0  0  0  0  0  3  0  0  0  0  0  0
  -20.5480  -26.9950   22.5310 C   0  0  0  0  0  2  0  0  0  0  0  0
  -19.3500  -26.8100   21.5950 C   0  0  0  0  0  2  0  0  0  0  0  0
  -18.0370  -27.0100   22.3570 C   0  0  0  0  0  2  0  0  0  0  0  0
  -19.2100  -28.9810   23.4990 C   0  0  0  0  0  0  0  0  0  0  0  0
  -19.1310  -30.2180   24.1740 C   0  0  0  0  0  3  0  0  0  0  0  0
  -17.8810  -30.7930   24.4740 C   0  0  0  0  0  3  0  0  0  0  0  0
  -16.6960  -30.1320   24.1110 C   0  0  0  0  0  3  0  0  0  0  0  0
  -16.7610  -28.8980   23.4390 C   0  0  0  0  0  3  0  0  0  0  0  0
  -25.9610  -32.4260   23.7340 C   0  0  0  0  0  3  0  0  0  0  0  0
  -25.6760  -33.8080   24.1350 N   0  0  0  0  0  0  0  0  0  0  0  0
  -25.9810  -34.8900   23.4080 C   0  0  0  0  0  0  0  0  0  0  0  0
  -26.6080  -34.8290   22.3450 O   0  0  0  0  0  0  0  0  0  0  0  0
  -25.1160  -33.9300   24.9670 H   0  0  0  0  0  0  0  0  0  0  0  0
  -24.2460  -36.6930   23.1960 C   0  0  0  0  0  1  0  0  0  0  0  0
  -25.5180  -36.2580   23.9420 C   0  0  0  0  0  3  0  0  0  0  0  0
  -27.6820  -37.1080   24.7300 C   0  0  0  0  0  1  0  0  0  0  0  0
  -26.5490  -37.3140   23.8300 N   0  0  0  0  0  0  0  0  0  0  0  0
  -26.1510  -38.2280   24.0250 H   0  0  0  0  0  0  0  0  0  0  0  0
  -26.5280  -31.5980   24.9510 C   0  0  1  0  0  0  0  0  0  0  0  0
  -25.4720  -31.2950   26.0390 C   0  0  0  0  0  1  0  0  0  0  0  0
  -27.1140  -30.2520   24.4660 C   0  0  0  0  0  1  0  0  0  0  0  0
  -27.6900  -32.3760   25.6140 C   0  0  0  0  0  1  0  0  0  0  0  0
  1  4  2  0
  1  3  1  0
  3  2  2  0
  4  5  1  0
  5  2  1  0
  5 48  1  0
  6  3  1  0
  7  6  1  0
  7 16  1  0
  8 14  1  0
  8 16  1  0
  9 14  1  0
 10 11  1  0
 10  9  1  0
 12 11  1  0
 12 20  1  0
 12 13  1  0
 14 13  1  0
 15  8  2  0
 16 45  1  0
 17 18  2  0
 18 37  1  0
 19 18  1  0
 19 22  1  0
 20 21  1  0
 20 17  1  0
 21 19  2  0
 22 23  1  0
 23 24  2  0
 25 28  1  0
 25 24  1  0
 26 25  2  0
 27 26  1  0
 27 22  2  0
 28 29  1  0
 29 34  2  0
 29 30  1  0
 30 31  2  0
 31 32  1  0
 32 36  1  0
 33 32  2  0
 34 33  1  0
 35 34  1  0
 37 38  1  0
 38 41  1  0
 38 40  1  0
 39 37  2  0
 42 43  1  0
 42 17  1  0
 44 42  1  0
 45 47  1  0
 47 46  1  0
 48 49  1  0
 50 51  1  0
 50 49  1  0
 52 54  1  0
 52 51  1  0
 53 64  2  0
 54 59  1  0
 55 63  1  0
 55 65  1  0
 56 62  1  0
 56 58  1  0
 57 63  1  0
 58 57  1  0
 59 58  2  0
 60 61  1  0
 60 54  2  0
 61 56  2  0
 62 55  1  0
 63 53  1  0
 65 67  2  0
 66 65  1  0
 68 66  1  0
 69 78  2  0
 69 74  1  0
 70 66  1  0
 70 74  1  0
 71 70  1  0
 72 73  1  0
 72 71  1  0
 73 69  1  0
 74 75  2  0
 75 76  1  0
 77 76  2  0
 78 77  1  0
 79 53  1  0
 79 80  1  0
 79 89  1  0
 80 83  1  0
 81 85  1  0
 81 80  1  0
 82 81  2  0
 85 84  1  0
 87 85  1  0
 87 88  1  0
 87 86  1  0
 89 92  1  1
 89 90  1  0
 91 89  1  0
M  ISO  4   8 100  16 100  51 101  52 101
M  END
>  <TORSDO>  (50) 
F 24

>  <SCORE>  (50) 
-5.906

>  <name>  (50) 
50

>  <ligand_id>  (50) 
50

>  <original_smiles>  (50) 
[H]c1nn(C([H])([H])C([H])([H])C([H])([H])C([H])([H])Oc2c([H])c([H])c3c(c2[H])C([H])([H])N(C(=O)C([H])(N([H])C(=O)C([H])(N([H])C([H])([H])[H])C([H])([H])[H])C(C([H])([H])[H])(C([H])([H])[H])C([H])([H])[H])C([H])(C(=O)N([H])C2([H])c4c([H])c([H])c([H])c([H])c4C([H])([H])C([H])([H])C2([H])[H])C3([H])[H])c([H])c1C([H])([H])C([H])([H])N(C(=O)N1C([H])([H])C([H])([H])C([H])([H])C([H])(n2nc(-c3c([H])c([H])c(Oc4c([H])c([H])c(F)c([H])c4F)c([H])c3[H])c(C(=O)N([H])[H])c2N([H])[H])C1([H])[H])C([H])([H])C([H])([H])C([H])([H])[H]

>  <smiles>  (50) 
[H]c1nn(C([H])([H])C([H])([H])C([H])([H])C([H])([H])Oc2c([H])c([H])c3c(c2[H])C([H])([H])N(C(=O)C([H])(N([H])C(=O)C([H])(N([H])C([H])([H])[H])C([H])([H])[H])C(C([H])([H])[H])(C([H])([H])[H])C([H])([H])[H])C([H])(C(=O)N([H])C2([H])c4c([H])c([H])c([H])c([H])c4C([H])([H])C([H])([H])C2([H])[H])C3([H])[H])c([H])c1C([H])([H])C([H])([H])N(C(=O)N1C([H])([H])C([H])([H])C([H])([H])C([H])(n2nc(-c3c([H])c([H])c(Oc4c([H])c([H])c(F)c([H])c4F)c([H])c3[H])c(C(=O)N([H])[H])c2N([H])[H])C1([H])[H])C([H])([H])C([H])([H])C([H])([H])[H]

$$$$
51:0:0
     RDKit          3D

 90 98  0  0  1  0  0  0  0  0999 V2000
  -29.6920  -20.5390   20.8790 C   0  0  0  0  0  0  0  0  0  0  0  0
  -30.4070  -20.8740   22.0880 C   0  0  0  0  0  0  0  0  0  0  0  0
  -30.0410  -19.1100   20.7300 C   0  0  0  0  0  0  0  0  0  0  0  0
  -30.5120  -22.1480   22.8820 C   0  0  0  0  0  1  0  0  0  0  0  0
  -31.7030  -17.6750   22.1120 C   0  0  0  0  0  1  0  0  0  0  0  0
  -31.1100  -19.8950   22.5890 N   0  0  0  0  0  0  0  0  0  0  0  0
  -30.9290  -18.8600   21.7770 N   0  0  0  0  0  0  0  0  0  0  0  0
  -28.7990  -21.7550   20.1570 C   0  0  0  0  0  2  0  0  0  0  0  0
  -28.9040  -23.4260   20.5240 C   0  0  0  0  0  3  0  0  0  0  0  0
  -28.0010  -24.7270   19.9300 C   0  0  0  0  0  3  0  0  0  0  0  0
  -28.1870  -26.2500   20.2480 O   0  0  0  0  0  0  0  0  0  0  0  0
  -24.6660  -31.9970   23.2290 C   0  0  0  0  0  0  0  0  0  0  0  0
  -27.1300  -27.2350   20.1720 C   0  0  0  0  0  0  0  0  0  0  0  0
  -23.4110  -30.5890   21.6430 C   0  0  0  0  0  3  0  0  0  0  0  0
  -24.8080  -28.9930   20.1880 C   0  0  0  0  0  0  0  0  0  0  0  0
  -25.9580  -30.8400   21.3970 C   0  0  0  0  0  2  0  0  0  0  0  0
  -26.0060  -29.4390   20.7600 C   0  0  0  0  0  0  0  0  0  0  0  0
  -27.1650  -28.5750   20.7360 C   0  0  0  0  0  3  0  0  0  0  0  0
  -25.9090  -26.8980   19.5460 C   0  0  0  0  0  3  0  0  0  0  0  0
  -24.7730  -27.7370   19.5650 C   0  0  0  0  0  3  0  0  0  0  0  0
  -23.5860  -29.8950   20.2660 C   0  0  0  0  0  2  0  0  0  0  0  0
  -24.7000  -31.1650   22.1440 N   0  0  0  0  0  0  0  0  0  0  0  0
  -23.5970  -32.2930   23.7870 O   0  0  0  0  0  0  0  0  0  0  0  0
  -22.7570  -29.5960   22.6370 C   0  0  0  0  0  0  0  0  0  0  0  0
  -21.4390  -29.3660   22.4980 N   0  0  0  0  0  0  0  0  0  0  0  0
  -23.4380  -29.0320   23.4980 O   0  0  0  0  0  0  0  0  0  0  0  0
  -20.9430  -29.8740   21.7770 H   0  0  0  0  0  0  0  0  0  0  0  0
  -18.1110  -28.0080   22.9590 C   0  0  0  0  0  0  0  0  0  0  0  0
  -20.6420  -28.4290   23.2940 C   0  0  0  0  0  3  0  0  0  0  0  0
  -20.8400  -26.9750   22.8080 C   0  0  0  0  0  2  0  0  0  0  0  0
  -19.7950  -26.5340   21.7790 C   0  0  0  0  0  2  0  0  0  0  0  0
  -18.3850  -26.6360   22.3680 C   0  0  0  0  0  2  0  0  0  0  0  0
  -19.1710  -28.8570   23.3790 C   0  0  0  0  0  0  0  0  0  0  0  0
  -18.8610  -30.1350   23.8930 C   0  0  0  0  0  3  0  0  0  0  0  0
  -17.5240  -30.5680   23.9900 C   0  0  0  0  0  3  0  0  0  0  0  0
  -16.4790  -29.7200   23.5840 C   0  0  0  0  0  3  0  0  0  0  0  0
  -16.7740  -28.4410   23.0760 C   0  0  0  0  0  3  0  0  0  0  0  0
  -25.9640  -32.6340   23.8110 C   0  0  0  0  0  3  0  0  0  0  0  0
  -26.5320  -31.8510   25.0590 C   0  0  1  0  0  0  0  0  0  0  0  0
  -25.4690  -31.5560   26.1450 C   0  0  0  0  0  1  0  0  0  0  0  0
  -27.1490  -30.5010   24.6290 C   0  0  0  0  0  1  0  0  0  0  0  0
  -27.6720  -32.6660   25.7150 C   0  0  0  0  0  1  0  0  0  0  0  0
  -25.6580  -34.0260   24.1760 N   0  0  0  0  0  0  0  0  0  0  0  0
  -25.9370  -35.0940   23.4170 C   0  0  0  0  0  0  0  0  0  0  0  0
  -26.5470  -35.0110   22.3480 O   0  0  0  0  0  0  0  0  0  0  0  0
  -25.1090  -34.1630   25.0120 H   0  0  0  0  0  0  0  0  0  0  0  0
  -24.1830  -36.8840   23.1850 C   0  0  0  0  0  1  0  0  0  0  0  0
  -25.4680  -36.4730   23.9230 C   0  0  0  0  0  3  0  0  0  0  0  0
  -27.6270  -37.3710   24.6710 C   0  0  0  0  0  1  0  0  0  0  0  0
  -26.4870  -37.5340   23.7730 N   0  0  0  0  0  0  0  0  0  0  0  0
  -26.0810  -38.4510   23.9400 H   0  0  0  0  0  0  0  0  0  0  0  0
  -29.8670  -17.7990   19.7610 C   0  0  0  0  0  2  0  0  0  0  0  0
  -30.6090  -15.1140   19.9710 C   0  0  0  0  0  0  0  0  0  0  0  0
  -30.4900  -12.7530   19.0640 C   0  0  0  0  0  2  0  0  0  0  0  0
  -29.5000  -12.6990   17.8760 C   0  0  0  0  0  2  0  0  0  0  0  0
  -28.0600  -12.4740   18.3750 C   0  0  0  0  0  2  0  0  0  0  0  0
  -27.7000  -13.3920   19.5720 C   0  0  0  0  0  3  0  0  0  0  0  0
  -28.8070  -13.4130   20.6490 C   0  0  0  0  0  2  0  0  0  0  0  0
  -30.0460  -13.8390   19.9860 N   0  0  0  0  0  0  0  0  0  0  0  0
  -31.7730  -15.2110   19.5680 O   0  0  0  0  0  0  0  0  0  0  0  0
  -29.8110  -16.2680   20.2080 N   0  0  0  0  0  0  0  0  0  0  0  0
  -28.9090  -16.0220   20.5850 H   0  0  0  0  0  0  0  0  0  0  0  0
  -25.3600  -13.9460   20.4490 C   0  0  0  0  0  0  0  0  0  0  0  0
  -24.3190  -13.1590   20.8580 C   0  0  0  0  0  0  0  0  0  0  0  0
  -24.7840  -11.8110   20.7680 C   0  0  0  0  0  0  0  0  0  0  0  0
  -26.3900  -13.0770   20.1310 N   0  0  0  0  0  0  0  0  0  0  0  0
  -26.0560  -11.7860   20.3880 N   0  0  0  0  0  0  0  0  0  0  0  0
  -24.0690  -10.5430   20.9660 C   0  0  0  0  0  0  0  0  0  0  0  0
  -24.5100   -9.5830   21.9040 C   0  0  0  0  0  3  0  0  0  0  0  0
  -23.7950   -8.3800   22.0890 C   0  0  0  0  0  3  0  0  0  0  0  0
  -22.6220   -8.1280   21.3360 C   0  0  0  0  0  0  0  0  0  0  0  0
  -22.2020   -9.0770   20.3870 C   0  0  0  0  0  3  0  0  0  0  0  0
  -22.9180  -10.2710   20.2000 C   0  0  0  0  0  3  0  0  0  0  0  0
  -21.8770   -6.9790   21.4310 O   0  0  0  0  0  0  0  0  0  0  0  0
  -21.7970   -6.2670   22.6010 C   0  0  0  0  0  0  0  0  0  0  0  0
  -21.2510   -6.8270   23.7780 C   0  0  0  0  0  3  0  0  0  0  0  0
  -21.1240   -6.0380   24.9380 C   0  0  0  0  0  3  0  0  0  0  0  0
  -21.5320   -4.6910   24.9240 C   0  0  0  0  0  0  0  0  0  0  0  0
  -22.0720   -4.1310   23.7520 C   0  0  0  0  0  3  0  0  0  0  0  0
  -22.2000   -4.9160   22.5930 C   0  0  0  0  0  0  0  0  0  0  0  0
  -22.7010   -4.3660   21.4600 F   0  0  0  0  0  0  0  0  0  0  0  0
  -21.4040   -3.9310   26.0360 F   0  0  0  0  0  0  0  0  0  0  0  0
  -22.9370  -13.6250   21.2140 C   0  0  0  0  0  0  0  0  0  0  0  0
  -22.2500  -12.8980   22.0880 N   0  0  0  0  0  0  0  0  0  0  0  0
  -22.4780  -14.6700   20.7540 O   0  0  0  0  0  0  0  0  0  0  0  0
  -22.6370  -12.0530   22.4810 H   0  0  0  0  0  0  0  0  0  0  0  0
  -21.3250  -13.1920   22.3680 H   0  0  0  0  0  0  0  0  0  0  0  0
  -25.5090  -15.3220   20.2950 N   0  0  0  0  0  0  0  0  0  0  0  0
  -24.7390  -15.9620   20.4520 H   0  0  0  0  0  0  0  0  0  0  0  0
  -26.3170  -15.7690   19.8820 H   0  0  0  0  0  0  0  0  0  0  0  0
  1  2  1  0
  2  6  2  0
  2  4  1  0
  3  1  2  0
  3  7  1  0
  7  5  1  0
  7  6  1  0
  8  9  1  0
  8  1  1  0
 10 11  1  0
 10  9  2  0
 12 23  2  0
 13 11  1  0
 13 18  1  0
 14 22  1  0
 14 24  1  0
 15 21  1  0
 15 17  1  0
 16 22  1  0
 17 16  1  0
 18 17  2  0
 19 20  1  0
 19 13  2  0
 20 15  2  0
 21 14  1  0
 22 12  1  0
 24 26  2  0
 25 24  1  0
 27 25  1  0
 28 37  2  0
 28 33  1  0
 29 25  1  0
 29 33  1  0
 30 29  1  0
 31 32  1  0
 31 30  1  0
 32 28  1  0
 33 34  2  0
 34 35  1  0
 36 35  2  0
 37 36  1  0
 38 12  1  0
 38 43  1  0
 38 39  1  0
 39 42  1  1
 39 40  1  0
 41 39  1  0
 43 46  1  0
 44 48  1  0
 44 43  1  0
 45 44  2  0
 48 47  1  0
 50 48  1  0
 50 51  1  0
 50 49  1  0
 52 61  1  0
 52  3  1  0
 53 59  1  0
 53 61  1  0
 54 59  1  0
 55 56  1  0
 55 54  1  0
 57 56  1  0
 57 66  1  0
 57 58  1  0
 59 58  1  0
 60 53  2  0
 61 62  1  0
 63 64  2  0
 64 83  1  0
 65 64  1  0
 65 68  1  0
 66 67  1  0
 66 63  1  0
 67 65  2  0
 68 69  1  0
 69 70  2  0
 71 74  1  0
 71 70  1  0
 72 71  2  0
 73 72  1  0
 73 68  2  0
 74 75  1  0
 75 76  1  0
 76 77  2  0
 78 77  1  0
 78 82  1  0
 79 78  2  0
 80 75  2  0
 80 79  1  0
 81 80  1  0
 83 84  1  0
 84 87  1  0
 84 86  1  0
 85 83  2  0
 88 63  1  0
 88 89  1  0
 90 88  1  0
M  ISO  4  10 101  11 101  53 100  61 100
M  END
>  <TORSDO>  (51) 
F 20

>  <SCORE>  (51) 
-14.270

>  <name>  (51) 
51

>  <ligand_id>  (51) 
51

>  <original_smiles>  (51) 
[H]c1c([H])c([H])c2c(c1[H])C([H])([H])C([H])([H])C([H])([H])C2([H])N([H])C(=O)C1([H])N(C(=O)C([H])(N([H])C(=O)C([H])(N([H])C([H])([H])[H])C([H])([H])[H])C(C([H])([H])[H])(C([H])([H])[H])C([H])([H])[H])C([H])([H])c2c([H])c(OC([H])([H])C([H])([H])C([H])([H])c3c(C([H])([H])[H])nn(C([H])([H])[H])c3C([H])([H])N([H])C(=O)N3C([H])([H])C([H])([H])C([H])([H])C([H])(n4nc(-c5c([H])c([H])c(Oc6c([H])c([H])c(F)c([H])c6F)c([H])c5[H])c(C(=O)N([H])[H])c4N([H])[H])C3([H])[H])c([H])c([H])c2C1([H])[H]

>  <smiles>  (51) 
[H]c1c([H])c([H])c2c(c1[H])C([H])([H])C([H])([H])C([H])([H])C2([H])N([H])C(=O)C1([H])N(C(=O)C([H])(N([H])C(=O)C([H])(N([H])C([H])([H])[H])C([H])([H])[H])C(C([H])([H])[H])(C([H])([H])[H])C([H])([H])[H])C([H])([H])c2c([H])c(OC([H])([H])C([H])([H])C([H])([H])c3c(C([H])([H])[H])nn(C([H])([H])[H])c3C([H])([H])N([H])C(=O)N3C([H])([H])C([H])([H])C([H])([H])C([H])(n4nc(-c5c([H])c([H])c(Oc6c([H])c([H])c(F)c([H])c6F)c([H])c5[H])c(C(=O)N([H])[H])c4N([H])[H])C3([H])[H])c([H])c([H])c2C1([H])[H]

$$$$
52:0:0
     RDKit          3D

 95101  0  0  1  0  0  0  0  0999 V2000
  -27.9000  -15.5260   18.7120 C   0  0  0  0  0  3  0  0  0  0  0  0
  -27.9590  -13.6730   18.4890 C   0  0  1  0  0  0  0  0  0  0  0  0
  -27.9690  -16.4190   20.2550 C   0  0  0  0  0  2  0  0  0  0  0  0
  -28.2820  -13.5470   21.5800 C   0  0  0  0  0  0  0  0  0  0  0  0
  -28.2990  -12.6450   20.0440 N   0  0  0  0  0  0  0  0  0  0  0  0
  -28.1790  -15.3050   21.5810 N   0  0  0  0  0  0  0  0  0  0  0  0
  -27.3030  -13.0080   23.9000 C   0  0  0  0  0  1  0  0  0  0  0  0
  -28.4440  -12.7970   22.9000 C   0  0  0  0  0  2  0  0  0  0  0  0
  -28.0660  -11.5050   17.1100 C   0  0  0  0  0  1  0  0  0  0  0  0
  -27.7430  -13.0050   17.1290 C   0  0  0  0  0  2  0  0  0  0  0  0
  -28.6020  -16.3980   17.6180 C   0  0  0  0  0  2  0  0  0  0  0  0
  -30.1190  -16.8470   17.9890 C   0  0  0  0  0  2  0  0  0  0  0  0
  -31.5720  -16.2090   18.3040 C   0  0  0  0  0  2  0  0  0  0  0  0
  -32.3950  -14.5500   20.1580 C   0  0  0  0  0  0  0  0  0  0  0  0
  -32.0100  -12.2410   19.3560 C   0  0  0  0  0  2  0  0  0  0  0  0
  -31.4820  -12.6360   18.0230 C   0  0  0  0  0  2  0  0  0  0  0  0
  -30.1430  -13.1970   18.2220 C   0  0  0  0  0  2  0  0  0  0  0  0
  -29.4240  -14.0820   19.6050 C   0  0  2  0  0  0  0  0  0  0  0  0
  -30.4220  -13.3700   20.6860 C   0  0  0  0  0  2  0  0  0  0  0  0
  -31.6980  -13.4000   20.1870 N   0  0  0  0  0  0  0  0  0  0  0  0
  -33.5760  -14.5070   20.3650 O   0  0  0  0  0  0  0  0  0  0  0  0
  -31.8830  -15.7450   19.7170 N   0  0  0  0  0  0  0  0  0  0  0  0
  -32.3280  -16.4980   20.2220 H   0  0  0  0  0  0  0  0  0  0  0  0
  -25.5530  -14.4500   20.6310 C   0  0  0  0  0  3  0  0  0  0  0  0
  -24.7530  -13.3970   21.0050 C   0  0  1  0  0  0  0  0  0  0  0  0
  -25.3070  -12.1310   20.7230 C   0  0  0  0  0  3  0  0  0  0  0  0
  -26.5020  -14.0060   19.8510 N   0  0  0  0  0  2  0  0  0  0  0  0
  -25.7400  -12.6980   19.6290 N   0  0  0  0  0  0  0  0  0  0  0  0
  -24.7920  -10.6900   20.8410 C   0  0  0  0  0  0  0  0  0  0  0  0
  -25.1860   -9.7520   21.8500 C   0  0  0  0  0  3  0  0  0  0  0  0
  -24.5010   -8.5130   22.0470 C   0  0  0  0  0  3  0  0  0  0  0  0
  -23.3920   -8.1680   21.2340 C   0  0  0  0  0  0  0  0  0  0  0  0
  -23.0470   -9.0570   20.1990 C   0  0  0  0  0  3  0  0  0  0  0  0
  -23.7370  -10.2740   20.0000 C   0  0  0  0  0  3  0  0  0  0  0  0
  -22.6470   -7.0050   21.3320 O   0  0  0  0  0  0  0  0  0  0  0  0
  -22.4040   -6.3540   22.5240 C   0  0  0  0  0  0  0  0  0  0  0  0
  -21.7880   -6.9970   23.6220 C   0  0  0  0  0  3  0  0  0  0  0  0
  -21.5010   -6.2740   24.8000 C   0  0  0  0  0  3  0  0  0  0  0  0
  -21.8160   -4.9060   24.8840 C   0  0  0  0  0  0  0  0  0  0  0  0
  -22.4070   -4.2530   23.7890 C   0  0  0  0  0  3  0  0  0  0  0  0
  -22.6930   -4.9750   22.6130 C   0  0  0  0  0  0  0  0  0  0  0  0
  -23.2420   -4.3270   21.5560 F   0  0  0  0  0  0  0  0  0  0  0  0
  -21.5430   -4.2140   26.0150 F   0  0  0  0  0  0  0  0  0  0  0  0
  -23.3260  -13.6260   20.9940 C   0  0  0  0  0  0  0  0  0  0  0  0
  -22.6150  -12.8790   21.8090 N   0  0  0  0  0  0  0  0  0  0  0  0
  -22.8690  -14.4820   20.2430 O   0  0  0  0  0  0  0  0  0  0  0  0
  -23.0560  -12.2020   22.4120 H   0  0  0  0  0  0  0  0  0  0  0  0
  -21.6110  -12.9820   21.8330 H   0  0  0  0  0  0  0  0  0  0  0  0
  -25.5110  -15.7920   20.7750 N   0  0  0  0  0  0  0  0  0  0  0  0
  -25.0270  -15.9940   21.6420 H   0  0  0  0  0  0  0  0  0  0  0  0
  -26.5150  -15.9040   20.9520 H   0  0  0  0  0  0  0  0  0  0  0  0
  -27.6600  -18.5170   20.4190 C   0  0  0  0  0 15  0  0  0  0  0  0
  -28.2300  -20.6790   20.4850 C   0  0  0  0  0 15  0  0  0  0  0  0
  -27.7040  -22.8590   20.5400 C   0  0  0  0  0 15  0  0  0  0  0  0
  -28.1340  -24.8190   20.6350 O   0  0  0  0  0  1  0  0  0  0  0  0
  -24.9280  -31.8470   23.3130 C   0  0  0  0  0  0  0  0  0  0  0  0
  -27.4290  -26.3340   20.5530 C   0  0  0  0  0  0  0  0  0  0  0  0
  -23.8690  -30.3940   21.6620 C   0  0  0  0  0  3  0  0  0  0  0  0
  -25.3780  -28.7070   20.3260 C   0  0  0  0  0  0  0  0  0  0  0  0
  -26.4600  -30.4380   21.7110 C   0  0  0  0  0  2  0  0  0  0  0  0
  -26.5360  -28.9550   21.0670 C   0  0  0  0  0  0  0  0  0  0  0  0
  -27.5540  -27.8010   21.1340 C   0  0  0  0  0  3  0  0  0  0  0  0
  -26.3110  -26.4520   19.6990 C   0  0  0  0  0  3  0  0  0  0  0  0
  -25.3420  -27.5030   19.6090 C   0  0  0  0  0  3  0  0  0  0  0  0
  -24.1940  -29.7010   20.3050 C   0  0  0  0  0  2  0  0  0  0  0  0
  -25.1170  -30.9450   22.2760 N   0  0  0  0  0  0  0  0  0  0  0  0
  -23.7950  -32.1310   23.7450 O   0  0  0  0  0  0  0  0  0  0  0  0
  -23.1270  -29.4130   22.6130 C   0  0  0  0  0  0  0  0  0  0  0  0
  -21.8080  -29.2060   22.4240 N   0  0  0  0  0  0  0  0  0  0  0  0
  -23.7560  -28.8390   23.5050 O   0  0  0  0  0  0  0  0  0  0  0  0
  -21.3440  -29.7200   21.6870 H   0  0  0  0  0  0  0  0  0  0  0  0
  -18.4600  -27.8290   22.7950 C   0  0  0  0  0  0  0  0  0  0  0  0
  -20.9860  -28.2490   23.1790 C   0  0  0  0  0  3  0  0  0  0  0  0
  -21.1940  -26.8090   22.6540 C   0  0  0  0  0  2  0  0  0  0  0  0
  -20.1700  -26.4030   21.5900 C   0  0  0  0  0  2  0  0  0  0  0  0
  -18.7500  -26.4810   22.1560 C   0  0  0  0  0  2  0  0  0  0  0  0
  -19.5110  -28.6660   23.2600 C   0  0  0  0  0  0  0  0  0  0  0  0
  -19.1870  -29.9190   23.8240 C   0  0  0  0  0  3  0  0  0  0  0  0
  -17.8480  -30.3410   23.9240 C   0  0  0  0  0  3  0  0  0  0  0  0
  -16.8120  -29.5070   23.4700 C   0  0  0  0  0  3  0  0  0  0  0  0
  -17.1180  -28.2520   22.9120 C   0  0  0  0  0  3  0  0  0  0  0  0
  -26.1120  -32.5850   24.0080 C   0  0  0  0  0  3  0  0  0  0  0  0
  -25.6980  -33.9800   24.2950 N   0  0  0  0  0  0  0  0  0  0  0  0
  -26.0470  -35.0660   23.5880 C   0  0  0  0  0  0  0  0  0  0  0  0
  -26.8040  -35.0030   22.6160 O   0  0  0  0  0  0  0  0  0  0  0  0
  -25.0250  -34.0990   25.0400 H   0  0  0  0  0  0  0  0  0  0  0  0
  -24.2800  -36.8120   23.1300 C   0  0  0  0  0  1  0  0  0  0  0  0
  -25.4780  -36.4400   24.0190 C   0  0  0  0  0  3  0  0  0  0  0  0
  -27.5110  -37.4140   25.0010 C   0  0  0  0  0  1  0  0  0  0  0  0
  -26.4750  -37.5350   23.9810 N   0  0  0  0  0  0  0  0  0  0  0  0
  -26.0210  -38.4370   24.0920 H   0  0  0  0  0  0  0  0  0  0  0  0
  -26.5560  -31.8960   25.3580 C   0  0  1  0  0  0  0  0  0  0  0  0
  -25.3920  -31.6290   26.3420 C   0  0  0  0  0  1  0  0  0  0  0  0
  -27.2490  -30.5430   25.0930 C   0  0  0  0  0  1  0  0  0  0  0  0
  -27.5980  -32.7800   26.0830 C   0  0  0  0  0  1  0  0  0  0  0  0
  1 11  1  0
  1  3  1  0
  2 10  1  6
  2  1  1  0
  2 18  1  0
  2  5  1  0
  3  6  1  0
  4  6  2  0
  4  8  1  0
  5  4  1  0
  8  7  1  0
  9 10  1  0
 11 12  1  0
 12 13  1  0
 13 22  1  0
 14 20  1  0
 14 21  2  0
 15 20  1  0
 16 17  1  0
 16 15  1  0
 18 17  1  6
 18  5  1  0
 18 19  1  0
 20 19  1  0
 22 14  1  0
 22 23  1  0
 24 49  1  0
 24 25  1  0
 25 44  1  1
 26 29  1  0
 26 25  1  0
 27 24  1  0
 28 27  1  0
 28 26  1  0
 28 25  1  0
 29 30  1  0
 30 31  2  0
 32 35  1  0
 32 31  1  0
 33 32  2  0
 34 33  1  0
 34 29  2  0
 35 36  1  0
 36 41  2  0
 36 37  1  0
 37 38  2  0
 38 39  1  0
 39 43  1  0
 40 39  2  0
 41 40  1  0
 42 41  1  0
 44 45  1  0
 45 48  1  0
 45 47  1  0
 46 44  2  0
 49 51  1  0
 49 50  1  0
 56 67  2  0
 57 55  1  0
 57 62  1  0
 58 66  1  0
 58 68  1  0
 59 61  1  0
 60 66  1  0
 61 62  2  0
 61 60  1  0
 63 57  2  0
 64 63  1  0
 64 59  2  0
 65 59  1  0
 65 58  1  0
 66 56  1  0
 68 70  2  0
 69 68  1  0
 71 69  1  0
 72 81  2  0
 72 77  1  0
 73 69  1  0
 73 77  1  0
 74 73  1  0
 75 76  1  0
 75 74  1  0
 76 72  1  0
 77 78  2  0
 78 79  1  0
 80 79  2  0
 81 80  1  0
 82 56  1  0
 82 83  1  0
 82 92  1  0
 83 86  1  0
 84 88  1  0
 84 83  1  0
 85 84  2  0
 88 87  1  0
 90 88  1  0
 90 91  1  0
 90 89  1  0
 92 95  1  1
 92 93  1  0
 94 92  1  0
M  ISO  4  14 100  22 100  54 101  55 101
M  END
>  <TORSDO>  (52) 
F 24

>  <SCORE>  (52) 
-2.920

>  <name>  (52) 
52

>  <ligand_id>  (52) 
52

>  <original_smiles>  (52) 
[H]c1c([H])c([H])c2c(c1[H])C([H])([H])C([H])([H])C([H])([H])C2([H])N([H])C(=O)C1([H])N(C(=O)C([H])(N([H])C(=O)C([H])(N([H])C([H])([H])[H])C([H])([H])[H])C(C([H])([H])[H])(C([H])([H])[H])C([H])([H])[H])C([H])([H])c2c([H])c(OC([H])([H])C([H])([H])C([H])([H])c3nc(C([H])([H])C([H])([H])[H])nc(C([H])([H])C([H])([H])[H])c3C([H])([H])C([H])([H])C([H])([H])N([H])C(=O)N3C([H])([H])C([H])([H])C([H])([H])C([H])(n4nc(-c5c([H])c([H])c(Oc6c([H])c([H])c(F)c([H])c6F)c([H])c5[H])c(C(=O)N([H])[H])c4N([H])[H])C3([H])[H])c([H])c([H])c2C1([H])[H]

>  <smiles>  (52) 
[H]c1c([H])c([H])c2c(c1[H])C([H])([H])C([H])([H])C([H])([H])C2([H])N([H])C(=O)C1([H])N(C(=O)C([H])(N([H])C(=O)C([H])(N([H])C([H])([H])[H])C([H])([H])[H])C(C([H])([H])[H])(C([H])([H])[H])C([H])([H])[H])C([H])([H])c2c([H])c(OC([H])([H])C([H])([H])C([H])([H])c3nc(C([H])([H])C([H])([H])[H])nc(C([H])([H])C([H])([H])[H])c3C([H])([H])C([H])([H])C([H])([H])N([H])C(=O)N3C([H])([H])C([H])([H])C([H])([H])C([H])(n4nc(-c5c([H])c([H])c(Oc6c([H])c([H])c(F)c([H])c6F)c([H])c5[H])c(C(=O)N([H])[H])c4N([H])[H])C3([H])[H])c([H])c([H])c2C1([H])[H]

$$$$
53:0:0
     RDKit          3D

 89 97  0  0  1  0  0  0  0  0999 V2000
  -29.5550  -20.5680   20.5270 C   0  0  0  0  0  3  0  0  0  0  0  0
  -27.6910  -21.4260   19.2910 C   0  0  0  0  0  3  0  0  0  0  0  0
  -28.7740  -21.7670   20.1160 C   0  0  0  0  0  0  0  0  0  0  0  0
  -29.2690  -19.1600   20.1270 C   0  0  0  0  0  0  0  0  0  0  0  0
  -28.1470  -19.0930   19.2650 C   0  0  0  0  0  0  0  0  0  0  0  0
  -27.7030  -17.7830   18.6490 C   0  0  0  0  0  1  0  0  0  0  0  0
  -27.4010  -20.1650   18.8900 N   0  0  0  0  0  0  0  0  0  0  0  0
  -29.0320  -23.3710   20.4690 C   0  0  0  0  0  3  0  0  0  0  0  0
  -28.0410  -24.6890   20.0580 C   0  0  0  0  0  3  0  0  0  0  0  0
  -28.2730  -26.2140   20.3320 O   0  0  0  0  0  0  0  0  0  0  0  0
  -24.5990  -31.9040   23.2710 C   0  0  0  0  0  0  0  0  0  0  0  0
  -27.2180  -27.2010   20.2460 C   0  0  0  0  0  0  0  0  0  0  0  0
  -23.4220  -30.5190   21.6080 C   0  0  0  0  0  3  0  0  0  0  0  0
  -24.8890  -28.9520   20.1920 C   0  0  0  0  0  0  0  0  0  0  0  0
  -25.9780  -30.7830   21.4800 C   0  0  0  0  0  2  0  0  0  0  0  0
  -26.0600  -29.3940   20.8190 C   0  0  0  0  0  0  0  0  0  0  0  0
  -27.2250  -28.5350   20.8280 C   0  0  0  0  0  3  0  0  0  0  0  0
  -26.0210  -26.8640   19.5780 C   0  0  0  0  0  3  0  0  0  0  0  0
  -24.8830  -27.7010   19.5560 C   0  0  0  0  0  3  0  0  0  0  0  0
  -23.6610  -29.8490   20.2280 C   0  0  0  0  0  2  0  0  0  0  0  0
  -24.6860  -31.0910   22.1750 N   0  0  0  0  0  0  0  0  0  0  0  0
  -23.5060  -32.1850   23.7870 O   0  0  0  0  0  0  0  0  0  0  0  0
  -22.7300  -29.5070   22.5550 C   0  0  0  0  0  0  0  0  0  0  0  0
  -21.4020  -29.3380   22.4110 N   0  0  0  0  0  0  0  0  0  0  0  0
  -23.3900  -28.8750   23.3840 O   0  0  0  0  0  0  0  0  0  0  0  0
  -20.9260  -29.9000   21.7180 H   0  0  0  0  0  0  0  0  0  0  0  0
  -18.0080  -28.1720   22.8980 C   0  0  0  0  0  0  0  0  0  0  0  0
  -20.5700  -28.3980   23.1660 C   0  0  0  0  0  3  0  0  0  0  0  0
  -20.6530  -26.9750   22.5650 C   0  0  0  0  0  2  0  0  0  0  0  0
  -19.5460  -26.6840   21.5470 C   0  0  0  0  0  2  0  0  0  0  0  0
  -18.1670  -26.8330   22.1950 C   0  0  0  0  0  2  0  0  0  0  0  0
  -19.1350  -28.9130   23.3400 C   0  0  0  0  0  0  0  0  0  0  0  0
  -18.9320  -30.1650   23.9580 C   0  0  0  0  0  3  0  0  0  0  0  0
  -17.6330  -30.6760   24.1390 C   0  0  0  0  0  3  0  0  0  0  0  0
  -16.5190  -29.9320   23.7120 C   0  0  0  0  0  3  0  0  0  0  0  0
  -16.7070  -28.6810   23.0980 C   0  0  0  0  0  3  0  0  0  0  0  0
  -25.8680  -32.5370   23.9200 C   0  0  0  0  0  3  0  0  0  0  0  0
  -26.3420  -31.7790   25.2220 C   0  0  1  0  0  0  0  0  0  0  0  0
  -25.2170  -31.5630   26.2610 C   0  0  0  0  0  1  0  0  0  0  0  0
  -26.9280  -30.3940   24.8690 C   0  0  0  0  0  1  0  0  0  0  0  0
  -27.4770  -32.5770   25.9070 C   0  0  0  0  0  1  0  0  0  0  0  0
  -25.5600  -33.9420   24.2310 N   0  0  0  0  0  0  0  0  0  0  0  0
  -25.8910  -34.9870   23.4590 C   0  0  0  0  0  0  0  0  0  0  0  0
  -26.5540  -34.8680   22.4260 O   0  0  0  0  0  0  0  0  0  0  0  0
  -24.9710  -34.1080   25.0330 H   0  0  0  0  0  0  0  0  0  0  0  0
  -24.1600  -36.7800   23.1050 C   0  0  0  0  0  1  0  0  0  0  0  0
  -25.4130  -36.3840   23.9040 C   0  0  0  0  0  3  0  0  0  0  0  0
  -27.5530  -37.2890   24.7000 C   0  0  0  0  0  1  0  0  0  0  0  0
  -26.4450  -37.4340   23.7590 N   0  0  0  0  0  0  0  0  0  0  0  0
  -26.0390  -38.3580   23.8870 H   0  0  0  0  0  0  0  0  0  0  0  0
  -30.1670  -17.7980   20.4990 C   0  0  0  0  0  2  0  0  0  0  0  0
  -30.5260  -15.0540   20.3110 C   0  0  0  0  0  0  0  0  0  0  0  0
  -30.3870  -12.7120   19.3460 C   0  0  0  0  0  2  0  0  0  0  0  0
  -29.4440  -12.6780   18.1210 C   0  0  0  0  0  2  0  0  0  0  0  0
  -27.9860  -12.4590   18.5640 C   0  0  0  0  0  2  0  0  0  0  0  0
  -27.5870  -13.3700   19.7550 C   0  0  0  0  0  3  0  0  0  0  0  0
  -28.6540  -13.3800   20.8710 C   0  0  0  0  0  2  0  0  0  0  0  0
  -29.9170  -13.8000   20.2510 N   0  0  0  0  0  0  0  0  0  0  0  0
  -31.7300  -15.1020   20.0370 O   0  0  0  0  0  0  0  0  0  0  0  0
  -29.7680  -16.2540   20.4740 N   0  0  0  0  0  0  0  0  0  0  0  0
  -28.7960  -16.0740   20.6730 H   0  0  0  0  0  0  0  0  0  0  0  0
  -25.2100  -13.9310   20.5170 C   0  0  0  0  0  0  0  0  0  0  0  0
  -24.1520  -13.1520   20.8870 C   0  0  0  0  0  0  0  0  0  0  0  0
  -24.6210  -11.8020   20.8440 C   0  0  0  0  0  0  0  0  0  0  0  0
  -26.2560  -13.0600   20.2630 N   0  0  0  0  0  0  0  0  0  0  0  0
  -25.9110  -11.7740   20.5260 N   0  0  0  0  0  0  0  0  0  0  0  0
  -23.8980  -10.5380   21.0270 C   0  0  0  0  0  0  0  0  0  0  0  0
  -24.3260   -9.5710   21.9640 C   0  0  0  0  0  3  0  0  0  0  0  0
  -23.6010   -8.3720   22.1360 C   0  0  0  0  0  3  0  0  0  0  0  0
  -22.4350   -8.1320   21.3710 C   0  0  0  0  0  0  0  0  0  0  0  0
  -22.0260   -9.0880   20.4240 C   0  0  0  0  0  3  0  0  0  0  0  0
  -22.7520  -10.2780   20.2490 C   0  0  0  0  0  3  0  0  0  0  0  0
  -21.6820   -6.9860   21.4530 O   0  0  0  0  0  0  0  0  0  0  0  0
  -21.6120   -6.2510   22.6100 C   0  0  0  0  0  0  0  0  0  0  0  0
  -21.1090   -6.7980   23.8110 C   0  0  0  0  0  3  0  0  0  0  0  0
  -20.9900   -5.9880   24.9580 C   0  0  0  0  0  3  0  0  0  0  0  0
  -21.3660   -4.6320   24.9050 C   0  0  0  0  0  0  0  0  0  0  0  0
  -21.8630   -4.0840   23.7090 C   0  0  0  0  0  3  0  0  0  0  0  0
  -21.9830   -4.8920   22.5640 C   0  0  0  0  0  0  0  0  0  0  0  0
  -22.4420   -4.3550   21.4090 F   0  0  0  0  0  0  0  0  0  0  0  0
  -21.2450   -3.8520   26.0030 F   0  0  0  0  0  0  0  0  0  0  0  0
  -22.7550  -13.6240   21.1660 C   0  0  0  0  0  0  0  0  0  0  0  0
  -22.0320  -12.9220   22.0310 N   0  0  0  0  0  0  0  0  0  0  0  0
  -22.3140  -14.6520   20.6530 O   0  0  0  0  0  0  0  0  0  0  0  0
  -22.4020  -12.0920   22.4690 H   0  0  0  0  0  0  0  0  0  0  0  0
  -21.0950  -13.2210   22.2620 H   0  0  0  0  0  0  0  0  0  0  0  0
  -25.3620  -15.3030   20.3490 N   0  0  0  0  0  0  0  0  0  0  0  0
  -24.5850  -15.9450   20.4620 H   0  0  0  0  0  0  0  0  0  0  0  0
  -26.1880  -15.7400   19.9700 H   0  0  0  0  0  0  0  0  0  0  0  0
  2  3  1  0
  3  8  1  0
  3  1  2  0
  4 51  1  0
  4  1  1  0
  5  4  2  0
  6  5  1  0
  7  5  1  0
  7  2  2  0
  9 10  1  0
  9  8  2  0
 11 22  2  0
 12 10  1  0
 12 17  1  0
 13 21  1  0
 13 23  1  0
 14 20  1  0
 14 16  1  0
 15 21  1  0
 16 17  2  0
 16 15  1  0
 18 12  2  0
 19 18  1  0
 19 14  2  0
 20 13  1  0
 21 11  1  0
 23 25  2  0
 24 23  1  0
 26 24  1  0
 27 36  2  0
 27 32  1  0
 28 24  1  0
 28 32  1  0
 29 28  1  0
 30 31  1  0
 30 29  1  0
 31 27  1  0
 32 33  2  0
 33 34  1  0
 35 34  2  0
 36 35  1  0
 37 11  1  0
 37 42  1  0
 37 38  1  0
 38 41  1  1
 38 39  1  0
 40 38  1  0
 42 45  1  0
 43 47  1  0
 43 42  1  0
 44 43  2  0
 47 46  1  0
 49 50  1  0
 49 47  1  0
 49 48  1  0
 52 60  1  0
 53 58  1  0
 54 55  1  0
 54 53  1  0
 56 55  1  0
 56 65  1  0
 56 57  1  0
 58 52  1  0
 58 57  1  0
 59 52  2  0
 60 51  1  0
 60 61  1  0
 62 63  2  0
 63 82  1  0
 64 63  1  0
 64 67  1  0
 65 62  1  0
 65 66  1  0
 66 64  2  0
 67 68  1  0
 68 69  2  0
 70 73  1  0
 70 69  1  0
 71 70  2  0
 72 71  1  0
 72 67  2  0
 73 74  1  0
 74 75  1  0
 75 76  2  0
 77 76  1  0
 77 81  1  0
 78 77  2  0
 79 74  2  0
 79 78  1  0
 80 79  1  0
 82 83  1  0
 83 86  1  0
 83 85  1  0
 84 82  2  0
 87 88  1  0
 87 62  1  0
 89 87  1  0
M  ISO  4   9 101  10 101  52 100  60 100
M  END
>  <TORSDO>  (53) 
F 19

>  <SCORE>  (53) 
-15.239

>  <name>  (53) 
53

>  <ligand_id>  (53) 
53

>  <original_smiles>  (53) 
[H]c1nc(C([H])([H])[H])c(C([H])([H])N([H])C(=O)N2C([H])([H])C([H])([H])C([H])([H])C([H])(n3nc(-c4c([H])c([H])c(Oc5c([H])c([H])c(F)c([H])c5F)c([H])c4[H])c(C(=O)N([H])[H])c3N([H])[H])C2([H])[H])c([H])c1C([H])([H])C([H])([H])Oc1c([H])c([H])c2c(c1[H])C([H])([H])N(C(=O)C([H])(N([H])C(=O)C([H])(N([H])C([H])([H])[H])C([H])([H])[H])C(C([H])([H])[H])(C([H])([H])[H])C([H])([H])[H])C([H])(C(=O)N([H])C1([H])c3c([H])c([H])c([H])c([H])c3C([H])([H])C([H])([H])C1([H])[H])C2([H])[H]

>  <smiles>  (53) 
[H]c1nc(C([H])([H])[H])c(C([H])([H])N([H])C(=O)N2C([H])([H])C([H])([H])C([H])([H])C([H])(n3nc(-c4c([H])c([H])c(Oc5c([H])c([H])c(F)c([H])c5F)c([H])c4[H])c(C(=O)N([H])[H])c3N([H])[H])C2([H])[H])c([H])c1C([H])([H])C([H])([H])Oc1c([H])c([H])c2c(c1[H])C([H])([H])N(C(=O)C([H])(N([H])C(=O)C([H])(N([H])C([H])([H])[H])C([H])([H])[H])C(C([H])([H])[H])(C([H])([H])[H])C([H])([H])[H])C([H])(C(=O)N([H])C1([H])c3c([H])c([H])c([H])c([H])c3C([H])([H])C([H])([H])C1([H])[H])C2([H])[H]

$$$$
54:0:0
     RDKit          3D

 94102  0  0  1  0  0  0  0  0999 V2000
  -27.9560  -20.0400   19.8940 C   0  0  0  0  0  3  0  0  0  0  0  0
  -27.0630  -21.0720   19.5900 C   0  0  0  0  0  0  0  0  0  0  0  0
  -29.1220  -20.3840   20.6040 C   0  0  0  0  0  0  0  0  0  0  0  0
  -28.4350  -22.5770   20.6250 C   0  0  0  0  0  0  0  0  0  0  0  0
  -25.7860  -20.8190   18.8180 C   0  0  0  0  0  1  0  0  0  0  0  0
  -27.3070  -22.3410   19.9650 N   0  0  0  0  0  0  0  0  0  0  0  0
  -29.3440  -21.6680   20.9580 N   0  0  0  0  0  0  0  0  0  0  0  0
  -30.2020  -19.3670   21.0160 C   0  0  1  0  0  0  0  0  0  0  0  0
  -31.3600  -19.8660   20.5570 F   0  0  0  0  0  0  0  0  0  0  0  0
  -30.2830  -19.3390   22.3530 F   0  0  0  0  0  0  0  0  0  0  0  0
  -29.9880  -17.9240   20.4370 C   0  0  0  0  0  2  0  0  0  0  0  0
  -29.9480  -16.4750   21.0270 C   0  0  0  0  0  2  0  0  0  0  0  0
  -31.4220  -14.5290   20.4100 C   0  0  0  0  0  0  0  0  0  0  0  0
  -31.1500  -12.1760   19.7750 C   0  0  0  0  0  2  0  0  0  0  0  0
  -30.2810  -12.1240   18.5020 C   0  0  0  0  0  2  0  0  0  0  0  0
  -28.7810  -12.1080   18.8600 C   0  0  0  0  0  2  0  0  0  0  0  0
  -28.3920  -13.2000   19.8930 C   0  0  0  0  0  3  0  0  0  0  0  0
  -29.3820  -13.2040   21.0810 C   0  0  0  0  0  2  0  0  0  0  0  0
  -30.7350  -13.3650   20.5310 N   0  0  0  0  0  0  0  0  0  0  0  0
  -32.6050  -14.5840   20.0750 O   0  0  0  0  0  0  0  0  0  0  0  0
  -30.6680  -15.5910   20.1060 N   0  0  0  0  0  0  0  0  0  0  0  0
  -31.1330  -16.1280   19.3880 H   0  0  0  0  0  0  0  0  0  0  0  0
  -26.0710  -14.0260   20.6380 C   0  0  0  0  0  0  0  0  0  0  0  0
  -24.9130  -13.3560   20.9300 C   0  0  0  0  0  0  0  0  0  0  0  0
  -25.2130  -11.9670   20.7810 C   0  0  0  0  0  0  0  0  0  0  0  0
  -27.0090  -13.0500   20.3370 N   0  0  0  0  0  0  0  0  0  0  0  0
  -26.4940  -11.8020   20.4790 N   0  0  0  0  0  0  0  0  0  0  0  0
  -24.3420  -10.7880   20.8520 C   0  0  0  0  0  0  0  0  0  0  0  0
  -24.6310   -9.7090   21.7160 C   0  0  0  0  0  3  0  0  0  0  0  0
  -23.7700   -8.5920   21.7800 C   0  0  0  0  0  3  0  0  0  0  0  0
  -22.6030   -8.5490   20.9810 C   0  0  0  0  0  0  0  0  0  0  0  0
  -22.3320   -9.6160   20.1060 C   0  0  0  0  0  3  0  0  0  0  0  0
  -23.1940  -10.7240   20.0380 C   0  0  0  0  0  3  0  0  0  0  0  0
  -21.7210   -7.4960   20.9580 O   0  0  0  0  0  0  0  0  0  0  0  0
  -21.5160   -6.7070   22.0610 C   0  0  0  0  0  0  0  0  0  0  0  0
  -21.0430   -7.2380   23.2820 C   0  0  0  0  0  3  0  0  0  0  0  0
  -20.7800   -6.3800   24.3680 C   0  0  0  0  0  3  0  0  0  0  0  0
  -20.9810   -4.9920   24.2350 C   0  0  0  0  0  0  0  0  0  0  0  0
  -21.4460   -4.4620   23.0190 C   0  0  0  0  0  3  0  0  0  0  0  0
  -21.7110   -5.3160   21.9350 C   0  0  0  0  0  0  0  0  0  0  0  0
  -22.1390   -4.7970   20.7590 F   0  0  0  0  0  0  0  0  0  0  0  0
  -20.7200   -4.1660   25.2760 F   0  0  0  0  0  0  0  0  0  0  0  0
  -23.5770  -13.9690   21.2350 C   0  0  0  0  0  0  0  0  0  0  0  0
  -22.7680  -13.3020   22.0510 N   0  0  0  0  0  0  0  0  0  0  0  0
  -23.2610  -15.0700   20.7860 O   0  0  0  0  0  0  0  0  0  0  0  0
  -23.0350  -12.4080   22.4370 H   0  0  0  0  0  0  0  0  0  0  0  0
  -21.8690  -13.6930   22.2950 H   0  0  0  0  0  0  0  0  0  0  0  0
  -26.3990  -15.3780   20.5820 N   0  0  0  0  0  0  0  0  0  0  0  0
  -25.7130  -16.1080   20.7340 H   0  0  0  0  0  0  0  0  0  0  0  0
  -27.2960  -15.7310   20.2720 H   0  0  0  0  0  0  0  0  0  0  0  0
  -28.7540  -24.0260   20.9440 C   0  0  0  0  0  2  0  0  0  0  0  0
  -28.8870  -24.8770   19.6690 C   0  0  0  0  0  2  0  0  0  0  0  0
  -29.2250  -26.3490   19.9520 C   0  0  0  0  0  2  0  0  0  0  0  0
  -28.7960  -27.1820   18.8740 O   0  0  0  0  0  0  0  0  0  0  0  0
  -24.8040  -30.7330   23.5460 C   0  0  0  0  0  0  0  0  0  0  0  0
  -27.5960  -27.7940   19.1250 C   0  0  0  0  0  0  0  0  0  0  0  0
  -23.6220  -29.8740   21.5520 C   0  0  0  0  0  3  0  0  0  0  0  0
  -25.1090  -29.0020   19.6700 C   0  0  0  0  0  0  0  0  0  0  0  0
  -26.1040  -30.4670   21.4380 C   0  0  0  0  0  2  0  0  0  0  0  0
  -26.2500  -29.3930   20.3830 C   0  0  0  0  0  0  0  0  0  0  0  0
  -27.4970  -28.7910   20.1160 C   0  0  0  0  0  3  0  0  0  0  0  0
  -26.4480  -27.4160   18.4000 C   0  0  0  0  0  3  0  0  0  0  0  0
  -25.2010  -28.0100   18.6760 C   0  0  0  0  0  3  0  0  0  0  0  0
  -23.8140  -29.6970   20.0210 C   0  0  0  0  0  2  0  0  0  0  0  0
  -24.8630  -30.3540   22.2380 N   0  0  0  0  0  0  0  0  0  0  0  0
  -23.7310  -30.7300   24.1660 O   0  0  0  0  0  0  0  0  0  0  0  0
  -23.0770  -28.5550   22.1380 C   0  0  0  0  0  0  0  0  0  0  0  0
  -21.7830  -28.2910   21.8990 N   0  0  0  0  0  0  0  0  0  0  0  0
  -23.8150  -27.7830   22.7560 O   0  0  0  0  0  0  0  0  0  0  0  0
  -21.2410  -28.9830   21.4000 H   0  0  0  0  0  0  0  0  0  0  0  0
  -18.6180  -26.5390   21.5860 C   0  0  0  0  0  0  0  0  0  0  0  0
  -21.0860  -27.0590   22.2570 C   0  0  0  0  0  0  0  0  0  0  0  0
  -21.5700  -25.9100   21.3310 C   0  0  0  0  0  3  0  0  0  0  0  0
  -20.5330  -25.3870   20.3150 C   0  0  0  0  0  3  0  0  0  0  0  0
  -19.0140  -25.5150   20.5320 C   0  0  0  0  0  3  0  0  0  0  0  0
  -19.5660  -27.2840   22.3420 C   0  0  0  0  0  0  0  0  0  0  0  0
  -19.0920  -28.3010   23.2020 C   0  0  0  0  0  3  0  0  0  0  0  0
  -17.7160  -28.5710   23.3180 C   0  0  0  0  0  3  0  0  0  0  0  0
  -16.7860  -27.8100   22.5910 C   0  0  0  0  0  3  0  0  0  0  0  0
  -17.2390  -26.7950   21.7340 C   0  0  0  0  0  3  0  0  0  0  0  0
  -26.0730  -31.2130   24.3160 C   0  0  0  0  0  3  0  0  0  0  0  0
  -25.8210  -32.5860   24.7700 N   0  0  0  0  0  0  0  0  0  0  0  0
  -26.4170  -33.6750   24.2650 C   0  0  0  0  0  0  0  0  0  0  0  0
  -27.3020  -33.6160   23.4060 O   0  0  0  0  0  0  0  0  0  0  0  0
  -25.0700  -32.7140   25.4320 H   0  0  0  0  0  0  0  0  0  0  0  0
  -25.1220  -35.7600   23.7220 C   0  0  0  0  0  1  0  0  0  0  0  0
  -25.9590  -35.0450   24.7960 C   0  0  0  0  0  3  0  0  0  0  0  0
  -27.7620  -35.4370   26.4150 C   0  0  0  0  0  1  0  0  0  0  0  0
  -27.0780  -35.9170   25.2170 N   0  0  0  0  0  0  0  0  0  0  0  0
  -26.7510  -36.8620   25.3950 H   0  0  0  0  0  0  0  0  0  0  0  0
  -26.4530  -30.2800   25.5310 C   0  0  1  0  0  0  0  0  0  0  0  0
  -25.2760  -30.0120   26.4990 C   0  0  0  0  0  1  0  0  0  0  0  0
  -26.9700  -28.9130   25.0270 C   0  0  0  0  0  1  0  0  0  0  0  0
  -27.6040  -30.9190   26.3420 C   0  0  0  0  0  1  0  0  0  0  0  0
  1  3  1  0
  2  1  2  0
  2  6  1  0
  3  7  2  0
  3  8  1  0
  4 51  1  0
  4  7  1  0
  5  2  1  0
  6  4  2  0
  8 10  1  1
  9  8  1  0
 11  8  1  0
 11 12  1  0
 13 19  1  0
 14 19  1  0
 15 16  1  0
 15 14  1  0
 17 16  1  0
 17 26  1  0
 17 18  1  0
 19 18  1  0
 20 13  2  0
 21 13  1  0
 21 12  1  0
 22 21  1  0
 23 24  2  0
 24 43  1  0
 25 28  1  0
 25 24  1  0
 26 27  1  0
 26 23  1  0
 27 25  2  0
 28 29  1  0
 29 30  2  0
 31 30  1  0
 32 31  2  0
 33 32  1  0
 33 28  2  0
 34 31  1  0
 34 35  1  0
 35 36  1  0
 36 37  2  0
 38 37  1  0
 38 42  1  0
 39 38  2  0
 40 35  2  0
 40 39  1  0
 41 40  1  0
 43 44  1  0
 44 47  1  0
 44 46  1  0
 45 43  2  0
 48 23  1  0
 48 49  1  0
 50 48  1  0
 52 53  1  0
 52 51  1  0
 54 56  1  0
 54 53  1  0
 55 66  2  0
 56 61  1  0
 57 67  1  0
 57 65  1  0
 58 64  1  0
 58 60  1  0
 59 65  1  0
 60 59  1  0
 61 60  2  0
 62 63  1  0
 62 56  2  0
 63 58  2  0
 64 57  1  0
 65 55  1  0
 67 69  2  0
 68 67  1  0
 68 72  1  0
 70 68  1  0
 71 80  2  0
 71 76  1  0
 72 76  1  0
 73 72  2  0
 74 75  2  0
 74 73  1  0
 75 71  1  0
 76 77  2  0
 77 78  1  0
 79 78  2  0
 80 79  1  0
 81 55  1  0
 81 82  1  0
 81 91  1  0
 82 85  1  0
 83 82  1  0
 83 87  1  0
 84 83  2  0
 87 86  1  0
 87 89  1  0
 89 90  1  0
 89 88  1  0
 91 94  1  1
 91 92  1  0
 93 91  1  0
M  ISO  4  13 100  21 100  53 101  54 101
M  END
>  <TORSDO>  (54) 
F 22

>  <SCORE>  (54) 
-9.449

>  <name>  (54) 
54

>  <ligand_id>  (54) 
54

>  <original_smiles>  (54) 
[H]c1c(C([H])([H])[H])nc(C([H])([H])C([H])([H])C([H])([H])Oc2c([H])c([H])c3c(c2[H])C([H])([H])N(C(=O)C([H])(N([H])C(=O)C([H])(N([H])C([H])([H])[H])C([H])([H])[H])C(C([H])([H])[H])(C([H])([H])[H])C([H])([H])[H])C([H])(C(=O)N([H])C2([H])c4c([H])c([H])c([H])c([H])c4C([H])([H])C([H])([H])C2([H])[H])C3([H])[H])nc1C(F)(F)C([H])([H])C([H])([H])N([H])C(=O)N1C([H])([H])C([H])([H])C([H])([H])C([H])(n2nc(-c3c([H])c([H])c(Oc4c([H])c([H])c(F)c([H])c4F)c([H])c3[H])c(C(=O)N([H])[H])c2N([H])[H])C1([H])[H]

>  <smiles>  (54) 
[H]c1c(C([H])([H])[H])nc(C([H])([H])C([H])([H])C([H])([H])Oc2c([H])c([H])c3c(c2[H])C([H])([H])N(C(=O)C([H])(N([H])C(=O)C([H])(N([H])C([H])([H])[H])C([H])([H])[H])C(C([H])([H])[H])(C([H])([H])[H])C([H])([H])[H])C([H])(C(=O)N([H])C2([H])c4c([H])c([H])c([H])c([H])c4C([H])([H])C([H])([H])C2([H])[H])C3([H])[H])nc1C(F)(F)C([H])([H])C([H])([H])N([H])C(=O)N1C([H])([H])C([H])([H])C([H])([H])C([H])(n2nc(-c3c([H])c([H])c(Oc4c([H])c([H])c(F)c([H])c4F)c([H])c3[H])c(C(=O)N([H])[H])c2N([H])[H])C1([H])[H]

$$$$
55:0:0
     RDKit          3D

 93101  0  0  1  0  0  0  0  0999 V2000
  -32.0150  -20.3950   19.9260 C   0  0  0  0  0  0  0  0  0  0  0  0
  -31.9430  -21.3820   18.9080 C   0  0  0  0  0  0  0  0  0  0  0  0
  -30.9240  -20.6320   20.7320 C   0  0  0  0  0  0  0  0  0  0  0  0
  -33.0990  -19.3560   20.0420 C   0  0  0  0  0  1  0  0  0  0  0  0
  -32.8370  -21.5810   17.7180 C   0  0  0  0  0  1  0  0  0  0  0  0
  -30.9580  -22.2270   19.1140 N   0  0  0  0  0  0  0  0  0  0  0  0
  -30.3690  -21.8540   20.2730 N   0  0  0  0  0  0  0  0  0  0  0  0
  -30.4880  -19.8180   21.9520 C   0  0  0  0  0  2  0  0  0  0  0  0
  -29.8950  -18.3700   21.7470 C   0  0  0  0  0  3  0  0  0  0  0  0
  -30.8700  -17.1320   21.5170 C   0  0  0  0  0  3  0  0  0  0  0  0
  -30.9930  -14.6820   21.0360 C   0  0  0  0  0  0  0  0  0  0  0  0
  -30.8390  -12.3260   20.2640 C   0  0  0  0  0  2  0  0  0  0  0  0
  -30.0640  -12.2150   18.9370 C   0  0  0  0  0  2  0  0  0  0  0  0
  -28.5350  -12.2060   19.1680 C   0  0  0  0  0  2  0  0  0  0  0  0
  -28.0310  -13.1910   20.2640 C   0  0  0  0  0  3  0  0  0  0  0  0
  -28.9600  -13.2280   21.4930 C   0  0  0  0  0  2  0  0  0  0  0  0
  -30.3170  -13.4900   21.0020 N   0  0  0  0  0  0  0  0  0  0  0  0
  -32.2250  -14.7000   20.9840 O   0  0  0  0  0  0  0  0  0  0  0  0
  -30.2950  -15.8740   20.9200 N   0  0  0  0  0  0  0  0  0  0  0  0
  -25.5940  -13.8520   20.7180 C   0  0  0  0  0  0  0  0  0  0  0  0
  -24.4800  -13.1060   20.9880 C   0  0  0  0  0  0  0  0  0  0  0  0
  -24.9200  -11.7490   21.0530 C   0  0  0  0  0  0  0  0  0  0  0  0
  -26.6410  -12.9490   20.6240 N   0  0  0  0  0  0  0  0  0  0  0  0
  -26.2350  -11.6820   20.8940 N   0  0  0  0  0  0  0  0  0  0  0  0
  -24.1590  -10.5040   21.2000 C   0  0  0  0  0  0  0  0  0  0  0  0
  -24.5030   -9.5430   22.1750 C   0  0  0  0  0  3  0  0  0  0  0  0
  -23.7450   -8.3580   22.3080 C   0  0  0  0  0  3  0  0  0  0  0  0
  -22.6320   -8.1290   21.4650 C   0  0  0  0  0  0  0  0  0  0  0  0
  -22.3090   -9.0800   20.4800 C   0  0  0  0  0  3  0  0  0  0  0  0
  -23.0650  -10.2560   20.3450 C   0  0  0  0  0  3  0  0  0  0  0  0
  -21.8540   -6.9980   21.5080 O   0  0  0  0  0  0  0  0  0  0  0  0
  -21.7290   -6.2530   22.6530 C   0  0  0  0  0  0  0  0  0  0  0  0
  -21.2590   -6.8160   23.8610 C   0  0  0  0  0  3  0  0  0  0  0  0
  -21.0790   -5.9980   24.9940 C   0  0  0  0  0  3  0  0  0  0  0  0
  -21.3590   -4.6190   24.9210 C   0  0  0  0  0  0  0  0  0  0  0  0
  -21.8200   -4.0580   23.7180 C   0  0  0  0  0  3  0  0  0  0  0  0
  -22.0010   -4.8720   22.5860 C   0  0  0  0  0  0  0  0  0  0  0  0
  -22.4260   -4.3210   21.4230 F   0  0  0  0  0  0  0  0  0  0  0  0
  -21.1790   -3.8330   26.0070 F   0  0  0  0  0  0  0  0  0  0  0  0
  -23.0680  -13.6100   21.0840 C   0  0  0  0  0  0  0  0  0  0  0  0
  -22.2410  -12.9580   21.8930 N   0  0  0  0  0  0  0  0  0  0  0  0
  -22.7060  -14.6170   20.4780 O   0  0  0  0  0  0  0  0  0  0  0  0
  -22.5440  -12.1440   22.4060 H   0  0  0  0  0  0  0  0  0  0  0  0
  -21.2890  -13.2780   22.0000 H   0  0  0  0  0  0  0  0  0  0  0  0
  -25.8000  -15.2140   20.5200 N   0  0  0  0  0  0  0  0  0  0  0  0
  -25.0400  -15.8870   20.5320 H   0  0  0  0  0  0  0  0  0  0  0  0
  -26.6960  -15.6330   20.3080 H   0  0  0  0  0  0  0  0  0  0  0  0
  -29.9900  -15.6000   18.3230 C   0  0  0  0  0  1  0  0  0  0  0  0
  -29.6150  -16.2810   19.6500 C   0  0  0  0  0  2  0  0  0  0  0  0
  -29.2600  -22.7250   20.7350 C   0  0  0  0  0  2  0  0  0  0  0  0
  -29.4910  -24.2880   20.5660 C   0  0  0  0  0  3  0  0  0  0  0  0
  -28.2090  -25.1490   20.3240 C   0  0  0  0  0  3  0  0  0  0  0  0
  -28.4050  -26.5930   20.2230 O   0  0  0  0  0  0  0  0  0  0  0  0
  -24.6450  -31.8840   23.2350 C   0  0  0  0  0  0  0  0  0  0  0  0
  -27.2580  -27.3820   20.1730 C   0  0  0  0  0  0  0  0  0  0  0  0
  -23.4290  -30.4760   21.6090 C   0  0  0  0  0  3  0  0  0  0  0  0
  -24.8720  -28.9370   20.1750 C   0  0  0  0  0  0  0  0  0  0  0  0
  -25.9570  -30.8250   21.3920 C   0  0  0  0  0  2  0  0  0  0  0  0
  -26.0400  -29.4490   20.7540 C   0  0  0  0  0  0  0  0  0  0  0  0
  -27.2370  -28.6840   20.7410 C   0  0  0  0  0  3  0  0  0  0  0  0
  -26.0660  -26.9060   19.5740 C   0  0  0  0  0  3  0  0  0  0  0  0
  -24.8850  -27.6670   19.5760 C   0  0  0  0  0  3  0  0  0  0  0  0
  -23.6300  -29.7980   20.2290 C   0  0  0  0  0  2  0  0  0  0  0  0
  -24.6960  -31.0780   22.1370 N   0  0  0  0  0  0  0  0  0  0  0  0
  -23.5670  -32.1570   23.7820 O   0  0  0  0  0  0  0  0  0  0  0  0
  -22.7830  -29.4580   22.5770 C   0  0  0  0  0  0  0  0  0  0  0  0
  -21.4580  -29.2730   22.4600 N   0  0  0  0  0  0  0  0  0  0  0  0
  -23.4730  -28.8370   23.3910 O   0  0  0  0  0  0  0  0  0  0  0  0
  -20.9620  -29.8260   21.7760 H   0  0  0  0  0  0  0  0  0  0  0  0
  -18.0910  -28.0620   22.9780 C   0  0  0  0  0  0  0  0  0  0  0  0
  -20.6480  -28.3370   23.2410 C   0  0  0  0  0  3  0  0  0  0  0  0
  -20.7570  -26.9020   22.6760 C   0  0  0  0  0  2  0  0  0  0  0  0
  -19.6540  -26.5660   21.6670 C   0  0  0  0  0  2  0  0  0  0  0  0
  -18.2740  -26.7090   22.3120 C   0  0  0  0  0  2  0  0  0  0  0  0
  -19.2060  -28.8340   23.3990 C   0  0  0  0  0  0  0  0  0  0  0  0
  -18.9830  -30.1010   23.9800 C   0  0  0  0  0  3  0  0  0  0  0  0
  -17.6750  -30.5970   24.1460 C   0  0  0  0  0  3  0  0  0  0  0  0
  -16.5750  -29.8220   23.7410 C   0  0  0  0  0  3  0  0  0  0  0  0
  -16.7830  -28.5580   23.1630 C   0  0  0  0  0  3  0  0  0  0  0  0
  -25.9330  -32.5200   23.8430 C   0  0  0  0  0  3  0  0  0  0  0  0
  -25.6200  -33.9130   24.1870 N   0  0  0  0  0  0  0  0  0  0  0  0
  -25.9350  -34.9740   23.4300 C   0  0  0  0  0  0  0  0  0  0  0  0
  -26.5920  -34.8810   22.3890 O   0  0  0  0  0  0  0  0  0  0  0  0
  -25.0350  -34.0590   24.9970 H   0  0  0  0  0  0  0  0  0  0  0  0
  -24.1890  -36.7550   23.1120 C   0  0  0  0  0  1  0  0  0  0  0  0
  -25.4450  -36.3550   23.9020 C   0  0  0  0  0  3  0  0  0  0  0  0
  -27.5860  -37.2490   24.7050 C   0  0  0  0  0  1  0  0  0  0  0  0
  -26.4680  -37.4160   23.7810 N   0  0  0  0  0  0  0  0  0  0  0  0
  -26.0570  -38.3320   23.9440 H   0  0  0  0  0  0  0  0  0  0  0  0
  -26.4750  -31.7420   25.1050 C   0  0  1  0  0  0  0  0  0  0  0  0
  -25.4010  -31.4910   26.1890 C   0  0  0  0  0  1  0  0  0  0  0  0
  -27.0580  -30.3700   24.6920 C   0  0  0  0  0  1  0  0  0  0  0  0
  -27.6320  -32.5370   25.7540 C   0  0  0  0  0  1  0  0  0  0  0  0
  1  4  1  0
  1  3  2  0
  2  6  2  0
  2  1  1  0
  3  8  1  0
  5  2  1  0
  6  7  1  0
  7  3  1  0
  7 50  1  0
  9  8  1  0
 10  9  2  0
 12 17  1  0
 13 14  1  0
 13 12  1  0
 15 14  1  0
 15 23  1  0
 15 16  1  0
 17 11  1  0
 17 16  1  0
 18 11  2  0
 19 11  1  0
 19 10  1  0
 20 21  2  0
 21 22  1  0
 21 40  1  0
 22 25  1  0
 23 20  1  0
 23 24  1  0
 24 22  2  0
 25 26  1  0
 26 27  2  0
 28 31  1  0
 28 27  1  0
 29 28  2  0
 30 29  1  0
 30 25  2  0
 31 32  1  0
 32 33  1  0
 33 34  2  0
 35 34  1  0
 35 39  1  0
 36 35  2  0
 37 32  2  0
 37 36  1  0
 38 37  1  0
 40 41  1  0
 41 44  1  0
 41 43  1  0
 42 40  2  0
 45 46  1  0
 45 20  1  0
 47 45  1  0
 48 49  1  0
 49 19  1  0
 51 50  1  0
 52 51  2  0
 53 52  1  0
 54 65  2  0
 55 53  1  0
 55 60  1  0
 56 64  1  0
 56 66  1  0
 57 63  1  0
 57 59  1  0
 58 64  1  0
 59 58  1  0
 60 59  2  0
 61 62  1  0
 61 55  2  0
 62 57  2  0
 63 56  1  0
 64 54  1  0
 66 68  2  0
 67 66  1  0
 69 67  1  0
 70 79  2  0
 70 75  1  0
 71 67  1  0
 71 75  1  0
 72 71  1  0
 73 74  1  0
 73 72  1  0
 74 70  1  0
 75 76  2  0
 76 77  1  0
 78 77  2  0
 79 78  1  0
 80 54  1  0
 80 81  1  0
 80 90  1  0
 81 84  1  0
 82 86  1  0
 82 81  1  0
 83 82  2  0
 86 85  1  0
 88 86  1  0
 88 89  1  0
 88 87  1  0
 90 93  1  1
 90 91  1  0
 92 90  1  0
M  ISO  4  11 100  19 100  52 101  53 101
M  END
>  <TORSDO>  (55) 
F 23

>  <SCORE>  (55) 
-11.534

>  <name>  (55) 
55

>  <ligand_id>  (55) 
55

>  <original_smiles>  (55) 
[H]c1c([H])c([H])c2c(c1[H])C([H])([H])C([H])([H])C([H])([H])C2([H])N([H])C(=O)C1([H])N(C(=O)C([H])(N([H])C(=O)C([H])(N([H])C([H])([H])[H])C([H])([H])[H])C(C([H])([H])[H])(C([H])([H])[H])C([H])([H])[H])C([H])([H])c2c([H])c(OC([H])([H])C([H])([H])C([H])([H])n3nc(C([H])([H])[H])c(C([H])([H])[H])c3C([H])([H])C([H])([H])C([H])([H])N(C(=O)N3C([H])([H])C([H])([H])C([H])([H])C([H])(n4nc(-c5c([H])c([H])c(Oc6c([H])c([H])c(F)c([H])c6F)c([H])c5[H])c(C(=O)N([H])[H])c4N([H])[H])C3([H])[H])C([H])([H])C([H])([H])[H])c([H])c([H])c2C1([H])[H]

>  <smiles>  (55) 
[H]c1c([H])c([H])c2c(c1[H])C([H])([H])C([H])([H])C([H])([H])C2([H])N([H])C(=O)C1([H])N(C(=O)C([H])(N([H])C(=O)C([H])(N([H])C([H])([H])[H])C([H])([H])[H])C(C([H])([H])[H])(C([H])([H])[H])C([H])([H])[H])C([H])([H])c2c([H])c(OC([H])([H])C([H])([H])C([H])([H])n3nc(C([H])([H])[H])c(C([H])([H])[H])c3C([H])([H])C([H])([H])C([H])([H])N(C(=O)N3C([H])([H])C([H])([H])C([H])([H])C([H])(n4nc(-c5c([H])c([H])c(Oc6c([H])c([H])c(F)c([H])c6F)c([H])c5[H])c(C(=O)N([H])[H])c4N([H])[H])C3([H])[H])C([H])([H])C([H])([H])[H])c([H])c([H])c2C1([H])[H]

$$$$
56:0:0
     RDKit          3D

 93101  0  0  1  0  0  0  0  0999 V2000
  -30.8390  -20.5180   20.5000 C   0  0  0  0  0  3  0  0  0  0  0  0
  -30.7930  -21.9340   20.3720 C   0  0  0  0  0  0  0  0  0  0  0  0
  -29.6570  -19.7420   20.5310 C   0  0  0  0  0  0  0  0  0  0  0  0
  -29.5420  -22.6060   20.2870 C   0  0  0  0  0  0  0  0  0  0  0  0
  -28.4560  -20.4960   20.3730 C   0  0  0  0  0  0  0  0  0  0  0  0
  -32.1050  -22.7010   20.4110 C   0  0  0  0  0  1  0  0  0  0  0  0
  -27.0950  -19.8270   20.3470 C   0  0  0  0  0  1  0  0  0  0  0  0
  -28.4070  -21.8610   20.2790 N   0  0  0  0  0  0  0  0  0  0  0  0
  -30.5560  -17.9810   22.1450 C   0  0  0  0  0  1  0  0  0  0  0  0
  -29.6860  -18.2020   20.8960 C   0  0  0  0  0  3  0  0  0  0  0  0
  -31.3070  -17.4860   18.9770 C   0  0  0  0  0  1  0  0  0  0  0  0
  -30.0400  -17.1280   19.7790 C   0  0  0  0  0  3  0  0  0  0  0  0
  -30.7380  -14.5820   19.9600 C   0  0  0  0  0  0  0  0  0  0  0  0
  -30.4170  -12.3520   18.9350 C   0  0  0  0  0  2  0  0  0  0  0  0
  -29.4110  -12.5110   17.7740 C   0  0  0  0  0  2  0  0  0  0  0  0
  -27.9640  -12.3730   18.2860 C   0  0  0  0  0  2  0  0  0  0  0  0
  -27.6920  -13.2330   19.5490 C   0  0  0  0  0  3  0  0  0  0  0  0
  -28.8120  -13.0680   20.6020 C   0  0  0  0  0  2  0  0  0  0  0  0
  -30.0900  -13.3780   19.9440 N   0  0  0  0  0  0  0  0  0  0  0  0
  -31.8890  -14.6840   19.5300 O   0  0  0  0  0  0  0  0  0  0  0  0
  -29.9630  -15.6810   20.2280 N   0  0  0  0  0  0  0  0  0  0  0  0
  -29.0680  -15.4320   20.6230 H   0  0  0  0  0  0  0  0  0  0  0  0
  -25.3610  -13.8550   20.4310 C   0  0  0  0  0  0  0  0  0  0  0  0
  -24.3060  -13.0920   20.8510 C   0  0  0  0  0  0  0  0  0  0  0  0
  -24.7390  -11.7340   20.7600 C   0  0  0  0  0  0  0  0  0  0  0  0
  -26.3710  -12.9630   20.1110 N   0  0  0  0  0  0  0  0  0  0  0  0
  -26.0070  -11.6800   20.3690 N   0  0  0  0  0  0  0  0  0  0  0  0
  -24.0030  -10.4790   20.9670 C   0  0  0  0  0  0  0  0  0  0  0  0
  -24.4570   -9.4990   21.8770 C   0  0  0  0  0  3  0  0  0  0  0  0
  -23.7230   -8.3100   22.0730 C   0  0  0  0  0  3  0  0  0  0  0  0
  -22.5200   -8.0920   21.3590 C   0  0  0  0  0  0  0  0  0  0  0  0
  -22.0840   -9.0610   20.4380 C   0  0  0  0  0  3  0  0  0  0  0  0
  -22.8190  -10.2430   20.2400 C   0  0  0  0  0  3  0  0  0  0  0  0
  -21.7540   -6.9570   21.4670 O   0  0  0  0  0  0  0  0  0  0  0  0
  -21.7130   -6.2230   22.6250 C   0  0  0  0  0  0  0  0  0  0  0  0
  -21.3130   -6.7910   23.8540 C   0  0  0  0  0  3  0  0  0  0  0  0
  -21.2190   -5.9850   25.0060 C   0  0  0  0  0  3  0  0  0  0  0  0
  -21.5150   -4.6100   24.9290 C   0  0  0  0  0  0  0  0  0  0  0  0
  -21.9080   -4.0410   23.7050 C   0  0  0  0  0  3  0  0  0  0  0  0
  -22.0040   -4.8460   22.5560 C   0  0  0  0  0  0  0  0  0  0  0  0
  -22.3640   -4.2880   21.3740 F   0  0  0  0  0  0  0  0  0  0  0  0
  -21.4180   -3.8330   26.0330 F   0  0  0  0  0  0  0  0  0  0  0  0
  -22.9370  -13.5860   21.2220 C   0  0  0  0  0  0  0  0  0  0  0  0
  -22.2540  -12.8860   22.1220 N   0  0  0  0  0  0  0  0  0  0  0  0
  -22.4820  -14.6270   20.7480 O   0  0  0  0  0  0  0  0  0  0  0  0
  -22.6350  -12.0430   22.5260 H   0  0  0  0  0  0  0  0  0  0  0  0
  -21.3390  -13.1970   22.4130 H   0  0  0  0  0  0  0  0  0  0  0  0
  -25.5370  -15.2270   20.2710 N   0  0  0  0  0  0  0  0  0  0  0  0
  -24.7840  -15.8850   20.4330 H   0  0  0  0  0  0  0  0  0  0  0  0
  -26.3560  -15.6560   19.8600 H   0  0  0  0  0  0  0  0  0  0  0  0
  -29.4130  -24.1670   20.4640 C   0  0  0  0  0  3  0  0  0  0  0  0
  -28.3800  -25.0180   19.6290 C   0  0  0  0  0  3  0  0  0  0  0  0
  -28.4830  -26.4800   19.8120 O   0  0  0  0  0  0  0  0  0  0  0  0
  -24.6040  -31.6210   22.9950 C   0  0  0  0  0  0  0  0  0  0  0  0
  -27.3230  -27.2620   19.7790 C   0  0  0  0  0  0  0  0  0  0  0  0
  -23.4260  -30.2420   21.3180 C   0  0  0  0  0  3  0  0  0  0  0  0
  -24.9070  -28.7830   19.8310 C   0  0  0  0  0  0  0  0  0  0  0  0
  -25.9500  -30.6460   21.1250 C   0  0  0  0  0  2  0  0  0  0  0  0
  -26.0630  -29.2950   20.4350 C   0  0  0  0  0  0  0  0  0  0  0  0
  -27.2730  -28.5450   20.4000 C   0  0  0  0  0  3  0  0  0  0  0  0
  -26.1470  -26.7990   19.1460 C   0  0  0  0  0  3  0  0  0  0  0  0
  -24.9500  -27.5410   19.1770 C   0  0  0  0  0  3  0  0  0  0  0  0
  -23.6460  -29.6160   19.9140 C   0  0  0  0  0  2  0  0  0  0  0  0
  -24.6780  -30.8520   21.8700 N   0  0  0  0  0  0  0  0  0  0  0  0
  -23.5180  -31.8490   23.5470 O   0  0  0  0  0  0  0  0  0  0  0  0
  -22.8020  -29.1770   22.2490 C   0  0  0  0  0  0  0  0  0  0  0  0
  -21.4760  -28.9850   22.1430 N   0  0  0  0  0  0  0  0  0  0  0  0
  -23.5070  -28.5260   23.0250 O   0  0  0  0  0  0  0  0  0  0  0  0
  -20.9650  -29.5650   21.4900 H   0  0  0  0  0  0  0  0  0  0  0  0
  -18.1210  -27.7460   22.6820 C   0  0  0  0  0  0  0  0  0  0  0  0
  -20.6850  -28.0060   22.8890 C   0  0  0  0  0  3  0  0  0  0  0  0
  -20.7770  -26.6050   22.2420 C   0  0  0  0  0  2  0  0  0  0  0  0
  -19.6460  -26.3270   21.2450 C   0  0  0  0  0  2  0  0  0  0  0  0
  -18.2830  -26.4310   21.9360 C   0  0  0  0  0  2  0  0  0  0  0  0
  -19.2480  -28.4930   23.1150 C   0  0  0  0  0  0  0  0  0  0  0  0
  -19.0410  -29.7250   23.7730 C   0  0  0  0  0  3  0  0  0  0  0  0
  -17.7400  -30.2090   24.0010 C   0  0  0  0  0  3  0  0  0  0  0  0
  -16.6270  -29.4580   23.5840 C   0  0  0  0  0  3  0  0  0  0  0  0
  -16.8190  -28.2290   22.9300 C   0  0  0  0  0  3  0  0  0  0  0  0
  -25.8750  -32.2660   23.6290 C   0  0  0  0  0  3  0  0  0  0  0  0
  -26.4390  -31.4520   24.8570 C   0  0  1  0  0  0  0  0  0  0  0  0
  -25.3740  -31.1280   25.9310 C   0  0  0  0  0  1  0  0  0  0  0  0
  -27.0580  -30.1150   24.3880 C   0  0  0  0  0  1  0  0  0  0  0  0
  -27.5760  -32.2510   25.5380 C   0  0  0  0  0  1  0  0  0  0  0  0
  -25.5230  -33.6340   24.0340 N   0  0  0  0  0  0  0  0  0  0  0  0
  -25.8140  -34.7350   23.3290 C   0  0  0  0  0  0  0  0  0  0  0  0
  -26.4770  -34.7090   22.2880 O   0  0  0  0  0  0  0  0  0  0  0  0
  -24.9320  -33.7270   24.8470 H   0  0  0  0  0  0  0  0  0  0  0  0
  -24.0200  -36.4820   23.0870 C   0  0  0  0  0  1  0  0  0  0  0  0
  -25.2850  -36.0820   23.8620 C   0  0  0  0  0  3  0  0  0  0  0  0
  -27.3990  -36.9990   24.7110 C   0  0  0  0  0  1  0  0  0  0  0  0
  -26.2790  -37.1760   23.7900 N   0  0  0  0  0  0  0  0  0  0  0  0
  -25.8430  -38.0710   23.9890 H   0  0  0  0  0  0  0  0  0  0  0  0
  1  3  1  0
  2  6  1  0
  2  1  2  0
  3 10  1  0
  4  2  1  0
  4 51  1  0
  5  3  2  0
  7  5  1  0
  8  4  2  0
  8  5  1  0
 10  9  1  0
 12 11  1  0
 12 21  1  0
 12 10  1  0
 13 21  1  0
 14 19  1  0
 15 16  1  0
 15 14  1  0
 17 16  1  0
 17 26  1  0
 17 18  1  0
 19 13  1  0
 19 18  1  0
 20 13  2  0
 21 22  1  0
 23 24  2  0
 24 43  1  0
 25 24  1  0
 25 28  1  0
 26 27  1  0
 26 23  1  0
 27 25  2  0
 28 29  1  0
 29 30  2  0
 31 34  1  0
 31 30  1  0
 32 31  2  0
 33 32  1  0
 33 28  2  0
 34 35  1  0
 35 36  1  0
 36 37  2  0
 38 37  1  0
 38 42  1  0
 39 38  2  0
 40 35  2  0
 40 39  1  0
 41 40  1  0
 43 44  1  0
 44 47  1  0
 44 46  1  0
 45 43  2  0
 48 23  1  0
 48 49  1  0
 50 48  1  0
 52 53  1  0
 52 51  2  0
 54 65  2  0
 55 53  1  0
 55 60  1  0
 56 64  1  0
 56 66  1  0
 57 63  1  0
 57 59  1  0
 58 64  1  0
 59 58  1  0
 60 59  2  0
 61 62  1  0
 61 55  2  0
 62 57  2  0
 63 56  1  0
 64 54  1  0
 66 68  2  0
 67 66  1  0
 69 67  1  0
 70 79  2  0
 70 75  1  0
 71 67  1  0
 71 75  1  0
 72 71  1  0
 73 74  1  0
 73 72  1  0
 74 70  1  0
 75 76  2  0
 76 77  1  0
 78 77  2  0
 79 78  1  0
 80 54  1  0
 80 85  1  0
 80 81  1  0
 81 84  1  1
 81 82  1  0
 83 81  1  0
 85 88  1  0
 86 90  1  0
 86 85  1  0
 87 86  2  0
 90 89  1  0
 92 90  1  0
 92 93  1  0
 92 91  1  0
M  ISO  4  13 100  21 100  52 101  53 101
M  END
>  <TORSDO>  (56) 
F 20

>  <SCORE>  (56) 
-12.651

>  <name>  (56) 
56

>  <ligand_id>  (56) 
56

>  <original_smiles>  (56) 
[H]c1c([H])c([H])c2c(c1[H])C([H])([H])C([H])([H])C([H])([H])C2([H])N([H])C(=O)C1([H])N(C(=O)C([H])(N([H])C(=O)C([H])(N([H])C([H])([H])[H])C([H])([H])[H])C(C([H])([H])[H])(C([H])([H])[H])C([H])([H])[H])C([H])([H])c2c([H])c(OC([H])([H])C([H])([H])c3nc(C([H])([H])[H])c(C([H])(C([H])([H])[H])C([H])(N([H])C(=O)N4C([H])([H])C([H])([H])C([H])([H])C([H])(n5nc(-c6c([H])c([H])c(Oc7c([H])c([H])c(F)c([H])c7F)c([H])c6[H])c(C(=O)N([H])[H])c5N([H])[H])C4([H])[H])C([H])([H])[H])c([H])c3C([H])([H])[H])c([H])c([H])c2C1([H])[H]

>  <smiles>  (56) 
[H]c1c([H])c([H])c2c(c1[H])C([H])([H])C([H])([H])C([H])([H])C2([H])N([H])C(=O)C1([H])N(C(=O)C([H])(N([H])C(=O)C([H])(N([H])C([H])([H])[H])C([H])([H])[H])C(C([H])([H])[H])(C([H])([H])[H])C([H])([H])[H])C([H])([H])c2c([H])c(OC([H])([H])C([H])([H])c3nc(C([H])([H])[H])c(C([H])(C([H])([H])[H])C([H])(N([H])C(=O)N4C([H])([H])C([H])([H])C([H])([H])C([H])(n5nc(-c6c([H])c([H])c(Oc7c([H])c([H])c(F)c([H])c7F)c([H])c6[H])c(C(=O)N([H])[H])c5N([H])[H])C4([H])[H])C([H])([H])[H])c([H])c3C([H])([H])[H])c([H])c([H])c2C1([H])[H]

$$$$
57:0:0
     RDKit          3D

 87 95  0  0  1  0  0  0  0  0999 V2000
  -28.4510  -22.2440   20.1740 C   0  0  0  0  0  2  0  0  0  0  0  0
  -29.3040  -20.9390   20.5760 C   0  0  0  0  0  3  0  0  0  0  0  0
  -28.7270  -19.5130   20.1100 C   0  0  0  0  0  3  0  0  0  0  0  0
  -30.5640  -16.8170   21.6700 C   0  0  0  0  0  3  0  0  0  0  0  0
  -29.4150  -16.9620   19.8050 C   0  0  0  0  0  3  0  0  0  0  0  0
  -30.1260  -16.0400   20.5590 C   0  0  0  0  0  0  0  0  0  0  0  0
  -30.1030  -18.0790   21.6390 N   0  0  0  0  0  0  0  0  0  0  0  0
  -29.4230  -18.2140   20.4670 N   0  0  0  0  0  0  0  0  0  0  0  0
  -30.7170  -14.6800   20.1230 C   0  0  0  0  0  0  0  0  0  0  0  0
  -30.3580  -12.4540   19.0700 C   0  0  0  0  0  2  0  0  0  0  0  0
  -29.3840  -12.6000   17.8800 C   0  0  0  0  0  2  0  0  0  0  0  0
  -27.9300  -12.4490   18.3650 C   0  0  0  0  0  2  0  0  0  0  0  0
  -27.6240  -13.3220   19.6120 C   0  0  0  0  0  3  0  0  0  0  0  0
  -28.7230  -13.2080   20.6890 C   0  0  0  0  0  2  0  0  0  0  0  0
  -30.0100  -13.5040   20.0540 N   0  0  0  0  0  0  0  0  0  0  0  0
  -31.8670  -14.7240   19.6850 O   0  0  0  0  0  0  0  0  0  0  0  0
  -25.2740  -13.9220   20.4480 C   0  0  0  0  0  0  0  0  0  0  0  0
  -24.2150  -13.1550   20.8490 C   0  0  0  0  0  0  0  0  0  0  0  0
  -24.6630  -11.7990   20.7850 C   0  0  0  0  0  0  0  0  0  0  0  0
  -26.2980  -13.0370   20.1570 N   0  0  0  0  0  0  0  0  0  0  0  0
  -25.9400  -11.7540   20.4220 N   0  0  0  0  0  0  0  0  0  0  0  0
  -23.9320  -10.5410   20.9920 C   0  0  0  0  0  0  0  0  0  0  0  0
  -24.3830   -9.5630   21.9070 C   0  0  0  0  0  3  0  0  0  0  0  0
  -23.6520   -8.3720   22.1000 C   0  0  0  0  0  3  0  0  0  0  0  0
  -22.4550   -8.1480   21.3780 C   0  0  0  0  0  0  0  0  0  0  0  0
  -22.0210   -9.1130   20.4530 C   0  0  0  0  0  3  0  0  0  0  0  0
  -22.7520  -10.2980   20.2590 C   0  0  0  0  0  3  0  0  0  0  0  0
  -21.6930   -7.0080   21.4820 O   0  0  0  0  0  0  0  0  0  0  0  0
  -21.6620   -6.2680   22.6350 C   0  0  0  0  0  0  0  0  0  0  0  0
  -21.2700   -6.8270   23.8720 C   0  0  0  0  0  3  0  0  0  0  0  0
  -21.1840   -6.0120   25.0180 C   0  0  0  0  0  3  0  0  0  0  0  0
  -21.4800   -4.6390   24.9300 C   0  0  0  0  0  0  0  0  0  0  0  0
  -21.8650   -4.0790   23.6990 C   0  0  0  0  0  3  0  0  0  0  0  0
  -21.9520   -4.8900   22.5550 C   0  0  0  0  0  0  0  0  0  0  0  0
  -22.3030   -4.3410   21.3670 F   0  0  0  0  0  0  0  0  0  0  0  0
  -21.3900   -3.8540   26.0290 F   0  0  0  0  0  0  0  0  0  0  0  0
  -22.8340  -13.6420   21.1800 C   0  0  0  0  0  0  0  0  0  0  0  0
  -22.1340  -12.9480   22.0710 N   0  0  0  0  0  0  0  0  0  0  0  0
  -22.3860  -14.6760   20.6850 O   0  0  0  0  0  0  0  0  0  0  0  0
  -22.5100  -12.1140   22.4970 H   0  0  0  0  0  0  0  0  0  0  0  0
  -21.2090  -13.2590   22.3340 H   0  0  0  0  0  0  0  0  0  0  0  0
  -25.4490  -15.2930   20.2860 N   0  0  0  0  0  0  0  0  0  0  0  0
  -24.7020  -15.9600   20.4530 H   0  0  0  0  0  0  0  0  0  0  0  0
  -26.3060  -15.7270   19.9690 H   0  0  0  0  0  0  0  0  0  0  0  0
  -28.9210  -23.7400   20.5420 C   0  0  0  0  0  3  0  0  0  0  0  0
  -27.9580  -24.9350   20.0760 C   0  0  0  0  0  3  0  0  0  0  0  0
  -28.2560  -26.3850   20.2930 O   0  0  0  0  0  0  0  0  0  0  0  0
  -24.6080  -31.8850   23.2570 C   0  0  0  0  0  0  0  0  0  0  0  0
  -27.1760  -27.2890   20.2030 C   0  0  0  0  0  0  0  0  0  0  0  0
  -23.3950  -30.4950   21.6200 C   0  0  0  0  0  3  0  0  0  0  0  0
  -24.8330  -28.9430   20.1850 C   0  0  0  0  0  0  0  0  0  0  0  0
  -25.9370  -30.7930   21.4340 C   0  0  0  0  0  2  0  0  0  0  0  0
  -26.0070  -29.4130   20.7880 C   0  0  0  0  0  0  0  0  0  0  0  0
  -27.1810  -28.5960   20.7910 C   0  0  0  0  0  3  0  0  0  0  0  0
  -25.9830  -26.8970   19.5480 C   0  0  0  0  0  3  0  0  0  0  0  0
  -24.8250  -27.6920   19.5550 C   0  0  0  0  0  3  0  0  0  0  0  0
  -23.6050  -29.8270   20.2360 C   0  0  0  0  0  2  0  0  0  0  0  0
  -24.6660  -31.0740   22.1600 N   0  0  0  0  0  0  0  0  0  0  0  0
  -23.5270  -32.1690   23.7920 O   0  0  0  0  0  0  0  0  0  0  0  0
  -22.7290  -29.4780   22.5780 C   0  0  0  0  0  0  0  0  0  0  0  0
  -21.4010  -29.3100   22.4560 N   0  0  0  0  0  0  0  0  0  0  0  0
  -23.4060  -28.8460   23.3930 O   0  0  0  0  0  0  0  0  0  0  0  0
  -20.9130  -29.8770   21.7760 H   0  0  0  0  0  0  0  0  0  0  0  0
  -18.0210  -28.1280   22.9650 C   0  0  0  0  0  0  0  0  0  0  0  0
  -20.5810  -28.3760   23.2300 C   0  0  0  0  0  3  0  0  0  0  0  0
  -20.6750  -26.9430   22.6600 C   0  0  0  0  0  2  0  0  0  0  0  0
  -19.5700  -26.6210   21.6480 C   0  0  0  0  0  2  0  0  0  0  0  0
  -18.1900  -26.7760   22.2930 C   0  0  0  0  0  2  0  0  0  0  0  0
  -19.1430  -28.8850   23.3930 C   0  0  0  0  0  0  0  0  0  0  0  0
  -18.9330  -30.1500   23.9830 C   0  0  0  0  0  3  0  0  0  0  0  0
  -17.6310  -30.6580   24.1520 C   0  0  0  0  0  3  0  0  0  0  0  0
  -16.5220  -29.8970   23.7400 C   0  0  0  0  0  3  0  0  0  0  0  0
  -16.7170  -28.6350   23.1520 C   0  0  0  0  0  3  0  0  0  0  0  0
  -25.8940  -32.5140   23.8760 C   0  0  0  0  0  3  0  0  0  0  0  0
  -25.5900  -33.9120   24.2100 N   0  0  0  0  0  0  0  0  0  0  0  0
  -25.9070  -34.9640   23.4440 C   0  0  0  0  0  0  0  0  0  0  0  0
  -26.5570  -34.8600   22.4000 O   0  0  0  0  0  0  0  0  0  0  0  0
  -25.0130  -34.0690   25.0240 H   0  0  0  0  0  0  0  0  0  0  0  0
  -24.1630  -36.7510   23.1310 C   0  0  0  0  0  1  0  0  0  0  0  0
  -25.4270  -36.3520   23.9080 C   0  0  0  0  0  3  0  0  0  0  0  0
  -27.5820  -37.2500   24.6730 C   0  0  0  0  0  1  0  0  0  0  0  0
  -26.4520  -37.4090   23.7620 N   0  0  0  0  0  0  0  0  0  0  0  0
  -26.0460  -38.3270   23.9200 H   0  0  0  0  0  0  0  0  0  0  0  0
  -26.4130  -31.7370   25.1480 C   0  0  1  0  0  0  0  0  0  0  0  0
  -25.3250  -31.5020   26.2210 C   0  0  0  0  0  1  0  0  0  0  0  0
  -26.9880  -30.3560   24.7520 C   0  0  0  0  0  1  0  0  0  0  0  0
  -27.5680  -32.5250   25.8090 C   0  0  0  0  0  1  0  0  0  0  0  0
  1 45  1  0
  1  2  1  0
  3  8  1  0
  3  2  2  0
  5  8  1  0
  5  6  2  0
  6  4  1  0
  7  4  2  0
  8  7  1  0
  9  6  1  0
 10 15  1  0
 11 12  1  0
 11 10  1  0
 13 12  1  0
 13 20  1  0
 13 14  1  0
 15  9  1  0
 15 14  1  0
 16  9  2  0
 17 18  2  0
 18 37  1  0
 19 18  1  0
 19 22  1  0
 20 21  1  0
 20 17  1  0
 21 19  2  0
 22 23  1  0
 23 24  2  0
 25 28  1  0
 25 24  1  0
 26 25  2  0
 27 26  1  0
 27 22  2  0
 28 29  1  0
 29 30  1  0
 30 31  2  0
 32 31  1  0
 32 36  1  0
 33 32  2  0
 34 29  2  0
 34 33  1  0
 35 34  1  0
 37 38  1  0
 38 41  1  0
 38 40  1  0
 39 37  2  0
 42 17  1  0
 42 43  1  0
 44 42  1  0
 46 47  1  0
 46 45  2  0
 48 59  2  0
 49 47  1  0
 49 54  1  0
 50 58  1  0
 50 60  1  0
 51 57  1  0
 51 53  1  0
 52 58  1  0
 53 54  2  0
 53 52  1  0
 55 56  1  0
 55 49  2  0
 56 51  2  0
 57 50  1  0
 58 48  1  0
 60 62  2  0
 61 60  1  0
 63 61  1  0
 64 73  2  0
 64 69  1  0
 65 61  1  0
 65 69  1  0
 66 65  1  0
 67 68  1  0
 67 66  1  0
 68 64  1  0
 69 70  2  0
 70 71  1  0
 72 71  2  0
 73 72  1  0
 74 48  1  0
 74 75  1  0
 74 84  1  0
 75 78  1  0
 76 80  1  0
 76 75  1  0
 77 76  2  0
 80 79  1  0
 82 80  1  0
 82 83  1  0
 82 81  1  0
 84 87  1  1
 84 85  1  0
 86 84  1  0
M  ISO  4   6 100   9 100  46 101  47 101
M  END
>  <TORSDO>  (57) 
F 21

>  <SCORE>  (57) 
-13.445

>  <name>  (57) 
57

>  <ligand_id>  (57) 
57

>  <original_smiles>  (57) 
[H]c1nn(C([H])([H])C([H])([H])C([H])([H])C([H])([H])C([H])([H])Oc2c([H])c([H])c3c(c2[H])C([H])([H])N(C(=O)C([H])(N([H])C(=O)C([H])(N([H])C([H])([H])[H])C([H])([H])[H])C(C([H])([H])[H])(C([H])([H])[H])C([H])([H])[H])C([H])(C(=O)N([H])C2([H])c4c([H])c([H])c([H])c([H])c4C([H])([H])C([H])([H])C2([H])[H])C3([H])[H])c([H])c1C(=O)N1C([H])([H])C([H])([H])C([H])([H])C([H])(n2nc(-c3c([H])c([H])c(Oc4c([H])c([H])c(F)c([H])c4F)c([H])c3[H])c(C(=O)N([H])[H])c2N([H])[H])C1([H])[H]

>  <smiles>  (57) 
[H]c1nn(C([H])([H])C([H])([H])C([H])([H])C([H])([H])C([H])([H])Oc2c([H])c([H])c3c(c2[H])C([H])([H])N(C(=O)C([H])(N([H])C(=O)C([H])(N([H])C([H])([H])[H])C([H])([H])[H])C(C([H])([H])[H])(C([H])([H])[H])C([H])([H])[H])C([H])(C(=O)N([H])C2([H])c4c([H])c([H])c([H])c([H])c4C([H])([H])C([H])([H])C2([H])[H])C3([H])[H])c([H])c1C(=O)N1C([H])([H])C([H])([H])C([H])([H])C([H])(n2nc(-c3c([H])c([H])c(Oc4c([H])c([H])c(F)c([H])c4F)c([H])c3[H])c(C(=O)N([H])[H])c2N([H])[H])C1([H])[H]

$$$$
58:0:0
     RDKit          3D

 91 99  0  0  1  0  0  0  0  0999 V2000
  -30.1360  -20.6990   20.1370 C   0  0  0  0  0  3  0  0  0  0  0  0
  -31.5210  -20.6820   19.7790 C   0  0  0  0  0  3  0  0  0  0  0  0
  -29.5760  -22.1130   19.9470 C   0  0  0  0  0  0  0  0  0  0  0  0
  -31.4320  -22.6750   18.6930 C   0  0  0  0  0  0  0  0  0  0  0  0
  -32.5520  -19.7110   20.3190 C   0  0  0  0  0  1  0  0  0  0  0  0
  -32.0920  -23.6900   17.7900 C   0  0  0  0  0  1  0  0  0  0  0  0
  -32.1200  -21.6140   19.0270 N   0  0  0  0  0  0  0  0  0  0  0  0
  -30.2500  -22.9750   19.1660 N   0  0  0  0  0  0  0  0  0  0  0  0
  -29.5530  -19.2130   20.6490 C   0  0  0  0  0  3  0  0  0  0  0  0
  -30.2410  -17.6940   20.1840 C   0  0  0  0  0  3  0  0  0  0  0  0
  -30.5380  -14.9810   20.2930 C   0  0  0  0  0  0  0  0  0  0  0  0
  -30.3790  -12.6440   19.3160 C   0  0  0  0  0  2  0  0  0  0  0  0
  -29.4340  -12.6320   18.0930 C   0  0  0  0  0  2  0  0  0  0  0  0
  -27.9730  -12.4260   18.5340 C   0  0  0  0  0  2  0  0  0  0  0  0
  -27.5860  -13.3240   19.7380 C   0  0  0  0  0  3  0  0  0  0  0  0
  -28.6540  -13.3170   20.8540 C   0  0  0  0  0  2  0  0  0  0  0  0
  -29.9200  -13.7290   20.2370 N   0  0  0  0  0  0  0  0  0  0  0  0
  -31.7300  -15.0230   19.9720 O   0  0  0  0  0  0  0  0  0  0  0  0
  -29.8090  -16.1950   20.4890 N   0  0  0  0  0  0  0  0  0  0  0  0
  -28.8430  -16.0640   20.7480 H   0  0  0  0  0  0  0  0  0  0  0  0
  -25.2060  -13.8830   20.4920 C   0  0  0  0  0  0  0  0  0  0  0  0
  -24.1490  -13.1010   20.8680 C   0  0  0  0  0  0  0  0  0  0  0  0
  -24.6210  -11.7510   20.8330 C   0  0  0  0  0  0  0  0  0  0  0  0
  -26.2530  -13.0130   20.2450 N   0  0  0  0  0  0  0  0  0  0  0  0
  -25.9100  -11.7250   20.5160 N   0  0  0  0  0  0  0  0  0  0  0  0
  -23.9010  -10.4850   21.0300 C   0  0  0  0  0  0  0  0  0  0  0  0
  -24.3460   -9.5170   21.9600 C   0  0  0  0  0  3  0  0  0  0  0  0
  -23.6220   -8.3190   22.1450 C   0  0  0  0  0  3  0  0  0  0  0  0
  -22.4420   -8.0780   21.4020 C   0  0  0  0  0  0  0  0  0  0  0  0
  -22.0170   -9.0360   20.4630 C   0  0  0  0  0  3  0  0  0  0  0  0
  -22.7390  -10.2260   20.2750 C   0  0  0  0  0  3  0  0  0  0  0  0
  -21.6900   -6.9310   21.4960 O   0  0  0  0  0  0  0  0  0  0  0  0
  -21.6620   -6.1820   22.6450 C   0  0  0  0  0  0  0  0  0  0  0  0
  -21.2600   -6.7300   23.8830 C   0  0  0  0  0  3  0  0  0  0  0  0
  -21.1810   -5.9080   25.0230 C   0  0  0  0  0  3  0  0  0  0  0  0
  -21.4900   -4.5370   24.9280 C   0  0  0  0  0  0  0  0  0  0  0  0
  -21.8830   -3.9890   23.6960 C   0  0  0  0  0  3  0  0  0  0  0  0
  -21.9670   -4.8080   22.5560 C   0  0  0  0  0  0  0  0  0  0  0  0
  -22.3270   -4.2690   21.3670 F   0  0  0  0  0  0  0  0  0  0  0  0
  -21.4060   -3.7450   26.0230 F   0  0  0  0  0  0  0  0  0  0  0  0
  -22.7520  -13.5700   21.1490 C   0  0  0  0  0  0  0  0  0  0  0  0
  -22.0320  -12.8690   22.0170 N   0  0  0  0  0  0  0  0  0  0  0  0
  -22.3050  -14.5930   20.6310 O   0  0  0  0  0  0  0  0  0  0  0  0
  -22.4050  -12.0380   22.4520 H   0  0  0  0  0  0  0  0  0  0  0  0
  -21.0970  -13.1720   22.2540 H   0  0  0  0  0  0  0  0  0  0  0  0
  -25.3610  -15.2550   20.3110 N   0  0  0  0  0  0  0  0  0  0  0  0
  -24.5890  -15.9060   20.4160 H   0  0  0  0  0  0  0  0  0  0  0  0
  -26.1920  -15.6940   19.9380 H   0  0  0  0  0  0  0  0  0  0  0  0
  -28.4820  -23.1000   20.6510 C   0  0  0  0  0  2  0  0  0  0  0  0
  -27.9270  -24.5890   20.0020 C   0  0  0  0  0  2  0  0  0  0  0  0
  -28.2010  -26.1070   20.3130 O   0  0  0  0  0  0  0  0  0  0  0  0
  -24.6120  -31.8640   23.2160 C   0  0  0  0  0  0  0  0  0  0  0  0
  -27.1780  -27.1270   20.1950 C   0  0  0  0  0  0  0  0  0  0  0  0
  -23.4170  -30.4700   21.5740 C   0  0  0  0  0  3  0  0  0  0  0  0
  -24.8660  -28.9020   20.1450 C   0  0  0  0  0  0  0  0  0  0  0  0
  -25.9720  -30.7230   21.4250 C   0  0  0  0  0  2  0  0  0  0  0  0
  -26.0430  -29.3300   20.7710 C   0  0  0  0  0  0  0  0  0  0  0  0
  -27.1960  -28.4560   20.7870 C   0  0  0  0  0  3  0  0  0  0  0  0
  -25.9880  -26.8260   19.4910 C   0  0  0  0  0  3  0  0  0  0  0  0
  -24.8540  -27.6660   19.4840 C   0  0  0  0  0  3  0  0  0  0  0  0
  -23.6380  -29.8000   20.1940 C   0  0  0  0  0  2  0  0  0  0  0  0
  -24.6870  -31.0390   22.1270 N   0  0  0  0  0  0  0  0  0  0  0  0
  -23.5240  -32.1510   23.7400 O   0  0  0  0  0  0  0  0  0  0  0  0
  -22.7330  -29.4610   22.5310 C   0  0  0  0  0  0  0  0  0  0  0  0
  -21.4070  -29.2850   22.3940 N   0  0  0  0  0  0  0  0  0  0  0  0
  -23.4000  -28.8400   23.3620 O   0  0  0  0  0  0  0  0  0  0  0  0
  -20.9210  -29.8400   21.7040 H   0  0  0  0  0  0  0  0  0  0  0  0
  -18.0310  -28.0620   22.8630 C   0  0  0  0  0  0  0  0  0  0  0  0
  -20.5840  -28.3480   23.1650 C   0  0  0  0  0  3  0  0  0  0  0  0
  -20.7050  -26.9110   22.6070 C   0  0  0  0  0  2  0  0  0  0  0  0
  -19.6220  -26.5680   21.5800 C   0  0  0  0  0  2  0  0  0  0  0  0
  -18.2300  -26.7080   22.2020 C   0  0  0  0  0  2  0  0  0  0  0  0
  -19.1370  -28.8390   23.3000 C   0  0  0  0  0  0  0  0  0  0  0  0
  -18.8950  -30.1050   23.8770 C   0  0  0  0  0  3  0  0  0  0  0  0
  -17.5830  -30.5930   24.0210 C   0  0  0  0  0  3  0  0  0  0  0  0
  -16.4930  -29.8110   23.6010 C   0  0  0  0  0  3  0  0  0  0  0  0
  -16.7180  -28.5480   23.0250 C   0  0  0  0  0  3  0  0  0  0  0  0
  -25.8890  -32.5010   23.8440 C   0  0  0  0  0  3  0  0  0  0  0  0
  -26.3930  -31.7350   25.1300 C   0  0  1  0  0  0  0  0  0  0  0  0
  -25.2910  -31.5120   26.1910 C   0  0  0  0  0  1  0  0  0  0  0  0
  -26.9740  -30.3530   24.7570 C   0  0  0  0  0  1  0  0  0  0  0  0
  -27.5390  -32.5300   25.7990 C   0  0  0  0  0  1  0  0  0  0  0  0
  -25.5750  -33.9010   24.1730 N   0  0  0  0  0  0  0  0  0  0  0  0
  -25.9070  -34.9580   23.4210 C   0  0  0  0  0  0  0  0  0  0  0  0
  -26.5760  -34.8570   22.3890 O   0  0  0  0  0  0  0  0  0  0  0  0
  -24.9810  -34.0510   24.9760 H   0  0  0  0  0  0  0  0  0  0  0  0
  -24.1790  -36.7570   23.0800 C   0  0  0  0  0  1  0  0  0  0  0  0
  -25.4230  -36.3470   23.8840 C   0  0  0  0  0  3  0  0  0  0  0  0
  -27.5630  -37.2300   24.7100 C   0  0  0  0  0  1  0  0  0  0  0  0
  -26.4570  -37.3990   23.7720 N   0  0  0  0  0  0  0  0  0  0  0  0
  -26.0500  -38.3200   23.9240 H   0  0  0  0  0  0  0  0  0  0  0  0
  1  9  1  0
  2  1  1  0
  2  5  1  0
  3  1  1  0
  3 49  1  0
  4  7  2  0
  4  8  1  0
  6  4  1  0
  7  2  1  0
  8  3  2  0
 10 19  1  0
 10  9  2  0
 11 19  1  0
 12 17  1  0
 13 14  1  0
 13 12  1  0
 15 14  1  0
 15 24  1  0
 15 16  1  0
 17 11  1  0
 17 16  1  0
 18 11  2  0
 19 20  1  0
 21 22  2  0
 22 41  1  0
 23 22  1  0
 23 26  1  0
 24 21  1  0
 24 25  1  0
 25 23  2  0
 26 27  1  0
 27 28  2  0
 29 32  1  0
 29 28  1  0
 30 29  2  0
 31 30  1  0
 31 26  2  0
 32 33  1  0
 33 34  1  0
 34 35  2  0
 36 35  1  0
 36 40  1  0
 37 36  2  0
 38 33  2  0
 38 37  1  0
 39 38  1  0
 41 42  1  0
 42 45  1  0
 42 44  1  0
 43 41  2  0
 46 47  1  0
 46 21  1  0
 48 46  1  0
 50 51  1  0
 50 49  1  0
 52 63  2  0
 53 51  1  0
 53 58  1  0
 54 62  1  0
 54 64  1  0
 55 61  1  0
 55 57  1  0
 56 62  1  0
 57 58  2  0
 57 56  1  0
 59 53  2  0
 60 59  1  0
 60 55  2  0
 61 54  1  0
 62 52  1  0
 64 66  2  0
 65 64  1  0
 67 65  1  0
 68 77  2  0
 68 73  1  0
 69 65  1  0
 69 73  1  0
 70 69  1  0
 71 72  1  0
 71 70  1  0
 72 68  1  0
 73 74  2  0
 74 75  1  0
 76 75  2  0
 77 76  1  0
 78 52  1  0
 78 83  1  0
 78 79  1  0
 79 82  1  1
 79 80  1  0
 81 79  1  0
 83 86  1  0
 84 88  1  0
 84 83  1  0
 85 84  2  0
 88 87  1  0
 90 88  1  0
 90 91  1  0
 90 89  1  0
M  ISO  4  11 100  19 100  50 101  51 101
M  END
>  <TORSDO>  (58) 
F 20

>  <SCORE>  (58) 
-15.431

>  <name>  (58) 
58

>  <ligand_id>  (58) 
58

>  <original_smiles>  (58) 
[H]c1c([H])c([H])c2c(c1[H])C([H])([H])C([H])([H])C([H])([H])C2([H])N([H])C(=O)C1([H])N(C(=O)C([H])(N([H])C(=O)C([H])(N([H])C([H])([H])[H])C([H])([H])[H])C(C([H])([H])[H])(C([H])([H])[H])C([H])([H])[H])C([H])([H])c2c([H])c(OC([H])([H])C([H])([H])c3nc(C([H])([H])[H])nc(C([H])([H])[H])c3C([H])([H])C([H])([H])N([H])C(=O)N3C([H])([H])C([H])([H])C([H])([H])C([H])(n4nc(-c5c([H])c([H])c(Oc6c([H])c([H])c(F)c([H])c6F)c([H])c5[H])c(C(=O)N([H])[H])c4N([H])[H])C3([H])[H])c([H])c([H])c2C1([H])[H]

>  <smiles>  (58) 
[H]c1c([H])c([H])c2c(c1[H])C([H])([H])C([H])([H])C([H])([H])C2([H])N([H])C(=O)C1([H])N(C(=O)C([H])(N([H])C(=O)C([H])(N([H])C([H])([H])[H])C([H])([H])[H])C(C([H])([H])[H])(C([H])([H])[H])C([H])([H])[H])C([H])([H])c2c([H])c(OC([H])([H])C([H])([H])c3nc(C([H])([H])[H])nc(C([H])([H])[H])c3C([H])([H])C([H])([H])N([H])C(=O)N3C([H])([H])C([H])([H])C([H])([H])C([H])(n4nc(-c5c([H])c([H])c(Oc6c([H])c([H])c(F)c([H])c6F)c([H])c5[H])c(C(=O)N([H])[H])c4N([H])[H])C3([H])[H])c([H])c([H])c2C1([H])[H]

$$$$
59:0:0
     RDKit          3D

 98101  0  0  1  0  0  0  0  0999 V2000
  -29.5500  -23.8620   10.5820 C   0  0  0  0  0  2  0  0  0  0  0  0
  -33.2120  -26.4410   10.3260 C   0  0  0  0  0  3  0  0  0  0  0  0
  -33.4140  -25.0710    8.6250 C   0  0  0  0  0  3  0  0  0  0  0  0
  -34.1870  -26.2160    9.2300 C   0  0  0  0  0  0  0  0  0  0  0  0
  -31.8850  -25.7700   10.6640 C   0  0  0  0  0  0  0  0  0  0  0  0
  -31.1730  -24.6480    9.9900 C   0  0  0  0  0  0  0  0  0  0  0  0
  -31.1740  -26.3510   11.8800 C   0  0  0  0  0  1  0  0  0  0  0  0
  -32.1390  -24.3750    8.9620 N   0  0  0  0  0  0  0  0  0  0  0  0
  -35.5710  -27.3480    8.5870 C   0  0  0  0  0  3  0  0  0  0  0  0
  -36.1290  -28.9670    7.7480 C   0  0  0  0  0  0  0  0  0  0  0  0
  -37.4630  -31.3010    7.4710 C   0  0  0  0  0  2  0  0  0  0  0  0
  -39.0060  -31.1060    7.3420 C   0  0  0  0  0  2  0  0  0  0  0  0
  -39.6310  -30.7330    8.7010 C   0  0  0  0  0  2  0  0  0  0  0  0
  -38.7190  -29.7330    9.4480 C   0  0  0  0  0  3  0  0  0  0  0  0
  -37.2850  -30.2290    9.5680 C   0  0  0  0  0  2  0  0  0  0  0  0
  -36.8200  -30.1250    8.2250 N   0  0  0  0  0  0  0  0  0  0  0  0
  -35.7700  -29.2910    6.5760 O   0  0  0  0  0  0  0  0  0  0  0  0
  -40.0410  -28.3600   11.0840 C   0  0  0  0  0  0  0  0  0  0  0  0
  -40.1620  -28.4350   12.4380 C   0  0  0  0  0  0  0  0  0  0  0  0
  -39.3020  -29.4950   12.8570 C   0  0  0  0  0  0  0  0  0  0  0  0
  -39.1660  -29.3700   10.7520 N   0  0  0  0  0  0  0  0  0  0  0  0
  -38.6520  -30.0070   11.8270 N   0  0  0  0  0  0  0  0  0  0  0  0
  -39.1090  -30.1010   14.1720 C   0  0  0  0  0  0  0  0  0  0  0  0
  -37.9260  -29.8960   14.9130 C   0  0  0  0  0  3  0  0  0  0  0  0
  -37.7750  -30.4830   16.1870 C   0  0  0  0  0  3  0  0  0  0  0  0
  -38.8130  -31.2790   16.7260 C   0  0  0  0  0  0  0  0  0  0  0  0
  -39.9790  -31.5000   15.9690 C   0  0  0  0  0  3  0  0  0  0  0  0
  -40.1240  -30.9190   14.7010 C   0  0  0  0  0  3  0  0  0  0  0  0
  -38.7490  -31.9070   17.9440 O   0  0  0  0  0  0  0  0  0  0  0  0
  -38.6330  -31.1960   19.1110 C   0  0  0  0  0  0  0  0  0  0  0  0
  -39.7170  -30.4730   19.6540 C   0  0  0  0  0  3  0  0  0  0  0  0
  -39.5710  -29.8120   20.8910 C   0  0  0  0  0  3  0  0  0  0  0  0
  -38.3500  -29.8850   21.5880 C   0  0  0  0  0  0  0  0  0  0  0  0
  -37.2720  -30.6100   21.0500 C   0  0  0  0  0  3  0  0  0  0  0  0
  -37.4150  -31.2650   19.8140 C   0  0  0  0  0  0  0  0  0  0  0  0
  -36.3800  -31.9790   19.3090 F   0  0  0  0  0  0  0  0  0  0  0  0
  -38.2130  -29.2600   22.7800 F   0  0  0  0  0  0  0  0  0  0  0  0
  -41.0990  -27.6250   13.2780 C   0  0  0  0  0  0  0  0  0  0  0  0
  -40.5830  -26.9940   14.3250 N   0  0  0  0  0  0  0  0  0  0  0  0
  -42.2870  -27.5140   12.9790 O   0  0  0  0  0  0  0  0  0  0  0  0
  -39.6030  -27.0760   14.5540 H   0  0  0  0  0  0  0  0  0  0  0  0
  -41.1750  -26.4190   14.9100 H   0  0  0  0  0  0  0  0  0  0  0  0
  -40.6130  -27.5450   10.1140 N   0  0  0  0  0  0  0  0  0  0  0  0
  -41.2870  -26.8310   10.3570 H   0  0  0  0  0  0  0  0  0  0  0  0
  -40.4020  -27.5650    9.1260 H   0  0  0  0  0  0  0  0  0  0  0  0
  -37.4160  -25.9070    9.9060 C   0  0  0  0  0  1  0  0  0  0  0  0
  -36.8960  -26.4810    8.5700 C   0  0  0  0  0  3  0  0  0  0  0  0
  -36.7970  -25.3100    7.7710 O   0  0  0  0  0  0  0  0  0  0  0  0
  -37.6790  -25.0550    7.5160 H   0  0  0  0  0  0  0  0  0  0  0  0
  -27.9310  -23.9670   11.6760 C   0  0  0  0  0  1  0  0  0  0  0  0
  -26.0820  -24.6950   11.6310 C   0  0  0  0  0  1  0  0  0  0  0  0
  -25.1350  -27.1110   12.1960 C   0  0  0  0  0  1  0  0  0  0  0  0
  -25.1680  -26.2070   10.9700 N   0  0  0  0  0  0  0  0  0  0  0  0
  -26.0000  -26.6140   10.5720 H   0  0  0  0  0  0  0  0  0  0  0  0
  -24.0230  -26.2090    8.7540 C   0  0  0  0  0  1  0  0  0  0  0  0
  -23.8630  -24.5910    7.6880 C   0  0  0  0  0  2  0  0  0  0  0  0
  -24.9290  -23.3460    6.7720 C   0  0  0  0  0  2  0  0  0  0  0  0
  -26.2220  -22.2320    6.6500 O   0  0  0  0  0  0  0  0  0  0  0  0
  -27.3620  -16.3790    5.9110 C   0  0  0  0  0  0  0  0  0  0  0  0
  -27.3490  -22.2810    5.8320 C   0  0  0  0  0  3  0  0  0  0  0  0
  -27.6870  -17.9150    7.7700 C   0  0  0  0  0  3  0  0  0  0  0  0
  -28.5220  -20.2990    7.2030 C   0  0  0  0  0  0  0  0  0  0  0  0
  -28.3170  -18.6170    5.4000 C   0  0  0  0  0  2  0  0  0  0  0  0
  -28.1470  -20.0350    5.8850 C   0  0  0  0  0  3  0  0  0  0  0  0
  -27.6100  -21.0850    5.1130 C   0  0  0  0  0  2  0  0  0  0  0  0
  -28.2950  -22.6830    6.7390 C   0  0  0  0  0  2  0  0  0  0  0  0
  -28.7310  -21.6420    7.5910 C   0  0  0  0  0  3  0  0  0  0  0  0
  -28.6760  -19.0870    8.0980 C   0  0  0  0  0  2  0  0  0  0  0  0
  -27.7950  -17.5910    6.3300 N   0  0  0  0  0  0  0  0  0  0  0  0
  -26.9390  -15.5320    6.7110 O   0  0  0  0  0  0  0  0  0  0  0  0
  -26.1730  -18.1330    8.0560 C   0  0  0  0  0  0  0  0  0  0  0  0
  -25.2660  -17.7060    7.2140 N   0  0  0  0  0  0  0  0  0  0  0  0
  -25.7740  -18.7970    9.0040 O   0  0  0  0  0  0  0  0  0  0  0  0
  -25.5590  -17.2960    6.3370 H   0  0  0  0  0  0  0  0  0  0  0  0
  -22.2700  -17.9480    4.9610 C   0  0  0  0  0  0  0  0  0  0  0  0
  -23.8290  -17.6120    7.5900 C   0  0  0  0  0  2  0  0  0  0  0  0
  -23.3080  -15.6190    8.0570 C   0  0  0  0  0 15  0  0  0  0  0  0
  -22.0150  -14.6480    6.2260 C   0  0  0  0  0 15  0  0  0  0  0  0
  -21.5480  -16.2070    4.8220 C   0  0  0  0  0  1  0  0  0  0  0  0
  -23.2010  -18.5030    6.1200 C   0  0  0  0  0  0  0  0  0  0  0  0
  -23.7750  -19.8180    5.9130 C   0  0  0  0  0  3  0  0  0  0  0  0
  -23.4600  -20.6920    4.8470 C   0  0  0  0  0  3  0  0  0  0  0  0
  -22.5080  -20.2830    3.9050 C   0  0  0  0  0  3  0  0  0  0  0  0
  -21.9540  -18.9640    3.9660 C   0  0  0  0  0  3  0  0  0  0  0  0
  -27.4160  -16.0080    4.4100 C   0  0  0  0  0  3  0  0  0  0  0  0
  -26.0140  -16.1150    3.6960 C   0  0  1  0  0  0  0  0  0  0  0  0
  -24.8830  -15.3560    4.4290 C   0  0  0  0  0  1  0  0  0  0  0  0
  -25.5650  -17.5880    3.5560 C   0  0  0  0  0  1  0  0  0  0  0  0
  -26.1290  -15.5540    2.2600 C   0  0  0  0  0  1  0  0  0  0  0  0
  -27.9440  -14.6430    4.3400 N   0  0  0  0  0  0  0  0  0  0  0  0
  -29.2460  -14.3400    4.3440 C   0  0  0  0  0  0  0  0  0  0  0  0
  -30.1320  -15.1970    4.3190 O   0  0  0  0  0  0  0  0  0  0  0  0
  -27.2780  -13.8890    4.4120 H   0  0  0  0  0  0  0  0  0  0  0  0
  -30.4690  -12.5550    5.6230 C   0  0  0  0  0  1  0  0  0  0  0  0
  -29.6210  -12.8480    4.3740 C   0  0  0  0  0  3  0  0  0  0  0  0
  -29.4720  -12.2480    1.9990 C   0  0  0  0  0  1  0  0  0  0  0  0
  -30.3410  -12.4010    3.1630 N   0  0  0  0  0  0  0  0  0  0  0  0
  -30.8080  -11.5130    3.3310 H   0  0  0  0  0  0  0  0  0  0  0  0
  1 50  1  0
  2  5  1  0
  3  8  2  0
  3  4  1  0
  4  2  2  0
  5  7  1  0
  6  1  1  0
  6  5  2  0
  8  6  1  0
  9 10  1  0
  9  4  1  0
 10 16  1  0
 11 16  1  0
 12 11  1  0
 12 13  1  0
 14 13  1  0
 14 15  1  0
 14 21  1  0
 16 15  1  0
 17 10  2  0
 18 19  2  0
 19 20  1  0
 19 38  1  0
 20 23  1  0
 21 18  1  0
 21 22  1  0
 22 20  2  0
 23 28  2  0
 23 24  1  0
 24 25  2  0
 25 26  1  0
 26 29  1  0
 27 26  2  0
 28 27  1  0
 29 30  1  0
 30 31  2  0
 30 35  1  0
 31 32  1  0
 32 33  2  0
 33 37  1  0
 34 33  1  0
 35 34  2  0
 36 35  1  0
 38 39  1  0
 39 41  1  0
 39 42  1  0
 40 38  2  0
 43 44  1  0
 43 18  1  0
 45 43  1  0
 47  9  1  0
 47 46  1  0
 48 47  1  0
 49 48  1  0
 53 51  1  0
 53 52  1  0
 54 53  1  0
 56 55  1  0
 57 56  1  0
 58 57  1  0
 59 69  1  0
 59 70  2  0
 60 58  1  0
 60 66  1  0
 61 71  1  0
 61 68  1  0
 62 67  2  0
 62 68  1  0
 63 64  1  0
 63 69  1  0
 64 65  1  0
 64 62  1  0
 65 60  1  0
 66 67  1  0
 69 61  1  0
 71 73  2  0
 72 76  1  0
 72 71  1  0
 74 72  1  0
 75 80  1  0
 79 75  1  0
 80 76  1  0
 81 80  2  0
 82 81  1  0
 83 84  1  0
 83 82  2  0
 84 75  2  0
 85 59  1  0
 86 85  1  0
 86 87  1  1
 88 86  1  0
 89 86  1  0
 90 91  1  0
 90 85  1  0
 90 93  1  0
 91 95  1  0
 92 91  2  0
 95 94  1  0
 96 97  1  0
 97 98  1  0
 97 95  1  0
M  ISO  4   9 100  10 100  57 101  58 101
M  END
>  <TORSDO>  (59) 
F 26

>  <SCORE>  (59) 
-3.321

>  <name>  (59) 
59

>  <ligand_id>  (59) 
59

>  <original_smiles>  (59) 
[H]OC([H])(C([H])([H])[H])C([H])(C(=O)N1C([H])([H])C([H])([H])C([H])([H])C([H])(n2nc(-c3c([H])c([H])c(Oc4c([H])c([H])c(F)c([H])c4F)c([H])c3[H])c(C(=O)N([H])[H])c2N([H])[H])C1([H])[H])c1c([H])nc(C([H])([H])C([H])([H])C([H])([H])[N+]([H])(C([H])([H])[H])C([H])([H])C([H])([H])C([H])([H])Oc2c([H])c([H])c3c(c2[H])C([H])([H])N(C(=O)C([H])(N([H])C(=O)C([H])(N([H])C([H])([H])[H])C([H])([H])[H])C(C([H])([H])[H])(C([H])([H])[H])C([H])([H])[H])C([H])(C(=O)N([H])C2([H])c4c([H])c([H])c([H])c([H])c4C([H])([H])C([H])([H])C2([H])[H])C3([H])[H])c(C([H])([H])[H])c1[H]

>  <smiles>  (59) 
[H]OC([H])(C([H])([H])[H])C([H])(C(=O)N1C([H])([H])C([H])([H])C([H])([H])C([H])(n2nc(-c3c([H])c([H])c(Oc4c([H])c([H])c(F)c([H])c4F)c([H])c3[H])c(C(=O)N([H])[H])c2N([H])[H])C1([H])[H])c1c([H])nc(C([H])([H])C([H])([H])C([H])([H])[N+]([H])(C([H])([H])[H])C([H])([H])C([H])([H])C([H])([H])Oc2c([H])c([H])c3c(c2[H])C([H])([H])N(C(=O)C([H])(N([H])C(=O)C([H])(N([H])C([H])([H])[H])C([H])([H])[H])C(C([H])([H])[H])(C([H])([H])[H])C([H])([H])[H])C([H])(C(=O)N([H])C2([H])c4c([H])c([H])c([H])c([H])c4C([H])([H])C([H])([H])C2([H])[H])C3([H])[H])c(C([H])([H])[H])c1[H]

$$$$
60:0:0
     RDKit          3D

 91 99  0  0  1  0  0  0  0  0999 V2000
  -29.6630  -18.3250   19.8860 C   0  0  0  0  0  0  0  0  0  0  0  0
  -30.6750  -19.3110   19.7470 C   0  0  0  0  0  0  0  0  0  0  0  0
  -28.3890  -18.8730   20.1800 C   0  0  0  0  0  0  0  0  0  0  0  0
  -29.1590  -21.0630   19.9460 C   0  0  0  0  0  0  0  0  0  0  0  0
  -32.1170  -18.9330   19.4750 C   0  0  0  0  0  1  0  0  0  0  0  0
  -27.1570  -18.0090   20.3820 C   0  0  0  0  0  1  0  0  0  0  0  0
  -30.4140  -20.6480   19.7610 N   0  0  0  0  0  0  0  0  0  0  0  0
  -28.1630  -20.2140   20.2140 N   0  0  0  0  0  0  0  0  0  0  0  0
  -29.8990  -16.8070   19.5040 C   0  0  0  0  0  2  0  0  0  0  0  0
  -30.9770  -14.6180   20.0210 C   0  0  0  0  0  0  0  0  0  0  0  0
  -30.6010  -12.4080   18.9580 C   0  0  0  0  0  2  0  0  0  0  0  0
  -29.6250  -12.5590   17.7740 C   0  0  0  0  0  2  0  0  0  0  0  0
  -28.1680  -12.4400   18.2600 C   0  0  0  0  0  2  0  0  0  0  0  0
  -27.8760  -13.3240   19.5030 C   0  0  0  0  0  3  0  0  0  0  0  0
  -28.9700  -13.1720   20.5830 C   0  0  0  0  0  2  0  0  0  0  0  0
  -30.2660  -13.4500   19.9490 N   0  0  0  0  0  0  0  0  0  0  0  0
  -32.1100  -14.7070   19.5400 O   0  0  0  0  0  0  0  0  0  0  0  0
  -30.8080  -16.2790   21.7590 C   0  0  0  0  0  1  0  0  0  0  0  0
  -30.3410  -15.7490   20.4770 N   0  0  0  0  0  0  0  0  0  0  0  0
  -25.5240  -13.9750   20.3040 C   0  0  0  0  0  0  0  0  0  0  0  0
  -24.4540  -13.2260   20.7120 C   0  0  0  0  0  0  0  0  0  0  0  0
  -24.8850  -11.8650   20.6670 C   0  0  0  0  0  0  0  0  0  0  0  0
  -26.5400  -13.0720   20.0370 N   0  0  0  0  0  0  0  0  0  0  0  0
  -26.1630  -11.7980   20.3170 N   0  0  0  0  0  0  0  0  0  0  0  0
  -24.1370  -10.6190   20.8810 C   0  0  0  0  0  0  0  0  0  0  0  0
  -24.5640   -9.6560   21.8220 C   0  0  0  0  0  3  0  0  0  0  0  0
  -23.8180   -8.4740   22.0250 C   0  0  0  0  0  3  0  0  0  0  0  0
  -22.6320   -8.2480   21.2880 C   0  0  0  0  0  0  0  0  0  0  0  0
  -22.2240   -9.2000   20.3360 C   0  0  0  0  0  3  0  0  0  0  0  0
  -22.9700  -10.3730   20.1310 C   0  0  0  0  0  3  0  0  0  0  0  0
  -21.8580   -7.1180   21.4000 O   0  0  0  0  0  0  0  0  0  0  0  0
  -21.7930   -6.4050   22.5690 C   0  0  0  0  0  0  0  0  0  0  0  0
  -21.3650   -6.9930   23.7800 C   0  0  0  0  0  3  0  0  0  0  0  0
  -21.2480   -6.2040   24.9420 C   0  0  0  0  0  3  0  0  0  0  0  0
  -21.5470   -4.8300   24.8950 C   0  0  0  0  0  0  0  0  0  0  0  0
  -21.9670   -4.2410   23.6890 C   0  0  0  0  0  3  0  0  0  0  0  0
  -22.0870   -5.0270   22.5290 C   0  0  0  0  0  0  0  0  0  0  0  0
  -22.4700   -4.4510   21.3650 F   0  0  0  0  0  0  0  0  0  0  0  0
  -21.4270   -4.0700   26.0090 F   0  0  0  0  0  0  0  0  0  0  0  0
  -23.0780  -13.7350   21.0290 C   0  0  0  0  0  0  0  0  0  0  0  0
  -22.3680  -13.0640   21.9310 N   0  0  0  0  0  0  0  0  0  0  0  0
  -22.6410  -14.7630   20.5120 O   0  0  0  0  0  0  0  0  0  0  0  0
  -22.7360  -12.2330   22.3710 H   0  0  0  0  0  0  0  0  0  0  0  0
  -21.4460  -13.3860   22.1820 H   0  0  0  0  0  0  0  0  0  0  0  0
  -25.7100  -15.3410   20.1130 N   0  0  0  0  0  0  0  0  0  0  0  0
  -24.9590  -16.0090   20.2390 H   0  0  0  0  0  0  0  0  0  0  0  0
  -26.5470  -15.7500   19.7200 H   0  0  0  0  0  0  0  0  0  0  0  0
  -28.7530  -22.4940   19.4530 C   0  0  0  0  0  2  0  0  0  0  0  0
  -29.1210  -23.8490   20.1950 C   0  0  0  0  0  2  0  0  0  0  0  0
  -28.2550  -25.0590   19.6410 C   0  0  0  0  0  2  0  0  0  0  0  0
  -28.4540  -26.4760   20.0150 O   0  0  0  0  0  0  0  0  0  0  0  0
  -24.5750  -31.6930   23.1280 C   0  0  0  0  0  0  0  0  0  0  0  0
  -27.3270  -27.3150   19.9450 C   0  0  0  0  0  0  0  0  0  0  0  0
  -23.4210  -30.3240   21.4270 C   0  0  0  0  0  3  0  0  0  0  0  0
  -24.9230  -28.8680   19.9610 C   0  0  0  0  0  0  0  0  0  0  0  0
  -25.9540  -30.7080   21.2860 C   0  0  0  0  0  2  0  0  0  0  0  0
  -26.0730  -29.3580   20.5940 C   0  0  0  0  0  0  0  0  0  0  0  0
  -27.2750  -28.5910   20.5860 C   0  0  0  0  0  3  0  0  0  0  0  0
  -26.1580  -26.8980   19.2600 C   0  0  0  0  0  3  0  0  0  0  0  0
  -24.9690  -27.6440   19.2820 C   0  0  0  0  0  3  0  0  0  0  0  0
  -23.6640  -29.7050   20.0270 C   0  0  0  0  0  2  0  0  0  0  0  0
  -24.6680  -30.9240   22.0040 N   0  0  0  0  0  0  0  0  0  0  0  0
  -23.4810  -31.9270   23.6600 O   0  0  0  0  0  0  0  0  0  0  0  0
  -22.7740  -29.2580   22.3440 C   0  0  0  0  0  0  0  0  0  0  0  0
  -21.4510  -29.0640   22.2020 N   0  0  0  0  0  0  0  0  0  0  0  0
  -23.4590  -28.6120   23.1400 O   0  0  0  0  0  0  0  0  0  0  0  0
  -20.9590  -29.6360   21.5310 H   0  0  0  0  0  0  0  0  0  0  0  0
  -18.0840  -27.8250   22.6630 C   0  0  0  0  0  0  0  0  0  0  0  0
  -20.6420  -28.0870   22.9320 C   0  0  0  0  0  3  0  0  0  0  0  0
  -20.7520  -26.6850   22.2870 C   0  0  0  0  0  2  0  0  0  0  0  0
  -19.6450  -26.4040   21.2660 C   0  0  0  0  0  2  0  0  0  0  0  0
  -18.2660  -26.5100   21.9240 C   0  0  0  0  0  2  0  0  0  0  0  0
  -19.2010  -28.5730   23.1220 C   0  0  0  0  0  0  0  0  0  0  0  0
  -18.9770  -29.8060   23.7730 C   0  0  0  0  0  3  0  0  0  0  0  0
  -17.6710  -30.2910   23.9700 C   0  0  0  0  0  3  0  0  0  0  0  0
  -16.5680  -29.5380   23.5270 C   0  0  0  0  0  3  0  0  0  0  0  0
  -16.7770  -28.3080   22.8790 C   0  0  0  0  0  3  0  0  0  0  0  0
  -25.8370  -32.3300   23.7850 C   0  0  0  0  0  3  0  0  0  0  0  0
  -26.3340  -31.5470   25.0620 C   0  0  1  0  0  0  0  0  0  0  0  0
  -25.2200  -31.2860   26.1040 C   0  0  0  0  0  1  0  0  0  0  0  0
  -26.9370  -30.1800   24.6660 C   0  0  0  0  0  1  0  0  0  0  0  0
  -27.4630  -32.3440   25.7570 C   0  0  0  0  0  1  0  0  0  0  0  0
  -25.5070  -33.7210   24.1270 N   0  0  0  0  0  0  0  0  0  0  0  0
  -25.8550  -34.7870   23.3940 C   0  0  0  0  0  0  0  0  0  0  0  0
  -26.5570  -34.7040   22.3820 O   0  0  0  0  0  0  0  0  0  0  0  0
  -24.8920  -33.8600   24.9150 H   0  0  0  0  0  0  0  0  0  0  0  0
  -24.1200  -36.5670   23.0140 C   0  0  0  0  0  1  0  0  0  0  0  0
  -25.3420  -36.1640   23.8550 C   0  0  0  0  0  3  0  0  0  0  0  0
  -27.4420  -37.0590   24.7600 C   0  0  0  0  0  1  0  0  0  0  0  0
  -26.3680  -37.2280   23.7860 N   0  0  0  0  0  0  0  0  0  0  0  0
  -25.9500  -38.1430   23.9300 H   0  0  0  0  0  0  0  0  0  0  0  0
  1  3  1  0
  2  7  1  0
  2  1  2  0
  3  8  2  0
  3  6  1  0
  4  8  1  0
  5  2  1  0
  7  4  2  0
  9  1  1  0
  9 19  1  0
 10 19  1  0
 11 16  1  0
 12 13  1  0
 12 11  1  0
 14 13  1  0
 14 23  1  0
 14 15  1  0
 16 10  1  0
 16 15  1  0
 17 10  2  0
 19 18  1  0
 20 21  2  0
 21 40  1  0
 22 21  1  0
 22 25  1  0
 23 20  1  0
 23 24  1  0
 24 22  2  0
 25 26  1  0
 26 27  2  0
 28 31  1  0
 28 27  1  0
 29 28  2  0
 30 29  1  0
 30 25  2  0
 31 32  1  0
 32 33  1  0
 33 34  2  0
 35 34  1  0
 35 39  1  0
 36 35  2  0
 37 32  2  0
 37 36  1  0
 38 37  1  0
 40 41  1  0
 41 44  1  0
 41 43  1  0
 42 40  2  0
 45 46  1  0
 45 20  1  0
 47 45  1  0
 48  4  1  0
 48 49  1  0
 50 51  1  0
 50 49  1  0
 52 63  2  0
 53 51  1  0
 53 58  1  0
 54 62  1  0
 54 64  1  0
 55 61  1  0
 55 57  1  0
 56 62  1  0
 57 56  1  0
 58 57  2  0
 59 60  1  0
 59 53  2  0
 60 55  2  0
 61 54  1  0
 62 52  1  0
 64 66  2  0
 65 64  1  0
 67 65  1  0
 68 77  2  0
 68 73  1  0
 69 65  1  0
 69 73  1  0
 70 69  1  0
 71 72  1  0
 71 70  1  0
 72 68  1  0
 73 74  2  0
 74 75  1  0
 76 75  2  0
 77 76  1  0
 78 52  1  0
 78 83  1  0
 78 79  1  0
 79 82  1  1
 79 80  1  0
 81 79  1  0
 83 86  1  0
 84 88  1  0
 84 83  1  0
 85 84  2  0
 88 87  1  0
 90 88  1  0
 90 91  1  0
 90 89  1  0
M  ISO  4  10 100  19 100  50 101  51 101
M  END
>  <TORSDO>  (60) 
F 20

>  <SCORE>  (60) 
-13.715

>  <name>  (60) 
60

>  <ligand_id>  (60) 
60

>  <original_smiles>  (60) 
[H]c1c([H])c([H])c2c(c1[H])C([H])([H])C([H])([H])C([H])([H])C2([H])N([H])C(=O)C1([H])N(C(=O)C([H])(N([H])C(=O)C([H])(N([H])C([H])([H])[H])C([H])([H])[H])C(C([H])([H])[H])(C([H])([H])[H])C([H])([H])[H])C([H])([H])c2c([H])c(OC([H])([H])C([H])([H])C([H])([H])c3nc(C([H])([H])[H])c(C([H])([H])N(C(=O)N4C([H])([H])C([H])([H])C([H])([H])C([H])(n5nc(-c6c([H])c([H])c(Oc7c([H])c([H])c(F)c([H])c7F)c([H])c6[H])c(C(=O)N([H])[H])c5N([H])[H])C4([H])[H])C([H])([H])[H])c(C([H])([H])[H])n3)c([H])c([H])c2C1([H])[H]

>  <smiles>  (60) 
[H]c1c([H])c([H])c2c(c1[H])C([H])([H])C([H])([H])C([H])([H])C2([H])N([H])C(=O)C1([H])N(C(=O)C([H])(N([H])C(=O)C([H])(N([H])C([H])([H])[H])C([H])([H])[H])C(C([H])([H])[H])(C([H])([H])[H])C([H])([H])[H])C([H])([H])c2c([H])c(OC([H])([H])C([H])([H])C([H])([H])c3nc(C([H])([H])[H])c(C([H])([H])N(C(=O)N4C([H])([H])C([H])([H])C([H])([H])C([H])(n5nc(-c6c([H])c([H])c(Oc7c([H])c([H])c(F)c([H])c7F)c([H])c6[H])c(C(=O)N([H])[H])c5N([H])[H])C4([H])[H])C([H])([H])[H])c(C([H])([H])[H])n3)c([H])c([H])c2C1([H])[H]

$$$$
61:0:0
     RDKit          3D

 84 91  0  0  1  0  0  0  0  0999 V2000
  -28.8400  -22.9760   20.5440 C   0  0  0  0  0  3  0  0  0  0  0  0
  -28.9710  -21.3540   19.8780 C   0  0  0  0  0  2  0  0  0  0  0  0
  -29.3920  -19.8110   20.6080 C   0  0  0  0  0  3  0  0  0  0  0  0
  -29.8370  -18.2520   19.9210 C   0  0  0  0  0  3  0  0  0  0  0  0
  -30.3330  -16.8530   22.0800 C   0  0  0  0  0  1  0  0  0  0  0  0
  -29.8580  -16.6470   20.6350 C   0  0  0  0  0  3  0  0  0  0  0  0
  -30.5760  -15.1690   20.1150 C   0  0  0  0  0  0  0  0  0  0  0  0
  -30.4500  -12.7870   19.1360 C   0  0  0  0  0  2  0  0  0  0  0  0
  -29.4730  -12.7250   17.9350 C   0  0  0  0  0  2  0  0  0  0  0  0
  -28.0280  -12.4950   18.4110 C   0  0  0  0  0  2  0  0  0  0  0  0
  -27.6620  -13.4040   19.6110 C   0  0  0  0  0  3  0  0  0  0  0  0
  -28.7550  -13.4240   20.6990 C   0  0  0  0  0  2  0  0  0  0  0  0
  -29.9980  -13.8810   20.0620 N   0  0  0  0  0  0  0  0  0  0  0  0
  -31.7470  -15.2000   19.7150 O   0  0  0  0  0  0  0  0  0  0  0  0
  -25.3160  -13.9790   20.4400 C   0  0  0  0  0  0  0  0  0  0  0  0
  -24.2600  -13.2070   20.8350 C   0  0  0  0  0  0  0  0  0  0  0  0
  -24.7140  -11.8530   20.7760 C   0  0  0  0  0  0  0  0  0  0  0  0
  -26.3440  -13.0990   20.1550 N   0  0  0  0  0  0  0  0  0  0  0  0
  -25.9950  -11.8140   20.4250 N   0  0  0  0  0  0  0  0  0  0  0  0
  -23.9820  -10.5950   20.9770 C   0  0  0  0  0  0  0  0  0  0  0  0
  -24.4220   -9.6230   21.9020 C   0  0  0  0  0  3  0  0  0  0  0  0
  -23.6900   -8.4310   22.0920 C   0  0  0  0  0  3  0  0  0  0  0  0
  -22.5020   -8.2030   21.3570 C   0  0  0  0  0  0  0  0  0  0  0  0
  -22.0820   -9.1630   20.4210 C   0  0  0  0  0  3  0  0  0  0  0  0
  -22.8140  -10.3470   20.2290 C   0  0  0  0  0  3  0  0  0  0  0  0
  -21.7400   -7.0640   21.4570 O   0  0  0  0  0  0  0  0  0  0  0  0
  -21.6890   -6.3310   22.6150 C   0  0  0  0  0  0  0  0  0  0  0  0
  -21.2780   -6.9020   23.8390 C   0  0  0  0  0  3  0  0  0  0  0  0
  -21.1730   -6.0960   24.9920 C   0  0  0  0  0  3  0  0  0  0  0  0
  -21.4690   -4.7210   24.9190 C   0  0  0  0  0  0  0  0  0  0  0  0
  -21.8730   -4.1500   23.7000 C   0  0  0  0  0  3  0  0  0  0  0  0
  -21.9790   -4.9530   22.5510 C   0  0  0  0  0  0  0  0  0  0  0  0
  -22.3480   -4.3950   21.3720 F   0  0  0  0  0  0  0  0  0  0  0  0
  -21.3600   -3.9450   26.0220 F   0  0  0  0  0  0  0  0  0  0  0  0
  -22.8750  -13.6920   21.1510 C   0  0  0  0  0  0  0  0  0  0  0  0
  -22.1700  -12.9980   22.0390 N   0  0  0  0  0  0  0  0  0  0  0  0
  -22.4290  -14.7230   20.6490 O   0  0  0  0  0  0  0  0  0  0  0  0
  -22.5460  -12.1660   22.4670 H   0  0  0  0  0  0  0  0  0  0  0  0
  -21.2430  -13.3060   22.2930 H   0  0  0  0  0  0  0  0  0  0  0  0
  -25.4820  -15.3510   20.2730 N   0  0  0  0  0  0  0  0  0  0  0  0
  -24.7240  -16.0080   20.4190 H   0  0  0  0  0  0  0  0  0  0  0  0
  -26.3260  -15.7890   19.9260 H   0  0  0  0  0  0  0  0  0  0  0  0
  -28.0790  -24.4350   19.9310 C   0  0  0  0  0  3  0  0  0  0  0  0
  -28.2160  -25.9960   20.3100 O   0  0  0  0  0  0  0  0  0  0  0  0
  -24.6120  -31.8520   23.2040 C   0  0  0  0  0  0  0  0  0  0  0  0
  -27.1820  -27.0370   20.2030 C   0  0  0  0  0  0  0  0  0  0  0  0
  -23.4150  -30.4450   21.5740 C   0  0  0  0  0  3  0  0  0  0  0  0
  -24.8640  -28.8510   20.1510 C   0  0  0  0  0  0  0  0  0  0  0  0
  -25.9750  -30.6840   21.4160 C   0  0  0  0  0  2  0  0  0  0  0  0
  -26.0460  -29.2790   20.7690 C   0  0  0  0  0  0  0  0  0  0  0  0
  -27.1990  -28.3890   20.7760 C   0  0  0  0  0  3  0  0  0  0  0  0
  -25.9770  -26.7430   19.5280 C   0  0  0  0  0  3  0  0  0  0  0  0
  -24.8490  -27.6010   19.5120 C   0  0  0  0  0  3  0  0  0  0  0  0
  -23.6380  -29.7580   20.1990 C   0  0  0  0  0  2  0  0  0  0  0  0
  -24.6880  -31.0200   22.1180 N   0  0  0  0  0  0  0  0  0  0  0  0
  -23.5250  -32.1420   23.7290 O   0  0  0  0  0  0  0  0  0  0  0  0
  -22.7310  -29.4500   22.5460 C   0  0  0  0  0  0  0  0  0  0  0  0
  -21.4010  -29.2830   22.4280 N   0  0  0  0  0  0  0  0  0  0  0  0
  -23.4030  -28.8260   23.3730 O   0  0  0  0  0  0  0  0  0  0  0  0
  -20.9140  -29.8370   21.7370 H   0  0  0  0  0  0  0  0  0  0  0  0
  -18.0200  -28.0810   22.9510 C   0  0  0  0  0  0  0  0  0  0  0  0
  -20.5810  -28.3510   23.2080 C   0  0  0  0  0  3  0  0  0  0  0  0
  -20.6820  -26.9150   22.6420 C   0  0  0  0  0  2  0  0  0  0  0  0
  -19.5780  -26.5850   21.6330 C   0  0  0  0  0  2  0  0  0  0  0  0
  -18.1980  -26.7300   22.2810 C   0  0  0  0  0  2  0  0  0  0  0  0
  -19.1390  -28.8490   23.3720 C   0  0  0  0  0  0  0  0  0  0  0  0
  -18.9170  -30.1120   23.9640 C   0  0  0  0  0  3  0  0  0  0  0  0
  -17.6110  -30.6080   24.1360 C   0  0  0  0  0  3  0  0  0  0  0  0
  -16.5080  -29.8380   23.7290 C   0  0  0  0  0  3  0  0  0  0  0  0
  -16.7140  -28.5770   23.1440 C   0  0  0  0  0  3  0  0  0  0  0  0
  -25.8860  -32.4980   23.8290 C   0  0  0  0  0  3  0  0  0  0  0  0
  -25.5650  -33.8940   24.1700 N   0  0  0  0  0  0  0  0  0  0  0  0
  -25.8840  -34.9590   23.4200 C   0  0  0  0  0  0  0  0  0  0  0  0
  -26.5430  -34.8690   22.3810 O   0  0  0  0  0  0  0  0  0  0  0  0
  -24.9790  -34.0370   24.9780 H   0  0  0  0  0  0  0  0  0  0  0  0
  -24.1370  -36.7470   23.1150 C   0  0  0  0  0  1  0  0  0  0  0  0
  -25.3960  -36.3420   23.8990 C   0  0  0  0  0  3  0  0  0  0  0  0
  -27.5400  -37.2380   24.6970 C   0  0  0  0  0  1  0  0  0  0  0  0
  -26.4200  -37.4030   23.7730 N   0  0  0  0  0  0  0  0  0  0  0  0
  -26.0100  -38.3200   23.9340 H   0  0  0  0  0  0  0  0  0  0  0  0
  -26.4070  -31.7310   25.1070 C   0  0  1  0  0  0  0  0  0  0  0  0
  -25.3150  -31.4910   26.1770 C   0  0  0  0  0  1  0  0  0  0  0  0
  -26.9940  -30.3540   24.7220 C   0  0  0  0  0  1  0  0  0  0  0  0
  -27.5570  -32.5290   25.7640 C   0  0  0  0  0  1  0  0  0  0  0  0
  2  1  1  0
  2  3  1  0
  4  3  2  0
  4  6  1  0
  6  5  1  0
  7  6  1  0
  8 13  1  0
  9 10  1  0
  9  8  1  0
 11 10  1  0
 11 18  1  0
 11 12  1  0
 13  7  1  0
 13 12  1  0
 14  7  2  0
 15 16  2  0
 16 35  1  0
 17 16  1  0
 17 20  1  0
 18 19  1  0
 18 15  1  0
 19 17  2  0
 20 21  1  0
 21 22  2  0
 23 26  1  0
 23 22  1  0
 24 23  2  0
 25 24  1  0
 25 20  2  0
 26 27  1  0
 27 28  1  0
 28 29  2  0
 30 29  1  0
 30 34  1  0
 31 30  2  0
 32 27  2  0
 32 31  1  0
 33 32  1  0
 35 36  1  0
 36 39  1  0
 36 38  1  0
 37 35  2  0
 40 41  1  0
 40 15  1  0
 42 40  1  0
 43 44  1  0
 43  1  2  0
 45 56  2  0
 46 44  1  0
 46 51  1  0
 47 55  1  0
 47 57  1  0
 48 54  1  0
 48 50  1  0
 49 55  1  0
 50 51  2  0
 50 49  1  0
 52 46  2  0
 53 52  1  0
 53 48  2  0
 54 47  1  0
 55 45  1  0
 57 59  2  0
 58 57  1  0
 60 58  1  0
 61 70  2  0
 61 66  1  0
 62 58  1  0
 62 66  1  0
 63 62  1  0
 64 65  1  0
 64 63  1  0
 65 61  1  0
 66 67  2  0
 67 68  1  0
 69 68  2  0
 70 69  1  0
 71 45  1  0
 71 72  1  0
 71 81  1  0
 72 75  1  0
 73 77  1  0
 73 72  1  0
 74 73  2  0
 77 76  1  0
 79 77  1  0
 79 80  1  0
 79 78  1  0
 81 84  1  1
 81 82  1  0
 83 81  1  0
M  ISO  4   6 100   7 100  43 101  44 101
M  END
>  <TORSDO>  (61) 
F 21

>  <SCORE>  (61) 
-15.978

>  <name>  (61) 
61

>  <ligand_id>  (61) 
61

>  <original_smiles>  (61) 
[H]c1c([H])c([H])c2c(c1[H])C([H])([H])C([H])([H])C([H])([H])C2([H])N([H])C(=O)C1([H])N(C(=O)C([H])(N([H])C(=O)C([H])(N([H])C([H])([H])[H])C([H])([H])[H])C(C([H])([H])[H])(C([H])([H])[H])C([H])([H])[H])C([H])([H])c2c([H])c(OC([H])([H])C([H])([H])C([H])([H])C([H])([H])C([H])([H])C([H])(C(=O)N3C([H])([H])C([H])([H])C([H])([H])C([H])(n4nc(-c5c([H])c([H])c(Oc6c([H])c([H])c(F)c([H])c6F)c([H])c5[H])c(C(=O)N([H])[H])c4N([H])[H])C3([H])[H])C([H])([H])[H])c([H])c([H])c2C1([H])[H]

>  <smiles>  (61) 
[H]c1c([H])c([H])c2c(c1[H])C([H])([H])C([H])([H])C([H])([H])C2([H])N([H])C(=O)C1([H])N(C(=O)C([H])(N([H])C(=O)C([H])(N([H])C([H])([H])[H])C([H])([H])[H])C(C([H])([H])[H])(C([H])([H])[H])C([H])([H])[H])C([H])([H])c2c([H])c(OC([H])([H])C([H])([H])C([H])([H])C([H])([H])C([H])([H])C([H])(C(=O)N3C([H])([H])C([H])([H])C([H])([H])C([H])(n4nc(-c5c([H])c([H])c(Oc6c([H])c([H])c(F)c([H])c6F)c([H])c5[H])c(C(=O)N([H])[H])c4N([H])[H])C3([H])[H])C([H])([H])[H])c([H])c([H])c2C1([H])[H]

$$$$
62:0:0
     RDKit          3D

 91 99  0  0  1  0  0  0  0  0999 V2000
  -27.6100  -22.5390   18.2950 C   0  0  0  0  0  3  0  0  0  0  0  0
  -28.4790  -22.2920   19.3870 C   0  0  0  0  0  0  0  0  0  0  0  0
  -28.8670  -20.8780   19.4970 C   0  0  0  0  0  0  0  0  0  0  0  0
  -27.8600  -20.4660   17.4430 C   0  0  0  0  0  0  0  0  0  0  0  0
  -27.6160  -19.4950   16.3070 C   0  0  0  0  0  1  0  0  0  0  0  0
  -27.3070  -21.6530   17.3410 N   0  0  0  0  0  0  0  0  0  0  0  0
  -28.6000  -20.0560   18.4570 N   0  0  0  0  0  0  0  0  0  0  0  0
  -28.9040  -23.5950   20.2100 C   0  0  0  0  0  3  0  0  0  0  0  0
  -28.1490  -24.9760   19.7880 C   0  0  0  0  0  3  0  0  0  0  0  0
  -28.4020  -26.3980   20.1830 O   0  0  0  0  0  0  0  0  0  0  0  0
  -24.7160  -31.8460   23.2410 C   0  0  0  0  0  0  0  0  0  0  0  0
  -27.3160  -27.3100   20.1020 C   0  0  0  0  0  0  0  0  0  0  0  0
  -23.5140  -30.4840   21.5750 C   0  0  0  0  0  3  0  0  0  0  0  0
  -24.9650  -28.9690   20.1140 C   0  0  0  0  0  0  0  0  0  0  0  0
  -26.0590  -30.7900   21.4050 C   0  0  0  0  0  2  0  0  0  0  0  0
  -26.1370  -29.4240   20.7310 C   0  0  0  0  0  0  0  0  0  0  0  0
  -27.3120  -28.6040   20.7230 C   0  0  0  0  0  3  0  0  0  0  0  0
  -26.1220  -26.9490   19.4250 C   0  0  0  0  0  3  0  0  0  0  0  0
  -24.9630  -27.7390   19.4480 C   0  0  0  0  0  3  0  0  0  0  0  0
  -23.7300  -29.8460   20.1800 C   0  0  0  0  0  2  0  0  0  0  0  0
  -24.7830  -31.0550   22.1310 N   0  0  0  0  0  0  0  0  0  0  0  0
  -23.6310  -32.1160   23.7770 O   0  0  0  0  0  0  0  0  0  0  0  0
  -22.8480  -29.4450   22.5100 C   0  0  0  0  0  0  0  0  0  0  0  0
  -21.5200  -29.2810   22.3870 N   0  0  0  0  0  0  0  0  0  0  0  0
  -23.5250  -28.7940   23.3100 O   0  0  0  0  0  0  0  0  0  0  0  0
  -21.0300  -29.8580   21.7160 H   0  0  0  0  0  0  0  0  0  0  0  0
  -18.1340  -28.1100   22.8880 C   0  0  0  0  0  0  0  0  0  0  0  0
  -20.6970  -28.3350   23.1440 C   0  0  0  0  0  3  0  0  0  0  0  0
  -20.7800  -26.9170   22.5350 C   0  0  0  0  0  2  0  0  0  0  0  0
  -19.6670  -26.6290   21.5230 C   0  0  0  0  0  2  0  0  0  0  0  0
  -18.2910  -26.7750   22.1800 C   0  0  0  0  0  2  0  0  0  0  0  0
  -19.2640  -28.8490   23.3270 C   0  0  0  0  0  0  0  0  0  0  0  0
  -19.0630  -30.1000   23.9520 C   0  0  0  0  0  3  0  0  0  0  0  0
  -17.7650  -30.6100   24.1420 C   0  0  0  0  0  3  0  0  0  0  0  0
  -16.6500  -29.8670   23.7190 C   0  0  0  0  0  3  0  0  0  0  0  0
  -16.8350  -28.6190   23.0970 C   0  0  0  0  0  3  0  0  0  0  0  0
  -25.9990  -32.4680   23.8740 C   0  0  0  0  0  3  0  0  0  0  0  0
  -25.6770  -33.8500   24.2570 N   0  0  0  0  0  0  0  0  0  0  0  0
  -26.0260  -34.9350   23.5550 C   0  0  0  0  0  0  0  0  0  0  0  0
  -26.7210  -34.8790   22.5360 O   0  0  0  0  0  0  0  0  0  0  0  0
  -25.0630  -33.9680   25.0490 H   0  0  0  0  0  0  0  0  0  0  0  0
  -24.3290  -36.7620   23.2180 C   0  0  0  0  0  1  0  0  0  0  0  0
  -25.5260  -36.3010   24.0640 C   0  0  0  0  0  3  0  0  0  0  0  0
  -27.6230  -37.1180   25.0450 C   0  0  0  0  0  1  0  0  0  0  0  0
  -26.5690  -37.3510   24.0620 N   0  0  0  0  0  0  0  0  0  0  0  0
  -26.1600  -38.2620   24.2460 H   0  0  0  0  0  0  0  0  0  0  0  0
  -26.5290  -31.6550   25.1180 C   0  0  1  0  0  0  0  0  0  0  0  0
  -25.4450  -31.3700   26.1820 C   0  0  0  0  0  1  0  0  0  0  0  0
  -27.1210  -30.2970   24.6730 C   0  0  0  0  0  1  0  0  0  0  0  0
  -27.6780  -32.4330   25.8020 C   0  0  0  0  0  1  0  0  0  0  0  0
  -29.6370  -20.0400   20.5940 C   0  0  0  0  0  2  0  0  0  0  0  0
  -29.2290  -18.4620   20.7480 C   0  0  0  0  0  3  0  0  0  0  0  0
  -30.2680  -17.3410   21.2570 C   0  0  0  0  0  3  0  0  0  0  0  0
  -30.6180  -14.7570   20.9750 C   0  0  0  0  0  0  0  0  0  0  0  0
  -30.5090  -12.4980   19.9230 C   0  0  0  0  0  2  0  0  0  0  0  0
  -29.6610  -12.5840   18.6360 C   0  0  0  0  0  2  0  0  0  0  0  0
  -28.1670  -12.3790   18.9590 C   0  0  0  0  0  2  0  0  0  0  0  0
  -27.6910  -13.2430   20.1590 C   0  0  0  0  0  3  0  0  0  0  0  0
  -28.6700  -13.1620   21.3520 C   0  0  0  0  0  2  0  0  0  0  0  0
  -30.0030  -13.5310   20.8550 N   0  0  0  0  0  0  0  0  0  0  0  0
  -31.8110  -14.8820   20.6880 O   0  0  0  0  0  0  0  0  0  0  0  0
  -29.8440  -15.8730   21.2250 N   0  0  0  0  0  0  0  0  0  0  0  0
  -28.8770  -15.6880   21.4520 H   0  0  0  0  0  0  0  0  0  0  0  0
  -25.2370  -13.7680   20.6890 C   0  0  0  0  0  0  0  0  0  0  0  0
  -24.1680  -12.9700   20.9900 C   0  0  0  0  0  0  0  0  0  0  0  0
  -24.6690  -11.6310   21.0140 C   0  0  0  0  0  0  0  0  0  0  0  0
  -26.3220  -12.9180   20.5480 N   0  0  0  0  0  0  0  0  0  0  0  0
  -25.9820  -11.6270   20.8030 N   0  0  0  0  0  0  0  0  0  0  0  0
  -23.9670  -10.3510   21.1670 C   0  0  0  0  0  0  0  0  0  0  0  0
  -24.3620   -9.4030   22.1350 C   0  0  0  0  0  3  0  0  0  0  0  0
  -23.6570   -8.1880   22.2770 C   0  0  0  0  0  3  0  0  0  0  0  0
  -22.5430   -7.9130   21.4490 C   0  0  0  0  0  0  0  0  0  0  0  0
  -22.1680   -8.8510   20.4710 C   0  0  0  0  0  3  0  0  0  0  0  0
  -22.8730  -10.0570   20.3280 C   0  0  0  0  0  3  0  0  0  0  0  0
  -21.8140   -6.7510   21.4960 O   0  0  0  0  0  0  0  0  0  0  0  0
  -21.7080   -6.0140   22.6490 C   0  0  0  0  0  0  0  0  0  0  0  0
  -21.1770   -6.5610   23.8370 C   0  0  0  0  0  3  0  0  0  0  0  0
  -21.0240   -5.7500   24.9790 C   0  0  0  0  0  3  0  0  0  0  0  0
  -21.3900   -4.3920   24.9330 C   0  0  0  0  0  0  0  0  0  0  0  0
  -21.9120   -3.8430   23.7480 C   0  0  0  0  0  3  0  0  0  0  0  0
  -22.0690   -4.6520   22.6090 C   0  0  0  0  0  0  0  0  0  0  0  0
  -22.5530   -4.1140   21.4650 F   0  0  0  0  0  0  0  0  0  0  0  0
  -21.2350   -3.6080   26.0260 F   0  0  0  0  0  0  0  0  0  0  0  0
  -22.7420  -13.4090   21.1490 C   0  0  0  0  0  0  0  0  0  0  0  0
  -21.9730  -12.7030   21.9670 N   0  0  0  0  0  0  0  0  0  0  0  0
  -22.3180  -14.4170   20.5840 O   0  0  0  0  0  0  0  0  0  0  0  0
  -22.3290  -11.8920   22.4500 H   0  0  0  0  0  0  0  0  0  0  0  0
  -21.0130  -12.9810   22.1180 H   0  0  0  0  0  0  0  0  0  0  0  0
  -25.3710  -15.1410   20.5020 N   0  0  0  0  0  0  0  0  0  0  0  0
  -24.5730  -15.7660   20.5430 H   0  0  0  0  0  0  0  0  0  0  0  0
  -26.2230  -15.6060   20.2170 H   0  0  0  0  0  0  0  0  0  0  0  0
  1  2  2  0
  2  3  1  0
  2  8  1  0
  3 51  1  0
  4  7  1  0
  5  4  1  0
  6  4  2  0
  6  1  1  0
  7  3  2  0
  9 10  1  0
  9  8  2  0
 11 22  2  0
 12 10  1  0
 12 17  1  0
 13 21  1  0
 13 23  1  0
 14 20  1  0
 14 16  1  0
 15 21  1  0
 16 15  1  0
 17 16  2  0
 18 19  1  0
 18 12  2  0
 19 14  2  0
 20 13  1  0
 21 11  1  0
 23 25  2  0
 24 23  1  0
 26 24  1  0
 27 36  2  0
 27 32  1  0
 28 24  1  0
 28 32  1  0
 29 28  1  0
 30 31  1  0
 30 29  1  0
 31 27  1  0
 32 33  2  0
 33 34  1  0
 35 34  2  0
 36 35  1  0
 37 11  1  0
 37 38  1  0
 37 47  1  0
 38 41  1  0
 39 43  1  0
 39 38  1  0
 40 39  2  0
 43 42  1  0
 45 43  1  0
 45 46  1  0
 45 44  1  0
 47 50  1  1
 47 48  1  0
 49 47  1  0
 51 52  1  0
 52 53  2  0
 54 62  1  0
 55 60  1  0
 56 57  1  0
 56 55  1  0
 58 57  1  0
 58 67  1  0
 58 59  1  0
 60 54  1  0
 60 59  1  0
 61 54  2  0
 62 53  1  0
 62 63  1  0
 64 65  2  0
 65 66  1  0
 65 84  1  0
 66 69  1  0
 67 64  1  0
 67 68  1  0
 68 66  2  0
 69 70  1  0
 70 71  2  0
 72 75  1  0
 72 71  1  0
 73 72  2  0
 74 73  1  0
 74 69  2  0
 75 76  1  0
 76 77  1  0
 77 78  2  0
 79 78  1  0
 79 83  1  0
 80 79  2  0
 81 76  2  0
 81 80  1  0
 82 81  1  0
 84 85  1  0
 85 88  1  0
 85 87  1  0
 86 84  2  0
 89 90  1  0
 89 64  1  0
 91 89  1  0
M  ISO  4   9 101  10 101  54 100  62 100
M  END
>  <TORSDO>  (62) 
F 21

>  <SCORE>  (62) 
-13.205

>  <name>  (62) 
62

>  <ligand_id>  (62) 
62

>  <original_smiles>  (62) 
[H]c1nc(C([H])([H])[H])nc(C([H])([H])C([H])([H])C([H])([H])N([H])C(=O)N2C([H])([H])C([H])([H])C([H])([H])C([H])(n3nc(-c4c([H])c([H])c(Oc5c([H])c([H])c(F)c([H])c5F)c([H])c4[H])c(C(=O)N([H])[H])c3N([H])[H])C2([H])[H])c1C([H])([H])C([H])([H])Oc1c([H])c([H])c2c(c1[H])C([H])([H])N(C(=O)C([H])(N([H])C(=O)C([H])(N([H])C([H])([H])[H])C([H])([H])[H])C(C([H])([H])[H])(C([H])([H])[H])C([H])([H])[H])C([H])(C(=O)N([H])C1([H])c3c([H])c([H])c([H])c([H])c3C([H])([H])C([H])([H])C1([H])[H])C2([H])[H]

>  <smiles>  (62) 
[H]c1nc(C([H])([H])[H])nc(C([H])([H])C([H])([H])C([H])([H])N([H])C(=O)N2C([H])([H])C([H])([H])C([H])([H])C([H])(n3nc(-c4c([H])c([H])c(Oc5c([H])c([H])c(F)c([H])c5F)c([H])c4[H])c(C(=O)N([H])[H])c3N([H])[H])C2([H])[H])c1C([H])([H])C([H])([H])Oc1c([H])c([H])c2c(c1[H])C([H])([H])N(C(=O)C([H])(N([H])C(=O)C([H])(N([H])C([H])([H])[H])C([H])([H])[H])C(C([H])([H])[H])(C([H])([H])[H])C([H])([H])[H])C([H])(C(=O)N([H])C1([H])c3c([H])c([H])c([H])c([H])c3C([H])([H])C([H])([H])C1([H])[H])C2([H])[H]

$$$$
63:0:0
     RDKit          3D

 90 98  0  0  1  0  0  0  0  0999 V2000
  -28.1910  -20.3170   20.0350 C   0  0  0  0  0  3  0  0  0  0  0  0
  -28.5630  -18.9420   20.0570 C   0  0  0  0  0  3  0  0  0  0  0  0
  -30.1160  -20.7790   21.3700 C   0  0  0  0  0  3  0  0  0  0  0  0
  -28.9440  -21.2840   20.7560 C   0  0  0  0  0  0  0  0  0  0  0  0
  -29.7140  -18.5240   20.7680 C   0  0  0  0  0  0  0  0  0  0  0  0
  -30.4830  -19.4650   21.3730 N   0  0  0  0  0  0  0  0  0  0  0  0
  -26.8950  -22.6130   21.4410 C   0  0  0  0  0  1  0  0  0  0  0  0
  -28.3990  -22.7240   21.1000 C   0  0  0  0  0  3  0  0  0  0  0  0
  -28.6830  -23.9790   20.1560 C   0  0  0  0  0  3  0  0  0  0  0  0
  -28.3190  -25.3970   20.7900 C   0  0  0  0  0  3  0  0  0  0  0  0
  -28.4680  -26.6520   20.0350 O   0  0  0  0  0  0  0  0  0  0  0  0
  -24.6560  -31.9000   23.1660 C   0  0  0  0  0  0  0  0  0  0  0  0
  -27.3460  -27.4820   20.0210 C   0  0  0  0  0  0  0  0  0  0  0  0
  -23.4720  -30.5110   21.5020 C   0  0  0  0  0  3  0  0  0  0  0  0
  -24.9500  -29.0170   20.0420 C   0  0  0  0  0  0  0  0  0  0  0  0
  -26.0000  -30.8920   21.3130 C   0  0  0  0  0  2  0  0  0  0  0  0
  -26.1070  -29.5290   20.6440 C   0  0  0  0  0  0  0  0  0  0  0  0
  -27.3120  -28.7710   20.6280 C   0  0  0  0  0  3  0  0  0  0  0  0
  -26.1740  -27.0120   19.3960 C   0  0  0  0  0  3  0  0  0  0  0  0
  -24.9830  -27.7650   19.4080 C   0  0  0  0  0  3  0  0  0  0  0  0
  -23.6930  -29.8620   20.1080 C   0  0  0  0  0  2  0  0  0  0  0  0
  -24.7290  -31.1170   22.0500 N   0  0  0  0  0  0  0  0  0  0  0  0
  -23.5700  -32.1470   23.7090 O   0  0  0  0  0  0  0  0  0  0  0  0
  -22.8360  -29.4640   22.4460 C   0  0  0  0  0  0  0  0  0  0  0  0
  -21.5120  -29.2670   22.3210 N   0  0  0  0  0  0  0  0  0  0  0  0
  -23.5290  -28.8330   23.2470 O   0  0  0  0  0  0  0  0  0  0  0  0
  -21.0130  -29.8310   21.6480 H   0  0  0  0  0  0  0  0  0  0  0  0
  -18.1540  -28.0150   22.8120 C   0  0  0  0  0  0  0  0  0  0  0  0
  -20.7090  -28.3020   23.0740 C   0  0  0  0  0  3  0  0  0  0  0  0
  -20.8290  -26.8890   22.4620 C   0  0  0  0  0  2  0  0  0  0  0  0
  -19.7250  -26.5720   21.4490 C   0  0  0  0  0  2  0  0  0  0  0  0
  -18.3450  -26.6830   22.1040 C   0  0  0  0  0  2  0  0  0  0  0  0
  -19.2660  -28.7820   23.2530 C   0  0  0  0  0  0  0  0  0  0  0  0
  -19.0340  -30.0280   23.8750 C   0  0  0  0  0  3  0  0  0  0  0  0
  -17.7230  -30.5070   24.0620 C   0  0  0  0  0  3  0  0  0  0  0  0
  -16.6270  -29.7370   23.6350 C   0  0  0  0  0  3  0  0  0  0  0  0
  -16.8430  -28.4940   23.0160 C   0  0  0  0  0  3  0  0  0  0  0  0
  -25.9300  -32.5430   23.7980 C   0  0  0  0  0  3  0  0  0  0  0  0
  -26.4560  -31.7630   25.0650 C   0  0  1  0  0  0  0  0  0  0  0  0
  -25.3650  -31.5020   26.1290 C   0  0  0  0  0  1  0  0  0  0  0  0
  -27.0540  -30.3970   24.6550 C   0  0  0  0  0  1  0  0  0  0  0  0
  -27.5950  -32.5660   25.7360 C   0  0  0  0  0  1  0  0  0  0  0  0
  -25.6010  -33.9340   24.1440 N   0  0  0  0  0  0  0  0  0  0  0  0
  -25.9210  -35.0000   23.3990 C   0  0  0  0  0  0  0  0  0  0  0  0
  -26.5950  -34.9190   22.3680 O   0  0  0  0  0  0  0  0  0  0  0  0
  -25.0070  -34.0710   24.9480 H   0  0  0  0  0  0  0  0  0  0  0  0
  -24.1790  -36.7810   23.0530 C   0  0  0  0  0  1  0  0  0  0  0  0
  -25.4140  -36.3760   23.8730 C   0  0  0  0  0  3  0  0  0  0  0  0
  -27.5250  -37.2730   24.7490 C   0  0  0  0  0  1  0  0  0  0  0  0
  -26.4360  -37.4420   23.7910 N   0  0  0  0  0  0  0  0  0  0  0  0
  -26.0180  -38.3550   23.9460 H   0  0  0  0  0  0  0  0  0  0  0  0
  -30.0920  -17.0270   21.0830 C   0  0  0  0  0  2  0  0  0  0  0  0
  -30.8960  -14.8030   20.2540 C   0  0  0  0  0  0  0  0  0  0  0  0
  -30.6470  -12.5400   19.2880 C   0  0  0  0  0  2  0  0  0  0  0  0
  -29.7120  -12.6210   18.0620 C   0  0  0  0  0  2  0  0  0  0  0  0
  -28.2350  -12.5000   18.4890 C   0  0  0  0  0  2  0  0  0  0  0  0
  -27.8710  -13.4090   19.6940 C   0  0  0  0  0  3  0  0  0  0  0  0
  -28.9280  -13.3180   20.8170 C   0  0  0  0  0  2  0  0  0  0  0  0
  -30.2330  -13.6080   20.2130 N   0  0  0  0  0  0  0  0  0  0  0  0
  -32.1080  -14.8680   20.0350 O   0  0  0  0  0  0  0  0  0  0  0  0
  -30.0540  -16.3860   18.6590 C   0  0  0  0  0  1  0  0  0  0  0  0
  -30.1310  -15.9290   20.0570 N   0  0  0  0  0  0  0  0  0  0  0  0
  -25.4880  -14.0280   20.4240 C   0  0  0  0  0  0  0  0  0  0  0  0
  -24.4130  -13.2640   20.7870 C   0  0  0  0  0  0  0  0  0  0  0  0
  -24.8660  -11.9090   20.7600 C   0  0  0  0  0  0  0  0  0  0  0  0
  -26.5240  -13.1400   20.1870 N   0  0  0  0  0  0  0  0  0  0  0  0
  -26.1560  -11.8600   20.4560 N   0  0  0  0  0  0  0  0  0  0  0  0
  -24.1270  -10.6530   20.9470 C   0  0  0  0  0  0  0  0  0  0  0  0
  -24.5390   -9.6920   21.8960 C   0  0  0  0  0  3  0  0  0  0  0  0
  -23.8040   -8.4990   22.0730 C   0  0  0  0  0  3  0  0  0  0  0  0
  -22.6440   -8.2580   21.2990 C   0  0  0  0  0  0  0  0  0  0  0  0
  -22.2510   -9.2080   20.3390 C   0  0  0  0  0  3  0  0  0  0  0  0
  -22.9870  -10.3910   20.1610 C   0  0  0  0  0  3  0  0  0  0  0  0
  -21.8810   -7.1180   21.3850 O   0  0  0  0  0  0  0  0  0  0  0  0
  -21.7900   -6.3990   22.5490 C   0  0  0  0  0  0  0  0  0  0  0  0
  -21.3140   -6.9750   23.7470 C   0  0  0  0  0  3  0  0  0  0  0  0
  -21.1720   -6.1800   24.9030 C   0  0  0  0  0  3  0  0  0  0  0  0
  -21.4960   -4.8120   24.8610 C   0  0  0  0  0  0  0  0  0  0  0  0
  -21.9690   -4.2350   23.6680 C   0  0  0  0  0  3  0  0  0  0  0  0
  -22.1130   -5.0280   22.5160 C   0  0  0  0  0  0  0  0  0  0  0  0
  -22.5470   -4.4630   21.3620 F   0  0  0  0  0  0  0  0  0  0  0  0
  -21.3540   -4.0470   25.9680 F   0  0  0  0  0  0  0  0  0  0  0  0
  -23.0180  -13.7510   21.0480 C   0  0  0  0  0  0  0  0  0  0  0  0
  -22.2810  -13.0680   21.9180 N   0  0  0  0  0  0  0  0  0  0  0  0
  -22.5880  -14.7720   20.5120 O   0  0  0  0  0  0  0  0  0  0  0  0
  -22.6380  -12.2420   22.3740 H   0  0  0  0  0  0  0  0  0  0  0  0
  -21.3450  -13.3800   22.1350 H   0  0  0  0  0  0  0  0  0  0  0  0
  -25.6690  -15.3990   20.2540 N   0  0  0  0  0  0  0  0  0  0  0  0
  -24.9200  -16.0660   20.4010 H   0  0  0  0  0  0  0  0  0  0  0  0
  -26.5410  -15.8320   19.9810 H   0  0  0  0  0  0  0  0  0  0  0  0
  1  2  2  0
  1  4  1  0
  2  5  1  0
  3  6  1  0
  4  8  1  0
  4  3  2  0
  5 52  1  0
  5  6  2  0
  8  7  1  0
  9 10  2  0
  9  8  1  0
 11 10  1  0
 12 23  2  0
 13 11  1  0
 13 18  1  0
 14 22  1  0
 14 24  1  0
 15 21  1  0
 15 17  1  0
 16 22  1  0
 17 16  1  0
 18 17  2  0
 19 20  1  0
 19 13  2  0
 20 15  2  0
 21 14  1  0
 22 12  1  0
 24 26  2  0
 25 24  1  0
 27 25  1  0
 28 37  2  0
 28 33  1  0
 29 25  1  0
 29 33  1  0
 30 29  1  0
 31 32  1  0
 31 30  1  0
 32 28  1  0
 33 34  2  0
 34 35  1  0
 36 35  2  0
 37 36  1  0
 38 12  1  0
 38 43  1  0
 38 39  1  0
 39 42  1  1
 39 40  1  0
 41 39  1  0
 43 46  1  0
 44 48  1  0
 44 43  1  0
 45 44  2  0
 48 47  1  0
 50 48  1  0
 50 51  1  0
 50 49  1  0
 54 59  1  0
 55 56  1  0
 55 54  1  0
 57 56  1  0
 57 66  1  0
 57 58  1  0
 59 53  1  0
 59 58  1  0
 60 53  2  0
 61 62  1  0
 62 53  1  0
 62 52  1  0
 63 64  2  0
 64 83  1  0
 65 64  1  0
 65 68  1  0
 66 63  1  0
 66 67  1  0
 67 65  2  0
 68 69  1  0
 69 70  2  0
 71 74  1  0
 71 70  1  0
 72 71  2  0
 73 72  1  0
 73 68  2  0
 74 75  1  0
 75 76  1  0
 76 77  2  0
 78 77  1  0
 78 82  1  0
 79 78  2  0
 80 75  2  0
 80 79  1  0
 81 80  1  0
 83 84  1  0
 84 87  1  0
 84 86  1  0
 85 83  2  0
 88 89  1  0
 88 63  1  0
 90 88  1  0
M  ISO  4  10 101  11 101  53 100  62 100
M  END
>  <TORSDO>  (63) 
F 20

>  <SCORE>  (63) 
-13.676

>  <name>  (63) 
63

>  <ligand_id>  (63) 
63

>  <original_smiles>  (63) 
[H]c1nc(C([H])([H])N(C(=O)N2C([H])([H])C([H])([H])C([H])([H])C([H])(n3nc(-c4c([H])c([H])c(Oc5c([H])c([H])c(F)c([H])c5F)c([H])c4[H])c(C(=O)N([H])[H])c3N([H])[H])C2([H])[H])C([H])([H])[H])c([H])c([H])c1C([H])(C([H])([H])[H])C([H])([H])C([H])([H])Oc1c([H])c([H])c2c(c1[H])C([H])([H])N(C(=O)C([H])(N([H])C(=O)C([H])(N([H])C([H])([H])[H])C([H])([H])[H])C(C([H])([H])[H])(C([H])([H])[H])C([H])([H])[H])C([H])(C(=O)N([H])C1([H])c3c([H])c([H])c([H])c([H])c3C([H])([H])C([H])([H])C1([H])[H])C2([H])[H]

>  <smiles>  (63) 
[H]c1nc(C([H])([H])N(C(=O)N2C([H])([H])C([H])([H])C([H])([H])C([H])(n3nc(-c4c([H])c([H])c(Oc5c([H])c([H])c(F)c([H])c5F)c([H])c4[H])c(C(=O)N([H])[H])c3N([H])[H])C2([H])[H])C([H])([H])[H])c([H])c([H])c1C([H])(C([H])([H])[H])C([H])([H])C([H])([H])Oc1c([H])c([H])c2c(c1[H])C([H])([H])N(C(=O)C([H])(N([H])C(=O)C([H])(N([H])C([H])([H])[H])C([H])([H])[H])C(C([H])([H])[H])(C([H])([H])[H])C([H])([H])[H])C([H])(C(=O)N([H])C1([H])c3c([H])c([H])c([H])c([H])c3C([H])([H])C([H])([H])C1([H])[H])C2([H])[H]

$$$$
64:0:0
     RDKit          3D

 92100  0  0  1  0  0  0  0  0999 V2000
  -28.0600  -19.6710   19.4330 C   0  0  0  0  0  2  0  0  0  0  0  0
  -31.6400  -14.7240   19.2860 C   0  0  0  0  0  0  0  0  0  0  0  0
  -31.2390  -12.4690   18.4320 C   0  0  0  0  0  2  0  0  0  0  0  0
  -30.0610  -12.5460   17.4360 C   0  0  0  0  0  2  0  0  0  0  0  0
  -28.7110  -12.4090   18.1670 C   0  0  0  0  0  2  0  0  0  0  0  0
  -28.5960  -13.3160   19.4220 C   0  0  0  0  0  3  0  0  0  0  0  0
  -29.8690  -13.2240   20.2920 C   0  0  0  0  0  2  0  0  0  0  0  0
  -31.0260  -13.5190   19.4350 N   0  0  0  0  0  0  0  0  0  0  0  0
  -32.8040  -14.8240   18.8840 O   0  0  0  0  0  0  0  0  0  0  0  0
  -30.2440  -16.5570   21.2440 C   0  0  0  0  0  3  0  0  0  0  0  0
  -29.5580  -17.5160   22.0090 C   0  0  0  0  0  0  0  0  0  0  0  0
  -30.1820  -16.6730   19.8420 C   0  0  0  0  0  0  0  0  0  0  0  0
  -28.8900  -18.5860   20.1130 C   0  0  0  0  0  0  0  0  0  0  0  0
  -29.5230  -17.4400   23.5210 C   0  0  0  0  0  1  0  0  0  0  0  0
  -30.7750  -16.0880   17.5190 C   0  0  0  0  0  1  0  0  0  0  0  0
  -28.8790  -18.5260   21.4370 N   0  0  0  0  0  0  0  0  0  0  0  0
  -29.4960  -17.7160   19.3170 N   0  0  0  0  0  0  0  0  0  0  0  0
  -30.7790  -15.7190   18.9490 N   0  0  0  0  0  0  0  0  0  0  0  0
  -26.6370  -13.8650   20.9990 C   0  0  0  0  0  0  0  0  0  0  0  0
  -25.5650  -13.1220   21.4140 C   0  0  0  0  0  0  0  0  0  0  0  0
  -25.7230  -11.8320   20.8220 C   0  0  0  0  0  0  0  0  0  0  0  0
  -27.3900  -13.0250   20.1930 N   0  0  0  0  0  0  0  0  0  0  0  0
  -26.8600  -11.7770   20.1400 N   0  0  0  0  0  0  0  0  0  0  0  0
  -24.8320  -10.6670   20.8170 C   0  0  0  0  0  0  0  0  0  0  0  0
  -25.1770   -9.4720   21.4860 C   0  0  0  0  0  3  0  0  0  0  0  0
  -24.2960   -8.3700   21.4820 C   0  0  0  0  0  3  0  0  0  0  0  0
  -23.0550   -8.4550   20.8060 C   0  0  0  0  0  0  0  0  0  0  0  0
  -22.7280   -9.6390   20.1220 C   0  0  0  0  0  3  0  0  0  0  0  0
  -23.6080  -10.7340   20.1220 C   0  0  0  0  0  3  0  0  0  0  0  0
  -22.1480   -7.4270   20.7250 O   0  0  0  0  0  0  0  0  0  0  0  0
  -21.9040   -6.5980   21.7910 C   0  0  0  0  0  0  0  0  0  0  0  0
  -21.4440   -7.0920   23.0300 C   0  0  0  0  0  3  0  0  0  0  0  0
  -21.1400   -6.1980   24.0770 C   0  0  0  0  0  3  0  0  0  0  0  0
  -21.2860   -4.8120   23.8820 C   0  0  0  0  0  0  0  0  0  0  0  0
  -21.7390   -4.3170   22.6480 C   0  0  0  0  0  3  0  0  0  0  0  0
  -22.0440   -5.2080   21.6030 C   0  0  0  0  0  0  0  0  0  0  0  0
  -22.4610   -4.7240   20.4080 F   0  0  0  0  0  0  0  0  0  0  0  0
  -20.9870   -3.9520   24.8850 F   0  0  0  0  0  0  0  0  0  0  0  0
  -24.4040  -13.6090   22.2340 C   0  0  0  0  0  0  0  0  0  0  0  0
  -23.8180  -12.7360   23.0440 N   0  0  0  0  0  0  0  0  0  0  0  0
  -24.0410  -14.7850   22.1940 O   0  0  0  0  0  0  0  0  0  0  0  0
  -24.1280  -11.7770   23.0910 H   0  0  0  0  0  0  0  0  0  0  0  0
  -23.0460  -13.0320   23.6260 H   0  0  0  0  0  0  0  0  0  0  0  0
  -27.0240  -15.1840   21.2190 N   0  0  0  0  0  0  0  0  0  0  0  0
  -26.4610  -15.8250   21.7650 H   0  0  0  0  0  0  0  0  0  0  0  0
  -27.8380  -15.6220   20.8090 H   0  0  0  0  0  0  0  0  0  0  0  0
  -28.4720  -21.1270   19.7560 C   0  0  0  0  0  2  0  0  0  0  0  0
  -27.8170  -22.1520   18.7980 C   0  0  0  0  0  2  0  0  0  0  0  0
  -27.2540  -23.4250   19.4670 C   0  0  0  0  0  2  0  0  0  0  0  0
  -28.2820  -24.4390   20.0280 C   0  0  0  0  0  2  0  0  0  0  0  0
  -28.7550  -25.5280   19.0280 C   0  0  0  0  0  2  0  0  0  0  0  0
  -28.6750  -26.8600   19.5580 O   0  0  0  0  0  0  0  0  0  0  0  0
  -24.6850  -31.6370   23.0070 C   0  0  0  0  0  0  0  0  0  0  0  0
  -27.4640  -27.5260   19.5880 C   0  0  0  0  0  0  0  0  0  0  0  0
  -23.5240  -30.3310   21.2570 C   0  0  0  0  0  3  0  0  0  0  0  0
  -25.0210  -28.9570   19.7160 C   0  0  0  0  0  0  0  0  0  0  0  0
  -26.0370  -30.7750   21.0970 C   0  0  0  0  0  2  0  0  0  0  0  0
  -26.1590  -29.4600   20.3560 C   0  0  0  0  0  0  0  0  0  0  0  0
  -27.3800  -28.7500   20.2920 C   0  0  0  0  0  3  0  0  0  0  0  0
  -26.3020  -27.0450   18.9400 C   0  0  0  0  0  3  0  0  0  0  0  0
  -25.0860  -27.7470   19.0090 C   0  0  0  0  0  3  0  0  0  0  0  0
  -23.7500  -29.7700   19.8290 C   0  0  0  0  0  2  0  0  0  0  0  0
  -24.7660  -30.9270   21.8450 N   0  0  0  0  0  0  0  0  0  0  0  0
  -23.5940  -31.8340   23.5610 O   0  0  0  0  0  0  0  0  0  0  0  0
  -22.9080  -29.2170   22.1320 C   0  0  0  0  0  0  0  0  0  0  0  0
  -21.5850  -29.0260   22.0080 N   0  0  0  0  0  0  0  0  0  0  0  0
  -23.6140  -28.5340   22.8790 O   0  0  0  0  0  0  0  0  0  0  0  0
  -21.0800  -29.6270   21.3700 H   0  0  0  0  0  0  0  0  0  0  0  0
  -18.2280  -27.7810   22.4940 C   0  0  0  0  0  0  0  0  0  0  0  0
  -20.7940  -28.0130   22.7060 C   0  0  0  0  0  3  0  0  0  0  0  0
  -20.8720  -26.6520   21.9780 C   0  0  0  0  0  2  0  0  0  0  0  0
  -19.7380  -26.4480   20.9680 C   0  0  0  0  0  2  0  0  0  0  0  0
  -18.3830  -26.5070   21.6790 C   0  0  0  0  0  2  0  0  0  0  0  0
  -19.3630  -28.4940   22.9640 C   0  0  0  0  0  0  0  0  0  0  0  0
  -19.1670  -29.6880   23.6910 C   0  0  0  0  0  3  0  0  0  0  0  0
  -17.8700  -30.1670   23.9550 C   0  0  0  0  0  3  0  0  0  0  0  0
  -16.7520  -29.4470   23.5020 C   0  0  0  0  0  3  0  0  0  0  0  0
  -16.9300  -28.2550   22.7770 C   0  0  0  0  0  3  0  0  0  0  0  0
  -25.9500  -32.2540   23.6790 C   0  0  0  0  0  3  0  0  0  0  0  0
  -25.5800  -33.5880   24.1700 N   0  0  0  0  0  0  0  0  0  0  0  0
  -25.8610  -34.7340   23.5390 C   0  0  0  0  0  0  0  0  0  0  0  0
  -26.5310  -34.7800   22.5030 O   0  0  0  0  0  0  0  0  0  0  0  0
  -24.9770  -33.6220   24.9800 H   0  0  0  0  0  0  0  0  0  0  0  0
  -24.0500  -36.4730   23.3870 C   0  0  0  0  0  1  0  0  0  0  0  0
  -25.3120  -36.0380   24.1500 C   0  0  0  0  0  3  0  0  0  0  0  0
  -27.4060  -36.9160   25.0830 C   0  0  0  0  0  1  0  0  0  0  0  0
  -26.2960  -37.1420   24.1610 N   0  0  0  0  0  0  0  0  0  0  0  0
  -25.8500  -38.0210   24.4100 H   0  0  0  0  0  0  0  0  0  0  0  0
  -26.5260  -31.3670   24.8510 C   0  0  1  0  0  0  0  0  0  0  0  0
  -25.4610  -30.9410   25.8900 C   0  0  0  0  0  1  0  0  0  0  0  0
  -27.1810  -30.0820   24.2900 C   0  0  0  0  0  1  0  0  0  0  0  0
  -27.6410  -32.1420   25.5890 C   0  0  0  0  0  1  0  0  0  0  0  0
  1 47  1  0
  1 13  1  0
  2  8  1  0
  3  8  1  0
  4  5  1  0
  4  3  1  0
  6  5  1  0
  6 22  1  0
  6  7  1  0
  8  7  1  0
  9  2  2  0
 10 11  2  0
 11 14  1  0
 12 10  1  0
 13 16  2  0
 15 18  1  0
 16 11  1  0
 17 12  2  0
 17 13  1  0
 18  2  1  0
 18 12  1  0
 19 44  1  0
 19 20  2  0
 20 39  1  0
 21 20  1  0
 22 19  1  0
 23 22  1  0
 23 21  2  0
 24 21  1  0
 24 25  1  0
 26 25  2  0
 27 26  1  0
 28 29  1  0
 28 27  2  0
 29 24  2  0
 30 27  1  0
 30 31  1  0
 31 32  1  0
 32 33  2  0
 34 33  1  0
 34 38  1  0
 35 34  2  0
 36 31  2  0
 36 35  1  0
 37 36  1  0
 39 40  1  0
 40 42  1  0
 40 43  1  0
 41 39  2  0
 44 45  1  0
 46 44  1  0
 48 49  1  0
 48 47  1  0
 49 50  1  0
 51 52  1  0
 51 50  1  0
 52 54  1  0
 53 64  2  0
 54 59  1  0
 55 63  1  0
 55 65  1  0
 56 62  1  0
 56 58  1  0
 57 63  1  0
 58 57  1  0
 59 58  2  0
 60 61  1  0
 60 54  2  0
 61 56  2  0
 62 55  1  0
 63 53  1  0
 65 67  2  0
 66 65  1  0
 68 66  1  0
 69 78  2  0
 69 74  1  0
 70 66  1  0
 70 74  1  0
 71 70  1  0
 72 73  1  0
 72 71  1  0
 73 69  1  0
 74 75  2  0
 75 76  1  0
 77 76  2  0
 78 77  1  0
 79 53  1  0
 79 80  1  0
 79 89  1  0
 80 83  1  0
 81 85  1  0
 81 80  1  0
 82 81  2  0
 85 84  1  0
 85 87  1  0
 87 88  1  0
 87 86  1  0
 89 92  1  1
 89 90  1  0
 91 89  1  0
M  ISO  4   2 100  18 100  51 101  52 101
M  END
>  <TORSDO>  (64) 
F 21

>  <SCORE>  (64) 
-3.809

>  <name>  (64) 
64

>  <ligand_id>  (64) 
64

>  <original_smiles>  (64) 
[H]c1c(N(C(=O)N2C([H])([H])C([H])([H])C([H])([H])C([H])(n3nc(-c4c([H])c([H])c(Oc5c([H])c([H])c(F)c([H])c5F)c([H])c4[H])c(C(=O)N([H])[H])c3N([H])[H])C2([H])[H])C([H])([H])[H])nc(C([H])([H])C([H])([H])C([H])([H])C([H])([H])C([H])([H])C([H])([H])Oc2c([H])c([H])c3c(c2[H])C([H])([H])N(C(=O)C([H])(N([H])C(=O)C([H])(N([H])C([H])([H])[H])C([H])([H])[H])C(C([H])([H])[H])(C([H])([H])[H])C([H])([H])[H])C([H])(C(=O)N([H])C2([H])c4c([H])c([H])c([H])c([H])c4C([H])([H])C([H])([H])C2([H])[H])C3([H])[H])nc1C([H])([H])[H]

>  <smiles>  (64) 
[H]c1c(N(C(=O)N2C([H])([H])C([H])([H])C([H])([H])C([H])(n3nc(-c4c([H])c([H])c(Oc5c([H])c([H])c(F)c([H])c5F)c([H])c4[H])c(C(=O)N([H])[H])c3N([H])[H])C2([H])[H])C([H])([H])[H])nc(C([H])([H])C([H])([H])C([H])([H])C([H])([H])C([H])([H])C([H])([H])Oc2c([H])c([H])c3c(c2[H])C([H])([H])N(C(=O)C([H])(N([H])C(=O)C([H])(N([H])C([H])([H])[H])C([H])([H])[H])C(C([H])([H])[H])(C([H])([H])[H])C([H])([H])[H])C([H])(C(=O)N([H])C2([H])c4c([H])c([H])c([H])c([H])c4C([H])([H])C([H])([H])C2([H])[H])C3([H])[H])nc1C([H])([H])[H]

$$$$
65:0:0
     RDKit          3D

 96104  0  0  1  0  0  0  0  0999 V2000
  -28.7820  -21.6500   19.4370 C   0  0  0  0  0  3  0  0  0  0  0  0
  -30.0250  -22.1690   19.8320 C   0  0  0  0  0  0  0  0  0  0  0  0
  -28.5250  -20.2650   19.5320 C   0  0  0  0  0  0  0  0  0  0  0  0
  -30.9440  -21.2660   20.4200 C   0  0  0  0  0  0  0  0  0  0  0  0
  -29.5220  -19.4190   20.1020 C   0  0  0  0  0  0  0  0  0  0  0  0
  -30.6940  -19.9380   20.5370 N   0  0  0  0  0  0  0  0  0  0  0  0
  -33.4090  -21.4600   19.8440 C   0  0  0  0  0  1  0  0  0  0  0  0
  -32.3210  -21.7010   20.9000 C   0  0  0  0  0  2  0  0  0  0  0  0
  -30.3920  -23.6120   19.4430 C   0  0  0  0  0  2  0  0  0  0  0  0
  -29.9230  -24.7700   20.3660 C   0  0  0  0  0  2  0  0  0  0  0  0
  -28.6230  -25.4850   19.9220 C   0  0  0  0  0  2  0  0  0  0  0  0
  -28.5910  -26.8520   20.3720 O   0  0  0  0  0  0  0  0  0  0  0  0
  -24.6350  -31.9910   23.3090 C   0  0  0  0  0  0  0  0  0  0  0  0
  -27.3960  -27.5500   20.3100 C   0  0  0  0  0  0  0  0  0  0  0  0
  -23.4760  -30.5570   21.6610 C   0  0  0  0  0  3  0  0  0  0  0  0
  -24.9740  -29.0300   20.2720 C   0  0  0  0  0  0  0  0  0  0  0  0
  -26.0000  -30.9470   21.5030 C   0  0  0  0  0  2  0  0  0  0  0  0
  -26.1150  -29.5740   20.8730 C   0  0  0  0  0  0  0  0  0  0  0  0
  -27.3260  -28.8410   20.8880 C   0  0  0  0  0  3  0  0  0  0  0  0
  -26.2310  -27.0250   19.7010 C   0  0  0  0  0  3  0  0  0  0  0  0
  -25.0270  -27.7550   19.6830 C   0  0  0  0  0  3  0  0  0  0  0  0
  -23.7160  -29.8700   20.2920 C   0  0  0  0  0  2  0  0  0  0  0  0
  -24.7200  -31.1830   22.2150 N   0  0  0  0  0  0  0  0  0  0  0  0
  -23.5420  -32.2510   23.8310 O   0  0  0  0  0  0  0  0  0  0  0  0
  -22.8240  -29.5350   22.6210 C   0  0  0  0  0  0  0  0  0  0  0  0
  -21.5050  -29.3310   22.4730 N   0  0  0  0  0  0  0  0  0  0  0  0
  -23.5040  -28.9270   23.4520 O   0  0  0  0  0  0  0  0  0  0  0  0
  -21.0180  -29.8740   21.7740 H   0  0  0  0  0  0  0  0  0  0  0  0
  -18.1340  -28.1220   22.9560 C   0  0  0  0  0  0  0  0  0  0  0  0
  -20.6900  -28.3880   23.2380 C   0  0  0  0  0  3  0  0  0  0  0  0
  -20.8000  -26.9590   22.6570 C   0  0  0  0  0  2  0  0  0  0  0  0
  -19.7020  -26.6360   21.6380 C   0  0  0  0  0  2  0  0  0  0  0  0
  -18.3180  -26.7750   22.2780 C   0  0  0  0  0  2  0  0  0  0  0  0
  -19.2490  -28.8860   23.3930 C   0  0  0  0  0  0  0  0  0  0  0  0
  -19.0240  -30.1480   23.9840 C   0  0  0  0  0  3  0  0  0  0  0  0
  -17.7170  -30.6450   24.1470 C   0  0  0  0  0  3  0  0  0  0  0  0
  -16.6160  -29.8770   23.7280 C   0  0  0  0  0  3  0  0  0  0  0  0
  -16.8260  -28.6180   23.1380 C   0  0  0  0  0  3  0  0  0  0  0  0
  -25.9020  -32.6460   23.9440 C   0  0  0  0  0  3  0  0  0  0  0  0
  -25.5640  -34.0380   24.2690 N   0  0  0  0  0  0  0  0  0  0  0  0
  -25.8790  -35.0950   23.5070 C   0  0  0  0  0  0  0  0  0  0  0  0
  -26.5560  -35.0010   22.4790 O   0  0  0  0  0  0  0  0  0  0  0  0
  -24.9630  -34.1840   25.0670 H   0  0  0  0  0  0  0  0  0  0  0  0
  -24.1200  -36.8520   23.1330 C   0  0  0  0  0  1  0  0  0  0  0  0
  -25.3600  -36.4730   23.9570 C   0  0  0  0  0  3  0  0  0  0  0  0
  -27.4620  -37.4060   24.8170 C   0  0  0  0  0  1  0  0  0  0  0  0
  -26.3730  -37.5470   23.8540 N   0  0  0  0  0  0  0  0  0  0  0  0
  -25.9470  -38.4590   23.9880 H   0  0  0  0  0  0  0  0  0  0  0  0
  -26.4210  -31.8850   25.2250 C   0  0  1  0  0  0  0  0  0  0  0  0
  -25.3160  -31.5980   26.2680 C   0  0  0  0  0  1  0  0  0  0  0  0
  -27.0630  -30.5330   24.8340 C   0  0  0  0  0  1  0  0  0  0  0  0
  -27.5280  -32.7160   25.9160 C   0  0  0  0  0  1  0  0  0  0  0  0
  -27.2120  -19.7710   18.9200 C   0  0  0  0  0  2  0  0  0  0  0  0
  -28.0400  -19.5480   16.4910 C   0  0  0  0  0  1  0  0  0  0  0  0
  -25.5850  -19.9180   16.9650 C   0  0  0  0  0  1  0  0  0  0  0  0
  -27.0180  -20.1970   17.4420 C   0  0  0  0  0  3  0  0  0  0  0  0
  -29.4320  -17.8720   20.0990 C   0  0  0  0  0  2  0  0  0  0  0  0
  -30.1900  -17.0920   21.2150 C   0  0  0  0  0  2  0  0  0  0  0  0
  -30.6680  -14.6720   20.5890 C   0  0  0  0  0  0  0  0  0  0  0  0
  -30.4220  -12.5620   19.3300 C   0  0  0  0  0  2  0  0  0  0  0  0
  -29.4680  -12.8190   18.1420 C   0  0  0  0  0  2  0  0  0  0  0  0
  -27.9950  -12.6460   18.5660 C   0  0  0  0  0  2  0  0  0  0  0  0
  -27.6560  -13.4040   19.8760 C   0  0  0  0  0  3  0  0  0  0  0  0
  -28.7180  -13.1230   20.9660 C   0  0  0  0  0  2  0  0  0  0  0  0
  -30.0360  -13.4800   20.4130 N   0  0  0  0  0  0  0  0  0  0  0  0
  -31.7830  -14.9160   20.1210 O   0  0  0  0  0  0  0  0  0  0  0  0
  -29.9230  -15.6350   21.1680 N   0  0  0  0  0  0  0  0  0  0  0  0
  -29.0310  -15.3300   21.5270 H   0  0  0  0  0  0  0  0  0  0  0  0
  -25.2350  -13.9470   20.5630 C   0  0  0  0  0  0  0  0  0  0  0  0
  -24.1820  -13.1460   20.9100 C   0  0  0  0  0  0  0  0  0  0  0  0
  -24.6750  -11.8060   20.8690 C   0  0  0  0  0  0  0  0  0  0  0  0
  -26.3050  -13.0940   20.3370 N   0  0  0  0  0  0  0  0  0  0  0  0
  -25.9680  -11.8000   20.5750 N   0  0  0  0  0  0  0  0  0  0  0  0
  -23.9760  -10.5240   21.0350 C   0  0  0  0  0  0  0  0  0  0  0  0
  -24.3730   -9.5890   22.0150 C   0  0  0  0  0  3  0  0  0  0  0  0
  -23.6730   -8.3730   22.1670 C   0  0  0  0  0  3  0  0  0  0  0  0
  -22.5620   -8.0840   21.3400 C   0  0  0  0  0  0  0  0  0  0  0  0
  -22.1860   -9.0090   20.3510 C   0  0  0  0  0  3  0  0  0  0  0  0
  -22.8860  -10.2170   20.1980 C   0  0  0  0  0  3  0  0  0  0  0  0
  -21.8380   -6.9180   21.4000 O   0  0  0  0  0  0  0  0  0  0  0  0
  -21.6910   -6.2230   22.5740 C   0  0  0  0  0  0  0  0  0  0  0  0
  -21.0710   -6.7950   23.7080 C   0  0  0  0  0  3  0  0  0  0  0  0
  -20.8780   -6.0230   24.8700 C   0  0  0  0  0  3  0  0  0  0  0  0
  -21.2920   -4.6790   24.8990 C   0  0  0  0  0  0  0  0  0  0  0  0
  -21.9010   -4.1030   23.7700 C   0  0  0  0  0  3  0  0  0  0  0  0
  -22.0960   -4.8740   22.6090 C   0  0  0  0  0  0  0  0  0  0  0  0
  -22.6670   -4.3100   21.5180 F   0  0  0  0  0  0  0  0  0  0  0  0
  -21.0980   -3.9330   26.0120 F   0  0  0  0  0  0  0  0  0  0  0  0
  -22.7700  -13.5870   21.1730 C   0  0  0  0  0  0  0  0  0  0  0  0
  -22.0440  -12.8530   22.0090 N   0  0  0  0  0  0  0  0  0  0  0  0
  -22.3200  -14.6180   20.6750 O   0  0  0  0  0  0  0  0  0  0  0  0
  -22.4190  -12.0170   22.4300 H   0  0  0  0  0  0  0  0  0  0  0  0
  -21.1000  -13.1340   22.2330 H   0  0  0  0  0  0  0  0  0  0  0  0
  -25.3650  -15.3230   20.4010 N   0  0  0  0  0  0  0  0  0  0  0  0
  -24.5660  -15.9430   20.4940 H   0  0  0  0  0  0  0  0  0  0  0  0
  -26.1920  -15.7890   20.0540 H   0  0  0  0  0  0  0  0  0  0  0  0
  1  3  2  0
  1  2  1  0
  2  4  2  0
  3  5  1  0
  4  6  1  0
  4  8  1  0
  5  6  2  0
  7  8  1  0
  9  2  1  0
  9 10  1  0
 11 10  1  0
 11 12  1  0
 13 24  2  0
 14 12  1  0
 14 19  1  0
 15 23  1  0
 15 25  1  0
 16 22  1  0
 16 18  1  0
 17 23  1  0
 18 19  2  0
 18 17  1  0
 20 14  2  0
 21 20  1  0
 21 16  2  0
 22 15  1  0
 23 13  1  0
 25 27  2  0
 26 25  1  0
 28 26  1  0
 29 38  2  0
 29 34  1  0
 30 26  1  0
 30 34  1  0
 31 30  1  0
 32 33  1  0
 32 31  1  0
 33 29  1  0
 34 35  2  0
 35 36  1  0
 37 36  2  0
 38 37  1  0
 39 13  1  0
 39 40  1  0
 39 49  1  0
 40 43  1  0
 41 45  1  0
 41 40  1  0
 42 41  2  0
 45 44  1  0
 47 45  1  0
 47 48  1  0
 47 46  1  0
 49 52  1  1
 49 50  1  0
 51 49  1  0
 53  3  1  0
 54 56  1  0
 55 56  1  0
 56 53  1  0
 57  5  1  0
 57 58  1  0
 59 67  1  0
 60 65  1  0
 61 62  1  0
 61 60  1  0
 63 62  1  0
 63 72  1  0
 63 64  1  0
 65 59  1  0
 65 64  1  0
 66 59  2  0
 67 58  1  0
 67 68  1  0
 69 70  2  0
 70 89  1  0
 71 70  1  0
 71 74  1  0
 72 69  1  0
 72 73  1  0
 73 71  2  0
 74 75  1  0
 75 76  2  0
 77 80  1  0
 77 76  1  0
 78 77  2  0
 79 78  1  0
 79 74  2  0
 80 81  1  0
 81 86  2  0
 81 82  1  0
 82 83  2  0
 83 84  1  0
 84 88  1  0
 85 84  2  0
 86 85  1  0
 87 86  1  0
 89 90  1  0
 90 93  1  0
 90 92  1  0
 91 89  2  0
 94 95  1  0
 94 69  1  0
 96 94  1  0
M  ISO  4  11 101  12 101  59 100  67 100
M  END
>  <TORSDO>  (65) 
F 24

>  <SCORE>  (65) 
-12.571

>  <name>  (65) 
65

>  <ligand_id>  (65) 
65

>  <original_smiles>  (65) 
[H]c1c([H])c([H])c2c(c1[H])C([H])([H])C([H])([H])C([H])([H])C2([H])N([H])C(=O)C1([H])N(C(=O)C([H])(N([H])C(=O)C([H])(N([H])C([H])([H])[H])C([H])([H])[H])C(C([H])([H])[H])(C([H])([H])[H])C([H])([H])[H])C([H])([H])c2c([H])c(OC([H])([H])C([H])([H])C([H])([H])c3c(C([H])([H])C([H])([H])[H])nc(C([H])([H])C([H])([H])N([H])C(=O)N4C([H])([H])C([H])([H])C([H])([H])C([H])(n5nc(-c6c([H])c([H])c(Oc7c([H])c([H])c(F)c([H])c7F)c([H])c6[H])c(C(=O)N([H])[H])c5N([H])[H])C4([H])[H])c(C([H])([H])C([H])(C([H])([H])[H])C([H])([H])[H])c3[H])c([H])c([H])c2C1([H])[H]

>  <smiles>  (65) 
[H]c1c([H])c([H])c2c(c1[H])C([H])([H])C([H])([H])C([H])([H])C2([H])N([H])C(=O)C1([H])N(C(=O)C([H])(N([H])C(=O)C([H])(N([H])C([H])([H])[H])C([H])([H])[H])C(C([H])([H])[H])(C([H])([H])[H])C([H])([H])[H])C([H])([H])c2c([H])c(OC([H])([H])C([H])([H])C([H])([H])c3c(C([H])([H])C([H])([H])[H])nc(C([H])([H])C([H])([H])N([H])C(=O)N4C([H])([H])C([H])([H])C([H])([H])C([H])(n5nc(-c6c([H])c([H])c(Oc7c([H])c([H])c(F)c([H])c7F)c([H])c6[H])c(C(=O)N([H])[H])c5N([H])[H])C4([H])[H])c(C([H])([H])C([H])(C([H])([H])[H])C([H])([H])[H])c3[H])c([H])c([H])c2C1([H])[H]

$$$$
66:0:0
     RDKit          3D

 91 99  0  0  1  0  0  0  0  0999 V2000
  -28.4820  -19.6260   19.8600 C   0  0  0  0  0  0  0  0  0  0  0  0
  -30.2510  -21.4850   20.6850 C   0  0  0  0  0  0  0  0  0  0  0  0
  -29.0120  -21.9780   20.1520 C   0  0  0  0  0  0  0  0  0  0  0  0
  -29.7420  -19.1280   20.3530 C   0  0  0  0  0  0  0  0  0  0  0  0
  -27.4320  -18.6720   19.3340 C   0  0  0  0  0  1  0  0  0  0  0  0
  -28.1390  -20.9800   19.7700 N   0  0  0  0  0  0  0  0  0  0  0  0
  -30.5850  -20.1350   20.7790 N   0  0  0  0  0  0  0  0  0  0  0  0
  -32.4000  -22.7050   20.0390 C   0  0  0  0  0  1  0  0  0  0  0  0
  -31.3320  -22.4670   21.1190 C   0  0  0  0  0  2  0  0  0  0  0  0
  -28.7600  -23.5400   19.7020 C   0  0  0  0  0  3  0  0  0  0  0  0
  -28.0920  -24.7930   20.5610 C   0  0  0  0  0  3  0  0  0  0  0  0
  -28.2820  -26.2840   20.2180 O   0  0  0  0  0  0  0  0  0  0  0  0
  -24.6080  -31.8830   23.2340 C   0  0  0  0  0  0  0  0  0  0  0  0
  -27.1970  -27.2120   20.2110 C   0  0  0  0  0  0  0  0  0  0  0  0
  -23.4090  -30.4780   21.6010 C   0  0  0  0  0  3  0  0  0  0  0  0
  -24.8580  -28.9070   20.1810 C   0  0  0  0  0  0  0  0  0  0  0  0
  -25.9560  -30.7680   21.4250 C   0  0  0  0  0  2  0  0  0  0  0  0
  -26.0360  -29.3780   20.7760 C   0  0  0  0  0  0  0  0  0  0  0  0
  -27.2100  -28.5470   20.7710 C   0  0  0  0  0  3  0  0  0  0  0  0
  -25.9950  -26.8230   19.5880 C   0  0  0  0  0  3  0  0  0  0  0  0
  -24.8460  -27.6430   19.5730 C   0  0  0  0  0  3  0  0  0  0  0  0
  -23.6290  -29.7990   20.2240 C   0  0  0  0  0  2  0  0  0  0  0  0
  -24.6770  -31.0630   22.1420 N   0  0  0  0  0  0  0  0  0  0  0  0
  -23.5240  -32.1650   23.7650 O   0  0  0  0  0  0  0  0  0  0  0  0
  -22.7390  -29.4690   22.5660 C   0  0  0  0  0  0  0  0  0  0  0  0
  -21.4130  -29.2930   22.4420 N   0  0  0  0  0  0  0  0  0  0  0  0
  -23.4150  -28.8460   23.3890 O   0  0  0  0  0  0  0  0  0  0  0  0
  -20.9260  -29.8460   21.7510 H   0  0  0  0  0  0  0  0  0  0  0  0
  -18.0320  -28.0990   22.9530 C   0  0  0  0  0  0  0  0  0  0  0  0
  -20.5910  -28.3600   23.2180 C   0  0  0  0  0  3  0  0  0  0  0  0
  -20.6910  -26.9260   22.6460 C   0  0  0  0  0  2  0  0  0  0  0  0
  -19.5860  -26.5990   21.6360 C   0  0  0  0  0  2  0  0  0  0  0  0
  -18.2060  -26.7490   22.2810 C   0  0  0  0  0  2  0  0  0  0  0  0
  -19.1510  -28.8630   23.3780 C   0  0  0  0  0  0  0  0  0  0  0  0
  -18.9320  -30.1270   23.9660 C   0  0  0  0  0  3  0  0  0  0  0  0
  -17.6260  -30.6280   24.1340 C   0  0  0  0  0  3  0  0  0  0  0  0
  -16.5220  -29.8590   23.7230 C   0  0  0  0  0  3  0  0  0  0  0  0
  -16.7260  -28.5970   23.1390 C   0  0  0  0  0  3  0  0  0  0  0  0
  -25.8880  -32.5210   23.8550 C   0  0  0  0  0  3  0  0  0  0  0  0
  -26.4010  -31.7560   25.1340 C   0  0  1  0  0  0  0  0  0  0  0  0
  -25.3040  -31.5220   26.2000 C   0  0  0  0  0  1  0  0  0  0  0  0
  -26.9820  -30.3780   24.7470 C   0  0  0  0  0  1  0  0  0  0  0  0
  -27.5550  -32.5510   25.7890 C   0  0  0  0  0  1  0  0  0  0  0  0
  -25.5750  -33.9200   24.1850 N   0  0  0  0  0  0  0  0  0  0  0  0
  -25.9080  -34.9730   23.4270 C   0  0  0  0  0  0  0  0  0  0  0  0
  -26.5750  -34.8690   22.3940 O   0  0  0  0  0  0  0  0  0  0  0  0
  -24.9800  -34.0740   24.9860 H   0  0  0  0  0  0  0  0  0  0  0  0
  -24.1800  -36.7660   23.0790 C   0  0  0  0  0  1  0  0  0  0  0  0
  -25.4240  -36.3630   23.8870 C   0  0  0  0  0  3  0  0  0  0  0  0
  -27.5610  -37.2440   24.7140 C   0  0  0  0  0  1  0  0  0  0  0  0
  -26.4570  -37.4150   23.7720 N   0  0  0  0  0  0  0  0  0  0  0  0
  -26.0540  -38.3370   23.9230 H   0  0  0  0  0  0  0  0  0  0  0  0
  -30.4090  -17.6160   20.2320 C   0  0  0  0  0  2  0  0  0  0  0  0
  -30.5690  -14.9430   20.3260 C   0  0  0  0  0  0  0  0  0  0  0  0
  -30.3860  -12.6100   19.3710 C   0  0  0  0  0  2  0  0  0  0  0  0
  -29.4590  -12.6010   18.1370 C   0  0  0  0  0  2  0  0  0  0  0  0
  -27.9860  -12.4350   18.5560 C   0  0  0  0  0  2  0  0  0  0  0  0
  -27.5960  -13.3110   19.7800 C   0  0  0  0  0  3  0  0  0  0  0  0
  -28.6650  -13.3070   20.8950 C   0  0  0  0  0  2  0  0  0  0  0  0
  -29.9330  -13.7060   20.2740 N   0  0  0  0  0  0  0  0  0  0  0  0
  -31.7710  -14.9690   20.0410 O   0  0  0  0  0  0  0  0  0  0  0  0
  -29.8600  -16.1640   20.4620 N   0  0  0  0  0  0  0  0  0  0  0  0
  -28.8720  -16.0920   20.6450 H   0  0  0  0  0  0  0  0  0  0  0  0
  -25.2140  -13.8580   20.5330 C   0  0  0  0  0  0  0  0  0  0  0  0
  -24.1590  -13.0760   20.9110 C   0  0  0  0  0  0  0  0  0  0  0  0
  -24.6310  -11.7290   20.8730 C   0  0  0  0  0  0  0  0  0  0  0  0
  -26.2640  -12.9910   20.2830 N   0  0  0  0  0  0  0  0  0  0  0  0
  -25.9230  -11.7020   20.5540 N   0  0  0  0  0  0  0  0  0  0  0  0
  -23.9080  -10.4620   21.0600 C   0  0  0  0  0  0  0  0  0  0  0  0
  -24.3480   -9.4920   21.9870 C   0  0  0  0  0  3  0  0  0  0  0  0
  -23.6270   -8.2930   22.1670 C   0  0  0  0  0  3  0  0  0  0  0  0
  -22.4480   -8.0550   21.4200 C   0  0  0  0  0  0  0  0  0  0  0  0
  -22.0270   -9.0130   20.4820 C   0  0  0  0  0  3  0  0  0  0  0  0
  -22.7490  -10.2050   20.3010 C   0  0  0  0  0  3  0  0  0  0  0  0
  -21.6990   -6.9070   21.5070 O   0  0  0  0  0  0  0  0  0  0  0  0
  -21.6650   -6.1520   22.6530 C   0  0  0  0  0  0  0  0  0  0  0  0
  -21.2540   -6.6960   23.8890 C   0  0  0  0  0  3  0  0  0  0  0  0
  -21.1710   -5.8700   25.0290 C   0  0  0  0  0  3  0  0  0  0  0  0
  -21.4860   -4.5020   24.9300 C   0  0  0  0  0  0  0  0  0  0  0  0
  -21.8840   -3.9570   23.6980 C   0  0  0  0  0  3  0  0  0  0  0  0
  -21.9720   -4.7800   22.5620 C   0  0  0  0  0  0  0  0  0  0  0  0
  -22.3380   -4.2460   21.3730 F   0  0  0  0  0  0  0  0  0  0  0  0
  -21.3960   -3.7060   26.0220 F   0  0  0  0  0  0  0  0  0  0  0  0
  -22.7590  -13.5450   21.1800 C   0  0  0  0  0  0  0  0  0  0  0  0
  -22.0270  -12.8480   22.0420 N   0  0  0  0  0  0  0  0  0  0  0  0
  -22.3190  -14.5680   20.6590 O   0  0  0  0  0  0  0  0  0  0  0  0
  -22.3840  -12.0200   22.4940 H   0  0  0  0  0  0  0  0  0  0  0  0
  -21.0880  -13.1540   22.2550 H   0  0  0  0  0  0  0  0  0  0  0  0
  -25.3640  -15.2310   20.3530 N   0  0  0  0  0  0  0  0  0  0  0  0
  -24.5870  -15.8720   20.4770 H   0  0  0  0  0  0  0  0  0  0  0  0
  -26.1660  -15.6640   19.9160 H   0  0  0  0  0  0  0  0  0  0  0  0
  1  4  1  0
  2  7  1  0
  2  9  1  0
  3  2  2  0
  4  7  2  0
  5  1  1  0
  6  1  2  0
  6  3  1  0
  8  9  1  0
 10  3  1  0
 10 11  2  0
 12 11  1  0
 13 24  2  0
 14 12  1  0
 14 19  1  0
 15 23  1  0
 15 25  1  0
 16 22  1  0
 16 18  1  0
 17 23  1  0
 18 17  1  0
 19 18  2  0
 20 14  2  0
 21 20  1  0
 21 16  2  0
 22 15  1  0
 23 13  1  0
 25 27  2  0
 26 25  1  0
 28 26  1  0
 29 38  2  0
 29 34  1  0
 30 26  1  0
 30 34  1  0
 31 30  1  0
 32 33  1  0
 32 31  1  0
 33 29  1  0
 34 35  2  0
 35 36  1  0
 37 36  2  0
 38 37  1  0
 39 13  1  0
 39 44  1  0
 39 40  1  0
 40 43  1  1
 40 41  1  0
 42 40  1  0
 44 47  1  0
 45 49  1  0
 45 44  1  0
 46 45  2  0
 49 48  1  0
 51 49  1  0
 51 52  1  0
 51 50  1  0
 53  4  1  0
 53 62  1  0
 54 62  1  0
 55 60  1  0
 56 57  1  0
 56 55  1  0
 58 57  1  0
 58 67  1  0
 58 59  1  0
 60 54  1  0
 60 59  1  0
 61 54  2  0
 62 63  1  0
 64 65  2  0
 65 84  1  0
 66 65  1  0
 66 69  1  0
 67 64  1  0
 67 68  1  0
 68 66  2  0
 69 70  1  0
 70 71  2  0
 72 75  1  0
 72 71  1  0
 73 72  2  0
 74 73  1  0
 74 69  2  0
 75 76  1  0
 76 77  1  0
 77 78  2  0
 79 78  1  0
 79 83  1  0
 80 79  2  0
 81 76  2  0
 81 80  1  0
 82 81  1  0
 84 85  1  0
 85 88  1  0
 85 87  1  0
 86 84  2  0
 89 90  1  0
 89 64  1  0
 91 89  1  0
M  ISO  4  11 101  12 101  54 100  62 100
M  END
>  <TORSDO>  (66) 
F 20

>  <SCORE>  (66) 
-14.033

>  <name>  (66) 
66

>  <ligand_id>  (66) 
66

>  <original_smiles>  (66) 
[H]c1c([H])c([H])c2c(c1[H])C([H])([H])C([H])([H])C([H])([H])C2([H])N([H])C(=O)C1([H])N(C(=O)C([H])(N([H])C(=O)C([H])(N([H])C([H])([H])[H])C([H])([H])[H])C(C([H])([H])[H])(C([H])([H])[H])C([H])([H])[H])C([H])([H])c2c([H])c(OC([H])([H])C([H])([H])c3nc(C([H])([H])[H])c(C([H])([H])N([H])C(=O)N4C([H])([H])C([H])([H])C([H])([H])C([H])(n5nc(-c6c([H])c([H])c(Oc7c([H])c([H])c(F)c([H])c7F)c([H])c6[H])c(C(=O)N([H])[H])c5N([H])[H])C4([H])[H])nc3C([H])([H])C([H])([H])[H])c([H])c([H])c2C1([H])[H]

>  <smiles>  (66) 
[H]c1c([H])c([H])c2c(c1[H])C([H])([H])C([H])([H])C([H])([H])C2([H])N([H])C(=O)C1([H])N(C(=O)C([H])(N([H])C(=O)C([H])(N([H])C([H])([H])[H])C([H])([H])[H])C(C([H])([H])[H])(C([H])([H])[H])C([H])([H])[H])C([H])([H])c2c([H])c(OC([H])([H])C([H])([H])c3nc(C([H])([H])[H])c(C([H])([H])N([H])C(=O)N4C([H])([H])C([H])([H])C([H])([H])C([H])(n5nc(-c6c([H])c([H])c(Oc7c([H])c([H])c(F)c([H])c7F)c([H])c6[H])c(C(=O)N([H])[H])c5N([H])[H])C4([H])[H])nc3C([H])([H])C([H])([H])[H])c([H])c([H])c2C1([H])[H]

$$$$
67:0:0
     RDKit          3D

 94102  0  0  1  0  0  0  0  0999 V2000
  -28.1970  -20.8660   20.0000 C   0  0  0  0  0  0  0  0  0  0  0  0
  -29.0480  -22.0140   20.2510 C   0  0  0  0  0  0  0  0  0  0  0  0
  -29.8890  -19.1980   20.4710 C   0  0  0  0  0  0  0  0  0  0  0  0
  -30.7300  -20.3510   20.7360 C   0  0  0  0  0  0  0  0  0  0  0  0
  -28.5980  -19.5240   20.1120 N   0  0  0  0  0  0  0  0  0  0  0  0
  -30.3100  -21.6770   20.6470 N   0  0  0  0  0  0  0  0  0  0  0  0
  -32.2180  -20.1770   21.0920 C   0  0  1  0  0  0  0  0  0  0  0  0
  -32.8430  -19.4370   20.1740 F   0  0  0  0  0  0  0  0  0  0  0  0
  -32.8510  -21.3520   21.1500 F   0  0  0  0  0  0  0  0  0  0  0  0
  -32.3410  -19.5870   22.2820 F   0  0  0  0  0  0  0  0  0  0  0  0
  -26.6540  -21.0490   17.9900 C   0  0  0  0  0  1  0  0  0  0  0  0
  -26.7680  -21.0600   19.5200 C   0  0  0  0  0  2  0  0  0  0  0  0
  -28.8090  -23.5840   19.7990 C   0  0  0  0  0  3  0  0  0  0  0  0
  -28.1640  -24.8570   20.6460 C   0  0  0  0  0  3  0  0  0  0  0  0
  -28.3510  -26.3520   20.2990 O   0  0  0  0  0  0  0  0  0  0  0  0
  -24.6240  -31.9540   23.2450 C   0  0  0  0  0  0  0  0  0  0  0  0
  -27.2620  -27.2780   20.2750 C   0  0  0  0  0  0  0  0  0  0  0  0
  -23.4440  -30.5270   21.6160 C   0  0  0  0  0  3  0  0  0  0  0  0
  -24.9120  -28.9560   20.2190 C   0  0  0  0  0  0  0  0  0  0  0  0
  -25.9890  -30.8380   21.4420 C   0  0  0  0  0  2  0  0  0  0  0  0
  -26.0790  -29.4380   20.8200 C   0  0  0  0  0  0  0  0  0  0  0  0
  -27.2620  -28.6140   20.8310 C   0  0  0  0  0  3  0  0  0  0  0  0
  -26.0720  -26.8820   19.6340 C   0  0  0  0  0  3  0  0  0  0  0  0
  -24.9170  -27.6900   19.6110 C   0  0  0  0  0  3  0  0  0  0  0  0
  -23.6730  -29.8350   20.2470 C   0  0  0  0  0  2  0  0  0  0  0  0
  -24.7050  -31.1270   22.1580 N   0  0  0  0  0  0  0  0  0  0  0  0
  -23.5340  -32.2250   23.7730 O   0  0  0  0  0  0  0  0  0  0  0  0
  -22.7760  -29.5220   22.5870 C   0  0  0  0  0  0  0  0  0  0  0  0
  -21.4530  -29.3260   22.4520 N   0  0  0  0  0  0  0  0  0  0  0  0
  -23.4510  -28.9160   23.4230 O   0  0  0  0  0  0  0  0  0  0  0  0
  -20.9610  -29.8590   21.7470 H   0  0  0  0  0  0  0  0  0  0  0  0
  -18.0820  -28.1030   22.9530 C   0  0  0  0  0  0  0  0  0  0  0  0
  -20.6390  -28.3880   23.2290 C   0  0  0  0  0  3  0  0  0  0  0  0
  -20.7550  -26.9530   22.6650 C   0  0  0  0  0  2  0  0  0  0  0  0
  -19.6600  -26.6130   21.6490 C   0  0  0  0  0  2  0  0  0  0  0  0
  -18.2740  -26.7520   22.2860 C   0  0  0  0  0  2  0  0  0  0  0  0
  -19.1930  -28.8790   23.3800 C   0  0  0  0  0  0  0  0  0  0  0  0
  -18.9600  -30.1450   23.9610 C   0  0  0  0  0  3  0  0  0  0  0  0
  -17.6500  -30.6330   24.1230 C   0  0  0  0  0  3  0  0  0  0  0  0
  -16.5540  -29.8540   23.7140 C   0  0  0  0  0  3  0  0  0  0  0  0
  -16.7700  -28.5920   23.1320 C   0  0  0  0  0  3  0  0  0  0  0  0
  -25.8930  -32.6100   23.8700 C   0  0  0  0  0  3  0  0  0  0  0  0
  -25.5690  -34.0100   24.1840 N   0  0  0  0  0  0  0  0  0  0  0  0
  -25.8860  -35.0580   23.4120 C   0  0  0  0  0  0  0  0  0  0  0  0
  -26.5560  -34.9470   22.3820 O   0  0  0  0  0  0  0  0  0  0  0  0
  -24.9840  -34.1700   24.9930 H   0  0  0  0  0  0  0  0  0  0  0  0
  -24.1490  -36.8350   23.0220 C   0  0  0  0  0  1  0  0  0  0  0  0
  -25.3850  -36.4490   23.8500 C   0  0  0  0  0  3  0  0  0  0  0  0
  -27.4990  -37.3670   24.7010 C   0  0  0  0  0  1  0  0  0  0  0  0
  -26.4120  -37.5080   23.7360 N   0  0  0  0  0  0  0  0  0  0  0  0
  -25.9950  -38.4260   23.8570 H   0  0  0  0  0  0  0  0  0  0  0  0
  -26.4070  -31.8580   25.1590 C   0  0  1  0  0  0  0  0  0  0  0  0
  -25.3050  -31.6120   26.2170 C   0  0  0  0  0  1  0  0  0  0  0  0
  -27.0140  -30.4860   24.7860 C   0  0  0  0  0  1  0  0  0  0  0  0
  -27.5430  -32.6700   25.8230 C   0  0  0  0  0  1  0  0  0  0  0  0
  -30.5290  -17.6740   20.4470 C   0  0  0  0  0  2  0  0  0  0  0  0
  -30.6300  -15.0090   20.4380 C   0  0  0  0  0  0  0  0  0  0  0  0
  -30.4250  -12.7300   19.3730 C   0  0  0  0  0  2  0  0  0  0  0  0
  -29.4860  -12.7980   18.1490 C   0  0  0  0  0  2  0  0  0  0  0  0
  -28.0190  -12.5940   18.5750 C   0  0  0  0  0  2  0  0  0  0  0  0
  -27.6450  -13.4280   19.8320 C   0  0  0  0  0  3  0  0  0  0  0  0
  -28.7180  -13.3590   20.9400 C   0  0  0  0  0  2  0  0  0  0  0  0
  -29.9840  -13.7820   20.3320 N   0  0  0  0  0  0  0  0  0  0  0  0
  -31.8340  -15.0350   20.1700 O   0  0  0  0  0  0  0  0  0  0  0  0
  -29.9310  -16.2330   20.6060 N   0  0  0  0  0  0  0  0  0  0  0  0
  -28.9330  -16.1770   20.7390 H   0  0  0  0  0  0  0  0  0  0  0  0
  -25.2620  -13.9740   20.5820 C   0  0  0  0  0  0  0  0  0  0  0  0
  -24.2030  -13.1880   20.9400 C   0  0  0  0  0  0  0  0  0  0  0  0
  -24.6790  -11.8410   20.8950 C   0  0  0  0  0  0  0  0  0  0  0  0
  -26.3110  -13.1100   20.3310 N   0  0  0  0  0  0  0  0  0  0  0  0
  -25.9700  -11.8180   20.5820 N   0  0  0  0  0  0  0  0  0  0  0  0
  -23.9620  -10.5710   21.0710 C   0  0  0  0  0  0  0  0  0  0  0  0
  -24.3830   -9.6090   22.0140 C   0  0  0  0  0  3  0  0  0  0  0  0
  -23.6660   -8.4030   22.1770 C   0  0  0  0  0  3  0  0  0  0  0  0
  -22.5120   -8.1530   21.3990 C   0  0  0  0  0  0  0  0  0  0  0  0
  -22.1130   -9.1030   20.4420 C   0  0  0  0  0  3  0  0  0  0  0  0
  -22.8310  -10.3000   20.2760 C   0  0  0  0  0  3  0  0  0  0  0  0
  -21.7650   -7.0020   21.4710 O   0  0  0  0  0  0  0  0  0  0  0  0
  -21.6770   -6.2730   22.6290 C   0  0  0  0  0  0  0  0  0  0  0  0
  -21.1520   -6.8220   23.8210 C   0  0  0  0  0  3  0  0  0  0  0  0
  -21.0200   -6.0150   24.9690 C   0  0  0  0  0  3  0  0  0  0  0  0
  -21.3980   -4.6600   24.9250 C   0  0  0  0  0  0  0  0  0  0  0  0
  -21.9140   -4.1100   23.7390 C   0  0  0  0  0  3  0  0  0  0  0  0
  -22.0510   -4.9140   22.5940 C   0  0  0  0  0  0  0  0  0  0  0  0
  -22.5290   -4.3730   21.4480 F   0  0  0  0  0  0  0  0  0  0  0  0
  -21.2630   -3.8840   26.0250 F   0  0  0  0  0  0  0  0  0  0  0  0
  -22.8010  -13.6520   21.2110 C   0  0  0  0  0  0  0  0  0  0  0  0
  -22.0700  -12.9390   22.0600 N   0  0  0  0  0  0  0  0  0  0  0  0
  -22.3630  -14.6810   20.7010 O   0  0  0  0  0  0  0  0  0  0  0  0
  -22.4350  -12.1050   22.4950 H   0  0  0  0  0  0  0  0  0  0  0  0
  -21.1290  -13.2340   22.2800 H   0  0  0  0  0  0  0  0  0  0  0  0
  -25.4140  -15.3490   20.4230 N   0  0  0  0  0  0  0  0  0  0  0  0
  -24.6470  -15.9970   20.5570 H   0  0  0  0  0  0  0  0  0  0  0  0
  -26.2610  -15.8000   20.1040 H   0  0  0  0  0  0  0  0  0  0  0  0
  1  5  2  0
  1  2  1  0
  2  6  2  0
  3  4  2  0
  4  7  1  0
  5  3  1  0
  6  4  1  0
  7  9  1  1
  7 10  1  0
  8  7  1  0
 11 12  1  0
 12  1  1  0
 13  2  1  0
 13 14  2  0
 15 14  1  0
 16 27  2  0
 17 15  1  0
 17 22  1  0
 18 26  1  0
 18 28  1  0
 19 25  1  0
 19 21  1  0
 20 26  1  0
 21 22  2  0
 21 20  1  0
 23 17  2  0
 24 23  1  0
 24 19  2  0
 25 18  1  0
 26 16  1  0
 28 30  2  0
 29 28  1  0
 31 29  1  0
 32 41  2  0
 32 37  1  0
 33 29  1  0
 33 37  1  0
 34 33  1  0
 35 36  1  0
 35 34  1  0
 36 32  1  0
 37 38  2  0
 38 39  1  0
 40 39  2  0
 41 40  1  0
 42 16  1  0
 42 43  1  0
 42 52  1  0
 43 46  1  0
 44 48  1  0
 44 43  1  0
 45 44  2  0
 48 47  1  0
 50 48  1  0
 50 51  1  0
 50 49  1  0
 52 55  1  1
 52 53  1  0
 54 52  1  0
 56  3  1  0
 56 65  1  0
 57 65  1  0
 58 63  1  0
 59 60  1  0
 59 58  1  0
 61 60  1  0
 61 70  1  0
 61 62  1  0
 63 57  1  0
 63 62  1  0
 64 57  2  0
 65 66  1  0
 67 68  2  0
 68 87  1  0
 69 68  1  0
 69 72  1  0
 70 71  1  0
 70 67  1  0
 71 69  2  0
 72 73  1  0
 73 74  2  0
 75 78  1  0
 75 74  1  0
 76 75  2  0
 77 76  1  0
 77 72  2  0
 78 79  1  0
 79 80  1  0
 80 81  2  0
 82 81  1  0
 82 86  1  0
 83 82  2  0
 84 79  2  0
 84 83  1  0
 85 84  1  0
 87 88  1  0
 88 91  1  0
 88 90  1  0
 89 87  2  0
 92 93  1  0
 92 67  1  0
 94 92  1  0
M  ISO  4  14 101  15 101  57 100  65 100
M  END
>  <TORSDO>  (67) 
F 21

>  <SCORE>  (67) 
-13.651

>  <name>  (67) 
67

>  <ligand_id>  (67) 
67

>  <original_smiles>  (67) 
[H]c1c([H])c([H])c2c(c1[H])C([H])([H])C([H])([H])C([H])([H])C2([H])N([H])C(=O)C1([H])N(C(=O)C([H])(N([H])C(=O)C([H])(N([H])C([H])([H])[H])C([H])([H])[H])C(C([H])([H])[H])(C([H])([H])[H])C([H])([H])[H])C([H])([H])c2c([H])c(OC([H])([H])C([H])([H])c3nc(C(F)(F)F)c(C([H])([H])N([H])C(=O)N4C([H])([H])C([H])([H])C([H])([H])C([H])(n5nc(-c6c([H])c([H])c(Oc7c([H])c([H])c(F)c([H])c7F)c([H])c6[H])c(C(=O)N([H])[H])c5N([H])[H])C4([H])[H])nc3C([H])([H])C([H])([H])[H])c([H])c([H])c2C1([H])[H]

>  <smiles>  (67) 
[H]c1c([H])c([H])c2c(c1[H])C([H])([H])C([H])([H])C([H])([H])C2([H])N([H])C(=O)C1([H])N(C(=O)C([H])(N([H])C(=O)C([H])(N([H])C([H])([H])[H])C([H])([H])[H])C(C([H])([H])[H])(C([H])([H])[H])C([H])([H])[H])C([H])([H])c2c([H])c(OC([H])([H])C([H])([H])c3nc(C(F)(F)F)c(C([H])([H])N([H])C(=O)N4C([H])([H])C([H])([H])C([H])([H])C([H])(n5nc(-c6c([H])c([H])c(Oc7c([H])c([H])c(F)c([H])c7F)c([H])c6[H])c(C(=O)N([H])[H])c5N([H])[H])C4([H])[H])nc3C([H])([H])C([H])([H])[H])c([H])c([H])c2C1([H])[H]

$$$$
68:0:0
     RDKit          3D

 94102  0  0  1  0  0  0  0  0999 V2000
  -27.6620  -19.0500   19.4420 C   0  0  0  0  0  3  0  0  0  0  0  0
  -29.8800  -19.9810   19.3710 C   0  0  0  0  0  3  0  0  0  0  0  0
  -29.0540  -18.8330   19.3780 C   0  0  0  0  0  0  0  0  0  0  0  0
  -27.1630  -20.3670   19.5080 C   0  0  0  0  0  0  0  0  0  0  0  0
  -28.0830  -21.4350   19.5620 C   0  0  0  0  0  0  0  0  0  0  0  0
  -25.6610  -20.6110   19.5060 C   0  0  0  0  0  1  0  0  0  0  0  0
  -29.4110  -21.2390   19.4500 N   0  0  0  0  0  0  0  0  0  0  0  0
  -31.0650  -17.3930   18.7220 C   0  0  0  0  0  1  0  0  0  0  0  0
  -28.7620  -16.5840   18.2890 C   0  0  0  0  0  1  0  0  0  0  0  0
  -29.6200  -17.4060   19.2820 C   0  0  2  0  0  0  0  0  0  0  0  0
  -29.6420  -16.7430   20.6910 C   0  0  0  0  0  2  0  0  0  0  0  0
  -30.7880  -14.6410   21.4740 C   0  0  0  0  0  0  0  0  0  0  0  0
  -30.6950  -12.3170   20.7650 C   0  0  0  0  0  2  0  0  0  0  0  0
  -29.9990  -12.3270   19.3860 C   0  0  0  0  0  2  0  0  0  0  0  0
  -28.4650  -12.2630   19.5390 C   0  0  0  0  0  2  0  0  0  0  0  0
  -27.9000  -13.2680   20.5790 C   0  0  0  0  0  3  0  0  0  0  0  0
  -28.7420  -13.2730   21.8820 C   0  0  0  0  0  2  0  0  0  0  0  0
  -30.1550  -13.4500   21.5210 N   0  0  0  0  0  0  0  0  0  0  0  0
  -32.0070  -14.7780   21.5540 O   0  0  0  0  0  0  0  0  0  0  0  0
  -30.2000  -15.4080   20.5570 N   0  0  0  0  0  0  0  0  0  0  0  0
  -30.6920  -15.3220   19.6800 H   0  0  0  0  0  0  0  0  0  0  0  0
  -25.4400  -13.9440   20.8970 C   0  0  0  0  0  0  0  0  0  0  0  0
  -24.3030  -13.2000   21.0790 C   0  0  0  0  0  0  0  0  0  0  0  0
  -24.7260  -11.8380   21.1170 C   0  0  0  0  0  0  0  0  0  0  0  0
  -26.4820  -13.0320   20.8370 N   0  0  0  0  0  0  0  0  0  0  0  0
  -26.0480  -11.7600   21.0320 N   0  0  0  0  0  0  0  0  0  0  0  0
  -23.9450  -10.5960   21.1760 C   0  0  0  0  0  0  0  0  0  0  0  0
  -24.2490   -9.5760   22.1060 C   0  0  0  0  0  3  0  0  0  0  0  0
  -23.4700   -8.4010   22.1580 C   0  0  0  0  0  3  0  0  0  0  0  0
  -22.3750   -8.2390   21.2770 C   0  0  0  0  0  0  0  0  0  0  0  0
  -22.0880   -9.2470   20.3390 C   0  0  0  0  0  3  0  0  0  0  0  0
  -22.8690  -10.4140   20.2870 C   0  0  0  0  0  3  0  0  0  0  0  0
  -21.5840   -7.1190   21.2330 O   0  0  0  0  0  0  0  0  0  0  0  0
  -21.4450   -6.2910   22.3180 C   0  0  0  0  0  0  0  0  0  0  0  0
  -20.9570   -6.7630   23.5560 C   0  0  0  0  0  3  0  0  0  0  0  0
  -20.7710   -5.8680   24.6280 C   0  0  0  0  0  3  0  0  0  0  0  0
  -21.0620   -4.5010   24.4610 C   0  0  0  0  0  0  0  0  0  0  0  0
  -21.5410   -4.0280   23.2280 C   0  0  0  0  0  3  0  0  0  0  0  0
  -21.7300   -4.9200   22.1580 C   0  0  0  0  0  0  0  0  0  0  0  0
  -22.1760   -4.4550   20.9650 F   0  0  0  0  0  0  0  0  0  0  0  0
  -20.8760   -3.6400   25.4880 F   0  0  0  0  0  0  0  0  0  0  0  0
  -22.8950  -13.7200   21.1230 C   0  0  0  0  0  0  0  0  0  0  0  0
  -22.0200  -13.0510   21.8660 N   0  0  0  0  0  0  0  0  0  0  0  0
  -22.5720  -14.7530   20.5390 O   0  0  0  0  0  0  0  0  0  0  0  0
  -22.2850  -12.2120   22.3600 H   0  0  0  0  0  0  0  0  0  0  0  0
  -21.0750  -13.3900   21.9560 H   0  0  0  0  0  0  0  0  0  0  0  0
  -25.6720  -15.3090   20.7610 N   0  0  0  0  0  0  0  0  0  0  0  0
  -24.9240  -15.9940   20.7550 H   0  0  0  0  0  0  0  0  0  0  0  0
  -26.5920  -15.7120   20.6220 H   0  0  0  0  0  0  0  0  0  0  0  0
  -27.6200  -22.8760   19.7520 C   0  0  0  0  0  2  0  0  0  0  0  0
  -28.7030  -23.8240   20.3030 C   0  0  0  0  0  2  0  0  0  0  0  0
  -28.1510  -24.9090   21.2430 C   0  0  0  0  0  2  0  0  0  0  0  0
  -28.9660  -26.2150   21.1730 C   0  0  0  0  0  2  0  0  0  0  0  0
  -28.6590  -26.9320   19.9830 O   0  0  0  0  0  0  0  0  0  0  0  0
  -24.6280  -31.8090   23.2530 C   0  0  0  0  0  0  0  0  0  0  0  0
  -27.4710  -27.6150   20.0300 C   0  0  0  0  0  0  0  0  0  0  0  0
  -23.4860  -30.4170   21.5490 C   0  0  0  0  0  3  0  0  0  0  0  0
  -25.0120  -28.9850   20.0870 C   0  0  0  0  0  0  0  0  0  0  0  0
  -25.9950  -30.8860   21.3890 C   0  0  0  0  0  2  0  0  0  0  0  0
  -26.1370  -29.5420   20.7080 C   0  0  0  0  0  0  0  0  0  0  0  0
  -27.3670  -28.8550   20.6930 C   0  0  0  0  0  3  0  0  0  0  0  0
  -26.3410  -27.0690   19.3900 C   0  0  0  0  0  3  0  0  0  0  0  0
  -25.1060  -27.7430   19.4330 C   0  0  0  0  0  3  0  0  0  0  0  0
  -23.7300  -29.7840   20.1500 C   0  0  0  0  0  2  0  0  0  0  0  0
  -24.7190  -31.0520   22.1210 N   0  0  0  0  0  0  0  0  0  0  0  0
  -23.5330  -32.0210   23.7930 O   0  0  0  0  0  0  0  0  0  0  0  0
  -22.8680  -29.3460   22.4710 C   0  0  0  0  0  0  0  0  0  0  0  0
  -21.5530  -29.1220   22.3290 N   0  0  0  0  0  0  0  0  0  0  0  0
  -23.5680  -28.7160   23.2690 O   0  0  0  0  0  0  0  0  0  0  0  0
  -21.0480  -29.6810   21.6540 H   0  0  0  0  0  0  0  0  0  0  0  0
  -18.2210  -27.8040   22.7530 C   0  0  0  0  0  0  0  0  0  0  0  0
  -20.7650  -28.1290   23.0570 C   0  0  0  0  0  3  0  0  0  0  0  0
  -20.9170  -26.7270   22.4260 C   0  0  0  0  0  2  0  0  0  0  0  0
  -19.8340  -26.4220   21.3830 C   0  0  0  0  0  2  0  0  0  0  0  0
  -18.4420  -26.4920   22.0190 C   0  0  0  0  0  2  0  0  0  0  0  0
  -19.3110  -28.5820   23.2230 C   0  0  0  0  0  0  0  0  0  0  0  0
  -19.0490  -29.8170   23.8570 C   0  0  0  0  0  3  0  0  0  0  0  0
  -17.7280  -30.2730   24.0220 C   0  0  0  0  0  3  0  0  0  0  0  0
  -16.6520  -29.4880   23.5740 C   0  0  0  0  0  3  0  0  0  0  0  0
  -16.8990  -28.2550   22.9500 C   0  0  0  0  0  3  0  0  0  0  0  0
  -25.8890  -32.4580   23.9040 C   0  0  0  0  0  3  0  0  0  0  0  0
  -25.5560  -33.8560   24.2040 N   0  0  0  0  0  0  0  0  0  0  0  0
  -25.9060  -34.9000   23.4410 C   0  0  0  0  0  0  0  0  0  0  0  0
  -26.6100  -34.7870   22.4330 O   0  0  0  0  0  0  0  0  0  0  0  0
  -24.9330  -34.0150   24.9820 H   0  0  0  0  0  0  0  0  0  0  0  0
  -24.1740  -36.6680   22.9950 C   0  0  0  0  0  1  0  0  0  0  0  0
  -25.3870  -36.2860   23.8600 C   0  0  0  0  0  3  0  0  0  0  0  0
  -27.4710  -37.2120   24.7660 C   0  0  0  0  0  1  0  0  0  0  0  0
  -26.4100  -37.3480   23.7740 N   0  0  0  0  0  0  0  0  0  0  0  0
  -25.9900  -38.2670   23.8810 H   0  0  0  0  0  0  0  0  0  0  0  0
  -26.3750  -31.7080   25.2040 C   0  0  1  0  0  0  0  0  0  0  0  0
  -25.2520  -31.4650   26.2360 C   0  0  0  0  0  1  0  0  0  0  0  0
  -26.9910  -30.3360   24.8430 C   0  0  0  0  0  1  0  0  0  0  0  0
  -27.4930  -32.5220   25.8930 C   0  0  0  0  0  1  0  0  0  0  0  0
  1  4  1  0
  2  3  1  0
  2  7  2  0
  3  1  2  0
  4  5  2  0
  5 50  1  0
  6  4  1  0
  7  5  1  0
 10  8  1  6
  9 10  1  0
 10  3  1  0
 10 11  1  0
 12 18  1  0
 12 19  2  0
 13 18  1  0
 14 15  1  0
 14 13  1  0
 16 15  1  0
 16 25  1  0
 16 17  1  0
 18 17  1  0
 20 11  1  0
 20 12  1  0
 21 20  1  0
 22 23  2  0
 23 24  1  0
 23 42  1  0
 24 27  1  0
 25 22  1  0
 25 26  1  0
 26 24  2  0
 27 28  1  0
 28 29  2  0
 30 29  1  0
 31 30  2  0
 32 31  1  0
 32 27  2  0
 33 30  1  0
 33 34  1  0
 34 35  1  0
 35 36  2  0
 37 36  1  0
 37 41  1  0
 38 37  2  0
 39 34  2  0
 39 38  1  0
 40 39  1  0
 42 43  1  0
 43 46  1  0
 43 45  1  0
 44 42  2  0
 47 22  1  0
 48 47  1  0
 49 47  1  0
 50 51  1  0
 51 52  1  0
 53 52  1  0
 54 56  1  0
 54 53  1  0
 55 66  2  0
 56 61  1  0
 57 65  1  0
 57 67  1  0
 58 64  1  0
 58 60  1  0
 59 65  1  0
 60 59  1  0
 61 60  2  0
 62 63  1  0
 62 56  2  0
 63 58  2  0
 64 57  1  0
 65 55  1  0
 67 69  2  0
 68 67  1  0
 70 68  1  0
 71 80  2  0
 71 76  1  0
 72 68  1  0
 72 76  1  0
 73 72  1  0
 74 75  1  0
 74 73  1  0
 75 71  1  0
 76 77  2  0
 77 78  1  0
 79 78  2  0
 80 79  1  0
 81 55  1  0
 81 82  1  0
 81 91  1  0
 82 85  1  0
 83 87  1  0
 83 82  1  0
 84 83  2  0
 87 86  1  0
 89 87  1  0
 89 90  1  0
 89 88  1  0
 91 94  1  1
 91 92  1  0
 93 91  1  0
M  ISO  4  12 100  20 100  53 101  54 101
M  END
>  <TORSDO>  (68) 
F 22

>  <SCORE>  (68) 
-10.304

>  <name>  (68) 
68

>  <ligand_id>  (68) 
68

>  <original_smiles>  (68) 
[H]c1nc(C([H])([H])C([H])([H])C([H])([H])C([H])([H])Oc2c([H])c([H])c3c(c2[H])C([H])([H])N(C(=O)C([H])(N([H])C(=O)C([H])(N([H])C([H])([H])[H])C([H])([H])[H])C(C([H])([H])[H])(C([H])([H])[H])C([H])([H])[H])C([H])(C(=O)N([H])C2([H])c4c([H])c([H])c([H])c([H])c4C([H])([H])C([H])([H])C2([H])[H])C3([H])[H])c(C([H])([H])[H])c([H])c1C(C([H])([H])[H])(C([H])([H])[H])C([H])([H])N([H])C(=O)N1C([H])([H])C([H])([H])C([H])([H])C([H])(n2nc(-c3c([H])c([H])c(Oc4c([H])c([H])c(F)c([H])c4F)c([H])c3[H])c(C(=O)N([H])[H])c2N([H])[H])C1([H])[H]

>  <smiles>  (68) 
[H]c1nc(C([H])([H])C([H])([H])C([H])([H])C([H])([H])Oc2c([H])c([H])c3c(c2[H])C([H])([H])N(C(=O)C([H])(N([H])C(=O)C([H])(N([H])C([H])([H])[H])C([H])([H])[H])C(C([H])([H])[H])(C([H])([H])[H])C([H])([H])[H])C([H])(C(=O)N([H])C2([H])c4c([H])c([H])c([H])c([H])c4C([H])([H])C([H])([H])C2([H])[H])C3([H])[H])c(C([H])([H])[H])c([H])c1C(C([H])([H])[H])(C([H])([H])[H])C([H])([H])N([H])C(=O)N1C([H])([H])C([H])([H])C([H])([H])C([H])(n2nc(-c3c([H])c([H])c(Oc4c([H])c([H])c(F)c([H])c4F)c([H])c3[H])c(C(=O)N([H])[H])c2N([H])[H])C1([H])[H]

$$$$
69:0:0
     RDKit          3D

 93101  0  0  1  0  0  0  0  0999 V2000
  -30.8150  -20.0490   18.8750 C   0  0  0  0  0  3  0  0  0  0  0  0
  -30.0590  -18.9650   19.4180 C   0  0  0  0  0  0  0  0  0  0  0  0
  -30.4330  -21.4410   18.9510 C   0  0  0  0  0  0  0  0  0  0  0  0
  -28.8560  -19.4590   20.0270 C   0  0  0  0  0  0  0  0  0  0  0  0
  -29.2320  -21.8490   19.6170 C   0  0  0  0  0  0  0  0  0  0  0  0
  -28.4740  -20.8040   20.1090 N   0  0  0  0  0  0  0  0  0  0  0  0
  -31.8870  -22.1340   16.9650 C   0  0  0  0  0  1  0  0  0  0  0  0
  -32.5270  -22.8340   19.3410 C   0  0  0  0  0  1  0  0  0  0  0  0
  -31.3780  -22.4990   18.3690 C   0  0  0  0  0  3  0  0  0  0  0  0
  -27.0780  -17.6570   19.7320 C   0  0  0  0  0  1  0  0  0  0  0  0
  -27.9320  -18.4660   20.7160 C   0  0  0  0  0  2  0  0  0  0  0  0
  -30.7450  -17.4700   19.5440 C   0  0  0  0  0  2  0  0  0  0  0  0
  -30.8280  -14.8140   19.6890 C   0  0  0  0  0  0  0  0  0  0  0  0
  -30.5780  -12.4190   18.9440 C   0  0  0  0  0  2  0  0  0  0  0  0
  -29.5780  -12.3030   17.7740 C   0  0  0  0  0  2  0  0  0  0  0  0
  -28.1480  -12.1290   18.3140 C   0  0  0  0  0  2  0  0  0  0  0  0
  -27.8080  -13.1510   19.4310 C   0  0  0  0  0  3  0  0  0  0  0  0
  -28.9320  -13.2750   20.4840 C   0  0  0  0  0  2  0  0  0  0  0  0
  -30.1710  -13.5930   19.7630 N   0  0  0  0  0  0  0  0  0  0  0  0
  -32.0140  -14.8040   19.3510 O   0  0  0  0  0  0  0  0  0  0  0  0
  -30.1420  -16.0470   19.7690 N   0  0  0  0  0  0  0  0  0  0  0  0
  -29.1570  -15.9970   19.9720 H   0  0  0  0  0  0  0  0  0  0  0  0
  -25.5250  -13.7950   20.3960 C   0  0  0  0  0  0  0  0  0  0  0  0
  -24.4620  -13.0470   20.8290 C   0  0  0  0  0  0  0  0  0  0  0  0
  -24.8650  -11.6810   20.7100 C   0  0  0  0  0  0  0  0  0  0  0  0
  -26.5050  -12.8860   20.0380 N   0  0  0  0  0  0  0  0  0  0  0  0
  -26.1240  -11.6070   20.2910 N   0  0  0  0  0  0  0  0  0  0  0  0
  -24.1020  -10.4430   20.9140 C   0  0  0  0  0  0  0  0  0  0  0  0
  -24.5040   -9.4690   21.8540 C   0  0  0  0  0  3  0  0  0  0  0  0
  -23.7390   -8.2970   22.0450 C   0  0  0  0  0  3  0  0  0  0  0  0
  -22.5580   -8.0920   21.2950 C   0  0  0  0  0  0  0  0  0  0  0  0
  -22.1740   -9.0520   20.3430 C   0  0  0  0  0  3  0  0  0  0  0  0
  -22.9380  -10.2150   20.1510 C   0  0  0  0  0  3  0  0  0  0  0  0
  -21.7660   -6.9740   21.3970 O   0  0  0  0  0  0  0  0  0  0  0  0
  -21.6480   -6.2800   22.5740 C   0  0  0  0  0  0  0  0  0  0  0  0
  -21.1240   -6.8740   23.7420 C   0  0  0  0  0  3  0  0  0  0  0  0
  -20.9520   -6.1060   24.9100 C   0  0  0  0  0  3  0  0  0  0  0  0
  -21.2990   -4.7410   24.9120 C   0  0  0  0  0  0  0  0  0  0  0  0
  -21.8150   -4.1450   23.7490 C   0  0  0  0  0  3  0  0  0  0  0  0
  -21.9860   -4.9120   22.5820 C   0  0  0  0  0  0  0  0  0  0  0  0
  -22.4640   -4.3250   21.4590 F   0  0  0  0  0  0  0  0  0  0  0  0
  -21.1290   -4.0010   26.0320 F   0  0  0  0  0  0  0  0  0  0  0  0
  -23.1150  -13.5690   21.2350 C   0  0  0  0  0  0  0  0  0  0  0  0
  -22.4330  -12.8740   22.1400 N   0  0  0  0  0  0  0  0  0  0  0  0
  -22.6780  -14.6280   20.7860 O   0  0  0  0  0  0  0  0  0  0  0  0
  -22.7980  -12.0150   22.5260 H   0  0  0  0  0  0  0  0  0  0  0  0
  -21.5320  -13.2070   22.4530 H   0  0  0  0  0  0  0  0  0  0  0  0
  -25.7250  -15.1640   20.2490 N   0  0  0  0  0  0  0  0  0  0  0  0
  -24.9790  -15.8330   20.4150 H   0  0  0  0  0  0  0  0  0  0  0  0
  -26.5440  -15.5830   19.8320 H   0  0  0  0  0  0  0  0  0  0  0  0
  -28.9610  -23.4070   20.0840 C   0  0  0  0  0  2  0  0  0  0  0  0
  -27.9550  -24.5550   19.4510 C   0  0  0  0  0  2  0  0  0  0  0  0
  -28.1870  -26.0630   19.6710 O   0  0  0  0  0  0  0  0  0  0  0  0
  -24.6360  -31.5950   22.8770 C   0  0  0  0  0  0  0  0  0  0  0  0
  -27.1120  -27.0060   19.6470 C   0  0  0  0  0  0  0  0  0  0  0  0
  -23.3790  -30.2440   21.2410 C   0  0  0  0  0  3  0  0  0  0  0  0
  -24.7800  -28.7180   19.7260 C   0  0  0  0  0  0  0  0  0  0  0  0
  -25.9210  -30.5330   20.9920 C   0  0  0  0  0  2  0  0  0  0  0  0
  -25.9750  -29.1610   20.3050 C   0  0  0  0  0  0  0  0  0  0  0  0
  -27.1460  -28.3230   20.2480 C   0  0  0  0  0  3  0  0  0  0  0  0
  -25.8910  -26.6490   19.0390 C   0  0  0  0  0  3  0  0  0  0  0  0
  -24.7460  -27.4730   19.0800 C   0  0  0  0  0  3  0  0  0  0  0  0
  -23.5530  -29.6080   19.8360 C   0  0  0  0  0  2  0  0  0  0  0  0
  -24.6670  -30.8100   21.7570 N   0  0  0  0  0  0  0  0  0  0  0  0
  -23.5700  -31.8660   23.4470 O   0  0  0  0  0  0  0  0  0  0  0  0
  -22.7420  -29.2040   22.1980 C   0  0  0  0  0  0  0  0  0  0  0  0
  -21.4100  -29.0390   22.1180 N   0  0  0  0  0  0  0  0  0  0  0  0
  -23.4460  -28.5500   22.9730 O   0  0  0  0  0  0  0  0  0  0  0  0
  -20.9020  -29.6210   21.4650 H   0  0  0  0  0  0  0  0  0  0  0  0
  -18.0420  -27.8520   22.7250 C   0  0  0  0  0  0  0  0  0  0  0  0
  -20.6130  -28.0830   22.8910 C   0  0  0  0  0  3  0  0  0  0  0  0
  -20.6760  -26.6720   22.2630 C   0  0  0  0  0  2  0  0  0  0  0  0
  -19.5270  -26.3940   21.2870 C   0  0  0  0  0  2  0  0  0  0  0  0
  -18.1750  -26.5260   21.9950 C   0  0  0  0  0  2  0  0  0  0  0  0
  -19.1870  -28.5900   23.1310 C   0  0  0  0  0  0  0  0  0  0  0  0
  -19.0080  -29.8320   23.7780 C   0  0  0  0  0  3  0  0  0  0  0  0
  -17.7170  -30.3360   24.0210 C   0  0  0  0  0  3  0  0  0  0  0  0
  -16.5890  -29.5950   23.6340 C   0  0  0  0  0  3  0  0  0  0  0  0
  -16.7510  -28.3550   22.9890 C   0  0  0  0  0  3  0  0  0  0  0  0
  -25.9360  -32.2140   23.4770 C   0  0  0  0  0  3  0  0  0  0  0  0
  -25.6040  -33.5610   23.9670 N   0  0  0  0  0  0  0  0  0  0  0  0
  -25.8980  -34.7000   23.3270 C   0  0  0  0  0  0  0  0  0  0  0  0
  -26.5480  -34.7280   22.2780 O   0  0  0  0  0  0  0  0  0  0  0  0
  -25.0260  -33.6110   24.7910 H   0  0  0  0  0  0  0  0  0  0  0  0
  -24.1290  -36.4870   23.2130 C   0  0  0  0  0  1  0  0  0  0  0  0
  -25.3940  -36.0170   23.9480 C   0  0  0  0  0  3  0  0  0  0  0  0
  -27.5180  -36.8550   24.8490 C   0  0  0  0  0  1  0  0  0  0  0  0
  -26.4030  -37.0970   23.9390 N   0  0  0  0  0  0  0  0  0  0  0  0
  -25.9800  -37.9860   24.1900 H   0  0  0  0  0  0  0  0  0  0  0  0
  -26.5610  -31.3430   24.6380 C   0  0  1  0  0  0  0  0  0  0  0  0
  -25.5510  -30.9740   25.7530 C   0  0  0  0  0  1  0  0  0  0  0  0
  -27.1500  -30.0250   24.0820 C   0  0  0  0  0  1  0  0  0  0  0  0
  -27.7390  -32.1080   25.2880 C   0  0  0  0  0  1  0  0  0  0  0  0
  1  3  2  0
  1  2  1  0
  2 12  1  0
  2  4  2  0
  3  5  1  0
  4  6  1  0
  4 11  1  0
  5 51  1  0
  5  6  2  0
  7  9  1  0
  9  3  1  0
  9  8  1  0
 10 11  1  0
 12 21  1  0
 13 19  1  0
 13 21  1  0
 14 19  1  0
 15 16  1  0
 15 14  1  0
 17 16  1  0
 17 26  1  0
 17 18  1  0
 19 18  1  0
 20 13  2  0
 21 22  1  0
 23 24  2  0
 24 43  1  0
 25 24  1  0
 25 28  1  0
 26 27  1  0
 26 23  1  0
 27 25  2  0
 28 29  1  0
 29 30  2  0
 31 34  1  0
 31 30  1  0
 32 31  2  0
 33 32  1  0
 33 28  2  0
 34 35  1  0
 35 40  2  0
 35 36  1  0
 36 37  2  0
 37 38  1  0
 38 42  1  0
 39 38  2  0
 40 39  1  0
 41 40  1  0
 43 44  1  0
 44 47  1  0
 44 46  1  0
 45 43  2  0
 48 23  1  0
 48 49  1  0
 50 48  1  0
 52 53  1  0
 52 51  1  0
 54 65  2  0
 55 53  1  0
 55 60  1  0
 56 64  1  0
 56 66  1  0
 57 63  1  0
 57 59  1  0
 58 64  1  0
 59 58  1  0
 60 59  2  0
 61 62  1  0
 61 55  2  0
 62 57  2  0
 63 56  1  0
 64 54  1  0
 66 68  2  0
 67 66  1  0
 69 67  1  0
 70 79  2  0
 70 75  1  0
 71 67  1  0
 71 75  1  0
 72 71  1  0
 73 74  1  0
 73 72  1  0
 74 70  1  0
 75 76  2  0
 76 77  1  0
 78 77  2  0
 79 78  1  0
 80 54  1  0
 80 81  1  0
 80 90  1  0
 81 84  1  0
 82 86  1  0
 82 81  1  0
 83 82  2  0
 86 85  1  0
 88 86  1  0
 88 89  1  0
 88 87  1  0
 90 93  1  1
 90 91  1  0
 92 90  1  0
M  ISO  4  13 100  21 100  52 101  53 101
M  END
>  <TORSDO>  (69) 
F 21

>  <SCORE>  (69) 
-12.683

>  <name>  (69) 
69

>  <ligand_id>  (69) 
69

>  <original_smiles>  (69) 
[H]c1c([H])c([H])c2c(c1[H])C([H])([H])C([H])([H])C([H])([H])C2([H])N([H])C(=O)C1([H])N(C(=O)C([H])(N([H])C(=O)C([H])(N([H])C([H])([H])[H])C([H])([H])[H])C(C([H])([H])[H])(C([H])([H])[H])C([H])([H])[H])C([H])([H])c2c([H])c(OC([H])([H])C([H])([H])c3nc(C([H])([H])C([H])([H])[H])c(C([H])([H])N([H])C(=O)N4C([H])([H])C([H])([H])C([H])([H])C([H])(n5nc(-c6c([H])c([H])c(Oc7c([H])c([H])c(F)c([H])c7F)c([H])c6[H])c(C(=O)N([H])[H])c5N([H])[H])C4([H])[H])c([H])c3C([H])(C([H])([H])[H])C([H])([H])[H])c([H])c([H])c2C1([H])[H]

>  <smiles>  (69) 
[H]c1c([H])c([H])c2c(c1[H])C([H])([H])C([H])([H])C([H])([H])C2([H])N([H])C(=O)C1([H])N(C(=O)C([H])(N([H])C(=O)C([H])(N([H])C([H])([H])[H])C([H])([H])[H])C(C([H])([H])[H])(C([H])([H])[H])C([H])([H])[H])C([H])([H])c2c([H])c(OC([H])([H])C([H])([H])c3nc(C([H])([H])C([H])([H])[H])c(C([H])([H])N([H])C(=O)N4C([H])([H])C([H])([H])C([H])([H])C([H])(n5nc(-c6c([H])c([H])c(Oc7c([H])c([H])c(F)c([H])c7F)c([H])c6[H])c(C(=O)N([H])[H])c5N([H])[H])C4([H])[H])c([H])c3C([H])(C([H])([H])[H])C([H])([H])[H])c([H])c([H])c2C1([H])[H]

$$$$
70:0:0
     RDKit          3D

 92100  0  0  1  0  0  0  0  0999 V2000
  -29.4080  -21.6490   20.2660 N   0  0  2  0  0  4  0  0  0  0  0  0
  -29.8660  -21.9050   21.1290 H   0  0  0  0  0  0  0  0  0  0  0  0
  -30.4980  -15.1940   20.1950 C   0  0  0  0  0  0  0  0  0  0  0  0
  -30.3520  -12.8120   19.2340 C   0  0  0  0  0  2  0  0  0  0  0  0
  -29.4100  -12.6780   18.0150 C   0  0  0  0  0  2  0  0  0  0  0  0
  -27.9640  -12.4300   18.4770 C   0  0  0  0  0  2  0  0  0  0  0  0
  -27.5520  -13.3740   19.6370 C   0  0  0  0  0  3  0  0  0  0  0  0
  -28.6230  -13.4720   20.7430 C   0  0  0  0  0  2  0  0  0  0  0  0
  -29.8530  -13.9430   20.0910 N   0  0  0  0  0  0  0  0  0  0  0  0
  -31.7180  -15.1350   19.9910 O   0  0  0  0  0  0  0  0  0  0  0  0
  -30.3660  -19.1790   21.1920 C   0  0  0  0  0  2  0  0  0  0  0  0
  -28.9050  -18.9380   19.3850 C   0  0  0  0  0  2  0  0  0  0  0  0
  -30.3550  -17.5490   21.4510 C   0  0  0  0  0  2  0  0  0  0  0  0
  -28.8100  -17.2980   19.6780 C   0  0  0  0  0  2  0  0  0  0  0  0
  -29.1460  -20.0350   20.5530 C   0  0  0  0  0  3  0  0  0  0  0  0
  -29.8720  -16.5050   20.4450 N   0  0  0  0  0  0  0  0  0  0  0  0
  -25.1910  -13.9270   20.4210 C   0  0  0  0  0  0  0  0  0  0  0  0
  -24.1360  -13.1470   20.8040 C   0  0  0  0  0  0  0  0  0  0  0  0
  -24.6080  -11.7980   20.7700 C   0  0  0  0  0  0  0  0  0  0  0  0
  -26.2330  -13.0560   20.1650 N   0  0  0  0  0  0  0  0  0  0  0  0
  -25.8980  -11.7700   20.4440 N   0  0  0  0  0  0  0  0  0  0  0  0
  -23.8880  -10.5330   20.9690 C   0  0  0  0  0  0  0  0  0  0  0  0
  -24.3220   -9.5750   21.9120 C   0  0  0  0  0  3  0  0  0  0  0  0
  -23.5990   -8.3780   22.1000 C   0  0  0  0  0  3  0  0  0  0  0  0
  -22.4270   -8.1300   21.3450 C   0  0  0  0  0  0  0  0  0  0  0  0
  -22.0120   -9.0760   20.3910 C   0  0  0  0  0  3  0  0  0  0  0  0
  -22.7370  -10.2640   20.2020 C   0  0  0  0  0  3  0  0  0  0  0  0
  -21.6760   -6.9830   21.4420 O   0  0  0  0  0  0  0  0  0  0  0  0
  -21.6180   -6.2550   22.6030 C   0  0  0  0  0  0  0  0  0  0  0  0
  -21.1690   -6.8230   23.8150 C   0  0  0  0  0  3  0  0  0  0  0  0
  -21.0600   -6.0210   24.9700 C   0  0  0  0  0  3  0  0  0  0  0  0
  -21.3910   -4.6540   24.9130 C   0  0  0  0  0  0  0  0  0  0  0  0
  -21.8330   -4.0860   23.7050 C   0  0  0  0  0  3  0  0  0  0  0  0
  -21.9440   -4.8850   22.5540 C   0  0  0  0  0  0  0  0  0  0  0  0
  -22.3500   -4.3290   21.3870 F   0  0  0  0  0  0  0  0  0  0  0  0
  -21.2790   -3.8830   26.0200 F   0  0  0  0  0  0  0  0  0  0  0  0
  -22.7400  -13.6190   21.0860 C   0  0  0  0  0  0  0  0  0  0  0  0
  -22.0230  -12.9230   21.9590 N   0  0  0  0  0  0  0  0  0  0  0  0
  -22.2960  -14.6420   20.5680 O   0  0  0  0  0  0  0  0  0  0  0  0
  -22.3960  -12.0940   22.3980 H   0  0  0  0  0  0  0  0  0  0  0  0
  -21.0890  -13.2230   22.1940 H   0  0  0  0  0  0  0  0  0  0  0  0
  -25.3450  -15.2990   20.2400 N   0  0  0  0  0  0  0  0  0  0  0  0
  -24.5760  -15.9500   20.3570 H   0  0  0  0  0  0  0  0  0  0  0  0
  -26.1900  -15.7380   19.9000 H   0  0  0  0  0  0  0  0  0  0  0  0
  -26.9170  -22.3780   20.2860 C   0  0  0  0  0  1  0  0  0  0  0  0
  -28.3490  -22.9030   20.0640 C   0  0  0  0  0  3  0  0  0  0  0  0
  -27.8900  -24.6070   22.1070 C   0  0  0  0  0  1  0  0  0  0  0  0
  -28.4940  -24.5520   20.6970 C   0  0  0  0  0  3  0  0  0  0  0  0
  -28.3420  -26.0710   20.1400 O   0  0  0  0  0  0  0  0  0  0  0  0
  -24.6710  -31.8760   23.1970 C   0  0  0  0  0  0  0  0  0  0  0  0
  -27.2540  -27.0580   20.2080 C   0  0  0  0  0  0  0  0  0  0  0  0
  -23.4750  -30.4640   21.5720 C   0  0  0  0  0  3  0  0  0  0  0  0
  -24.9260  -28.8630   20.1590 C   0  0  0  0  0  0  0  0  0  0  0  0
  -26.0330  -30.7140   21.3990 C   0  0  0  0  0  2  0  0  0  0  0  0
  -26.1110  -29.3040   20.7610 C   0  0  0  0  0  0  0  0  0  0  0  0
  -27.2760  -28.4260   20.7500 C   0  0  0  0  0  3  0  0  0  0  0  0
  -26.0350  -26.7380   19.5750 C   0  0  0  0  0  3  0  0  0  0  0  0
  -24.9080  -27.5980   19.5470 C   0  0  0  0  0  3  0  0  0  0  0  0
  -23.7000  -29.7710   20.2000 C   0  0  0  0  0  2  0  0  0  0  0  0
  -24.7480  -31.0450   22.1100 N   0  0  0  0  0  0  0  0  0  0  0  0
  -23.5840  -32.1610   23.7230 O   0  0  0  0  0  0  0  0  0  0  0  0
  -22.7980  -29.4660   22.5460 C   0  0  0  0  0  0  0  0  0  0  0  0
  -21.4690  -29.2950   22.4310 N   0  0  0  0  0  0  0  0  0  0  0  0
  -23.4720  -28.8460   23.3710 O   0  0  0  0  0  0  0  0  0  0  0  0
  -20.9780  -29.8530   21.7460 H   0  0  0  0  0  0  0  0  0  0  0  0
  -18.0950  -28.0670   22.9590 C   0  0  0  0  0  0  0  0  0  0  0  0
  -20.6540  -28.3540   23.2080 C   0  0  0  0  0  3  0  0  0  0  0  0
  -20.7640  -26.9190   22.6430 C   0  0  0  0  0  2  0  0  0  0  0  0
  -19.6600  -26.5830   21.6350 C   0  0  0  0  0  2  0  0  0  0  0  0
  -18.2800  -26.7180   22.2850 C   0  0  0  0  0  2  0  0  0  0  0  0
  -19.2100  -28.8440   23.3770 C   0  0  0  0  0  0  0  0  0  0  0  0
  -18.9830  -30.1030   23.9710 C   0  0  0  0  0  3  0  0  0  0  0  0
  -17.6740  -30.5910   24.1480 C   0  0  0  0  0  3  0  0  0  0  0  0
  -16.5750  -29.8140   23.7420 C   0  0  0  0  0  3  0  0  0  0  0  0
  -16.7860  -28.5550   23.1560 C   0  0  0  0  0  3  0  0  0  0  0  0
  -25.9440  -32.5280   23.8200 C   0  0  0  0  0  3  0  0  0  0  0  0
  -26.4690  -31.7640   25.0980 C   0  0  1  0  0  0  0  0  0  0  0  0
  -25.3800  -31.5220   26.1690 C   0  0  0  0  0  1  0  0  0  0  0  0
  -27.0610  -30.3890   24.7140 C   0  0  0  0  0  1  0  0  0  0  0  0
  -27.6170  -32.5700   25.7540 C   0  0  0  0  0  1  0  0  0  0  0  0
  -25.6170  -33.9230   24.1610 N   0  0  0  0  0  0  0  0  0  0  0  0
  -25.9310  -34.9890   23.4120 C   0  0  0  0  0  0  0  0  0  0  0  0
  -26.5920  -34.9020   22.3740 O   0  0  0  0  0  0  0  0  0  0  0  0
  -25.0320  -34.0650   24.9720 H   0  0  0  0  0  0  0  0  0  0  0  0
  -24.1840  -36.7750   23.1050 C   0  0  0  0  0  1  0  0  0  0  0  0
  -25.4410  -36.3710   23.8910 C   0  0  0  0  0  3  0  0  0  0  0  0
  -27.5770  -37.2700   24.7030 C   0  0  0  0  0  1  0  0  0  0  0  0
  -26.4630  -37.4340   23.7750 N   0  0  0  0  0  0  0  0  0  0  0  0
  -26.0490  -38.3490   23.9370 H   0  0  0  0  0  0  0  0  0  0  0  0
  -30.4780  -21.7540   19.2280 C   0  0  0  0  0  2  0  0  0  0  0  0
  -32.7110  -22.7600   18.5600 C   0  0  0  0  0  1  0  0  0  0  0  0
  -31.4510  -22.9280   19.4260 C   0  0  0  0  0  2  0  0  0  0  0  0
  1  2  1  1
  3 16  1  0
  4  9  1  0
  5  6  1  0
  5  4  1  0
  7  6  1  0
  7 20  1  0
  7  8  1  0
  9  3  1  0
  9  8  1  0
 10  3  2  0
 11 13  1  0
 12 14  1  0
 12 15  1  0
 14 16  1  0
 15  1  1  0
 15 11  1  0
 16 13  1  0
 17 18  2  0
 18 37  1  0
 19 18  1  0
 19 22  1  0
 20 17  1  0
 20 21  1  0
 21 19  2  0
 22 23  1  0
 23 24  2  0
 25 28  1  0
 25 24  1  0
 26 25  2  0
 27 26  1  0
 27 22  2  0
 28 29  1  0
 29 30  1  0
 30 31  2  0
 32 31  1  0
 32 36  1  0
 33 32  2  0
 34 29  2  0
 34 33  1  0
 35 34  1  0
 37 38  1  0
 38 41  1  0
 38 40  1  0
 39 37  2  0
 42 43  1  0
 42 17  1  0
 44 42  1  0
 46  1  1  0
 46 45  1  0
 46 48  1  0
 48 47  1  0
 49 51  1  0
 49 48  1  0
 50 61  2  0
 51 56  1  0
 52 60  1  0
 52 62  1  0
 53 59  1  0
 53 55  1  0
 54 60  1  0
 55 54  1  0
 56 55  2  0
 57 51  2  0
 58 57  1  0
 58 53  2  0
 59 52  1  0
 60 50  1  0
 62 64  2  0
 63 62  1  0
 65 63  1  0
 66 75  2  0
 66 71  1  0
 67 63  1  0
 67 71  1  0
 68 67  1  0
 69 70  1  0
 69 68  1  0
 70 66  1  0
 71 72  2  0
 72 73  1  0
 74 73  2  0
 75 74  1  0
 76 50  1  0
 76 81  1  0
 76 77  1  0
 77 80  1  1
 77 78  1  0
 79 77  1  0
 81 84  1  0
 82 86  1  0
 82 81  1  0
 83 82  2  0
 86 85  1  0
 88 86  1  0
 88 89  1  0
 88 87  1  0
 90 92  1  0
 90  1  1  0
 91 92  1  0
M  ISO  4   3 100  16 100  48 101  49 101
M  END
>  <TORSDO>  (70) 
F 20

>  <SCORE>  (70) 
-14.175

>  <name>  (70) 
70

>  <ligand_id>  (70) 
70

>  <original_smiles>  (70) 
[H]c1c([H])c([H])c2c(c1[H])C([H])([H])C([H])([H])C([H])([H])C2([H])N([H])C(=O)C1([H])N(C(=O)C([H])(N([H])C(=O)C([H])(N([H])C([H])([H])[H])C([H])([H])[H])C(C([H])([H])[H])(C([H])([H])[H])C([H])([H])[H])C([H])([H])c2c([H])c(OC([H])(C([H])([H])[H])C([H])(C([H])([H])[H])[N+]([H])(C([H])([H])C([H])([H])C([H])([H])[H])C3([H])C([H])([H])C([H])([H])N(C(=O)N4C([H])([H])C([H])([H])C([H])([H])C([H])(n5nc(-c6c([H])c([H])c(Oc7c([H])c([H])c(F)c([H])c7F)c([H])c6[H])c(C(=O)N([H])[H])c5N([H])[H])C4([H])[H])C([H])([H])C3([H])[H])c([H])c([H])c2C1([H])[H]

>  <smiles>  (70) 
[H]c1c([H])c([H])c2c(c1[H])C([H])([H])C([H])([H])C([H])([H])C2([H])N([H])C(=O)C1([H])N(C(=O)C([H])(N([H])C(=O)C([H])(N([H])C([H])([H])[H])C([H])([H])[H])C(C([H])([H])[H])(C([H])([H])[H])C([H])([H])[H])C([H])([H])c2c([H])c(OC([H])(C([H])([H])[H])C([H])(C([H])([H])[H])[N+]([H])(C([H])([H])C([H])([H])C([H])([H])[H])C3([H])C([H])([H])C([H])([H])N(C(=O)N4C([H])([H])C([H])([H])C([H])([H])C([H])(n5nc(-c6c([H])c([H])c(Oc7c([H])c([H])c(F)c([H])c7F)c([H])c6[H])c(C(=O)N([H])[H])c5N([H])[H])C4([H])[H])C([H])([H])C3([H])[H])c([H])c([H])c2C1([H])[H]

$$$$
71:0:0
     RDKit          3D

 91 99  0  0  1  0  0  0  0  0999 V2000
  -28.7780  -23.6950   21.1150 C   0  0  0  0  0  3  0  0  0  0  0  0
  -29.5360  -22.6290   21.6250 C   0  0  0  0  0  0  0  0  0  0  0  0
  -28.3850  -23.6760   19.7650 C   0  0  0  0  0  0  0  0  0  0  0  0
  -29.3980  -21.4840   19.6250 C   0  0  0  0  0  0  0  0  0  0  0  0
  -29.8470  -21.5540   20.8690 N   0  0  0  0  0  0  0  0  0  0  0  0
  -28.6880  -22.5090   19.0420 N   0  0  0  0  0  0  0  0  0  0  0  0
  -30.1670  -21.3440   23.7530 C   0  0  0  0  0  1  0  0  0  0  0  0
  -30.1670  -22.6830   23.0090 C   0  0  0  0  0  2  0  0  0  0  0  0
  -27.6310  -24.9610   19.1220 C   0  0  0  0  0  2  0  0  0  0  0  0
  -27.6800  -26.3720   19.6980 O   0  0  0  0  0  0  0  0  0  0  0  0
  -24.5280  -31.9010   23.3080 C   0  0  0  0  0  0  0  0  0  0  0  0
  -26.6130  -27.3180   19.7580 C   0  0  0  0  0  0  0  0  0  0  0  0
  -23.1250  -30.6540   21.7060 C   0  0  0  0  0  3  0  0  0  0  0  0
  -24.3590  -29.1130   20.0610 C   0  0  0  0  0  0  0  0  0  0  0  0
  -25.6580  -30.8250   21.3230 C   0  0  0  0  0  2  0  0  0  0  0  0
  -25.6000  -29.4840   20.5740 C   0  0  0  0  0  0  0  0  0  0  0  0
  -26.7240  -28.6020   20.4170 C   0  0  0  0  0  3  0  0  0  0  0  0
  -25.3350  -27.0090   19.2460 C   0  0  0  0  0  3  0  0  0  0  0  0
  -24.2300  -27.8800   19.3900 C   0  0  0  0  0  3  0  0  0  0  0  0
  -23.1870  -30.0600   20.2750 C   0  0  0  0  0  2  0  0  0  0  0  0
  -24.4630  -31.1450   22.1640 N   0  0  0  0  0  0  0  0  0  0  0  0
  -23.5090  -32.1980   23.9490 O   0  0  0  0  0  0  0  0  0  0  0  0
  -22.4850  -29.6190   22.6620 C   0  0  0  0  0  0  0  0  0  0  0  0
  -21.1630  -29.4040   22.5330 N   0  0  0  0  0  0  0  0  0  0  0  0
  -23.1790  -29.0090   23.4830 O   0  0  0  0  0  0  0  0  0  0  0  0
  -20.6600  -29.9440   21.8430 H   0  0  0  0  0  0  0  0  0  0  0  0
  -17.8640  -27.9490   22.8820 C   0  0  0  0  0  0  0  0  0  0  0  0
  -20.3720  -28.4360   23.2970 C   0  0  0  0  0  3  0  0  0  0  0  0
  -20.6240  -26.9930   22.8040 C   0  0  0  0  0  2  0  0  0  0  0  0
  -19.6220  -26.5320   21.7380 C   0  0  0  0  0  2  0  0  0  0  0  0
  -18.1920  -26.5900   22.2860 C   0  0  0  0  0  2  0  0  0  0  0  0
  -18.8890  -28.8200   23.3400 C   0  0  0  0  0  0  0  0  0  0  0  0
  -18.5280  -30.0850   23.8550 C   0  0  0  0  0  3  0  0  0  0  0  0
  -17.1800  -30.4820   23.9190 C   0  0  0  0  0  3  0  0  0  0  0  0
  -16.1690  -29.6100   23.4800 C   0  0  0  0  0  3  0  0  0  0  0  0
  -16.5120  -28.3450   22.9650 C   0  0  0  0  0  3  0  0  0  0  0  0
  -25.8880  -32.4320   23.8580 C   0  0  0  0  0  3  0  0  0  0  0  0
  -25.6780  -33.8220   24.2890 N   0  0  0  0  0  0  0  0  0  0  0  0
  -26.0430  -34.9060   23.5870 C   0  0  0  0  0  0  0  0  0  0  0  0
  -26.6650  -34.8380   22.5250 O   0  0  0  0  0  0  0  0  0  0  0  0
  -25.1240  -33.9530   25.1210 H   0  0  0  0  0  0  0  0  0  0  0  0
  -24.4150  -36.8170   23.4390 C   0  0  0  0  0  1  0  0  0  0  0  0
  -25.6630  -36.2840   24.1610 C   0  0  0  0  0  3  0  0  0  0  0  0
  -27.8810  -36.9830   24.9520 C   0  0  0  0  0  1  0  0  0  0  0  0
  -26.7560  -37.2780   24.0680 N   0  0  0  0  0  0  0  0  0  0  0  0
  -26.4180  -38.2110   24.2850 H   0  0  0  0  0  0  0  0  0  0  0  0
  -26.4570  -31.5680   25.0510 C   0  0  1  0  0  0  0  0  0  0  0  0
  -25.4330  -31.3250   26.1820 C   0  0  0  0  0  1  0  0  0  0  0  0
  -26.9460  -30.1910   24.5490 C   0  0  0  0  0  1  0  0  0  0  0  0
  -27.6930  -32.2730   25.6630 C   0  0  0  0  0  1  0  0  0  0  0  0
  -29.9360  -20.1850   18.8690 C   0  0  0  0  0  2  0  0  0  0  0  0
  -29.3850  -18.7130   19.2480 C   0  0  0  0  0  3  0  0  0  0  0  0
  -30.3630  -17.6240   19.9580 C   0  0  0  0  0  3  0  0  0  0  0  0
  -30.8340  -15.0270   19.8690 C   0  0  0  0  0  0  0  0  0  0  0  0
  -30.7340  -12.6270   19.1870 C   0  0  0  0  0  2  0  0  0  0  0  0
  -29.7800  -12.4940   17.9720 C   0  0  0  0  0  2  0  0  0  0  0  0
  -28.3120  -12.3530   18.4430 C   0  0  0  0  0  2  0  0  0  0  0  0
  -27.9220  -13.3720   19.5430 C   0  0  0  0  0  3  0  0  0  0  0  0
  -28.9940  -13.4540   20.6480 C   0  0  0  0  0  2  0  0  0  0  0  0
  -30.2660  -13.7820   19.9870 N   0  0  0  0  0  0  0  0  0  0  0  0
  -32.0080  -15.1490   19.5000 O   0  0  0  0  0  0  0  0  0  0  0  0
  -30.0170  -16.1340   19.9970 N   0  0  0  0  0  0  0  0  0  0  0  0
  -29.0670  -15.9070   20.2570 H   0  0  0  0  0  0  0  0  0  0  0  0
  -25.5880  -14.0290   20.4270 C   0  0  0  0  0  0  0  0  0  0  0  0
  -24.5210  -13.2660   20.8430 C   0  0  0  0  0  0  0  0  0  0  0  0
  -24.9470  -11.9060   20.7400 C   0  0  0  0  0  0  0  0  0  0  0  0
  -26.5850  -13.1230   20.0920 N   0  0  0  0  0  0  0  0  0  0  0  0
  -26.2110  -11.8420   20.3430 N   0  0  0  0  0  0  0  0  0  0  0  0
  -24.1980  -10.6610   20.9260 C   0  0  0  0  0  0  0  0  0  0  0  0
  -24.5970   -9.6970   21.8790 C   0  0  0  0  0  3  0  0  0  0  0  0
  -23.8340   -8.5240   22.0610 C   0  0  0  0  0  3  0  0  0  0  0  0
  -22.6700   -8.3050   21.2830 C   0  0  0  0  0  0  0  0  0  0  0  0
  -22.3040   -9.2560   20.3100 C   0  0  0  0  0  3  0  0  0  0  0  0
  -23.0640  -10.4230   20.1280 C   0  0  0  0  0  3  0  0  0  0  0  0
  -21.8840   -7.1800   21.3730 O   0  0  0  0  0  0  0  0  0  0  0  0
  -21.7390   -6.4980   22.5540 C   0  0  0  0  0  0  0  0  0  0  0  0
  -21.1850   -7.1150   23.7000 C   0  0  0  0  0  3  0  0  0  0  0  0
  -20.9730   -6.3620   24.8720 C   0  0  0  0  0  3  0  0  0  0  0  0
  -21.3080   -4.9920   24.8980 C   0  0  0  0  0  0  0  0  0  0  0  0
  -21.8410   -4.3780   23.7540 C   0  0  0  0  0  3  0  0  0  0  0  0
  -22.0510   -5.1250   22.5870 C   0  0  0  0  0  0  0  0  0  0  0  0
  -22.5440   -4.5170   21.4770 F   0  0  0  0  0  0  0  0  0  0  0  0
  -21.1230   -4.2710   26.0270 F   0  0  0  0  0  0  0  0  0  0  0  0
  -23.1530  -13.7680   21.1990 C   0  0  0  0  0  0  0  0  0  0  0  0
  -22.4680  -13.0560   22.0950 N   0  0  0  0  0  0  0  0  0  0  0  0
  -22.6990  -14.8030   20.7160 O   0  0  0  0  0  0  0  0  0  0  0  0
  -22.8670  -12.2080   22.4820 H   0  0  0  0  0  0  0  0  0  0  0  0
  -21.5350  -13.3330   22.3660 H   0  0  0  0  0  0  0  0  0  0  0  0
  -25.7730  -15.4060   20.2770 N   0  0  0  0  0  0  0  0  0  0  0  0
  -25.0320  -16.0680   20.4730 H   0  0  0  0  0  0  0  0  0  0  0  0
  -26.6080  -15.8400   19.9030 H   0  0  0  0  0  0  0  0  0  0  0  0
  1  2  2  0
  2  8  1  0
  3  1  1  0
  4  5  2  0
  5  2  1  0
  6  4  1  0
  6  3  2  0
  8  7  1  0
  9 10  1  0
  9  3  1  0
 10 12  1  0
 11 22  2  0
 12 17  1  0
 13 21  1  0
 13 23  1  0
 14 20  1  0
 14 16  1  0
 15 21  1  0
 16 15  1  0
 17 16  2  0
 18 19  1  0
 18 12  2  0
 19 14  2  0
 20 13  1  0
 21 11  1  0
 23 25  2  0
 24 23  1  0
 26 24  1  0
 27 36  2  0
 27 32  1  0
 28 24  1  0
 28 32  1  0
 29 28  1  0
 30 31  1  0
 30 29  1  0
 31 27  1  0
 32 33  2  0
 33 34  1  0
 35 34  2  0
 36 35  1  0
 37 11  1  0
 37 38  1  0
 37 47  1  0
 38 41  1  0
 39 43  1  0
 39 38  1  0
 40 39  2  0
 43 42  1  0
 45 43  1  0
 45 46  1  0
 45 44  1  0
 47 50  1  1
 47 48  1  0
 49 47  1  0
 51 52  1  0
 51  4  1  0
 52 53  2  0
 53 62  1  0
 54 60  1  0
 54 62  1  0
 55 60  1  0
 56 57  1  0
 56 55  1  0
 58 57  1  0
 58 67  1  0
 58 59  1  0
 60 59  1  0
 61 54  2  0
 62 63  1  0
 64 65  2  0
 65 84  1  0
 66 65  1  0
 66 69  1  0
 67 68  1  0
 67 64  1  0
 68 66  2  0
 69 70  1  0
 70 71  2  0
 72 75  1  0
 72 71  1  0
 73 72  2  0
 74 73  1  0
 74 69  2  0
 75 76  1  0
 76 81  2  0
 76 77  1  0
 77 78  2  0
 78 79  1  0
 79 83  1  0
 80 79  2  0
 81 80  1  0
 82 81  1  0
 84 85  1  0
 85 88  1  0
 85 87  1  0
 86 84  2  0
 89 64  1  0
 89 90  1  0
 91 89  1  0
M  ISO  4   9 101  10 101  54 100  62 100
M  END
>  <TORSDO>  (71) 
F 21

>  <SCORE>  (71) 
-13.065

>  <name>  (71) 
71

>  <ligand_id>  (71) 
71

>  <original_smiles>  (71) 
[H]c1c(C([H])([H])Oc2c([H])c([H])c3c(c2[H])C([H])([H])N(C(=O)C([H])(N([H])C(=O)C([H])(N([H])C([H])([H])[H])C([H])([H])[H])C(C([H])([H])[H])(C([H])([H])[H])C([H])([H])[H])C([H])(C(=O)N([H])C2([H])c4c([H])c([H])c([H])c([H])c4C([H])([H])C([H])([H])C2([H])[H])C3([H])[H])nc(C([H])([H])C([H])([H])C([H])([H])N([H])C(=O)N2C([H])([H])C([H])([H])C([H])([H])C([H])(n3nc(-c4c([H])c([H])c(Oc5c([H])c([H])c(F)c([H])c5F)c([H])c4[H])c(C(=O)N([H])[H])c3N([H])[H])C2([H])[H])nc1C([H])([H])C([H])([H])[H]

>  <smiles>  (71) 
[H]c1c(C([H])([H])Oc2c([H])c([H])c3c(c2[H])C([H])([H])N(C(=O)C([H])(N([H])C(=O)C([H])(N([H])C([H])([H])[H])C([H])([H])[H])C(C([H])([H])[H])(C([H])([H])[H])C([H])([H])[H])C([H])(C(=O)N([H])C2([H])c4c([H])c([H])c([H])c([H])c4C([H])([H])C([H])([H])C2([H])[H])C3([H])[H])nc(C([H])([H])C([H])([H])C([H])([H])N([H])C(=O)N2C([H])([H])C([H])([H])C([H])([H])C([H])(n3nc(-c4c([H])c([H])c(Oc5c([H])c([H])c(F)c([H])c5F)c([H])c4[H])c(C(=O)N([H])[H])c3N([H])[H])C2([H])[H])nc1C([H])([H])C([H])([H])[H]

$$$$
72:0:0
     RDKit          3D

 94102  0  0  1  0  0  0  0  0999 V2000
  -26.9960  -23.3610   20.1710 C   0  0  0  0  0  3  0  0  0  0  0  0
  -27.9910  -23.5150   19.1810 C   0  0  0  0  0  0  0  0  0  0  0  0
  -27.8040  -21.2650   20.6600 C   0  0  0  0  0  0  0  0  0  0  0  0
  -28.8050  -21.4140   19.6610 C   0  0  0  0  0  0  0  0  0  0  0  0
  -27.6660  -20.0070   21.4950 C   0  0  0  0  0  1  0  0  0  0  0  0
  -26.9000  -22.2390   20.9180 N   0  0  0  0  0  0  0  0  0  0  0  0
  -28.9020  -22.5450   18.9190 N   0  0  0  0  0  0  0  0  0  0  0  0
  -28.1140  -24.8340   18.4440 C   0  0  0  0  0  2  0  0  0  0  0  0
  -28.5140  -25.9610   19.4100 C   0  0  0  0  0  2  0  0  0  0  0  0
  -28.3810  -27.2510   18.8190 O   0  0  0  0  0  0  0  0  0  0  0  0
  -24.6560  -31.3880   23.2360 C   0  0  0  0  0  0  0  0  0  0  0  0
  -27.1830  -27.8730   19.0770 C   0  0  0  0  0  0  0  0  0  0  0  0
  -23.3630  -30.3280   21.4090 C   0  0  0  0  0  3  0  0  0  0  0  0
  -24.7450  -29.1930   19.5910 C   0  0  0  0  0  0  0  0  0  0  0  0
  -25.8510  -30.8360   21.1210 C   0  0  0  0  0  2  0  0  0  0  0  0
  -25.9260  -29.6390   20.1970 C   0  0  0  0  0  0  0  0  0  0  0  0
  -27.1470  -28.9840   19.9430 C   0  0  0  0  0  3  0  0  0  0  0  0
  -25.9870  -27.4260   18.4740 C   0  0  0  0  0  3  0  0  0  0  0  0
  -24.7660  -28.0800   18.7320 C   0  0  0  0  0  3  0  0  0  0  0  0
  -23.4860  -29.9680   19.9040 C   0  0  0  0  0  2  0  0  0  0  0  0
  -24.6450  -30.8530   21.9820 N   0  0  0  0  0  0  0  0  0  0  0  0
  -23.6130  -31.4910   23.8970 O   0  0  0  0  0  0  0  0  0  0  0  0
  -22.8100  -29.0990   22.1670 C   0  0  0  0  0  0  0  0  0  0  0  0
  -21.5150  -28.8030   21.9640 N   0  0  0  0  0  0  0  0  0  0  0  0
  -23.5450  -28.4210   22.8900 O   0  0  0  0  0  0  0  0  0  0  0  0
  -20.9760  -29.4140   21.3670 H   0  0  0  0  0  0  0  0  0  0  0  0
  -18.3350  -27.0930   21.9940 C   0  0  0  0  0  0  0  0  0  0  0  0
  -20.7950  -27.6680   22.5400 C   0  0  0  0  0  3  0  0  0  0  0  0
  -21.1570  -26.3520   21.8130 C   0  0  0  0  0  2  0  0  0  0  0  0
  -20.1990  -26.0130   20.6670 C   0  0  0  0  0  2  0  0  0  0  0  0
  -18.7650  -25.8800   21.1880 C   0  0  0  0  0  2  0  0  0  0  0  0
  -19.2890  -27.9410   22.6160 C   0  0  0  0  0  0  0  0  0  0  0  0
  -18.8380  -29.0770   23.3250 C   0  0  0  0  0  3  0  0  0  0  0  0
  -17.4650  -29.3670   23.4200 C   0  0  0  0  0  3  0  0  0  0  0  0
  -16.5240  -28.5170   22.8140 C   0  0  0  0  0  3  0  0  0  0  0  0
  -16.9580  -27.3800   22.1080 C   0  0  0  0  0  3  0  0  0  0  0  0
  -25.9710  -31.9180   23.8880 C   0  0  0  0  0  3  0  0  0  0  0  0
  -25.6900  -33.2540   24.4310 N   0  0  0  0  0  0  0  0  0  0  0  0
  -26.0300  -34.4040   23.8340 C   0  0  0  0  0  0  0  0  0  0  0  0
  -26.6860  -34.4480   22.7880 O   0  0  0  0  0  0  0  0  0  0  0  0
  -25.1100  -33.2940   25.2560 H   0  0  0  0  0  0  0  0  0  0  0  0
  -24.3370  -36.2610   23.7600 C   0  0  0  0  0  1  0  0  0  0  0  0
  -25.5680  -35.7130   24.4990 C   0  0  0  0  0  3  0  0  0  0  0  0
  -27.7150  -36.4190   25.4570 C   0  0  0  0  0  1  0  0  0  0  0  0
  -26.6190  -36.7520   24.5510 N   0  0  0  0  0  0  0  0  0  0  0  0
  -26.2290  -37.6450   24.8380 H   0  0  0  0  0  0  0  0  0  0  0  0
  -26.5350  -30.9640   25.0110 C   0  0  1  0  0  0  0  0  0  0  0  0
  -25.4890  -30.5830   26.0850 C   0  0  0  0  0  1  0  0  0  0  0  0
  -27.0750  -29.6550   24.3910 C   0  0  0  0  0  1  0  0  0  0  0  0
  -27.7270  -31.6410   25.7250 C   0  0  0  0  0  1  0  0  0  0  0  0
  -29.8040  -20.3080   19.3500 C   0  0  0  0  0  2  0  0  0  0  0  0
  -29.1180  -18.9850   18.9630 C   0  0  0  0  0  2  0  0  0  0  0  0
  -29.7220  -17.7640   19.6750 C   0  0  0  0  0  2  0  0  0  0  0  0
  -29.3170  -16.4360   19.0010 C   0  0  0  0  0  2  0  0  0  0  0  0
  -30.1730  -14.1780   18.8540 C   0  0  0  0  0  0  0  0  0  0  0  0
  -29.8440  -11.8600   18.0750 C   0  0  0  0  0  2  0  0  0  0  0  0
  -28.6880  -11.7800   17.0590 C   0  0  0  0  0  2  0  0  0  0  0  0
  -27.3440  -11.5850   17.7820 C   0  0  0  0  0  2  0  0  0  0  0  0
  -27.1380  -12.5990   18.9380 C   0  0  0  0  0  3  0  0  0  0  0  0
  -28.3880  -12.6770   19.8440 C   0  0  0  0  0  2  0  0  0  0  0  0
  -29.5660  -12.9680   19.0050 N   0  0  0  0  0  0  0  0  0  0  0  0
  -30.9980  -14.3960   17.9590 O   0  0  0  0  0  0  0  0  0  0  0  0
  -29.7570  -15.1840   19.6580 N   0  0  0  0  0  0  0  0  0  0  0  0
  -24.9840  -13.1510   20.2380 C   0  0  0  0  0  0  0  0  0  0  0  0
  -24.0270  -12.3540   20.8070 C   0  0  0  0  0  0  0  0  0  0  0  0
  -24.4510  -11.0080   20.5860 C   0  0  0  0  0  0  0  0  0  0  0  0
  -25.9340  -12.2900   19.7110 N   0  0  0  0  0  0  0  0  0  0  0  0
  -25.6280  -10.9910   19.9720 N   0  0  0  0  0  0  0  0  0  0  0  0
  -23.7780   -9.7350   20.8750 C   0  0  0  0  0  0  0  0  0  0  0  0
  -24.2840   -8.8330   21.8380 C   0  0  0  0  0  3  0  0  0  0  0  0
  -23.6100   -7.6230   22.1100 C   0  0  0  0  0  3  0  0  0  0  0  0
  -22.4140   -7.3060   21.4240 C   0  0  0  0  0  0  0  0  0  0  0  0
  -21.9270   -8.1950   20.4500 C   0  0  0  0  0  3  0  0  0  0  0  0
  -22.6020   -9.3960   20.1760 C   0  0  0  0  0  3  0  0  0  0  0  0
  -21.7060   -6.1420   21.6060 O   0  0  0  0  0  0  0  0  0  0  0  0
  -21.5980   -5.5490   22.8390 C   0  0  0  0  0  0  0  0  0  0  0  0
  -20.9900   -6.2060   23.9300 C   0  0  0  0  0  3  0  0  0  0  0  0
  -20.8350   -5.5330   25.1590 C   0  0  0  0  0  3  0  0  0  0  0  0
  -21.2800   -4.2040   25.2960 C   0  0  0  0  0  0  0  0  0  0  0  0
  -21.8820   -3.5480   24.2090 C   0  0  0  0  0  3  0  0  0  0  0  0
  -22.0370   -4.2180   22.9830 C   0  0  0  0  0  0  0  0  0  0  0  0
  -22.5970   -3.5720   21.9300 F   0  0  0  0  0  0  0  0  0  0  0  0
  -21.1240   -3.5560   26.4740 F   0  0  0  0  0  0  0  0  0  0  0  0
  -22.7420  -12.8110   21.4380 C   0  0  0  0  0  0  0  0  0  0  0  0
  -22.2640  -12.0910   22.4480 N   0  0  0  0  0  0  0  0  0  0  0  0
  -22.1790  -13.8390   21.0660 O   0  0  0  0  0  0  0  0  0  0  0  0
  -22.7390  -11.2630   22.7720 H   0  0  0  0  0  0  0  0  0  0  0  0
  -21.4100  -12.3770   22.9050 H   0  0  0  0  0  0  0  0  0  0  0  0
  -25.1190  -14.5310   20.1130 N   0  0  0  0  0  0  0  0  0  0  0  0
  -24.4220  -15.1790   20.4620 H   0  0  0  0  0  0  0  0  0  0  0  0
  -25.9010  -14.9930   19.6660 H   0  0  0  0  0  0  0  0  0  0  0  0
  -30.2800  -15.2560   21.0340 C   0  0  0  0  0  2  0  0  0  0  0  0
  -32.3710  -15.3020   22.4990 C   0  0  0  0  0  1  0  0  0  0  0  0
  -31.8180  -15.3860   21.0750 C   0  0  0  0  0  2  0  0  0  0  0  0
  1  6  1  0
  2  1  2  0
  3  6  2  0
  3  5  1  0
  4  3  1  0
  7  2  1  0
  7  4  2  0
  8  2  1  0
  8  9  1  0
 10 12  1  0
 10  9  1  0
 11 22  2  0
 12 17  1  0
 13 21  1  0
 13 23  1  0
 14 20  1  0
 14 16  1  0
 15 21  1  0
 16 15  1  0
 17 16  2  0
 18 19  1  0
 18 12  2  0
 19 14  2  0
 20 13  1  0
 21 11  1  0
 23 25  2  0
 24 23  1  0
 26 24  1  0
 27 36  2  0
 27 32  1  0
 28 24  1  0
 28 32  1  0
 29 28  1  0
 30 31  1  0
 30 29  1  0
 31 27  1  0
 32 33  2  0
 33 34  1  0
 35 34  2  0
 36 35  1  0
 37 11  1  0
 37 38  1  0
 37 47  1  0
 38 41  1  0
 39 38  1  0
 39 43  1  0
 40 39  2  0
 43 42  1  0
 43 45  1  0
 45 46  1  0
 45 44  1  0
 47 50  1  1
 47 48  1  0
 49 47  1  0
 51  4  1  0
 52 51  1  0
 52 53  1  0
 54 63  1  0
 54 53  1  0
 55 61  1  0
 55 63  1  0
 56 61  1  0
 57 58  1  0
 57 56  1  0
 59 58  1  0
 59 67  1  0
 59 60  1  0
 61 60  1  0
 62 55  2  0
 63 92  1  0
 64 65  2  0
 65 84  1  0
 66 65  1  0
 66 69  1  0
 67 68  1  0
 67 64  1  0
 68 66  2  0
 69 70  1  0
 70 71  2  0
 72 75  1  0
 72 71  1  0
 73 72  2  0
 74 73  1  0
 74 69  2  0
 75 76  1  0
 76 81  2  0
 76 77  1  0
 77 78  2  0
 78 79  1  0
 79 83  1  0
 80 79  2  0
 81 80  1  0
 82 81  1  0
 84 85  1  0
 85 87  1  0
 85 88  1  0
 86 84  2  0
 89 64  1  0
 89 90  1  0
 91 89  1  0
 92 94  1  0
 94 93  1  0
M  ISO  4   9 101  10 101  55 100  63 100
M  END
>  <TORSDO>  (72) 
F 24

>  <SCORE>  (72) 
-2.995

>  <name>  (72) 
72

>  <ligand_id>  (72) 
72

>  <original_smiles>  (72) 
[H]c1nc(C([H])([H])[H])c(C([H])([H])C([H])([H])C([H])([H])C([H])([H])N(C(=O)N2C([H])([H])C([H])([H])C([H])([H])C([H])(n3nc(-c4c([H])c([H])c(Oc5c([H])c([H])c(F)c([H])c5F)c([H])c4[H])c(C(=O)N([H])[H])c3N([H])[H])C2([H])[H])C([H])([H])C([H])([H])C([H])([H])[H])nc1C([H])([H])C([H])([H])Oc1c([H])c([H])c2c(c1[H])C([H])([H])N(C(=O)C([H])(N([H])C(=O)C([H])(N([H])C([H])([H])[H])C([H])([H])[H])C(C([H])([H])[H])(C([H])([H])[H])C([H])([H])[H])C([H])(C(=O)N([H])C1([H])c3c([H])c([H])c([H])c([H])c3C([H])([H])C([H])([H])C1([H])[H])C2([H])[H]

>  <smiles>  (72) 
[H]c1nc(C([H])([H])[H])c(C([H])([H])C([H])([H])C([H])([H])C([H])([H])N(C(=O)N2C([H])([H])C([H])([H])C([H])([H])C([H])(n3nc(-c4c([H])c([H])c(Oc5c([H])c([H])c(F)c([H])c5F)c([H])c4[H])c(C(=O)N([H])[H])c3N([H])[H])C2([H])[H])C([H])([H])C([H])([H])C([H])([H])[H])nc1C([H])([H])C([H])([H])Oc1c([H])c([H])c2c(c1[H])C([H])([H])N(C(=O)C([H])(N([H])C(=O)C([H])(N([H])C([H])([H])[H])C([H])([H])[H])C(C([H])([H])[H])(C([H])([H])[H])C([H])([H])[H])C([H])(C(=O)N([H])C1([H])c3c([H])c([H])c([H])c([H])c3C([H])([H])C([H])([H])C1([H])[H])C2([H])[H]

$$$$
73:0:0
     RDKit          3D

 90 98  0  0  1  0  0  0  0  0999 V2000
  -27.9160  -21.6990   20.9370 C   0  0  0  0  0  3  0  0  0  0  0  0
  -28.0580  -20.2970   20.7750 C   0  0  0  0  0  3  0  0  0  0  0  0
  -28.9930  -22.5700   20.6450 C   0  0  0  0  0  0  0  0  0  0  0  0
  -29.2770  -19.7400   20.3180 C   0  0  0  0  0  0  0  0  0  0  0  0
  -30.1720  -21.9290   20.1740 C   0  0  0  0  0  0  0  0  0  0  0  0
  -31.3960  -22.7390   19.8090 C   0  0  0  0  0  1  0  0  0  0  0  0
  -30.3050  -20.5740   20.0160 N   0  0  0  0  0  0  0  0  0  0  0  0
  -28.9050  -24.1090   20.9750 C   0  0  0  0  0  3  0  0  0  0  0  0
  -28.4100  -25.1420   19.8820 C   0  0  0  0  0  3  0  0  0  0  0  0
  -28.4120  -26.5760   20.2720 O   0  0  0  0  0  0  0  0  0  0  0  0
  -24.6100  -31.9250   23.2560 C   0  0  0  0  0  0  0  0  0  0  0  0
  -27.2650  -27.3850   20.2000 C   0  0  0  0  0  0  0  0  0  0  0  0
  -23.4230  -30.5190   21.6130 C   0  0  0  0  0  3  0  0  0  0  0  0
  -24.8880  -28.9870   20.1860 C   0  0  0  0  0  0  0  0  0  0  0  0
  -25.9610  -30.8480   21.4490 C   0  0  0  0  0  2  0  0  0  0  0  0
  -26.0490  -29.4750   20.7980 C   0  0  0  0  0  0  0  0  0  0  0  0
  -27.2350  -28.6820   20.8030 C   0  0  0  0  0  3  0  0  0  0  0  0
  -26.0840  -26.9630   19.5450 C   0  0  0  0  0  3  0  0  0  0  0  0
  -24.9070  -27.7340   19.5560 C   0  0  0  0  0  3  0  0  0  0  0  0
  -23.6490  -29.8550   20.2290 C   0  0  0  0  0  2  0  0  0  0  0  0
  -24.6830  -31.1140   22.1630 N   0  0  0  0  0  0  0  0  0  0  0  0
  -23.5220  -32.1960   23.7850 O   0  0  0  0  0  0  0  0  0  0  0  0
  -22.7680  -29.4930   22.5640 C   0  0  0  0  0  0  0  0  0  0  0  0
  -21.4460  -29.2990   22.4240 N   0  0  0  0  0  0  0  0  0  0  0  0
  -23.4460  -28.8760   23.3900 O   0  0  0  0  0  0  0  0  0  0  0  0
  -20.9560  -29.8480   21.7320 H   0  0  0  0  0  0  0  0  0  0  0  0
  -18.0790  -28.0710   22.9030 C   0  0  0  0  0  0  0  0  0  0  0  0
  -20.6310  -28.3540   23.1900 C   0  0  0  0  0  3  0  0  0  0  0  0
  -20.7520  -26.9230   22.6160 C   0  0  0  0  0  2  0  0  0  0  0  0
  -19.6620  -26.5890   21.5960 C   0  0  0  0  0  2  0  0  0  0  0  0
  -18.2740  -26.7220   22.2290 C   0  0  0  0  0  2  0  0  0  0  0  0
  -19.1870  -28.8440   23.3390 C   0  0  0  0  0  0  0  0  0  0  0  0
  -18.9520  -30.1050   23.9270 C   0  0  0  0  0  3  0  0  0  0  0  0
  -17.6410  -30.5940   24.0850 C   0  0  0  0  0  3  0  0  0  0  0  0
  -16.5470  -29.8180   23.6660 C   0  0  0  0  0  3  0  0  0  0  0  0
  -16.7670  -28.5580   23.0790 C   0  0  0  0  0  3  0  0  0  0  0  0
  -25.8860  -32.5680   23.8810 C   0  0  0  0  0  3  0  0  0  0  0  0
  -26.3940  -31.8120   25.1720 C   0  0  1  0  0  0  0  0  0  0  0  0
  -25.2900  -31.5740   26.2280 C   0  0  0  0  0  1  0  0  0  0  0  0
  -26.9890  -30.4350   24.8000 C   0  0  0  0  0  1  0  0  0  0  0  0
  -27.5340  -32.6150   25.8390 C   0  0  0  0  0  1  0  0  0  0  0  0
  -25.5730  -33.9680   24.1970 N   0  0  0  0  0  0  0  0  0  0  0  0
  -25.9070  -35.0150   23.4310 C   0  0  0  0  0  0  0  0  0  0  0  0
  -26.5850  -34.9050   22.4060 O   0  0  0  0  0  0  0  0  0  0  0  0
  -24.9770  -34.1300   24.9960 H   0  0  0  0  0  0  0  0  0  0  0  0
  -24.1830  -36.8040   23.0350 C   0  0  0  0  0  1  0  0  0  0  0  0
  -25.4090  -36.4070   23.8710 C   0  0  0  0  0  3  0  0  0  0  0  0
  -27.5250  -37.3000   24.7400 C   0  0  0  0  0  1  0  0  0  0  0  0
  -26.4440  -37.4610   23.7720 N   0  0  0  0  0  0  0  0  0  0  0  0
  -26.0340  -38.3810   23.9080 H   0  0  0  0  0  0  0  0  0  0  0  0
  -29.3860  -18.2110   19.9710 C   0  0  0  0  0  3  0  0  0  0  0  0
  -30.3310  -17.2290   20.7860 C   0  0  0  0  0  3  0  0  0  0  0  0
  -30.7630  -14.7050   20.2690 C   0  0  0  0  0  0  0  0  0  0  0  0
  -30.4940  -12.5020   19.1490 C   0  0  0  0  0  2  0  0  0  0  0  0
  -29.5350  -12.6820   17.9520 C   0  0  0  0  0  2  0  0  0  0  0  0
  -28.0670  -12.5310   18.3990 C   0  0  0  0  0  2  0  0  0  0  0  0
  -27.7360  -13.3550   19.6730 C   0  0  0  0  0  3  0  0  0  0  0  0
  -28.8160  -13.1730   20.7650 C   0  0  0  0  0  2  0  0  0  0  0  0
  -30.1160  -13.5040   20.1630 N   0  0  0  0  0  0  0  0  0  0  0  0
  -31.9200  -14.8590   19.8680 O   0  0  0  0  0  0  0  0  0  0  0  0
  -29.9980  -15.7630   20.6620 N   0  0  0  0  0  0  0  0  0  0  0  0
  -29.0570  -15.5200   20.9330 H   0  0  0  0  0  0  0  0  0  0  0  0
  -25.3500  -13.9350   20.4250 C   0  0  0  0  0  0  0  0  0  0  0  0
  -24.2930  -13.1530   20.8070 C   0  0  0  0  0  0  0  0  0  0  0  0
  -24.7630  -11.8050   20.7690 C   0  0  0  0  0  0  0  0  0  0  0  0
  -26.3950  -13.0610   20.1740 N   0  0  0  0  0  0  0  0  0  0  0  0
  -26.0490  -11.7740   20.4440 N   0  0  0  0  0  0  0  0  0  0  0  0
  -24.0430  -10.5390   20.9710 C   0  0  0  0  0  0  0  0  0  0  0  0
  -24.4880   -9.5800   21.9090 C   0  0  0  0  0  3  0  0  0  0  0  0
  -23.7690   -8.3810   22.0990 C   0  0  0  0  0  3  0  0  0  0  0  0
  -22.5950   -8.1300   21.3510 C   0  0  0  0  0  0  0  0  0  0  0  0
  -22.1660   -9.0780   20.4050 C   0  0  0  0  0  3  0  0  0  0  0  0
  -22.8840  -10.2700   20.2130 C   0  0  0  0  0  3  0  0  0  0  0  0
  -21.8470   -6.9800   21.4480 O   0  0  0  0  0  0  0  0  0  0  0  0
  -21.8030   -6.2460   22.6070 C   0  0  0  0  0  0  0  0  0  0  0  0
  -21.3540   -6.8020   23.8230 C   0  0  0  0  0  3  0  0  0  0  0  0
  -21.2630   -5.9960   24.9760 C   0  0  0  0  0  3  0  0  0  0  0  0
  -21.6040   -4.6320   24.9120 C   0  0  0  0  0  0  0  0  0  0  0  0
  -22.0430   -4.0740   23.6980 C   0  0  0  0  0  3  0  0  0  0  0  0
  -22.1400   -4.8790   22.5500 C   0  0  0  0  0  0  0  0  0  0  0  0
  -22.5440   -4.3310   21.3780 F   0  0  0  0  0  0  0  0  0  0  0  0
  -21.5070   -3.8540   26.0150 F   0  0  0  0  0  0  0  0  0  0  0  0
  -22.8970  -13.6230   21.0980 C   0  0  0  0  0  0  0  0  0  0  0  0
  -22.1840  -12.9210   21.9720 N   0  0  0  0  0  0  0  0  0  0  0  0
  -22.4480  -14.6490   20.5890 O   0  0  0  0  0  0  0  0  0  0  0  0
  -22.5600  -12.0880   22.4000 H   0  0  0  0  0  0  0  0  0  0  0  0
  -21.2470  -13.2160   22.2100 H   0  0  0  0  0  0  0  0  0  0  0  0
  -25.5090  -15.3050   20.2550 N   0  0  0  0  0  0  0  0  0  0  0  0
  -24.7610  -15.9720   20.4090 H   0  0  0  0  0  0  0  0  0  0  0  0
  -26.3590  -15.7370   19.9140 H   0  0  0  0  0  0  0  0  0  0  0  0
  2  1  1  0
  3  1  2  0
  3  8  1  0
  4  2  2  0
  5  3  1  0
  6  5  1  0
  7  5  2  0
  7  4  1  0
  9 10  1  0
  9  8  2  0
 11 22  2  0
 12 10  1  0
 12 17  1  0
 13 21  1  0
 13 23  1  0
 14 20  1  0
 14 16  1  0
 15 21  1  0
 16 17  2  0
 16 15  1  0
 18 19  1  0
 18 12  2  0
 19 14  2  0
 20 13  1  0
 21 11  1  0
 23 25  2  0
 24 23  1  0
 26 24  1  0
 27 36  2  0
 27 32  1  0
 28 24  1  0
 28 32  1  0
 29 28  1  0
 30 31  1  0
 30 29  1  0
 31 27  1  0
 32 33  2  0
 33 34  1  0
 35 34  2  0
 36 35  1  0
 37 11  1  0
 37 42  1  0
 37 38  1  0
 38 41  1  1
 38 39  1  0
 40 38  1  0
 42 45  1  0
 43 47  1  0
 43 42  1  0
 44 43  2  0
 47 46  1  0
 49 47  1  0
 49 50  1  0
 49 48  1  0
 51  4  1  0
 51 52  2  0
 53 61  1  0
 54 59  1  0
 55 56  1  0
 55 54  1  0
 57 56  1  0
 57 66  1  0
 57 58  1  0
 59 53  1  0
 59 58  1  0
 60 53  2  0
 61 52  1  0
 61 62  1  0
 63 64  2  0
 64 83  1  0
 65 64  1  0
 65 68  1  0
 66 63  1  0
 66 67  1  0
 67 65  2  0
 68 69  1  0
 69 70  2  0
 71 74  1  0
 71 70  1  0
 72 71  2  0
 73 72  1  0
 73 68  2  0
 74 75  1  0
 75 76  1  0
 76 77  2  0
 78 77  1  0
 78 82  1  0
 79 78  2  0
 80 75  2  0
 80 79  1  0
 81 80  1  0
 83 84  1  0
 84 87  1  0
 84 86  1  0
 85 83  2  0
 88 89  1  0
 88 63  1  0
 90 88  1  0
M  ISO  4   9 101  10 101  53 100  61 100
M  END
>  <TORSDO>  (73) 
F 20

>  <SCORE>  (73) 
-13.691

>  <name>  (73) 
73

>  <ligand_id>  (73) 
73

>  <original_smiles>  (73) 
[H]c1c(C([H])([H])C([H])([H])N([H])C(=O)N2C([H])([H])C([H])([H])C([H])([H])C([H])(n3nc(-c4c([H])c([H])c(Oc5c([H])c([H])c(F)c([H])c5F)c([H])c4[H])c(C(=O)N([H])[H])c3N([H])[H])C2([H])[H])nc(C([H])([H])[H])c(C([H])([H])C([H])([H])Oc2c([H])c([H])c3c(c2[H])C([H])([H])N(C(=O)C([H])(N([H])C(=O)C([H])(N([H])C([H])([H])[H])C([H])([H])[H])C(C([H])([H])[H])(C([H])([H])[H])C([H])([H])[H])C([H])(C(=O)N([H])C2([H])c4c([H])c([H])c([H])c([H])c4C([H])([H])C([H])([H])C2([H])[H])C3([H])[H])c1[H]

>  <smiles>  (73) 
[H]c1c(C([H])([H])C([H])([H])N([H])C(=O)N2C([H])([H])C([H])([H])C([H])([H])C([H])(n3nc(-c4c([H])c([H])c(Oc5c([H])c([H])c(F)c([H])c5F)c([H])c4[H])c(C(=O)N([H])[H])c3N([H])[H])C2([H])[H])nc(C([H])([H])[H])c(C([H])([H])C([H])([H])Oc2c([H])c([H])c3c(c2[H])C([H])([H])N(C(=O)C([H])(N([H])C(=O)C([H])(N([H])C([H])([H])[H])C([H])([H])[H])C(C([H])([H])[H])(C([H])([H])[H])C([H])([H])[H])C([H])(C(=O)N([H])C2([H])c4c([H])c([H])c([H])c([H])c4C([H])([H])C([H])([H])C2([H])[H])C3([H])[H])c1[H]

$$$$
74:0:0
     RDKit          3D

 91 99  0  0  1  0  0  0  0  0999 V2000
  -29.8670  -22.1270   21.7190 C   0  0  0  0  0  3  0  0  0  0  0  0
  -29.3570  -23.4430   21.5080 C   0  0  0  0  0  0  0  0  0  0  0  0
  -29.8430  -21.1570   20.6830 C   0  0  0  0  0  0  0  0  0  0  0  0
  -28.8230  -23.7930   20.2410 C   0  0  0  0  0  0  0  0  0  0  0  0
  -29.3210  -21.6040   19.4470 C   0  0  0  0  0  0  0  0  0  0  0  0
  -29.3640  -24.4440   22.6480 C   0  0  0  0  0  1  0  0  0  0  0  0
  -29.2850  -20.6890   18.2360 C   0  0  0  0  0  1  0  0  0  0  0  0
  -28.8280  -22.8590   19.2510 N   0  0  0  0  0  0  0  0  0  0  0  0
  -30.5240  -19.7550   20.8690 C   0  0  0  0  0  2  0  0  0  0  0  0
  -29.7080  -18.3970   20.7980 C   0  0  0  0  0  2  0  0  0  0  0  0
  -30.6320  -17.1140   20.7230 C   0  0  0  0  0  2  0  0  0  0  0  0
  -30.6730  -14.6110   20.4220 C   0  0  0  0  0  0  0  0  0  0  0  0
  -30.3400  -12.4040   19.3520 C   0  0  0  0  0  2  0  0  0  0  0  0
  -29.4060  -12.5690   18.1360 C   0  0  0  0  0  2  0  0  0  0  0  0
  -27.9360  -12.4290   18.5720 C   0  0  0  0  0  2  0  0  0  0  0  0
  -27.5930  -13.2910   19.8170 C   0  0  0  0  0  3  0  0  0  0  0  0
  -28.6600  -13.1490   20.9280 C   0  0  0  0  0  2  0  0  0  0  0  0
  -29.9700  -13.4420   20.3340 N   0  0  0  0  0  0  0  0  0  0  0  0
  -31.8330  -14.6920   20.0140 O   0  0  0  0  0  0  0  0  0  0  0  0
  -30.0140  -15.7490   20.7840 N   0  0  0  0  0  0  0  0  0  0  0  0
  -29.0550  -15.6640   21.0830 H   0  0  0  0  0  0  0  0  0  0  0  0
  -25.2050  -13.8820   20.5590 C   0  0  0  0  0  0  0  0  0  0  0  0
  -24.1400  -13.1060   20.9250 C   0  0  0  0  0  0  0  0  0  0  0  0
  -24.6030  -11.7550   20.8820 C   0  0  0  0  0  0  0  0  0  0  0  0
  -26.2490  -13.0060   20.3100 N   0  0  0  0  0  0  0  0  0  0  0  0
  -25.8910  -11.7200   20.5670 N   0  0  0  0  0  0  0  0  0  0  0  0
  -23.8770  -10.4900   21.0670 C   0  0  0  0  0  0  0  0  0  0  0  0
  -24.3150   -9.5160   21.9920 C   0  0  0  0  0  3  0  0  0  0  0  0
  -23.5900   -8.3180   22.1670 C   0  0  0  0  0  3  0  0  0  0  0  0
  -22.4140   -8.0840   21.4150 C   0  0  0  0  0  0  0  0  0  0  0  0
  -21.9960   -9.0460   20.4790 C   0  0  0  0  0  3  0  0  0  0  0  0
  -22.7210  -10.2360   20.3030 C   0  0  0  0  0  3  0  0  0  0  0  0
  -21.6600   -6.9380   21.4990 O   0  0  0  0  0  0  0  0  0  0  0  0
  -21.6180   -6.1870   22.6470 C   0  0  0  0  0  0  0  0  0  0  0  0
  -21.1860   -6.7310   23.8770 C   0  0  0  0  0  3  0  0  0  0  0  0
  -21.0910   -5.9050   25.0150 C   0  0  0  0  0  3  0  0  0  0  0  0
  -21.4170   -4.5390   24.9250 C   0  0  0  0  0  0  0  0  0  0  0  0
  -21.8400   -3.9950   23.6990 C   0  0  0  0  0  3  0  0  0  0  0  0
  -21.9370   -4.8170   22.5630 C   0  0  0  0  0  0  0  0  0  0  0  0
  -22.3260   -4.2840   21.3790 F   0  0  0  0  0  0  0  0  0  0  0  0
  -21.3180   -3.7440   26.0160 F   0  0  0  0  0  0  0  0  0  0  0  0
  -22.7440  -13.5790   21.2100 C   0  0  0  0  0  0  0  0  0  0  0  0
  -22.0240  -12.8770   22.0770 N   0  0  0  0  0  0  0  0  0  0  0  0
  -22.3010  -14.6070   20.6970 O   0  0  0  0  0  0  0  0  0  0  0  0
  -22.3950  -12.0420   22.5060 H   0  0  0  0  0  0  0  0  0  0  0  0
  -21.0870  -13.1750   22.3120 H   0  0  0  0  0  0  0  0  0  0  0  0
  -25.3730  -15.2560   20.3980 N   0  0  0  0  0  0  0  0  0  0  0  0
  -24.6180  -15.9160   20.5450 H   0  0  0  0  0  0  0  0  0  0  0  0
  -26.2350  -15.7010   20.1110 H   0  0  0  0  0  0  0  0  0  0  0  0
  -27.9300  -25.0520   19.9480 C   0  0  0  0  0  2  0  0  0  0  0  0
  -28.2730  -26.4610   20.2620 O   0  0  0  0  0  0  0  0  0  0  0  0
  -24.6210  -31.9200   23.2650 C   0  0  0  0  0  0  0  0  0  0  0  0
  -27.1860  -27.3570   20.1850 C   0  0  0  0  0  0  0  0  0  0  0  0
  -23.4020  -30.5370   21.6260 C   0  0  0  0  0  3  0  0  0  0  0  0
  -24.8340  -28.9980   20.1850 C   0  0  0  0  0  0  0  0  0  0  0  0
  -25.9420  -30.8440   21.4300 C   0  0  0  0  0  2  0  0  0  0  0  0
  -26.0120  -29.4670   20.7830 C   0  0  0  0  0  0  0  0  0  0  0  0
  -27.1900  -28.6570   20.7790 C   0  0  0  0  0  3  0  0  0  0  0  0
  -25.9800  -26.9630   19.5460 C   0  0  0  0  0  3  0  0  0  0  0  0
  -24.8210  -27.7510   19.5580 C   0  0  0  0  0  3  0  0  0  0  0  0
  -23.6040  -29.8760   20.2400 C   0  0  0  0  0  2  0  0  0  0  0  0
  -24.6760  -31.1170   22.1640 N   0  0  0  0  0  0  0  0  0  0  0  0
  -23.5400  -32.1980   23.8050 O   0  0  0  0  0  0  0  0  0  0  0  0
  -22.7390  -29.5170   22.5820 C   0  0  0  0  0  0  0  0  0  0  0  0
  -21.4120  -29.3450   22.4570 N   0  0  0  0  0  0  0  0  0  0  0  0
  -23.4170  -28.8860   23.3970 O   0  0  0  0  0  0  0  0  0  0  0  0
  -20.9260  -29.9050   21.7720 H   0  0  0  0  0  0  0  0  0  0  0  0
  -18.0270  -28.1640   22.9530 C   0  0  0  0  0  0  0  0  0  0  0  0
  -20.5870  -28.4100   23.2250 C   0  0  0  0  0  3  0  0  0  0  0  0
  -20.6820  -26.9780   22.6480 C   0  0  0  0  0  2  0  0  0  0  0  0
  -19.5790  -26.6620   21.6330 C   0  0  0  0  0  2  0  0  0  0  0  0
  -18.1960  -26.8150   22.2740 C   0  0  0  0  0  2  0  0  0  0  0  0
  -19.1500  -28.9190   23.3850 C   0  0  0  0  0  0  0  0  0  0  0  0
  -18.9370  -30.1830   23.9770 C   0  0  0  0  0  3  0  0  0  0  0  0
  -17.6350  -30.6900   24.1450 C   0  0  0  0  0  3  0  0  0  0  0  0
  -16.5270  -29.9320   23.7300 C   0  0  0  0  0  3  0  0  0  0  0  0
  -16.7230  -28.6700   23.1380 C   0  0  0  0  0  3  0  0  0  0  0  0
  -25.9100  -32.5410   23.8840 C   0  0  0  0  0  3  0  0  0  0  0  0
  -26.4270  -31.7590   25.1520 C   0  0  1  0  0  0  0  0  0  0  0  0
  -25.3360  -31.5150   26.2220 C   0  0  0  0  0  1  0  0  0  0  0  0
  -27.0070  -30.3850   24.7440 C   0  0  0  0  0  1  0  0  0  0  0  0
  -27.5830  -32.5430   25.8160 C   0  0  0  0  0  1  0  0  0  0  0  0
  -25.6070  -33.9380   24.2240 N   0  0  0  0  0  0  0  0  0  0  0  0
  -25.9120  -34.9930   23.4570 C   0  0  0  0  0  0  0  0  0  0  0  0
  -26.5490  -34.8940   22.4050 O   0  0  0  0  0  0  0  0  0  0  0  0
  -25.0460  -34.0880   25.0510 H   0  0  0  0  0  0  0  0  0  0  0  0
  -24.1550  -36.7690   23.1760 C   0  0  0  0  0  1  0  0  0  0  0  0
  -25.4340  -36.3780   23.9320 C   0  0  0  0  0  3  0  0  0  0  0  0
  -27.5970  -37.2820   24.6650 C   0  0  0  0  0  1  0  0  0  0  0  0
  -26.4510  -37.4410   23.7710 N   0  0  0  0  0  0  0  0  0  0  0  0
  -26.0450  -38.3570   23.9370 H   0  0  0  0  0  0  0  0  0  0  0  0
  2  1  1  0
  2  6  1  0
  3  9  1  0
  3  1  2  0
  4  2  2  0
  5  3  1  0
  7  5  1  0
  8  5  2  0
  8  4  1  0
 10  9  1  0
 11 20  1  0
 11 10  1  0
 12 20  1  0
 13 18  1  0
 14 15  1  0
 14 13  1  0
 16 15  1  0
 16 25  1  0
 16 17  1  0
 18 12  1  0
 18 17  1  0
 19 12  2  0
 20 21  1  0
 22 23  2  0
 23 42  1  0
 24 23  1  0
 24 27  1  0
 25 22  1  0
 25 26  1  0
 26 24  2  0
 27 28  1  0
 28 29  2  0
 30 33  1  0
 30 29  1  0
 31 30  2  0
 32 31  1  0
 32 27  2  0
 33 34  1  0
 34 35  1  0
 35 36  2  0
 37 36  1  0
 37 41  1  0
 38 37  2  0
 39 34  2  0
 39 38  1  0
 40 39  1  0
 42 43  1  0
 43 46  1  0
 43 45  1  0
 44 42  2  0
 47 48  1  0
 47 22  1  0
 49 47  1  0
 50  4  1  0
 50 51  1  0
 52 63  2  0
 53 51  1  0
 53 58  1  0
 54 62  1  0
 54 64  1  0
 55 61  1  0
 55 57  1  0
 56 62  1  0
 57 56  1  0
 58 57  2  0
 59 60  1  0
 59 53  2  0
 60 55  2  0
 61 54  1  0
 62 52  1  0
 64 66  2  0
 65 64  1  0
 67 65  1  0
 68 77  2  0
 68 73  1  0
 69 65  1  0
 69 73  1  0
 70 69  1  0
 71 72  1  0
 71 70  1  0
 72 68  1  0
 73 74  2  0
 74 75  1  0
 76 75  2  0
 77 76  1  0
 78 52  1  0
 78 83  1  0
 78 79  1  0
 79 82  1  1
 79 80  1  0
 81 79  1  0
 83 86  1  0
 84 88  1  0
 84 83  1  0
 85 84  2  0
 88 87  1  0
 90 88  1  0
 90 91  1  0
 90 89  1  0
M  ISO  4  12 100  20 100  50 101  51 101
M  END
>  <TORSDO>  (74) 
F 20

>  <SCORE>  (74) 
-13.957

>  <name>  (74) 
74

>  <ligand_id>  (74) 
74

>  <original_smiles>  (74) 
[H]c1c([H])c([H])c2c(c1[H])C([H])([H])C([H])([H])C([H])([H])C2([H])N([H])C(=O)C1([H])N(C(=O)C([H])(N([H])C(=O)C([H])(N([H])C([H])([H])[H])C([H])([H])[H])C(C([H])([H])[H])(C([H])([H])[H])C([H])([H])[H])C([H])([H])c2c([H])c(OC([H])([H])c3nc(C([H])([H])[H])c(C([H])([H])C([H])([H])C([H])([H])N([H])C(=O)N4C([H])([H])C([H])([H])C([H])([H])C([H])(n5nc(-c6c([H])c([H])c(Oc7c([H])c([H])c(F)c([H])c7F)c([H])c6[H])c(C(=O)N([H])[H])c5N([H])[H])C4([H])[H])c([H])c3C([H])([H])[H])c([H])c([H])c2C1([H])[H]

>  <smiles>  (74) 
[H]c1c([H])c([H])c2c(c1[H])C([H])([H])C([H])([H])C([H])([H])C2([H])N([H])C(=O)C1([H])N(C(=O)C([H])(N([H])C(=O)C([H])(N([H])C([H])([H])[H])C([H])([H])[H])C(C([H])([H])[H])(C([H])([H])[H])C([H])([H])[H])C([H])([H])c2c([H])c(OC([H])([H])c3nc(C([H])([H])[H])c(C([H])([H])C([H])([H])C([H])([H])N([H])C(=O)N4C([H])([H])C([H])([H])C([H])([H])C([H])(n5nc(-c6c([H])c([H])c(Oc7c([H])c([H])c(F)c([H])c7F)c([H])c6[H])c(C(=O)N([H])[H])c5N([H])[H])C4([H])[H])c([H])c3C([H])([H])[H])c([H])c([H])c2C1([H])[H]

$$$$
75:0:0
     RDKit          3D

 96104  0  0  1  0  0  0  0  0999 V2000
  -30.1160  -24.0560   22.9830 C   0  0  0  0  0  3  0  0  0  0  0  0
  -30.1330  -23.8870   21.5690 C   0  0  0  0  0  0  0  0  0  0  0  0
  -30.7040  -22.6460   21.3890 C   0  0  0  0  0  0  0  0  0  0  0  0
  -31.7020  -20.9620   23.0750 C   0  0  0  0  0  1  0  0  0  0  0  0
  -30.6460  -23.0360   23.6290 N   0  0  0  0  0  0  0  0  0  0  0  0
  -31.0280  -22.1790   22.6600 N   0  0  0  0  0  0  0  0  0  0  0  0
  -29.6740  -24.8960   20.5310 C   0  0  0  0  0  2  0  0  0  0  0  0
  -28.7150  -25.9740   21.0740 C   0  0  0  0  0  2  0  0  0  0  0  0
  -28.4890  -26.9210   20.0400 O   0  0  0  0  0  0  0  0  0  0  0  0
  -24.6210  -31.9050   23.3610 C   0  0  0  0  0  0  0  0  0  0  0  0
  -27.3170  -27.6220   20.1400 C   0  0  0  0  0  0  0  0  0  0  0  0
  -23.4390  -30.5630   21.6520 C   0  0  0  0  0  3  0  0  0  0  0  0
  -24.9160  -29.0940   20.1790 C   0  0  0  0  0  0  0  0  0  0  0  0
  -25.9590  -30.9470   21.4940 C   0  0  0  0  0  2  0  0  0  0  0  0
  -26.0580  -29.6020   20.8120 C   0  0  0  0  0  0  0  0  0  0  0  0
  -27.2650  -28.8680   20.7980 C   0  0  0  0  0  3  0  0  0  0  0  0
  -26.1620  -27.1140   19.5150 C   0  0  0  0  0  3  0  0  0  0  0  0
  -24.9600  -27.8500   19.5240 C   0  0  0  0  0  3  0  0  0  0  0  0
  -23.6650  -29.9430   20.2450 C   0  0  0  0  0  2  0  0  0  0  0  0
  -24.6900  -31.1510   22.2280 N   0  0  0  0  0  0  0  0  0  0  0  0
  -23.5340  -32.1520   23.9010 O   0  0  0  0  0  0  0  0  0  0  0  0
  -22.7820  -29.5010   22.5630 C   0  0  0  0  0  0  0  0  0  0  0  0
  -21.4590  -29.3330   22.4300 N   0  0  0  0  0  0  0  0  0  0  0  0
  -23.4630  -28.8330   23.3460 O   0  0  0  0  0  0  0  0  0  0  0  0
  -20.9710  -29.9350   21.7820 H   0  0  0  0  0  0  0  0  0  0  0  0
  -18.0740  -28.1410   22.8690 C   0  0  0  0  0  0  0  0  0  0  0  0
  -20.6340  -28.3630   23.1520 C   0  0  0  0  0  3  0  0  0  0  0  0
  -20.7250  -26.9620   22.5070 C   0  0  0  0  0  2  0  0  0  0  0  0
  -19.6210  -26.6970   21.4800 C   0  0  0  0  0  2  0  0  0  0  0  0
  -18.2400  -26.8230   22.1310 C   0  0  0  0  0  2  0  0  0  0  0  0
  -19.1980  -28.8700   23.3360 C   0  0  0  0  0  0  0  0  0  0  0  0
  -18.9920  -30.1040   23.9910 C   0  0  0  0  0  3  0  0  0  0  0  0
  -17.6920  -30.6090   24.1780 C   0  0  0  0  0  3  0  0  0  0  0  0
  -16.5810  -29.8780   23.7240 C   0  0  0  0  0  3  0  0  0  0  0  0
  -16.7730  -28.6440   23.0770 C   0  0  0  0  0  3  0  0  0  0  0  0
  -25.9000  -32.5130   24.0190 C   0  0  0  0  0  3  0  0  0  0  0  0
  -25.5910  -33.9020   24.3850 N   0  0  0  0  0  0  0  0  0  0  0  0
  -25.9450  -34.9730   23.6630 C   0  0  0  0  0  0  0  0  0  0  0  0
  -26.6360  -34.8950   22.6430 O   0  0  0  0  0  0  0  0  0  0  0  0
  -24.9800  -34.0360   25.1780 H   0  0  0  0  0  0  0  0  0  0  0  0
  -24.2380  -36.7860   23.3130 C   0  0  0  0  0  1  0  0  0  0  0  0
  -25.4520  -36.3490   24.1490 C   0  0  0  0  0  3  0  0  0  0  0  0
  -27.5640  -37.1860   25.0740 C   0  0  0  0  0  1  0  0  0  0  0  0
  -26.4940  -37.3960   24.1040 N   0  0  0  0  0  0  0  0  0  0  0  0
  -26.0910  -38.3140   24.2730 H   0  0  0  0  0  0  0  0  0  0  0  0
  -26.3970  -31.7000   25.2770 C   0  0  1  0  0  0  0  0  0  0  0  0
  -25.2880  -31.4310   26.3200 C   0  0  0  0  0  1  0  0  0  0  0  0
  -26.9900  -30.3380   24.8460 C   0  0  0  0  0  1  0  0  0  0  0  0
  -27.5320  -32.4750   25.9850 C   0  0  0  0  0  1  0  0  0  0  0  0
  -31.0300  -21.8980   20.1120 C   0  0  0  0  0  2  0  0  0  0  0  0
  -30.2960  -20.6140   19.9240 N   0  0  0  0  0  4  0  0  0  0  0  0
  -29.9790  -20.5780   18.9700 H   0  0  0  0  0  0  0  0  0  0  0  0
  -29.4780  -20.6500   20.5060 H   0  0  0  0  0  0  0  0  0  0  0  0
  -31.1080  -19.4060   20.2150 C   0  0  0  0  0  2  0  0  0  0  0  0
  -29.0920  -17.7890   20.1100 C   0  0  0  0  0  1  0  0  0  0  0  0
  -30.7840  -17.8660   18.2190 C   0  0  0  0  0  1  0  0  0  0  0  0
  -30.5760  -18.0150   19.7420 C   0  0  1  0  0  0  0  0  0  0  0  0
  -31.4890  -16.9770   20.4780 C   0  0  0  0  0  2  0  0  0  0  0  0
  -31.3630  -14.5470   20.0070 C   0  0  0  0  0  0  0  0  0  0  0  0
  -30.9390  -12.3410   18.9800 C   0  0  0  0  0  2  0  0  0  0  0  0
  -29.9700  -12.4640   17.7840 C   0  0  0  0  0  2  0  0  0  0  0  0
  -28.4930  -12.4480   18.2370 C   0  0  0  0  0  2  0  0  0  0  0  0
  -28.2180  -13.3610   19.4590 C   0  0  0  0  0  3  0  0  0  0  0  0
  -29.2840  -13.1140   20.5380 C   0  0  0  0  0  2  0  0  0  0  0  0
  -30.6100  -13.4030   19.9540 N   0  0  0  0  0  0  0  0  0  0  0  0
  -32.3810  -14.6570   19.3170 O   0  0  0  0  0  0  0  0  0  0  0  0
  -30.4570  -15.4820   22.1240 C   0  0  0  0  0  1  0  0  0  0  0  0
  -30.9270  -15.6200   20.7350 N   0  0  0  0  0  0  0  0  0  0  0  0
  -25.8810  -14.1220   20.2360 C   0  0  0  0  0  0  0  0  0  0  0  0
  -24.7800  -13.4250   20.6500 C   0  0  0  0  0  0  0  0  0  0  0  0
  -25.1500  -12.0440   20.6130 C   0  0  0  0  0  0  0  0  0  0  0  0
  -26.8610  -13.1750   19.9790 N   0  0  0  0  0  0  0  0  0  0  0  0
  -26.4230  -11.9180   20.2570 N   0  0  0  0  0  0  0  0  0  0  0  0
  -24.3530  -10.8310   20.8390 C   0  0  0  0  0  0  0  0  0  0  0  0
  -24.7200   -9.8750   21.8120 C   0  0  0  0  0  3  0  0  0  0  0  0
  -23.9330   -8.7230   22.0180 C   0  0  0  0  0  3  0  0  0  0  0  0
  -22.7600   -8.5190   21.2500 C   0  0  0  0  0  0  0  0  0  0  0  0
  -22.4110   -9.4630   20.2690 C   0  0  0  0  0  3  0  0  0  0  0  0
  -23.2010  -10.6070   20.0610 C   0  0  0  0  0  3  0  0  0  0  0  0
  -21.9410   -7.4220   21.3660 O   0  0  0  0  0  0  0  0  0  0  0  0
  -21.7820   -6.7610   22.5590 C   0  0  0  0  0  0  0  0  0  0  0  0
  -21.3190   -7.4210   23.7190 C   0  0  0  0  0  3  0  0  0  0  0  0
  -21.1070   -6.6900   24.9060 C   0  0  0  0  0  3  0  0  0  0  0  0
  -21.3450   -5.3030   24.9330 C   0  0  0  0  0  0  0  0  0  0  0  0
  -21.7990   -4.6440   23.7770 C   0  0  0  0  0  3  0  0  0  0  0  0
  -22.0150   -5.3720   22.5930 C   0  0  0  0  0  0  0  0  0  0  0  0
  -22.4310   -4.7270   21.4760 F   0  0  0  0  0  0  0  0  0  0  0  0
  -21.1360   -4.6000   26.0720 F   0  0  0  0  0  0  0  0  0  0  0  0
  -23.4230  -13.9960   20.9560 C   0  0  0  0  0  0  0  0  0  0  0  0
  -22.6740  -13.3710   21.8580 N   0  0  0  0  0  0  0  0  0  0  0  0
  -23.0320  -15.0350   20.4250 O   0  0  0  0  0  0  0  0  0  0  0  0
  -22.9920  -12.5390   22.3290 H   0  0  0  0  0  0  0  0  0  0  0  0
  -21.7640  -13.7480   22.0840 H   0  0  0  0  0  0  0  0  0  0  0  0
  -26.1400  -15.4780   20.0360 N   0  0  0  0  0  0  0  0  0  0  0  0
  -25.4630  -16.2140   20.1960 H   0  0  0  0  0  0  0  0  0  0  0  0
  -27.0040  -15.8220   19.6340 H   0  0  0  0  0  0  0  0  0  0  0  0
  1  5  2  0
  2  1  1  0
  3  2  2  0
  3  6  1  0
  6  4  1  0
  6  5  1  0
  7  8  1  0
  7  2  1  0
  9 11  1  0
  9  8  1  0
 10 21  2  0
 11 16  1  0
 12 20  1  0
 12 22  1  0
 13 19  1  0
 13 15  1  0
 14 20  1  0
 15 14  1  0
 16 15  2  0
 17 18  1  0
 17 11  2  0
 18 13  2  0
 19 12  1  0
 20 10  1  0
 22 24  2  0
 23 22  1  0
 25 23  1  0
 26 35  2  0
 26 31  1  0
 27 23  1  0
 27 31  1  0
 28 27  1  0
 29 30  1  0
 29 28  1  0
 30 26  1  0
 31 32  2  0
 32 33  1  0
 34 33  2  0
 35 34  1  0
 36 10  1  0
 36 37  1  0
 36 46  1  0
 37 40  1  0
 38 42  1  0
 38 37  1  0
 39 38  2  0
 42 41  1  0
 44 42  1  0
 44 45  1  0
 44 43  1  0
 46 49  1  1
 46 47  1  0
 48 46  1  0
 50  3  1  0
 51 50  1  0
 51 54  1  0
 51 53  1  0
 52 51  1  0
 57 56  1  6
 57 55  1  0
 57 54  1  0
 57 58  1  0
 58 68  1  0
 59 68  1  0
 60 65  1  0
 61 62  1  0
 61 60  1  0
 63 62  1  0
 63 72  1  0
 63 64  1  0
 65 59  1  0
 65 64  1  0
 66 59  2  0
 68 67  1  0
 69 70  2  0
 70 89  1  0
 71 70  1  0
 71 74  1  0
 72 69  1  0
 72 73  1  0
 73 71  2  0
 74 75  1  0
 75 76  2  0
 77 80  1  0
 77 76  1  0
 78 77  2  0
 79 78  1  0
 79 74  2  0
 80 81  1  0
 81 86  2  0
 81 82  1  0
 82 83  2  0
 83 84  1  0
 84 88  1  0
 85 84  2  0
 86 85  1  0
 87 86  1  0
 89 90  1  0
 90 93  1  0
 90 92  1  0
 91 89  2  0
 94 95  1  0
 94 69  1  0
 96 94  1  0
M  ISO  4   8 101   9 101  59 100  68 100
M  END
>  <TORSDO>  (75) 
F 23

>  <SCORE>  (75) 
-11.662

>  <name>  (75) 
75

>  <ligand_id>  (75) 
75

>  <original_smiles>  (75) 
[H]c1nn(C([H])([H])[H])c(C([H])([H])[N+]([H])([H])C([H])([H])C(C([H])([H])[H])(C([H])([H])[H])C([H])([H])N(C(=O)N2C([H])([H])C([H])([H])C([H])([H])C([H])(n3nc(-c4c([H])c([H])c(Oc5c([H])c([H])c(F)c([H])c5F)c([H])c4[H])c(C(=O)N([H])[H])c3N([H])[H])C2([H])[H])C([H])([H])[H])c1C([H])([H])C([H])([H])Oc1c([H])c([H])c2c(c1[H])C([H])([H])N(C(=O)C([H])(N([H])C(=O)C([H])(N([H])C([H])([H])[H])C([H])([H])[H])C(C([H])([H])[H])(C([H])([H])[H])C([H])([H])[H])C([H])(C(=O)N([H])C1([H])c3c([H])c([H])c([H])c([H])c3C([H])([H])C([H])([H])C1([H])[H])C2([H])[H]

>  <smiles>  (75) 
[H]c1nn(C([H])([H])[H])c(C([H])([H])[N+]([H])([H])C([H])([H])C(C([H])([H])[H])(C([H])([H])[H])C([H])([H])N(C(=O)N2C([H])([H])C([H])([H])C([H])([H])C([H])(n3nc(-c4c([H])c([H])c(Oc5c([H])c([H])c(F)c([H])c5F)c([H])c4[H])c(C(=O)N([H])[H])c3N([H])[H])C2([H])[H])C([H])([H])[H])c1C([H])([H])C([H])([H])Oc1c([H])c([H])c2c(c1[H])C([H])([H])N(C(=O)C([H])(N([H])C(=O)C([H])(N([H])C([H])([H])[H])C([H])([H])[H])C(C([H])([H])[H])(C([H])([H])[H])C([H])([H])[H])C([H])(C(=O)N([H])C1([H])c3c([H])c([H])c([H])c([H])c3C([H])([H])C([H])([H])C1([H])[H])C2([H])[H]

$$$$
76:0:0
     RDKit          3D

 86 94  0  0  1  0  0  0  0  0999 V2000
  -28.7280  -18.0390   20.7740 C   0  0  0  0  0  3  0  0  0  0  0  0
  -29.7990  -17.2750   20.0740 C   0  0  0  0  0  0  0  0  0  0  0  0
  -30.1880  -19.7550   19.3860 C   0  0  0  0  0  0  0  0  0  0  0  0
  -29.1130  -20.5260   20.0610 C   0  0  0  0  0  0  0  0  0  0  0  0
  -31.2220  -20.5360   18.5970 C   0  0  0  0  0  1  0  0  0  0  0  0
  -28.4360  -19.4830   20.7710 N   0  0  0  0  0  0  0  0  0  0  0  0
  -30.4740  -18.3280   19.3980 N   0  0  0  0  0  0  0  0  0  0  0  0
  -30.3660  -15.6040   20.0970 C   0  0  0  0  0  0  0  0  0  0  0  0
  -30.3600  -13.0590   19.3630 C   0  0  0  0  0  2  0  0  0  0  0  0
  -29.4570  -12.7140   18.1480 C   0  0  0  0  0  2  0  0  0  0  0  0
  -28.0270  -12.3940   18.6100 C   0  0  0  0  0  2  0  0  0  0  0  0
  -27.5460  -13.4020   19.6810 C   0  0  0  0  0  3  0  0  0  0  0  0
  -28.5900  -13.7110   20.7760 C   0  0  0  0  0  2  0  0  0  0  0  0
  -29.7880  -14.2670   20.1110 N   0  0  0  0  0  0  0  0  0  0  0  0
  -31.5860  -15.4600   19.8800 O   0  0  0  0  0  0  0  0  0  0  0  0
  -25.2110  -13.9390   20.5220 C   0  0  0  0  0  0  0  0  0  0  0  0
  -24.1550  -13.1620   20.9030 C   0  0  0  0  0  0  0  0  0  0  0  0
  -24.6130  -11.8090   20.8360 C   0  0  0  0  0  0  0  0  0  0  0  0
  -26.2390  -13.0660   20.2300 N   0  0  0  0  0  0  0  0  0  0  0  0
  -25.8970  -11.7740   20.4890 N   0  0  0  0  0  0  0  0  0  0  0  0
  -23.8800  -10.5480   21.0240 C   0  0  0  0  0  0  0  0  0  0  0  0
  -24.3120   -9.5710   21.9480 C   0  0  0  0  0  3  0  0  0  0  0  0
  -23.5780   -8.3800   22.1270 C   0  0  0  0  0  3  0  0  0  0  0  0
  -22.3950   -8.1550   21.3840 C   0  0  0  0  0  0  0  0  0  0  0  0
  -21.9810   -9.1200   20.4480 C   0  0  0  0  0  3  0  0  0  0  0  0
  -22.7160  -10.3040   20.2670 C   0  0  0  0  0  3  0  0  0  0  0  0
  -21.6320   -7.0170   21.4720 O   0  0  0  0  0  0  0  0  0  0  0  0
  -21.5680   -6.2790   22.6280 C   0  0  0  0  0  0  0  0  0  0  0  0
  -21.1030   -6.8320   23.8400 C   0  0  0  0  0  3  0  0  0  0  0  0
  -20.9890   -6.0210   24.9870 C   0  0  0  0  0  3  0  0  0  0  0  0
  -21.3310   -4.6560   24.9210 C   0  0  0  0  0  0  0  0  0  0  0  0
  -21.7870   -4.1030   23.7130 C   0  0  0  0  0  3  0  0  0  0  0  0
  -21.9030   -4.9100   22.5680 C   0  0  0  0  0  0  0  0  0  0  0  0
  -22.3240   -4.3680   21.4010 F   0  0  0  0  0  0  0  0  0  0  0  0
  -21.2140   -3.8740   26.0200 F   0  0  0  0  0  0  0  0  0  0  0  0
  -22.7670  -13.6430   21.2080 C   0  0  0  0  0  0  0  0  0  0  0  0
  -22.0530  -12.9470   22.0850 N   0  0  0  0  0  0  0  0  0  0  0  0
  -22.3250  -14.6740   20.7020 O   0  0  0  0  0  0  0  0  0  0  0  0
  -22.4230  -12.1150   22.5210 H   0  0  0  0  0  0  0  0  0  0  0  0
  -21.1210  -13.2530   22.3260 H   0  0  0  0  0  0  0  0  0  0  0  0
  -25.3790  -15.3120   20.3650 N   0  0  0  0  0  0  0  0  0  0  0  0
  -24.6240  -15.9710   20.5240 H   0  0  0  0  0  0  0  0  0  0  0  0
  -26.2160  -15.7510   20.0060 H   0  0  0  0  0  0  0  0  0  0  0  0
  -29.0080  -22.3590   20.2980 C   0  0  0  0  0  3  0  0  0  0  0  0
  -28.0410  -23.9490   19.8860 C   0  0  0  0  0  3  0  0  0  0  0  0
  -28.1680  -25.6630   20.1480 O   0  0  0  0  0  0  0  0  0  0  0  0
  -24.6320  -31.8280   23.1220 C   0  0  0  0  0  0  0  0  0  0  0  0
  -27.1780  -26.8370   20.0810 C   0  0  0  0  0  0  0  0  0  0  0  0
  -23.4440  -30.4370   21.4790 C   0  0  0  0  0  3  0  0  0  0  0  0
  -24.8930  -28.8190   20.0440 C   0  0  0  0  0  0  0  0  0  0  0  0
  -26.0170  -30.6090   21.3440 C   0  0  0  0  0  2  0  0  0  0  0  0
  -26.0860  -29.1890   20.6780 C   0  0  0  0  0  0  0  0  0  0  0  0
  -27.2140  -28.2240   20.6650 C   0  0  0  0  0  3  0  0  0  0  0  0
  -25.9520  -26.6600   19.3940 C   0  0  0  0  0  3  0  0  0  0  0  0
  -24.8620  -27.5800   19.3790 C   0  0  0  0  0  3  0  0  0  0  0  0
  -23.6790  -29.7560   20.1000 C   0  0  0  0  0  2  0  0  0  0  0  0
  -24.7210  -30.9900   22.0350 N   0  0  0  0  0  0  0  0  0  0  0  0
  -23.5400  -32.1170   23.6410 O   0  0  0  0  0  0  0  0  0  0  0  0
  -22.7400  -29.4450   22.4430 C   0  0  0  0  0  0  0  0  0  0  0  0
  -21.4060  -29.2990   22.3330 N   0  0  0  0  0  0  0  0  0  0  0  0
  -23.4050  -28.8060   23.2620 O   0  0  0  0  0  0  0  0  0  0  0  0
  -20.9210  -29.8630   21.6500 H   0  0  0  0  0  0  0  0  0  0  0  0
  -18.0130  -28.1260   22.8890 C   0  0  0  0  0  0  0  0  0  0  0  0
  -20.5820  -28.3570   23.1020 C   0  0  0  0  0  3  0  0  0  0  0  0
  -20.6530  -26.9360   22.4930 C   0  0  0  0  0  2  0  0  0  0  0  0
  -19.5240  -26.6510   21.4960 C   0  0  0  0  0  2  0  0  0  0  0  0
  -18.1590  -26.7940   22.1740 C   0  0  0  0  0  2  0  0  0  0  0  0
  -19.1510  -28.8670   23.3110 C   0  0  0  0  0  0  0  0  0  0  0  0
  -18.9560  -30.1130   23.9460 C   0  0  0  0  0  3  0  0  0  0  0  0
  -17.6590  -30.6180   24.1620 C   0  0  0  0  0  3  0  0  0  0  0  0
  -16.5380  -29.8730   23.7530 C   0  0  0  0  0  3  0  0  0  0  0  0
  -16.7160  -28.6300   23.1230 C   0  0  0  0  0  3  0  0  0  0  0  0
  -25.8970  -32.4760   23.7650 C   0  0  0  0  0  3  0  0  0  0  0  0
  -25.5730  -33.8760   24.1000 N   0  0  0  0  0  0  0  0  0  0  0  0
  -25.8980  -34.9430   23.3580 C   0  0  0  0  0  0  0  0  0  0  0  0
  -26.5610  -34.8530   22.3210 O   0  0  0  0  0  0  0  0  0  0  0  0
  -24.9820  -34.0190   24.9060 H   0  0  0  0  0  0  0  0  0  0  0  0
  -24.1650  -36.7470   23.0460 C   0  0  0  0  0  1  0  0  0  0  0  0
  -25.4170  -36.3290   23.8370 C   0  0  0  0  0  3  0  0  0  0  0  0
  -27.5560  -37.2210   24.6570 C   0  0  0  0  0  1  0  0  0  0  0  0
  -26.4470  -37.3860   23.7210 N   0  0  0  0  0  0  0  0  0  0  0  0
  -26.0390  -38.3060   23.8710 H   0  0  0  0  0  0  0  0  0  0  0  0
  -26.3900  -31.7140   25.0570 C   0  0  1  0  0  0  0  0  0  0  0  0
  -25.2820  -31.4930   26.1140 C   0  0  0  0  0  1  0  0  0  0  0  0
  -26.9740  -30.3290   24.6960 C   0  0  0  0  0  1  0  0  0  0  0  0
  -27.5340  -32.5110   25.7280 C   0  0  0  0  0  1  0  0  0  0  0  0
  2  8  1  0
  2  1  2  0
  3  7  2  0
  3  4  1  0
  4 44  1  0
  4  6  2  0
  5  3  1  0
  6  1  1  0
  7  2  1  0
  8 14  1  0
  9 14  1  0
 10 11  1  0
 10  9  1  0
 12 11  1  0
 12 19  1  0
 12 13  1  0
 14 13  1  0
 15  8  2  0
 16 17  2  0
 17 36  1  0
 18 17  1  0
 18 21  1  0
 19 20  1  0
 19 16  1  0
 20 18  2  0
 21 22  1  0
 22 23  2  0
 24 27  1  0
 24 23  1  0
 25 24  2  0
 26 25  1  0
 26 21  2  0
 27 28  1  0
 28 29  1  0
 29 30  2  0
 31 30  1  0
 31 35  1  0
 32 31  2  0
 33 28  2  0
 33 32  1  0
 34 33  1  0
 36 37  1  0
 37 40  1  0
 37 39  1  0
 38 36  2  0
 41 16  1  0
 41 42  1  0
 43 41  1  0
 45 46  1  0
 45 44  2  0
 47 58  2  0
 48 46  1  0
 48 53  1  0
 49 57  1  0
 49 59  1  0
 50 56  1  0
 50 52  1  0
 51 57  1  0
 52 51  1  0
 53 52  2  0
 54 48  2  0
 55 54  1  0
 55 50  2  0
 56 49  1  0
 57 47  1  0
 59 61  2  0
 60 59  1  0
 62 60  1  0
 63 72  2  0
 63 68  1  0
 64 60  1  0
 64 68  1  0
 65 64  1  0
 66 67  1  0
 66 65  1  0
 67 63  1  0
 68 69  2  0
 69 70  1  0
 71 70  2  0
 72 71  1  0
 73 47  1  0
 73 74  1  0
 73 83  1  0
 74 77  1  0
 75 79  1  0
 75 74  1  0
 76 75  2  0
 79 78  1  0
 81 79  1  0
 81 82  1  0
 81 80  1  0
 83 86  1  1
 83 84  1  0
 85 83  1  0
M  ISO  4   2 100   8 100  45 101  46 101
M  END
>  <TORSDO>  (76) 
F 18

>  <SCORE>  (76) 
-16.361

>  <name>  (76) 
76

>  <ligand_id>  (76) 
76

>  <original_smiles>  (76) 
[H]c1nc(C([H])([H])C([H])([H])Oc2c([H])c([H])c3c(c2[H])C([H])([H])N(C(=O)C([H])(N([H])C(=O)C([H])(N([H])C([H])([H])[H])C([H])([H])[H])C(C([H])([H])[H])(C([H])([H])[H])C([H])([H])[H])C([H])(C(=O)N([H])C2([H])c4c([H])c([H])c([H])c([H])c4C([H])([H])C([H])([H])C2([H])[H])C3([H])[H])c(C([H])([H])[H])nc1C(=O)N1C([H])([H])C([H])([H])C([H])([H])C([H])(n2nc(-c3c([H])c([H])c(Oc4c([H])c([H])c(F)c([H])c4F)c([H])c3[H])c(C(=O)N([H])[H])c2N([H])[H])C1([H])[H]

>  <smiles>  (76) 
[H]c1nc(C([H])([H])C([H])([H])Oc2c([H])c([H])c3c(c2[H])C([H])([H])N(C(=O)C([H])(N([H])C(=O)C([H])(N([H])C([H])([H])[H])C([H])([H])[H])C(C([H])([H])[H])(C([H])([H])[H])C([H])([H])[H])C([H])(C(=O)N([H])C2([H])c4c([H])c([H])c([H])c([H])c4C([H])([H])C([H])([H])C2([H])[H])C3([H])[H])c(C([H])([H])[H])nc1C(=O)N1C([H])([H])C([H])([H])C([H])([H])C([H])(n2nc(-c3c([H])c([H])c(Oc4c([H])c([H])c(F)c([H])c4F)c([H])c3[H])c(C(=O)N([H])[H])c2N([H])[H])C1([H])[H]

$$$$
77:0:0
     RDKit          3D

 90 98  0  0  1  0  0  0  0  0999 V2000
  -28.6170  -21.3180   18.7470 C   0  0  0  0  0  3  0  0  0  0  0  0
  -30.5770  -22.3820   20.2780 C   0  0  0  0  0  3  0  0  0  0  0  0
  -29.6240  -20.5090   19.3260 C   0  0  0  0  0  0  0  0  0  0  0  0
  -29.5940  -23.1940   19.6640 C   0  0  0  0  0  0  0  0  0  0  0  0
  -30.6040  -21.0370   20.1000 N   0  0  0  0  0  0  0  0  0  0  0  0
  -28.6050  -22.6620   18.9030 N   0  0  0  0  0  0  0  0  0  0  0  0
  -29.7520  -19.0440   18.9470 C   0  0  0  0  0  2  0  0  0  0  0  0
  -29.7210  -18.0380   20.1170 C   0  0  0  0  0  2  0  0  0  0  0  0
  -30.1790  -16.6560   19.6010 C   0  0  0  0  0  2  0  0  0  0  0  0
  -30.9050  -14.4250   20.1530 C   0  0  0  0  0  0  0  0  0  0  0  0
  -30.4780  -12.3270   18.9400 C   0  0  0  0  0  2  0  0  0  0  0  0
  -29.4850  -12.5960   17.7910 C   0  0  0  0  0  2  0  0  0  0  0  0
  -28.0340  -12.4620   18.2910 C   0  0  0  0  0  2  0  0  0  0  0  0
  -27.7720  -13.2600   19.5970 C   0  0  0  0  0  3  0  0  0  0  0  0
  -28.8780  -12.9920   20.6410 C   0  0  0  0  0  2  0  0  0  0  0  0
  -30.1770  -13.2840   20.0150 N   0  0  0  0  0  0  0  0  0  0  0  0
  -32.0160  -14.5630   19.6310 O   0  0  0  0  0  0  0  0  0  0  0  0
  -30.0680  -15.8090   21.9790 C   0  0  0  0  0  1  0  0  0  0  0  0
  -30.2120  -15.5190   20.5480 N   0  0  0  0  0  0  0  0  0  0  0  0
  -25.4160  -13.8630   20.4430 C   0  0  0  0  0  0  0  0  0  0  0  0
  -24.3630  -13.0880   20.8490 C   0  0  0  0  0  0  0  0  0  0  0  0
  -24.8160  -11.7350   20.7660 C   0  0  0  0  0  0  0  0  0  0  0  0
  -26.4430  -12.9820   20.1390 N   0  0  0  0  0  0  0  0  0  0  0  0
  -26.0870  -11.6960   20.3900 N   0  0  0  0  0  0  0  0  0  0  0  0
  -24.0930  -10.4720   20.9660 C   0  0  0  0  0  0  0  0  0  0  0  0
  -24.5380   -9.5070   21.8980 C   0  0  0  0  0  3  0  0  0  0  0  0
  -23.8170   -8.3080   22.0860 C   0  0  0  0  0  3  0  0  0  0  0  0
  -22.6380   -8.0640   21.3430 C   0  0  0  0  0  0  0  0  0  0  0  0
  -22.2120   -9.0170   20.4010 C   0  0  0  0  0  3  0  0  0  0  0  0
  -22.9330  -10.2080   20.2110 C   0  0  0  0  0  3  0  0  0  0  0  0
  -21.8890   -6.9170   21.4400 O   0  0  0  0  0  0  0  0  0  0  0  0
  -21.8120   -6.2030   22.6090 C   0  0  0  0  0  0  0  0  0  0  0  0
  -21.3400   -6.7840   23.8060 C   0  0  0  0  0  3  0  0  0  0  0  0
  -21.2120   -5.9970   24.9690 C   0  0  0  0  0  3  0  0  0  0  0  0
  -21.5440   -4.6300   24.9320 C   0  0  0  0  0  0  0  0  0  0  0  0
  -22.0080   -4.0470   23.7400 C   0  0  0  0  0  3  0  0  0  0  0  0
  -22.1380   -4.8320   22.5810 C   0  0  0  0  0  0  0  0  0  0  0  0
  -22.5660   -4.2620   21.4280 F   0  0  0  0  0  0  0  0  0  0  0  0
  -21.4140   -3.8720   26.0460 F   0  0  0  0  0  0  0  0  0  0  0  0
  -22.9850  -13.5640   21.2030 C   0  0  0  0  0  0  0  0  0  0  0  0
  -22.2960  -12.8530   22.0880 N   0  0  0  0  0  0  0  0  0  0  0  0
  -22.5280  -14.6040   20.7300 O   0  0  0  0  0  0  0  0  0  0  0  0
  -22.6800  -12.0120   22.4950 H   0  0  0  0  0  0  0  0  0  0  0  0
  -21.3720  -13.1530   22.3610 H   0  0  0  0  0  0  0  0  0  0  0  0
  -25.5820  -15.2370   20.2890 N   0  0  0  0  0  0  0  0  0  0  0  0
  -24.8340  -15.8990   20.4610 H   0  0  0  0  0  0  0  0  0  0  0  0
  -26.4330  -15.6760   19.9600 H   0  0  0  0  0  0  0  0  0  0  0  0
  -29.6590  -24.7120   19.7320 C   0  0  0  0  0  2  0  0  0  0  0  0
  -28.4260  -25.3490   20.3820 C   0  0  0  0  0  2  0  0  0  0  0  0
  -28.4790  -26.7630   20.1740 O   0  0  0  0  0  0  0  0  0  0  0  0
  -24.6370  -31.8890   23.2310 C   0  0  0  0  0  0  0  0  0  0  0  0
  -27.2850  -27.4480   20.1760 C   0  0  0  0  0  0  0  0  0  0  0  0
  -23.4290  -30.4750   21.5980 C   0  0  0  0  0  3  0  0  0  0  0  0
  -24.8830  -28.9370   20.1800 C   0  0  0  0  0  0  0  0  0  0  0  0
  -25.9520  -30.8450   21.3910 C   0  0  0  0  0  2  0  0  0  0  0  0
  -26.0400  -29.4710   20.7640 C   0  0  0  0  0  0  0  0  0  0  0  0
  -27.2430  -28.7340   20.7560 C   0  0  0  0  0  3  0  0  0  0  0  0
  -26.1130  -26.9310   19.5760 C   0  0  0  0  0  3  0  0  0  0  0  0
  -24.9140  -27.6660   19.5840 C   0  0  0  0  0  3  0  0  0  0  0  0
  -23.6380  -29.7910   20.2220 C   0  0  0  0  0  2  0  0  0  0  0  0
  -24.6910  -31.0840   22.1320 N   0  0  0  0  0  0  0  0  0  0  0  0
  -23.5560  -32.1610   23.7710 O   0  0  0  0  0  0  0  0  0  0  0  0
  -22.7870  -29.4540   22.5630 C   0  0  0  0  0  0  0  0  0  0  0  0
  -21.4630  -29.2660   22.4380 N   0  0  0  0  0  0  0  0  0  0  0  0
  -23.4740  -28.8340   23.3800 O   0  0  0  0  0  0  0  0  0  0  0  0
  -20.9710  -29.8200   21.7510 H   0  0  0  0  0  0  0  0  0  0  0  0
  -18.0940  -28.0570   22.9260 C   0  0  0  0  0  0  0  0  0  0  0  0
  -20.6500  -28.3310   23.2140 C   0  0  0  0  0  3  0  0  0  0  0  0
  -20.7630  -26.8960   22.6530 C   0  0  0  0  0  2  0  0  0  0  0  0
  -19.6700  -26.5550   21.6350 C   0  0  0  0  0  2  0  0  0  0  0  0
  -18.2830  -26.7010   22.2690 C   0  0  0  0  0  2  0  0  0  0  0  0
  -19.2060  -28.8300   23.3560 C   0  0  0  0  0  0  0  0  0  0  0  0
  -18.9750  -30.1000   23.9290 C   0  0  0  0  0  3  0  0  0  0  0  0
  -17.6680  -30.5960   24.0780 C   0  0  0  0  0  3  0  0  0  0  0  0
  -16.5710  -29.8190   23.6680 C   0  0  0  0  0  3  0  0  0  0  0  0
  -16.7850  -28.5530   23.0960 C   0  0  0  0  0  3  0  0  0  0  0  0
  -25.9230  -32.5250   23.8430 C   0  0  0  0  0  3  0  0  0  0  0  0
  -25.6080  -33.9190   24.1800 N   0  0  0  0  0  0  0  0  0  0  0  0
  -25.9270  -34.9750   23.4190 C   0  0  0  0  0  0  0  0  0  0  0  0
  -26.5900  -34.8780   22.3830 O   0  0  0  0  0  0  0  0  0  0  0  0
  -25.0210  -34.0690   24.9870 H   0  0  0  0  0  0  0  0  0  0  0  0
  -24.1840  -36.7540   23.0780 C   0  0  0  0  0  1  0  0  0  0  0  0
  -25.4310  -36.3580   23.8820 C   0  0  0  0  0  3  0  0  0  0  0  0
  -27.5630  -37.2560   24.7050 C   0  0  0  0  0  1  0  0  0  0  0  0
  -26.4570  -37.4180   23.7670 N   0  0  0  0  0  0  0  0  0  0  0  0
  -26.0440  -38.3350   23.9190 H   0  0  0  0  0  0  0  0  0  0  0  0
  -26.4580  -31.7500   25.1090 C   0  0  1  0  0  0  0  0  0  0  0  0
  -25.3760  -31.4950   26.1860 C   0  0  0  0  0  1  0  0  0  0  0  0
  -27.0490  -30.3820   24.6990 C   0  0  0  0  0  1  0  0  0  0  0  0
  -27.6070  -32.5500   25.7670 C   0  0  0  0  0  1  0  0  0  0  0  0
  1  6  2  0
  1  3  1  0
  3  5  2  0
  4 48  1  0
  4  2  2  0
  5  2  1  0
  6  4  1  0
  7  3  1  0
  7  8  1  0
  9  8  1  0
  9 19  1  0
 10 19  1  0
 11 16  1  0
 12 13  1  0
 12 11  1  0
 14 13  1  0
 14 23  1  0
 14 15  1  0
 16 10  1  0
 16 15  1  0
 17 10  2  0
 19 18  1  0
 20 21  2  0
 21 40  1  0
 22 21  1  0
 22 25  1  0
 23 24  1  0
 23 20  1  0
 24 22  2  0
 25 26  1  0
 26 27  2  0
 28 31  1  0
 28 27  1  0
 29 28  2  0
 30 29  1  0
 30 25  2  0
 31 32  1  0
 32 33  1  0
 33 34  2  0
 35 34  1  0
 35 39  1  0
 36 35  2  0
 37 32  2  0
 37 36  1  0
 38 37  1  0
 40 41  1  0
 41 44  1  0
 41 43  1  0
 42 40  2  0
 45 20  1  0
 45 46  1  0
 47 45  1  0
 48 49  1  0
 50 52  1  0
 50 49  1  0
 51 62  2  0
 52 57  1  0
 53 61  1  0
 53 63  1  0
 54 60  1  0
 54 56  1  0
 55 61  1  0
 56 55  1  0
 57 56  2  0
 58 59  1  0
 58 52  2  0
 59 54  2  0
 60 53  1  0
 61 51  1  0
 63 65  2  0
 64 63  1  0
 66 64  1  0
 67 76  2  0
 67 72  1  0
 68 64  1  0
 68 72  1  0
 69 68  1  0
 70 71  1  0
 70 69  1  0
 71 67  1  0
 72 73  2  0
 73 74  1  0
 75 74  2  0
 76 75  1  0
 77 51  1  0
 77 78  1  0
 77 87  1  0
 78 81  1  0
 79 83  1  0
 79 78  1  0
 80 79  2  0
 83 82  1  0
 85 83  1  0
 85 86  1  0
 85 84  1  0
 87 90  1  1
 87 88  1  0
 89 87  1  0
M  ISO  4  10 100  19 100  49 101  50 101
M  END
>  <TORSDO>  (77) 
F 21

>  <SCORE>  (77) 
-13.025

>  <name>  (77) 
77

>  <ligand_id>  (77) 
77

>  <original_smiles>  (77) 
[H]c1nc(C([H])([H])C([H])([H])C([H])([H])N(C(=O)N2C([H])([H])C([H])([H])C([H])([H])C([H])(n3nc(-c4c([H])c([H])c(Oc5c([H])c([H])c(F)c([H])c5F)c([H])c4[H])c(C(=O)N([H])[H])c3N([H])[H])C2([H])[H])C([H])([H])[H])c([H])nc1C([H])([H])C([H])([H])Oc1c([H])c([H])c2c(c1[H])C([H])([H])N(C(=O)C([H])(N([H])C(=O)C([H])(N([H])C([H])([H])[H])C([H])([H])[H])C(C([H])([H])[H])(C([H])([H])[H])C([H])([H])[H])C([H])(C(=O)N([H])C1([H])c3c([H])c([H])c([H])c([H])c3C([H])([H])C([H])([H])C1([H])[H])C2([H])[H]

>  <smiles>  (77) 
[H]c1nc(C([H])([H])C([H])([H])C([H])([H])N(C(=O)N2C([H])([H])C([H])([H])C([H])([H])C([H])(n3nc(-c4c([H])c([H])c(Oc5c([H])c([H])c(F)c([H])c5F)c([H])c4[H])c(C(=O)N([H])[H])c3N([H])[H])C2([H])[H])C([H])([H])[H])c([H])nc1C([H])([H])C([H])([H])Oc1c([H])c([H])c2c(c1[H])C([H])([H])N(C(=O)C([H])(N([H])C(=O)C([H])(N([H])C([H])([H])[H])C([H])([H])[H])C(C([H])([H])[H])(C([H])([H])[H])C([H])([H])[H])C([H])(C(=O)N([H])C1([H])c3c([H])c([H])c([H])c([H])c3C([H])([H])C([H])([H])C1([H])[H])C2([H])[H]

$$$$
78:0:0
     RDKit          3D

 92100  0  0  1  0  0  0  0  0999 V2000
  -28.6040  -20.5500   20.5010 C   0  0  0  0  0  3  0  0  0  0  0  0
  -30.9710  -20.8430   20.6180 C   0  0  0  0  0  3  0  0  0  0  0  0
  -29.7050  -21.4350   20.3910 C   0  0  0  0  0  0  0  0  0  0  0  0
  -28.8150  -19.1630   20.7660 C   0  0  0  0  0  0  0  0  0  0  0  0
  -30.1330  -18.6560   20.9110 C   0  0  0  0  0  0  0  0  0  0  0  0
  -27.6150  -18.2350   20.8850 C   0  0  0  0  0  1  0  0  0  0  0  0
  -31.1780  -19.5190   20.8700 N   0  0  0  0  0  0  0  0  0  0  0  0
  -29.5840  -22.8960   19.8190 C   0  0  0  0  0  2  0  0  0  0  0  0
  -29.1410  -24.1560   20.6780 C   0  0  0  0  0  2  0  0  0  0  0  0
  -29.0080  -25.4990   19.8300 C   0  0  0  0  0  2  0  0  0  0  0  0
  -28.7900  -26.7930   20.5040 O   0  0  0  0  0  0  0  0  0  0  0  0
  -24.6840  -31.9300   23.4220 C   0  0  0  0  0  0  0  0  0  0  0  0
  -27.5980  -27.5310   20.4070 C   0  0  0  0  0  0  0  0  0  0  0  0
  -23.5970  -30.4960   21.7310 C   0  0  0  0  0  3  0  0  0  0  0  0
  -25.1570  -29.0260   20.3410 C   0  0  0  0  0  0  0  0  0  0  0  0
  -26.1220  -30.9270   21.6330 C   0  0  0  0  0  2  0  0  0  0  0  0
  -26.2800  -29.5610   20.9800 C   0  0  0  0  0  0  0  0  0  0  0  0
  -27.4970  -28.8220   21.0080 C   0  0  0  0  0  3  0  0  0  0  0  0
  -26.4410  -27.0370   19.7570 C   0  0  0  0  0  3  0  0  0  0  0  0
  -25.2390  -27.7690   19.7230 C   0  0  0  0  0  3  0  0  0  0  0  0
  -23.8830  -29.8460   20.3530 C   0  0  0  0  0  2  0  0  0  0  0  0
  -24.8170  -31.1360   22.3200 N   0  0  0  0  0  0  0  0  0  0  0  0
  -23.5740  -32.1540   23.9230 O   0  0  0  0  0  0  0  0  0  0  0  0
  -22.9530  -29.4400   22.6610 C   0  0  0  0  0  0  0  0  0  0  0  0
  -21.6590  -29.1490   22.4400 N   0  0  0  0  0  0  0  0  0  0  0  0
  -23.6180  -28.8860   23.5400 O   0  0  0  0  0  0  0  0  0  0  0  0
  -21.1790  -29.6570   21.7110 H   0  0  0  0  0  0  0  0  0  0  0  0
  -18.3720  -27.6590   22.6980 C   0  0  0  0  0  0  0  0  0  0  0  0
  -20.8650  -28.1580   23.1700 C   0  0  0  0  0  3  0  0  0  0  0  0
  -21.1400  -26.7280   22.6490 C   0  0  0  0  0  2  0  0  0  0  0  0
  -20.1620  -26.2820   21.5580 C   0  0  0  0  0  2  0  0  0  0  0  0
  -18.7240  -26.3160   22.0830 C   0  0  0  0  0  2  0  0  0  0  0  0
  -19.3780  -28.5300   23.1950 C   0  0  0  0  0  0  0  0  0  0  0  0
  -18.9990  -29.7810   23.7270 C   0  0  0  0  0  3  0  0  0  0  0  0
  -17.6460  -30.1670   23.7670 C   0  0  0  0  0  3  0  0  0  0  0  0
  -16.6530  -29.2960   23.2850 C   0  0  0  0  0  3  0  0  0  0  0  0
  -17.0160  -28.0430   22.7590 C   0  0  0  0  0  3  0  0  0  0  0  0
  -25.9170  -32.6120   24.0900 C   0  0  0  0  0  3  0  0  0  0  0  0
  -25.5490  -34.0050   24.3790 N   0  0  0  0  0  0  0  0  0  0  0  0
  -25.8630  -35.0530   23.6050 C   0  0  0  0  0  0  0  0  0  0  0  0
  -26.5640  -34.9520   22.5940 O   0  0  0  0  0  0  0  0  0  0  0  0
  -24.9240  -34.1530   25.1560 H   0  0  0  0  0  0  0  0  0  0  0  0
  -24.0710  -36.7690   23.1790 C   0  0  0  0  0  1  0  0  0  0  0  0
  -25.3140  -36.4330   24.0190 C   0  0  0  0  0  3  0  0  0  0  0  0
  -27.3960  -37.4280   24.8610 C   0  0  0  0  0  1  0  0  0  0  0  0
  -26.3050  -37.5230   23.8920 N   0  0  0  0  0  0  0  0  0  0  0  0
  -25.8600  -38.4300   24.0030 H   0  0  0  0  0  0  0  0  0  0  0  0
  -26.3970  -31.8790   25.4020 C   0  0  1  0  0  0  0  0  0  0  0  0
  -25.2540  -31.5640   26.3930 C   0  0  0  0  0  1  0  0  0  0  0  0
  -27.1040  -30.5480   25.0580 C   0  0  0  0  0  1  0  0  0  0  0  0
  -27.4380  -32.7540   26.1400 C   0  0  0  0  0  1  0  0  0  0  0  0
  -30.4610  -17.1530   21.2490 C   0  0  0  0  0  2  0  0  0  0  0  0
  -31.0080  -14.8720   20.4490 C   0  0  0  0  0  0  0  0  0  0  0  0
  -30.7310  -12.6260   19.4550 C   0  0  0  0  0  2  0  0  0  0  0  0
  -29.8360  -12.7250   18.2020 C   0  0  0  0  0  2  0  0  0  0  0  0
  -28.3470  -12.6250   18.5860 C   0  0  0  0  0  2  0  0  0  0  0  0
  -27.9590  -13.5110   19.8010 C   0  0  0  0  0  3  0  0  0  0  0  0
  -28.9880  -13.4190   20.9450 C   0  0  0  0  0  2  0  0  0  0  0  0
  -30.3070  -13.7040   20.3670 N   0  0  0  0  0  0  0  0  0  0  0  0
  -32.2330  -14.8830   20.2990 O   0  0  0  0  0  0  0  0  0  0  0  0
  -30.3200  -16.0480   20.2300 N   0  0  0  0  0  0  0  0  0  0  0  0
  -25.5650  -14.1470   20.4850 C   0  0  0  0  0  0  0  0  0  0  0  0
  -24.4720  -13.3890   20.8080 C   0  0  0  0  0  0  0  0  0  0  0  0
  -24.9050  -12.0290   20.7530 C   0  0  0  0  0  0  0  0  0  0  0  0
  -26.5940  -13.2500   20.2530 N   0  0  0  0  0  0  0  0  0  0  0  0
  -26.2020  -11.9680   20.4760 N   0  0  0  0  0  0  0  0  0  0  0  0
  -24.1480  -10.7790   20.8860 C   0  0  0  0  0  0  0  0  0  0  0  0
  -24.5110   -9.7910   21.8270 C   0  0  0  0  0  3  0  0  0  0  0  0
  -23.7570   -8.6050   21.9490 C   0  0  0  0  0  3  0  0  0  0  0  0
  -22.6240   -8.3980   21.1260 C   0  0  0  0  0  0  0  0  0  0  0  0
  -22.2820   -9.3740   20.1740 C   0  0  0  0  0  3  0  0  0  0  0  0
  -23.0370  -10.5510   20.0500 C   0  0  0  0  0  3  0  0  0  0  0  0
  -21.8450   -7.2680   21.1600 O   0  0  0  0  0  0  0  0  0  0  0  0
  -21.6600   -6.5540   22.3170 C   0  0  0  0  0  0  0  0  0  0  0  0
  -21.1010   -7.1390   23.4730 C   0  0  0  0  0  3  0  0  0  0  0  0
  -20.8640   -6.3510   24.6170 C   0  0  0  0  0  3  0  0  0  0  0  0
  -21.1760   -4.9780   24.6050 C   0  0  0  0  0  0  0  0  0  0  0  0
  -21.7260   -4.3940   23.4520 C   0  0  0  0  0  3  0  0  0  0  0  0
  -21.9660   -5.1790   22.3110 C   0  0  0  0  0  0  0  0  0  0  0  0
  -22.4740   -4.6040   21.1950 F   0  0  0  0  0  0  0  0  0  0  0  0
  -20.9410   -4.2180   25.7000 F   0  0  0  0  0  0  0  0  0  0  0  0
  -23.0780  -13.8920   21.0550 C   0  0  0  0  0  0  0  0  0  0  0  0
  -22.3140  -13.2010   21.8950 N   0  0  0  0  0  0  0  0  0  0  0  0
  -22.6730  -14.9350   20.5420 O   0  0  0  0  0  0  0  0  0  0  0  0
  -22.6550  -12.3660   22.3460 H   0  0  0  0  0  0  0  0  0  0  0  0
  -21.3770  -13.5240   22.1000 H   0  0  0  0  0  0  0  0  0  0  0  0
  -25.7680  -15.5150   20.3450 N   0  0  0  0  0  0  0  0  0  0  0  0
  -25.0170  -16.1890   20.4380 H   0  0  0  0  0  0  0  0  0  0  0  0
  -26.6350  -15.9280   20.0270 H   0  0  0  0  0  0  0  0  0  0  0  0
  -30.4300  -16.5260   18.8270 C   0  0  0  0  0  2  0  0  0  0  0  0
  -29.6210  -18.1470   17.0270 C   0  0  0  0  0  1  0  0  0  0  0  0
  -29.3340  -17.5210   18.3980 C   0  0  0  0  0  2  0  0  0  0  0  0
  1  4  1  0
  2  7  2  0
  3  1  2  0
  3  2  1  0
  4  6  1  0
  4  5  2  0
  5 52  1  0
  7  5  1  0
  8  3  1  0
  8  9  1  0
 10 11  1  0
 10  9  1  0
 12 23  2  0
 13 11  1  0
 13 18  1  0
 14 22  1  0
 14 24  1  0
 15 21  1  0
 15 17  1  0
 16 22  1  0
 17 18  2  0
 17 16  1  0
 19 13  2  0
 20 19  1  0
 20 15  2  0
 21 14  1  0
 22 12  1  0
 24 26  2  0
 25 24  1  0
 27 25  1  0
 28 37  2  0
 28 33  1  0
 29 25  1  0
 29 33  1  0
 30 29  1  0
 31 32  1  0
 31 30  1  0
 32 28  1  0
 33 34  2  0
 34 35  1  0
 36 35  2  0
 37 36  1  0
 38 12  1  0
 38 39  1  0
 38 48  1  0
 39 42  1  0
 40 44  1  0
 40 39  1  0
 41 40  2  0
 44 43  1  0
 46 47  1  0
 46 44  1  0
 46 45  1  0
 48 51  1  1
 48 49  1  0
 50 48  1  0
 54 59  1  0
 55 56  1  0
 55 54  1  0
 57 56  1  0
 57 65  1  0
 57 58  1  0
 59 53  1  0
 59 58  1  0
 60 53  2  0
 61 53  1  0
 61 52  1  0
 62 63  2  0
 63 82  1  0
 64 63  1  0
 64 67  1  0
 65 66  1  0
 65 62  1  0
 66 64  2  0
 67 68  1  0
 68 69  2  0
 70 73  1  0
 70 69  1  0
 71 70  2  0
 72 71  1  0
 72 67  2  0
 73 74  1  0
 74 75  1  0
 75 76  2  0
 77 76  1  0
 77 81  1  0
 78 77  2  0
 79 74  2  0
 79 78  1  0
 80 79  1  0
 82 83  1  0
 83 86  1  0
 83 85  1  0
 84 82  2  0
 87 88  1  0
 87 62  1  0
 89 87  1  0
 90 61  1  0
 91 92  1  0
 92 90  1  0
M  ISO  4  10 101  11 101  53 100  61 100
M  END
>  <TORSDO>  (78) 
F 22

>  <SCORE>  (78) 
-11.901

>  <name>  (78) 
78

>  <ligand_id>  (78) 
78

>  <original_smiles>  (78) 
[H]c1nc(C([H])([H])N(C(=O)N2C([H])([H])C([H])([H])C([H])([H])C([H])(n3nc(-c4c([H])c([H])c(Oc5c([H])c([H])c(F)c([H])c5F)c([H])c4[H])c(C(=O)N([H])[H])c3N([H])[H])C2([H])[H])C([H])([H])C([H])([H])C([H])([H])[H])c(C([H])([H])[H])c([H])c1C([H])([H])C([H])([H])C([H])([H])Oc1c([H])c([H])c2c(c1[H])C([H])([H])N(C(=O)C([H])(N([H])C(=O)C([H])(N([H])C([H])([H])[H])C([H])([H])[H])C(C([H])([H])[H])(C([H])([H])[H])C([H])([H])[H])C([H])(C(=O)N([H])C1([H])c3c([H])c([H])c([H])c([H])c3C([H])([H])C([H])([H])C1([H])[H])C2([H])[H]

>  <smiles>  (78) 
[H]c1nc(C([H])([H])N(C(=O)N2C([H])([H])C([H])([H])C([H])([H])C([H])(n3nc(-c4c([H])c([H])c(Oc5c([H])c([H])c(F)c([H])c5F)c([H])c4[H])c(C(=O)N([H])[H])c3N([H])[H])C2([H])[H])C([H])([H])C([H])([H])C([H])([H])[H])c(C([H])([H])[H])c([H])c1C([H])([H])C([H])([H])C([H])([H])Oc1c([H])c([H])c2c(c1[H])C([H])([H])N(C(=O)C([H])(N([H])C(=O)C([H])(N([H])C([H])([H])[H])C([H])([H])[H])C(C([H])([H])[H])(C([H])([H])[H])C([H])([H])[H])C([H])(C(=O)N([H])C1([H])c3c([H])c([H])c([H])c([H])c3C([H])([H])C([H])([H])C1([H])[H])C2([H])[H]

$$$$
79:0:0
     RDKit          3D

 95103  0  0  1  0  0  0  0  0999 V2000
  -29.4930  -22.3730   20.1970 C   0  0  0  0  0  3  0  0  0  0  0  0
  -29.5790  -20.9780   20.3870 C   0  0  0  0  0  3  0  0  0  0  0  0
  -29.8690  -22.6990   22.5690 C   0  0  0  0  0  3  0  0  0  0  0  0
  -29.6130  -23.2520   21.2940 C   0  0  0  0  0  0  0  0  0  0  0  0
  -29.8030  -20.4180   21.6680 C   0  0  0  0  0  0  0  0  0  0  0  0
  -29.9750  -21.2960   22.7750 C   0  0  0  0  0  0  0  0  0  0  0  0
  -29.5080  -24.7810   21.1300 C   0  0  0  0  0  2  0  0  0  0  0  0
  -28.6590  -25.2860   19.9380 C   0  0  0  0  0  2  0  0  0  0  0  0
  -28.6060  -26.7310   19.8990 O   0  0  0  0  0  0  0  0  0  0  0  0
  -24.5600  -31.6870   23.0330 C   0  0  0  0  0  0  0  0  0  0  0  0
  -27.3860  -27.3880   19.8970 C   0  0  0  0  0  0  0  0  0  0  0  0
  -23.4140  -30.2620   21.3690 C   0  0  0  0  0  3  0  0  0  0  0  0
  -24.9310  -28.8110   19.9220 C   0  0  0  0  0  0  0  0  0  0  0  0
  -25.9240  -30.7240   21.1810 C   0  0  0  0  0  2  0  0  0  0  0  0
  -26.0650  -29.3640   20.5270 C   0  0  0  0  0  0  0  0  0  0  0  0
  -27.2920  -28.6600   20.5130 C   0  0  0  0  0  3  0  0  0  0  0  0
  -26.2320  -26.8640   19.2660 C   0  0  0  0  0  3  0  0  0  0  0  0
  -25.0110  -27.5620   19.2850 C   0  0  0  0  0  3  0  0  0  0  0  0
  -23.6540  -29.6180   19.9770 C   0  0  0  0  0  2  0  0  0  0  0  0
  -24.6500  -30.9070   21.9180 N   0  0  0  0  0  0  0  0  0  0  0  0
  -23.4680  -31.9030   23.5760 O   0  0  0  0  0  0  0  0  0  0  0  0
  -22.8100  -29.1960   22.3110 C   0  0  0  0  0  0  0  0  0  0  0  0
  -21.4900  -28.9750   22.1980 N   0  0  0  0  0  0  0  0  0  0  0  0
  -23.5240  -28.5740   23.1030 O   0  0  0  0  0  0  0  0  0  0  0  0
  -20.9730  -29.5340   21.5320 H   0  0  0  0  0  0  0  0  0  0  0  0
  -18.1600  -27.6750   22.7200 C   0  0  0  0  0  0  0  0  0  0  0  0
  -20.7140  -27.9950   22.9550 C   0  0  0  0  0  3  0  0  0  0  0  0
  -20.8450  -26.5830   22.3380 C   0  0  0  0  0  2  0  0  0  0  0  0
  -19.7350  -26.2580   21.3340 C   0  0  0  0  0  2  0  0  0  0  0  0
  -18.3600  -26.3500   22.0040 C   0  0  0  0  0  2  0  0  0  0  0  0
  -19.2640  -28.4540   23.1520 C   0  0  0  0  0  0  0  0  0  0  0  0
  -19.0230  -29.6950   23.7810 C   0  0  0  0  0  3  0  0  0  0  0  0
  -17.7080  -30.1570   23.9830 C   0  0  0  0  0  3  0  0  0  0  0  0
  -16.6170  -29.3740   23.5650 C   0  0  0  0  0  3  0  0  0  0  0  0
  -16.8450  -28.1350   22.9400 C   0  0  0  0  0  3  0  0  0  0  0  0
  -25.8170  -32.3640   23.6610 C   0  0  0  0  0  3  0  0  0  0  0  0
  -26.3810  -31.5860   24.9130 C   0  0  1  0  0  0  0  0  0  0  0  0
  -25.3130  -31.2750   25.9870 C   0  0  0  0  0  1  0  0  0  0  0  0
  -27.0210  -30.2470   24.4810 C   0  0  0  0  0  1  0  0  0  0  0  0
  -27.5000  -32.4150   25.5870 C   0  0  0  0  0  1  0  0  0  0  0  0
  -25.4420  -33.7360   24.0290 N   0  0  0  0  0  0  0  0  0  0  0  0
  -25.7260  -34.8250   23.3000 C   0  0  0  0  0  0  0  0  0  0  0  0
  -26.4050  -34.7810   22.2700 O   0  0  0  0  0  0  0  0  0  0  0  0
  -24.8420  -33.8390   24.8340 H   0  0  0  0  0  0  0  0  0  0  0  0
  -23.9120  -36.5380   22.9890 C   0  0  0  0  0  1  0  0  0  0  0  0
  -25.1710  -36.1750   23.7920 C   0  0  0  0  0  3  0  0  0  0  0  0
  -27.2580  -37.1420   24.6510 C   0  0  0  0  0  1  0  0  0  0  0  0
  -26.1500  -37.2800   23.7090 N   0  0  0  0  0  0  0  0  0  0  0  0
  -25.6970  -38.1740   23.8800 H   0  0  0  0  0  0  0  0  0  0  0  0
  -29.7250  -18.8880   21.8290 C   0  0  0  0  0  2  0  0  0  0  0  0
  -30.9420  -18.0640   21.3340 C   0  0  0  0  0  2  0  0  0  0  0  0
  -30.5890  -16.5470   21.1490 C   0  0  0  0  0  2  0  0  0  0  0  0
  -32.0140  -14.6050   20.4300 C   0  0  0  0  0  0  0  0  0  0  0  0
  -31.5530  -12.4490   19.3470 C   0  0  0  0  0  2  0  0  0  0  0  0
  -30.6710  -12.7070   18.1080 C   0  0  0  0  0  2  0  0  0  0  0  0
  -29.1770  -12.7160   18.4940 C   0  0  0  0  0  2  0  0  0  0  0  0
  -28.8730  -13.5910   19.7400 C   0  0  0  0  0  3  0  0  0  0  0  0
  -29.8790  -13.3190   20.8780 C   0  0  0  0  0  2  0  0  0  0  0  0
  -31.2280  -13.4980   20.3260 N   0  0  0  0  0  0  0  0  0  0  0  0
  -33.2280  -14.5470   20.2090 O   0  0  0  0  0  0  0  0  0  0  0  0
  -31.3830  -15.7850   20.1500 N   0  0  0  0  0  0  0  0  0  0  0  0
  -26.5270  -14.4220   20.3950 C   0  0  0  0  0  0  0  0  0  0  0  0
  -25.3800  -13.7540   20.7200 C   0  0  0  0  0  0  0  0  0  0  0  0
  -25.7090  -12.3640   20.6850 C   0  0  0  0  0  0  0  0  0  0  0  0
  -27.4890  -13.4460   20.1820 N   0  0  0  0  0  0  0  0  0  0  0  0
  -26.9970  -12.2030   20.4150 N   0  0  0  0  0  0  0  0  0  0  0  0
  -24.8600  -11.1770   20.8340 C   0  0  0  0  0  0  0  0  0  0  0  0
  -25.1660  -10.1650   21.7710 C   0  0  0  0  0  3  0  0  0  0  0  0
  -24.3240   -9.0410   21.9100 C   0  0  0  0  0  3  0  0  0  0  0  0
  -23.1630   -8.9200   21.1110 C   0  0  0  0  0  0  0  0  0  0  0  0
  -22.8740   -9.9190   20.1630 C   0  0  0  0  0  3  0  0  0  0  0  0
  -23.7160  -11.0350   20.0230 C   0  0  0  0  0  3  0  0  0  0  0  0
  -22.3010   -7.8500   21.1580 O   0  0  0  0  0  0  0  0  0  0  0  0
  -22.0700   -7.1630   22.3220 C   0  0  0  0  0  0  0  0  0  0  0  0
  -21.6060   -7.8100   23.4880 C   0  0  0  0  0  3  0  0  0  0  0  0
  -21.3160   -7.0570   24.6430 C   0  0  0  0  0  3  0  0  0  0  0  0
  -21.4770   -5.6580   24.6310 C   0  0  0  0  0  0  0  0  0  0  0  0
  -21.9330   -5.0110   23.4700 C   0  0  0  0  0  3  0  0  0  0  0  0
  -22.2260   -5.7630   22.3170 C   0  0  0  0  0  0  0  0  0  0  0  0
  -22.6440   -5.1320   21.1940 F   0  0  0  0  0  0  0  0  0  0  0  0
  -21.1900   -4.9330   25.7380 F   0  0  0  0  0  0  0  0  0  0  0  0
  -24.0260  -14.3620   20.9540 C   0  0  0  0  0  0  0  0  0  0  0  0
  -23.2270  -13.7590   21.8280 N   0  0  0  0  0  0  0  0  0  0  0  0
  -23.6890  -15.4070   20.3980 O   0  0  0  0  0  0  0  0  0  0  0  0
  -23.5080  -12.9130   22.3000 H   0  0  0  0  0  0  0  0  0  0  0  0
  -22.3190  -14.1520   22.0290 H   0  0  0  0  0  0  0  0  0  0  0  0
  -26.8240  -15.7730   20.2450 N   0  0  0  0  0  0  0  0  0  0  0  0
  -26.1160  -16.4920   20.3460 H   0  0  0  0  0  0  0  0  0  0  0  0
  -27.7190  -16.1350   19.9440 H   0  0  0  0  0  0  0  0  0  0  0  0
  -31.8890  -16.5350   18.9720 C   0  0  0  0  0  2  0  0  0  0  0  0
  -29.5480  -17.2590   18.0670 C   0  0  0  0  0  1  0  0  0  0  0  0
  -30.9880  -17.6580   18.3990 C   0  0  0  0  0  2  0  0  0  0  0  0
  -30.2190  -20.7230   24.1770 C   0  0  0  0  0  2  0  0  0  0  0  0
  -32.4300  -21.8090   24.9610 C   0  0  0  0  0  1  0  0  0  0  0  0
  -30.9270  -21.6170   25.2150 C   0  0  0  0  0  2  0  0  0  0  0  0
  1  2  2  0
  1  4  1  0
  2  5  1  0
  3  6  1  0
  4  3  2  0
  5 50  1  0
  5  6  2  0
  6 93  1  0
  7  4  1  0
  8  7  1  0
  9  8  1  0
 10 21  2  0
 11  9  1  0
 11 16  1  0
 12 20  1  0
 12 22  1  0
 13 19  1  0
 13 15  1  0
 14 20  1  0
 15 14  1  0
 16 15  2  0
 17 18  1  0
 17 11  2  0
 18 13  2  0
 19 12  1  0
 20 10  1  0
 22 24  2  0
 23 22  1  0
 25 23  1  0
 26 35  2  0
 26 31  1  0
 27 23  1  0
 27 31  1  0
 28 27  1  0
 29 30  1  0
 29 28  1  0
 30 26  1  0
 31 32  2  0
 32 33  1  0
 34 33  2  0
 35 34  1  0
 36 10  1  0
 36 41  1  0
 36 37  1  0
 37 40  1  1
 37 38  1  0
 39 37  1  0
 41 44  1  0
 42 46  1  0
 42 41  1  0
 43 42  2  0
 46 45  1  0
 48 46  1  0
 48 49  1  0
 48 47  1  0
 51 50  1  0
 52 51  1  0
 54 59  1  0
 55 56  1  0
 55 54  1  0
 57 56  1  0
 57 65  1  0
 57 58  1  0
 59 53  1  0
 59 58  1  0
 60 53  2  0
 61 53  1  0
 61 52  1  0
 62 63  2  0
 63 82  1  0
 64 63  1  0
 64 67  1  0
 65 62  1  0
 65 66  1  0
 66 64  2  0
 67 68  1  0
 68 69  2  0
 70 73  1  0
 70 69  1  0
 71 70  2  0
 72 71  1  0
 72 67  2  0
 73 74  1  0
 74 75  1  0
 75 76  2  0
 77 76  1  0
 77 81  1  0
 78 77  2  0
 79 74  2  0
 79 78  1  0
 80 79  1  0
 82 83  1  0
 83 86  1  0
 83 85  1  0
 84 82  2  0
 87 88  1  0
 87 62  1  0
 89 87  1  0
 90 61  1  0
 91 92  1  0
 92 90  1  0
 93 95  1  0
 94 95  1  0
M  ISO  4   8 101   9 101  53 100  61 100
M  END
>  <TORSDO>  (79) 
F 25

>  <SCORE>  (79) 
-9.463

>  <name>  (79) 
79

>  <ligand_id>  (79) 
79

>  <original_smiles>  (79) 
[H]c1c([H])c([H])c2c(c1[H])C([H])([H])C([H])([H])C([H])([H])C2([H])N([H])C(=O)C1([H])N(C(=O)C([H])(N([H])C(=O)C([H])(N([H])C([H])([H])[H])C([H])([H])[H])C(C([H])([H])[H])(C([H])([H])[H])C([H])([H])[H])C([H])([H])c2c([H])c(OC([H])([H])C([H])([H])c3c([H])c([H])c(C([H])([H])C([H])([H])C([H])([H])N(C(=O)N4C([H])([H])C([H])([H])C([H])([H])C([H])(n5nc(-c6c([H])c([H])c(Oc7c([H])c([H])c(F)c([H])c7F)c([H])c6[H])c(C(=O)N([H])[H])c5N([H])[H])C4([H])[H])C([H])([H])C([H])([H])C([H])([H])[H])c(C([H])([H])C([H])([H])C([H])([H])[H])c3[H])c([H])c([H])c2C1([H])[H]

>  <smiles>  (79) 
[H]c1c([H])c([H])c2c(c1[H])C([H])([H])C([H])([H])C([H])([H])C2([H])N([H])C(=O)C1([H])N(C(=O)C([H])(N([H])C(=O)C([H])(N([H])C([H])([H])[H])C([H])([H])[H])C(C([H])([H])[H])(C([H])([H])[H])C([H])([H])[H])C([H])([H])c2c([H])c(OC([H])([H])C([H])([H])c3c([H])c([H])c(C([H])([H])C([H])([H])C([H])([H])N(C(=O)N4C([H])([H])C([H])([H])C([H])([H])C([H])(n5nc(-c6c([H])c([H])c(Oc7c([H])c([H])c(F)c([H])c7F)c([H])c6[H])c(C(=O)N([H])[H])c5N([H])[H])C4([H])[H])C([H])([H])C([H])([H])C([H])([H])[H])c(C([H])([H])C([H])([H])C([H])([H])[H])c3[H])c([H])c([H])c2C1([H])[H]

$$$$
80:0:0
     RDKit          3D

 93101  0  0  1  0  0  0  0  0999 V2000
  -27.4530  -22.0780   18.9230 C   0  0  0  0  0  1  0  0  0  0  0  0
  -27.3460  -22.0930   21.3890 C   0  0  0  0  0  1  0  0  0  0  0  0
  -28.3280  -22.2080   20.1940 C   0  0  1  0  0  0  0  0  0  0  0  0
  -30.6520  -19.5530   19.3320 C   0  0  0  0  0  3  0  0  0  0  0  0
  -29.1220  -19.6980   20.8440 C   0  0  0  0  0  3  0  0  0  0  0  0
  -30.0480  -18.7700   20.3650 C   0  0  0  0  0  0  0  0  0  0  0  0
  -30.1760  -20.8030   19.2250 N   0  0  0  0  0  0  0  0  0  0  0  0
  -29.2210  -20.9520   20.1770 N   0  0  0  0  0  0  0  0  0  0  0  0
  -30.5400  -17.3480   20.8960 C   0  0  0  0  0  2  0  0  0  0  0  0
  -30.7860  -14.8450   20.1940 C   0  0  0  0  0  0  0  0  0  0  0  0
  -30.5540  -12.5760   19.1760 C   0  0  0  0  0  2  0  0  0  0  0  0
  -29.6030  -12.6460   17.9630 C   0  0  0  0  0  2  0  0  0  0  0  0
  -28.1360  -12.4810   18.4090 C   0  0  0  0  0  2  0  0  0  0  0  0
  -27.7770  -13.3780   19.6230 C   0  0  0  0  0  3  0  0  0  0  0  0
  -28.8470  -13.2980   20.7310 C   0  0  0  0  0  2  0  0  0  0  0  0
  -30.1370  -13.6360   20.1160 N   0  0  0  0  0  0  0  0  0  0  0  0
  -31.9770  -14.9280   19.8870 O   0  0  0  0  0  0  0  0  0  0  0  0
  -30.0380  -15.9830   20.4440 N   0  0  0  0  0  0  0  0  0  0  0  0
  -29.0480  -15.8240   20.5480 H   0  0  0  0  0  0  0  0  0  0  0  0
  -25.4030  -13.9810   20.3810 C   0  0  0  0  0  0  0  0  0  0  0  0
  -24.3390  -13.2120   20.7710 C   0  0  0  0  0  0  0  0  0  0  0  0
  -24.7970  -11.8590   20.7380 C   0  0  0  0  0  0  0  0  0  0  0  0
  -26.4400  -13.0970   20.1350 N   0  0  0  0  0  0  0  0  0  0  0  0
  -26.0850  -11.8150   20.4130 N   0  0  0  0  0  0  0  0  0  0  0  0
  -24.0660  -10.6010   20.9430 C   0  0  0  0  0  0  0  0  0  0  0  0
  -24.4920   -9.6440   21.8890 C   0  0  0  0  0  3  0  0  0  0  0  0
  -23.7650   -8.4500   22.0800 C   0  0  0  0  0  3  0  0  0  0  0  0
  -22.5950   -8.2050   21.3210 C   0  0  0  0  0  0  0  0  0  0  0  0
  -22.1870   -9.1500   20.3640 C   0  0  0  0  0  3  0  0  0  0  0  0
  -22.9160  -10.3360   20.1720 C   0  0  0  0  0  3  0  0  0  0  0  0
  -21.8370   -7.0630   21.4210 O   0  0  0  0  0  0  0  0  0  0  0  0
  -21.7620   -6.3490   22.5900 C   0  0  0  0  0  0  0  0  0  0  0  0
  -21.2890   -6.9280   23.7870 C   0  0  0  0  0  3  0  0  0  0  0  0
  -21.1610   -6.1390   24.9480 C   0  0  0  0  0  3  0  0  0  0  0  0
  -21.4970   -4.7720   24.9120 C   0  0  0  0  0  0  0  0  0  0  0  0
  -21.9610   -4.1920   23.7180 C   0  0  0  0  0  3  0  0  0  0  0  0
  -22.0910   -4.9790   22.5590 C   0  0  0  0  0  0  0  0  0  0  0  0
  -22.5200   -4.4100   21.4070 F   0  0  0  0  0  0  0  0  0  0  0  0
  -21.3650   -4.0130   26.0250 F   0  0  0  0  0  0  0  0  0  0  0  0
  -22.9460  -13.6960   21.0540 C   0  0  0  0  0  0  0  0  0  0  0  0
  -22.2240  -13.0110   21.9340 N   0  0  0  0  0  0  0  0  0  0  0  0
  -22.5070  -14.7200   20.5330 O   0  0  0  0  0  0  0  0  0  0  0  0
  -22.5890  -12.1820   22.3810 H   0  0  0  0  0  0  0  0  0  0  0  0
  -21.2910  -13.3210   22.1640 H   0  0  0  0  0  0  0  0  0  0  0  0
  -25.5670  -15.3510   20.1920 N   0  0  0  0  0  0  0  0  0  0  0  0
  -24.7940  -15.9990   20.3020 H   0  0  0  0  0  0  0  0  0  0  0  0
  -26.3980  -15.7890   19.8190 H   0  0  0  0  0  0  0  0  0  0  0  0
  -29.0160  -23.7100   20.1580 C   0  0  0  0  0  3  0  0  0  0  0  0
  -30.0960  -23.6300   22.5390 C   0  0  0  0  0  1  0  0  0  0  0  0
  -31.0620  -25.1430   20.7730 C   0  0  0  0  0  1  0  0  0  0  0  0
  -30.3040  -23.8280   21.0280 C   0  0  0  0  0  3  0  0  0  0  0  0
  -28.0170  -24.9970   20.3170 C   0  0  0  0  0  2  0  0  0  0  0  0
  -28.3380  -26.4490   20.0420 O   0  0  0  0  0  0  0  0  0  0  0  0
  -24.6600  -31.9030   23.1530 C   0  0  0  0  0  0  0  0  0  0  0  0
  -27.2530  -27.3610   20.0100 C   0  0  0  0  0  0  0  0  0  0  0  0
  -23.4530  -30.5230   21.5060 C   0  0  0  0  0  3  0  0  0  0  0  0
  -24.8980  -29.0090   20.0380 C   0  0  0  0  0  0  0  0  0  0  0  0
  -25.9940  -30.8450   21.3120 C   0  0  0  0  0  2  0  0  0  0  0  0
  -26.0740  -29.4750   20.6400 C   0  0  0  0  0  0  0  0  0  0  0  0
  -27.2560  -28.6640   20.6160 C   0  0  0  0  0  3  0  0  0  0  0  0
  -26.0570  -26.9830   19.3570 C   0  0  0  0  0  3  0  0  0  0  0  0
  -24.8960  -27.7710   19.3860 C   0  0  0  0  0  3  0  0  0  0  0  0
  -23.6610  -29.8800   20.1110 C   0  0  0  0  0  2  0  0  0  0  0  0
  -24.7220  -31.1090   22.0460 N   0  0  0  0  0  0  0  0  0  0  0  0
  -23.5790  -32.1670   23.7000 O   0  0  0  0  0  0  0  0  0  0  0  0
  -22.8050  -29.4840   22.4530 C   0  0  0  0  0  0  0  0  0  0  0  0
  -21.4770  -29.3060   22.3450 N   0  0  0  0  0  0  0  0  0  0  0  0
  -23.4980  -28.8430   23.2480 O   0  0  0  0  0  0  0  0  0  0  0  0
  -20.9770  -29.8790   21.6800 H   0  0  0  0  0  0  0  0  0  0  0  0
  -18.1090  -28.0960   22.8830 C   0  0  0  0  0  0  0  0  0  0  0  0
  -20.6720  -28.3520   23.1120 C   0  0  0  0  0  3  0  0  0  0  0  0
  -20.7640  -26.9330   22.5050 C   0  0  0  0  0  2  0  0  0  0  0  0
  -19.6430  -26.6280   21.5060 C   0  0  0  0  0  2  0  0  0  0  0  0
  -18.2730  -26.7600   22.1770 C   0  0  0  0  0  2  0  0  0  0  0  0
  -19.2340  -28.8500   23.3080 C   0  0  0  0  0  0  0  0  0  0  0  0
  -19.0270  -30.1000   23.9300 C   0  0  0  0  0  3  0  0  0  0  0  0
  -17.7240  -30.5960   24.1320 C   0  0  0  0  0  3  0  0  0  0  0  0
  -16.6130  -29.8380   23.7220 C   0  0  0  0  0  3  0  0  0  0  0  0
  -16.8060  -28.5900   23.1050 C   0  0  0  0  0  3  0  0  0  0  0  0
  -25.9430  -32.5380   23.7720 C   0  0  0  0  0  3  0  0  0  0  0  0
  -25.6230  -33.9270   24.1320 N   0  0  0  0  0  0  0  0  0  0  0  0
  -25.9310  -34.9970   23.3880 C   0  0  0  0  0  0  0  0  0  0  0  0
  -26.5860  -34.9200   22.3450 O   0  0  0  0  0  0  0  0  0  0  0  0
  -25.0420  -34.0610   24.9460 H   0  0  0  0  0  0  0  0  0  0  0  0
  -24.1880  -36.7860   23.0840 C   0  0  0  0  0  1  0  0  0  0  0  0
  -25.4370  -36.3720   23.8790 C   0  0  0  0  0  3  0  0  0  0  0  0
  -27.5670  -37.2600   24.7190 C   0  0  0  0  0  1  0  0  0  0  0  0
  -26.4610  -37.4350   23.7810 N   0  0  0  0  0  0  0  0  0  0  0  0
  -26.0470  -38.3500   23.9470 H   0  0  0  0  0  0  0  0  0  0  0  0
  -26.4780  -31.7500   25.0310 C   0  0  1  0  0  0  0  0  0  0  0  0
  -25.3990  -31.4850   26.1060 C   0  0  0  0  0  1  0  0  0  0  0  0
  -27.0700  -30.3850   24.6120 C   0  0  0  0  0  1  0  0  0  0  0  0
  -27.6270  -32.5460   25.6960 C   0  0  0  0  0  1  0  0  0  0  0  0
  3  1  1  6
  3  2  1  0
  4  6  1  0
  6  5  2  0
  6  9  1  0
  7  4  2  0
  7  8  1  0
  8  3  1  0
  8  5  1  0
 10 18  1  0
 11 16  1  0
 12 13  1  0
 12 11  1  0
 14 13  1  0
 14 23  1  0
 14 15  1  0
 16 10  1  0
 16 15  1  0
 17 10  2  0
 18 19  1  0
 18  9  1  0
 20 21  2  0
 21 40  1  0
 22 21  1  0
 22 25  1  0
 23 20  1  0
 23 24  1  0
 24 22  2  0
 25 26  1  0
 26 27  2  0
 28 31  1  0
 28 27  1  0
 29 28  2  0
 30 29  1  0
 30 25  2  0
 31 32  1  0
 32 33  1  0
 33 34  2  0
 35 34  1  0
 35 39  1  0
 36 35  2  0
 37 32  2  0
 37 36  1  0
 38 37  1  0
 40 41  1  0
 41 44  1  0
 41 43  1  0
 42 40  2  0
 45 46  1  0
 45 20  1  0
 47 45  1  0
 48  3  1  0
 48 52  1  0
 48 51  1  0
 50 51  1  0
 51 49  1  0
 53 52  1  0
 54 65  2  0
 55 53  1  0
 55 60  1  0
 56 64  1  0
 56 66  1  0
 57 63  1  0
 57 59  1  0
 58 64  1  0
 59 58  1  0
 60 59  2  0
 61 62  1  0
 61 55  2  0
 62 57  2  0
 63 56  1  0
 64 54  1  0
 66 68  2  0
 67 66  1  0
 69 67  1  0
 70 79  2  0
 70 75  1  0
 71 67  1  0
 71 75  1  0
 72 71  1  0
 73 74  1  0
 73 72  1  0
 74 70  1  0
 75 76  2  0
 76 77  1  0
 78 77  2  0
 79 78  1  0
 80 54  1  0
 80 81  1  0
 80 90  1  0
 81 84  1  0
 82 86  1  0
 82 81  1  0
 83 82  2  0
 86 85  1  0
 88 86  1  0
 88 89  1  0
 88 87  1  0
 90 93  1  1
 90 91  1  0
 92 90  1  0
M  ISO  4  10 100  18 100  52 101  53 101
M  END
>  <TORSDO>  (80) 
F 21

>  <SCORE>  (80) 
-13.412

>  <name>  (80) 
80

>  <ligand_id>  (80) 
80

>  <original_smiles>  (80) 
[H]c1nn(C(C([H])([H])[H])(C([H])([H])[H])C([H])(C([H])([H])Oc2c([H])c([H])c3c(c2[H])C([H])([H])N(C(=O)C([H])(N([H])C(=O)C([H])(N([H])C([H])([H])[H])C([H])([H])[H])C(C([H])([H])[H])(C([H])([H])[H])C([H])([H])[H])C([H])(C(=O)N([H])C2([H])c4c([H])c([H])c([H])c([H])c4C([H])([H])C([H])([H])C2([H])[H])C3([H])[H])C([H])(C([H])([H])[H])C([H])([H])[H])c([H])c1C([H])([H])N([H])C(=O)N1C([H])([H])C([H])([H])C([H])([H])C([H])(n2nc(-c3c([H])c([H])c(Oc4c([H])c([H])c(F)c([H])c4F)c([H])c3[H])c(C(=O)N([H])[H])c2N([H])[H])C1([H])[H]

>  <smiles>  (80) 
[H]c1nn(C(C([H])([H])[H])(C([H])([H])[H])C([H])(C([H])([H])Oc2c([H])c([H])c3c(c2[H])C([H])([H])N(C(=O)C([H])(N([H])C(=O)C([H])(N([H])C([H])([H])[H])C([H])([H])[H])C(C([H])([H])[H])(C([H])([H])[H])C([H])([H])[H])C([H])(C(=O)N([H])C2([H])c4c([H])c([H])c([H])c([H])c4C([H])([H])C([H])([H])C2([H])[H])C3([H])[H])C([H])(C([H])([H])[H])C([H])([H])[H])c([H])c1C([H])([H])N([H])C(=O)N1C([H])([H])C([H])([H])C([H])([H])C([H])(n2nc(-c3c([H])c([H])c(Oc4c([H])c([H])c(F)c([H])c4F)c([H])c3[H])c(C(=O)N([H])[H])c2N([H])[H])C1([H])[H]

$$$$
81:0:0
     RDKit          3D

 93101  0  0  1  0  0  0  0  0999 V2000
  -29.3980  -19.8890   19.5930 C   0  0  0  0  0  3  0  0  0  0  0  0
  -30.5790  -20.4400   17.8370 C   0  0  0  0  0  3  0  0  0  0  0  0
  -29.8860  -19.3770   18.3550 C   0  0  0  0  0  0  0  0  0  0  0  0
  -29.7790  -21.1400   19.8230 N   0  0  0  0  0  0  0  0  0  0  0  0
  -30.5040  -21.4850   18.7360 N   0  0  0  0  0  0  0  0  0  0  0  0
  -28.5030  -18.1400   16.7170 C   0  0  0  0  0  1  0  0  0  0  0  0
  -29.6860  -18.0270   17.6910 C   0  0  0  0  0  3  0  0  0  0  0  0
  -29.5080  -16.7940   18.6250 C   0  0  0  0  0  3  0  0  0  0  0  0
  -30.5440  -16.6230   19.7750 C   0  0  0  0  0  3  0  0  0  0  0  0
  -31.2000  -14.2820   19.5870 C   0  0  0  0  0  0  0  0  0  0  0  0
  -30.6410  -12.2810   18.2720 C   0  0  0  0  0  2  0  0  0  0  0  0
  -29.5660  -12.6400   17.2280 C   0  0  0  0  0  2  0  0  0  0  0  0
  -28.1420  -12.6150   17.8270 C   0  0  0  0  0  2  0  0  0  0  0  0
  -28.0330  -13.3310   19.2000 C   0  0  0  0  0  3  0  0  0  0  0  0
  -29.1810  -12.8570   20.1170 C   0  0  0  0  0  2  0  0  0  0  0  0
  -30.4470  -13.1610   19.4320 N   0  0  0  0  0  0  0  0  0  0  0  0
  -32.2390  -14.4880   18.9470 O   0  0  0  0  0  0  0  0  0  0  0  0
  -30.6410  -15.2560   20.3450 N   0  0  0  0  0  0  0  0  0  0  0  0
  -25.7400  -14.0690   20.1250 C   0  0  0  0  0  0  0  0  0  0  0  0
  -24.6650  -13.3550   20.5770 C   0  0  0  0  0  0  0  0  0  0  0  0
  -25.0420  -11.9790   20.4930 C   0  0  0  0  0  0  0  0  0  0  0  0
  -26.7120  -13.1340   19.7960 N   0  0  0  0  0  0  0  0  0  0  0  0
  -26.2930  -11.8710   20.0660 N   0  0  0  0  0  0  0  0  0  0  0  0
  -24.2670  -10.7580   20.7430 C   0  0  0  0  0  0  0  0  0  0  0  0
  -24.6980   -9.7870   21.6750 C   0  0  0  0  0  3  0  0  0  0  0  0
  -23.9250   -8.6290   21.9120 C   0  0  0  0  0  3  0  0  0  0  0  0
  -22.7110   -8.4280   21.2120 C   0  0  0  0  0  0  0  0  0  0  0  0
  -22.3010   -9.3840   20.2660 C   0  0  0  0  0  3  0  0  0  0  0  0
  -23.0730  -10.5340   20.0290 C   0  0  0  0  0  3  0  0  0  0  0  0
  -21.9110   -7.3190   21.3550 O   0  0  0  0  0  0  0  0  0  0  0  0
  -21.8380   -6.6360   22.5420 C   0  0  0  0  0  0  0  0  0  0  0  0
  -21.4520   -7.2670   23.7440 C   0  0  0  0  0  3  0  0  0  0  0  0
  -21.3230   -6.5120   24.9260 C   0  0  0  0  0  3  0  0  0  0  0  0
  -21.5660   -5.1260   24.9080 C   0  0  0  0  0  0  0  0  0  0  0  0
  -21.9440   -4.4930   23.7110 C   0  0  0  0  0  3  0  0  0  0  0  0
  -22.0780   -5.2460   22.5310 C   0  0  0  0  0  0  0  0  0  0  0  0
  -22.4230   -4.6280   21.3750 F   0  0  0  0  0  0  0  0  0  0  0  0
  -21.4340   -4.3990   26.0430 F   0  0  0  0  0  0  0  0  0  0  0  0
  -23.3300  -13.9020   20.9880 C   0  0  0  0  0  0  0  0  0  0  0  0
  -22.6700  -13.2590   21.9440 N   0  0  0  0  0  0  0  0  0  0  0  0
  -22.8850  -14.9390   20.4970 O   0  0  0  0  0  0  0  0  0  0  0  0
  -23.0490  -12.4260   22.3710 H   0  0  0  0  0  0  0  0  0  0  0  0
  -21.7770  -13.6110   22.2600 H   0  0  0  0  0  0  0  0  0  0  0  0
  -25.9690  -15.4310   19.9490 N   0  0  0  0  0  0  0  0  0  0  0  0
  -25.2720  -16.1350   20.1570 H   0  0  0  0  0  0  0  0  0  0  0  0
  -26.8330  -15.8160   19.5940 H   0  0  0  0  0  0  0  0  0  0  0  0
  -29.9220  -15.5560   22.7390 C   0  0  0  0  0  1  0  0  0  0  0  0
  -31.0680  -15.2540   21.7580 C   0  0  0  0  0  2  0  0  0  0  0  0
  -31.1430  -22.7920   18.6560 C   0  0  0  0  0  2  0  0  0  0  0  0
  -30.1930  -23.9590   18.2990 C   0  0  0  0  0  2  0  0  0  0  0  0
  -29.6650  -24.7760   19.5000 C   0  0  0  0  0  2  0  0  0  0  0  0
  -28.9840  -26.0840   19.0570 C   0  0  0  0  0  2  0  0  0  0  0  0
  -28.6190  -26.8770   20.1920 O   0  0  0  0  0  0  0  0  0  0  0  0
  -24.6390  -31.9340   23.2460 C   0  0  0  0  0  0  0  0  0  0  0  0
  -27.4120  -27.5500   20.1770 C   0  0  0  0  0  0  0  0  0  0  0  0
  -23.4790  -30.5010   21.5990 C   0  0  0  0  0  3  0  0  0  0  0  0
  -24.9760  -28.9940   20.1920 C   0  0  0  0  0  0  0  0  0  0  0  0
  -26.0000  -30.9120   21.4260 C   0  0  0  0  0  2  0  0  0  0  0  0
  -26.1180  -29.5430   20.7870 C   0  0  0  0  0  0  0  0  0  0  0  0
  -27.3350  -28.8250   20.7840 C   0  0  0  0  0  3  0  0  0  0  0  0
  -26.2380  -26.9960   19.6160 C   0  0  0  0  0  3  0  0  0  0  0  0
  -25.0290  -27.7160   19.6130 C   0  0  0  0  0  3  0  0  0  0  0  0
  -23.7150  -29.8260   20.2220 C   0  0  0  0  0  2  0  0  0  0  0  0
  -24.7240  -31.1310   22.1480 N   0  0  0  0  0  0  0  0  0  0  0  0
  -23.5470  -32.1850   23.7750 O   0  0  0  0  0  0  0  0  0  0  0  0
  -22.8420  -29.4670   22.5550 C   0  0  0  0  0  0  0  0  0  0  0  0
  -21.5370  -29.2110   22.3760 N   0  0  0  0  0  0  0  0  0  0  0  0
  -23.5240  -28.8970   23.4130 O   0  0  0  0  0  0  0  0  0  0  0  0
  -21.0490  -29.7250   21.6580 H   0  0  0  0  0  0  0  0  0  0  0  0
  -18.2230  -27.8140   22.7190 C   0  0  0  0  0  0  0  0  0  0  0  0
  -20.7370  -28.2500   23.1340 C   0  0  0  0  0  3  0  0  0  0  0  0
  -20.9660  -26.8090   22.6240 C   0  0  0  0  0  2  0  0  0  0  0  0
  -19.9520  -26.3760   21.5600 C   0  0  0  0  0  2  0  0  0  0  0  0
  -18.5270  -26.4540   22.1120 C   0  0  0  0  0  2  0  0  0  0  0  0
  -19.2620  -28.6630   23.1840 C   0  0  0  0  0  0  0  0  0  0  0  0
  -18.9270  -29.9310   23.7060 C   0  0  0  0  0  3  0  0  0  0  0  0
  -17.5850  -30.3530   23.7710 C   0  0  0  0  0  3  0  0  0  0  0  0
  -16.5600  -29.5010   23.3250 C   0  0  0  0  0  3  0  0  0  0  0  0
  -16.8800  -28.2350   22.8040 C   0  0  0  0  0  3  0  0  0  0  0  0
  -25.9060  -32.5950   23.8740 C   0  0  0  0  0  3  0  0  0  0  0  0
  -25.5730  -33.9950   24.1680 N   0  0  0  0  0  0  0  0  0  0  0  0
  -25.9090  -35.0350   23.3940 C   0  0  0  0  0  0  0  0  0  0  0  0
  -26.6030  -34.9190   22.3800 O   0  0  0  0  0  0  0  0  0  0  0  0
  -24.9590  -34.1590   24.9520 H   0  0  0  0  0  0  0  0  0  0  0  0
  -24.1650  -36.7950   22.9610 C   0  0  0  0  0  1  0  0  0  0  0  0
  -25.3930  -36.4260   23.8090 C   0  0  0  0  0  3  0  0  0  0  0  0
  -27.4980  -37.3540   24.6670 C   0  0  0  0  0  1  0  0  0  0  0  0
  -26.4140  -37.4900   23.6970 N   0  0  0  0  0  0  0  0  0  0  0  0
  -25.9930  -38.4070   23.8200 H   0  0  0  0  0  0  0  0  0  0  0  0
  -26.4130  -31.8570   25.1730 C   0  0  1  0  0  0  0  0  0  0  0  0
  -25.3010  -31.5930   26.2140 C   0  0  0  0  0  1  0  0  0  0  0  0
  -27.0540  -30.4960   24.8120 C   0  0  0  0  0  1  0  0  0  0  0  0
  -27.5170  -32.6980   25.8550 C   0  0  0  0  0  1  0  0  0  0  0  0
  1  4  2  0
  2  3  2  0
  2  5  1  0
  3  1  1  0
  5  4  1  0
  7  6  1  0
  7  3  1  0
  7  8  1  0
  8  9  2  0
  9 18  1  0
 10 18  1  0
 11 16  1  0
 12 13  1  0
 12 11  1  0
 14 13  1  0
 14 22  1  0
 14 15  1  0
 16 10  1  0
 16 15  1  0
 17 10  2  0
 18 48  1  0
 19 20  2  0
 20 39  1  0
 21 20  1  0
 21 24  1  0
 22 23  1  0
 22 19  1  0
 23 21  2  0
 24 25  1  0
 25 26  2  0
 27 30  1  0
 27 26  1  0
 28 27  2  0
 29 28  1  0
 29 24  2  0
 30 31  1  0
 31 32  1  0
 32 33  2  0
 34 33  1  0
 34 38  1  0
 35 34  2  0
 36 31  2  0
 36 35  1  0
 37 36  1  0
 39 40  1  0
 40 43  1  0
 40 42  1  0
 41 39  2  0
 44 19  1  0
 44 45  1  0
 46 44  1  0
 48 47  1  0
 49  5  1  0
 50 49  1  0
 50 51  1  0
 52 51  1  0
 52 53  1  0
 54 65  2  0
 55 53  1  0
 55 60  1  0
 56 64  1  0
 56 66  1  0
 57 63  1  0
 57 59  1  0
 58 64  1  0
 59 58  1  0
 60 59  2  0
 61 55  2  0
 62 61  1  0
 62 57  2  0
 63 56  1  0
 64 54  1  0
 66 68  2  0
 67 66  1  0
 69 67  1  0
 70 79  2  0
 70 75  1  0
 71 67  1  0
 71 75  1  0
 72 71  1  0
 73 74  1  0
 73 72  1  0
 74 70  1  0
 75 76  2  0
 76 77  1  0
 78 77  2  0
 79 78  1  0
 80 54  1  0
 80 81  1  0
 80 90  1  0
 81 84  1  0
 82 86  1  0
 82 81  1  0
 83 82  2  0
 86 85  1  0
 88 86  1  0
 88 89  1  0
 88 87  1  0
 90 93  1  1
 90 91  1  0
 92 90  1  0
M  ISO  4  10 100  18 100  52 101  53 101
M  END
>  <TORSDO>  (81) 
F 24

>  <SCORE>  (81) 
-8.829

>  <name>  (81) 
81

>  <ligand_id>  (81) 
81

>  <original_smiles>  (81) 
[H]c1nn(C([H])([H])C([H])([H])C([H])([H])C([H])([H])Oc2c([H])c([H])c3c(c2[H])C([H])([H])N(C(=O)C([H])(N([H])C(=O)C([H])(N([H])C([H])([H])[H])C([H])([H])[H])C(C([H])([H])[H])(C([H])([H])[H])C([H])([H])[H])C([H])(C(=O)N([H])C2([H])c4c([H])c([H])c([H])c([H])c4C([H])([H])C([H])([H])C2([H])[H])C3([H])[H])c([H])c1C([H])(C([H])([H])[H])C([H])([H])C([H])([H])N(C(=O)N1C([H])([H])C([H])([H])C([H])([H])C([H])(n2nc(-c3c([H])c([H])c(Oc4c([H])c([H])c(F)c([H])c4F)c([H])c3[H])c(C(=O)N([H])[H])c2N([H])[H])C1([H])[H])C([H])([H])C([H])([H])[H]

>  <smiles>  (81) 
[H]c1nn(C([H])([H])C([H])([H])C([H])([H])C([H])([H])Oc2c([H])c([H])c3c(c2[H])C([H])([H])N(C(=O)C([H])(N([H])C(=O)C([H])(N([H])C([H])([H])[H])C([H])([H])[H])C(C([H])([H])[H])(C([H])([H])[H])C([H])([H])[H])C([H])(C(=O)N([H])C2([H])c4c([H])c([H])c([H])c([H])c4C([H])([H])C([H])([H])C2([H])[H])C3([H])[H])c([H])c1C([H])(C([H])([H])[H])C([H])([H])C([H])([H])N(C(=O)N1C([H])([H])C([H])([H])C([H])([H])C([H])(n2nc(-c3c([H])c([H])c(Oc4c([H])c([H])c(F)c([H])c4F)c([H])c3[H])c(C(=O)N([H])[H])c2N([H])[H])C1([H])[H])C([H])([H])C([H])([H])[H]

$$$$
82:0:0
     RDKit          3D

 92100  0  0  1  0  0  0  0  0999 V2000
  -27.8710  -20.9190   19.7340 C   0  0  0  0  0  0  0  0  0  0  0  0
  -29.1260  -20.4530   20.0500 C   0  0  0  0  0  0  0  0  0  0  0  0
  -29.0040  -22.6080   20.4620 C   0  0  0  0  0  0  0  0  0  0  0  0
  -26.7230  -20.1930   19.1090 C   0  0  0  0  0  1  0  0  0  0  0  0
  -31.1710  -21.5460   21.1280 C   0  0  0  0  0  1  0  0  0  0  0  0
  -27.8060  -22.2840   19.9840 N   0  0  0  0  0  0  0  0  0  0  0  0
  -29.8180  -21.5400   20.5950 N   0  0  0  0  0  0  0  0  0  0  0  0
  -29.7510  -19.1120   19.7680 C   0  0  0  0  0  2  0  0  0  0  0  0
  -29.4600  -17.9610   20.7610 C   0  0  0  0  0  2  0  0  0  0  0  0
  -30.5560  -16.8770   20.6410 C   0  0  0  0  0  2  0  0  0  0  0  0
  -30.8280  -14.4520   20.5070 C   0  0  0  0  0  0  0  0  0  0  0  0
  -30.4820  -12.3380   19.3110 C   0  0  0  0  0  2  0  0  0  0  0  0
  -29.5530  -12.6230   18.1150 C   0  0  0  0  0  2  0  0  0  0  0  0
  -28.0770  -12.4940   18.5390 C   0  0  0  0  0  2  0  0  0  0  0  0
  -27.7500  -13.2910   19.8320 C   0  0  0  0  0  3  0  0  0  0  0  0
  -28.8010  -13.0180   20.9330 C   0  0  0  0  0  2  0  0  0  0  0  0
  -30.1320  -13.2940   20.3710 N   0  0  0  0  0  0  0  0  0  0  0  0
  -31.9680  -14.6080   20.0600 O   0  0  0  0  0  0  0  0  0  0  0  0
  -30.1230  -15.5070   20.9440 N   0  0  0  0  0  0  0  0  0  0  0  0
  -29.1870  -15.3440   21.2820 H   0  0  0  0  0  0  0  0  0  0  0  0
  -25.3450  -13.8920   20.5280 C   0  0  0  0  0  0  0  0  0  0  0  0
  -24.2770  -13.1140   20.8880 C   0  0  0  0  0  0  0  0  0  0  0  0
  -24.7410  -11.7650   20.8480 C   0  0  0  0  0  0  0  0  0  0  0  0
  -26.3940  -13.0130   20.3000 N   0  0  0  0  0  0  0  0  0  0  0  0
  -26.0320  -11.7290   20.5470 N   0  0  0  0  0  0  0  0  0  0  0  0
  -24.0180  -10.5000   21.0260 C   0  0  0  0  0  0  0  0  0  0  0  0
  -24.4230   -9.5410   21.9810 C   0  0  0  0  0  3  0  0  0  0  0  0
  -23.6960   -8.3410   22.1420 C   0  0  0  0  0  3  0  0  0  0  0  0
  -22.5510   -8.0920   21.3490 C   0  0  0  0  0  0  0  0  0  0  0  0
  -22.1680   -9.0380   20.3830 C   0  0  0  0  0  3  0  0  0  0  0  0
  -22.8950  -10.2290   20.2200 C   0  0  0  0  0  3  0  0  0  0  0  0
  -21.8000   -6.9450   21.4230 O   0  0  0  0  0  0  0  0  0  0  0  0
  -21.6900   -6.2280   22.5880 C   0  0  0  0  0  0  0  0  0  0  0  0
  -21.1430   -6.7910   23.7610 C   0  0  0  0  0  3  0  0  0  0  0  0
  -20.9880   -6.0000   24.9160 C   0  0  0  0  0  3  0  0  0  0  0  0
  -21.3660   -4.6450   24.8960 C   0  0  0  0  0  0  0  0  0  0  0  0
  -21.9030   -4.0790   23.7270 C   0  0  0  0  0  3  0  0  0  0  0  0
  -22.0620   -4.8680   22.5750 C   0  0  0  0  0  0  0  0  0  0  0  0
  -22.5630   -4.3140   21.4450 F   0  0  0  0  0  0  0  0  0  0  0  0
  -21.2080   -3.8810   26.0020 F   0  0  0  0  0  0  0  0  0  0  0  0
  -22.8760  -13.5870   21.1580 C   0  0  0  0  0  0  0  0  0  0  0  0
  -22.1410  -12.8720   22.0020 N   0  0  0  0  0  0  0  0  0  0  0  0
  -22.4450  -14.6240   20.6580 O   0  0  0  0  0  0  0  0  0  0  0  0
  -22.5020  -12.0300   22.4270 H   0  0  0  0  0  0  0  0  0  0  0  0
  -21.2020  -13.1690   22.2280 H   0  0  0  0  0  0  0  0  0  0  0  0
  -25.5100  -15.2620   20.3590 N   0  0  0  0  0  0  0  0  0  0  0  0
  -24.7420  -15.9170   20.4660 H   0  0  0  0  0  0  0  0  0  0  0  0
  -26.3620  -15.7020   20.0350 H   0  0  0  0  0  0  0  0  0  0  0  0
  -29.4660  -24.0260   20.6440 C   0  0  0  0  0  2  0  0  0  0  0  0
  -28.6590  -24.8490   21.6600 C   0  0  0  0  0  2  0  0  0  0  0  0
  -28.9370  -26.3540   21.5120 C   0  0  0  0  0  2  0  0  0  0  0  0
  -28.4230  -26.7730   20.2510 O   0  0  0  0  0  0  0  0  0  0  0  0
  -24.5090  -31.9130   23.2490 C   0  0  0  0  0  0  0  0  0  0  0  0
  -27.2480  -27.4770   20.2920 C   0  0  0  0  0  0  0  0  0  0  0  0
  -23.3380  -30.4700   21.6140 C   0  0  0  0  0  3  0  0  0  0  0  0
  -24.8290  -28.9180   20.2450 C   0  0  0  0  0  0  0  0  0  0  0  0
  -25.8570  -30.8590   21.4440 C   0  0  0  0  0  2  0  0  0  0  0  0
  -25.9660  -29.4760   20.8430 C   0  0  0  0  0  0  0  0  0  0  0  0
  -27.1780  -28.7600   20.8750 C   0  0  0  0  0  3  0  0  0  0  0  0
  -26.1030  -26.9230   19.6900 C   0  0  0  0  0  3  0  0  0  0  0  0
  -24.8890  -27.6350   19.6690 C   0  0  0  0  0  3  0  0  0  0  0  0
  -23.5740  -29.7620   20.2520 C   0  0  0  0  0  2  0  0  0  0  0  0
  -24.5850  -31.0960   22.1610 N   0  0  0  0  0  0  0  0  0  0  0  0
  -23.4190  -32.1840   23.7700 O   0  0  0  0  0  0  0  0  0  0  0  0
  -22.6850  -29.4590   22.5830 C   0  0  0  0  0  0  0  0  0  0  0  0
  -21.3640  -29.2640   22.4400 N   0  0  0  0  0  0  0  0  0  0  0  0
  -23.3620  -28.8540   23.4180 O   0  0  0  0  0  0  0  0  0  0  0  0
  -20.8790  -29.8040   21.7380 H   0  0  0  0  0  0  0  0  0  0  0  0
  -17.9840  -28.1090   22.9540 C   0  0  0  0  0  0  0  0  0  0  0  0
  -20.5450  -28.3350   23.2150 C   0  0  0  0  0  3  0  0  0  0  0  0
  -20.6290  -26.9040   22.6360 C   0  0  0  0  0  2  0  0  0  0  0  0
  -19.5180  -26.5960   21.6260 C   0  0  0  0  0  2  0  0  0  0  0  0
  -18.1410  -26.7590   22.2760 C   0  0  0  0  0  2  0  0  0  0  0  0
  -19.1130  -28.8570   23.3800 C   0  0  0  0  0  0  0  0  0  0  0  0
  -18.9150  -30.1230   23.9700 C   0  0  0  0  0  3  0  0  0  0  0  0
  -17.6170  -30.6410   24.1430 C   0  0  0  0  0  3  0  0  0  0  0  0
  -16.5010  -29.8890   23.7370 C   0  0  0  0  0  3  0  0  0  0  0  0
  -16.6850  -28.6270   23.1470 C   0  0  0  0  0  3  0  0  0  0  0  0
  -25.7830  -32.5640   23.8730 C   0  0  0  0  0  3  0  0  0  0  0  0
  -25.4570  -33.9610   24.1840 N   0  0  0  0  0  0  0  0  0  0  0  0
  -25.8010  -35.0100   23.4230 C   0  0  0  0  0  0  0  0  0  0  0  0
  -26.4970  -34.9020   22.4090 O   0  0  0  0  0  0  0  0  0  0  0  0
  -24.8430  -34.1190   24.9680 H   0  0  0  0  0  0  0  0  0  0  0  0
  -24.0830  -36.7950   22.9900 C   0  0  0  0  0  1  0  0  0  0  0  0
  -25.2900  -36.3960   23.8560 C   0  0  0  0  0  3  0  0  0  0  0  0
  -27.3770  -37.2930   24.7860 C   0  0  0  0  0  1  0  0  0  0  0  0
  -26.3220  -37.4530   23.7890 N   0  0  0  0  0  0  0  0  0  0  0  0
  -25.9060  -38.3720   23.9140 H   0  0  0  0  0  0  0  0  0  0  0  0
  -26.3030  -31.8100   25.1580 C   0  0  1  0  0  0  0  0  0  0  0  0
  -25.2020  -31.5540   26.2140 C   0  0  0  0  0  1  0  0  0  0  0  0
  -26.9160  -30.4420   24.7770 C   0  0  0  0  0  1  0  0  0  0  0  0
  -27.4300  -32.6270   25.8300 C   0  0  0  0  0  1  0  0  0  0  0  0
  1  6  1  0
  1  2  2  0
  2  7  1  0
  3  7  1  0
  3 49  1  0
  4  1  1  0
  6  3  2  0
  7  5  1  0
  8  2  1  0
  8  9  1  0
 10  9  1  0
 10 19  1  0
 11 19  1  0
 12 17  1  0
 13 14  1  0
 13 12  1  0
 15 14  1  0
 15 24  1  0
 15 16  1  0
 17 11  1  0
 17 16  1  0
 18 11  2  0
 19 20  1  0
 21 22  2  0
 22 41  1  0
 23 22  1  0
 23 26  1  0
 24 21  1  0
 24 25  1  0
 25 23  2  0
 26 27  1  0
 27 28  2  0
 29 32  1  0
 29 28  1  0
 30 29  2  0
 31 30  1  0
 31 26  2  0
 32 33  1  0
 33 34  1  0
 34 35  2  0
 36 35  1  0
 36 40  1  0
 37 36  2  0
 38 33  2  0
 38 37  1  0
 39 38  1  0
 41 42  1  0
 42 45  1  0
 42 44  1  0
 43 41  2  0
 46 47  1  0
 46 21  1  0
 48 46  1  0
 49 50  1  0
 51 50  1  0
 52 54  1  0
 52 51  1  0
 53 64  2  0
 54 59  1  0
 55 63  1  0
 55 65  1  0
 56 62  1  0
 56 58  1  0
 57 63  1  0
 58 59  2  0
 58 57  1  0
 60 54  2  0
 61 60  1  0
 61 56  2  0
 62 55  1  0
 63 53  1  0
 65 67  2  0
 66 65  1  0
 68 66  1  0
 69 78  2  0
 69 74  1  0
 70 66  1  0
 70 74  1  0
 71 70  1  0
 72 73  1  0
 72 71  1  0
 73 69  1  0
 74 75  2  0
 75 76  1  0
 77 76  2  0
 78 77  1  0
 79 53  1  0
 79 80  1  0
 79 89  1  0
 80 83  1  0
 81 85  1  0
 81 80  1  0
 82 81  2  0
 85 84  1  0
 87 85  1  0
 87 88  1  0
 87 86  1  0
 89 92  1  1
 89 90  1  0
 91 89  1  0
M  ISO  4  11 100  19 100  51 101  52 101
M  END
>  <TORSDO>  (82) 
F 22

>  <SCORE>  (82) 
-13.068

>  <name>  (82) 
82

>  <ligand_id>  (82) 
82

>  <original_smiles>  (82) 
[H]c1c([H])c([H])c2c(c1[H])C([H])([H])C([H])([H])C([H])([H])C2([H])N([H])C(=O)C1([H])N(C(=O)C([H])(N([H])C(=O)C([H])(N([H])C([H])([H])[H])C([H])([H])[H])C(C([H])([H])[H])(C([H])([H])[H])C([H])([H])[H])C([H])([H])c2c([H])c(OC([H])([H])C([H])([H])C([H])([H])c3nc(C([H])([H])[H])c(C([H])([H])C([H])([H])C([H])([H])N([H])C(=O)N4C([H])([H])C([H])([H])C([H])([H])C([H])(n5nc(-c6c([H])c([H])c(Oc7c([H])c([H])c(F)c([H])c7F)c([H])c6[H])c(C(=O)N([H])[H])c5N([H])[H])C4([H])[H])n3C([H])([H])[H])c([H])c([H])c2C1([H])[H]

>  <smiles>  (82) 
[H]c1c([H])c([H])c2c(c1[H])C([H])([H])C([H])([H])C([H])([H])C2([H])N([H])C(=O)C1([H])N(C(=O)C([H])(N([H])C(=O)C([H])(N([H])C([H])([H])[H])C([H])([H])[H])C(C([H])([H])[H])(C([H])([H])[H])C([H])([H])[H])C([H])([H])c2c([H])c(OC([H])([H])C([H])([H])C([H])([H])c3nc(C([H])([H])[H])c(C([H])([H])C([H])([H])C([H])([H])N([H])C(=O)N4C([H])([H])C([H])([H])C([H])([H])C([H])(n5nc(-c6c([H])c([H])c(Oc7c([H])c([H])c(F)c([H])c7F)c([H])c6[H])c(C(=O)N([H])[H])c5N([H])[H])C4([H])[H])n3C([H])([H])[H])c([H])c([H])c2C1([H])[H]

$$$$
83:0:0
     RDKit          3D

 89 97  0  0  1  0  0  0  0  0999 V2000
  -28.6090  -23.1090   20.2420 C   0  0  0  0  0  0  0  0  0  0  0  0
  -29.3920  -22.6450   21.3590 C   0  0  0  0  0  0  0  0  0  0  0  0
  -28.4960  -21.8350   19.5990 C   0  0  0  0  0  0  0  0  0  0  0  0
  -29.8660  -23.4750   22.5170 C   0  0  0  0  0  1  0  0  0  0  0  0
  -27.7650  -21.5700   18.3230 C   0  0  0  0  0  1  0  0  0  0  0  0
  -29.6580  -21.3050   21.3820 N   0  0  0  0  0  0  0  0  0  0  0  0
  -29.1060  -20.7060   20.2890 N   0  0  0  0  0  0  0  0  0  0  0  0
  -27.8660  -24.5840   19.8900 C   0  0  0  0  0  2  0  0  0  0  0  0
  -28.1880  -26.0770   20.2890 O   0  0  0  0  0  0  0  0  0  0  0  0
  -24.6100  -31.8830   23.2350 C   0  0  0  0  0  0  0  0  0  0  0  0
  -27.1700  -27.1210   20.1980 C   0  0  0  0  0  0  0  0  0  0  0  0
  -23.4110  -30.4970   21.5890 C   0  0  0  0  0  3  0  0  0  0  0  0
  -24.8570  -28.9160   20.1660 C   0  0  0  0  0  0  0  0  0  0  0  0
  -25.9720  -30.7320   21.4450 C   0  0  0  0  0  2  0  0  0  0  0  0
  -26.0390  -29.3390   20.7850 C   0  0  0  0  0  0  0  0  0  0  0  0
  -27.1920  -28.4560   20.7900 C   0  0  0  0  0  3  0  0  0  0  0  0
  -25.9610  -26.8270   19.5230 C   0  0  0  0  0  3  0  0  0  0  0  0
  -24.8330  -27.6740   19.5180 C   0  0  0  0  0  3  0  0  0  0  0  0
  -23.6360  -29.8240   20.2090 C   0  0  0  0  0  2  0  0  0  0  0  0
  -24.6840  -31.0620   22.1420 N   0  0  0  0  0  0  0  0  0  0  0  0
  -23.5230  -32.1730   23.7560 O   0  0  0  0  0  0  0  0  0  0  0  0
  -22.7210  -29.4930   22.5490 C   0  0  0  0  0  0  0  0  0  0  0  0
  -21.3910  -29.3300   22.4210 N   0  0  0  0  0  0  0  0  0  0  0  0
  -23.3860  -28.8600   23.3740 O   0  0  0  0  0  0  0  0  0  0  0  0
  -20.9100  -29.8930   21.7340 H   0  0  0  0  0  0  0  0  0  0  0  0
  -18.0020  -28.1480   22.9300 C   0  0  0  0  0  0  0  0  0  0  0  0
  -20.5640  -28.3970   23.1920 C   0  0  0  0  0  3  0  0  0  0  0  0
  -20.6550  -26.9640   22.6160 C   0  0  0  0  0  2  0  0  0  0  0  0
  -19.5490  -26.6510   21.6010 C   0  0  0  0  0  2  0  0  0  0  0  0
  -18.1700  -26.8010   22.2480 C   0  0  0  0  0  2  0  0  0  0  0  0
  -19.1250  -28.9050   23.3590 C   0  0  0  0  0  0  0  0  0  0  0  0
  -18.9130  -30.1650   23.9600 C   0  0  0  0  0  3  0  0  0  0  0  0
  -17.6100  -30.6680   24.1360 C   0  0  0  0  0  3  0  0  0  0  0  0
  -16.5010  -29.9100   23.7200 C   0  0  0  0  0  3  0  0  0  0  0  0
  -16.6980  -28.6520   23.1240 C   0  0  0  0  0  3  0  0  0  0  0  0
  -25.8870  -32.5170   23.8640 C   0  0  0  0  0  3  0  0  0  0  0  0
  -26.3940  -31.7490   25.1490 C   0  0  1  0  0  0  0  0  0  0  0  0
  -25.2940  -31.5180   26.2110 C   0  0  0  0  0  1  0  0  0  0  0  0
  -26.9760  -30.3660   24.7740 C   0  0  0  0  0  1  0  0  0  0  0  0
  -27.5400  -32.5440   25.8160 C   0  0  0  0  0  1  0  0  0  0  0  0
  -25.5750  -33.9160   24.2010 N   0  0  0  0  0  0  0  0  0  0  0  0
  -25.8860  -34.9750   23.4410 C   0  0  0  0  0  0  0  0  0  0  0  0
  -26.5330  -34.8760   22.3940 O   0  0  0  0  0  0  0  0  0  0  0  0
  -24.9980  -34.0650   25.0150 H   0  0  0  0  0  0  0  0  0  0  0  0
  -24.1380  -36.7650   23.1490 C   0  0  0  0  0  1  0  0  0  0  0  0
  -25.4080  -36.3620   23.9150 C   0  0  0  0  0  3  0  0  0  0  0  0
  -27.5630  -37.2650   24.6750 C   0  0  0  0  0  1  0  0  0  0  0  0
  -26.4300  -37.4210   23.7670 N   0  0  0  0  0  0  0  0  0  0  0  0
  -26.0220  -38.3390   23.9240 H   0  0  0  0  0  0  0  0  0  0  0  0
  -28.9640  -19.1050   20.1210 C   0  0  0  0  0  3  0  0  0  0  0  0
  -30.0720  -17.8340   20.4100 C   0  0  0  0  0  3  0  0  0  0  0  0
  -30.4780  -15.0590   20.2830 C   0  0  0  0  0  0  0  0  0  0  0  0
  -30.3570  -12.6900   19.3550 C   0  0  0  0  0  2  0  0  0  0  0  0
  -29.4100  -12.5960   18.1370 C   0  0  0  0  0  2  0  0  0  0  0  0
  -27.9640  -12.3510   18.6110 C   0  0  0  0  0  2  0  0  0  0  0  0
  -27.5500  -13.3050   19.7600 C   0  0  0  0  0  3  0  0  0  0  0  0
  -28.6200  -13.3800   20.8710 C   0  0  0  0  0  2  0  0  0  0  0  0
  -29.8750  -13.7990   20.2330 N   0  0  0  0  0  0  0  0  0  0  0  0
  -31.6860  -15.1020   20.0220 O   0  0  0  0  0  0  0  0  0  0  0  0
  -29.7180  -16.2660   20.4180 N   0  0  0  0  0  0  0  0  0  0  0  0
  -28.7370  -16.0800   20.5670 H   0  0  0  0  0  0  0  0  0  0  0  0
  -25.1850  -13.8670   20.5580 C   0  0  0  0  0  0  0  0  0  0  0  0
  -24.1310  -13.0840   20.9390 C   0  0  0  0  0  0  0  0  0  0  0  0
  -24.6000  -11.7360   20.8850 C   0  0  0  0  0  0  0  0  0  0  0  0
  -26.2270  -12.9960   20.2870 N   0  0  0  0  0  0  0  0  0  0  0  0
  -25.8860  -11.7070   20.5530 N   0  0  0  0  0  0  0  0  0  0  0  0
  -23.8810  -10.4690   21.0740 C   0  0  0  0  0  0  0  0  0  0  0  0
  -24.3310   -9.4920   21.9890 C   0  0  0  0  0  3  0  0  0  0  0  0
  -23.6110   -8.2910   22.1660 C   0  0  0  0  0  3  0  0  0  0  0  0
  -22.4260   -8.0580   21.4270 C   0  0  0  0  0  0  0  0  0  0  0  0
  -21.9960   -9.0240   20.5000 C   0  0  0  0  0  3  0  0  0  0  0  0
  -22.7170  -10.2170   20.3210 C   0  0  0  0  0  3  0  0  0  0  0  0
  -21.6760   -6.9100   21.5160 O   0  0  0  0  0  0  0  0  0  0  0  0
  -21.6500   -6.1540   22.6590 C   0  0  0  0  0  0  0  0  0  0  0  0
  -21.2190   -6.6870   23.8950 C   0  0  0  0  0  3  0  0  0  0  0  0
  -21.1390   -5.8550   25.0290 C   0  0  0  0  0  3  0  0  0  0  0  0
  -21.4800   -4.4920   24.9320 C   0  0  0  0  0  0  0  0  0  0  0  0
  -21.9070   -3.9620   23.7030 C   0  0  0  0  0  3  0  0  0  0  0  0
  -21.9880   -4.7890   22.5690 C   0  0  0  0  0  0  0  0  0  0  0  0
  -22.3770   -4.2660   21.3800 F   0  0  0  0  0  0  0  0  0  0  0  0
  -21.3980   -3.6920   26.0200 F   0  0  0  0  0  0  0  0  0  0  0  0
  -22.7370  -13.5540   21.2310 C   0  0  0  0  0  0  0  0  0  0  0  0
  -22.0230  -12.8520   22.1030 N   0  0  0  0  0  0  0  0  0  0  0  0
  -22.2880  -14.5800   20.7210 O   0  0  0  0  0  0  0  0  0  0  0  0
  -22.3980  -12.0270   22.5450 H   0  0  0  0  0  0  0  0  0  0  0  0
  -21.0840  -13.1480   22.3330 H   0  0  0  0  0  0  0  0  0  0  0  0
  -25.3380  -15.2400   20.3900 N   0  0  0  0  0  0  0  0  0  0  0  0
  -24.5630  -15.8830   20.5200 H   0  0  0  0  0  0  0  0  0  0  0  0
  -26.1630  -15.6900   20.0170 H   0  0  0  0  0  0  0  0  0  0  0  0
  1  2  1  0
  2  6  2  0
  2  4  1  0
  3  1  2  0
  3  7  1  0
  5  3  1  0
  7  6  1  0
  8  1  1  0
  8  9  1  0
 10 21  2  0
 11  9  1  0
 11 16  1  0
 12 20  1  0
 12 22  1  0
 13 19  1  0
 13 15  1  0
 14 20  1  0
 15 16  2  0
 15 14  1  0
 17 11  2  0
 18 17  1  0
 18 13  2  0
 19 12  1  0
 20 10  1  0
 22 24  2  0
 23 22  1  0
 25 23  1  0
 26 35  2  0
 26 31  1  0
 27 23  1  0
 27 31  1  0
 28 27  1  0
 29 30  1  0
 29 28  1  0
 30 26  1  0
 31 32  2  0
 32 33  1  0
 34 33  2  0
 35 34  1  0
 36 10  1  0
 36 41  1  0
 36 37  1  0
 37 40  1  1
 37 38  1  0
 39 37  1  0
 41 44  1  0
 42 46  1  0
 42 41  1  0
 43 42  2  0
 46 45  1  0
 48 46  1  0
 48 49  1  0
 48 47  1  0
 50  7  1  0
 50 51  2  0
 51 60  1  0
 52 60  1  0
 53 58  1  0
 54 55  1  0
 54 53  1  0
 56 55  1  0
 56 65  1  0
 56 57  1  0
 58 52  1  0
 58 57  1  0
 59 52  2  0
 60 61  1  0
 62 63  2  0
 63 82  1  0
 64 63  1  0
 64 67  1  0
 65 66  1  0
 65 62  1  0
 66 64  2  0
 67 68  1  0
 68 69  2  0
 70 73  1  0
 70 69  1  0
 71 70  2  0
 72 71  1  0
 72 67  2  0
 73 74  1  0
 74 75  1  0
 75 76  2  0
 77 76  1  0
 77 81  1  0
 78 77  2  0
 79 74  2  0
 79 78  1  0
 80 79  1  0
 82 83  1  0
 83 86  1  0
 83 85  1  0
 84 82  2  0
 87 88  1  0
 87 62  1  0
 89 87  1  0
M  ISO  4   8 101   9 101  52 100  60 100
M  END
>  <TORSDO>  (83) 
F 19

>  <SCORE>  (83) 
-15.176

>  <name>  (83) 
83

>  <ligand_id>  (83) 
83

>  <original_smiles>  (83) 
[H]c1c([H])c([H])c2c(c1[H])C([H])([H])C([H])([H])C([H])([H])C2([H])N([H])C(=O)C1([H])N(C(=O)C([H])(N([H])C(=O)C([H])(N([H])C([H])([H])[H])C([H])([H])[H])C(C([H])([H])[H])(C([H])([H])[H])C([H])([H])[H])C([H])([H])c2c([H])c(OC([H])([H])c3c(C([H])([H])[H])nn(C([H])([H])C([H])([H])N([H])C(=O)N4C([H])([H])C([H])([H])C([H])([H])C([H])(n5nc(-c6c([H])c([H])c(Oc7c([H])c([H])c(F)c([H])c7F)c([H])c6[H])c(C(=O)N([H])[H])c5N([H])[H])C4([H])[H])c3C([H])([H])[H])c([H])c([H])c2C1([H])[H]

>  <smiles>  (83) 
[H]c1c([H])c([H])c2c(c1[H])C([H])([H])C([H])([H])C([H])([H])C2([H])N([H])C(=O)C1([H])N(C(=O)C([H])(N([H])C(=O)C([H])(N([H])C([H])([H])[H])C([H])([H])[H])C(C([H])([H])[H])(C([H])([H])[H])C([H])([H])[H])C([H])([H])c2c([H])c(OC([H])([H])c3c(C([H])([H])[H])nn(C([H])([H])C([H])([H])N([H])C(=O)N4C([H])([H])C([H])([H])C([H])([H])C([H])(n5nc(-c6c([H])c([H])c(Oc7c([H])c([H])c(F)c([H])c7F)c([H])c6[H])c(C(=O)N([H])[H])c5N([H])[H])C4([H])[H])c3C([H])([H])[H])c([H])c([H])c2C1([H])[H]

$$$$
84:0:0
     RDKit          3D

 97105  0  0  1  0  0  0  0  0999 V2000
  -28.6150  -20.0380   20.2530 C   0  0  0  0  0  2  0  0  0  0  0  0
  -30.6790  -16.9860   21.3880 C   0  0  0  0  0  3  0  0  0  0  0  0
  -29.4010  -17.9380   19.1590 C   0  0  0  0  0  3  0  0  0  0  0  0
  -29.8710  -18.1270   21.5300 C   0  0  0  0  0  0  0  0  0  0  0  0
  -29.2510  -18.6570   20.3600 C   0  0  0  0  0  0  0  0  0  0  0  0
  -30.9200  -16.4440   20.1100 C   0  0  0  0  0  0  0  0  0  0  0  0
  -29.7840  -18.7440   22.9180 C   0  0  0  0  0  1  0  0  0  0  0  0
  -30.2250  -16.8850   19.0320 N   0  0  0  0  0  0  0  0  0  0  0  0
  -32.7190  -14.8300   21.0800 C   0  0  0  0  0  1  0  0  0  0  0  0
  -32.2040  -15.6130   19.8270 C   0  0  1  0  0  0  0  0  0  0  0  0
  -31.9150  -14.6360   18.6170 C   0  0  0  0  0  0  0  0  0  0  0  0
  -30.9230  -12.6300   17.5440 C   0  0  0  0  0  2  0  0  0  0  0  0
  -29.6470  -12.9290   16.7460 C   0  0  0  0  0  2  0  0  0  0  0  0
  -28.4180  -12.7520   17.6480 C   0  0  0  0  0  2  0  0  0  0  0  0
  -28.5500  -13.5980   18.9380 C   0  0  0  0  0  3  0  0  0  0  0  0
  -29.9190  -13.4030   19.6230 C   0  0  0  0  0  2  0  0  0  0  0  0
  -31.0150  -13.6030   18.6560 N   0  0  0  0  0  0  0  0  0  0  0  0
  -32.5620  -14.8240   17.5800 O   0  0  0  0  0  0  0  0  0  0  0  0
  -26.8130  -14.2200   20.7390 C   0  0  0  0  0  0  0  0  0  0  0  0
  -25.8070  -13.4970   21.3290 C   0  0  0  0  0  0  0  0  0  0  0  0
  -25.8950  -12.1810   20.7820 C   0  0  0  0  0  0  0  0  0  0  0  0
  -27.4520  -13.3440   19.8710 N   0  0  0  0  0  0  0  0  0  0  0  0
  -26.9290  -12.0940   19.9520 N   0  0  0  0  0  0  0  0  0  0  0  0
  -25.0230  -11.0120   20.9630 C   0  0  0  0  0  0  0  0  0  0  0  0
  -25.4960   -9.8230   21.5650 C   0  0  0  0  0  3  0  0  0  0  0  0
  -24.6340   -8.7170   21.7430 C   0  0  0  0  0  3  0  0  0  0  0  0
  -23.2840   -8.8010   21.3230 C   0  0  0  0  0  0  0  0  0  0  0  0
  -22.8240   -9.9760   20.7030 C   0  0  0  0  0  3  0  0  0  0  0  0
  -23.6820  -11.0720   20.5240 C   0  0  0  0  0  3  0  0  0  0  0  0
  -22.3810   -7.7700   21.4330 O   0  0  0  0  0  0  0  0  0  0  0  0
  -22.3920   -6.9170   22.5070 C   0  0  0  0  0  0  0  0  0  0  0  0
  -22.2380   -7.3840   23.8320 C   0  0  0  0  0  3  0  0  0  0  0  0
  -22.1840   -6.4640   24.8990 C   0  0  0  0  0  3  0  0  0  0  0  0
  -22.2730   -5.0820   24.6410 C   0  0  0  0  0  0  0  0  0  0  0  0
  -22.4190   -4.6180   23.3220 C   0  0  0  0  0  3  0  0  0  0  0  0
  -22.4750   -5.5340   22.2580 C   0  0  0  0  0  0  0  0  0  0  0  0
  -22.5980   -5.0820   20.9860 F   0  0  0  0  0  0  0  0  0  0  0  0
  -22.2110   -4.1990   25.6630 F   0  0  0  0  0  0  0  0  0  0  0  0
  -24.7590  -14.0230   22.2670 C   0  0  0  0  0  0  0  0  0  0  0  0
  -24.3360  -13.2090   23.2300 N   0  0  0  0  0  0  0  0  0  0  0  0
  -24.3450  -15.1760   22.1870 O   0  0  0  0  0  0  0  0  0  0  0  0
  -24.6930  -12.2700   23.3160 H   0  0  0  0  0  0  0  0  0  0  0  0
  -23.6540  -13.5420   23.8930 H   0  0  0  0  0  0  0  0  0  0  0  0
  -27.2160  -15.5440   20.8460 N   0  0  0  0  0  0  0  0  0  0  0  0
  -26.7670  -16.2070   21.4720 H   0  0  0  0  0  0  0  0  0  0  0  0
  -28.0070  -15.9330   20.3480 H   0  0  0  0  0  0  0  0  0  0  0  0
  -33.3900  -18.0030   20.1990 C   0  0  0  0  0  1  0  0  0  0  0  0
  -34.8250  -16.0510   19.5630 C   0  0  0  0  0  1  0  0  0  0  0  0
  -33.3900  -16.6380   19.4580 C   0  0  0  0  0  3  0  0  0  0  0  0
  -27.4340  -20.2930   21.1040 N   0  0  0  0  0  4  0  0  0  0  0  0
  -26.7180  -19.6200   20.8960 H   0  0  0  0  0  0  0  0  0  0  0  0
  -27.7030  -20.1700   22.0640 H   0  0  0  0  0  0  0  0  0  0  0  0
  -26.8190  -21.6280   20.9660 C   0  0  0  0  0  2  0  0  0  0  0  0
  -27.7950  -22.7530   20.5340 C   0  0  0  0  0  2  0  0  0  0  0  0
  -27.2170  -24.1430   20.7800 C   0  0  0  0  0  2  0  0  0  0  0  0
  -28.1560  -25.2940   20.3600 C   0  0  0  0  0  2  0  0  0  0  0  0
  -27.6030  -26.6180   20.3240 O   0  0  0  0  0  0  0  0  0  0  0  0
  -28.2280  -32.0080   24.9660 C   0  0  0  0  0  0  0  0  0  0  0  0
  -27.1960  -27.2040   21.4990 C   0  0  0  0  0  0  0  0  0  0  0  0
  -26.7610  -30.1400   25.6540 C   0  0  0  0  0  3  0  0  0  0  0  0
  -26.2250  -28.4380   23.8460 C   0  0  0  0  0  0  0  0  0  0  0  0
  -27.1330  -30.6660   23.1780 C   0  0  0  0  0  2  0  0  0  0  0  0
  -26.9320  -29.1900   22.9020 C   0  0  0  0  0  0  0  0  0  0  0  0
  -27.4330  -28.5770   21.7310 C   0  0  0  0  0  3  0  0  0  0  0  0
  -26.4330  -26.4800   22.4440 C   0  0  0  0  0  3  0  0  0  0  0  0
  -25.9830  -27.0780   23.6300 C   0  0  0  0  0  3  0  0  0  0  0  0
  -25.7150  -29.1610   25.0690 C   0  0  0  0  0  2  0  0  0  0  0  0
  -27.4310  -30.9650   24.5980 N   0  0  0  0  0  0  0  0  0  0  0  0
  -28.3740  -32.3140   26.1590 O   0  0  0  0  0  0  0  0  0  0  0  0
  -27.7580  -29.3320   26.5130 C   0  0  0  0  0  0  0  0  0  0  0  0
  -27.5200  -29.3160   27.8340 N   0  0  0  0  0  0  0  0  0  0  0  0
  -28.6940  -28.7210   25.9920 O   0  0  0  0  0  0  0  0  0  0  0  0
  -26.7230  -29.8350   28.1750 H   0  0  0  0  0  0  0  0  0  0  0  0
  -28.0580  -28.9510   31.3860 C   0  0  0  0  0  0  0  0  0  0  0  0
  -28.3050  -28.5980   28.8360 C   0  0  0  0  0  3  0  0  0  0  0  0
  -27.7300  -27.1850   29.0760 C   0  0  0  0  0  2  0  0  0  0  0  0
  -26.7320  -27.1260   30.2370 C   0  0  0  0  0  2  0  0  0  0  0  0
  -27.3870  -27.5960   31.5400 C   0  0  0  0  0  2  0  0  0  0  0  0
  -28.4750  -29.4260   30.1140 C   0  0  0  0  0  0  0  0  0  0  0  0
  -29.0580  -30.7090   30.0210 C   0  0  0  0  0  3  0  0  0  0  0  0
  -29.2370  -31.5040   31.1680 C   0  0  0  0  0  3  0  0  0  0  0  0
  -28.8390  -31.0200   32.4270 C   0  0  0  0  0  3  0  0  0  0  0  0
  -28.2490  -29.7470   32.5340 C   0  0  0  0  0  3  0  0  0  0  0  0
  -28.9660  -32.8790   23.9050 C   0  0  0  0  0  3  0  0  0  0  0  0
  -28.8330  -34.2850   24.3180 N   0  0  0  0  0  0  0  0  0  0  0  0
  -27.9870  -35.1590   23.7620 C   0  0  0  0  0  0  0  0  0  0  0  0
  -27.2880  -34.8860   22.7790 O   0  0  0  0  0  0  0  0  0  0  0  0
  -29.3290  -34.5490   25.1560 H   0  0  0  0  0  0  0  0  0  0  0  0
  -26.6050  -36.6820   25.2050 C   0  0  0  0  0  1  0  0  0  0  0  0
  -27.8990  -36.5650   24.3860 C   0  0  0  0  0  3  0  0  0  0  0  0
  -29.2750  -37.7880   22.7620 C   0  0  0  0  0  1  0  0  0  0  0  0
  -27.9610  -37.6550   23.3850 N   0  0  0  0  0  0  0  0  0  0  0  0
  -27.7180  -38.5440   23.8080 H   0  0  0  0  0  0  0  0  0  0  0  0
  -30.4800  -32.4800   23.7260 C   0  0  1  0  0  0  0  0  0  0  0  0
  -31.2520  -32.3550   25.0620 C   0  0  0  0  0  1  0  0  0  0  0  0
  -30.6040  -31.1340   22.9780 C   0  0  0  0  0  1  0  0  0  0  0  0
  -31.1950  -33.5230   22.8330 C   0  0  0  0  0  1  0  0  0  0  0  0
  1  5  1  0
  1 50  1  0
  2  4  1  0
  3  5  1  0
  4  7  1  0
  5  4  2  0
  6  2  2  0
  8  3  2  0
  8  6  1  0
 10  6  1  0
 10  9  1  1
 11 17  1  0
 11 10  1  0
 12 17  1  0
 13 12  1  0
 13 14  1  0
 15 14  1  0
 15 16  1  0
 15 22  1  0
 17 16  1  0
 18 11  2  0
 19 44  1  0
 19 20  2  0
 20 39  1  0
 21 24  1  0
 21 20  1  0
 22 23  1  0
 22 19  1  0
 23 21  2  0
 24 25  1  0
 25 26  2  0
 27 30  1  0
 27 26  1  0
 28 27  2  0
 29 28  1  0
 29 24  2  0
 30 31  1  0
 31 32  1  0
 32 33  2  0
 34 33  1  0
 34 38  1  0
 35 34  2  0
 36 31  2  0
 36 35  1  0
 37 36  1  0
 39 40  1  0
 40 42  1  0
 40 43  1  0
 41 39  2  0
 44 45  1  0
 46 44  1  0
 49 48  1  0
 49 10  1  0
 49 47  1  0
 50 52  1  0
 51 50  1  0
 53 50  1  0
 54 55  1  0
 54 53  1  0
 56 55  1  0
 57 56  1  0
 57 59  1  0
 58 69  2  0
 59 64  2  0
 59 65  1  0
 60 70  1  0
 61 67  1  0
 62 68  1  0
 63 62  1  0
 63 61  2  0
 64 63  1  0
 65 66  2  0
 66 61  1  0
 67 60  1  0
 68 58  1  0
 68 60  1  0
 70 71  1  0
 71 73  1  0
 72 70  2  0
 74 78  1  0
 74 83  1  0
 75 71  1  0
 75 76  1  0
 75 79  1  0
 76 77  1  0
 77 78  1  0
 79 74  2  0
 80 79  1  0
 80 81  2  0
 81 82  1  0
 82 83  2  0
 84 85  1  0
 84 58  1  0
 85 88  1  0
 86 85  1  0
 86 90  1  0
 87 86  2  0
 90 89  1  0
 91 92  1  0
 92 93  1  0
 92 90  1  0
 94 84  1  0
 94 95  1  1
 96 94  1  0
 97 94  1  0
M  ISO  4  10 100  11 100  56 101  57 101
M  END
>  <TORSDO>  (84) 
F 24

>  <SCORE>  (84) 
1.317

>  <name>  (84) 
84

>  <ligand_id>  (84) 
84

>  <original_smiles>  (84) 
[H]c1nc(C(C(=O)N2C([H])([H])C([H])([H])C([H])([H])C([H])(n3nc(-c4c([H])c([H])c(Oc5c([H])c([H])c(F)c([H])c5F)c([H])c4[H])c(C(=O)N([H])[H])c3N([H])[H])C2([H])[H])(C([H])([H])[H])C([H])(C([H])([H])[H])C([H])([H])[H])c([H])c(C([H])([H])[H])c1C([H])([H])[N+]([H])([H])C([H])([H])C([H])([H])C([H])([H])C([H])([H])Oc1c([H])c([H])c2c(c1[H])C([H])([H])N(C(=O)C([H])(N([H])C(=O)C([H])(N([H])C([H])([H])[H])C([H])([H])[H])C(C([H])([H])[H])(C([H])([H])[H])C([H])([H])[H])C([H])(C(=O)N([H])C1([H])c3c([H])c([H])c([H])c([H])c3C([H])([H])C([H])([H])C1([H])[H])C2([H])[H]

>  <smiles>  (84) 
[H]c1nc(C(C(=O)N2C([H])([H])C([H])([H])C([H])([H])C([H])(n3nc(-c4c([H])c([H])c(Oc5c([H])c([H])c(F)c([H])c5F)c([H])c4[H])c(C(=O)N([H])[H])c3N([H])[H])C2([H])[H])(C([H])([H])[H])C([H])(C([H])([H])[H])C([H])([H])[H])c([H])c(C([H])([H])[H])c1C([H])([H])[N+]([H])([H])C([H])([H])C([H])([H])C([H])([H])C([H])([H])Oc1c([H])c([H])c2c(c1[H])C([H])([H])N(C(=O)C([H])(N([H])C(=O)C([H])(N([H])C([H])([H])[H])C([H])([H])[H])C(C([H])([H])[H])(C([H])([H])[H])C([H])([H])[H])C([H])(C(=O)N([H])C1([H])c3c([H])c([H])c([H])c([H])c3C([H])([H])C([H])([H])C1([H])[H])C2([H])[H]

$$$$
85:0:0
     RDKit          3D

 95103  0  0  1  0  0  0  0  0999 V2000
  -29.1900  -19.8940   20.5950 C   0  0  0  0  0  3  0  0  0  0  0  0
  -29.5660  -19.2190   19.4180 C   0  0  0  0  0  0  0  0  0  0  0  0
  -29.1970  -21.3030   20.6200 C   0  0  0  0  0  0  0  0  0  0  0  0
  -29.9360  -19.9960   18.2980 C   0  0  0  0  0  0  0  0  0  0  0  0
  -29.6090  -21.9950   19.4570 C   0  0  0  0  0  0  0  0  0  0  0  0
  -30.3310  -19.3770   16.9680 C   0  0  0  0  0  1  0  0  0  0  0  0
  -29.9540  -21.3420   18.3260 N   0  0  0  0  0  0  0  0  0  0  0  0
  -29.8090  -22.1880   22.9350 C   0  0  0  0  0  1  0  0  0  0  0  0
  -28.7150  -22.0230   21.8750 C   0  0  0  0  0  2  0  0  0  0  0  0
  -29.5330  -17.6960   19.3750 C   0  0  0  0  0  2  0  0  0  0  0  0
  -30.9110  -17.0550   19.6280 C   0  0  0  0  0  2  0  0  0  0  0  0
  -31.0260  -16.2360   20.9340 C   0  0  0  0  0  2  0  0  0  0  0  0
  -31.0690  -13.8230   20.2690 C   0  0  0  0  0  0  0  0  0  0  0  0
  -30.7320  -11.5080   19.4910 C   0  0  0  0  0  2  0  0  0  0  0  0
  -29.8110  -11.4870   18.2560 C   0  0  0  0  0  2  0  0  0  0  0  0
  -28.3290  -11.4540   18.6780 C   0  0  0  0  0  2  0  0  0  0  0  0
  -27.9870  -12.5280   19.7450 C   0  0  0  0  0  3  0  0  0  0  0  0
  -29.0140  -12.4980   20.8970 C   0  0  0  0  0  2  0  0  0  0  0  0
  -30.3590  -12.6660   20.3140 N   0  0  0  0  0  0  0  0  0  0  0  0
  -32.1610  -13.9240   19.7030 O   0  0  0  0  0  0  0  0  0  0  0  0
  -30.4760  -14.8820   20.8390 N   0  0  0  0  0  0  0  0  0  0  0  0
  -29.5860  -14.7110   21.2820 H   0  0  0  0  0  0  0  0  0  0  0  0
  -25.6400  -13.3330   20.4410 C   0  0  0  0  0  0  0  0  0  0  0  0
  -24.5220  -12.6520   20.8430 C   0  0  0  0  0  0  0  0  0  0  0  0
  -24.8860  -11.2710   20.8560 C   0  0  0  0  0  0  0  0  0  0  0  0
  -26.6190  -12.3710   20.2370 N   0  0  0  0  0  0  0  0  0  0  0  0
  -26.1670  -11.1280   20.5420 N   0  0  0  0  0  0  0  0  0  0  0  0
  -24.0730  -10.0710   21.0960 C   0  0  0  0  0  0  0  0  0  0  0  0
  -24.4530   -9.1000   22.0480 C   0  0  0  0  0  3  0  0  0  0  0  0
  -23.6470   -7.9640   22.2730 C   0  0  0  0  0  3  0  0  0  0  0  0
  -22.4460   -7.7900   21.5450 C   0  0  0  0  0  0  0  0  0  0  0  0
  -22.0860   -8.7480   20.5800 C   0  0  0  0  0  3  0  0  0  0  0  0
  -22.8920   -9.8750   20.3530 C   0  0  0  0  0  3  0  0  0  0  0  0
  -21.6130   -6.7060   21.6770 O   0  0  0  0  0  0  0  0  0  0  0  0
  -21.5640   -5.9740   22.8360 C   0  0  0  0  0  0  0  0  0  0  0  0
  -21.1230   -6.5350   24.0540 C   0  0  0  0  0  3  0  0  0  0  0  0
  -21.0230   -5.7280   25.2060 C   0  0  0  0  0  3  0  0  0  0  0  0
  -21.3520   -4.3610   25.1390 C   0  0  0  0  0  0  0  0  0  0  0  0
  -21.7870   -3.7990   23.9260 C   0  0  0  0  0  3  0  0  0  0  0  0
  -21.8900   -4.6030   22.7760 C   0  0  0  0  0  0  0  0  0  0  0  0
  -22.2880   -4.0520   21.6050 F   0  0  0  0  0  0  0  0  0  0  0  0
  -21.2490   -3.5840   26.2420 F   0  0  0  0  0  0  0  0  0  0  0  0
  -23.1650  -13.2360   21.1060 C   0  0  0  0  0  0  0  0  0  0  0  0
  -22.3860  -12.6080   21.9790 N   0  0  0  0  0  0  0  0  0  0  0  0
  -22.8070  -14.2860   20.5730 O   0  0  0  0  0  0  0  0  0  0  0  0
  -22.6890  -11.7580   22.4310 H   0  0  0  0  0  0  0  0  0  0  0  0
  -21.4740  -12.9820   22.1970 H   0  0  0  0  0  0  0  0  0  0  0  0
  -25.9020  -14.6800   20.2110 N   0  0  0  0  0  0  0  0  0  0  0  0
  -25.1840  -15.3910   20.2920 H   0  0  0  0  0  0  0  0  0  0  0  0
  -26.7770  -15.0390   19.8520 H   0  0  0  0  0  0  0  0  0  0  0  0
  -29.6210  -23.5260   19.3910 C   0  0  0  0  0  2  0  0  0  0  0  0
  -30.5940  -24.1680   18.3740 C   0  0  0  0  0  2  0  0  0  0  0  0
  -29.8810  -24.7650   17.1470 C   0  0  0  0  0  2  0  0  0  0  0  0
  -30.6170  -25.9670   16.5310 C   0  0  0  0  0  2  0  0  0  0  0  0
  -29.8130  -26.5630   15.5170 O   0  0  0  0  0  0  0  0  0  0  0  0
  -25.4080  -27.9950   20.9180 C   0  0  0  0  0  0  0  0  0  0  0  0
  -28.5490  -26.9000   15.9280 C   0  0  0  0  0  0  0  0  0  0  0  0
  -24.3430  -27.6810   18.7050 C   0  0  0  0  0  3  0  0  0  0  0  0
  -25.9370  -27.6030   16.7140 C   0  0  0  0  0  0  0  0  0  0  0  0
  -26.7450  -28.5350   18.8910 C   0  0  0  0  0  2  0  0  0  0  0  0
  -27.0210  -27.8660   17.5630 C   0  0  0  0  0  0  0  0  0  0  0  0
  -28.3290  -27.5140   17.1770 C   0  0  0  0  0  3  0  0  0  0  0  0
  -27.4570  -26.6470   15.0740 C   0  0  0  0  0  3  0  0  0  0  0  0
  -26.1480  -26.9860   15.4670 C   0  0  0  0  0  3  0  0  0  0  0  0
  -24.5680  -28.0170   17.2060 C   0  0  0  0  0  2  0  0  0  0  0  0
  -25.5180  -28.0480   19.5610 N   0  0  0  0  0  0  0  0  0  0  0  0
  -24.3370  -27.6880   21.4620 O   0  0  0  0  0  0  0  0  0  0  0  0
  -23.9460  -26.1910   18.8190 C   0  0  0  0  0  0  0  0  0  0  0  0
  -22.7270  -25.8630   18.3620 N   0  0  0  0  0  0  0  0  0  0  0  0
  -24.7320  -25.3600   19.2810 O   0  0  0  0  0  0  0  0  0  0  0  0
  -22.1400  -26.6050   18.0080 H   0  0  0  0  0  0  0  0  0  0  0  0
  -19.8710  -23.9420   17.2700 C   0  0  0  0  0  0  0  0  0  0  0  0
  -22.1550  -24.5180   18.3330 C   0  0  0  0  0  3  0  0  0  0  0  0
  -22.7800  -23.6720   17.2000 C   0  0  0  0  0  2  0  0  0  0  0  0
  -21.9840  -23.7300   15.8930 C   0  0  0  0  0  2  0  0  0  0  0  0
  -20.5530  -23.2290   16.1140 C   0  0  0  0  0  2  0  0  0  0  0  0
  -20.6240  -24.5610   18.3030 C   0  0  0  0  0  0  0  0  0  0  0  0
  -19.9410  -25.2400   19.3350 C   0  0  0  0  0  3  0  0  0  0  0  0
  -18.5360  -25.3080   19.3470 C   0  0  0  0  0  3  0  0  0  0  0  0
  -17.7950  -24.6800   18.3300 C   0  0  0  0  0  3  0  0  0  0  0  0
  -18.4610  -23.9950   17.2990 C   0  0  0  0  0  3  0  0  0  0  0  0
  -26.6120  -28.3390   21.8510 C   0  0  0  0  0  3  0  0  0  0  0  0
  -26.0860  -29.1200   22.9780 N   0  0  0  0  0  0  0  0  0  0  0  0
  -26.1490  -30.4540   23.0710 C   0  0  0  0  0  0  0  0  0  0  0  0
  -26.7270  -31.1580   22.2390 O   0  0  0  0  0  0  0  0  0  0  0  0
  -25.5490  -28.6140   23.6670 H   0  0  0  0  0  0  0  0  0  0  0  0
  -24.0910  -31.6710   23.8540 C   0  0  0  0  0  1  0  0  0  0  0  0
  -25.4590  -31.1140   24.2810 C   0  0  0  0  0  3  0  0  0  0  0  0
  -27.4520  -31.6970   25.5890 C   0  0  0  0  0  1  0  0  0  0  0  0
  -26.2620  -32.1900   24.9010 N   0  0  0  0  0  0  0  0  0  0  0  0
  -25.7060  -32.7160   25.5690 H   0  0  0  0  0  0  0  0  0  0  0  0
  -27.3840  -27.0620   22.3660 C   0  0  1  0  0  0  0  0  0  0  0  0
  -26.4630  -25.9860   22.9870 C   0  0  0  0  0  1  0  0  0  0  0  0
  -28.1730  -26.4010   21.2120 C   0  0  0  0  0  1  0  0  0  0  0  0
  -28.4260  -27.4750   23.4330 C   0  0  0  0  0  1  0  0  0  0  0  0
  1  3  1  0
  2  1  2  0
  3  9  1  0
  4  7  2  0
  4  2  1  0
  5  3  2  0
  6  4  1  0
  7  5  1  0
  9  8  1  0
 10  2  1  0
 10 11  1  0
 11 12  1  0
 13 19  1  0
 13 21  1  0
 14 19  1  0
 15 16  1  0
 15 14  1  0
 17 16  1  0
 17 26  1  0
 17 18  1  0
 19 18  1  0
 20 13  2  0
 21 12  1  0
 21 22  1  0
 23 24  2  0
 24 25  1  0
 24 43  1  0
 25 28  1  0
 26 23  1  0
 26 27  1  0
 27 25  2  0
 28 29  1  0
 29 30  2  0
 31 34  1  0
 31 30  1  0
 32 31  2  0
 33 32  1  0
 33 28  2  0
 34 35  1  0
 35 36  1  0
 36 37  2  0
 38 37  1  0
 38 42  1  0
 39 38  2  0
 40 35  2  0
 40 39  1  0
 41 40  1  0
 43 44  1  0
 44 47  1  0
 44 46  1  0
 45 43  2  0
 48 49  1  0
 48 23  1  0
 50 48  1  0
 51  5  1  0
 52 51  1  0
 53 52  1  0
 54 53  1  0
 55 57  1  0
 55 54  1  0
 56 67  2  0
 57 62  1  0
 58 68  1  0
 58 66  1  0
 59 65  1  0
 59 61  1  0
 60 66  1  0
 61 60  1  0
 62 61  2  0
 63 64  1  0
 63 57  2  0
 64 59  2  0
 65 58  1  0
 66 56  1  0
 68 70  2  0
 69 68  1  0
 71 69  1  0
 72 81  2  0
 72 77  1  0
 73 69  1  0
 74 73  1  0
 75 76  1  0
 75 74  1  0
 76 72  1  0
 77 73  1  0
 77 78  2  0
 78 79  1  0
 80 79  2  0
 81 80  1  0
 82 56  1  0
 82 92  1  0
 82 83  1  0
 83 84  1  0
 83 86  1  0
 84 88  1  0
 85 84  2  0
 88 87  1  0
 88 90  1  0
 90 91  1  0
 90 89  1  0
 92 93  1  1
 92 95  1  0
 94 92  1  0
M  ISO  4  13 100  21 100  54 101  55 101
M  END
>  <TORSDO>  (85) 
F 24

>  <SCORE>  (85) 
-9.354

>  <name>  (85) 
85

>  <ligand_id>  (85) 
85

>  <original_smiles>  (85) 
[H]c1c([H])c([H])c2c(c1[H])C([H])([H])C([H])([H])C([H])([H])C2([H])N([H])C(=O)C1([H])N(C(=O)C([H])(N([H])C(=O)C([H])(N([H])C([H])([H])[H])C([H])([H])[H])C(C([H])([H])[H])(C([H])([H])[H])C([H])([H])[H])C([H])([H])c2c([H])c(OC([H])([H])C([H])([H])C([H])([H])C([H])([H])c3nc(C([H])([H])[H])c(C([H])([H])C([H])([H])C([H])([H])N([H])C(=O)N4C([H])([H])C([H])([H])C([H])([H])C([H])(n5nc(-c6c([H])c([H])c(Oc7c([H])c([H])c(F)c([H])c7F)c([H])c6[H])c(C(=O)N([H])[H])c5N([H])[H])C4([H])[H])c([H])c3C([H])([H])C([H])([H])[H])c([H])c([H])c2C1([H])[H]

>  <smiles>  (85) 
[H]c1c([H])c([H])c2c(c1[H])C([H])([H])C([H])([H])C([H])([H])C2([H])N([H])C(=O)C1([H])N(C(=O)C([H])(N([H])C(=O)C([H])(N([H])C([H])([H])[H])C([H])([H])[H])C(C([H])([H])[H])(C([H])([H])[H])C([H])([H])[H])C([H])([H])c2c([H])c(OC([H])([H])C([H])([H])C([H])([H])C([H])([H])c3nc(C([H])([H])[H])c(C([H])([H])C([H])([H])C([H])([H])N([H])C(=O)N4C([H])([H])C([H])([H])C([H])([H])C([H])(n5nc(-c6c([H])c([H])c(Oc7c([H])c([H])c(F)c([H])c7F)c([H])c6[H])c(C(=O)N([H])[H])c5N([H])[H])C4([H])[H])c([H])c3C([H])([H])C([H])([H])[H])c([H])c([H])c2C1([H])[H]

$$$$
86:0:0
     RDKit          3D

 97105  0  0  1  0  0  0  0  0999 V2000
  -33.5230  -22.4170   20.0640 C   0  0  0  0  0  2  0  0  0  0  0  0
  -30.5580  -20.1830   20.2200 C   0  0  0  0  0  0  0  0  0  0  0  0
  -33.2380  -19.8600   19.9690 C   0  0  0  0  0  0  0  0  0  0  0  0
  -31.1470  -18.8910   20.1530 C   0  0  0  0  0  0  0  0  0  0  0  0
  -32.6580  -21.1520   20.0460 C   0  0  0  0  0  0  0  0  0  0  0  0
  -29.0580  -20.4040   20.2910 C   0  0  0  0  0  1  0  0  0  0  0  0
  -34.7320  -19.6360   19.8300 C   0  0  0  0  0  1  0  0  0  0  0  0
  -32.4860  -18.7390   20.0200 N   0  0  0  0  0  0  0  0  0  0  0  0
  -31.3160  -21.3060   20.1900 N   0  0  0  0  0  0  0  0  0  0  0  0
  -30.3490  -17.5940   20.1620 C   0  0  0  0  0  2  0  0  0  0  0  0
  -30.5750  -16.7480   21.4360 C   0  0  0  0  0  2  0  0  0  0  0  0
  -30.6830  -14.4310   20.5570 C   0  0  0  0  0  0  0  0  0  0  0  0
  -30.3310  -12.3360   19.3180 C   0  0  0  0  0  2  0  0  0  0  0  0
  -29.3790  -12.5910   18.1320 C   0  0  0  0  0  2  0  0  0  0  0  0
  -27.9100  -12.4510   18.5730 C   0  0  0  0  0  2  0  0  0  0  0  0
  -27.5930  -13.2580   19.8610 C   0  0  0  0  0  3  0  0  0  0  0  0
  -28.6520  -12.9890   20.9540 C   0  0  0  0  0  2  0  0  0  0  0  0
  -29.9810  -13.2830   20.3860 N   0  0  0  0  0  0  0  0  0  0  0  0
  -31.7640  -14.6520   20.0060 O   0  0  0  0  0  0  0  0  0  0  0  0
  -30.0740  -15.3780   21.2840 N   0  0  0  0  0  0  0  0  0  0  0  0
  -29.1870  -15.1430   21.7070 H   0  0  0  0  0  0  0  0  0  0  0  0
  -25.1910  -13.8580   20.5700 C   0  0  0  0  0  0  0  0  0  0  0  0
  -24.1250  -13.0810   20.9380 C   0  0  0  0  0  0  0  0  0  0  0  0
  -24.5920  -11.7320   20.9080 C   0  0  0  0  0  0  0  0  0  0  0  0
  -26.2400  -12.9820   20.3410 N   0  0  0  0  0  0  0  0  0  0  0  0
  -25.8810  -11.6980   20.5970 N   0  0  0  0  0  0  0  0  0  0  0  0
  -23.8720  -10.4660   21.0980 C   0  0  0  0  0  0  0  0  0  0  0  0
  -24.3260   -9.4880   22.0110 C   0  0  0  0  0  3  0  0  0  0  0  0
  -23.6020   -8.2890   22.1910 C   0  0  0  0  0  3  0  0  0  0  0  0
  -22.4150   -8.0580   21.4590 C   0  0  0  0  0  0  0  0  0  0  0  0
  -21.9800   -9.0250   20.5350 C   0  0  0  0  0  3  0  0  0  0  0  0
  -22.7030  -10.2160   20.3530 C   0  0  0  0  0  3  0  0  0  0  0  0
  -21.6640   -6.9100   21.5480 O   0  0  0  0  0  0  0  0  0  0  0  0
  -21.6570   -6.1410   22.6840 C   0  0  0  0  0  0  0  0  0  0  0  0
  -21.2940   -6.6710   23.9410 C   0  0  0  0  0  3  0  0  0  0  0  0
  -21.2350   -5.8300   25.0700 C   0  0  0  0  0  3  0  0  0  0  0  0
  -21.5270   -4.4590   24.9430 C   0  0  0  0  0  0  0  0  0  0  0  0
  -21.8850   -3.9290   23.6910 C   0  0  0  0  0  3  0  0  0  0  0  0
  -21.9460   -4.7670   22.5650 C   0  0  0  0  0  0  0  0  0  0  0  0
  -22.2680   -4.2450   21.3580 F   0  0  0  0  0  0  0  0  0  0  0  0
  -21.4640   -3.6490   26.0260 F   0  0  0  0  0  0  0  0  0  0  0  0
  -22.7280  -13.5530   21.2130 C   0  0  0  0  0  0  0  0  0  0  0  0
  -22.0090  -12.8550   22.0850 N   0  0  0  0  0  0  0  0  0  0  0  0
  -22.2820  -14.5750   20.6950 O   0  0  0  0  0  0  0  0  0  0  0  0
  -22.3870  -12.0240   22.5170 H   0  0  0  0  0  0  0  0  0  0  0  0
  -21.0720  -13.1500   22.3220 H   0  0  0  0  0  0  0  0  0  0  0  0
  -25.3550  -15.2290   20.3960 N   0  0  0  0  0  0  0  0  0  0  0  0
  -24.5880  -15.8850   20.4970 H   0  0  0  0  0  0  0  0  0  0  0  0
  -26.2080  -15.6620   20.0650 H   0  0  0  0  0  0  0  0  0  0  0  0
  -32.8290  -23.7280   19.6410 C   0  0  0  0  0  2  0  0  0  0  0  0
  -31.7590  -24.0950   20.5920 N   0  0  0  0  0  4  0  0  0  0  0  0
  -32.1450  -24.0660   21.5210 H   0  0  0  0  0  0  0  0  0  0  0  0
  -31.0640  -23.3610   20.5290 H   0  0  0  0  0  0  0  0  0  0  0  0
  -31.1400  -25.4190   20.3850 C   0  0  0  0  0  2  0  0  0  0  0  0
  -30.0840  -25.7310   21.4700 C   0  0  0  0  0  2  0  0  0  0  0  0
  -28.6350  -25.7180   20.9570 C   0  0  0  0  0  2  0  0  0  0  0  0
  -28.4800  -26.8330   20.0950 O   0  0  0  0  0  0  0  0  0  0  0  0
  -24.5960  -31.8950   23.2420 C   0  0  0  0  0  0  0  0  0  0  0  0
  -27.2790  -27.4850   20.1800 C   0  0  0  0  0  0  0  0  0  0  0  0
  -23.3970  -30.4750   21.6070 C   0  0  0  0  0  3  0  0  0  0  0  0
  -24.8600  -28.9280   20.2030 C   0  0  0  0  0  0  0  0  0  0  0  0
  -25.9150  -30.8550   21.4040 C   0  0  0  0  0  2  0  0  0  0  0  0
  -26.0110  -29.4790   20.7810 C   0  0  0  0  0  0  0  0  0  0  0  0
  -27.2250  -28.7640   20.7670 C   0  0  0  0  0  3  0  0  0  0  0  0
  -26.1150  -26.9230   19.6180 C   0  0  0  0  0  3  0  0  0  0  0  0
  -24.9030  -27.6430   19.6270 C   0  0  0  0  0  3  0  0  0  0  0  0
  -23.6100  -29.7770   20.2350 C   0  0  0  0  0  2  0  0  0  0  0  0
  -24.6530  -31.0890   22.1430 N   0  0  0  0  0  0  0  0  0  0  0  0
  -23.5140  -32.1650   23.7810 O   0  0  0  0  0  0  0  0  0  0  0  0
  -22.7500  -29.4580   22.5740 C   0  0  0  0  0  0  0  0  0  0  0  0
  -21.4260  -29.2730   22.4480 N   0  0  0  0  0  0  0  0  0  0  0  0
  -23.4350  -28.8400   23.3930 O   0  0  0  0  0  0  0  0  0  0  0  0
  -20.9360  -29.8250   21.7590 H   0  0  0  0  0  0  0  0  0  0  0  0
  -18.0560  -28.0750   22.9430 C   0  0  0  0  0  0  0  0  0  0  0  0
  -20.6120  -28.3370   23.2200 C   0  0  0  0  0  3  0  0  0  0  0  0
  -20.7180  -26.9030   22.6510 C   0  0  0  0  0  2  0  0  0  0  0  0
  -19.6190  -26.5740   21.6360 C   0  0  0  0  0  2  0  0  0  0  0  0
  -18.2360  -26.7220   22.2760 C   0  0  0  0  0  2  0  0  0  0  0  0
  -19.1730  -28.8390   23.3720 C   0  0  0  0  0  0  0  0  0  0  0  0
  -18.9530  -30.1070   23.9540 C   0  0  0  0  0  3  0  0  0  0  0  0
  -17.6490  -30.6090   24.1140 C   0  0  0  0  0  3  0  0  0  0  0  0
  -16.5450  -29.8410   23.7020 C   0  0  0  0  0  3  0  0  0  0  0  0
  -16.7500  -28.5750   23.1230 C   0  0  0  0  0  3  0  0  0  0  0  0
  -25.8820  -32.5330   23.8580 C   0  0  0  0  0  3  0  0  0  0  0  0
  -25.5670  -33.9300   24.1860 N   0  0  0  0  0  0  0  0  0  0  0  0
  -25.8990  -34.9820   23.4230 C   0  0  0  0  0  0  0  0  0  0  0  0
  -26.5710  -34.8790   22.3940 O   0  0  0  0  0  0  0  0  0  0  0  0
  -24.9720  -34.0850   24.9860 H   0  0  0  0  0  0  0  0  0  0  0  0
  -24.1630  -36.7640   23.0580 C   0  0  0  0  0  1  0  0  0  0  0  0
  -25.4020  -36.3690   23.8760 C   0  0  0  0  0  3  0  0  0  0  0  0
  -27.5310  -37.2610   24.7120 C   0  0  0  0  0  1  0  0  0  0  0  0
  -26.4310  -37.4250   23.7660 N   0  0  0  0  0  0  0  0  0  0  0  0
  -26.0200  -38.3430   23.9130 H   0  0  0  0  0  0  0  0  0  0  0  0
  -26.4090  -31.7640   25.1320 C   0  0  1  0  0  0  0  0  0  0  0  0
  -25.3230  -31.5210   26.2050 C   0  0  0  0  0  1  0  0  0  0  0  0
  -26.9980  -30.3900   24.7340 C   0  0  0  0  0  1  0  0  0  0  0  0
  -27.5580  -32.5650   25.7900 C   0  0  0  0  0  1  0  0  0  0  0  0
  2  6  1  0
  3  8  2  0
  3  5  1  0
  4 10  1  0
  4  2  2  0
  5  1  1  0
  5  9  2  0
  7  3  1  0
  8  4  1  0
  9  2  1  0
 10 11  1  0
 12 20  1  0
 13 18  1  0
 14 15  1  0
 14 13  1  0
 16 15  1  0
 16 25  1  0
 16 17  1  0
 18 12  1  0
 18 17  1  0
 19 12  2  0
 20 11  1  0
 20 21  1  0
 22 23  2  0
 23 42  1  0
 24 23  1  0
 24 27  1  0
 25 22  1  0
 25 26  1  0
 26 24  2  0
 27 28  1  0
 28 29  2  0
 30 33  1  0
 30 29  1  0
 31 30  2  0
 32 31  1  0
 32 27  2  0
 33 34  1  0
 34 35  1  0
 35 36  2  0
 37 36  1  0
 37 41  1  0
 38 37  2  0
 39 34  2  0
 39 38  1  0
 40 39  1  0
 42 43  1  0
 43 46  1  0
 43 45  1  0
 44 42  2  0
 47 48  1  0
 47 22  1  0
 49 47  1  0
 50  1  1  0
 50 51  1  0
 51 52  1  0
 53 51  1  0
 54 51  1  0
 54 55  1  0
 56 55  1  0
 57 59  1  0
 57 56  1  0
 58 69  2  0
 59 64  1  0
 60 68  1  0
 60 70  1  0
 61 67  1  0
 61 63  1  0
 62 68  1  0
 63 62  1  0
 64 63  2  0
 65 66  1  0
 65 59  2  0
 66 61  2  0
 67 60  1  0
 68 58  1  0
 70 72  2  0
 71 70  1  0
 73 71  1  0
 74 83  2  0
 74 79  1  0
 75 71  1  0
 75 79  1  0
 76 75  1  0
 77 78  1  0
 77 76  1  0
 78 74  1  0
 79 80  2  0
 80 81  1  0
 82 81  2  0
 83 82  1  0
 84 58  1  0
 84 85  1  0
 84 94  1  0
 85 88  1  0
 86 90  1  0
 86 85  1  0
 87 86  2  0
 90 89  1  0
 92 90  1  0
 92 93  1  0
 92 91  1  0
 94 97  1  1
 94 95  1  0
 96 94  1  0
M  ISO  4  12 100  20 100  56 101  57 101
M  END
>  <TORSDO>  (86) 
F 24

>  <SCORE>  (86) 
-12.796

>  <name>  (86) 
86

>  <ligand_id>  (86) 
86

>  <original_smiles>  (86) 
[H]c1c([H])c([H])c2c(c1[H])C([H])([H])C([H])([H])C([H])([H])C2([H])N([H])C(=O)C1([H])N(C(=O)C([H])(N([H])C(=O)C([H])(N([H])C([H])([H])[H])C([H])([H])[H])C(C([H])([H])[H])(C([H])([H])[H])C([H])([H])[H])C([H])([H])c2c([H])c(OC([H])([H])C([H])([H])C([H])([H])[N+]([H])([H])C([H])([H])C([H])([H])c3nc(C([H])([H])[H])c(C([H])([H])C([H])([H])N([H])C(=O)N4C([H])([H])C([H])([H])C([H])([H])C([H])(n5nc(-c6c([H])c([H])c(Oc7c([H])c([H])c(F)c([H])c7F)c([H])c6[H])c(C(=O)N([H])[H])c5N([H])[H])C4([H])[H])nc3C([H])([H])[H])c([H])c([H])c2C1([H])[H]

>  <smiles>  (86) 
[H]c1c([H])c([H])c2c(c1[H])C([H])([H])C([H])([H])C([H])([H])C2([H])N([H])C(=O)C1([H])N(C(=O)C([H])(N([H])C(=O)C([H])(N([H])C([H])([H])[H])C([H])([H])[H])C(C([H])([H])[H])(C([H])([H])[H])C([H])([H])[H])C([H])([H])c2c([H])c(OC([H])([H])C([H])([H])C([H])([H])[N+]([H])([H])C([H])([H])C([H])([H])c3nc(C([H])([H])[H])c(C([H])([H])C([H])([H])N([H])C(=O)N4C([H])([H])C([H])([H])C([H])([H])C([H])(n5nc(-c6c([H])c([H])c(Oc7c([H])c([H])c(F)c([H])c7F)c([H])c6[H])c(C(=O)N([H])[H])c5N([H])[H])C4([H])[H])nc3C([H])([H])[H])c([H])c([H])c2C1([H])[H]

$$$$
87:0:0
     RDKit          3D

 93101  0  0  1  0  0  0  0  0999 V2000
  -28.1530  -20.4610   20.9260 C   0  0  0  0  0  2  0  0  0  0  0  0
  -30.5080  -20.4590   19.9940 C   0  0  0  0  0  2  0  0  0  0  0  0
  -28.0210  -21.9680   20.5490 C   0  0  0  0  0  2  0  0  0  0  0  0
  -30.2930  -21.9640   19.6040 C   0  0  0  0  0  2  0  0  0  0  0  0
  -29.2070  -19.6100   20.1290 C   0  0  0  0  0  3  0  0  0  0  0  0
  -29.3750  -22.7050   20.6190 C   0  0  0  0  0  3  0  0  0  0  0  0
  -27.9850  -17.5100   20.9390 C   0  0  0  0  0  1  0  0  0  0  0  0
  -30.1480  -18.0910   22.0250 C   0  0  0  0  0  1  0  0  0  0  0  0
  -29.3910  -18.1020   20.6770 C   0  0  2  0  0  0  0  0  0  0  0  0
  -30.1560  -17.1020   19.7070 C   0  0  0  0  0  2  0  0  0  0  0  0
  -30.7680  -14.6000   19.6120 C   0  0  0  0  0  0  0  0  0  0  0  0
  -30.4190  -12.3940   18.5450 C   0  0  0  0  0  2  0  0  0  0  0  0
  -29.3640  -12.5760   17.4320 C   0  0  0  0  0  2  0  0  0  0  0  0
  -27.9370  -12.4280   18.0010 C   0  0  0  0  0  2  0  0  0  0  0  0
  -27.7170  -13.2660   19.2900 C   0  0  0  0  0  3  0  0  0  0  0  0
  -28.8790  -13.0670   20.2920 C   0  0  0  0  0  2  0  0  0  0  0  0
  -30.1330  -13.3890   19.5950 N   0  0  0  0  0  0  0  0  0  0  0  0
  -31.8660  -14.7700   19.0750 O   0  0  0  0  0  0  0  0  0  0  0  0
  -30.0220  -15.6490   20.0470 N   0  0  0  0  0  0  0  0  0  0  0  0
  -29.1540  -15.3930   20.4880 H   0  0  0  0  0  0  0  0  0  0  0  0
  -25.4140  -13.8750   20.2580 C   0  0  0  0  0  0  0  0  0  0  0  0
  -24.3800  -13.1060   20.7170 C   0  0  0  0  0  0  0  0  0  0  0  0
  -24.8140  -11.7510   20.6000 C   0  0  0  0  0  0  0  0  0  0  0  0
  -26.4180  -12.9900   19.8970 N   0  0  0  0  0  0  0  0  0  0  0  0
  -26.0670  -11.7040   20.1580 N   0  0  0  0  0  0  0  0  0  0  0  0
  -24.0900  -10.4950   20.8260 C   0  0  0  0  0  0  0  0  0  0  0  0
  -24.5280   -9.5520   21.7810 C   0  0  0  0  0  3  0  0  0  0  0  0
  -23.8030   -8.3600   21.9940 C   0  0  0  0  0  3  0  0  0  0  0  0
  -22.6270   -8.1030   21.2500 C   0  0  0  0  0  0  0  0  0  0  0  0
  -22.2080   -9.0350   20.2840 C   0  0  0  0  0  3  0  0  0  0  0  0
  -22.9340  -10.2180   20.0690 C   0  0  0  0  0  3  0  0  0  0  0  0
  -21.8720   -6.9610   21.3720 O   0  0  0  0  0  0  0  0  0  0  0  0
  -21.7280   -6.3190   22.5750 C   0  0  0  0  0  0  0  0  0  0  0  0
  -21.1840   -6.9670   23.7070 C   0  0  0  0  0  3  0  0  0  0  0  0
  -20.9890   -6.2480   24.9030 C   0  0  0  0  0  3  0  0  0  0  0  0
  -21.3300   -4.8840   24.9690 C   0  0  0  0  0  0  0  0  0  0  0  0
  -21.8660   -4.2360   23.8430 C   0  0  0  0  0  3  0  0  0  0  0  0
  -22.0630   -4.9510   22.6490 C   0  0  0  0  0  0  0  0  0  0  0  0
  -22.5610   -4.3180   21.5600 F   0  0  0  0  0  0  0  0  0  0  0  0
  -21.1350   -4.1910   26.1160 F   0  0  0  0  0  0  0  0  0  0  0  0
  -23.0260  -13.5970   21.1440 C   0  0  0  0  0  0  0  0  0  0  0  0
  -22.3820  -12.8920   22.0680 N   0  0  0  0  0  0  0  0  0  0  0  0
  -22.5520  -14.6390   20.6950 O   0  0  0  0  0  0  0  0  0  0  0  0
  -22.7810  -12.0490   22.4530 H   0  0  0  0  0  0  0  0  0  0  0  0
  -21.4770  -13.2000   22.3930 H   0  0  0  0  0  0  0  0  0  0  0  0
  -25.5710  -15.2470   20.0970 N   0  0  0  0  0  0  0  0  0  0  0  0
  -24.8210  -15.8960   20.3050 H   0  0  0  0  0  0  0  0  0  0  0  0
  -26.3770  -15.6920   19.6810 H   0  0  0  0  0  0  0  0  0  0  0  0
  -30.8080  -24.8320   20.6480 C   0  0  0  0  0  1  0  0  0  0  0  0
  -28.7790  -24.6990   22.0750 C   0  0  0  0  0  1  0  0  0  0  0  0
  -29.3560  -24.3150   20.6910 C   0  0  2  0  0  0  0  0  0  0  0  0
  -28.5150  -25.1240   19.6290 C   0  0  0  0  0  2  0  0  0  0  0  0
  -28.5470  -26.5850   19.8320 O   0  0  0  0  0  0  0  0  0  0  0  0
  -24.6670  -31.6750   23.0840 C   0  0  0  0  0  0  0  0  0  0  0  0
  -27.3730  -27.3410   19.8270 C   0  0  0  0  0  0  0  0  0  0  0  0
  -23.4790  -30.3020   21.4090 C   0  0  0  0  0  3  0  0  0  0  0  0
  -24.9540  -28.8510   19.9100 C   0  0  0  0  0  0  0  0  0  0  0  0
  -26.0020  -30.7120   21.2020 C   0  0  0  0  0  2  0  0  0  0  0  0
  -26.1120  -29.3620   20.5080 C   0  0  0  0  0  0  0  0  0  0  0  0
  -27.3230  -28.6180   20.4600 C   0  0  0  0  0  3  0  0  0  0  0  0
  -26.1950  -26.8810   19.1950 C   0  0  0  0  0  3  0  0  0  0  0  0
  -24.9960  -27.6160   19.2460 C   0  0  0  0  0  3  0  0  0  0  0  0
  -23.6920  -29.6810   20.0020 C   0  0  0  0  0  2  0  0  0  0  0  0
  -24.7350  -30.9120   21.9540 N   0  0  0  0  0  0  0  0  0  0  0  0
  -23.5840  -31.8990   23.6430 O   0  0  0  0  0  0  0  0  0  0  0  0
  -22.8650  -29.2300   22.3400 C   0  0  0  0  0  0  0  0  0  0  0  0
  -21.5460  -29.0040   22.2100 N   0  0  0  0  0  0  0  0  0  0  0  0
  -23.5700  -28.6070   23.1370 O   0  0  0  0  0  0  0  0  0  0  0  0
  -21.0350  -29.5630   21.5410 H   0  0  0  0  0  0  0  0  0  0  0  0
  -18.2200  -27.6640   22.6710 C   0  0  0  0  0  0  0  0  0  0  0  0
  -20.7670  -28.0150   22.9520 C   0  0  0  0  0  3  0  0  0  0  0  0
  -20.9250  -26.6050   22.3380 C   0  0  0  0  0  2  0  0  0  0  0  0
  -19.8370  -26.2670   21.3130 C   0  0  0  0  0  2  0  0  0  0  0  0
  -18.4500  -26.3400   21.9590 C   0  0  0  0  0  2  0  0  0  0  0  0
  -19.3080  -28.4570   23.1230 C   0  0  0  0  0  0  0  0  0  0  0  0
  -19.0400  -29.6940   23.7470 C   0  0  0  0  0  3  0  0  0  0  0  0
  -17.7170  -30.1400   23.9260 C   0  0  0  0  0  3  0  0  0  0  0  0
  -16.6430  -29.3440   23.4890 C   0  0  0  0  0  3  0  0  0  0  0  0
  -16.8950  -28.1080   22.8680 C   0  0  0  0  0  3  0  0  0  0  0  0
  -25.9400  -32.3210   23.7140 C   0  0  0  0  0  3  0  0  0  0  0  0
  -26.4860  -31.5280   24.9640 C   0  0  1  0  0  0  0  0  0  0  0  0
  -25.4070  -31.2350   26.0340 C   0  0  0  0  0  1  0  0  0  0  0  0
  -27.1010  -30.1770   24.5320 C   0  0  0  0  0  1  0  0  0  0  0  0
  -27.6220  -32.3320   25.6390 C   0  0  0  0  0  1  0  0  0  0  0  0
  -25.6010  -33.7010   24.0830 N   0  0  0  0  0  0  0  0  0  0  0  0
  -25.9000  -34.7810   23.3470 C   0  0  0  0  0  0  0  0  0  0  0  0
  -26.5580  -34.7190   22.3050 O   0  0  0  0  0  0  0  0  0  0  0  0
  -25.0140  -33.8200   24.8950 H   0  0  0  0  0  0  0  0  0  0  0  0
  -24.1200  -36.5360   23.0620 C   0  0  0  0  0  1  0  0  0  0  0  0
  -25.3840  -36.1440   23.8460 C   0  0  0  0  0  3  0  0  0  0  0  0
  -27.5030  -37.0670   24.6720 C   0  0  0  0  0  1  0  0  0  0  0  0
  -26.3870  -37.2270   23.7440 N   0  0  0  0  0  0  0  0  0  0  0  0
  -25.9580  -38.1320   23.9150 H   0  0  0  0  0  0  0  0  0  0  0  0
  2  5  1  0
  3  6  1  0
  3  1  1  0
  4  2  1  0
  4  6  1  0
  5  9  1  0
  5  1  1  0
  6 51  1  0
  9  7  1  1
  9  8  1  0
 10 19  1  0
 10  9  1  0
 11 19  1  0
 12 17  1  0
 13 14  1  0
 13 12  1  0
 15 14  1  0
 15 24  1  0
 15 16  1  0
 17 11  1  0
 17 16  1  0
 18 11  2  0
 19 20  1  0
 21 22  2  0
 22 41  1  0
 23 22  1  0
 23 26  1  0
 24 25  1  0
 24 21  1  0
 25 23  2  0
 26 27  1  0
 27 28  2  0
 29 32  1  0
 29 28  1  0
 30 29  2  0
 31 30  1  0
 31 26  2  0
 32 33  1  0
 33 38  2  0
 33 34  1  0
 34 35  2  0
 35 36  1  0
 36 40  1  0
 37 36  2  0
 38 37  1  0
 39 38  1  0
 41 42  1  0
 42 45  1  0
 42 44  1  0
 43 41  2  0
 46 21  1  0
 46 47  1  0
 48 46  1  0
 51 49  1  1
 51 50  1  0
 52 53  1  0
 52 51  1  0
 54 65  2  0
 55 53  1  0
 55 60  1  0
 56 64  1  0
 56 66  1  0
 57 63  1  0
 57 59  1  0
 58 64  1  0
 59 58  1  0
 60 59  2  0
 61 62  1  0
 61 55  2  0
 62 57  2  0
 63 56  1  0
 64 54  1  0
 66 68  2  0
 67 66  1  0
 69 67  1  0
 70 79  2  0
 70 75  1  0
 71 67  1  0
 71 75  1  0
 72 71  1  0
 73 74  1  0
 73 72  1  0
 74 70  1  0
 75 76  2  0
 76 77  1  0
 78 77  2  0
 79 78  1  0
 80 54  1  0
 80 85  1  0
 80 81  1  0
 81 84  1  1
 81 82  1  0
 83 81  1  0
 85 88  1  0
 86 90  1  0
 86 85  1  0
 87 86  2  0
 90 89  1  0
 92 90  1  0
 92 93  1  0
 92 91  1  0
M  ISO  4  11 100  19 100  52 101  53 101
M  END
>  <TORSDO>  (87) 
F 20

>  <SCORE>  (87) 
-12.029

>  <name>  (87) 
87

>  <ligand_id>  (87) 
87

>  <original_smiles>  (87) 
[H]c1c([H])c([H])c2c(c1[H])C([H])([H])C([H])([H])C([H])([H])C2([H])N([H])C(=O)C1([H])N(C(=O)C([H])(N([H])C(=O)C([H])(N([H])C([H])([H])[H])C([H])([H])[H])C(C([H])([H])[H])(C([H])([H])[H])C([H])([H])[H])C([H])([H])c2c([H])c(OC([H])([H])C(C([H])([H])[H])(C([H])([H])[H])C3([H])C([H])([H])C([H])([H])C([H])(C(C([H])([H])[H])(C([H])([H])[H])C([H])([H])N([H])C(=O)N4C([H])([H])C([H])([H])C([H])([H])C([H])(n5nc(-c6c([H])c([H])c(Oc7c([H])c([H])c(F)c([H])c7F)c([H])c6[H])c(C(=O)N([H])[H])c5N([H])[H])C4([H])[H])C([H])([H])C3([H])[H])c([H])c([H])c2C1([H])[H]

>  <smiles>  (87) 
[H]c1c([H])c([H])c2c(c1[H])C([H])([H])C([H])([H])C([H])([H])C2([H])N([H])C(=O)C1([H])N(C(=O)C([H])(N([H])C(=O)C([H])(N([H])C([H])([H])[H])C([H])([H])[H])C(C([H])([H])[H])(C([H])([H])[H])C([H])([H])[H])C([H])([H])c2c([H])c(OC([H])([H])C(C([H])([H])[H])(C([H])([H])[H])C3([H])C([H])([H])C([H])([H])C([H])(C(C([H])([H])[H])(C([H])([H])[H])C([H])([H])N([H])C(=O)N4C([H])([H])C([H])([H])C([H])([H])C([H])(n5nc(-c6c([H])c([H])c(Oc7c([H])c([H])c(F)c([H])c7F)c([H])c6[H])c(C(=O)N([H])[H])c5N([H])[H])C4([H])[H])C([H])([H])C3([H])[H])c([H])c([H])c2C1([H])[H]

$$$$
88:0:0
     RDKit          3D

 93101  0  0  1  0  0  0  0  0999 V2000
  -29.4250  -20.5950   19.9080 C   0  0  0  0  0  3  0  0  0  0  0  0
  -28.0780  -20.1690   19.8130 C   0  0  0  0  0  0  0  0  0  0  0  0
  -27.3690  -22.2130   20.6220 C   0  0  0  0  0  0  0  0  0  0  0  0
  -28.7200  -22.6490   20.6990 C   0  0  0  0  0  0  0  0  0  0  0  0
  -26.1890  -23.1130   20.9540 C   0  0  0  0  0  1  0  0  0  0  0  0
  -29.7460  -21.8310   20.3560 N   0  0  0  0  0  0  0  0  0  0  0  0
  -27.0520  -20.9700   20.1880 N   0  0  0  0  0  0  0  0  0  0  0  0
  -27.7020  -18.8020   19.2660 C   0  0  0  0  0  2  0  0  0  0  0  0
  -28.2500  -17.6200   20.0850 C   0  0  0  0  0  2  0  0  0  0  0  0
  -29.6120  -17.1000   19.5870 C   0  0  0  0  0  2  0  0  0  0  0  0
  -30.8740  -15.0580   20.0140 C   0  0  0  0  0  0  0  0  0  0  0  0
  -30.7650  -12.6690   19.4120 C   0  0  0  0  0  2  0  0  0  0  0  0
  -29.8480  -12.4690   18.1910 C   0  0  0  0  0  2  0  0  0  0  0  0
  -28.3860  -12.2890   18.6380 C   0  0  0  0  0  2  0  0  0  0  0  0
  -27.9290  -13.3940   19.6280 C   0  0  0  0  0  3  0  0  0  0  0  0
  -28.9620  -13.5800   20.7650 C   0  0  0  0  0  2  0  0  0  0  0  0
  -30.2810  -13.8410   20.1580 N   0  0  0  0  0  0  0  0  0  0  0  0
  -31.9170  -15.2240   19.3710 O   0  0  0  0  0  0  0  0  0  0  0  0
  -30.2010  -16.1200   20.5170 N   0  0  0  0  0  0  0  0  0  0  0  0
  -25.5630  -14.0050   20.4430 C   0  0  0  0  0  0  0  0  0  0  0  0
  -24.5050  -13.2340   20.8460 C   0  0  0  0  0  0  0  0  0  0  0  0
  -24.9490  -11.8810   20.7600 C   0  0  0  0  0  0  0  0  0  0  0  0
  -26.5900  -13.1210   20.1520 N   0  0  0  0  0  0  0  0  0  0  0  0
  -26.2250  -11.8360   20.3940 N   0  0  0  0  0  0  0  0  0  0  0  0
  -24.2160  -10.6230   20.9460 C   0  0  0  0  0  0  0  0  0  0  0  0
  -24.6220   -9.6670   21.9020 C   0  0  0  0  0  3  0  0  0  0  0  0
  -23.8920   -8.4700   22.0760 C   0  0  0  0  0  3  0  0  0  0  0  0
  -22.7390   -8.2250   21.2920 C   0  0  0  0  0  0  0  0  0  0  0  0
  -22.3530   -9.1690   20.3240 C   0  0  0  0  0  3  0  0  0  0  0  0
  -23.0840  -10.3560   20.1500 C   0  0  0  0  0  3  0  0  0  0  0  0
  -21.9810   -7.0820   21.3750 O   0  0  0  0  0  0  0  0  0  0  0  0
  -21.8410   -6.3960   22.5550 C   0  0  0  0  0  0  0  0  0  0  0  0
  -21.3080   -7.0020   23.7130 C   0  0  0  0  0  3  0  0  0  0  0  0
  -21.1150   -6.2400   24.8820 C   0  0  0  0  0  3  0  0  0  0  0  0
  -21.4480   -4.8720   24.8950 C   0  0  0  0  0  0  0  0  0  0  0  0
  -21.9760   -4.2650   23.7400 C   0  0  0  0  0  3  0  0  0  0  0  0
  -22.1690   -5.0250   22.5730 C   0  0  0  0  0  0  0  0  0  0  0  0
  -22.6570   -4.4300   21.4580 F   0  0  0  0  0  0  0  0  0  0  0  0
  -21.2580   -4.1370   26.0140 F   0  0  0  0  0  0  0  0  0  0  0  0
  -23.1270  -13.7210   21.1940 C   0  0  0  0  0  0  0  0  0  0  0  0
  -22.4340  -13.0150   22.0810 N   0  0  0  0  0  0  0  0  0  0  0  0
  -22.6750  -14.7590   20.7150 O   0  0  0  0  0  0  0  0  0  0  0  0
  -22.8130  -12.1750   22.4920 H   0  0  0  0  0  0  0  0  0  0  0  0
  -21.5090  -13.3190   22.3510 H   0  0  0  0  0  0  0  0  0  0  0  0
  -25.7270  -15.3730   20.2750 N   0  0  0  0  0  0  0  0  0  0  0  0
  -24.9590  -16.0260   20.3880 H   0  0  0  0  0  0  0  0  0  0  0  0
  -26.5480  -15.7910   19.8580 H   0  0  0  0  0  0  0  0  0  0  0  0
  -31.6650  -17.7820   21.7330 C   0  0  0  0  0  1  0  0  0  0  0  0
  -30.6010  -16.6700   21.8210 C   0  0  0  0  0  2  0  0  0  0  0  0
  -29.1170  -24.0570   21.1210 C   0  0  0  0  0  2  0  0  0  0  0  0
  -29.0090  -25.0520   19.9540 C   0  0  0  0  0  2  0  0  0  0  0  0
  -29.1380  -26.5130   20.3880 C   0  0  0  0  0  2  0  0  0  0  0  0
  -28.8050  -27.3420   19.2780 O   0  0  0  0  0  0  0  0  0  0  0  0
  -24.6420  -31.6570   23.0890 C   0  0  0  0  0  0  0  0  0  0  0  0
  -27.5870  -27.9550   19.3980 C   0  0  0  0  0  0  0  0  0  0  0  0
  -23.5270  -30.4110   21.2660 C   0  0  0  0  0  3  0  0  0  0  0  0
  -25.0770  -29.2130   19.6310 C   0  0  0  0  0  0  0  0  0  0  0  0
  -26.0090  -31.0030   21.1130 C   0  0  0  0  0  2  0  0  0  0  0  0
  -26.1930  -29.7490   20.2880 C   0  0  0  0  0  0  0  0  0  0  0  0
  -27.4500  -29.1210   20.1770 C   0  0  0  0  0  3  0  0  0  0  0  0
  -26.4610  -27.4230   18.7360 C   0  0  0  0  0  3  0  0  0  0  0  0
  -25.2030  -28.0450   18.8570 C   0  0  0  0  0  3  0  0  0  0  0  0
  -23.7680  -29.9480   19.8030 C   0  0  0  0  0  2  0  0  0  0  0  0
  -24.7440  -31.0310   21.8840 N   0  0  0  0  0  0  0  0  0  0  0  0
  -23.5510  -31.7620   23.6640 O   0  0  0  0  0  0  0  0  0  0  0  0
  -22.9700  -29.2170   22.0700 C   0  0  0  0  0  0  0  0  0  0  0  0
  -21.6620  -28.9560   21.9210 N   0  0  0  0  0  0  0  0  0  0  0  0
  -23.7110  -28.5330   22.7800 O   0  0  0  0  0  0  0  0  0  0  0  0
  -21.1240  -29.5720   21.3280 H   0  0  0  0  0  0  0  0  0  0  0  0
  -18.3940  -27.4470   22.2220 C   0  0  0  0  0  0  0  0  0  0  0  0
  -20.9250  -27.8590   22.5470 C   0  0  0  0  0  3  0  0  0  0  0  0
  -21.1380  -26.5370   21.7740 C   0  0  0  0  0  2  0  0  0  0  0  0
  -20.0590  -26.2750   20.7190 C   0  0  0  0  0  2  0  0  0  0  0  0
  -18.6720  -26.2210   21.3670 C   0  0  0  0  0  2  0  0  0  0  0  0
  -19.4520  -28.2240   22.7600 C   0  0  0  0  0  0  0  0  0  0  0  0
  -19.1410  -29.3750   23.5180 C   0  0  0  0  0  3  0  0  0  0  0  0
  -17.8030  -29.7470   23.7460 C   0  0  0  0  0  3  0  0  0  0  0  0
  -16.7580  -28.9640   23.2270 C   0  0  0  0  0  3  0  0  0  0  0  0
  -17.0540  -27.8160   22.4680 C   0  0  0  0  0  3  0  0  0  0  0  0
  -25.8830  -32.2910   23.7900 C   0  0  0  0  0  3  0  0  0  0  0  0
  -25.5050  -33.6360   24.2380 N   0  0  0  0  0  0  0  0  0  0  0  0
  -25.8250  -34.7680   23.5970 C   0  0  0  0  0  0  0  0  0  0  0  0
  -26.5400  -34.7880   22.5900 O   0  0  0  0  0  0  0  0  0  0  0  0
  -24.8670  -33.6870   25.0190 H   0  0  0  0  0  0  0  0  0  0  0  0
  -24.0370  -36.5160   23.3350 C   0  0  0  0  0  1  0  0  0  0  0  0
  -25.2610  -36.0850   24.1580 C   0  0  0  0  0  3  0  0  0  0  0  0
  -27.3210  -36.9690   25.1600 C   0  0  0  0  0  1  0  0  0  0  0  0
  -26.2500  -37.1850   24.1910 N   0  0  0  0  0  0  0  0  0  0  0  0
  -25.8010  -38.0700   24.4070 H   0  0  0  0  0  0  0  0  0  0  0  0
  -26.4230  -31.4280   24.9970 C   0  0  1  0  0  0  0  0  0  0  0  0
  -25.3310  -31.0450   26.0250 C   0  0  0  0  0  1  0  0  0  0  0  0
  -27.0670  -30.1180   24.4810 C   0  0  0  0  0  1  0  0  0  0  0  0
  -27.5330  -32.2050   25.7440 C   0  0  0  0  0  1  0  0  0  0  0  0
  1  6  1  0
  2  1  2  0
  2  7  1  0
  3  4  1  0
  3  5  1  0
  4 50  1  0
  6  4  2  0
  7  3  2  0
  8  2  1  0
  8  9  1  0
 10  9  1  0
 10 19  1  0
 11 17  1  0
 11 19  1  0
 12 17  1  0
 13 14  1  0
 13 12  1  0
 15 14  1  0
 15 23  1  0
 15 16  1  0
 17 16  1  0
 18 11  2  0
 19 49  1  0
 20 21  2  0
 21 40  1  0
 22 21  1  0
 22 25  1  0
 23 24  1  0
 23 20  1  0
 24 22  2  0
 25 26  1  0
 26 27  2  0
 28 31  1  0
 28 27  1  0
 29 28  2  0
 30 29  1  0
 30 25  2  0
 31 32  1  0
 32 37  2  0
 32 33  1  0
 33 34  2  0
 34 35  1  0
 35 39  1  0
 36 35  2  0
 37 36  1  0
 38 37  1  0
 40 41  1  0
 41 44  1  0
 41 43  1  0
 42 40  2  0
 45 46  1  0
 45 20  1  0
 47 45  1  0
 48 49  1  0
 51 52  1  0
 51 50  1  0
 53 55  1  0
 53 52  1  0
 54 65  2  0
 55 60  1  0
 56 64  1  0
 56 66  1  0
 57 63  1  0
 57 59  1  0
 58 64  1  0
 59 58  1  0
 60 59  2  0
 61 62  1  0
 61 55  2  0
 62 57  2  0
 63 56  1  0
 64 54  1  0
 66 68  2  0
 67 66  1  0
 69 67  1  0
 70 79  2  0
 70 75  1  0
 71 67  1  0
 71 75  1  0
 72 71  1  0
 73 74  1  0
 73 72  1  0
 74 70  1  0
 75 76  2  0
 76 77  1  0
 78 77  2  0
 79 78  1  0
 80 54  1  0
 80 81  1  0
 80 90  1  0
 81 84  1  0
 82 86  1  0
 82 81  1  0
 83 82  2  0
 86 85  1  0
 86 88  1  0
 88 89  1  0
 88 87  1  0
 90 93  1  1
 90 91  1  0
 92 90  1  0
M  ISO  4  11 100  19 100  52 101  53 101
M  END
>  <TORSDO>  (88) 
F 23

>  <SCORE>  (88) 
-10.868

>  <name>  (88) 
88

>  <ligand_id>  (88) 
88

>  <original_smiles>  (88) 
[H]c1nc(C([H])([H])C([H])([H])C([H])([H])Oc2c([H])c([H])c3c(c2[H])C([H])([H])N(C(=O)C([H])(N([H])C(=O)C([H])(N([H])C([H])([H])[H])C([H])([H])[H])C(C([H])([H])[H])(C([H])([H])[H])C([H])([H])[H])C([H])(C(=O)N([H])C2([H])c4c([H])c([H])c([H])c([H])c4C([H])([H])C([H])([H])C2([H])[H])C3([H])[H])c(C([H])([H])[H])nc1C([H])([H])C([H])([H])C([H])([H])N(C(=O)N1C([H])([H])C([H])([H])C([H])([H])C([H])(n2nc(-c3c([H])c([H])c(Oc4c([H])c([H])c(F)c([H])c4F)c([H])c3[H])c(C(=O)N([H])[H])c2N([H])[H])C1([H])[H])C([H])([H])C([H])([H])[H]

>  <smiles>  (88) 
[H]c1nc(C([H])([H])C([H])([H])C([H])([H])Oc2c([H])c([H])c3c(c2[H])C([H])([H])N(C(=O)C([H])(N([H])C(=O)C([H])(N([H])C([H])([H])[H])C([H])([H])[H])C(C([H])([H])[H])(C([H])([H])[H])C([H])([H])[H])C([H])(C(=O)N([H])C2([H])c4c([H])c([H])c([H])c([H])c4C([H])([H])C([H])([H])C2([H])[H])C3([H])[H])c(C([H])([H])[H])nc1C([H])([H])C([H])([H])C([H])([H])N(C(=O)N1C([H])([H])C([H])([H])C([H])([H])C([H])(n2nc(-c3c([H])c([H])c(Oc4c([H])c([H])c(F)c([H])c4F)c([H])c3[H])c(C(=O)N([H])[H])c2N([H])[H])C1([H])[H])C([H])([H])C([H])([H])[H]

$$$$
89:0:0
     RDKit          3D

 90 98  0  0  1  0  0  0  0  0999 V2000
  -30.7040  -21.1260   21.8800 C   0  0  0  0  0  3  0  0  0  0  0  0
  -31.7490  -19.0710   22.5490 C   0  0  0  0  0  3  0  0  0  0  0  0
  -31.6630  -20.4550   22.6500 C   0  0  0  0  0  0  0  0  0  0  0  0
  -29.8420  -20.4690   20.9630 C   0  0  0  0  0  0  0  0  0  0  0  0
  -30.0610  -18.9520   20.9090 C   0  0  0  0  0  0  0  0  0  0  0  0
  -32.5960  -21.2030   23.5860 C   0  0  0  0  0  1  0  0  0  0  0  0
  -30.9710  -18.3690   21.7210 N   0  0  0  0  0  0  0  0  0  0  0  0
  -28.8530  -21.6030   20.2510 C   0  0  0  0  0  2  0  0  0  0  0  0
  -28.9810  -23.3000   20.5490 C   0  0  0  0  0  3  0  0  0  0  0  0
  -27.9950  -24.5990   20.0660 C   0  0  0  0  0  3  0  0  0  0  0  0
  -28.2280  -26.1340   20.3150 O   0  0  0  0  0  0  0  0  0  0  0  0
  -24.6440  -31.8940   23.2350 C   0  0  0  0  0  0  0  0  0  0  0  0
  -27.1820  -27.1330   20.2270 C   0  0  0  0  0  0  0  0  0  0  0  0
  -23.4340  -30.5020   21.6010 C   0  0  0  0  0  3  0  0  0  0  0  0
  -24.8690  -28.9090   20.1790 C   0  0  0  0  0  0  0  0  0  0  0  0
  -25.9900  -30.7430   21.4320 C   0  0  0  0  0  2  0  0  0  0  0  0
  -26.0520  -29.3440   20.7900 C   0  0  0  0  0  0  0  0  0  0  0  0
  -27.2070  -28.4720   20.7980 C   0  0  0  0  0  3  0  0  0  0  0  0
  -25.9750  -26.8060   19.5680 C   0  0  0  0  0  3  0  0  0  0  0  0
  -24.8450  -27.6530   19.5500 C   0  0  0  0  0  3  0  0  0  0  0  0
  -23.6510  -29.8210   20.2230 C   0  0  0  0  0  2  0  0  0  0  0  0
  -24.7110  -31.0690   22.1450 N   0  0  0  0  0  0  0  0  0  0  0  0
  -23.5600  -32.1860   23.7630 O   0  0  0  0  0  0  0  0  0  0  0  0
  -22.7490  -29.5030   22.5670 C   0  0  0  0  0  0  0  0  0  0  0  0
  -21.4200  -29.3430   22.4440 N   0  0  0  0  0  0  0  0  0  0  0  0
  -23.4160  -28.8740   23.3940 O   0  0  0  0  0  0  0  0  0  0  0  0
  -20.9370  -29.9090   21.7600 H   0  0  0  0  0  0  0  0  0  0  0  0
  -18.0310  -28.1600   22.9480 C   0  0  0  0  0  0  0  0  0  0  0  0
  -20.5910  -28.4130   23.2170 C   0  0  0  0  0  3  0  0  0  0  0  0
  -20.6860  -26.9770   22.6540 C   0  0  0  0  0  2  0  0  0  0  0  0
  -19.5850  -26.6510   21.6390 C   0  0  0  0  0  2  0  0  0  0  0  0
  -18.2020  -26.8060   22.2800 C   0  0  0  0  0  2  0  0  0  0  0  0
  -19.1530  -28.9210   23.3740 C   0  0  0  0  0  0  0  0  0  0  0  0
  -18.9370  -30.1860   23.9630 C   0  0  0  0  0  3  0  0  0  0  0  0
  -17.6330  -30.6910   24.1270 C   0  0  0  0  0  3  0  0  0  0  0  0
  -16.5260  -29.9280   23.7130 C   0  0  0  0  0  3  0  0  0  0  0  0
  -16.7270  -28.6650   23.1300 C   0  0  0  0  0  3  0  0  0  0  0  0
  -25.9250  -32.5260   23.8600 C   0  0  0  0  0  3  0  0  0  0  0  0
  -26.4320  -31.7560   25.1400 C   0  0  1  0  0  0  0  0  0  0  0  0
  -25.3370  -31.5300   26.2090 C   0  0  0  0  0  1  0  0  0  0  0  0
  -27.0060  -30.3730   24.7560 C   0  0  0  0  0  1  0  0  0  0  0  0
  -27.5860  -32.5450   25.8020 C   0  0  0  0  0  1  0  0  0  0  0  0
  -25.6160  -33.9260   24.1940 N   0  0  0  0  0  0  0  0  0  0  0  0
  -25.9340  -34.9830   23.4350 C   0  0  0  0  0  0  0  0  0  0  0  0
  -26.5830  -34.8820   22.3920 O   0  0  0  0  0  0  0  0  0  0  0  0
  -25.0370  -34.0780   25.0070 H   0  0  0  0  0  0  0  0  0  0  0  0
  -24.1880  -36.7750   23.1430 C   0  0  0  0  0  1  0  0  0  0  0  0
  -25.4590  -36.3720   23.9090 C   0  0  0  0  0  3  0  0  0  0  0  0
  -27.6180  -37.2690   24.6590 C   0  0  0  0  0  1  0  0  0  0  0  0
  -26.4830  -37.4290   23.7550 N   0  0  0  0  0  0  0  0  0  0  0  0
  -26.0790  -38.3490   23.9120 H   0  0  0  0  0  0  0  0  0  0  0  0
  -29.5780  -17.6800   20.0090 C   0  0  0  0  0  2  0  0  0  0  0  0
  -30.4560  -14.9990   20.2190 C   0  0  0  0  0  0  0  0  0  0  0  0
  -30.3380  -12.6380   19.2860 C   0  0  0  0  0  2  0  0  0  0  0  0
  -29.3890  -12.6120   18.0640 C   0  0  0  0  0  2  0  0  0  0  0  0
  -27.9290  -12.4060   18.5110 C   0  0  0  0  0  2  0  0  0  0  0  0
  -27.5470  -13.3100   19.7120 C   0  0  0  0  0  3  0  0  0  0  0  0
  -28.6200  -13.2990   20.8210 C   0  0  0  0  0  2  0  0  0  0  0  0
  -29.8860  -13.7230   20.2070 N   0  0  0  0  0  0  0  0  0  0  0  0
  -31.6270  -15.0890   19.8340 O   0  0  0  0  0  0  0  0  0  0  0  0
  -29.6470  -16.1450   20.4580 N   0  0  0  0  0  0  0  0  0  0  0  0
  -28.7740  -15.8740   20.8790 H   0  0  0  0  0  0  0  0  0  0  0  0
  -25.1790  -13.8910   20.4840 C   0  0  0  0  0  0  0  0  0  0  0  0
  -24.1170  -13.1160   20.8640 C   0  0  0  0  0  0  0  0  0  0  0  0
  -24.5790  -11.7650   20.8240 C   0  0  0  0  0  0  0  0  0  0  0  0
  -26.2150  -13.0100   20.2260 N   0  0  0  0  0  0  0  0  0  0  0  0
  -25.8650  -11.7260   20.4960 N   0  0  0  0  0  0  0  0  0  0  0  0
  -23.8500  -10.5040   21.0210 C   0  0  0  0  0  0  0  0  0  0  0  0
  -24.2900   -9.5350   21.9480 C   0  0  0  0  0  3  0  0  0  0  0  0
  -23.5640   -8.3390   22.1350 C   0  0  0  0  0  3  0  0  0  0  0  0
  -22.3800   -8.1060   21.3960 C   0  0  0  0  0  0  0  0  0  0  0  0
  -21.9570   -9.0640   20.4580 C   0  0  0  0  0  3  0  0  0  0  0  0
  -22.6850  -10.2510   20.2700 C   0  0  0  0  0  3  0  0  0  0  0  0
  -21.6230   -6.9630   21.4920 O   0  0  0  0  0  0  0  0  0  0  0  0
  -21.5890   -6.2170   22.6420 C   0  0  0  0  0  0  0  0  0  0  0  0
  -21.1830   -6.7690   23.8760 C   0  0  0  0  0  3  0  0  0  0  0  0
  -21.0960   -5.9500   25.0200 C   0  0  0  0  0  3  0  0  0  0  0  0
  -21.4030   -4.5790   24.9300 C   0  0  0  0  0  0  0  0  0  0  0  0
  -21.8000   -4.0260   23.7000 C   0  0  0  0  0  3  0  0  0  0  0  0
  -21.8900   -4.8420   22.5590 C   0  0  0  0  0  0  0  0  0  0  0  0
  -22.2520   -4.2990   21.3710 F   0  0  0  0  0  0  0  0  0  0  0  0
  -21.3110   -3.7910   26.0250 F   0  0  0  0  0  0  0  0  0  0  0  0
  -22.7250  -13.5970   21.1530 C   0  0  0  0  0  0  0  0  0  0  0  0
  -22.0070  -12.9010   22.0280 N   0  0  0  0  0  0  0  0  0  0  0  0
  -22.2850  -14.6240   20.6400 O   0  0  0  0  0  0  0  0  0  0  0  0
  -22.3820  -12.0740   22.4660 H   0  0  0  0  0  0  0  0  0  0  0  0
  -21.0700  -13.2000   22.2600 H   0  0  0  0  0  0  0  0  0  0  0  0
  -25.3420  -15.2610   20.3040 N   0  0  0  0  0  0  0  0  0  0  0  0
  -24.5700  -15.9100   20.4150 H   0  0  0  0  0  0  0  0  0  0  0  0
  -26.1690  -15.6910   19.9080 H   0  0  0  0  0  0  0  0  0  0  0  0
  1  3  1  0
  2  3  2  0
  3  6  1  0
  4  1  2  0
  5  4  1  0
  5  7  2  0
  7  2  1  0
  8  9  1  0
  8  4  1  0
 10 11  1  0
 10  9  2  0
 12 23  2  0
 13 11  1  0
 13 18  1  0
 14 22  1  0
 14 24  1  0
 15 21  1  0
 15 17  1  0
 16 22  1  0
 17 18  2  0
 17 16  1  0
 19 13  2  0
 20 19  1  0
 20 15  2  0
 21 14  1  0
 22 12  1  0
 24 26  2  0
 25 24  1  0
 27 25  1  0
 28 37  2  0
 28 33  1  0
 29 25  1  0
 29 33  1  0
 30 29  1  0
 31 32  1  0
 31 30  1  0
 32 28  1  0
 33 34  2  0
 34 35  1  0
 36 35  2  0
 37 36  1  0
 38 12  1  0
 38 43  1  0
 38 39  1  0
 39 42  1  1
 39 40  1  0
 41 39  1  0
 43 46  1  0
 44 48  1  0
 44 43  1  0
 45 44  2  0
 48 47  1  0
 50 48  1  0
 50 51  1  0
 50 49  1  0
 52 61  1  0
 52  5  1  0
 53 61  1  0
 54 59  1  0
 55 56  1  0
 55 54  1  0
 57 56  1  0
 57 66  1  0
 57 58  1  0
 59 53  1  0
 59 58  1  0
 60 53  2  0
 61 62  1  0
 63 64  2  0
 64 83  1  0
 65 64  1  0
 65 68  1  0
 66 63  1  0
 66 67  1  0
 67 65  2  0
 68 69  1  0
 69 70  2  0
 71 74  1  0
 71 70  1  0
 72 71  2  0
 73 72  1  0
 73 68  2  0
 74 75  1  0
 75 76  1  0
 76 77  2  0
 78 77  1  0
 78 82  1  0
 79 78  2  0
 80 75  2  0
 80 79  1  0
 81 80  1  0
 83 84  1  0
 84 87  1  0
 84 86  1  0
 85 83  2  0
 88 89  1  0
 88 63  1  0
 90 88  1  0
M  ISO  4  10 101  11 101  53 100  61 100
M  END
>  <TORSDO>  (89) 
F 20

>  <SCORE>  (89) 
-15.094

>  <name>  (89) 
89

>  <ligand_id>  (89) 
89

>  <original_smiles>  (89) 
[H]c1nc(C([H])([H])N([H])C(=O)N2C([H])([H])C([H])([H])C([H])([H])C([H])(n3nc(-c4c([H])c([H])c(Oc5c([H])c([H])c(F)c([H])c5F)c([H])c4[H])c(C(=O)N([H])[H])c3N([H])[H])C2([H])[H])c(C([H])([H])C([H])([H])C([H])([H])Oc2c([H])c([H])c3c(c2[H])C([H])([H])N(C(=O)C([H])(N([H])C(=O)C([H])(N([H])C([H])([H])[H])C([H])([H])[H])C(C([H])([H])[H])(C([H])([H])[H])C([H])([H])[H])C([H])(C(=O)N([H])C2([H])c4c([H])c([H])c([H])c([H])c4C([H])([H])C([H])([H])C2([H])[H])C3([H])[H])c([H])c1C([H])([H])[H]

>  <smiles>  (89) 
[H]c1nc(C([H])([H])N([H])C(=O)N2C([H])([H])C([H])([H])C([H])([H])C([H])(n3nc(-c4c([H])c([H])c(Oc5c([H])c([H])c(F)c([H])c5F)c([H])c4[H])c(C(=O)N([H])[H])c3N([H])[H])C2([H])[H])c(C([H])([H])C([H])([H])C([H])([H])Oc2c([H])c([H])c3c(c2[H])C([H])([H])N(C(=O)C([H])(N([H])C(=O)C([H])(N([H])C([H])([H])[H])C([H])([H])[H])C(C([H])([H])[H])(C([H])([H])[H])C([H])([H])[H])C([H])(C(=O)N([H])C2([H])c4c([H])c([H])c([H])c([H])c4C([H])([H])C([H])([H])C2([H])[H])C3([H])[H])c([H])c1C([H])([H])[H]

$$$$
90:0:0
     RDKit          3D

 94102  0  0  1  0  0  0  0  0999 V2000
  -27.9130  -23.0280   20.8180 C   0  0  0  0  0  0  0  0  0  0  0  0
  -27.5110  -21.9130   20.1220 C   0  0  0  0  0  0  0  0  0  0  0  0
  -28.7760  -21.3340   21.8180 C   0  0  0  0  0  0  0  0  0  0  0  0
  -29.5800  -20.5020   22.7620 C   0  0  0  0  0  1  0  0  0  0  0  0
  -28.7010  -22.6560   21.8990 N   0  0  0  0  0  0  0  0  0  0  0  0
  -28.0860  -20.8210   20.7770 N   0  0  0  0  0  0  0  0  0  0  0  0
  -25.1630  -21.7000   19.1750 C   0  0  0  0  0  1  0  0  0  0  0  0
  -26.6650  -21.8200   18.8840 C   0  0  0  0  0  2  0  0  0  0  0  0
  -27.7030  -24.4690   20.4840 C   0  0  0  0  0  2  0  0  0  0  0  0
  -28.9170  -25.0280   19.7180 C   0  0  0  0  0  2  0  0  0  0  0  0
  -29.5050  -26.3130   20.3220 C   0  0  0  0  0  2  0  0  0  0  0  0
  -29.1420  -27.4620   19.5720 O   0  0  0  0  0  0  0  0  0  0  0  0
  -24.8070  -31.6870   23.3250 C   0  0  0  0  0  0  0  0  0  0  0  0
  -27.8810  -27.9650   19.7600 C   0  0  0  0  0  0  0  0  0  0  0  0
  -23.7370  -30.3790   21.5160 C   0  0  0  0  0  3  0  0  0  0  0  0
  -25.3350  -29.1670   19.9380 C   0  0  0  0  0  0  0  0  0  0  0  0
  -26.2100  -31.0140   21.3790 C   0  0  0  0  0  2  0  0  0  0  0  0
  -26.4310  -29.7390   20.5970 C   0  0  0  0  0  0  0  0  0  0  0  0
  -27.7030  -29.1420   20.5160 C   0  0  0  0  0  3  0  0  0  0  0  0
  -26.7740  -27.3950   19.0960 C   0  0  0  0  0  3  0  0  0  0  0  0
  -25.4980  -27.9870   19.1880 C   0  0  0  0  0  3  0  0  0  0  0  0
  -24.0080  -29.8850   20.0690 C   0  0  0  0  0  2  0  0  0  0  0  0
  -24.9370  -31.0350   22.1340 N   0  0  0  0  0  0  0  0  0  0  0  0
  -23.7070  -31.7860   23.8830 O   0  0  0  0  0  0  0  0  0  0  0  0
  -23.1970  -29.1910   22.3430 C   0  0  0  0  0  0  0  0  0  0  0  0
  -21.9240  -28.8320   22.1150 N   0  0  0  0  0  0  0  0  0  0  0  0
  -23.9240  -28.6000   23.1480 O   0  0  0  0  0  0  0  0  0  0  0  0
  -21.3850  -29.3790   21.4580 H   0  0  0  0  0  0  0  0  0  0  0  0
  -18.7800  -27.0600   22.1930 C   0  0  0  0  0  0  0  0  0  0  0  0
  -21.2170  -27.7180   22.7430 C   0  0  0  0  0  3  0  0  0  0  0  0
  -21.6200  -26.3670   22.1050 C   0  0  0  0  0  2  0  0  0  0  0  0
  -20.6900  -25.9370   20.9670 C   0  0  0  0  0  2  0  0  0  0  0  0
  -19.2500  -25.8080   21.4700 C   0  0  0  0  0  2  0  0  0  0  0  0
  -19.7040  -27.9640   22.7790 C   0  0  0  0  0  0  0  0  0  0  0  0
  -19.2150  -29.1290   23.4100 C   0  0  0  0  0  3  0  0  0  0  0  0
  -17.8340  -29.3920   23.4640 C   0  0  0  0  0  3  0  0  0  0  0  0
  -16.9230  -28.4870   22.8920 C   0  0  0  0  0  3  0  0  0  0  0  0
  -17.3960  -27.3230   22.2620 C   0  0  0  0  0  3  0  0  0  0  0  0
  -26.0270  -32.3630   24.0240 C   0  0  0  0  0  3  0  0  0  0  0  0
  -25.6400  -33.7420   24.3550 N   0  0  0  0  0  0  0  0  0  0  0  0
  -25.9670  -34.8180   23.6260 C   0  0  0  0  0  0  0  0  0  0  0  0
  -26.6980  -34.7560   22.6340 O   0  0  0  0  0  0  0  0  0  0  0  0
  -24.9950  -33.8640   25.1220 H   0  0  0  0  0  0  0  0  0  0  0  0
  -24.1750  -36.5300   23.2060 C   0  0  0  0  0  1  0  0  0  0  0  0
  -25.3950  -36.1790   24.0700 C   0  0  0  0  0  3  0  0  0  0  0  0
  -27.4500  -37.1530   24.9980 C   0  0  0  0  0  1  0  0  0  0  0  0
  -26.3820  -37.2790   24.0060 N   0  0  0  0  0  0  0  0  0  0  0  0
  -25.9290  -38.1780   24.1450 H   0  0  0  0  0  0  0  0  0  0  0  0
  -26.5050  -31.5930   25.3150 C   0  0  1  0  0  0  0  0  0  0  0  0
  -25.3680  -31.2770   26.3140 C   0  0  0  0  0  1  0  0  0  0  0  0
  -27.1740  -30.2530   24.9300 C   0  0  0  0  0  1  0  0  0  0  0  0
  -27.5800  -32.4240   26.0540 C   0  0  0  0  0  1  0  0  0  0  0  0
  -28.0000  -19.4190   20.3930 C   0  0  0  0  0  2  0  0  0  0  0  0
  -29.3580  -18.8940   19.8980 C   0  0  0  0  0  2  0  0  0  0  0  0
  -29.4970  -17.3680   20.0150 C   0  0  0  0  0  2  0  0  0  0  0  0
  -30.9080  -16.8950   19.6310 C   0  0  0  0  0  2  0  0  0  0  0  0
  -31.5580  -14.5890   19.3630 C   0  0  0  0  0  0  0  0  0  0  0  0
  -31.0760  -12.3060   18.5630 C   0  0  0  0  0  2  0  0  0  0  0  0
  -30.0440  -12.3210   17.4210 C   0  0  0  0  0  2  0  0  0  0  0  0
  -28.6110  -12.2860   17.9790 C   0  0  0  0  0  2  0  0  0  0  0  0
  -28.3820  -13.3460   19.0900 C   0  0  0  0  0  3  0  0  0  0  0  0
  -29.5180  -13.3160   20.1380 C   0  0  0  0  0  2  0  0  0  0  0  0
  -30.8100  -13.4540   19.4430 N   0  0  0  0  0  0  0  0  0  0  0  0
  -32.5000  -14.7280   18.5750 O   0  0  0  0  0  0  0  0  0  0  0  0
  -32.0610  -15.7030   21.4140 C   0  0  0  0  0  1  0  0  0  0  0  0
  -31.2290  -15.5830   20.2120 N   0  0  0  0  0  0  0  0  0  0  0  0
  -26.1450  -14.1490   20.0820 C   0  0  0  0  0  0  0  0  0  0  0  0
  -25.0560  -13.4670   20.5570 C   0  0  0  0  0  0  0  0  0  0  0  0
  -25.3780  -12.0800   20.4400 C   0  0  0  0  0  0  0  0  0  0  0  0
  -27.0690  -13.1840   19.7150 N   0  0  0  0  0  0  0  0  0  0  0  0
  -26.6140  -11.9330   19.9840 N   0  0  0  0  0  0  0  0  0  0  0  0
  -24.5580  -10.8840   20.6810 C   0  0  0  0  0  0  0  0  0  0  0  0
  -24.9290   -9.9170   21.6410 C   0  0  0  0  0  3  0  0  0  0  0  0
  -24.1160   -8.7870   21.8700 C   0  0  0  0  0  3  0  0  0  0  0  0
  -22.9170   -8.6150   21.1390 C   0  0  0  0  0  0  0  0  0  0  0  0
  -22.5640   -9.5670   20.1680 C   0  0  0  0  0  3  0  0  0  0  0  0
  -23.3760  -10.6900   19.9360 C   0  0  0  0  0  3  0  0  0  0  0  0
  -22.0770   -7.5370   21.2760 O   0  0  0  0  0  0  0  0  0  0  0  0
  -21.8820   -6.9260   22.4890 C   0  0  0  0  0  0  0  0  0  0  0  0
  -21.4560   -7.6440   23.6280 C   0  0  0  0  0  3  0  0  0  0  0  0
  -21.2040   -6.9620   24.8350 C   0  0  0  0  0  3  0  0  0  0  0  0
  -21.3660   -5.5650   24.9040 C   0  0  0  0  0  0  0  0  0  0  0  0
  -21.7880   -4.8490   23.7700 C   0  0  0  0  0  3  0  0  0  0  0  0
  -22.0430   -5.5290   22.5660 C   0  0  0  0  0  0  0  0  0  0  0  0
  -22.4260   -4.8300   21.4700 F   0  0  0  0  0  0  0  0  0  0  0  0
  -21.1180   -4.9080   26.0610 F   0  0  0  0  0  0  0  0  0  0  0  0
  -23.7500  -14.0610   21.0020 C   0  0  0  0  0  0  0  0  0  0  0  0
  -23.0870  -13.4350   21.9690 N   0  0  0  0  0  0  0  0  0  0  0  0
  -23.3350  -15.1190   20.5280 O   0  0  0  0  0  0  0  0  0  0  0  0
  -23.4350  -12.5770   22.3730 H   0  0  0  0  0  0  0  0  0  0  0  0
  -22.2120  -13.8120   22.3050 H   0  0  0  0  0  0  0  0  0  0  0  0
  -26.4180  -15.5030   19.9150 N   0  0  0  0  0  0  0  0  0  0  0  0
  -25.7310  -16.2210   20.1210 H   0  0  0  0  0  0  0  0  0  0  0  0
  -27.2670  -15.8680   19.5040 H   0  0  0  0  0  0  0  0  0  0  0  0
  1  5  1  0
  2  6  1  0
  2  1  2  0
  3  5  2  0
  3  4  1  0
  6  3  1  0
  8  7  1  0
  8  2  1  0
  9  1  1  0
 10 11  1  0
 10  9  1  0
 12 14  1  0
 12 11  1  0
 13 24  2  0
 14 19  1  0
 15 23  1  0
 15 25  1  0
 16 22  1  0
 16 18  1  0
 17 23  1  0
 18 17  1  0
 19 18  2  0
 20 21  1  0
 20 14  2  0
 21 16  2  0
 22 15  1  0
 23 13  1  0
 25 27  2  0
 26 25  1  0
 28 26  1  0
 29 38  2  0
 29 34  1  0
 30 26  1  0
 30 34  1  0
 31 30  1  0
 32 33  1  0
 32 31  1  0
 33 29  1  0
 34 35  2  0
 35 36  1  0
 37 36  2  0
 38 37  1  0
 39 13  1  0
 39 40  1  0
 39 49  1  0
 40 43  1  0
 41 45  1  0
 41 40  1  0
 42 41  2  0
 45 44  1  0
 47 45  1  0
 47 48  1  0
 47 46  1  0
 49 52  1  1
 49 50  1  0
 51 49  1  0
 53  6  1  0
 54 55  1  0
 54 53  1  0
 56 55  1  0
 56 66  1  0
 57 63  1  0
 57 66  1  0
 58 63  1  0
 59 60  1  0
 59 58  1  0
 61 60  1  0
 61 70  1  0
 61 62  1  0
 63 62  1  0
 64 57  2  0
 66 65  1  0
 67 68  2  0
 68 87  1  0
 69 68  1  0
 69 72  1  0
 70 71  1  0
 70 67  1  0
 71 69  2  0
 72 73  1  0
 73 74  2  0
 75 78  1  0
 75 74  1  0
 76 75  2  0
 77 76  1  0
 77 72  2  0
 78 79  1  0
 79 84  2  0
 79 80  1  0
 80 81  2  0
 81 82  1  0
 82 86  1  0
 83 82  2  0
 84 83  1  0
 85 84  1  0
 87 88  1  0
 88 91  1  0
 88 90  1  0
 89 87  2  0
 92 67  1  0
 92 93  1  0
 94 92  1  0
M  ISO  4  11 101  12 101  57 100  66 100
M  END
>  <TORSDO>  (90) 
F 24

>  <SCORE>  (90) 
-8.580

>  <name>  (90) 
90

>  <ligand_id>  (90) 
90

>  <original_smiles>  (90) 
[H]c1c([H])c([H])c2c(c1[H])C([H])([H])C([H])([H])C([H])([H])C2([H])N([H])C(=O)C1([H])N(C(=O)C([H])(N([H])C(=O)C([H])(N([H])C([H])([H])[H])C([H])([H])[H])C(C([H])([H])[H])(C([H])([H])[H])C([H])([H])[H])C([H])([H])c2c([H])c(OC([H])([H])C([H])([H])C([H])([H])c3nc(C([H])([H])[H])n(C([H])([H])C([H])([H])C([H])([H])C([H])([H])N(C(=O)N4C([H])([H])C([H])([H])C([H])([H])C([H])(n5nc(-c6c([H])c([H])c(Oc7c([H])c([H])c(F)c([H])c7F)c([H])c6[H])c(C(=O)N([H])[H])c5N([H])[H])C4([H])[H])C([H])([H])[H])c3C([H])([H])C([H])([H])[H])c([H])c([H])c2C1([H])[H]

>  <smiles>  (90) 
[H]c1c([H])c([H])c2c(c1[H])C([H])([H])C([H])([H])C([H])([H])C2([H])N([H])C(=O)C1([H])N(C(=O)C([H])(N([H])C(=O)C([H])(N([H])C([H])([H])[H])C([H])([H])[H])C(C([H])([H])[H])(C([H])([H])[H])C([H])([H])[H])C([H])([H])c2c([H])c(OC([H])([H])C([H])([H])C([H])([H])c3nc(C([H])([H])[H])n(C([H])([H])C([H])([H])C([H])([H])C([H])([H])N(C(=O)N4C([H])([H])C([H])([H])C([H])([H])C([H])(n5nc(-c6c([H])c([H])c(Oc7c([H])c([H])c(F)c([H])c7F)c([H])c6[H])c(C(=O)N([H])[H])c5N([H])[H])C4([H])[H])C([H])([H])[H])c3C([H])([H])C([H])([H])[H])c([H])c([H])c2C1([H])[H]

$$$$
91:0:0
     RDKit          3D

 93101  0  0  1  0  0  0  0  0999 V2000
  -31.1770  -18.1740   19.7820 C   0  0  0  0  0  2  0  0  0  0  0  0
  -30.0630  -17.4250   20.1160 C   0  0  0  0  0  3  0  0  0  0  0  0
  -29.5590  -19.7040   19.9710 C   0  0  0  0  0  3  0  0  0  0  0  0
  -29.0330  -18.4270   20.0380 N   0  0  0  0  0  0  0  0  0  0  0  0
  -30.8620  -19.5130   19.7740 N   0  0  0  0  0  0  0  0  0  0  0  0
  -31.5430  -20.2560   19.6850 H   0  0  0  0  0  0  0  0  0  0  0  0
  -26.7870  -17.0960   20.2190 C   0  0  0  0  0  1  0  0  0  0  0  0
  -27.1910  -18.8480   18.4540 C   0  0  0  0  0  1  0  0  0  0  0  0
  -27.5480  -18.3670   19.8770 C   0  0  0  0  0  3  0  0  0  0  0  0
  -29.3270  -15.4860   21.8990 C   0  0  0  0  0  1  0  0  0  0  0  0
  -31.5550  -15.9320   21.3260 C   0  0  0  0  0  1  0  0  0  0  0  0
  -30.1470  -15.8950   20.6470 C   0  0  2  0  0  0  0  0  0  0  0  0
  -30.3090  -14.6630   19.5850 C   0  0  0  0  0  0  0  0  0  0  0  0
  -29.9280  -12.4420   18.4630 C   0  0  0  0  0  2  0  0  0  0  0  0
  -28.8070  -12.4750   17.3970 C   0  0  0  0  0  2  0  0  0  0  0  0
  -27.4290  -12.2200   18.0380 C   0  0  0  0  0  2  0  0  0  0  0  0
  -27.2220  -13.0650   19.3220 C   0  0  0  0  0  3  0  0  0  0  0  0
  -28.4480  -12.9750   20.2600 C   0  0  0  0  0  2  0  0  0  0  0  0
  -29.6390  -13.4440   19.5290 N   0  0  0  0  0  0  0  0  0  0  0  0
  -31.2140  -14.8200   18.7560 O   0  0  0  0  0  0  0  0  0  0  0  0
  -24.9740  -13.5480   20.4700 C   0  0  0  0  0  0  0  0  0  0  0  0
  -24.0040  -12.7250   20.9720 C   0  0  0  0  0  0  0  0  0  0  0  0
  -24.4780  -11.3940   20.7870 C   0  0  0  0  0  0  0  0  0  0  0  0
  -25.9790  -12.7120   20.0120 N   0  0  0  0  0  0  0  0  0  0  0  0
  -25.6990  -11.4050   20.2630 N   0  0  0  0  0  0  0  0  0  0  0  0
  -23.8190  -10.1040   21.0250 C   0  0  0  0  0  0  0  0  0  0  0  0
  -24.3520   -9.1590   21.9260 C   0  0  0  0  0  3  0  0  0  0  0  0
  -23.6860   -7.9350   22.1510 C   0  0  0  0  0  3  0  0  0  0  0  0
  -22.4770   -7.6490   21.4760 C   0  0  0  0  0  0  0  0  0  0  0  0
  -21.9680   -8.5830   20.5600 C   0  0  0  0  0  3  0  0  0  0  0  0
  -22.6330   -9.7980   20.3300 C   0  0  0  0  0  3  0  0  0  0  0  0
  -21.7800   -6.4710   21.6050 O   0  0  0  0  0  0  0  0  0  0  0  0
  -21.7430   -5.7830   22.7890 C   0  0  0  0  0  0  0  0  0  0  0  0
  -21.2520   -6.3690   23.9760 C   0  0  0  0  0  3  0  0  0  0  0  0
  -21.1630   -5.6040   25.1540 C   0  0  0  0  0  3  0  0  0  0  0  0
  -21.5610   -4.2530   25.1530 C   0  0  0  0  0  0  0  0  0  0  0  0
  -22.0460   -3.6660   23.9690 C   0  0  0  0  0  3  0  0  0  0  0  0
  -22.1340   -4.4280   22.7920 C   0  0  0  0  0  0  0  0  0  0  0  0
  -22.5810   -3.8490   21.6510 F   0  0  0  0  0  0  0  0  0  0  0  0
  -21.4710   -3.5160   26.2860 F   0  0  0  0  0  0  0  0  0  0  0  0
  -22.6660  -13.1500   21.5060 C   0  0  0  0  0  0  0  0  0  0  0  0
  -22.1150  -12.3870   22.4430 N   0  0  0  0  0  0  0  0  0  0  0  0
  -22.1260  -14.1850   21.1230 O   0  0  0  0  0  0  0  0  0  0  0  0
  -22.5610  -11.5410   22.7600 H   0  0  0  0  0  0  0  0  0  0  0  0
  -21.2240  -12.6510   22.8360 H   0  0  0  0  0  0  0  0  0  0  0  0
  -25.0820  -14.9290   20.3450 N   0  0  0  0  0  0  0  0  0  0  0  0
  -24.3450  -15.5630   20.6330 H   0  0  0  0  0  0  0  0  0  0  0  0
  -25.8700  -15.4060   19.9250 H   0  0  0  0  0  0  0  0  0  0  0  0
  -28.8770  -21.1130   20.2200 C   0  0  0  0  0  2  0  0  0  0  0  0
  -29.2660  -22.4630   19.4570 C   0  0  0  0  0  2  0  0  0  0  0  0
  -28.8880  -23.8600   20.1590 C   0  0  0  0  0  3  0  0  0  0  0  0
  -28.4170  -25.0800   19.2470 C   0  0  0  0  0  3  0  0  0  0  0  0
  -28.4140  -26.4750   19.7630 O   0  0  0  0  0  0  0  0  0  0  0  0
  -24.6510  -31.6460   23.0460 C   0  0  0  0  0  0  0  0  0  0  0  0
  -27.2710  -27.2980   19.7190 C   0  0  0  0  0  0  0  0  0  0  0  0
  -23.4350  -30.3360   21.3410 C   0  0  0  0  0  3  0  0  0  0  0  0
  -24.8860  -28.8910   19.8060 C   0  0  0  0  0  0  0  0  0  0  0  0
  -25.9710  -30.6900   21.1520 C   0  0  0  0  0  2  0  0  0  0  0  0
  -26.0510  -29.3550   20.4210 C   0  0  0  0  0  0  0  0  0  0  0  0
  -27.2410  -28.5690   20.3720 C   0  0  0  0  0  3  0  0  0  0  0  0
  -26.0820  -26.9020   19.0610 C   0  0  0  0  0  3  0  0  0  0  0  0
  -24.9030  -27.6680   19.1180 C   0  0  0  0  0  3  0  0  0  0  0  0
  -23.6400  -29.7470   19.9210 C   0  0  0  0  0  2  0  0  0  0  0  0
  -24.7030  -30.9060   21.9020 N   0  0  0  0  0  0  0  0  0  0  0  0
  -23.5750  -31.8830   23.6170 O   0  0  0  0  0  0  0  0  0  0  0  0
  -22.7970  -29.2570   22.2470 C   0  0  0  0  0  0  0  0  0  0  0  0
  -21.4660  -29.1010   22.1550 N   0  0  0  0  0  0  0  0  0  0  0  0
  -23.4970  -28.5740   22.9970 O   0  0  0  0  0  0  0  0  0  0  0  0
  -20.9590  -29.7010   21.5190 H   0  0  0  0  0  0  0  0  0  0  0  0
  -18.0940  -27.9440   22.7280 C   0  0  0  0  0  0  0  0  0  0  0  0
  -20.6660  -28.1260   22.8940 C   0  0  0  0  0  3  0  0  0  0  0  0
  -20.7050  -26.7400   22.2090 C   0  0  0  0  0  2  0  0  0  0  0  0
  -19.5510  -26.5210   21.2250 C   0  0  0  0  0  2  0  0  0  0  0  0
  -18.2040  -26.6470   21.9430 C   0  0  0  0  0  2  0  0  0  0  0  0
  -19.2500  -28.6450   23.1590 C   0  0  0  0  0  0  0  0  0  0  0  0
  -19.0900  -29.8590   23.8620 C   0  0  0  0  0  3  0  0  0  0  0  0
  -17.8080  -30.3730   24.1350 C   0  0  0  0  0  3  0  0  0  0  0  0
  -16.6670  -29.6650   23.7190 C   0  0  0  0  0  3  0  0  0  0  0  0
  -16.8100  -28.4510   23.0230 C   0  0  0  0  0  3  0  0  0  0  0  0
  -25.9410  -32.2480   23.6830 C   0  0  0  0  0  3  0  0  0  0  0  0
  -25.6380  -33.6340   24.0690 N   0  0  0  0  0  0  0  0  0  0  0  0
  -25.9690  -34.7140   23.3490 C   0  0  0  0  0  0  0  0  0  0  0  0
  -26.6340  -34.6480   22.3110 O   0  0  0  0  0  0  0  0  0  0  0  0
  -25.0470  -33.7590   24.8780 H   0  0  0  0  0  0  0  0  0  0  0  0
  -24.2370  -36.5190   23.0830 C   0  0  0  0  0  1  0  0  0  0  0  0
  -25.4900  -36.0850   23.8630 C   0  0  0  0  0  3  0  0  0  0  0  0
  -27.6310  -36.9420   24.7030 C   0  0  0  0  0  1  0  0  0  0  0  0
  -26.5210  -37.1410   23.7750 N   0  0  0  0  0  0  0  0  0  0  0  0
  -26.1150  -38.0540   23.9580 H   0  0  0  0  0  0  0  0  0  0  0  0
  -26.4670  -31.4280   24.9280 C   0  0  1  0  0  0  0  0  0  0  0  0
  -25.3850  -31.1660   26.0010 C   0  0  0  0  0  1  0  0  0  0  0  0
  -27.0310  -30.0570   24.4890 C   0  0  0  0  0  1  0  0  0  0  0  0
  -27.6310  -32.1890   25.6050 C   0  0  0  0  0  1  0  0  0  0  0  0
  1  2  1  0
  2 12  1  0
  3  4  1  0
  3 49  1  0
  4  2  1  0
  5  1  1  0
  5  3  1  0
  6  5  1  0
  8  9  1  0
  9  4  1  0
  9  7  1  0
 12 11  1  1
 12 10  1  0
 13 12  1  0
 14 19  1  0
 15 16  1  0
 15 14  1  0
 17 16  1  0
 17 24  1  0
 17 18  1  0
 19 13  1  0
 19 18  1  0
 20 13  2  0
 21 22  2  0
 22 41  1  0
 23 22  1  0
 23 26  1  0
 24 25  1  0
 24 21  1  0
 25 23  2  0
 26 27  1  0
 27 28  2  0
 29 32  1  0
 29 28  1  0
 30 29  2  0
 31 30  1  0
 31 26  2  0
 32 33  1  0
 33 38  2  0
 33 34  1  0
 34 35  2  0
 36 35  1  0
 36 40  1  0
 37 36  2  0
 38 37  1  0
 39 38  1  0
 41 42  1  0
 42 44  1  0
 42 45  1  0
 43 41  2  0
 46 21  1  0
 46 47  1  0
 48 46  1  0
 50 51  1  0
 50 49  1  0
 52 53  1  0
 52 51  2  0
 54 65  2  0
 55 53  1  0
 55 60  1  0
 56 64  1  0
 56 66  1  0
 57 63  1  0
 57 59  1  0
 58 64  1  0
 59 58  1  0
 60 59  2  0
 61 62  1  0
 61 55  2  0
 62 57  2  0
 63 56  1  0
 64 54  1  0
 66 68  2  0
 67 66  1  0
 69 67  1  0
 70 79  2  0
 70 75  1  0
 71 67  1  0
 71 75  1  0
 72 71  1  0
 73 74  1  0
 73 72  1  0
 74 70  1  0
 75 76  2  0
 76 77  1  0
 78 77  2  0
 79 78  1  0
 80 54  1  0
 80 81  1  0
 80 90  1  0
 81 84  1  0
 82 86  1  0
 82 81  1  0
 83 82  2  0
 86 85  1  0
 88 86  1  0
 88 89  1  0
 88 87  1  0
 90 93  1  1
 90 91  1  0
 92 90  1  0
M  ISO  4  12 100  13 100  52 101  53 101
M  END
>  <TORSDO>  (91) 
F 22

>  <SCORE>  (91) 
-11.124

>  <name>  (91) 
91

>  <ligand_id>  (91) 
91

>  <original_smiles>  (91) 
[H]c1c([H])c([H])c2c(c1[H])C([H])([H])C([H])([H])C([H])([H])C2([H])N([H])C(=O)C1([H])N(C(=O)C([H])(N([H])C(=O)C([H])(N([H])C([H])([H])[H])C([H])([H])[H])C(C([H])([H])[H])(C([H])([H])[H])C([H])([H])[H])C([H])([H])c2c([H])c(OC([H])([H])C([H])([H])C([H])([H])C([H])([H])c3n(C([H])(C([H])([H])[H])C([H])([H])[H])c(C(C(=O)N4C([H])([H])C([H])([H])C([H])([H])C([H])(n5nc(-c6c([H])c([H])c(Oc7c([H])c([H])c(F)c([H])c7F)c([H])c6[H])c(C(=O)N([H])[H])c5N([H])[H])C4([H])[H])(C([H])([H])[H])C([H])([H])[H])c([H])[n+]3[H])c([H])c([H])c2C1([H])[H]

>  <smiles>  (91) 
[H]c1c([H])c([H])c2c(c1[H])C([H])([H])C([H])([H])C([H])([H])C2([H])N([H])C(=O)C1([H])N(C(=O)C([H])(N([H])C(=O)C([H])(N([H])C([H])([H])[H])C([H])([H])[H])C(C([H])([H])[H])(C([H])([H])[H])C([H])([H])[H])C([H])([H])c2c([H])c(OC([H])([H])C([H])([H])C([H])([H])C([H])([H])c3n(C([H])(C([H])([H])[H])C([H])([H])[H])c(C(C(=O)N4C([H])([H])C([H])([H])C([H])([H])C([H])(n5nc(-c6c([H])c([H])c(Oc7c([H])c([H])c(F)c([H])c7F)c([H])c6[H])c(C(=O)N([H])[H])c5N([H])[H])C4([H])[H])(C([H])([H])[H])C([H])([H])[H])c([H])[n+]3[H])c([H])c([H])c2C1([H])[H]

$$$$
92:0:0
     RDKit          3D

 89 96  0  0  1  0  0  0  0  0999 V2000
  -28.9020  -20.5650   18.4710 C   0  0  0  0  0  1  0  0  0  0  0  0
  -29.5420  -20.5750   19.8800 C   0  0  2  0  0  0  0  0  0  0  0  0
  -31.6420  -22.0150   19.1360 C   0  0  0  0  0  1  0  0  0  0  0  0
  -31.0880  -20.7060   19.7350 C   0  0  0  0  0  2  0  0  0  0  0  0
  -27.8350  -18.6360   20.5380 C   0  0  0  0  0  1  0  0  0  0  0  0
  -29.3300  -19.0070   20.5190 C   0  0  0  0  0  3  0  0  0  0  0  0
  -30.2020  -17.6450   20.0190 C   0  0  0  0  0  2  0  0  0  0  0  0
  -30.5820  -14.9410   20.0440 C   0  0  0  0  0  0  0  0  0  0  0  0
  -30.3370  -12.6490   19.0020 C   0  0  0  0  0  2  0  0  0  0  0  0
  -29.3420  -12.6860   17.8230 C   0  0  0  0  0  2  0  0  0  0  0  0
  -27.9060  -12.4600   18.3340 C   0  0  0  0  0  2  0  0  0  0  0  0
  -27.5800  -13.3420   19.5690 C   0  0  0  0  0  3  0  0  0  0  0  0
  -28.6930  -13.3030   20.6370 C   0  0  0  0  0  2  0  0  0  0  0  0
  -29.9420  -13.7040   19.9780 N   0  0  0  0  0  0  0  0  0  0  0  0
  -31.7570  -14.9930   19.6760 O   0  0  0  0  0  0  0  0  0  0  0  0
  -29.8540  -16.1310   20.3080 N   0  0  0  0  0  0  0  0  0  0  0  0
  -28.8980  -15.9630   20.5840 H   0  0  0  0  0  0  0  0  0  0  0  0
  -25.2460  -13.8990   20.4640 C   0  0  0  0  0  0  0  0  0  0  0  0
  -24.2020  -13.1140   20.8700 C   0  0  0  0  0  0  0  0  0  0  0  0
  -24.6580  -11.7650   20.7700 C   0  0  0  0  0  0  0  0  0  0  0  0
  -26.2710  -13.0280   20.1370 N   0  0  0  0  0  0  0  0  0  0  0  0
  -25.9300  -11.7370   20.3880 N   0  0  0  0  0  0  0  0  0  0  0  0
  -23.9380  -10.4980   20.9670 C   0  0  0  0  0  0  0  0  0  0  0  0
  -24.3890   -9.5300   21.8910 C   0  0  0  0  0  3  0  0  0  0  0  0
  -23.6770   -8.3240   22.0770 C   0  0  0  0  0  3  0  0  0  0  0  0
  -22.4920   -8.0810   21.3420 C   0  0  0  0  0  0  0  0  0  0  0  0
  -22.0580   -9.0400   20.4080 C   0  0  0  0  0  3  0  0  0  0  0  0
  -22.7720  -10.2350   20.2190 C   0  0  0  0  0  3  0  0  0  0  0  0
  -21.7410   -6.9360   21.4410 O   0  0  0  0  0  0  0  0  0  0  0  0
  -21.6810   -6.2120   22.6050 C   0  0  0  0  0  0  0  0  0  0  0  0
  -21.1870   -6.7720   23.8020 C   0  0  0  0  0  3  0  0  0  0  0  0
  -21.0820   -5.9720   24.9580 C   0  0  0  0  0  3  0  0  0  0  0  0
  -21.4530   -4.6170   24.9150 C   0  0  0  0  0  0  0  0  0  0  0  0
  -21.9410   -4.0550   23.7200 C   0  0  0  0  0  3  0  0  0  0  0  0
  -22.0520   -4.8530   22.5660 C   0  0  0  0  0  0  0  0  0  0  0  0
  -22.5040   -4.3020   21.4140 F   0  0  0  0  0  0  0  0  0  0  0  0
  -21.3370   -3.8480   26.0250 F   0  0  0  0  0  0  0  0  0  0  0  0
  -22.8210  -13.5860   21.2260 C   0  0  0  0  0  0  0  0  0  0  0  0
  -22.1350  -12.8650   22.1060 N   0  0  0  0  0  0  0  0  0  0  0  0
  -22.3650  -14.6280   20.7570 O   0  0  0  0  0  0  0  0  0  0  0  0
  -22.5200  -12.0220   22.5030 H   0  0  0  0  0  0  0  0  0  0  0  0
  -21.2100  -13.1600   22.3880 H   0  0  0  0  0  0  0  0  0  0  0  0
  -25.4050  -15.2750   20.3180 N   0  0  0  0  0  0  0  0  0  0  0  0
  -24.6300  -15.9120   20.4660 H   0  0  0  0  0  0  0  0  0  0  0  0
  -26.2120  -15.7160   19.8930 H   0  0  0  0  0  0  0  0  0  0  0  0
  -29.0310  -21.9810   20.6830 C   0  0  0  0  0  2  0  0  0  0  0  0
  -28.1870  -23.3350   20.1130 C   0  0  0  0  0  2  0  0  0  0  0  0
  -28.6480  -24.9060   19.7320 C   0  0  0  0  0  2  0  0  0  0  0  0
  -28.3640  -26.2790   20.3870 O   0  0  0  0  0  0  0  0  0  0  0  0
  -24.5320  -31.8340   23.1870 C   0  0  0  0  0  0  0  0  0  0  0  0
  -27.2560  -27.1780   20.2200 C   0  0  0  0  0  0  0  0  0  0  0  0
  -23.3860  -30.4270   21.5100 C   0  0  0  0  0  3  0  0  0  0  0  0
  -24.8860  -28.8570   20.1240 C   0  0  0  0  0  0  0  0  0  0  0  0
  -25.9320  -30.7210   21.4160 C   0  0  0  0  0  2  0  0  0  0  0  0
  -26.0340  -29.3320   20.7680 C   0  0  0  0  0  0  0  0  0  0  0  0
  -27.2100  -28.5010   20.8080 C   0  0  0  0  0  3  0  0  0  0  0  0
  -26.0860  -26.7870   19.5360 C   0  0  0  0  0  3  0  0  0  0  0  0
  -24.9240  -27.5970   19.4960 C   0  0  0  0  0  3  0  0  0  0  0  0
  -23.6490  -29.7390   20.1380 C   0  0  0  0  0  2  0  0  0  0  0  0
  -24.6340  -31.0170   22.0930 N   0  0  0  0  0  0  0  0  0  0  0  0
  -23.4320  -32.1070   23.6910 O   0  0  0  0  0  0  0  0  0  0  0  0
  -22.6910  -29.4220   22.4590 C   0  0  0  0  0  0  0  0  0  0  0  0
  -21.3610  -29.2700   22.3210 N   0  0  0  0  0  0  0  0  0  0  0  0
  -23.3480  -28.7810   23.2830 O   0  0  0  0  0  0  0  0  0  0  0  0
  -20.8890  -29.8390   21.6320 H   0  0  0  0  0  0  0  0  0  0  0  0
  -17.9570  -28.1350   22.8130 C   0  0  0  0  0  0  0  0  0  0  0  0
  -20.5230  -28.3330   23.0740 C   0  0  0  0  0  3  0  0  0  0  0  0
  -20.5870  -26.9130   22.4650 C   0  0  0  0  0  2  0  0  0  0  0  0
  -19.4740  -26.6410   21.4470 C   0  0  0  0  0  2  0  0  0  0  0  0
  -18.1000  -26.8000   22.1010 C   0  0  0  0  0  2  0  0  0  0  0  0
  -19.0940  -28.8620   23.2550 C   0  0  0  0  0  0  0  0  0  0  0  0
  -18.9040  -30.1120   23.8820 C   0  0  0  0  0  3  0  0  0  0  0  0
  -17.6090  -30.6360   24.0700 C   0  0  0  0  0  3  0  0  0  0  0  0
  -16.4870  -29.9040   23.6440 C   0  0  0  0  0  3  0  0  0  0  0  0
  -16.6630  -28.6560   23.0190 C   0  0  0  0  0  3  0  0  0  0  0  0
  -25.7910  -32.4770   23.8470 C   0  0  0  0  0  3  0  0  0  0  0  0
  -26.2640  -31.7200   25.1520 C   0  0  1  0  0  0  0  0  0  0  0  0
  -25.1390  -31.4920   26.1890 C   0  0  0  0  0  1  0  0  0  0  0  0
  -26.8570  -30.3390   24.7980 C   0  0  0  0  0  1  0  0  0  0  0  0
  -27.3920  -32.5230   25.8430 C   0  0  0  0  0  1  0  0  0  0  0  0
  -25.4680  -33.8780   24.1590 N   0  0  0  0  0  0  0  0  0  0  0  0
  -25.8190  -34.9320   23.4080 C   0  0  0  0  0  0  0  0  0  0  0  0
  -26.5140  -34.8250   22.3950 O   0  0  0  0  0  0  0  0  0  0  0  0
  -24.8530  -34.0320   24.9450 H   0  0  0  0  0  0  0  0  0  0  0  0
  -24.1090  -36.7330   23.0010 C   0  0  0  0  0  1  0  0  0  0  0  0
  -25.3240  -36.3230   23.8490 C   0  0  0  0  0  3  0  0  0  0  0  0
  -27.4310  -37.2150   24.7480 C   0  0  0  0  0  1  0  0  0  0  0  0
  -26.3620  -37.3740   23.7650 N   0  0  0  0  0  0  0  0  0  0  0  0
  -25.9550  -38.2970   23.8870 H   0  0  0  0  0  0  0  0  0  0  0  0
  2  1  1  6
  2  6  1  0
  2 46  1  0
  3  4  1  0
  4  2  1  0
  6  5  1  0
  7 16  1  0
  7  6  1  0
  8 16  1  0
  9 14  1  0
 10 11  1  0
 10  9  1  0
 12 11  1  0
 12 21  1  0
 12 13  1  0
 14  8  1  0
 14 13  1  0
 15  8  2  0
 16 17  1  0
 18 19  2  0
 19 38  1  0
 20 19  1  0
 20 23  1  0
 21 22  1  0
 21 18  1  0
 22 20  2  0
 23 24  1  0
 24 25  2  0
 26 29  1  0
 26 25  1  0
 27 26  2  0
 28 27  1  0
 28 23  2  0
 29 30  1  0
 30 31  1  0
 31 32  2  0
 33 32  1  0
 33 37  1  0
 34 33  2  0
 35 30  2  0
 35 34  1  0
 36 35  1  0
 38 39  1  0
 39 42  1  0
 39 41  1  0
 40 38  2  0
 43 18  1  0
 43 44  1  0
 45 43  1  0
 47 46  1  0
 48 47  1  0
 48 49  1  0
 50 61  2  0
 51 49  1  0
 51 56  1  0
 52 60  1  0
 52 62  1  0
 53 59  1  0
 53 55  1  0
 54 60  1  0
 55 56  2  0
 55 54  1  0
 57 51  2  0
 58 57  1  0
 58 53  2  0
 59 52  1  0
 60 50  1  0
 62 64  2  0
 63 62  1  0
 65 63  1  0
 66 75  2  0
 66 71  1  0
 67 63  1  0
 67 71  1  0
 68 67  1  0
 69 70  1  0
 69 68  1  0
 70 66  1  0
 71 72  2  0
 72 73  1  0
 74 73  2  0
 75 74  1  0
 76 50  1  0
 76 81  1  0
 76 77  1  0
 77 80  1  1
 77 78  1  0
 79 77  1  0
 81 84  1  0
 82 86  1  0
 82 81  1  0
 83 82  2  0
 86 85  1  0
 88 86  1  0
 88 89  1  0
 88 87  1  0
M  ISO  4   8 100  16 100  48 101  49 101
M  END
>  <TORSDO>  (92) 
F 22

>  <SCORE>  (92) 
-14.195

>  <name>  (92) 
92

>  <ligand_id>  (92) 
92

>  <original_smiles>  (92) 
[H]c1c([H])c([H])c2c(c1[H])C([H])([H])C([H])([H])C([H])([H])C2([H])N([H])C(=O)C1([H])N(C(=O)C([H])(N([H])C(=O)C([H])(N([H])C([H])([H])[H])C([H])([H])[H])C(C([H])([H])[H])(C([H])([H])[H])C([H])([H])[H])C([H])([H])c2c([H])c(OC([H])([H])C([H])([H])C([H])([H])C(C([H])([H])[H])(C([H])([H])C([H])([H])[H])C([H])(C([H])([H])[H])C([H])([H])N([H])C(=O)N3C([H])([H])C([H])([H])C([H])([H])C([H])(n4nc(-c5c([H])c([H])c(Oc6c([H])c([H])c(F)c([H])c6F)c([H])c5[H])c(C(=O)N([H])[H])c4N([H])[H])C3([H])[H])c([H])c([H])c2C1([H])[H]

>  <smiles>  (92) 
[H]c1c([H])c([H])c2c(c1[H])C([H])([H])C([H])([H])C([H])([H])C2([H])N([H])C(=O)C1([H])N(C(=O)C([H])(N([H])C(=O)C([H])(N([H])C([H])([H])[H])C([H])([H])[H])C(C([H])([H])[H])(C([H])([H])[H])C([H])([H])[H])C([H])([H])c2c([H])c(OC([H])([H])C([H])([H])C([H])([H])C(C([H])([H])[H])(C([H])([H])C([H])([H])[H])C([H])(C([H])([H])[H])C([H])([H])N([H])C(=O)N3C([H])([H])C([H])([H])C([H])([H])C([H])(n4nc(-c5c([H])c([H])c(Oc6c([H])c([H])c(F)c([H])c6F)c([H])c5[H])c(C(=O)N([H])[H])c4N([H])[H])C3([H])[H])c([H])c([H])c2C1([H])[H]

$$$$
93:0:0
     RDKit          3D

 92 99  0  0  1  0  0  0  0  0999 V2000
  -29.4840  -21.1400   19.9540 C   0  0  0  0  0  2  0  0  0  0  0  0
  -29.0460  -22.4950   22.1990 C   0  0  0  0  0  1  0  0  0  0  0  0
  -27.1900  -22.0440   20.6210 C   0  0  0  0  0  1  0  0  0  0  0  0
  -28.6990  -22.3750   20.6950 C   0  0  2  0  0  0  0  0  0  0  0  0
  -28.8990  -23.8500   20.0360 C   0  0  0  0  0  3  0  0  0  0  0  0
  -28.2310  -25.1410   20.7340 C   0  0  0  0  0  3  0  0  0  0  0  0
  -28.4110  -26.5210   20.2120 O   0  0  0  0  0  0  0  0  0  0  0  0
  -24.6120  -31.8960   23.2360 C   0  0  0  0  0  0  0  0  0  0  0  0
  -27.2890  -27.3640   20.2030 C   0  0  0  0  0  0  0  0  0  0  0  0
  -23.4300  -30.4880   21.5870 C   0  0  0  0  0  3  0  0  0  0  0  0
  -24.9070  -28.9470   20.1740 C   0  0  0  0  0  0  0  0  0  0  0  0
  -25.9690  -30.8320   21.4190 C   0  0  0  0  0  2  0  0  0  0  0  0
  -26.0670  -29.4540   20.7760 C   0  0  0  0  0  0  0  0  0  0  0  0
  -27.2660  -28.6760   20.7710 C   0  0  0  0  0  3  0  0  0  0  0  0
  -26.1070  -26.9090   19.5810 C   0  0  0  0  0  3  0  0  0  0  0  0
  -24.9310  -27.6810   19.5670 C   0  0  0  0  0  3  0  0  0  0  0  0
  -23.6590  -29.8080   20.2110 C   0  0  0  0  0  2  0  0  0  0  0  0
  -24.6900  -31.0890   22.1380 N   0  0  0  0  0  0  0  0  0  0  0  0
  -23.5230  -32.1660   23.7630 O   0  0  0  0  0  0  0  0  0  0  0  0
  -22.7670  -29.4710   22.5430 C   0  0  0  0  0  0  0  0  0  0  0  0
  -21.4430  -29.2860   22.4080 N   0  0  0  0  0  0  0  0  0  0  0  0
  -23.4450  -28.8490   23.3650 O   0  0  0  0  0  0  0  0  0  0  0  0
  -20.9600  -29.8420   21.7160 H   0  0  0  0  0  0  0  0  0  0  0  0
  -18.0640  -28.0800   22.8840 C   0  0  0  0  0  0  0  0  0  0  0  0
  -20.6200  -28.3460   23.1720 C   0  0  0  0  0  3  0  0  0  0  0  0
  -20.7280  -26.9160   22.5960 C   0  0  0  0  0  2  0  0  0  0  0  0
  -19.6350  -26.5910   21.5730 C   0  0  0  0  0  2  0  0  0  0  0  0
  -18.2480  -26.7310   22.2080 C   0  0  0  0  0  2  0  0  0  0  0  0
  -19.1780  -28.8450   23.3220 C   0  0  0  0  0  0  0  0  0  0  0  0
  -18.9510  -30.1050   23.9150 C   0  0  0  0  0  3  0  0  0  0  0  0
  -17.6420  -30.6020   24.0720 C   0  0  0  0  0  3  0  0  0  0  0  0
  -16.5440  -29.8340   23.6510 C   0  0  0  0  0  3  0  0  0  0  0  0
  -16.7550  -28.5750   23.0620 C   0  0  0  0  0  3  0  0  0  0  0  0
  -25.8860  -32.5360   23.8690 C   0  0  0  0  0  3  0  0  0  0  0  0
  -26.3920  -31.7730   25.1550 C   0  0  1  0  0  0  0  0  0  0  0  0
  -25.2870  -31.5330   26.2110 C   0  0  0  0  0  1  0  0  0  0  0  0
  -26.9840  -30.3960   24.7740 C   0  0  0  0  0  1  0  0  0  0  0  0
  -27.5360  -32.5700   25.8230 C   0  0  0  0  0  1  0  0  0  0  0  0
  -25.5680  -33.9350   24.1900 N   0  0  0  0  0  0  0  0  0  0  0  0
  -25.9050  -34.9860   23.4300 C   0  0  0  0  0  0  0  0  0  0  0  0
  -26.5870  -34.8800   22.4060 O   0  0  0  0  0  0  0  0  0  0  0  0
  -24.9660  -34.0880   24.9850 H   0  0  0  0  0  0  0  0  0  0  0  0
  -24.1790  -36.7750   23.0450 C   0  0  0  0  0  1  0  0  0  0  0  0
  -25.4100  -36.3760   23.8760 C   0  0  0  0  0  3  0  0  0  0  0  0
  -27.5310  -37.2680   24.7330 C   0  0  0  0  0  1  0  0  0  0  0  0
  -26.4420  -37.4300   23.7720 N   0  0  0  0  0  0  0  0  0  0  0  0
  -26.0340  -38.3500   23.9080 H   0  0  0  0  0  0  0  0  0  0  0  0
  -30.0480  -19.9370   20.7540 N   0  0  2  0  0  4  0  0  0  0  0  0
  -29.3590  -19.7420   21.4620 H   0  0  0  0  0  0  0  0  0  0  0  0
  -31.4180  -19.7680   22.8820 C   0  0  0  0  0  1  0  0  0  0  0  0
  -31.2920  -20.3690   21.4720 C   0  0  0  0  0  2  0  0  0  0  0  0
  -30.3220  -18.5670   20.0550 C   0  0  0  0  0  3  0  0  0  0  0  0
  -31.0110  -17.4660   17.8060 C   0  0  0  0  0  1  0  0  0  0  0  0
  -30.3780  -18.6820   18.5080 C   0  0  0  0  0  2  0  0  0  0  0  0
  -29.4800  -17.2840   20.5270 C   0  0  0  0  0  2  0  0  0  0  0  0
  -30.1540  -15.9930   21.2270 C   0  0  0  0  0  2  0  0  0  0  0  0
  -30.7170  -14.7330   20.4300 C   0  0  0  0  0  0  0  0  0  0  0  0
  -30.4660  -12.5150   19.3010 C   0  0  0  0  0  2  0  0  0  0  0  0
  -29.5350  -12.6570   18.0800 C   0  0  0  0  0  2  0  0  0  0  0  0
  -28.0610  -12.4960   18.4980 C   0  0  0  0  0  2  0  0  0  0  0  0
  -27.6990  -13.3410   19.7470 C   0  0  0  0  0  3  0  0  0  0  0  0
  -28.7500  -13.1730   20.8640 C   0  0  0  0  0  2  0  0  0  0  0  0
  -30.0630  -13.5270   20.3050 N   0  0  0  0  0  0  0  0  0  0  0  0
  -31.8300  -14.8680   19.9150 O   0  0  0  0  0  0  0  0  0  0  0  0
  -25.2970  -13.9380   20.4280 C   0  0  0  0  0  0  0  0  0  0  0  0
  -24.2280  -13.1640   20.7960 C   0  0  0  0  0  0  0  0  0  0  0  0
  -24.6940  -11.8140   20.7870 C   0  0  0  0  0  0  0  0  0  0  0  0
  -26.3460  -13.0570   20.2190 N   0  0  0  0  0  0  0  0  0  0  0  0
  -25.9890  -11.7760   20.4930 N   0  0  0  0  0  0  0  0  0  0  0  0
  -23.9660  -10.5510   20.9840 C   0  0  0  0  0  0  0  0  0  0  0  0
  -24.3860   -9.5930   21.9320 C   0  0  0  0  0  3  0  0  0  0  0  0
  -23.6550   -8.3990   22.1170 C   0  0  0  0  0  3  0  0  0  0  0  0
  -22.4910   -8.1530   21.3520 C   0  0  0  0  0  0  0  0  0  0  0  0
  -22.0870   -9.1020   20.3950 C   0  0  0  0  0  3  0  0  0  0  0  0
  -22.8200  -10.2860   20.2080 C   0  0  0  0  0  3  0  0  0  0  0  0
  -21.7360   -7.0090   21.4430 O   0  0  0  0  0  0  0  0  0  0  0  0
  -21.6760   -6.2790   22.6040 C   0  0  0  0  0  0  0  0  0  0  0  0
  -21.2390   -6.8470   23.8200 C   0  0  0  0  0  3  0  0  0  0  0  0
  -21.1280   -6.0420   24.9710 C   0  0  0  0  0  3  0  0  0  0  0  0
  -21.4430   -4.6720   24.9070 C   0  0  0  0  0  0  0  0  0  0  0  0
  -21.8760   -4.1040   23.6960 C   0  0  0  0  0  3  0  0  0  0  0  0
  -21.9900   -4.9050   22.5460 C   0  0  0  0  0  0  0  0  0  0  0  0
  -22.3850   -4.3490   21.3750 F   0  0  0  0  0  0  0  0  0  0  0  0
  -21.3300   -3.8970   26.0110 F   0  0  0  0  0  0  0  0  0  0  0  0
  -22.8270  -13.6440   21.0430 C   0  0  0  0  0  0  0  0  0  0  0  0
  -22.0890  -12.9600   21.9110 N   0  0  0  0  0  0  0  0  0  0  0  0
  -22.3950  -14.6600   20.5050 O   0  0  0  0  0  0  0  0  0  0  0  0
  -22.4500  -12.1390   22.3730 H   0  0  0  0  0  0  0  0  0  0  0  0
  -21.1490  -13.2650   22.1150 H   0  0  0  0  0  0  0  0  0  0  0  0
  -25.4550  -15.3070   20.2380 N   0  0  0  0  0  0  0  0  0  0  0  0
  -24.6830  -15.9590   20.3380 H   0  0  0  0  0  0  0  0  0  0  0  0
  -26.3090  -15.7470   19.9180 H   0  0  0  0  0  0  0  0  0  0  0  0
  1  4  1  0
  1 48  1  0
  4  3  1  1
  4  2  1  0
  5  4  1  0
  5  6  2  0
  7  6  1  0
  8 19  2  0
  9  7  1  0
  9 14  1  0
 10 18  1  0
 10 20  1  0
 11 17  1  0
 11 13  1  0
 12 18  1  0
 13 12  1  0
 14 13  2  0
 15  9  2  0
 16 15  1  0
 16 11  2  0
 17 10  1  0
 18  8  1  0
 20 22  2  0
 21 20  1  0
 23 21  1  0
 24 33  2  0
 24 29  1  0
 25 21  1  0
 25 29  1  0
 26 25  1  0
 27 28  1  0
 27 26  1  0
 28 24  1  0
 29 30  2  0
 30 31  1  0
 32 31  2  0
 33 32  1  0
 34  8  1  0
 34 39  1  0
 34 35  1  0
 35 38  1  1
 35 36  1  0
 37 35  1  0
 39 42  1  0
 40 44  1  0
 40 39  1  0
 41 40  2  0
 44 43  1  0
 46 44  1  0
 46 47  1  0
 46 45  1  0
 48 49  1  1
 48 51  1  0
 51 50  1  0
 52 54  1  0
 52 55  1  0
 52 48  1  0
 53 54  1  0
 55 56  1  0
 57 56  1  0
 58 63  1  0
 59 60  1  0
 59 58  1  0
 61 60  1  0
 61 68  1  0
 61 62  1  0
 63 57  1  0
 63 62  1  0
 64 57  2  0
 65 66  2  0
 66 85  1  0
 67 66  1  0
 67 70  1  0
 68 65  1  0
 68 69  1  0
 69 67  2  0
 70 71  1  0
 71 72  2  0
 73 76  1  0
 73 72  1  0
 74 73  2  0
 75 74  1  0
 75 70  2  0
 76 77  1  0
 77 78  1  0
 78 79  2  0
 80 79  1  0
 80 84  1  0
 81 80  2  0
 82 77  2  0
 82 81  1  0
 83 82  1  0
 85 86  1  0
 86 89  1  0
 86 88  1  0
 87 85  2  0
 90 91  1  0
 90 65  1  0
 92 90  1  0
M  ISO  4   6 101   7 101  56 100  57 100
M  END
>  <TORSDO>  (93) 
F 25

>  <SCORE>  (93) 
-12.337

>  <name>  (93) 
93

>  <ligand_id>  (93) 
93

>  <original_smiles>  (93) 
[H]c1c([H])c([H])c2c(c1[H])C([H])([H])C([H])([H])C([H])([H])C2([H])N([H])C(=O)C1([H])N(C(=O)C([H])(N([H])C(=O)C([H])(N([H])C([H])([H])[H])C([H])([H])[H])C(C([H])([H])[H])(C([H])([H])[H])C([H])([H])[H])C([H])([H])c2c([H])c(OC([H])([H])C([H])([H])C(C([H])([H])[H])(C([H])([H])[H])C([H])([H])[N+]([H])(C([H])([H])C([H])([H])[H])C([H])(C([H])([H])C([H])([H])[H])C([H])([H])C([H])([H])C(=O)N3C([H])([H])C([H])([H])C([H])([H])C([H])(n4nc(-c5c([H])c([H])c(Oc6c([H])c([H])c(F)c([H])c6F)c([H])c5[H])c(C(=O)N([H])[H])c4N([H])[H])C3([H])[H])c([H])c([H])c2C1([H])[H]

>  <smiles>  (93) 
[H]c1c([H])c([H])c2c(c1[H])C([H])([H])C([H])([H])C([H])([H])C2([H])N([H])C(=O)C1([H])N(C(=O)C([H])(N([H])C(=O)C([H])(N([H])C([H])([H])[H])C([H])([H])[H])C(C([H])([H])[H])(C([H])([H])[H])C([H])([H])[H])C([H])([H])c2c([H])c(OC([H])([H])C([H])([H])C(C([H])([H])[H])(C([H])([H])[H])C([H])([H])[N+]([H])(C([H])([H])C([H])([H])[H])C([H])(C([H])([H])C([H])([H])[H])C([H])([H])C([H])([H])C(=O)N3C([H])([H])C([H])([H])C([H])([H])C([H])(n4nc(-c5c([H])c([H])c(Oc6c([H])c([H])c(F)c([H])c6F)c([H])c5[H])c(C(=O)N([H])[H])c4N([H])[H])C3([H])[H])c([H])c([H])c2C1([H])[H]

$$$$
94:0:0
     RDKit          3D

 96104  0  0  1  0  0  0  0  0999 V2000
  -29.2650  -21.6650   18.9590 C   0  0  0  0  0  2  0  0  0  0  0  0
  -28.6310  -20.4110   18.3160 C   0  0  0  0  0  2  0  0  0  0  0  0
  -28.3370  -18.4420   19.8900 C   0  0  0  0  0  3  0  0  0  0  0  0
  -30.7500  -17.2850   19.0920 C   0  0  0  0  0  3  0  0  0  0  0  0
  -28.7470  -17.2190   20.4690 C   0  0  0  0  0  0  0  0  0  0  0  0
  -30.3300  -18.4930   18.4970 C   0  0  0  0  0  0  0  0  0  0  0  0
  -29.1200  -19.0920   18.9120 C   0  0  0  0  0  0  0  0  0  0  0  0
  -29.9760  -16.6220   20.0770 C   0  0  0  0  0  0  0  0  0  0  0  0
  -27.8570  -16.5920   21.5310 C   0  0  0  0  0  1  0  0  0  0  0  0
  -31.2030  -19.1150   17.4190 C   0  0  0  0  0  1  0  0  0  0  0  0
  -31.7330  -15.7010   21.6350 C   0  0  0  0  0  1  0  0  0  0  0  0
  -30.5090  -15.3440   20.7680 C   0  0  0  0  0  3  0  0  0  0  0  0
  -30.8660  -14.1990   19.7750 C   0  0  0  0  0  0  0  0  0  0  0  0
  -30.3340  -12.1370   18.5250 C   0  0  0  0  0  2  0  0  0  0  0  0
  -29.3050  -12.4220   17.4140 C   0  0  0  0  0  2  0  0  0  0  0  0
  -27.8700  -12.3120   17.9620 C   0  0  0  0  0  2  0  0  0  0  0  0
  -27.6720  -13.1110   19.2780 C   0  0  0  0  0  3  0  0  0  0  0  0
  -28.8040  -12.8030   20.2790 C   0  0  0  0  0  2  0  0  0  0  0  0
  -30.0900  -13.0890   19.6220 N   0  0  0  0  0  0  0  0  0  0  0  0
  -31.8960  -14.3450   19.1080 O   0  0  0  0  0  0  0  0  0  0  0  0
  -25.3300  -13.7510   20.1330 C   0  0  0  0  0  0  0  0  0  0  0  0
  -24.2890  -12.9960   20.6030 C   0  0  0  0  0  0  0  0  0  0  0  0
  -24.7430  -11.6410   20.5830 C   0  0  0  0  0  0  0  0  0  0  0  0
  -26.3540  -12.8580   19.8590 N   0  0  0  0  0  0  0  0  0  0  0  0
  -26.0080  -11.5860   20.1860 N   0  0  0  0  0  0  0  0  0  0  0  0
  -24.0300  -10.3890   20.8680 C   0  0  0  0  0  0  0  0  0  0  0  0
  -24.4800   -9.4900   21.8590 C   0  0  0  0  0  3  0  0  0  0  0  0
  -23.7660   -8.3020   22.1260 C   0  0  0  0  0  3  0  0  0  0  0  0
  -22.5880   -8.0040   21.4010 C   0  0  0  0  0  0  0  0  0  0  0  0
  -22.1570   -8.8910   20.4000 C   0  0  0  0  0  3  0  0  0  0  0  0
  -22.8710  -10.0700   20.1310 C   0  0  0  0  0  3  0  0  0  0  0  0
  -21.8450   -6.8620   21.5730 O   0  0  0  0  0  0  0  0  0  0  0  0
  -21.7770   -6.2230   22.7860 C   0  0  0  0  0  0  0  0  0  0  0  0
  -21.3130   -6.8770   23.9480 C   0  0  0  0  0  3  0  0  0  0  0  0
  -21.1930   -6.1630   25.1570 C   0  0  0  0  0  3  0  0  0  0  0  0
  -21.5280   -4.7970   25.2050 C   0  0  0  0  0  0  0  0  0  0  0  0
  -21.9860   -4.1430   24.0480 C   0  0  0  0  0  3  0  0  0  0  0  0
  -22.1070   -4.8530   22.8410 C   0  0  0  0  0  0  0  0  0  0  0  0
  -22.5280   -4.2130   21.7240 F   0  0  0  0  0  0  0  0  0  0  0  0
  -21.4060   -4.1090   26.3640 F   0  0  0  0  0  0  0  0  0  0  0  0
  -22.9170  -13.4880   20.9610 C   0  0  0  0  0  0  0  0  0  0  0  0
  -22.2660  -12.8450   21.9250 N   0  0  0  0  0  0  0  0  0  0  0  0
  -22.4320  -14.4800   20.4190 O   0  0  0  0  0  0  0  0  0  0  0  0
  -22.6730  -12.0430   22.3820 H   0  0  0  0  0  0  0  0  0  0  0  0
  -21.3500  -13.1590   22.2080 H   0  0  0  0  0  0  0  0  0  0  0  0
  -25.4840  -15.1130   19.8960 N   0  0  0  0  0  0  0  0  0  0  0  0
  -24.7300  -15.7750   20.0390 H   0  0  0  0  0  0  0  0  0  0  0  0
  -26.3190  -15.5400   19.5170 H   0  0  0  0  0  0  0  0  0  0  0  0
  -28.8970  -22.9560   18.1960 C   0  0  0  0  0  2  0  0  0  0  0  0
  -29.5800  -24.1700   18.7060 N   0  0  0  0  0  4  0  0  0  0  0  0
  -30.5770  -24.0180   18.6990 H   0  0  0  0  0  0  0  0  0  0  0  0
  -29.2910  -24.3230   19.6600 H   0  0  0  0  0  0  0  0  0  0  0  0
  -29.2690  -25.3850   17.9140 C   0  0  0  0  0  2  0  0  0  0  0  0
  -29.9410  -26.6880   18.4140 C   0  0  0  0  0  2  0  0  0  0  0  0
  -29.6520  -27.0820   19.8770 C   0  0  0  0  0  2  0  0  0  0  0  0
  -28.3900  -26.5670   20.2690 O   0  0  0  0  0  0  0  0  0  0  0  0
  -24.6400  -31.8620   23.2180 C   0  0  0  0  0  0  0  0  0  0  0  0
  -27.2910  -27.3870   20.2220 C   0  0  0  0  0  0  0  0  0  0  0  0
  -23.4440  -30.4560   21.5700 C   0  0  0  0  0  3  0  0  0  0  0  0
  -24.9050  -28.8920   20.1850 C   0  0  0  0  0  0  0  0  0  0  0  0
  -25.9730  -30.7970   21.4050 C   0  0  0  0  0  2  0  0  0  0  0  0
  -26.0600  -29.4210   20.7790 C   0  0  0  0  0  0  0  0  0  0  0  0
  -27.2590  -28.6770   20.7970 C   0  0  0  0  0  3  0  0  0  0  0  0
  -26.1180  -26.8580   19.6480 C   0  0  0  0  0  3  0  0  0  0  0  0
  -24.9290  -27.6070   19.6160 C   0  0  0  0  0  3  0  0  0  0  0  0
  -23.6670  -29.7580   20.2020 C   0  0  0  0  0  2  0  0  0  0  0  0
  -24.7030  -31.0510   22.1240 N   0  0  0  0  0  0  0  0  0  0  0  0
  -23.5540  -32.1520   23.7390 O   0  0  0  0  0  0  0  0  0  0  0  0
  -22.7670  -29.4530   22.5320 C   0  0  0  0  0  0  0  0  0  0  0  0
  -21.4390  -29.3040   22.4010 N   0  0  0  0  0  0  0  0  0  0  0  0
  -23.4330  -28.8110   23.3490 O   0  0  0  0  0  0  0  0  0  0  0  0
  -20.9650  -29.8720   21.7140 H   0  0  0  0  0  0  0  0  0  0  0  0
  -18.0290  -28.2280   22.9170 C   0  0  0  0  0  0  0  0  0  0  0  0
  -20.5960  -28.3880   23.1690 C   0  0  0  0  0  3  0  0  0  0  0  0
  -20.6420  -26.9600   22.5780 C   0  0  0  0  0  2  0  0  0  0  0  0
  -19.5200  -26.6870   21.5720 C   0  0  0  0  0  2  0  0  0  0  0  0
  -18.1490  -26.8790   22.2280 C   0  0  0  0  0  2  0  0  0  0  0  0
  -19.1790  -28.9440   23.3440 C   0  0  0  0  0  0  0  0  0  0  0  0
  -19.0130  -30.2100   23.9470 C   0  0  0  0  0  3  0  0  0  0  0  0
  -17.7290  -30.7580   24.1280 C   0  0  0  0  0  3  0  0  0  0  0  0
  -16.5930  -30.0380   23.7180 C   0  0  0  0  0  3  0  0  0  0  0  0
  -16.7450  -28.7750   23.1180 C   0  0  0  0  0  3  0  0  0  0  0  0
  -25.9240  -32.4830   23.8500 C   0  0  0  0  0  3  0  0  0  0  0  0
  -25.6200  -33.8790   24.1920 N   0  0  0  0  0  0  0  0  0  0  0  0
  -25.9680  -34.9360   23.4470 C   0  0  0  0  0  0  0  0  0  0  0  0
  -26.6510  -34.8400   22.4230 O   0  0  0  0  0  0  0  0  0  0  0  0
  -25.0170  -34.0300   24.9880 H   0  0  0  0  0  0  0  0  0  0  0  0
  -24.2610  -36.7440   23.0720 C   0  0  0  0  0  1  0  0  0  0  0  0
  -25.4780  -36.3220   23.9090 C   0  0  0  0  0  3  0  0  0  0  0  0
  -27.6000  -37.1790   24.8000 C   0  0  0  0  0  1  0  0  0  0  0  0
  -26.5200  -37.3690   23.8350 N   0  0  0  0  0  0  0  0  0  0  0  0
  -26.1170  -38.2890   23.9900 H   0  0  0  0  0  0  0  0  0  0  0  0
  -26.4370  -31.6970   25.1200 C   0  0  1  0  0  0  0  0  0  0  0  0
  -25.3370  -31.4400   26.1760 C   0  0  0  0  0  1  0  0  0  0  0  0
  -27.0270  -30.3280   24.7100 C   0  0  0  0  0  1  0  0  0  0  0  0
  -27.5790  -32.4860   25.8010 C   0  0  0  0  0  1  0  0  0  0  0  0
  2  7  1  0
  2  1  1  0
  3  5  1  0
  4  8  1  0
  5  9  1  0
  6  7  1  0
  6  4  2  0
  7  3  2  0
  8  5  2  0
  8 12  1  0
 10  6  1  0
 12 11  1  0
 13 12  1  0
 14 19  1  0
 15 16  1  0
 15 14  1  0
 17 16  1  0
 17 24  1  0
 17 18  1  0
 19 13  1  0
 19 18  1  0
 20 13  2  0
 21 22  2  0
 22 41  1  0
 23 22  1  0
 23 26  1  0
 24 21  1  0
 24 25  1  0
 25 23  2  0
 26 27  1  0
 27 28  2  0
 29 32  1  0
 29 28  1  0
 30 29  2  0
 31 30  1  0
 31 26  2  0
 32 33  1  0
 33 38  2  0
 33 34  1  0
 34 35  2  0
 35 36  1  0
 36 40  1  0
 37 36  2  0
 38 37  1  0
 39 38  1  0
 41 42  1  0
 42 45  1  0
 42 44  1  0
 43 41  2  0
 46 47  1  0
 46 21  1  0
 48 46  1  0
 49 50  1  0
 49  1  1  0
 50 52  1  0
 51 50  1  0
 53 54  1  0
 53 50  1  0
 54 55  1  0
 55 56  1  0
 57 68  2  0
 58 56  1  0
 58 63  1  0
 59 67  1  0
 59 69  1  0
 60 66  1  0
 60 62  1  0
 61 67  1  0
 62 63  2  0
 62 61  1  0
 64 58  2  0
 65 64  1  0
 65 60  2  0
 66 59  1  0
 67 57  1  0
 69 71  2  0
 70 69  1  0
 72 70  1  0
 73 82  2  0
 73 78  1  0
 74 70  1  0
 74 78  1  0
 75 74  1  0
 76 77  1  0
 76 75  1  0
 77 73  1  0
 78 79  2  0
 79 80  1  0
 81 80  2  0
 82 81  1  0
 83 57  1  0
 83 84  1  0
 83 93  1  0
 84 87  1  0
 85 89  1  0
 85 84  1  0
 86 85  2  0
 89 88  1  0
 91 89  1  0
 91 92  1  0
 91 90  1  0
 93 96  1  1
 93 94  1  0
 95 93  1  0
M  ISO  4  12 100  13 100  55 101  56 101
M  END
>  <TORSDO>  (94) 
F 24

>  <SCORE>  (94) 
-10.108

>  <name>  (94) 
94

>  <ligand_id>  (94) 
94

>  <original_smiles>  (94) 
[H]c1c([H])c([H])c2c(c1[H])C([H])([H])C([H])([H])C([H])([H])C2([H])N([H])C(=O)C1([H])N(C(=O)C([H])(N([H])C(=O)C([H])(N([H])C([H])([H])[H])C([H])([H])[H])C(C([H])([H])[H])(C([H])([H])[H])C([H])([H])[H])C([H])([H])c2c([H])c(OC([H])([H])C([H])([H])C([H])([H])[N+]([H])([H])C([H])([H])C([H])([H])C([H])([H])c3c([H])c(C([H])([H])[H])c(C([H])(C(=O)N4C([H])([H])C([H])([H])C([H])([H])C([H])(n5nc(-c6c([H])c([H])c(Oc7c([H])c([H])c(F)c([H])c7F)c([H])c6[H])c(C(=O)N([H])[H])c5N([H])[H])C4([H])[H])C([H])([H])[H])c([H])c3C([H])([H])[H])c([H])c([H])c2C1([H])[H]

>  <smiles>  (94) 
[H]c1c([H])c([H])c2c(c1[H])C([H])([H])C([H])([H])C([H])([H])C2([H])N([H])C(=O)C1([H])N(C(=O)C([H])(N([H])C(=O)C([H])(N([H])C([H])([H])[H])C([H])([H])[H])C(C([H])([H])[H])(C([H])([H])[H])C([H])([H])[H])C([H])([H])c2c([H])c(OC([H])([H])C([H])([H])C([H])([H])[N+]([H])([H])C([H])([H])C([H])([H])C([H])([H])c3c([H])c(C([H])([H])[H])c(C([H])(C(=O)N4C([H])([H])C([H])([H])C([H])([H])C([H])(n5nc(-c6c([H])c([H])c(Oc7c([H])c([H])c(F)c([H])c7F)c([H])c6[H])c(C(=O)N([H])[H])c5N([H])[H])C4([H])[H])C([H])([H])[H])c([H])c3C([H])([H])[H])c([H])c([H])c2C1([H])[H]

$$$$
95:0:0
     RDKit          3D

 87 95  0  0  1  0  0  0  0  0999 V2000
  -28.8970  -21.3110   21.0050 C   0  0  0  0  0  3  0  0  0  0  0  0
  -29.2560  -20.0280   20.2220 C   0  0  0  0  0  0  0  0  0  0  0  0
  -28.5840  -22.5500   20.2710 C   0  0  0  0  0  0  0  0  0  0  0  0
  -28.5990  -22.5720   17.7290 C   0  0  0  0  0  1  0  0  0  0  0  0
  -29.1720  -20.5710   18.9910 N   0  0  0  0  0  0  0  0  0  0  0  0
  -28.7840  -21.9330   19.0170 N   0  0  0  0  0  0  0  0  0  0  0  0
  -29.9650  -18.3970   20.5100 C   0  0  0  0  0  2  0  0  0  0  0  0
  -30.3600  -15.4330   20.2160 C   0  0  0  0  0  0  0  0  0  0  0  0
  -30.3510  -12.9670   19.3260 C   0  0  0  0  0  2  0  0  0  0  0  0
  -29.4240  -12.6980   18.1130 C   0  0  0  0  0  2  0  0  0  0  0  0
  -27.9900  -12.3980   18.5770 C   0  0  0  0  0  2  0  0  0  0  0  0
  -27.5310  -13.3700   19.6910 C   0  0  0  0  0  3  0  0  0  0  0  0
  -28.5900  -13.5720   20.7970 C   0  0  0  0  0  2  0  0  0  0  0  0
  -29.7890  -14.1190   20.1340 N   0  0  0  0  0  0  0  0  0  0  0  0
  -31.5880  -15.3960   20.0430 O   0  0  0  0  0  0  0  0  0  0  0  0
  -29.6220  -16.7450   20.2960 N   0  0  0  0  0  0  0  0  0  0  0  0
  -28.6250  -16.5880   20.3060 H   0  0  0  0  0  0  0  0  0  0  0  0
  -25.1720  -13.9070   20.4830 C   0  0  0  0  0  0  0  0  0  0  0  0
  -24.1190  -13.1240   20.8580 C   0  0  0  0  0  0  0  0  0  0  0  0
  -24.5930  -11.7760   20.8160 C   0  0  0  0  0  0  0  0  0  0  0  0
  -26.2160  -13.0380   20.2220 N   0  0  0  0  0  0  0  0  0  0  0  0
  -25.8810  -11.7500   20.4910 N   0  0  0  0  0  0  0  0  0  0  0  0
  -23.8720  -10.5100   21.0050 C   0  0  0  0  0  0  0  0  0  0  0  0
  -24.3050   -9.5440   21.9410 C   0  0  0  0  0  3  0  0  0  0  0  0
  -23.5810   -8.3460   22.1200 C   0  0  0  0  0  3  0  0  0  0  0  0
  -22.4100   -8.1030   21.3630 C   0  0  0  0  0  0  0  0  0  0  0  0
  -21.9970   -9.0560   20.4160 C   0  0  0  0  0  3  0  0  0  0  0  0
  -22.7200  -10.2470   20.2350 C   0  0  0  0  0  3  0  0  0  0  0  0
  -21.6580   -6.9570   21.4520 O   0  0  0  0  0  0  0  0  0  0  0  0
  -21.5940   -6.2250   22.6100 C   0  0  0  0  0  0  0  0  0  0  0  0
  -21.1410   -6.7880   23.8240 C   0  0  0  0  0  3  0  0  0  0  0  0
  -21.0270   -5.9820   24.9740 C   0  0  0  0  0  3  0  0  0  0  0  0
  -21.3540   -4.6150   24.9120 C   0  0  0  0  0  0  0  0  0  0  0  0
  -21.8000   -4.0510   23.7040 C   0  0  0  0  0  3  0  0  0  0  0  0
  -21.9170   -4.8540   22.5550 C   0  0  0  0  0  0  0  0  0  0  0  0
  -22.3270   -4.3010   21.3880 F   0  0  0  0  0  0  0  0  0  0  0  0
  -21.2370   -3.8380   26.0150 F   0  0  0  0  0  0  0  0  0  0  0  0
  -22.7210  -13.5930   21.1370 C   0  0  0  0  0  0  0  0  0  0  0  0
  -22.0020  -12.8910   22.0050 N   0  0  0  0  0  0  0  0  0  0  0  0
  -22.2780  -14.6190   20.6230 O   0  0  0  0  0  0  0  0  0  0  0  0
  -22.3750  -12.0620   22.4420 H   0  0  0  0  0  0  0  0  0  0  0  0
  -21.0640  -13.1870   22.2360 H   0  0  0  0  0  0  0  0  0  0  0  0
  -25.3230  -15.2790   20.3100 N   0  0  0  0  0  0  0  0  0  0  0  0
  -24.5490  -15.9240   20.4290 H   0  0  0  0  0  0  0  0  0  0  0  0
  -26.1550  -15.7240   19.9410 H   0  0  0  0  0  0  0  0  0  0  0  0
  -27.8020  -24.1440   20.5410 C   0  0  0  0  0  2  0  0  0  0  0  0
  -28.1880  -25.7630   20.3150 O   0  0  0  0  0  0  0  0  0  0  0  0
  -24.6550  -31.8970   23.2190 C   0  0  0  0  0  0  0  0  0  0  0  0
  -27.2030  -26.9140   20.2860 C   0  0  0  0  0  0  0  0  0  0  0  0
  -23.4640  -30.4790   21.6010 C   0  0  0  0  0  3  0  0  0  0  0  0
  -24.9140  -28.8440   20.2080 C   0  0  0  0  0  0  0  0  0  0  0  0
  -26.0370  -30.6680   21.4590 C   0  0  0  0  0  2  0  0  0  0  0  0
  -26.1060  -29.2420   20.8260 C   0  0  0  0  0  0  0  0  0  0  0  0
  -27.2460  -28.3000   20.8350 C   0  0  0  0  0  3  0  0  0  0  0  0
  -25.9790  -26.6930   19.6110 C   0  0  0  0  0  3  0  0  0  0  0  0
  -24.8790  -27.5920   19.5770 C   0  0  0  0  0  3  0  0  0  0  0  0
  -23.6990  -29.7740   20.2360 C   0  0  0  0  0  2  0  0  0  0  0  0
  -24.7410  -31.0440   22.1450 N   0  0  0  0  0  0  0  0  0  0  0  0
  -23.5640  -32.1960   23.7330 O   0  0  0  0  0  0  0  0  0  0  0  0
  -22.7630  -29.5000   22.5810 C   0  0  0  0  0  0  0  0  0  0  0  0
  -21.4330  -29.3350   22.4550 N   0  0  0  0  0  0  0  0  0  0  0  0
  -23.4250  -28.8900   23.4240 O   0  0  0  0  0  0  0  0  0  0  0  0
  -20.9510  -29.8770   21.7520 H   0  0  0  0  0  0  0  0  0  0  0  0
  -18.0500  -28.1250   22.9770 C   0  0  0  0  0  0  0  0  0  0  0  0
  -20.6090  -28.4080   23.2390 C   0  0  0  0  0  3  0  0  0  0  0  0
  -20.7170  -26.9670   22.6910 C   0  0  0  0  0  2  0  0  0  0  0  0
  -19.6190  -26.6230   21.6790 C   0  0  0  0  0  2  0  0  0  0  0  0
  -18.2350  -26.7680   22.3180 C   0  0  0  0  0  2  0  0  0  0  0  0
  -19.1630  -28.9020   23.3950 C   0  0  0  0  0  0  0  0  0  0  0  0
  -18.9340  -30.1680   23.9740 C   0  0  0  0  0  3  0  0  0  0  0  0
  -17.6240  -30.6580   24.1380 C   0  0  0  0  0  3  0  0  0  0  0  0
  -16.5260  -29.8810   23.7320 C   0  0  0  0  0  3  0  0  0  0  0  0
  -16.7400  -28.6150   23.1580 C   0  0  0  0  0  3  0  0  0  0  0  0
  -25.9230  -32.5530   23.8460 C   0  0  0  0  0  3  0  0  0  0  0  0
  -25.5980  -33.9520   24.1740 N   0  0  0  0  0  0  0  0  0  0  0  0
  -25.9190  -35.0130   23.4210 C   0  0  0  0  0  0  0  0  0  0  0  0
  -26.5820  -34.9170   22.3860 O   0  0  0  0  0  0  0  0  0  0  0  0
  -25.0070  -34.1000   24.9790 H   0  0  0  0  0  0  0  0  0  0  0  0
  -24.1810  -36.8080   23.0930 C   0  0  0  0  0  1  0  0  0  0  0  0
  -25.4330  -36.4020   23.8890 C   0  0  0  0  0  3  0  0  0  0  0  0
  -27.5700  -37.2980   24.7030 C   0  0  0  0  0  1  0  0  0  0  0  0
  -26.4590  -37.4600   23.7680 N   0  0  0  0  0  0  0  0  0  0  0  0
  -26.0500  -38.3780   23.9160 H   0  0  0  0  0  0  0  0  0  0  0  0
  -26.4310  -31.8000   25.1370 C   0  0  1  0  0  0  0  0  0  0  0  0
  -25.3320  -31.5760   26.2030 C   0  0  0  0  0  1  0  0  0  0  0  0
  -27.0200  -30.4170   24.7770 C   0  0  0  0  0  1  0  0  0  0  0  0
  -27.5760  -32.6060   25.7950 C   0  0  0  0  0  1  0  0  0  0  0  0
  2  7  1  0
  2  1  1  0
  3 46  1  0
  3  1  2  0
  4  6  1  0
  5  6  1  0
  5  2  2  0
  6  3  1  0
  8 16  1  0
  9 14  1  0
 10 11  1  0
 10  9  1  0
 12 11  1  0
 12 21  1  0
 12 13  1  0
 14  8  1  0
 14 13  1  0
 15  8  2  0
 16 17  1  0
 16  7  1  0
 18 19  2  0
 19 38  1  0
 20 19  1  0
 20 23  1  0
 21 18  1  0
 21 22  1  0
 22 20  2  0
 23 24  1  0
 24 25  2  0
 26 29  1  0
 26 25  1  0
 27 26  2  0
 28 27  1  0
 28 23  2  0
 29 30  1  0
 30 31  1  0
 31 32  2  0
 33 32  1  0
 33 37  1  0
 34 33  2  0
 35 30  2  0
 35 34  1  0
 36 35  1  0
 38 39  1  0
 39 42  1  0
 39 41  1  0
 40 38  2  0
 43 44  1  0
 43 18  1  0
 45 43  1  0
 47 46  1  0
 48 59  2  0
 49 47  1  0
 49 54  1  0
 50 58  1  0
 50 60  1  0
 51 57  1  0
 51 53  1  0
 52 58  1  0
 53 54  2  0
 53 52  1  0
 55 49  2  0
 56 55  1  0
 56 51  2  0
 57 50  1  0
 58 48  1  0
 60 62  2  0
 61 60  1  0
 63 61  1  0
 64 73  2  0
 64 69  1  0
 65 61  1  0
 65 69  1  0
 66 65  1  0
 67 68  1  0
 67 66  1  0
 68 64  1  0
 69 70  2  0
 70 71  1  0
 72 71  2  0
 73 72  1  0
 74 48  1  0
 74 75  1  0
 74 84  1  0
 75 78  1  0
 76 80  1  0
 76 75  1  0
 77 76  2  0
 80 79  1  0
 82 80  1  0
 82 83  1  0
 82 81  1  0
 84 87  1  1
 84 85  1  0
 86 84  1  0
M  ISO  4   8 100  16 100  46 101  47 101
M  END
>  <TORSDO>  (95) 
F 18

>  <SCORE>  (95) 
-16.642

>  <name>  (95) 
95

>  <ligand_id>  (95) 
95

>  <original_smiles>  (95) 
[H]c1c([H])c([H])c2c(c1[H])C([H])([H])C([H])([H])C([H])([H])C2([H])N([H])C(=O)C1([H])N(C(=O)C([H])(N([H])C(=O)C([H])(N([H])C([H])([H])[H])C([H])([H])[H])C(C([H])([H])[H])(C([H])([H])[H])C([H])([H])[H])C([H])([H])c2c([H])c(OC([H])([H])c3c([H])c(C([H])([H])N([H])C(=O)N4C([H])([H])C([H])([H])C([H])([H])C([H])(n5nc(-c6c([H])c([H])c(Oc7c([H])c([H])c(F)c([H])c7F)c([H])c6[H])c(C(=O)N([H])[H])c5N([H])[H])C4([H])[H])nn3C([H])([H])[H])c([H])c([H])c2C1([H])[H]

>  <smiles>  (95) 
[H]c1c([H])c([H])c2c(c1[H])C([H])([H])C([H])([H])C([H])([H])C2([H])N([H])C(=O)C1([H])N(C(=O)C([H])(N([H])C(=O)C([H])(N([H])C([H])([H])[H])C([H])([H])[H])C(C([H])([H])[H])(C([H])([H])[H])C([H])([H])[H])C([H])([H])c2c([H])c(OC([H])([H])c3c([H])c(C([H])([H])N([H])C(=O)N4C([H])([H])C([H])([H])C([H])([H])C([H])(n5nc(-c6c([H])c([H])c(Oc7c([H])c([H])c(F)c([H])c7F)c([H])c6[H])c(C(=O)N([H])[H])c5N([H])[H])C4([H])[H])nn3C([H])([H])[H])c([H])c([H])c2C1([H])[H]

$$$$
96:0:0
     RDKit          3D

 93101  0  0  1  0  0  0  0  0999 V2000
  -28.4210  -21.9770   20.2840 C   0  0  0  0  0  3  0  0  0  0  0  0
  -28.5370  -20.5490   20.2600 C   0  0  0  0  0  0  0  0  0  0  0  0
  -28.8810  -19.8560   19.0530 C   0  0  0  0  0  0  0  0  0  0  0  0
  -28.6420  -22.7460   19.1180 C   0  0  0  0  0  0  0  0  0  0  0  0
  -29.0910  -20.7250   17.9370 C   0  0  0  0  0  0  0  0  0  0  0  0
  -28.1910  -19.7980   21.5310 C   0  0  0  0  0  1  0  0  0  0  0  0
  -29.3490  -20.1930   16.5350 C   0  0  0  0  0  1  0  0  0  0  0  0
  -28.9920  -22.0870   17.9830 N   0  0  0  0  0  0  0  0  0  0  0  0
  -28.7580  -18.2760   18.8600 C   0  0  0  0  0  2  0  0  0  0  0  0
  -29.4170  -17.0900   19.7360 C   0  0  0  0  0  2  0  0  0  0  0  0
  -31.4190  -17.0990   18.2050 C   0  0  0  0  0  1  0  0  0  0  0  0
  -30.9240  -16.5750   19.5770 C   0  0  2  0  0  0  0  0  0  0  0  0
  -31.3740  -15.0110   19.5750 C   0  0  0  0  0  0  0  0  0  0  0  0
  -31.0300  -12.6210   18.9940 C   0  0  0  0  0  2  0  0  0  0  0  0
  -30.0910  -12.5120   17.7780 C   0  0  0  0  0  2  0  0  0  0  0  0
  -28.6370  -12.4000   18.2700 C   0  0  0  0  0  2  0  0  0  0  0  0
  -28.2870  -13.4760   19.3310 C   0  0  0  0  0  3  0  0  0  0  0  0
  -29.3760  -13.6340   20.4190 C   0  0  0  0  0  2  0  0  0  0  0  0
  -30.6550  -13.8490   19.7420 N   0  0  0  0  0  0  0  0  0  0  0  0
  -32.5490  -14.8660   19.2280 O   0  0  0  0  0  0  0  0  0  0  0  0
  -26.0160  -14.1820   20.2710 C   0  0  0  0  0  0  0  0  0  0  0  0
  -24.9380  -13.4630   20.7010 C   0  0  0  0  0  0  0  0  0  0  0  0
  -25.3110  -12.0870   20.5980 C   0  0  0  0  0  0  0  0  0  0  0  0
  -26.9760  -13.2500   19.9220 N   0  0  0  0  0  0  0  0  0  0  0  0
  -26.5690  -11.9820   20.1860 N   0  0  0  0  0  0  0  0  0  0  0  0
  -24.5220  -10.8660   20.8010 C   0  0  0  0  0  0  0  0  0  0  0  0
  -24.8740   -9.9140   21.7830 C   0  0  0  0  0  3  0  0  0  0  0  0
  -24.0880   -8.7580   21.9750 C   0  0  0  0  0  3  0  0  0  0  0  0
  -22.9330   -8.5450   21.1850 C   0  0  0  0  0  0  0  0  0  0  0  0
  -22.5990   -9.4850   20.1940 C   0  0  0  0  0  3  0  0  0  0  0  0
  -23.3870  -10.6320   20.0000 C   0  0  0  0  0  3  0  0  0  0  0  0
  -22.1200   -7.4440   21.2860 O   0  0  0  0  0  0  0  0  0  0  0  0
  -21.8900   -6.8240   22.4910 C   0  0  0  0  0  0  0  0  0  0  0  0
  -21.2790   -7.4990   23.5700 C   0  0  0  0  0  3  0  0  0  0  0  0
  -21.0000   -6.8060   24.7660 C   0  0  0  0  0  3  0  0  0  0  0  0
  -21.3170   -5.4380   24.8770 C   0  0  0  0  0  0  0  0  0  0  0  0
  -21.9180   -4.7640   23.8000 C   0  0  0  0  0  3  0  0  0  0  0  0
  -22.2010   -5.4560   22.6080 C   0  0  0  0  0  0  0  0  0  0  0  0
  -22.7600   -4.7950   21.5660 F   0  0  0  0  0  0  0  0  0  0  0  0
  -21.0420   -4.7700   26.0220 F   0  0  0  0  0  0  0  0  0  0  0  0
  -23.5970  -14.0170   21.0860 C   0  0  0  0  0  0  0  0  0  0  0  0
  -22.8990  -13.3480   21.9960 N   0  0  0  0  0  0  0  0  0  0  0  0
  -23.1850  -15.0750   20.6160 O   0  0  0  0  0  0  0  0  0  0  0  0
  -23.2540  -12.4950   22.4010 H   0  0  0  0  0  0  0  0  0  0  0  0
  -21.9990  -13.6960   22.2940 H   0  0  0  0  0  0  0  0  0  0  0  0
  -26.2560  -15.5450   20.1210 N   0  0  0  0  0  0  0  0  0  0  0  0
  -25.5420  -16.2400   20.3040 H   0  0  0  0  0  0  0  0  0  0  0  0
  -27.0980  -15.9300   19.7190 H   0  0  0  0  0  0  0  0  0  0  0  0
  -31.8520  -18.8200   20.6470 C   0  0  0  0  0  1  0  0  0  0  0  0
  -31.7670  -17.2770   20.6940 C   0  0  0  0  0  2  0  0  0  0  0  0
  -28.4550  -24.3140   18.9760 C   0  0  0  0  0  3  0  0  0  0  0  0
  -28.2440  -25.2770   20.2290 C   0  0  0  0  0  3  0  0  0  0  0  0
  -28.4310  -26.7460   20.0650 O   0  0  0  0  0  0  0  0  0  0  0  0
  -24.5820  -31.9590   23.2600 C   0  0  0  0  0  0  0  0  0  0  0  0
  -27.3030  -27.5700   20.0720 C   0  0  0  0  0  0  0  0  0  0  0  0
  -23.4140  -30.5760   21.5790 C   0  0  0  0  0  3  0  0  0  0  0  0
  -24.9060  -29.1130   20.1080 C   0  0  0  0  0  0  0  0  0  0  0  0
  -25.9440  -30.9780   21.4000 C   0  0  0  0  0  2  0  0  0  0  0  0
  -26.0620  -29.6230   20.7120 C   0  0  0  0  0  0  0  0  0  0  0  0
  -27.2700  -28.8650   20.6790 C   0  0  0  0  0  3  0  0  0  0  0  0
  -26.1250  -27.1070   19.4570 C   0  0  0  0  0  3  0  0  0  0  0  0
  -24.9370  -27.8610   19.4720 C   0  0  0  0  0  3  0  0  0  0  0  0
  -23.6460  -29.9520   20.1780 C   0  0  0  0  0  2  0  0  0  0  0  0
  -24.6650  -31.1860   22.1380 N   0  0  0  0  0  0  0  0  0  0  0  0
  -23.4910  -32.1850   23.8050 O   0  0  0  0  0  0  0  0  0  0  0  0
  -22.7860  -29.5090   22.5070 C   0  0  0  0  0  0  0  0  0  0  0  0
  -21.4770  -29.2540   22.3410 N   0  0  0  0  0  0  0  0  0  0  0  0
  -23.4760  -28.9150   23.3400 O   0  0  0  0  0  0  0  0  0  0  0  0
  -20.9700  -29.7970   21.6550 H   0  0  0  0  0  0  0  0  0  0  0  0
  -18.1770  -27.8180   22.6900 C   0  0  0  0  0  0  0  0  0  0  0  0
  -20.6940  -28.2600   23.0770 C   0  0  0  0  0  3  0  0  0  0  0  0
  -20.9220  -26.8370   22.5160 C   0  0  0  0  0  2  0  0  0  0  0  0
  -19.8940  -26.4350   21.4520 C   0  0  0  0  0  2  0  0  0  0  0  0
  -18.4780  -26.4830   22.0310 C   0  0  0  0  0  2  0  0  0  0  0  0
  -19.2160  -28.6590   23.1680 C   0  0  0  0  0  0  0  0  0  0  0  0
  -18.8800  -29.9050   23.7400 C   0  0  0  0  0  3  0  0  0  0  0  0
  -17.5360  -30.3110   23.8460 C   0  0  0  0  0  3  0  0  0  0  0  0
  -16.5100  -29.4680   23.3830 C   0  0  0  0  0  3  0  0  0  0  0  0
  -16.8310  -28.2250   22.8100 C   0  0  0  0  0  3  0  0  0  0  0  0
  -25.8470  -32.6100   23.8970 C   0  0  0  0  0  3  0  0  0  0  0  0
  -25.5170  -34.0100   24.2060 N   0  0  0  0  0  0  0  0  0  0  0  0
  -25.8540  -35.0580   23.4440 C   0  0  0  0  0  0  0  0  0  0  0  0
  -26.5460  -34.9500   22.4270 O   0  0  0  0  0  0  0  0  0  0  0  0
  -24.9050  -34.1680   24.9930 H   0  0  0  0  0  0  0  0  0  0  0  0
  -24.1210  -36.8360   23.0320 C   0  0  0  0  0  1  0  0  0  0  0  0
  -25.3450  -36.4460   23.8760 C   0  0  0  0  0  3  0  0  0  0  0  0
  -27.4440  -37.3660   24.7610 C   0  0  0  0  0  1  0  0  0  0  0  0
  -26.3700  -37.5090   23.7790 N   0  0  0  0  0  0  0  0  0  0  0  0
  -25.9490  -38.4260   23.9010 H   0  0  0  0  0  0  0  0  0  0  0  0
  -26.3450  -31.8600   25.1950 C   0  0  1  0  0  0  0  0  0  0  0  0
  -25.2300  -31.5980   26.2320 C   0  0  0  0  0  1  0  0  0  0  0  0
  -26.9770  -30.4970   24.8300 C   0  0  0  0  0  1  0  0  0  0  0  0
  -27.4500  -32.6910   25.8880 C   0  0  0  0  0  1  0  0  0  0  0  0
  2  1  1  0
  2  6  1  0
  3  2  2  0
  4  1  2  0
  5  8  2  0
  5  3  1  0
  7  5  1  0
  8  4  1  0
  9  3  1  0
  9 10  1  0
 12 11  1  6
 12 10  1  0
 12 50  1  0
 13 12  1  0
 13 19  1  0
 14 19  1  0
 15 16  1  0
 15 14  1  0
 17 16  1  0
 17 24  1  0
 17 18  1  0
 19 18  1  0
 20 13  2  0
 21 22  2  0
 22 41  1  0
 23 22  1  0
 23 26  1  0
 24 25  1  0
 24 21  1  0
 25 23  2  0
 26 27  1  0
 27 28  2  0
 29 32  1  0
 29 28  1  0
 30 29  2  0
 31 30  1  0
 31 26  2  0
 32 33  1  0
 33 38  2  0
 33 34  1  0
 34 35  2  0
 35 36  1  0
 36 40  1  0
 37 36  2  0
 38 37  1  0
 39 38  1  0
 41 42  1  0
 42 45  1  0
 42 44  1  0
 43 41  2  0
 46 21  1  0
 46 47  1  0
 48 46  1  0
 49 50  1  0
 51  4  1  0
 51 52  2  0
 53 55  1  0
 53 52  1  0
 54 65  2  0
 55 60  1  0
 56 64  1  0
 56 66  1  0
 57 63  1  0
 57 59  1  0
 58 64  1  0
 59 58  1  0
 60 59  2  0
 61 62  1  0
 61 55  2  0
 62 57  2  0
 63 56  1  0
 64 54  1  0
 66 68  2  0
 67 66  1  0
 69 67  1  0
 70 79  2  0
 70 75  1  0
 71 67  1  0
 71 75  1  0
 72 71  1  0
 73 74  1  0
 73 72  1  0
 74 70  1  0
 75 76  2  0
 76 77  1  0
 78 77  2  0
 79 78  1  0
 80 54  1  0
 80 81  1  0
 80 90  1  0
 81 84  1  0
 82 86  1  0
 82 81  1  0
 83 82  2  0
 86 85  1  0
 88 86  1  0
 88 89  1  0
 88 87  1  0
 90 93  1  1
 90 91  1  0
 92 90  1  0
M  ISO  4  12 100  13 100  52 101  53 101
M  END
>  <TORSDO>  (96) 
F 22

>  <SCORE>  (96) 
-11.370

>  <name>  (96) 
96

>  <ligand_id>  (96) 
96

>  <original_smiles>  (96) 
[H]c1c([H])c([H])c2c(c1[H])C([H])([H])C([H])([H])C([H])([H])C2([H])N([H])C(=O)C1([H])N(C(=O)C([H])(N([H])C(=O)C([H])(N([H])C([H])([H])[H])C([H])([H])[H])C(C([H])([H])[H])(C([H])([H])[H])C([H])([H])[H])C([H])([H])c2c([H])c(OC([H])([H])C([H])([H])c3nc(C([H])([H])[H])c(C([H])([H])C([H])([H])C(C(=O)N4C([H])([H])C([H])([H])C([H])([H])C([H])(n5nc(-c6c([H])c([H])c(Oc7c([H])c([H])c(F)c([H])c7F)c([H])c6[H])c(C(=O)N([H])[H])c5N([H])[H])C4([H])[H])(C([H])([H])[H])C([H])([H])C([H])([H])[H])c(C([H])([H])[H])c3[H])c([H])c([H])c2C1([H])[H]

>  <smiles>  (96) 
[H]c1c([H])c([H])c2c(c1[H])C([H])([H])C([H])([H])C([H])([H])C2([H])N([H])C(=O)C1([H])N(C(=O)C([H])(N([H])C(=O)C([H])(N([H])C([H])([H])[H])C([H])([H])[H])C(C([H])([H])[H])(C([H])([H])[H])C([H])([H])[H])C([H])([H])c2c([H])c(OC([H])([H])C([H])([H])c3nc(C([H])([H])[H])c(C([H])([H])C([H])([H])C(C(=O)N4C([H])([H])C([H])([H])C([H])([H])C([H])(n5nc(-c6c([H])c([H])c(Oc7c([H])c([H])c(F)c([H])c7F)c([H])c6[H])c(C(=O)N([H])[H])c5N([H])[H])C4([H])[H])(C([H])([H])[H])C([H])([H])C([H])([H])[H])c(C([H])([H])[H])c3[H])c([H])c([H])c2C1([H])[H]

$$$$
