0:0:0
     RDKit          3D

 95103  0  0  1  0  0  0  0  0999 V2000
  -26.1060  -22.7930   23.2290 C   0  0  0  0  0  3  0  0  0  0  0  0
  -27.3900  -22.8060   22.7470 C   0  0  0  0  0  0  0  0  0  0  0  0
  -26.5310  -20.7660   22.4230 C   0  0  0  0  0  3  0  0  0  0  0  0
  -24.2260  -21.1170   23.2980 C   0  0  0  0  0  1  0  0  0  0  0  0
  -25.5970  -21.5430   22.9990 N   0  0  0  0  0  0  0  0  0  0  0  0
  -27.6200  -21.5330   22.2800 N   0  0  0  0  0  0  0  0  0  0  0  0
  -28.4790  -21.2150   21.8500 H   0  0  0  0  0  0  0  0  0  0  0  0
  -28.3600  -23.9380   22.6170 C   0  0  0  0  0  2  0  0  0  0  0  0
  -27.8830  -24.8800   21.5040 C   0  0  0  0  0  2  0  0  0  0  0  0
  -28.7570  -26.1250   21.2940 C   0  0  0  0  0  2  0  0  0  0  0  0
  -28.4000  -26.7450   20.0610 O   0  0  0  0  0  0  0  0  0  0  0  0
  -24.6110  -31.8710   23.2140 C   0  0  0  0  0  0  0  0  0  0  0  0
  -27.2420  -27.4760   20.1020 C   0  0  0  0  0  0  0  0  0  0  0  0
  -23.3980  -30.4940   21.5520 C   0  0  0  0  0  3  0  0  0  0  0  0
  -24.8490  -28.9600   20.1190 C   0  0  0  0  0  0  0  0  0  0  0  0
  -25.9230  -30.8450   21.3650 C   0  0  0  0  0  2  0  0  0  0  0  0
  -26.0020  -29.4800   20.7210 C   0  0  0  0  0  0  0  0  0  0  0  0
  -27.2020  -28.7420   20.7200 C   0  0  0  0  0  3  0  0  0  0  0  0
  -26.0810  -26.9600   19.4900 C   0  0  0  0  0  3  0  0  0  0  0  0
  -24.8800  -27.6950   19.5030 C   0  0  0  0  0  3  0  0  0  0  0  0
  -23.6080  -29.8220   20.1680 C   0  0  0  0  0  2  0  0  0  0  0  0
  -24.6630  -31.0850   22.1020 N   0  0  0  0  0  0  0  0  0  0  0  0
  -23.5310  -32.1450   23.7550 O   0  0  0  0  0  0  0  0  0  0  0  0
  -22.7400  -29.4700   22.5000 C   0  0  0  0  0  0  0  0  0  0  0  0
  -21.4130  -29.3110   22.3760 N   0  0  0  0  0  0  0  0  0  0  0  0
  -23.4180  -28.8220   23.3010 O   0  0  0  0  0  0  0  0  0  0  0  0
  -20.9270  -29.8920   21.7070 H   0  0  0  0  0  0  0  0  0  0  0  0
  -18.0290  -28.1360   22.8490 C   0  0  0  0  0  0  0  0  0  0  0  0
  -20.5870  -28.3700   23.1320 C   0  0  0  0  0  3  0  0  0  0  0  0
  -20.6860  -26.9450   22.5410 C   0  0  0  0  0  2  0  0  0  0  0  0
  -19.5830  -26.6360   21.5250 C   0  0  0  0  0  2  0  0  0  0  0  0
  -18.1990  -26.7900   22.1640 C   0  0  0  0  0  2  0  0  0  0  0  0
  -19.1530  -28.8850   23.2890 C   0  0  0  0  0  0  0  0  0  0  0  0
  -18.9430  -30.1460   23.8890 C   0  0  0  0  0  3  0  0  0  0  0  0
  -17.6420  -30.6580   24.0500 C   0  0  0  0  0  3  0  0  0  0  0  0
  -16.5320  -29.9050   23.6270 C   0  0  0  0  0  3  0  0  0  0  0  0
  -16.7270  -28.6460   23.0330 C   0  0  0  0  0  3  0  0  0  0  0  0
  -25.9020  -32.4850   23.8430 C   0  0  0  0  0  3  0  0  0  0  0  0
  -25.5900  -33.8660   24.2370 N   0  0  0  0  0  0  0  0  0  0  0  0
  -25.9020  -34.9500   23.5140 C   0  0  0  0  0  0  0  0  0  0  0  0
  -26.5570  -34.8930   22.4700 O   0  0  0  0  0  0  0  0  0  0  0  0
  -25.0170  -33.9880   25.0600 H   0  0  0  0  0  0  0  0  0  0  0  0
  -24.1480  -36.7310   23.2640 C   0  0  0  0  0  1  0  0  0  0  0  0
  -25.4110  -36.3140   24.0340 C   0  0  0  0  0  3  0  0  0  0  0  0
  -27.5590  -37.1830   24.8470 C   0  0  0  0  0  1  0  0  0  0  0  0
  -26.4300  -37.3820   23.9410 N   0  0  0  0  0  0  0  0  0  0  0  0
  -26.0190  -38.2900   24.1420 H   0  0  0  0  0  0  0  0  0  0  0  0
  -26.4490  -31.6620   25.0730 C   0  0  1  0  0  0  0  0  0  0  0  0
  -25.3780  -31.3690   26.1480 C   0  0  0  0  0  1  0  0  0  0  0  0
  -27.0320  -30.3070   24.6060 C   0  0  0  0  0  1  0  0  0  0  0  0
  -27.6070  -32.4340   25.7480 C   0  0  0  0  0  1  0  0  0  0  0  0
  -26.4170  -19.3280   21.9820 C   0  0  0  0  0  2  0  0  0  0  0  0
  -27.3590  -18.4300   22.6510 N   0  0  0  0  0  0  0  0  0  0  0  0
  -27.7270  -18.9080   23.4690 H   0  0  0  0  0  0  0  0  0  0  0  0
  -28.4640  -18.0140   21.7910 C   0  0  0  0  0  2  0  0  0  0  0  0
  -29.5470  -17.3610   22.6760 C   0  0  0  0  0  2  0  0  0  0  0  0
  -30.6210  -16.5630   21.9120 C   0  0  0  0  0  2  0  0  0  0  0  0
  -30.7180  -14.4060   20.6530 C   0  0  0  0  0  0  0  0  0  0  0  0
  -30.4300  -12.3000   19.3980 C   0  0  0  0  0  2  0  0  0  0  0  0
  -29.4910  -12.5060   18.1940 C   0  0  0  0  0  2  0  0  0  0  0  0
  -28.0110  -12.3690   18.6120 C   0  0  0  0  0  2  0  0  0  0  0  0
  -27.6640  -13.1980   19.8770 C   0  0  0  0  0  3  0  0  0  0  0  0
  -28.7020  -12.9330   20.9890 C   0  0  0  0  0  2  0  0  0  0  0  0
  -30.0370  -13.2490   20.4470 N   0  0  0  0  0  0  0  0  0  0  0  0
  -31.8060  -14.6620   20.1280 O   0  0  0  0  0  0  0  0  0  0  0  0
  -30.0930  -15.2850   21.4460 N   0  0  0  0  0  0  0  0  0  0  0  0
  -29.1870  -15.0070   21.7940 H   0  0  0  0  0  0  0  0  0  0  0  0
  -25.2620  -13.8150   20.5700 C   0  0  0  0  0  0  0  0  0  0  0  0
  -24.1840  -13.0430   20.9190 C   0  0  0  0  0  0  0  0  0  0  0  0
  -24.6390  -11.6900   20.8750 C   0  0  0  0  0  0  0  0  0  0  0  0
  -26.3030  -12.9300   20.3360 N   0  0  0  0  0  0  0  0  0  0  0  0
  -25.9310  -11.6470   20.5770 N   0  0  0  0  0  0  0  0  0  0  0  0
  -23.9040  -10.4300   21.0420 C   0  0  0  0  0  0  0  0  0  0  0  0
  -24.3600   -9.4210   21.9200 C   0  0  0  0  0  3  0  0  0  0  0  0
  -23.6290   -8.2230   22.0740 C   0  0  0  0  0  3  0  0  0  0  0  0
  -22.4280   -8.0260   21.3530 C   0  0  0  0  0  0  0  0  0  0  0  0
  -21.9910   -9.0240   20.4630 C   0  0  0  0  0  3  0  0  0  0  0  0
  -22.7220  -10.2130   20.3060 C   0  0  0  0  0  3  0  0  0  0  0  0
  -21.6620   -6.8880   21.4250 O   0  0  0  0  0  0  0  0  0  0  0  0
  -21.6840   -6.0730   22.5290 C   0  0  0  0  0  0  0  0  0  0  0  0
  -21.4010   -6.5630   23.8230 C   0  0  0  0  0  3  0  0  0  0  0  0
  -21.3660   -5.6780   24.9190 C   0  0  0  0  0  3  0  0  0  0  0  0
  -21.6050   -4.3040   24.7230 C   0  0  0  0  0  0  0  0  0  0  0  0
  -21.8820   -3.8130   23.4350 C   0  0  0  0  0  3  0  0  0  0  0  0
  -21.9190   -4.6960   22.3410 C   0  0  0  0  0  0  0  0  0  0  0  0
  -22.1660   -4.2150   21.0990 F   0  0  0  0  0  0  0  0  0  0  0  0
  -21.5640   -3.4530   25.7740 F   0  0  0  0  0  0  0  0  0  0  0  0
  -22.7870  -13.5250   21.1840 C   0  0  0  0  0  0  0  0  0  0  0  0
  -22.0490  -12.8260   22.0410 N   0  0  0  0  0  0  0  0  0  0  0  0
  -22.3580  -14.5550   20.6690 O   0  0  0  0  0  0  0  0  0  0  0  0
  -22.4070  -11.9920   22.4830 H   0  0  0  0  0  0  0  0  0  0  0  0
  -21.1100  -13.1300   22.2560 H   0  0  0  0  0  0  0  0  0  0  0  0
  -25.4360  -15.1860   20.4130 N   0  0  0  0  0  0  0  0  0  0  0  0
  -24.6810  -15.8480   20.5510 H   0  0  0  0  0  0  0  0  0  0  0  0
  -26.2990  -15.6240   20.1180 H   0  0  0  0  0  0  0  0  0  0  0  0
  2  1  2  0
  3 52  1  0
  3  5  1  0
  5  1  1  0
  5  4  1  0
  6  3  1  0
  6  2  1  0
  7  6  1  0
  8  2  1  0
  9  8  1  0
 10  9  1  0
 11 13  1  0
 11 10  1  0
 12 23  2  0
 13 18  1  0
 14 22  1  0
 14 24  1  0
 15 21  1  0
 15 17  1  0
 16 22  1  0
 17 16  1  0
 18 17  2  0
 19 20  1  0
 19 13  2  0
 20 15  2  0
 21 14  1  0
 22 12  1  0
 24 26  2  0
 25 24  1  0
 27 25  1  0
 28 37  2  0
 28 33  1  0
 29 25  1  0
 29 33  1  0
 30 29  1  0
 31 32  1  0
 31 30  1  0
 32 28  1  0
 33 34  2  0
 34 35  1  0
 36 35  2  0
 37 36  1  0
 38 12  1  0
 38 39  1  0
 38 48  1  0
 39 42  1  0
 40 44  1  0
 40 39  1  0
 41 40  2  0
 44 43  1  0
 46 44  1  0
 46 47  1  0
 46 45  1  0
 48 51  1  1
 48 49  1  0
 50 48  1  0
 52 53  1  0
 53 54  1  0
 55 53  1  0
 55 56  1  0
 57 56  1  0
 58 66  1  0
 59 64  1  0
 60 61  1  0
 60 59  1  0
 62 61  1  0
 62 71  1  0
 62 63  1  0
 64 58  1  0
 64 63  1  0
 65 58  2  0
 66 67  1  0
 66 57  1  0
 68 69  2  0
 69 88  1  0
 70 69  1  0
 70 73  1  0
 71 68  1  0
 71 72  1  0
 72 70  2  0
 73 74  1  0
 74 75  2  0
 76 79  1  0
 76 75  1  0
 77 76  2  0
 78 77  1  0
 78 73  2  0
 79 80  1  0
 80 81  1  0
 81 82  2  0
 83 82  1  0
 83 87  1  0
 84 83  2  0
 85 80  2  0
 85 84  1  0
 86 85  1  0
 88 89  1  0
 89 92  1  0
 89 91  1  0
 90 88  2  0
 93 94  1  0
 93 68  1  0
 95 93  1  0
M  ISO  4  10 101  11 101  58 100  66 100
M  END
>  <TORSDO>  (1) 
F 24

>  <SCORE>  (1) 
26.354

>  <name>  (1) 
0

>  <ligand_id>  (1) 
0

>  <original_smiles>  (1) 
[H]c1c([H])c([H])c2c(c1[H])C([H])([H])C([H])([H])C([H])([H])C2([H])N([H])C(=O)C1([H])N(C(=O)C([H])(N([H])C(=O)C([H])(N([H])C([H])([H])[H])C([H])([H])[H])C(C([H])([H])[H])(C([H])([H])[H])C([H])([H])[H])C([H])([H])c2c([H])c(OC([H])([H])C([H])([H])C([H])([H])c3c([H])n(C([H])([H])[H])c(C([H])([H])N([H])C([H])([H])C([H])([H])C([H])([H])N([H])C(=O)N4C([H])([H])C([H])([H])C([H])([H])C([H])(n5nc(-c6c([H])c([H])c(Oc7c([H])c([H])c(F)c([H])c7F)c([H])c6[H])c(C(=O)N([H])[H])c5N([H])[H])C4([H])[H])[n+]3[H])c([H])c([H])c2C1([H])[H]

>  <smiles>  (1) 
[H]c1c([H])c([H])c2c(c1[H])C([H])([H])C([H])([H])C([H])([H])C2([H])N([H])C(=O)C1([H])N(C(=O)C([H])(N([H])C(=O)C([H])(N([H])C([H])([H])[H])C([H])([H])[H])C(C([H])([H])[H])(C([H])([H])[H])C([H])([H])[H])C([H])([H])c2c([H])c(OC([H])([H])C([H])([H])C([H])([H])c3c([H])n(C([H])([H])[H])c(C([H])([H])N([H])C([H])([H])C([H])([H])C([H])([H])N([H])C(=O)N4C([H])([H])C([H])([H])C([H])([H])C([H])(n5nc(-c6c([H])c([H])c(Oc7c([H])c([H])c(F)c([H])c7F)c([H])c6[H])c(C(=O)N([H])[H])c5N([H])[H])C4([H])[H])[n+]3[H])c([H])c([H])c2C1([H])[H]

$$$$
1:0:0
     RDKit          3D

 90 98  0  0  1  0  0  0  0  0999 V2000
  -31.1390  -21.9490   19.6320 C   0  0  0  0  0  0  0  0  0  0  0  0
  -30.4060  -24.1430   19.3340 C   0  0  0  0  0  0  0  0  0  0  0  0
  -29.9580  -21.6040   20.3430 C   0  0  0  0  0  0  0  0  0  0  0  0
  -29.2110  -23.8800   20.0530 C   0  0  0  0  0  0  0  0  0  0  0  0
  -32.2770  -20.9690   19.4060 C   0  0  0  0  0  1  0  0  0  0  0  0
  -30.7030  -25.4940   18.7100 C   0  0  0  0  0  1  0  0  0  0  0  0
  -31.3500  -23.1920   19.1330 N   0  0  0  0  0  0  0  0  0  0  0  0
  -29.0000  -22.5910   20.5420 N   0  0  0  0  0  0  0  0  0  0  0  0
  -29.8450  -20.1920   21.0600 C   0  0  0  0  0  2  0  0  0  0  0  0
  -29.6880  -18.8090   20.2540 C   0  0  0  0  0  2  0  0  0  0  0  0
  -30.3950  -17.4710   20.8200 C   0  0  0  0  0  2  0  0  0  0  0  0
  -29.7100  -16.0290   20.6080 C   0  0  0  0  0  2  0  0  0  0  0  0
  -30.5640  -14.6960   20.3920 C   0  0  0  0  0  0  0  0  0  0  0  0
  -30.3540  -12.4440   19.3490 C   0  0  0  0  0  2  0  0  0  0  0  0
  -29.4070  -12.5840   18.1340 C   0  0  0  0  0  2  0  0  0  0  0  0
  -27.9360  -12.4130   18.5630 C   0  0  0  0  0  2  0  0  0  0  0  0
  -27.5800  -13.2710   19.8050 C   0  0  0  0  0  3  0  0  0  0  0  0
  -28.6440  -13.1260   20.9140 C   0  0  0  0  0  2  0  0  0  0  0  0
  -29.9550  -13.4650   20.3400 N   0  0  0  0  0  0  0  0  0  0  0  0
  -31.7470  -14.8120   20.0530 O   0  0  0  0  0  0  0  0  0  0  0  0
  -25.1920  -13.8680   20.5330 C   0  0  0  0  0  0  0  0  0  0  0  0
  -24.1250  -13.0940   20.9050 C   0  0  0  0  0  0  0  0  0  0  0  0
  -24.5860  -11.7430   20.8730 C   0  0  0  0  0  0  0  0  0  0  0  0
  -26.2340  -12.9860   20.2970 N   0  0  0  0  0  0  0  0  0  0  0  0
  -25.8760  -11.7030   20.5620 N   0  0  0  0  0  0  0  0  0  0  0  0
  -23.8600  -10.4820   21.0670 C   0  0  0  0  0  0  0  0  0  0  0  0
  -24.3040   -9.5070   21.9860 C   0  0  0  0  0  3  0  0  0  0  0  0
  -23.5790   -8.3110   22.1680 C   0  0  0  0  0  3  0  0  0  0  0  0
  -22.3940   -8.0800   21.4300 C   0  0  0  0  0  0  0  0  0  0  0  0
  -21.9680   -9.0430   20.4980 C   0  0  0  0  0  3  0  0  0  0  0  0
  -22.6940  -10.2320   20.3150 C   0  0  0  0  0  3  0  0  0  0  0  0
  -21.6380   -6.9370   21.5220 O   0  0  0  0  0  0  0  0  0  0  0  0
  -21.6160   -6.1780   22.6640 C   0  0  0  0  0  0  0  0  0  0  0  0
  -21.2370   -6.7190   23.9120 C   0  0  0  0  0  3  0  0  0  0  0  0
  -21.1610   -5.8850   25.0460 C   0  0  0  0  0  3  0  0  0  0  0  0
  -21.4560   -4.5140   24.9350 C   0  0  0  0  0  0  0  0  0  0  0  0
  -21.8290   -3.9720   23.6930 C   0  0  0  0  0  3  0  0  0  0  0  0
  -21.9070   -4.8020   22.5600 C   0  0  0  0  0  0  0  0  0  0  0  0
  -22.2470   -4.2710   21.3610 F   0  0  0  0  0  0  0  0  0  0  0  0
  -21.3760   -3.7120   26.0230 F   0  0  0  0  0  0  0  0  0  0  0  0
  -22.7290  -13.5730   21.1810 C   0  0  0  0  0  0  0  0  0  0  0  0
  -22.0040  -12.8750   22.0490 N   0  0  0  0  0  0  0  0  0  0  0  0
  -22.2890  -14.5980   20.6630 O   0  0  0  0  0  0  0  0  0  0  0  0
  -22.3740  -12.0450   22.4880 H   0  0  0  0  0  0  0  0  0  0  0  0
  -21.0680  -13.1750   22.2780 H   0  0  0  0  0  0  0  0  0  0  0  0
  -25.3580  -15.2380   20.3560 N   0  0  0  0  0  0  0  0  0  0  0  0
  -24.5950  -15.8980   20.4690 H   0  0  0  0  0  0  0  0  0  0  0  0
  -26.2150  -15.6750   20.0410 H   0  0  0  0  0  0  0  0  0  0  0  0
  -28.0470  -24.9490   20.1160 C   0  0  0  0  0  2  0  0  0  0  0  0
  -28.3100  -26.4210   20.2170 O   0  0  0  0  0  0  0  0  0  0  0  0
  -24.6280  -31.8930   23.2380 C   0  0  0  0  0  0  0  0  0  0  0  0
  -27.1990  -27.2930   20.1790 C   0  0  0  0  0  0  0  0  0  0  0  0
  -23.4110  -30.4960   21.6110 C   0  0  0  0  0  3  0  0  0  0  0  0
  -24.8460  -28.9400   20.1830 C   0  0  0  0  0  0  0  0  0  0  0  0
  -25.9540  -30.7970   21.4140 C   0  0  0  0  0  2  0  0  0  0  0  0
  -26.0240  -29.4170   20.7690 C   0  0  0  0  0  0  0  0  0  0  0  0
  -27.2040  -28.6060   20.7570 C   0  0  0  0  0  3  0  0  0  0  0  0
  -25.9870  -26.8800   19.5740 C   0  0  0  0  0  3  0  0  0  0  0  0
  -24.8300  -27.6780   19.5790 C   0  0  0  0  0  3  0  0  0  0  0  0
  -23.6160  -29.8220   20.2310 C   0  0  0  0  0  2  0  0  0  0  0  0
  -24.6840  -31.0800   22.1430 N   0  0  0  0  0  0  0  0  0  0  0  0
  -23.5480  -32.1780   23.7760 O   0  0  0  0  0  0  0  0  0  0  0  0
  -22.7480  -29.4830   22.5750 C   0  0  0  0  0  0  0  0  0  0  0  0
  -21.4200  -29.3110   22.4560 N   0  0  0  0  0  0  0  0  0  0  0  0
  -23.4280  -28.8550   23.3900 O   0  0  0  0  0  0  0  0  0  0  0  0
  -20.9300  -29.8690   21.7710 H   0  0  0  0  0  0  0  0  0  0  0  0
  -18.0410  -28.1250   22.9700 C   0  0  0  0  0  0  0  0  0  0  0  0
  -20.6000  -28.3800   23.2330 C   0  0  0  0  0  3  0  0  0  0  0  0
  -20.6990  -26.9450   22.6670 C   0  0  0  0  0  2  0  0  0  0  0  0
  -19.5940  -26.6180   21.6560 C   0  0  0  0  0  2  0  0  0  0  0  0
  -18.2130  -26.7710   22.3030 C   0  0  0  0  0  2  0  0  0  0  0  0
  -19.1620  -28.8880   23.3920 C   0  0  0  0  0  0  0  0  0  0  0  0
  -18.9470  -30.1550   23.9770 C   0  0  0  0  0  3  0  0  0  0  0  0
  -17.6430  -30.6600   24.1400 C   0  0  0  0  0  3  0  0  0  0  0  0
  -16.5380  -29.8950   23.7350 C   0  0  0  0  0  3  0  0  0  0  0  0
  -16.7370  -28.6290   23.1540 C   0  0  0  0  0  3  0  0  0  0  0  0
  -25.9170  -32.5230   23.8500 C   0  0  0  0  0  3  0  0  0  0  0  0
  -25.6120  -33.9210   24.1860 N   0  0  0  0  0  0  0  0  0  0  0  0
  -25.9340  -34.9740   23.4240 C   0  0  0  0  0  0  0  0  0  0  0  0
  -26.5900  -34.8730   22.3840 O   0  0  0  0  0  0  0  0  0  0  0  0
  -25.0260  -34.0750   24.9930 H   0  0  0  0  0  0  0  0  0  0  0  0
  -24.2000  -36.7670   23.0980 C   0  0  0  0  0  1  0  0  0  0  0  0
  -25.4550  -36.3620   23.8890 C   0  0  0  0  0  3  0  0  0  0  0  0
  -27.6030  -37.2460   24.6850 C   0  0  0  0  0  1  0  0  0  0  0  0
  -26.4850  -37.4160   23.7600 N   0  0  0  0  0  0  0  0  0  0  0  0
  -26.0810  -38.3350   23.9190 H   0  0  0  0  0  0  0  0  0  0  0  0
  -26.4400  -31.7480   25.1220 C   0  0  1  0  0  0  0  0  0  0  0  0
  -25.3520  -31.5140   26.1960 C   0  0  0  0  0  1  0  0  0  0  0  0
  -27.0170  -30.3680   24.7260 C   0  0  0  0  0  1  0  0  0  0  0  0
  -27.6000  -32.5350   25.7760 C   0  0  0  0  0  1  0  0  0  0  0  0
  1  3  1  0
  2  4  2  0
  3  8  2  0
  3  9  1  0
  4 49  1  0
  4  8  1  0
  5  1  1  0
  6  2  1  0
  7  2  1  0
  7  1  2  0
 10 11  1  0
 10  9  1  0
 12 11  1  0
 13 12  1  0
 14 19  1  0
 15 16  1  0
 15 14  1  0
 17 16  1  0
 17 24  1  0
 17 18  1  0
 19 13  1  0
 19 18  1  0
 20 13  2  0
 21 22  2  0
 22 41  1  0
 23 22  1  0
 23 26  1  0
 24 21  1  0
 24 25  1  0
 25 23  2  0
 26 27  1  0
 27 28  2  0
 29 32  1  0
 29 28  1  0
 30 29  2  0
 31 30  1  0
 31 26  2  0
 32 33  1  0
 33 34  1  0
 34 35  2  0
 36 35  1  0
 36 40  1  0
 37 36  2  0
 38 33  2  0
 38 37  1  0
 39 38  1  0
 41 42  1  0
 42 45  1  0
 42 44  1  0
 43 41  2  0
 46 47  1  0
 46 21  1  0
 48 46  1  0
 49 50  1  0
 51 62  2  0
 52 50  1  0
 52 57  1  0
 53 61  1  0
 53 63  1  0
 54 60  1  0
 54 56  1  0
 55 61  1  0
 56 55  1  0
 57 56  2  0
 58 59  1  0
 58 52  2  0
 59 54  2  0
 60 53  1  0
 61 51  1  0
 63 65  2  0
 64 63  1  0
 66 64  1  0
 67 76  2  0
 67 72  1  0
 68 64  1  0
 68 72  1  0
 69 68  1  0
 70 71  1  0
 70 69  1  0
 71 67  1  0
 72 73  2  0
 73 74  1  0
 75 74  2  0
 76 75  1  0
 77 51  1  0
 77 78  1  0
 77 87  1  0
 78 81  1  0
 79 83  1  0
 79 78  1  0
 80 79  2  0
 83 82  1  0
 85 83  1  0
 85 86  1  0
 85 84  1  0
 87 90  1  1
 87 88  1  0
 89 87  1  0
M  ISO  4  12 100  13 100  49 101  50 101
M  END
>  <TORSDO>  (2) 
F 21

>  <SCORE>  (2) 
-13.409

>  <name>  (2) 
1

>  <ligand_id>  (2) 
1

>  <original_smiles>  (2) 
[H]c1c([H])c([H])c2c(c1[H])C([H])([H])C([H])([H])C([H])([H])C2([H])N([H])C(=O)C1([H])N(C(=O)C([H])(N([H])C(=O)C([H])(N([H])C([H])([H])[H])C([H])([H])[H])C(C([H])([H])[H])(C([H])([H])[H])C([H])([H])[H])C([H])([H])c2c([H])c(OC([H])([H])c3nc(C([H])([H])C([H])([H])C([H])([H])C([H])([H])C(=O)N4C([H])([H])C([H])([H])C([H])([H])C([H])(n5nc(-c6c([H])c([H])c(Oc7c([H])c([H])c(F)c([H])c7F)c([H])c6[H])c(C(=O)N([H])[H])c5N([H])[H])C4([H])[H])c(C([H])([H])[H])nc3C([H])([H])[H])c([H])c([H])c2C1([H])[H]

>  <smiles>  (2) 
[H]c1c([H])c([H])c2c(c1[H])C([H])([H])C([H])([H])C([H])([H])C2([H])N([H])C(=O)C1([H])N(C(=O)C([H])(N([H])C(=O)C([H])(N([H])C([H])([H])[H])C([H])([H])[H])C(C([H])([H])[H])(C([H])([H])[H])C([H])([H])[H])C([H])([H])c2c([H])c(OC([H])([H])c3nc(C([H])([H])C([H])([H])C([H])([H])C([H])([H])C(=O)N4C([H])([H])C([H])([H])C([H])([H])C([H])(n5nc(-c6c([H])c([H])c(Oc7c([H])c([H])c(F)c([H])c7F)c([H])c6[H])c(C(=O)N([H])[H])c5N([H])[H])C4([H])[H])c(C([H])([H])[H])nc3C([H])([H])[H])c([H])c([H])c2C1([H])[H]

$$$$
2:0:0
     RDKit          3D

 89 97  0  0  1  0  0  0  0  0999 V2000
  -27.6480  -23.0620   19.2810 C   0  0  0  0  0  3  0  0  0  0  0  0
  -28.4060  -23.6650   20.3250 C   0  0  0  0  0  0  0  0  0  0  0  0
  -27.9920  -21.7250   19.2410 C   0  0  0  0  0  0  0  0  0  0  0  0
  -27.4480  -20.6740   18.3330 C   0  0  0  0  0  1  0  0  0  0  0  0
  -29.1900  -22.6750   20.8600 N   0  0  0  0  0  0  0  0  0  0  0  0
  -28.9430  -21.4550   20.2210 N   0  0  0  0  0  0  0  0  0  0  0  0
  -28.2220  -25.1190   20.9600 C   0  0  0  0  0  2  0  0  0  0  0  0
  -28.3290  -26.4020   20.1850 O   0  0  0  0  0  0  0  0  0  0  0  0
  -24.6170  -31.8730   23.2430 C   0  0  0  0  0  0  0  0  0  0  0  0
  -27.2310  -27.2870   20.1940 C   0  0  0  0  0  0  0  0  0  0  0  0
  -23.4150  -30.4730   21.6040 C   0  0  0  0  0  3  0  0  0  0  0  0
  -24.8680  -28.9170   20.1790 C   0  0  0  0  0  0  0  0  0  0  0  0
  -25.9580  -30.7900   21.4200 C   0  0  0  0  0  2  0  0  0  0  0  0
  -26.0420  -29.4080   20.7680 C   0  0  0  0  0  0  0  0  0  0  0  0
  -27.2300  -28.6060   20.7580 C   0  0  0  0  0  3  0  0  0  0  0  0
  -26.0370  -26.8580   19.5810 C   0  0  0  0  0  3  0  0  0  0  0  0
  -24.8690  -27.6490   19.5740 C   0  0  0  0  0  3  0  0  0  0  0  0
  -23.6310  -29.7930   20.2270 C   0  0  0  0  0  2  0  0  0  0  0  0
  -24.6840  -31.0630   22.1450 N   0  0  0  0  0  0  0  0  0  0  0  0
  -23.5330  -32.1460   23.7790 O   0  0  0  0  0  0  0  0  0  0  0  0
  -22.7530  -29.4580   22.5670 C   0  0  0  0  0  0  0  0  0  0  0  0
  -21.4270  -29.2820   22.4460 N   0  0  0  0  0  0  0  0  0  0  0  0
  -23.4340  -28.8330   23.3840 O   0  0  0  0  0  0  0  0  0  0  0  0
  -20.9370  -29.8380   21.7590 H   0  0  0  0  0  0  0  0  0  0  0  0
  -18.0500  -28.0820   22.9530 C   0  0  0  0  0  0  0  0  0  0  0  0
  -20.6090  -28.3430   23.2160 C   0  0  0  0  0  3  0  0  0  0  0  0
  -20.7090  -26.9110   22.6400 C   0  0  0  0  0  2  0  0  0  0  0  0
  -19.6050  -26.5890   21.6270 C   0  0  0  0  0  2  0  0  0  0  0  0
  -18.2240  -26.7330   22.2750 C   0  0  0  0  0  2  0  0  0  0  0  0
  -19.1690  -28.8430   23.3810 C   0  0  0  0  0  0  0  0  0  0  0  0
  -18.9510  -30.1050   23.9770 C   0  0  0  0  0  3  0  0  0  0  0  0
  -17.6460  -30.6040   24.1480 C   0  0  0  0  0  3  0  0  0  0  0  0
  -16.5400  -29.8390   23.7360 C   0  0  0  0  0  3  0  0  0  0  0  0
  -16.7430  -28.5790   23.1460 C   0  0  0  0  0  3  0  0  0  0  0  0
  -25.8990  -32.5100   23.8640 C   0  0  0  0  0  3  0  0  0  0  0  0
  -26.4160  -31.7440   25.1440 C   0  0  1  0  0  0  0  0  0  0  0  0
  -25.3260  -31.5130   26.2170 C   0  0  0  0  0  1  0  0  0  0  0  0
  -26.9990  -30.3640   24.7610 C   0  0  0  0  0  1  0  0  0  0  0  0
  -27.5680  -32.5430   25.7990 C   0  0  0  0  0  1  0  0  0  0  0  0
  -25.5850  -33.9080   24.1910 N   0  0  0  0  0  0  0  0  0  0  0  0
  -25.9090  -34.9610   23.4280 C   0  0  0  0  0  0  0  0  0  0  0  0
  -26.5700  -34.8560   22.3920 O   0  0  0  0  0  0  0  0  0  0  0  0
  -24.9910  -34.0600   24.9940 H   0  0  0  0  0  0  0  0  0  0  0  0
  -24.1750  -36.7530   23.0900 C   0  0  0  0  0  1  0  0  0  0  0  0
  -25.4250  -36.3480   23.8890 C   0  0  0  0  0  3  0  0  0  0  0  0
  -27.5650  -37.2410   24.6970 C   0  0  0  0  0  1  0  0  0  0  0  0
  -26.4530  -37.4040   23.7640 N   0  0  0  0  0  0  0  0  0  0  0  0
  -26.0460  -38.3220   23.9160 H   0  0  0  0  0  0  0  0  0  0  0  0
  -29.7720  -20.1890   20.5140 C   0  0  0  0  0  2  0  0  0  0  0  0
  -29.2200  -18.6550   20.3940 C   0  0  0  0  0  3  0  0  0  0  0  0
  -30.2730  -17.4160   20.5570 C   0  0  0  0  0  3  0  0  0  0  0  0
  -30.5820  -14.7970   20.3230 C   0  0  0  0  0  0  0  0  0  0  0  0
  -30.3770  -12.5170   19.3130 C   0  0  0  0  0  2  0  0  0  0  0  0
  -29.4240  -12.5680   18.1000 C   0  0  0  0  0  2  0  0  0  0  0  0
  -27.9650  -12.3730   18.5530 C   0  0  0  0  0  2  0  0  0  0  0  0
  -27.5950  -13.2720   19.7620 C   0  0  0  0  0  3  0  0  0  0  0  0
  -28.6650  -13.2110   20.8730 C   0  0  0  0  0  2  0  0  0  0  0  0
  -29.9500  -13.5730   20.2610 N   0  0  0  0  0  0  0  0  0  0  0  0
  -31.7630  -14.8900   19.9780 O   0  0  0  0  0  0  0  0  0  0  0  0
  -29.8300  -15.9420   20.5770 N   0  0  0  0  0  0  0  0  0  0  0  0
  -28.8690  -15.7720   20.8290 H   0  0  0  0  0  0  0  0  0  0  0  0
  -25.2200  -13.8570   20.5340 C   0  0  0  0  0  0  0  0  0  0  0  0
  -24.1620  -13.0800   20.9160 C   0  0  0  0  0  0  0  0  0  0  0  0
  -24.6230  -11.7280   20.8640 C   0  0  0  0  0  0  0  0  0  0  0  0
  -26.2590  -12.9790   20.2710 N   0  0  0  0  0  0  0  0  0  0  0  0
  -25.9090  -11.6940   20.5350 N   0  0  0  0  0  0  0  0  0  0  0  0
  -23.9000  -10.4650   21.0560 C   0  0  0  0  0  0  0  0  0  0  0  0
  -24.3450   -9.4920   21.9780 C   0  0  0  0  0  3  0  0  0  0  0  0
  -23.6230   -8.2900   22.1540 C   0  0  0  0  0  3  0  0  0  0  0  0
  -22.4410   -8.0560   21.4100 C   0  0  0  0  0  0  0  0  0  0  0  0
  -22.0150   -9.0200   20.4790 C   0  0  0  0  0  3  0  0  0  0  0  0
  -22.7380  -10.2120   20.2990 C   0  0  0  0  0  3  0  0  0  0  0  0
  -21.6870   -6.9120   21.4960 O   0  0  0  0  0  0  0  0  0  0  0  0
  -21.6460   -6.1640   22.6460 C   0  0  0  0  0  0  0  0  0  0  0  0
  -21.2190   -6.7100   23.8750 C   0  0  0  0  0  3  0  0  0  0  0  0
  -21.1280   -5.8890   25.0160 C   0  0  0  0  0  3  0  0  0  0  0  0
  -21.4530   -4.5220   24.9290 C   0  0  0  0  0  0  0  0  0  0  0  0
  -21.8760   -3.9770   23.7030 C   0  0  0  0  0  3  0  0  0  0  0  0
  -21.9700   -4.7960   22.5660 C   0  0  0  0  0  0  0  0  0  0  0  0
  -22.3570   -4.2590   21.3820 F   0  0  0  0  0  0  0  0  0  0  0  0
  -21.3570   -3.7310   26.0230 F   0  0  0  0  0  0  0  0  0  0  0  0
  -22.7690  -13.5550   21.2070 C   0  0  0  0  0  0  0  0  0  0  0  0
  -22.0470  -12.8510   22.0710 N   0  0  0  0  0  0  0  0  0  0  0  0
  -22.3280  -14.5890   20.7040 O   0  0  0  0  0  0  0  0  0  0  0  0
  -22.4160  -12.0180   22.5060 H   0  0  0  0  0  0  0  0  0  0  0  0
  -21.1100  -13.1500   22.3020 H   0  0  0  0  0  0  0  0  0  0  0  0
  -25.3850  -15.2290   20.3630 N   0  0  0  0  0  0  0  0  0  0  0  0
  -24.6230  -15.8850   20.4940 H   0  0  0  0  0  0  0  0  0  0  0  0
  -26.2300  -15.6680   20.0220 H   0  0  0  0  0  0  0  0  0  0  0  0
  1  2  1  0
  2  5  2  0
  2  7  1  0
  3  1  2  0
  3  6  1  0
  4  3  1  0
  6 49  1  0
  6  5  1  0
  8 10  1  0
  8  7  1  0
  9 20  2  0
 10 15  1  0
 11 19  1  0
 11 21  1  0
 12 18  1  0
 12 14  1  0
 13 19  1  0
 14 13  1  0
 15 14  2  0
 16 10  2  0
 17 16  1  0
 17 12  2  0
 18 11  1  0
 19  9  1  0
 21 23  2  0
 22 21  1  0
 24 22  1  0
 25 34  2  0
 25 30  1  0
 26 22  1  0
 26 30  1  0
 27 26  1  0
 28 29  1  0
 28 27  1  0
 29 25  1  0
 30 31  2  0
 31 32  1  0
 33 32  2  0
 34 33  1  0
 35  9  1  0
 35 40  1  0
 35 36  1  0
 36 39  1  1
 36 37  1  0
 38 36  1  0
 40 43  1  0
 41 45  1  0
 41 40  1  0
 42 41  2  0
 45 44  1  0
 47 45  1  0
 47 48  1  0
 47 46  1  0
 50 49  1  0
 50 51  2  0
 51 60  1  0
 52 60  1  0
 53 58  1  0
 54 55  1  0
 54 53  1  0
 56 55  1  0
 56 65  1  0
 56 57  1  0
 58 52  1  0
 58 57  1  0
 59 52  2  0
 60 61  1  0
 62 63  2  0
 63 82  1  0
 64 63  1  0
 64 67  1  0
 65 62  1  0
 65 66  1  0
 66 64  2  0
 67 68  1  0
 68 69  2  0
 70 73  1  0
 70 69  1  0
 71 70  2  0
 72 71  1  0
 72 67  2  0
 73 74  1  0
 74 75  1  0
 75 76  2  0
 77 76  1  0
 77 81  1  0
 78 77  2  0
 79 74  2  0
 79 78  1  0
 80 79  1  0
 82 83  1  0
 83 86  1  0
 83 85  1  0
 84 82  2  0
 87 88  1  0
 87 62  1  0
 89 87  1  0
M  ISO  4   7 101   8 101  52 100  60 100
M  END
>  <TORSDO>  (3) 
F 20

>  <SCORE>  (3) 
-13.824

>  <name>  (3) 
2

>  <ligand_id>  (3) 
2

>  <original_smiles>  (3) 
[H]c1c([H])c([H])c2c(c1[H])C([H])([H])C([H])([H])C([H])([H])C2([H])N([H])C(=O)C1([H])N(C(=O)C([H])(N([H])C(=O)C([H])(N([H])C([H])([H])[H])C([H])([H])[H])C(C([H])([H])[H])(C([H])([H])[H])C([H])([H])[H])C([H])([H])c2c([H])c(OC([H])([H])c3nn(C([H])([H])C([H])([H])C([H])([H])N([H])C(=O)N4C([H])([H])C([H])([H])C([H])([H])C([H])(n5nc(-c6c([H])c([H])c(Oc7c([H])c([H])c(F)c([H])c7F)c([H])c6[H])c(C(=O)N([H])[H])c5N([H])[H])C4([H])[H])c(C([H])([H])[H])c3[H])c([H])c([H])c2C1([H])[H]

>  <smiles>  (3) 
[H]c1c([H])c([H])c2c(c1[H])C([H])([H])C([H])([H])C([H])([H])C2([H])N([H])C(=O)C1([H])N(C(=O)C([H])(N([H])C(=O)C([H])(N([H])C([H])([H])[H])C([H])([H])[H])C(C([H])([H])[H])(C([H])([H])[H])C([H])([H])[H])C([H])([H])c2c([H])c(OC([H])([H])c3nn(C([H])([H])C([H])([H])C([H])([H])N([H])C(=O)N4C([H])([H])C([H])([H])C([H])([H])C([H])(n5nc(-c6c([H])c([H])c(Oc7c([H])c([H])c(F)c([H])c7F)c([H])c6[H])c(C(=O)N([H])[H])c5N([H])[H])C4([H])[H])c(C([H])([H])[H])c3[H])c([H])c([H])c2C1([H])[H]

$$$$
3:0:0
     RDKit          3D

 92100  0  0  1  0  0  0  0  0999 V2000
  -29.4500  -22.2840   19.4240 C   0  0  0  0  0  0  0  0  0  0  0  0
  -29.1250  -23.2060   21.9290 C   0  0  0  0  0  0  0  0  0  0  0  0
  -29.6450  -21.3890   20.5280 C   0  0  0  0  0  0  0  0  0  0  0  0
  -28.9980  -24.1210   20.8280 C   0  0  0  0  0  0  0  0  0  0  0  0
  -29.6300  -21.8250   17.9910 C   0  0  0  0  0  1  0  0  0  0  0  0
  -28.9760  -23.6260   23.3830 C   0  0  0  0  0  1  0  0  0  0  0  0
  -29.4530  -21.8820   21.7770 N   0  0  0  0  0  0  0  0  0  0  0  0
  -29.1470  -23.6170   19.5710 N   0  0  0  0  0  0  0  0  0  0  0  0
  -30.0790  -26.2840   21.6940 C   0  0  0  0  0  1  0  0  0  0  0  0
  -28.8220  -25.6890   21.0340 C   0  0  0  0  0  3  0  0  0  0  0  0
  -28.6140  -26.5750   19.8770 O   0  0  0  0  0  0  0  0  0  0  0  0
  -24.6490  -31.7060   23.0650 C   0  0  0  0  0  0  0  0  0  0  0  0
  -27.4760  -27.3830   19.9070 C   0  0  0  0  0  0  0  0  0  0  0  0
  -23.5060  -30.2760   21.4080 C   0  0  0  0  0  3  0  0  0  0  0  0
  -25.0270  -28.8380   19.9390 C   0  0  0  0  0  0  0  0  0  0  0  0
  -26.0190  -30.7470   21.2050 C   0  0  0  0  0  2  0  0  0  0  0  0
  -26.1700  -29.3880   20.5360 C   0  0  0  0  0  0  0  0  0  0  0  0
  -27.4010  -28.6710   20.5150 C   0  0  0  0  0  3  0  0  0  0  0  0
  -26.3180  -26.8780   19.2850 C   0  0  0  0  0  3  0  0  0  0  0  0
  -25.1010  -27.5860   19.3050 C   0  0  0  0  0  3  0  0  0  0  0  0
  -23.7430  -29.6380   20.0130 C   0  0  0  0  0  2  0  0  0  0  0  0
  -24.7430  -30.9280   21.9500 N   0  0  0  0  0  0  0  0  0  0  0  0
  -23.5590  -31.9120   23.6180 O   0  0  0  0  0  0  0  0  0  0  0  0
  -22.9130  -29.2050   22.3540 C   0  0  0  0  0  0  0  0  0  0  0  0
  -21.6000  -28.9500   22.2310 N   0  0  0  0  0  0  0  0  0  0  0  0
  -23.6330  -28.6080   23.1590 O   0  0  0  0  0  0  0  0  0  0  0  0
  -21.0760  -29.4870   21.5550 H   0  0  0  0  0  0  0  0  0  0  0  0
  -18.3090  -27.5260   22.7020 C   0  0  0  0  0  0  0  0  0  0  0  0
  -20.8440  -27.9520   22.9880 C   0  0  0  0  0  3  0  0  0  0  0  0
  -21.0430  -26.5360   22.4010 C   0  0  0  0  0  2  0  0  0  0  0  0
  -19.9700  -26.1520   21.3770 C   0  0  0  0  0  2  0  0  0  0  0  0
  -18.5780  -26.1990   22.0140 C   0  0  0  0  0  2  0  0  0  0  0  0
  -19.3730  -28.3570   23.1460 C   0  0  0  0  0  0  0  0  0  0  0  0
  -19.0680  -29.5960   23.7500 C   0  0  0  0  0  3  0  0  0  0  0  0
  -17.7330  -30.0070   23.9150 C   0  0  0  0  0  3  0  0  0  0  0  0
  -16.6830  -29.1750   23.4870 C   0  0  0  0  0  3  0  0  0  0  0  0
  -16.9720  -27.9360   22.8860 C   0  0  0  0  0  3  0  0  0  0  0  0
  -25.9030  -32.3950   23.6880 C   0  0  0  0  0  3  0  0  0  0  0  0
  -26.4870  -31.6170   24.9320 C   0  0  1  0  0  0  0  0  0  0  0  0
  -25.4290  -31.2850   26.0100 C   0  0  0  0  0  1  0  0  0  0  0  0
  -27.1410  -30.2870   24.4910 C   0  0  0  0  0  1  0  0  0  0  0  0
  -27.6030  -32.4560   25.5970 C   0  0  0  0  0  1  0  0  0  0  0  0
  -25.5160  -33.7610   24.0680 N   0  0  0  0  0  0  0  0  0  0  0  0
  -25.7790  -34.8560   23.3430 C   0  0  0  0  0  0  0  0  0  0  0  0
  -26.4420  -34.8250   22.3020 O   0  0  0  0  0  0  0  0  0  0  0  0
  -24.9180  -33.8530   24.8760 H   0  0  0  0  0  0  0  0  0  0  0  0
  -23.9450  -36.5560   23.0670 C   0  0  0  0  0  1  0  0  0  0  0  0
  -25.2180  -36.1980   23.8520 C   0  0  0  0  0  3  0  0  0  0  0  0
  -27.3060  -37.1780   24.6930 C   0  0  0  0  0  1  0  0  0  0  0  0
  -26.1870  -37.3110   23.7640 N   0  0  0  0  0  0  0  0  0  0  0  0
  -25.7300  -38.2020   23.9420 H   0  0  0  0  0  0  0  0  0  0  0  0
  -30.3650  -19.9850   20.4060 C   0  0  0  0  0  2  0  0  0  0  0  0
  -29.6700  -18.5800   20.7030 C   0  0  0  0  0  2  0  0  0  0  0  0
  -30.6540  -17.3250   20.5610 C   0  0  0  0  0  2  0  0  0  0  0  0
  -30.8560  -14.7800   20.3360 C   0  0  0  0  0  0  0  0  0  0  0  0
  -30.5820  -12.5640   19.2500 C   0  0  0  0  0  2  0  0  0  0  0  0
  -29.6460  -12.7200   18.0340 C   0  0  0  0  0  2  0  0  0  0  0  0
  -28.1730  -12.5700   18.4620 C   0  0  0  0  0  2  0  0  0  0  0  0
  -27.8250  -13.4290   19.7080 C   0  0  0  0  0  3  0  0  0  0  0  0
  -28.8810  -13.2710   20.8250 C   0  0  0  0  0  2  0  0  0  0  0  0
  -30.1890  -13.5870   20.2420 N   0  0  0  0  0  0  0  0  0  0  0  0
  -32.0290  -14.8790   19.9650 O   0  0  0  0  0  0  0  0  0  0  0  0
  -30.1370  -15.9080   20.6470 N   0  0  0  0  0  0  0  0  0  0  0  0
  -29.1690  -15.7780   20.9030 H   0  0  0  0  0  0  0  0  0  0  0  0
  -25.4390  -14.0410   20.4290 C   0  0  0  0  0  0  0  0  0  0  0  0
  -24.3680  -13.2740   20.7990 C   0  0  0  0  0  0  0  0  0  0  0  0
  -24.8240  -11.9190   20.7720 C   0  0  0  0  0  0  0  0  0  0  0  0
  -26.4770  -13.1550   20.1950 N   0  0  0  0  0  0  0  0  0  0  0  0
  -26.1140  -11.8740   20.4630 N   0  0  0  0  0  0  0  0  0  0  0  0
  -24.0900  -10.6630   20.9640 C   0  0  0  0  0  0  0  0  0  0  0  0
  -24.5080   -9.7000   21.9100 C   0  0  0  0  0  3  0  0  0  0  0  0
  -23.7760   -8.5070   22.0890 C   0  0  0  0  0  3  0  0  0  0  0  0
  -22.6100   -8.2670   21.3230 C   0  0  0  0  0  0  0  0  0  0  0  0
  -22.2110   -9.2180   20.3650 C   0  0  0  0  0  3  0  0  0  0  0  0
  -22.9450  -10.4020   20.1840 C   0  0  0  0  0  3  0  0  0  0  0  0
  -21.8490   -7.1260   21.4120 O   0  0  0  0  0  0  0  0  0  0  0  0
  -21.7780   -6.3980   22.5720 C   0  0  0  0  0  0  0  0  0  0  0  0
  -21.3200   -6.9660   23.7820 C   0  0  0  0  0  3  0  0  0  0  0  0
  -21.1940   -6.1630   24.9320 C   0  0  0  0  0  3  0  0  0  0  0  0
  -21.5170   -4.7940   24.8760 C   0  0  0  0  0  0  0  0  0  0  0  0
  -21.9680   -4.2260   23.6700 C   0  0  0  0  0  3  0  0  0  0  0  0
  -22.0950   -5.0260   22.5210 C   0  0  0  0  0  0  0  0  0  0  0  0
  -22.5100   -4.4690   21.3580 F   0  0  0  0  0  0  0  0  0  0  0  0
  -21.3890   -4.0200   25.9790 F   0  0  0  0  0  0  0  0  0  0  0  0
  -22.9730  -13.7600   21.0670 C   0  0  0  0  0  0  0  0  0  0  0  0
  -22.2420  -13.0750   21.9390 N   0  0  0  0  0  0  0  0  0  0  0  0
  -22.5400  -14.7820   20.5370 O   0  0  0  0  0  0  0  0  0  0  0  0
  -22.6060  -12.2500   22.3920 H   0  0  0  0  0  0  0  0  0  0  0  0
  -21.3040  -13.3820   22.1600 H   0  0  0  0  0  0  0  0  0  0  0  0
  -25.6070  -15.4110   20.2490 N   0  0  0  0  0  0  0  0  0  0  0  0
  -24.8340  -16.0600   20.3520 H   0  0  0  0  0  0  0  0  0  0  0  0
  -26.4540  -15.8540   19.9130 H   0  0  0  0  0  0  0  0  0  0  0  0
  1  8  2  0
  1  3  1  0
  2  6  1  0
  3  7  2  0
  4 10  1  0
  4  2  2  0
  5  1  1  0
  7  2  1  0
  8  4  1  0
 10  9  1  0
 11 13  1  0
 11 10  1  0
 12 23  2  0
 13 18  1  0
 14 22  1  0
 14 24  1  0
 15 21  1  0
 15 17  1  0
 16 22  1  0
 17 16  1  0
 18 17  2  0
 19 20  1  0
 19 13  2  0
 20 15  2  0
 21 14  1  0
 22 12  1  0
 24 26  2  0
 25 24  1  0
 27 25  1  0
 28 37  2  0
 28 33  1  0
 29 25  1  0
 29 33  1  0
 30 29  1  0
 31 32  1  0
 31 30  1  0
 32 28  1  0
 33 34  2  0
 34 35  1  0
 36 35  2  0
 37 36  1  0
 38 12  1  0
 38 43  1  0
 38 39  1  0
 39 42  1  1
 39 40  1  0
 41 39  1  0
 43 46  1  0
 44 48  1  0
 44 43  1  0
 45 44  2  0
 48 47  1  0
 50 48  1  0
 50 51  1  0
 50 49  1  0
 52  3  1  0
 52 53  1  0
 54 63  1  0
 54 53  1  0
 55 63  1  0
 56 61  1  0
 57 58  1  0
 57 56  1  0
 59 58  1  0
 59 68  1  0
 59 60  1  0
 61 55  1  0
 61 60  1  0
 62 55  2  0
 63 64  1  0
 65 66  2  0
 66 85  1  0
 67 66  1  0
 67 70  1  0
 68 65  1  0
 68 69  1  0
 69 67  2  0
 70 71  1  0
 71 72  2  0
 73 76  1  0
 73 72  1  0
 74 73  2  0
 75 74  1  0
 75 70  2  0
 76 77  1  0
 77 78  1  0
 78 79  2  0
 80 79  1  0
 80 84  1  0
 81 80  2  0
 82 77  2  0
 82 81  1  0
 83 82  1  0
 85 86  1  0
 86 89  1  0
 86 88  1  0
 87 85  2  0
 90 91  1  0
 90 65  1  0
 92 90  1  0
M  ISO  4  10 101  11 101  55 100  63 100
M  END
>  <TORSDO>  (4) 
F 20

>  <SCORE>  (4) 
-13.051

>  <name>  (4) 
3

>  <ligand_id>  (4) 
3

>  <original_smiles>  (4) 
[H]c1c([H])c([H])c2c(c1[H])C([H])([H])C([H])([H])C([H])([H])C2([H])N([H])C(=O)C1([H])N(C(=O)C([H])(N([H])C(=O)C([H])(N([H])C([H])([H])[H])C([H])([H])[H])C(C([H])([H])[H])(C([H])([H])[H])C([H])([H])[H])C([H])([H])c2c([H])c(OC([H])(c3nc(C([H])([H])[H])c(C([H])([H])C([H])([H])C([H])([H])N([H])C(=O)N4C([H])([H])C([H])([H])C([H])([H])C([H])(n5nc(-c6c([H])c([H])c(Oc7c([H])c([H])c(F)c([H])c7F)c([H])c6[H])c(C(=O)N([H])[H])c5N([H])[H])C4([H])[H])nc3C([H])([H])[H])C([H])([H])[H])c([H])c([H])c2C1([H])[H]

>  <smiles>  (4) 
[H]c1c([H])c([H])c2c(c1[H])C([H])([H])C([H])([H])C([H])([H])C2([H])N([H])C(=O)C1([H])N(C(=O)C([H])(N([H])C(=O)C([H])(N([H])C([H])([H])[H])C([H])([H])[H])C(C([H])([H])[H])(C([H])([H])[H])C([H])([H])[H])C([H])([H])c2c([H])c(OC([H])(c3nc(C([H])([H])[H])c(C([H])([H])C([H])([H])C([H])([H])N([H])C(=O)N4C([H])([H])C([H])([H])C([H])([H])C([H])(n5nc(-c6c([H])c([H])c(Oc7c([H])c([H])c(F)c([H])c7F)c([H])c6[H])c(C(=O)N([H])[H])c5N([H])[H])C4([H])[H])nc3C([H])([H])[H])C([H])([H])[H])c([H])c([H])c2C1([H])[H]

$$$$
4:0:0
     RDKit          3D

 90 98  0  0  1  0  0  0  0  0999 V2000
  -30.0260  -20.1470   19.6530 C   0  0  0  0  0  3  0  0  0  0  0  0
  -28.3630  -20.8610   20.8790 C   0  0  0  0  0  3  0  0  0  0  0  0
  -28.7910  -19.7350   20.2320 C   0  0  0  0  0  0  0  0  0  0  0  0
  -30.3250  -21.4150   19.9230 N   0  0  0  0  0  0  0  0  0  0  0  0
  -29.2960  -21.8560   20.6830 N   0  0  0  0  0  0  0  0  0  0  0  0
  -28.0830  -18.4040   20.1290 C   0  0  0  0  0  2  0  0  0  0  0  0
  -28.7080  -17.2510   20.9370 C   0  0  0  0  0  2  0  0  0  0  0  0
  -29.9780  -16.6430   20.3170 C   0  0  0  0  0  2  0  0  0  0  0  0
  -30.7930  -14.3250   20.1000 C   0  0  0  0  0  0  0  0  0  0  0  0
  -30.4170  -12.1870   18.9460 C   0  0  0  0  0  2  0  0  0  0  0  0
  -29.4180  -12.4330   17.7960 C   0  0  0  0  0  2  0  0  0  0  0  0
  -27.9630  -12.3260   18.2920 C   0  0  0  0  0  2  0  0  0  0  0  0
  -27.7110  -13.1490   19.5830 C   0  0  0  0  0  3  0  0  0  0  0  0
  -28.8120  -12.8730   20.6380 C   0  0  0  0  0  2  0  0  0  0  0  0
  -30.1270  -13.1480   20.0170 N   0  0  0  0  0  0  0  0  0  0  0  0
  -31.8380  -14.5810   19.4920 O   0  0  0  0  0  0  0  0  0  0  0  0
  -30.1170  -15.2610   20.7680 N   0  0  0  0  0  0  0  0  0  0  0  0
  -29.3550  -14.8970   21.3210 H   0  0  0  0  0  0  0  0  0  0  0  0
  -25.3630  -13.8030   20.4280 C   0  0  0  0  0  0  0  0  0  0  0  0
  -24.2980  -13.0470   20.8390 C   0  0  0  0  0  0  0  0  0  0  0  0
  -24.7190  -11.6870   20.7440 C   0  0  0  0  0  0  0  0  0  0  0  0
  -26.3710  -12.9030   20.1200 N   0  0  0  0  0  0  0  0  0  0  0  0
  -25.9880  -11.6230   20.3610 N   0  0  0  0  0  0  0  0  0  0  0  0
  -23.9730  -10.4390   20.9400 C   0  0  0  0  0  0  0  0  0  0  0  0
  -24.3870   -9.4740   21.8840 C   0  0  0  0  0  3  0  0  0  0  0  0
  -23.6450   -8.2890   22.0700 C   0  0  0  0  0  3  0  0  0  0  0  0
  -22.4740   -8.0580   21.3120 C   0  0  0  0  0  0  0  0  0  0  0  0
  -22.0770   -9.0100   20.3560 C   0  0  0  0  0  3  0  0  0  0  0  0
  -22.8180  -10.1880   20.1680 C   0  0  0  0  0  3  0  0  0  0  0  0
  -21.7040   -6.9230   21.4070 O   0  0  0  0  0  0  0  0  0  0  0  0
  -21.5920   -6.2250   22.5830 C   0  0  0  0  0  0  0  0  0  0  0  0
  -21.0710   -6.8160   23.7560 C   0  0  0  0  0  3  0  0  0  0  0  0
  -20.9060   -6.0430   24.9210 C   0  0  0  0  0  3  0  0  0  0  0  0
  -21.2540   -4.6790   24.9170 C   0  0  0  0  0  0  0  0  0  0  0  0
  -21.7680   -4.0870   23.7500 C   0  0  0  0  0  3  0  0  0  0  0  0
  -21.9340   -4.8590   22.5840 C   0  0  0  0  0  0  0  0  0  0  0  0
  -22.4100   -4.2780   21.4580 F   0  0  0  0  0  0  0  0  0  0  0  0
  -21.0890   -3.9330   26.0340 F   0  0  0  0  0  0  0  0  0  0  0  0
  -22.9340  -13.5510   21.2050 C   0  0  0  0  0  0  0  0  0  0  0  0
  -22.2380  -12.8430   22.0870 N   0  0  0  0  0  0  0  0  0  0  0  0
  -22.4940  -14.6040   20.7440 O   0  0  0  0  0  0  0  0  0  0  0  0
  -22.6110  -11.9930   22.4800 H   0  0  0  0  0  0  0  0  0  0  0  0
  -21.3210  -13.1550   22.3740 H   0  0  0  0  0  0  0  0  0  0  0  0
  -25.5530  -15.1730   20.2790 N   0  0  0  0  0  0  0  0  0  0  0  0
  -24.8030  -15.8360   20.4350 H   0  0  0  0  0  0  0  0  0  0  0  0
  -26.3880  -15.5980   19.8960 H   0  0  0  0  0  0  0  0  0  0  0  0
  -29.3000  -23.2010   21.2490 C   0  0  0  0  0  2  0  0  0  0  0  0
  -29.0060  -24.3400   20.2430 C   0  0  0  0  0  2  0  0  0  0  0  0
  -28.5680  -25.6370   20.9670 C   0  0  0  0  0  2  0  0  0  0  0  0
  -28.4380  -26.7500   20.0820 O   0  0  0  0  0  0  0  0  0  0  0  0
  -24.5230  -31.8640   23.1860 C   0  0  0  0  0  0  0  0  0  0  0  0
  -27.2520  -27.4410   20.1540 C   0  0  0  0  0  0  0  0  0  0  0  0
  -23.3490  -30.4540   21.5250 C   0  0  0  0  0  3  0  0  0  0  0  0
  -24.8340  -28.9060   20.1410 C   0  0  0  0  0  0  0  0  0  0  0  0
  -25.8750  -30.8210   21.3710 C   0  0  0  0  0  2  0  0  0  0  0  0
  -25.9790  -29.4450   20.7440 C   0  0  0  0  0  0  0  0  0  0  0  0
  -27.1910  -28.7200   20.7480 C   0  0  0  0  0  3  0  0  0  0  0  0
  -26.0940  -26.9000   19.5620 C   0  0  0  0  0  3  0  0  0  0  0  0
  -24.8840  -27.6260   19.5550 C   0  0  0  0  0  3  0  0  0  0  0  0
  -23.5860  -29.7620   20.1560 C   0  0  0  0  0  2  0  0  0  0  0  0
  -24.5990  -31.0630   22.0860 N   0  0  0  0  0  0  0  0  0  0  0  0
  -23.4310  -32.1390   23.7070 O   0  0  0  0  0  0  0  0  0  0  0  0
  -22.6830  -29.4400   22.4800 C   0  0  0  0  0  0  0  0  0  0  0  0
  -21.3580  -29.2750   22.3490 N   0  0  0  0  0  0  0  0  0  0  0  0
  -23.3580  -28.8020   23.2950 O   0  0  0  0  0  0  0  0  0  0  0  0
  -20.8740  -29.8430   21.6670 H   0  0  0  0  0  0  0  0  0  0  0  0
  -17.9600  -28.1700   22.8850 C   0  0  0  0  0  0  0  0  0  0  0  0
  -20.5270  -28.3400   23.1090 C   0  0  0  0  0  3  0  0  0  0  0  0
  -20.5730  -26.9250   22.4850 C   0  0  0  0  0  2  0  0  0  0  0  0
  -19.4390  -26.6690   21.4870 C   0  0  0  0  0  2  0  0  0  0  0  0
  -18.0780  -26.8370   22.1670 C   0  0  0  0  0  2  0  0  0  0  0  0
  -19.1100  -28.8840   23.3120 C   0  0  0  0  0  0  0  0  0  0  0  0
  -18.9440  -30.1400   23.9420 C   0  0  0  0  0  3  0  0  0  0  0  0
  -17.6620  -30.6760   24.1460 C   0  0  0  0  0  3  0  0  0  0  0  0
  -16.5240  -29.9590   23.7340 C   0  0  0  0  0  3  0  0  0  0  0  0
  -16.6750  -28.7090   23.1090 C   0  0  0  0  0  3  0  0  0  0  0  0
  -25.7990  -32.5020   23.8230 C   0  0  0  0  0  3  0  0  0  0  0  0
  -25.4840  -33.8980   24.1460 N   0  0  0  0  0  0  0  0  0  0  0  0
  -25.8400  -34.9510   23.3960 C   0  0  0  0  0  0  0  0  0  0  0  0
  -26.5400  -34.8470   22.3840 O   0  0  0  0  0  0  0  0  0  0  0  0
  -24.8700  -34.0560   24.9320 H   0  0  0  0  0  0  0  0  0  0  0  0
  -24.1390  -36.7550   22.9680 C   0  0  0  0  0  1  0  0  0  0  0  0
  -25.3390  -36.3380   23.8360 C   0  0  0  0  0  3  0  0  0  0  0  0
  -27.4330  -37.2120   24.7780 C   0  0  0  0  0  1  0  0  0  0  0  0
  -26.3830  -37.3880   23.7770 N   0  0  0  0  0  0  0  0  0  0  0  0
  -25.9730  -38.3080   23.9050 H   0  0  0  0  0  0  0  0  0  0  0  0
  -26.3010  -31.7340   25.1060 C   0  0  1  0  0  0  0  0  0  0  0  0
  -25.1960  -31.4840   26.1580 C   0  0  0  0  0  1  0  0  0  0  0  0
  -26.8980  -30.3600   24.7200 C   0  0  0  0  0  1  0  0  0  0  0  0
  -27.4340  -32.5330   25.7890 C   0  0  0  0  0  1  0  0  0  0  0  0
  1  4  2  0
  1  3  1  0
  3  2  2  0
  4  5  1  0
  5  2  1  0
  5 47  1  0
  6  3  1  0
  6  7  1  0
  8 17  1  0
  8  7  1  0
  9 17  1  0
 10 15  1  0
 11 12  1  0
 11 10  1  0
 13 12  1  0
 13 22  1  0
 13 14  1  0
 15  9  1  0
 15 14  1  0
 16  9  2  0
 17 18  1  0
 19 20  2  0
 20 39  1  0
 21 20  1  0
 21 24  1  0
 22 23  1  0
 22 19  1  0
 23 21  2  0
 24 25  1  0
 25 26  2  0
 27 30  1  0
 27 26  1  0
 28 27  2  0
 29 28  1  0
 29 24  2  0
 30 31  1  0
 31 36  2  0
 31 32  1  0
 32 33  2  0
 34 33  1  0
 34 38  1  0
 35 34  2  0
 36 35  1  0
 37 36  1  0
 39 40  1  0
 40 43  1  0
 40 42  1  0
 41 39  2  0
 44 19  1  0
 44 45  1  0
 46 44  1  0
 48 49  1  0
 48 47  1  0
 50 52  1  0
 50 49  1  0
 51 62  2  0
 52 57  1  0
 53 61  1  0
 53 63  1  0
 54 60  1  0
 54 56  1  0
 55 61  1  0
 56 57  2  0
 56 55  1  0
 58 52  2  0
 59 58  1  0
 59 54  2  0
 60 53  1  0
 61 51  1  0
 63 65  2  0
 64 63  1  0
 66 64  1  0
 67 76  2  0
 67 72  1  0
 68 64  1  0
 68 72  1  0
 69 68  1  0
 70 71  1  0
 70 69  1  0
 71 67  1  0
 72 73  2  0
 73 74  1  0
 75 74  2  0
 76 75  1  0
 77 51  1  0
 77 78  1  0
 77 87  1  0
 78 81  1  0
 79 83  1  0
 79 78  1  0
 80 79  2  0
 83 82  1  0
 85 83  1  0
 85 86  1  0
 85 84  1  0
 87 90  1  1
 87 88  1  0
 89 87  1  0
M  ISO  4   9 100  17 100  49 101  50 101
M  END
>  <TORSDO>  (5) 
F 22

>  <SCORE>  (5) 
-13.034

>  <name>  (5) 
4

>  <ligand_id>  (5) 
4

>  <original_smiles>  (5) 
[H]c1nn(C([H])([H])C([H])([H])C([H])([H])Oc2c([H])c([H])c3c(c2[H])C([H])([H])N(C(=O)C([H])(N([H])C(=O)C([H])(N([H])C([H])([H])[H])C([H])([H])[H])C(C([H])([H])[H])(C([H])([H])[H])C([H])([H])[H])C([H])(C(=O)N([H])C2([H])c4c([H])c([H])c([H])c([H])c4C([H])([H])C([H])([H])C2([H])[H])C3([H])[H])c([H])c1C([H])([H])C([H])([H])C([H])([H])N([H])C(=O)N1C([H])([H])C([H])([H])C([H])([H])C([H])(n2nc(-c3c([H])c([H])c(Oc4c([H])c([H])c(F)c([H])c4F)c([H])c3[H])c(C(=O)N([H])[H])c2N([H])[H])C1([H])[H]

>  <smiles>  (5) 
[H]c1nn(C([H])([H])C([H])([H])C([H])([H])Oc2c([H])c([H])c3c(c2[H])C([H])([H])N(C(=O)C([H])(N([H])C(=O)C([H])(N([H])C([H])([H])[H])C([H])([H])[H])C(C([H])([H])[H])(C([H])([H])[H])C([H])([H])[H])C([H])(C(=O)N([H])C2([H])c4c([H])c([H])c([H])c([H])c4C([H])([H])C([H])([H])C2([H])[H])C3([H])[H])c([H])c1C([H])([H])C([H])([H])C([H])([H])N([H])C(=O)N1C([H])([H])C([H])([H])C([H])([H])C([H])(n2nc(-c3c([H])c([H])c(Oc4c([H])c([H])c(F)c([H])c4F)c([H])c3[H])c(C(=O)N([H])[H])c2N([H])[H])C1([H])[H]

$$$$
5:0:0
     RDKit          3D

 91 99  0  0  1  0  0  0  0  0999 V2000
  -28.5120  -21.8630   19.1510 C   0  0  0  0  0  3  0  0  0  0  0  0
  -29.6140  -20.4630   21.2220 C   0  0  0  0  0  3  0  0  0  0  0  0
  -28.4320  -20.4410   19.1330 C   0  0  0  0  0  0  0  0  0  0  0  0
  -29.0100  -19.6850   20.2030 C   0  0  0  0  0  0  0  0  0  0  0  0
  -29.1260  -22.5470   20.2210 C   0  0  0  0  0  0  0  0  0  0  0  0
  -29.6670  -21.8270   21.2380 N   0  0  0  0  0  0  0  0  0  0  0  0
  -28.6500  -19.6520   16.7300 C   0  0  0  0  0  1  0  0  0  0  0  0
  -27.7190  -19.8130   17.9370 C   0  0  0  0  0  2  0  0  0  0  0  0
  -28.8650  -18.1260   20.3680 C   0  0  0  0  0  2  0  0  0  0  0  0
  -30.1320  -17.1860   20.4570 C   0  0  0  0  0  2  0  0  0  0  0  0
  -30.6010  -14.6450   20.3820 C   0  0  0  0  0  0  0  0  0  0  0  0
  -30.3770  -12.4130   19.3330 C   0  0  0  0  0  2  0  0  0  0  0  0
  -29.4230  -12.5270   18.1240 C   0  0  0  0  0  2  0  0  0  0  0  0
  -27.9540  -12.3770   18.5650 C   0  0  0  0  0  2  0  0  0  0  0  0
  -27.5990  -13.2520   19.7960 C   0  0  0  0  0  3  0  0  0  0  0  0
  -28.6640  -13.1100   20.9060 C   0  0  0  0  0  2  0  0  0  0  0  0
  -29.9700  -13.4350   20.3150 N   0  0  0  0  0  0  0  0  0  0  0  0
  -31.7750  -14.7890   20.0330 O   0  0  0  0  0  0  0  0  0  0  0  0
  -29.8060  -15.7280   20.6240 N   0  0  0  0  0  0  0  0  0  0  0  0
  -28.8480  -15.5090   20.8510 H   0  0  0  0  0  0  0  0  0  0  0  0
  -25.2090  -13.8470   20.5340 C   0  0  0  0  0  0  0  0  0  0  0  0
  -24.1460  -13.0710   20.9070 C   0  0  0  0  0  0  0  0  0  0  0  0
  -24.6110  -11.7200   20.8690 C   0  0  0  0  0  0  0  0  0  0  0  0
  -26.2550  -12.9700   20.2910 N   0  0  0  0  0  0  0  0  0  0  0  0
  -25.9000  -11.6860   20.5550 N   0  0  0  0  0  0  0  0  0  0  0  0
  -23.8890  -10.4560   21.0570 C   0  0  0  0  0  0  0  0  0  0  0  0
  -24.3350   -9.4830   21.9800 C   0  0  0  0  0  3  0  0  0  0  0  0
  -23.6140   -8.2820   22.1570 C   0  0  0  0  0  3  0  0  0  0  0  0
  -22.4360   -8.0460   21.4120 C   0  0  0  0  0  0  0  0  0  0  0  0
  -22.0100   -9.0070   20.4780 C   0  0  0  0  0  3  0  0  0  0  0  0
  -22.7300  -10.1990   20.2990 C   0  0  0  0  0  3  0  0  0  0  0  0
  -21.6860   -6.8960   21.4990 O   0  0  0  0  0  0  0  0  0  0  0  0
  -21.6500   -6.1450   22.6450 C   0  0  0  0  0  0  0  0  0  0  0  0
  -21.2300   -6.6870   23.8790 C   0  0  0  0  0  3  0  0  0  0  0  0
  -21.1450   -5.8620   25.0180 C   0  0  0  0  0  3  0  0  0  0  0  0
  -21.4690   -4.4960   24.9240 C   0  0  0  0  0  0  0  0  0  0  0  0
  -21.8810   -3.9530   23.6960 C   0  0  0  0  0  3  0  0  0  0  0  0
  -21.9700   -4.7750   22.5590 C   0  0  0  0  0  0  0  0  0  0  0  0
  -22.3480   -4.2430   21.3710 F   0  0  0  0  0  0  0  0  0  0  0  0
  -21.3790   -3.7000   26.0160 F   0  0  0  0  0  0  0  0  0  0  0  0
  -22.7470  -13.5400   21.1840 C   0  0  0  0  0  0  0  0  0  0  0  0
  -22.0280  -12.8430   22.0560 N   0  0  0  0  0  0  0  0  0  0  0  0
  -22.3030  -14.5640   20.6650 O   0  0  0  0  0  0  0  0  0  0  0  0
  -22.4020  -12.0170   22.5000 H   0  0  0  0  0  0  0  0  0  0  0  0
  -21.0870  -13.1360   22.2810 H   0  0  0  0  0  0  0  0  0  0  0  0
  -25.3690  -15.2200   20.3570 N   0  0  0  0  0  0  0  0  0  0  0  0
  -24.5990  -15.8690   20.4730 H   0  0  0  0  0  0  0  0  0  0  0  0
  -26.2020  -15.6590   19.9910 H   0  0  0  0  0  0  0  0  0  0  0  0
  -29.3260  -24.1040   20.2380 C   0  0  0  0  0  3  0  0  0  0  0  0
  -28.0680  -25.0530   20.1660 C   0  0  0  0  0  3  0  0  0  0  0  0
  -28.2950  -26.5160   20.1940 O   0  0  0  0  0  0  0  0  0  0  0  0
  -24.5990  -31.9030   23.2550 C   0  0  0  0  0  0  0  0  0  0  0  0
  -27.1690  -27.3510   20.1690 C   0  0  0  0  0  0  0  0  0  0  0  0
  -23.3800  -30.5200   21.6180 C   0  0  0  0  0  3  0  0  0  0  0  0
  -24.8120  -28.9690   20.1820 C   0  0  0  0  0  0  0  0  0  0  0  0
  -25.9200  -30.8310   21.4150 C   0  0  0  0  0  2  0  0  0  0  0  0
  -25.9880  -29.4530   20.7670 C   0  0  0  0  0  0  0  0  0  0  0  0
  -27.1720  -28.6550   20.7490 C   0  0  0  0  0  3  0  0  0  0  0  0
  -25.9640  -26.9170   19.5650 C   0  0  0  0  0  3  0  0  0  0  0  0
  -24.7990  -27.7050   19.5760 C   0  0  0  0  0  3  0  0  0  0  0  0
  -23.5800  -29.8460   20.2360 C   0  0  0  0  0  2  0  0  0  0  0  0
  -24.6540  -31.0990   22.1540 N   0  0  0  0  0  0  0  0  0  0  0  0
  -23.5190  -32.1820   23.7970 O   0  0  0  0  0  0  0  0  0  0  0  0
  -22.7150  -29.5050   22.5760 C   0  0  0  0  0  0  0  0  0  0  0  0
  -21.3880  -29.3340   22.4520 N   0  0  0  0  0  0  0  0  0  0  0  0
  -23.3950  -28.8710   23.3880 O   0  0  0  0  0  0  0  0  0  0  0  0
  -20.9030  -29.8920   21.7650 H   0  0  0  0  0  0  0  0  0  0  0  0
  -18.0080  -28.1510   22.9580 C   0  0  0  0  0  0  0  0  0  0  0  0
  -20.5680  -28.3990   23.2220 C   0  0  0  0  0  3  0  0  0  0  0  0
  -20.6630  -26.9680   22.6440 C   0  0  0  0  0  2  0  0  0  0  0  0
  -19.5570  -26.6520   21.6310 C   0  0  0  0  0  2  0  0  0  0  0  0
  -18.1770  -26.8030   22.2780 C   0  0  0  0  0  2  0  0  0  0  0  0
  -19.1330  -28.9070   23.3860 C   0  0  0  0  0  0  0  0  0  0  0  0
  -18.9220  -30.1710   23.9810 C   0  0  0  0  0  3  0  0  0  0  0  0
  -17.6200  -30.6810   24.1470 C   0  0  0  0  0  3  0  0  0  0  0  0
  -16.5110  -29.9220   23.7330 C   0  0  0  0  0  3  0  0  0  0  0  0
  -16.7060  -28.6590   23.1460 C   0  0  0  0  0  3  0  0  0  0  0  0
  -25.8870  -32.5260   23.8750 C   0  0  0  0  0  3  0  0  0  0  0  0
  -25.5840  -33.9230   24.2130 N   0  0  0  0  0  0  0  0  0  0  0  0
  -25.9040  -34.9760   23.4500 C   0  0  0  0  0  0  0  0  0  0  0  0
  -26.5560  -34.8740   22.4070 O   0  0  0  0  0  0  0  0  0  0  0  0
  -24.9910  -34.0750   25.0160 H   0  0  0  0  0  0  0  0  0  0  0  0
  -24.1690  -36.7730   23.1390 C   0  0  0  0  0  1  0  0  0  0  0  0
  -25.4290  -36.3650   23.9180 C   0  0  0  0  0  3  0  0  0  0  0  0
  -27.5850  -37.2520   24.6900 C   0  0  0  0  0  1  0  0  0  0  0  0
  -26.4580  -37.4170   23.7760 N   0  0  0  0  0  0  0  0  0  0  0  0
  -26.0570  -38.3370   23.9310 H   0  0  0  0  0  0  0  0  0  0  0  0
  -26.4030  -31.7440   25.1440 C   0  0  1  0  0  0  0  0  0  0  0  0
  -25.3150  -31.5080   26.2170 C   0  0  0  0  0  1  0  0  0  0  0  0
  -26.9730  -30.3630   24.7410 C   0  0  0  0  0  1  0  0  0  0  0  0
  -27.5590  -32.5300   25.8040 C   0  0  0  0  0  1  0  0  0  0  0  0
  1  5  1  0
  2  6  1  0
  3  1  2  0
  3  4  1  0
  4  9  1  0
  4  2  2  0
  5 49  1  0
  5  6  2  0
  7  8  1  0
  8  3  1  0
  9 10  1  0
 10 19  1  0
 11 19  1  0
 12 17  1  0
 13 14  1  0
 13 12  1  0
 15 14  1  0
 15 24  1  0
 15 16  1  0
 17 11  1  0
 17 16  1  0
 18 11  2  0
 19 20  1  0
 21 22  2  0
 22 41  1  0
 23 22  1  0
 23 26  1  0
 24 21  1  0
 24 25  1  0
 25 23  2  0
 26 27  1  0
 27 28  2  0
 29 32  1  0
 29 28  1  0
 30 29  2  0
 31 30  1  0
 31 26  2  0
 32 33  1  0
 33 34  1  0
 34 35  2  0
 36 35  1  0
 36 40  1  0
 37 36  2  0
 38 33  2  0
 38 37  1  0
 39 38  1  0
 41 42  1  0
 42 45  1  0
 42 44  1  0
 43 41  2  0
 46 47  1  0
 46 21  1  0
 48 46  1  0
 50 51  1  0
 50 49  2  0
 52 63  2  0
 53 51  1  0
 53 58  1  0
 54 62  1  0
 54 64  1  0
 55 61  1  0
 55 57  1  0
 56 62  1  0
 57 56  1  0
 58 57  2  0
 59 60  1  0
 59 53  2  0
 60 55  2  0
 61 54  1  0
 62 52  1  0
 64 66  2  0
 65 64  1  0
 67 65  1  0
 68 77  2  0
 68 73  1  0
 69 65  1  0
 69 73  1  0
 70 69  1  0
 71 72  1  0
 71 70  1  0
 72 68  1  0
 73 74  2  0
 74 75  1  0
 76 75  2  0
 77 76  1  0
 78 52  1  0
 78 79  1  0
 78 88  1  0
 79 82  1  0
 80 84  1  0
 80 79  1  0
 81 80  2  0
 84 83  1  0
 86 84  1  0
 86 87  1  0
 86 85  1  0
 88 91  1  1
 88 89  1  0
 90 88  1  0
M  ISO  4  11 100  19 100  50 101  51 101
M  END
>  <TORSDO>  (6) 
F 21

>  <SCORE>  (6) 
-13.735

>  <name>  (6) 
5

>  <ligand_id>  (6) 
5

>  <original_smiles>  (6) 
[H]c1nc(C([H])([H])C([H])([H])Oc2c([H])c([H])c3c(c2[H])C([H])([H])N(C(=O)C([H])(N([H])C(=O)C([H])(N([H])C([H])([H])[H])C([H])([H])[H])C(C([H])([H])[H])(C([H])([H])[H])C([H])([H])[H])C([H])(C(=O)N([H])C2([H])c4c([H])c([H])c([H])c([H])c4C([H])([H])C([H])([H])C2([H])[H])C3([H])[H])c([H])c(C([H])([H])C([H])([H])[H])c1C([H])([H])C([H])([H])N([H])C(=O)N1C([H])([H])C([H])([H])C([H])([H])C([H])(n2nc(-c3c([H])c([H])c(Oc4c([H])c([H])c(F)c([H])c4F)c([H])c3[H])c(C(=O)N([H])[H])c2N([H])[H])C1([H])[H]

>  <smiles>  (6) 
[H]c1nc(C([H])([H])C([H])([H])Oc2c([H])c([H])c3c(c2[H])C([H])([H])N(C(=O)C([H])(N([H])C(=O)C([H])(N([H])C([H])([H])[H])C([H])([H])[H])C(C([H])([H])[H])(C([H])([H])[H])C([H])([H])[H])C([H])(C(=O)N([H])C2([H])c4c([H])c([H])c([H])c([H])c4C([H])([H])C([H])([H])C2([H])[H])C3([H])[H])c([H])c(C([H])([H])C([H])([H])[H])c1C([H])([H])C([H])([H])N([H])C(=O)N1C([H])([H])C([H])([H])C([H])([H])C([H])(n2nc(-c3c([H])c([H])c(Oc4c([H])c([H])c(F)c([H])c4F)c([H])c3[H])c(C(=O)N([H])[H])c2N([H])[H])C1([H])[H]

$$$$
6:0:0
     RDKit          3D

 88 96  0  0  1  0  0  0  0  0999 V2000
  -29.5220  -21.2530   21.0140 C   0  0  0  0  0  3  0  0  0  0  0  0
  -29.0540  -20.4160   19.0920 C   0  0  0  0  0  3  0  0  0  0  0  0
  -29.1880  -22.3360   20.1810 C   0  0  0  0  0  0  0  0  0  0  0  0
  -28.8980  -21.7460   18.9420 N   0  0  0  0  0  0  0  0  0  0  0  0
  -29.4650  -20.0090   20.3070 N   0  0  0  0  0  0  0  0  0  0  0  0
  -29.3000  -23.9140   20.3830 C   0  0  0  0  0  3  0  0  0  0  0  0
  -28.0580  -24.9300   20.2240 C   0  0  0  0  0  3  0  0  0  0  0  0
  -28.2950  -26.4180   20.2550 O   0  0  0  0  0  0  0  0  0  0  0  0
  -24.5890  -31.9050   23.2170 C   0  0  0  0  0  0  0  0  0  0  0  0
  -27.1910  -27.2960   20.1980 C   0  0  0  0  0  0  0  0  0  0  0  0
  -23.3820  -30.4870   21.5980 C   0  0  0  0  0  3  0  0  0  0  0  0
  -24.8320  -28.9330   20.1810 C   0  0  0  0  0  0  0  0  0  0  0  0
  -25.9230  -30.8070   21.4000 C   0  0  0  0  0  2  0  0  0  0  0  0
  -26.0050  -29.4210   20.7660 C   0  0  0  0  0  0  0  0  0  0  0  0
  -27.1910  -28.6170   20.7580 C   0  0  0  0  0  3  0  0  0  0  0  0
  -25.9900  -26.8740   19.5830 C   0  0  0  0  0  3  0  0  0  0  0  0
  -24.8290  -27.6670   19.5770 C   0  0  0  0  0  3  0  0  0  0  0  0
  -23.5950  -29.8060   20.2230 C   0  0  0  0  0  2  0  0  0  0  0  0
  -24.6500  -31.0850   22.1280 N   0  0  0  0  0  0  0  0  0  0  0  0
  -23.5080  -32.1880   23.7540 O   0  0  0  0  0  0  0  0  0  0  0  0
  -22.7300  -29.4720   22.5690 C   0  0  0  0  0  0  0  0  0  0  0  0
  -21.4030  -29.2870   22.4500 N   0  0  0  0  0  0  0  0  0  0  0  0
  -23.4130  -28.8550   23.3910 O   0  0  0  0  0  0  0  0  0  0  0  0
  -20.9040  -29.8470   21.7730 H   0  0  0  0  0  0  0  0  0  0  0  0
  -18.0340  -28.0810   22.9870 C   0  0  0  0  0  0  0  0  0  0  0  0
  -20.5930  -28.3510   23.2340 C   0  0  0  0  0  3  0  0  0  0  0  0
  -20.6960  -26.9130   22.6760 C   0  0  0  0  0  2  0  0  0  0  0  0
  -19.5880  -26.5790   21.6700 C   0  0  0  0  0  2  0  0  0  0  0  0
  -18.2090  -26.7250   22.3210 C   0  0  0  0  0  2  0  0  0  0  0  0
  -19.1530  -28.8510   23.4000 C   0  0  0  0  0  0  0  0  0  0  0  0
  -18.9310  -30.1200   23.9790 C   0  0  0  0  0  3  0  0  0  0  0  0
  -17.6250  -30.6160   24.1500 C   0  0  0  0  0  3  0  0  0  0  0  0
  -16.5210  -29.8420   23.7540 C   0  0  0  0  0  3  0  0  0  0  0  0
  -16.7270  -28.5770   23.1760 C   0  0  0  0  0  3  0  0  0  0  0  0
  -25.8730  -32.5490   23.8270 C   0  0  0  0  0  3  0  0  0  0  0  0
  -26.4150  -31.7830   25.0960 C   0  0  1  0  0  0  0  0  0  0  0  0
  -25.3350  -31.5340   26.1740 C   0  0  0  0  0  1  0  0  0  0  0  0
  -27.0060  -30.4090   24.7020 C   0  0  0  0  0  1  0  0  0  0  0  0
  -27.5680  -32.5880   25.7430 C   0  0  0  0  0  1  0  0  0  0  0  0
  -25.5570  -33.9450   24.1590 N   0  0  0  0  0  0  0  0  0  0  0  0
  -25.8840  -35.0020   23.4020 C   0  0  0  0  0  0  0  0  0  0  0  0
  -26.5530  -34.9030   22.3690 O   0  0  0  0  0  0  0  0  0  0  0  0
  -24.9660  -34.0970   24.9630 H   0  0  0  0  0  0  0  0  0  0  0  0
  -24.1600  -36.7980   23.0320 C   0  0  0  0  0  1  0  0  0  0  0  0
  -25.3900  -36.3900   23.8580 C   0  0  0  0  0  3  0  0  0  0  0  0
  -27.5130  -37.2640   24.7260 C   0  0  0  0  0  1  0  0  0  0  0  0
  -26.4260  -37.4430   23.7690 N   0  0  0  0  0  0  0  0  0  0  0  0
  -26.0170  -38.3590   23.9260 H   0  0  0  0  0  0  0  0  0  0  0  0
  -29.6700  -18.5980   20.8680 C   0  0  0  0  0  3  0  0  0  0  0  0
  -30.1750  -17.3200   19.9880 C   0  0  0  0  0  3  0  0  0  0  0  0
  -30.7460  -14.7600   20.0690 C   0  0  0  0  0  0  0  0  0  0  0  0
  -30.4220  -12.5450   18.9420 C   0  0  0  0  0  2  0  0  0  0  0  0
  -29.4210  -12.7070   17.7730 C   0  0  0  0  0  2  0  0  0  0  0  0
  -27.9700  -12.5310   18.2640 C   0  0  0  0  0  2  0  0  0  0  0  0
  -27.6850  -13.3390   19.5570 C   0  0  0  0  0  3  0  0  0  0  0  0
  -28.8030  -13.1530   20.6060 C   0  0  0  0  0  2  0  0  0  0  0  0
  -30.0750  -13.5520   19.9760 N   0  0  0  0  0  0  0  0  0  0  0  0
  -31.8420  -14.8760   19.5080 O   0  0  0  0  0  0  0  0  0  0  0  0
  -29.8190  -15.8910   22.0180 C   0  0  0  0  0  1  0  0  0  0  0  0
  -30.1040  -15.8920   20.5800 N   0  0  0  0  0  0  0  0  0  0  0  0
  -25.3370  -13.9110   20.4280 C   0  0  0  0  0  0  0  0  0  0  0  0
  -24.2900  -13.1310   20.8360 C   0  0  0  0  0  0  0  0  0  0  0  0
  -24.7460  -11.7800   20.7440 C   0  0  0  0  0  0  0  0  0  0  0  0
  -26.3660  -13.0380   20.1080 N   0  0  0  0  0  0  0  0  0  0  0  0
  -26.0180  -11.7490   20.3580 N   0  0  0  0  0  0  0  0  0  0  0  0
  -24.0270  -10.5160   20.9410 C   0  0  0  0  0  0  0  0  0  0  0  0
  -24.4740   -9.5520   21.8690 C   0  0  0  0  0  3  0  0  0  0  0  0
  -23.7580   -8.3490   22.0530 C   0  0  0  0  0  3  0  0  0  0  0  0
  -22.5780   -8.1060   21.3110 C   0  0  0  0  0  0  0  0  0  0  0  0
  -22.1510   -9.0600   20.3700 C   0  0  0  0  0  3  0  0  0  0  0  0
  -22.8690  -10.2530   20.1850 C   0  0  0  0  0  3  0  0  0  0  0  0
  -21.8310   -6.9550   21.4040 O   0  0  0  0  0  0  0  0  0  0  0  0
  -21.7480   -6.2480   22.5750 C   0  0  0  0  0  0  0  0  0  0  0  0
  -21.2840   -6.8370   23.7730 C   0  0  0  0  0  3  0  0  0  0  0  0
  -21.1510   -6.0530   24.9360 C   0  0  0  0  0  3  0  0  0  0  0  0
  -21.4670   -4.6810   24.9030 C   0  0  0  0  0  0  0  0  0  0  0  0
  -21.9170   -4.0930   23.7090 C   0  0  0  0  0  3  0  0  0  0  0  0
  -22.0570   -4.8740   22.5490 C   0  0  0  0  0  0  0  0  0  0  0  0
  -22.4760   -4.3000   21.3950 F   0  0  0  0  0  0  0  0  0  0  0  0
  -21.3320   -3.9240   26.0170 F   0  0  0  0  0  0  0  0  0  0  0  0
  -22.9120  -13.6070   21.2020 C   0  0  0  0  0  0  0  0  0  0  0  0
  -22.2350  -12.8910   22.0900 N   0  0  0  0  0  0  0  0  0  0  0  0
  -22.4510  -14.6490   20.7360 O   0  0  0  0  0  0  0  0  0  0  0  0
  -22.6310  -12.0550   22.4950 H   0  0  0  0  0  0  0  0  0  0  0  0
  -21.3080  -13.1840   22.3680 H   0  0  0  0  0  0  0  0  0  0  0  0
  -25.4960  -15.2840   20.2810 N   0  0  0  0  0  0  0  0  0  0  0  0
  -24.7380  -15.9310   20.4570 H   0  0  0  0  0  0  0  0  0  0  0  0
  -26.3330  -15.7380   19.9420 H   0  0  0  0  0  0  0  0  0  0  0  0
  2  5  1  0
  3  6  1  0
  3  1  2  0
  4  2  2  0
  4  3  1  0
  5 49  1  0
  5  1  1  0
  7  8  1  0
  7  6  2  0
  9 20  2  0
 10  8  1  0
 10 15  1  0
 11 19  1  0
 11 21  1  0
 12 18  1  0
 12 14  1  0
 13 19  1  0
 14 13  1  0
 15 14  2  0
 16 10  2  0
 17 16  1  0
 17 12  2  0
 18 11  1  0
 19  9  1  0
 21 23  2  0
 22 21  1  0
 24 22  1  0
 25 34  2  0
 25 30  1  0
 26 22  1  0
 26 30  1  0
 27 26  1  0
 28 29  1  0
 28 27  1  0
 29 25  1  0
 30 31  2  0
 31 32  1  0
 33 32  2  0
 34 33  1  0
 35  9  1  0
 35 40  1  0
 35 36  1  0
 36 39  1  1
 36 37  1  0
 38 36  1  0
 40 43  1  0
 41 45  1  0
 41 40  1  0
 42 41  2  0
 45 44  1  0
 47 45  1  0
 47 48  1  0
 47 46  1  0
 50 60  1  0
 50 49  2  0
 51 60  1  0
 52 57  1  0
 53 54  1  0
 53 52  1  0
 55 54  1  0
 55 64  1  0
 55 56  1  0
 57 51  1  0
 57 56  1  0
 58 51  2  0
 60 59  1  0
 61 62  2  0
 62 81  1  0
 63 62  1  0
 63 66  1  0
 64 65  1  0
 64 61  1  0
 65 63  2  0
 66 67  1  0
 67 68  2  0
 69 72  1  0
 69 68  1  0
 70 69  2  0
 71 70  1  0
 71 66  2  0
 72 73  1  0
 73 74  1  0
 74 75  2  0
 76 75  1  0
 76 80  1  0
 77 76  2  0
 78 73  2  0
 78 77  1  0
 79 78  1  0
 81 82  1  0
 82 85  1  0
 82 84  1  0
 83 81  2  0
 86 61  1  0
 86 87  1  0
 88 86  1  0
M  ISO  4   7 101   8 101  51 100  60 100
M  END
>  <TORSDO>  (7) 
F 20

>  <SCORE>  (7) 
-13.154

>  <name>  (7) 
6

>  <ligand_id>  (7) 
6

>  <original_smiles>  (7) 
[H]c1c([H])c([H])c2c(c1[H])C([H])([H])C([H])([H])C([H])([H])C2([H])N([H])C(=O)C1([H])N(C(=O)C([H])(N([H])C(=O)C([H])(N([H])C([H])([H])[H])C([H])([H])[H])C(C([H])([H])[H])(C([H])([H])[H])C([H])([H])[H])C([H])([H])c2c([H])c(OC([H])([H])C([H])([H])c3nc([H])n(C([H])([H])C([H])([H])N(C(=O)N4C([H])([H])C([H])([H])C([H])([H])C([H])(n5nc(-c6c([H])c([H])c(Oc7c([H])c([H])c(F)c([H])c7F)c([H])c6[H])c(C(=O)N([H])[H])c5N([H])[H])C4([H])[H])C([H])([H])[H])c3[H])c([H])c([H])c2C1([H])[H]

>  <smiles>  (7) 
[H]c1c([H])c([H])c2c(c1[H])C([H])([H])C([H])([H])C([H])([H])C2([H])N([H])C(=O)C1([H])N(C(=O)C([H])(N([H])C(=O)C([H])(N([H])C([H])([H])[H])C([H])([H])[H])C(C([H])([H])[H])(C([H])([H])[H])C([H])([H])[H])C([H])([H])c2c([H])c(OC([H])([H])C([H])([H])c3nc([H])n(C([H])([H])C([H])([H])N(C(=O)N4C([H])([H])C([H])([H])C([H])([H])C([H])(n5nc(-c6c([H])c([H])c(Oc7c([H])c([H])c(F)c([H])c7F)c([H])c6[H])c(C(=O)N([H])[H])c5N([H])[H])C4([H])[H])C([H])([H])[H])c3[H])c([H])c([H])c2C1([H])[H]

$$$$
7:0:0
     RDKit          3D

 90 91  0  0  1  0  0  0  0  0999 V2000
  -23.1120  -25.7410   23.7660 C   0  0  0  0  0  2  0  0  0  0  0  0
  -24.0860  -25.4760   22.7320 C   0  0  0  0  0  0  0  0  0  0  0  0
  -23.2450  -24.7270   21.8880 C   0  0  0  0  0  1  0  0  0  0  0  0
  -20.5160  -28.0470   20.7930 C   0  0  0  0  0  2  0  0  0  0  0  0
  -21.7880  -25.7570   23.4580 N   0  0  0  0  0  2  0  0  0  0  0  0
  -21.7180  -25.8780   22.1040 N   0  0  0  0  0  1  0  0  0  0  0  0
  -25.6580  -25.9560   22.8630 C   0  0  0  0  0  3  0  0  0  0  0  0
  -26.9310  -25.7990   21.8150 C   0  0  0  0  0  2  0  0  0  0  0  0
  -28.0940  -26.8220   21.6060 O   0  0  0  0  0  0  0  0  0  0  0  0
  -24.7220  -32.4230   23.4680 C   0  0  0  0  0  0  0  0  0  0  0  0
  -27.6910  -27.9450   20.9360 C   0  0  0  0  0  0  0  0  0  0  0  0
  -23.9370  -31.1210   21.5650 C   0  0  0  0  0  3  0  0  0  0  0  0
  -25.6240  -29.6790   20.3260 C   0  0  0  0  0  0  0  0  0  0  0  0
  -26.4280  -31.4460   21.9060 C   0  0  0  0  0  2  0  0  0  0  0  0
  -26.6150  -30.0980   21.2250 C   0  0  0  0  0  0  0  0  0  0  0  0
  -27.6820  -29.2250   21.5440 C   0  0  0  0  0  3  0  0  0  0  0  0
  -26.8850  -27.6840   19.8250 C   0  0  0  0  0  3  0  0  0  0  0  0
  -25.7800  -28.4980   19.5850 C   0  0  0  0  0  3  0  0  0  0  0  0
  -24.4000  -30.5510   20.1970 C   0  0  0  0  0  2  0  0  0  0  0  0
  -25.0410  -31.7100   22.3530 N   0  0  0  0  0  0  0  0  0  0  0  0
  -23.5420  -32.6310   23.7930 O   0  0  0  0  0  0  0  0  0  0  0  0
  -23.3230  -30.0070   22.3910 C   0  0  0  0  0  0  0  0  0  0  0  0
  -22.0290  -29.8880   22.2950 N   0  0  0  0  0  0  0  0  0  0  0  0
  -24.0060  -29.2390   23.0740 O   0  0  0  0  0  0  0  0  0  0  0  0
  -21.4750  -30.5530   21.7740 H   0  0  0  0  0  0  0  0  0  0  0  0
  -18.6500  -28.0930   23.2240 C   0  0  0  0  0  0  0  0  0  0  0  0
  -21.5350  -28.5750   22.5270 C   0  0  0  0  0  2  0  0  0  0  0  0
  -21.6940  -27.6840   20.5700 C   0  0  0  0  0  1  0  0  0  0  0  0
  -19.7400  -26.4530   20.1910 C   0  0  0  0  0  1  0  0  0  0  0  0
  -18.5250  -26.6550   21.9760 C   0  0  0  0  0  1  0  0  0  0  0  0
  -19.9920  -28.8640   23.4870 C   0  0  0  0  0  0  0  0  0  0  0  0
  -19.8730  -30.1770   24.1450 C   0  0  0  0  0  3  0  0  0  0  0  0
  -18.6670  -30.8540   24.4880 C   0  0  0  0  0  3  0  0  0  0  0  0
  -17.4540  -30.2380   24.1550 C   0  0  0  0  0  3  0  0  0  0  0  0
  -17.4700  -28.9340   23.5410 C   0  0  0  0  0  3  0  0  0  0  0  0
  -25.8300  -33.0260   24.3680 C   0  0  0  0  0  3  0  0  0  0  0  0
  -25.4250  -34.4040   24.6590 N   0  0  0  0  0  0  0  0  0  0  0  0
  -25.8380  -35.4690   23.9620 C   0  0  0  0  0  0  0  0  0  0  0  0
  -26.6740  -35.3950   23.0580 O   0  0  0  0  0  0  0  0  0  0  0  0
  -24.7010  -34.5300   25.3520 H   0  0  0  0  0  0  0  0  0  0  0  0
  -24.1400  -37.2090   23.3210 C   0  0  0  0  0  1  0  0  0  0  0  0
  -25.2330  -36.8330   24.3350 C   0  0  0  0  0  3  0  0  0  0  0  0
  -27.1740  -37.7550   25.5200 C   0  0  0  0  0  1  0  0  0  0  0  0
  -26.2370  -37.9160   24.4120 N   0  0  0  0  0  0  0  0  0  0  0  0
  -25.7850  -38.8210   24.5080 H   0  0  0  0  0  0  0  0  0  0  0  0
  -26.0670  -32.2120   25.6970 C   0  0  1  0  0  0  0  0  0  0  0  0
  -24.7750  -31.9090   26.4890 C   0  0  0  0  0  1  0  0  0  0  0  0
  -26.7640  -30.8640   25.4000 C   0  0  0  0  0  1  0  0  0  0  0  0
  -27.0200  -33.0100   26.6170 C   0  0  0  0  0  1  0  0  0  0  0  0
  -24.4680  -23.1140   21.0280 C   0  0  0  0  0 15  0  0  0  0  0  0
  -25.9490  -21.3360   21.1650 C   0  0  0  0  0 15  0  0  0  0  0  0
  -27.3970  -19.7470   20.3040 C   0  0  0  0  0 15  0  0  0  0  0  0
  -29.6260  -16.7360   19.8580 C   0  0  0  0  0  0  0  0  0  0  0  0
  -30.5620  -14.1840   18.8910 C   0  0  0  0  0  2  0  0  0  0  0  0
  -29.8000  -13.4160   17.7340 C   0  0  0  0  0  2  0  0  0  0  0  0
  -28.4530  -12.8690   18.2230 C   0  0  0  0  0  2  0  0  0  0  0  0
  -27.8890  -13.8760   19.2350 C   0  0  0  0  0  3  0  0  0  0  0  0
  -28.8280  -14.2440   20.3790 C   0  0  0  0  0  2  0  0  0  0  0  0
  -29.6780  -15.2140   19.7370 N   0  0  0  0  0  0  0  0  0  0  0  0
  -30.8380  -16.8940   19.4570 O   0  0  0  0  0  0  0  0  0  0  0  0
  -28.3790  -17.9150   20.2670 N   0  0  0  0  0  2  0  0  0  0  0  0
  -27.6580  -17.2830   20.6030 H   0  0  0  0  0  0  0  0  0  0  0  0
  -25.7290  -14.4960   20.2650 C   0  0  0  0  0  0  0  0  0  0  0  0
  -24.6870  -13.7530   20.7180 C   0  0  0  0  0  0  0  0  0  0  0  0
  -25.0660  -12.3850   20.5360 C   0  0  0  0  0  0  0  0  0  0  0  0
  -26.6370  -13.5700   19.8070 N   0  0  0  0  0  0  0  0  0  0  0  0
  -26.2910  -12.2920   20.0490 N   0  0  0  0  0  0  0  0  0  0  0  0
  -24.3030  -11.1580   20.7210 C   0  0  0  0  0  0  0  0  0  0  0  0
  -24.7560  -10.1270   21.5700 C   0  0  0  0  0  3  0  0  0  0  0  0
  -23.9840   -8.9580   21.7380 C   0  0  0  0  0  3  0  0  0  0  0  0
  -22.7510   -8.8230   21.0560 C   0  0  0  0  0  0  0  0  0  0  0  0
  -22.3220   -9.8430   20.1910 C   0  0  0  0  0  3  0  0  0  0  0  0
  -23.0940  -11.0020   20.0200 C   0  0  0  0  0  3  0  0  0  0  0  0
  -21.9420   -7.7170   21.1420 O   0  0  0  0  0  0  0  0  0  0  0  0
  -21.8720   -6.9690   22.2890 C   0  0  0  0  0  0  0  0  0  0  0  0
  -21.5380   -7.5440   23.5350 C   0  0  0  0  0  3  0  0  0  0  0  0
  -21.4100   -6.7250   24.6740 C   0  0  0  0  0  3  0  0  0  0  0  0
  -21.6050   -5.3340   24.5670 C   0  0  0  0  0  0  0  0  0  0  0  0
  -21.9330   -4.7620   23.3260 C   0  0  0  0  0  3  0  0  0  0  0  0
  -22.0640   -5.5780   22.1890 C   0  0  0  0  0  0  0  0  0  0  0  0
  -22.3600   -5.0210   20.9900 F   0  0  0  0  0  0  0  0  0  0  0  0
  -21.4720   -4.5460   25.6590 F   0  0  0  0  0  0  0  0  0  0  0  0
  -23.3730  -14.2940   21.1790 C   0  0  0  0  0  0  0  0  0  0  0  0
  -22.7150  -13.5930   22.0920 N   0  0  0  0  0  0  0  0  0  0  0  0
  -22.9520  -15.3710   20.7610 O   0  0  0  0  0  0  0  0  0  0  0  0
  -23.0810  -12.7200   22.4440 H   0  0  0  0  0  0  0  0  0  0  0  0
  -21.8330  -13.9340   22.4460 H   0  0  0  0  0  0  0  0  0  0  0  0
  -25.9730  -15.8670   20.1690 N   0  0  0  0  0  0  0  0  0  0  0  0
  -25.1810  -16.4810   20.3250 H   0  0  0  0  0  0  0  0  0  0  0  0
  -26.5620  -16.1980   19.4150 H   0  0  0  0  0  0  0  0  0  0  0  0
  2  7  2  0
  2  1  1  0
  3  2  1  0
  5  1  1  0
  6  5  1  0
  8  7  1  0
  9  8  1  0
 10 21  2  0
 11 16  1  0
 11  9  1  0
 12 20  1  0
 12 22  1  0
 13 15  1  0
 14 20  1  0
 15 16  2  0
 15 14  1  0
 17 11  2  0
 18 17  1  0
 18 13  2  0
 19 13  1  0
 19 12  1  0
 20 10  1  0
 22 24  2  0
 23 22  1  0
 23 27  1  0
 25 23  1  0
 26 31  2  0
 26 35  1  0
 27 31  1  0
 28  4  1  0
 29  4  1  0
 30 26  1  0
 31 32  1  0
 32 33  2  0
 34 33  1  0
 35 34  2  0
 36 10  1  0
 36 37  1  0
 36 46  1  0
 37 40  1  0
 38 42  1  0
 38 37  1  0
 39 38  2  0
 42 41  1  0
 42 44  1  0
 44 45  1  0
 44 43  1  0
 46 47  1  1
 46 49  1  0
 48 46  1  0
 53 61  1  0
 54 59  1  0
 55 56  1  0
 55 54  1  0
 57 56  1  0
 57 66  1  0
 57 58  1  0
 59 53  1  0
 59 58  1  0
 60 53  2  0
 61 62  1  0
 63 64  2  0
 64 83  1  0
 65 64  1  0
 65 68  1  0
 66 67  1  0
 66 63  1  0
 67 65  2  0
 68 69  1  0
 69 70  2  0
 71 74  1  0
 71 70  1  0
 72 71  2  0
 73 72  1  0
 73 68  2  0
 74 75  1  0
 75 76  1  0
 76 77  2  0
 78 77  1  0
 78 82  1  0
 79 78  2  0
 80 75  2  0
 80 79  1  0
 81 80  1  0
 83 84  1  0
 84 86  1  0
 84 87  1  0
 85 83  2  0
 88 63  1  0
 88 89  1  0
 90 88  1  0
M  ISO  4   8 101   9 101  53 100  61 100
M  END
>  <TORSDO>  (8) 
F 21

>  <SCORE>  (8) 
-6.388

>  <name>  (8) 
7

>  <ligand_id>  (8) 
7

>  <original_smiles>  (8) 
[H]c1nn(C([H])([H])[H])c(C([H])([H])C([H])([H])C([H])([H])N([H])C(=O)N2C([H])([H])C([H])([H])C([H])([H])C([H])(n3nc(-c4c([H])c([H])c(Oc5c([H])c([H])c(F)c([H])c5F)c([H])c4[H])c(C(=O)N([H])[H])c3N([H])[H])C2([H])[H])c1C([H])([H])C([H])([H])Oc1c([H])c([H])c2c(c1[H])C([H])([H])N(C(=O)C([H])(N([H])C(=O)C([H])(N([H])C([H])([H])[H])C([H])([H])[H])C(C([H])([H])[H])(C([H])([H])[H])C([H])([H])[H])C([H])(C(=O)N([H])C1([H])c3c([H])c([H])c([H])c([H])c3C([H])([H])C([H])([H])C1([H])[H])C2([H])[H]

>  <smiles>  (8) 
[H]c1nn(C([H])([H])[H])c(C([H])([H])C([H])([H])C([H])([H])N([H])C(=O)N2C([H])([H])C([H])([H])C([H])([H])C([H])(n3nc(-c4c([H])c([H])c(Oc5c([H])c([H])c(F)c([H])c5F)c([H])c4[H])c(C(=O)N([H])[H])c3N([H])[H])C2([H])[H])c1C([H])([H])C([H])([H])Oc1c([H])c([H])c2c(c1[H])C([H])([H])N(C(=O)C([H])(N([H])C(=O)C([H])(N([H])C([H])([H])[H])C([H])([H])[H])C(C([H])([H])[H])(C([H])([H])[H])C([H])([H])[H])C([H])(C(=O)N([H])C1([H])c3c([H])c([H])c([H])c([H])c3C([H])([H])C([H])([H])C1([H])[H])C2([H])[H]

$$$$
8:0:0
     RDKit          3D

 94101  0  0  1  0  0  0  0  0999 V2000
  -29.3060  -20.9710   20.4720 N   0  0  0  0  0  4  0  0  0  0  0  0
  -28.4730  -20.8930   19.9130 H   0  0  0  0  0  0  0  0  0  0  0  0
  -29.0200  -20.9530   21.4380 H   0  0  0  0  0  0  0  0  0  0  0  0
  -30.3300  -19.5990   18.6740 C   0  0  0  0  0  1  0  0  0  0  0  0
  -30.1590  -19.7730   20.1980 C   0  0  0  0  0  3  0  0  0  0  0  0
  -29.6030  -18.4780   20.8940 C   0  0  0  0  0  2  0  0  0  0  0  0
  -30.4230  -17.1200   20.8970 C   0  0  0  0  0  3  0  0  0  0  0  0
  -29.3800  -16.2670   18.6550 C   0  0  0  0  0  1  0  0  0  0  0  0
  -29.8020  -15.8950   20.0930 C   0  0  0  0  0  3  0  0  0  0  0  0
  -30.6140  -14.5480   19.9950 C   0  0  0  0  0  0  0  0  0  0  0  0
  -30.2770  -12.3560   18.9370 C   0  0  0  0  0  2  0  0  0  0  0  0
  -29.2720  -12.5500   17.7790 C   0  0  0  0  0  2  0  0  0  0  0  0
  -27.8170  -12.4510   18.2750 C   0  0  0  0  0  2  0  0  0  0  0  0
  -27.5550  -13.2850   19.5580 C   0  0  0  0  0  3  0  0  0  0  0  0
  -28.6690  -13.0740   20.6080 C   0  0  0  0  0  2  0  0  0  0  0  0
  -29.9610  -13.3520   19.9760 N   0  0  0  0  0  0  0  0  0  0  0  0
  -31.7880  -14.6270   19.6280 O   0  0  0  0  0  0  0  0  0  0  0  0
  -25.2130  -13.9090   20.4080 C   0  0  0  0  0  0  0  0  0  0  0  0
  -24.1600  -13.1360   20.8210 C   0  0  0  0  0  0  0  0  0  0  0  0
  -24.6090  -11.7830   20.7500 C   0  0  0  0  0  0  0  0  0  0  0  0
  -26.2350  -13.0200   20.1130 N   0  0  0  0  0  0  0  0  0  0  0  0
  -25.8820  -11.7370   20.3810 N   0  0  0  0  0  0  0  0  0  0  0  0
  -23.8830  -10.5270   20.9600 C   0  0  0  0  0  0  0  0  0  0  0  0
  -24.3380   -9.5580   21.8800 C   0  0  0  0  0  3  0  0  0  0  0  0
  -23.6100   -8.3660   22.0830 C   0  0  0  0  0  3  0  0  0  0  0  0
  -22.4100   -8.1390   21.3660 C   0  0  0  0  0  0  0  0  0  0  0  0
  -21.9770   -9.0940   20.4300 C   0  0  0  0  0  3  0  0  0  0  0  0
  -22.7050  -10.2770   20.2280 C   0  0  0  0  0  3  0  0  0  0  0  0
  -21.6470   -7.0010   21.4820 O   0  0  0  0  0  0  0  0  0  0  0  0
  -21.6170   -6.2720   22.6430 C   0  0  0  0  0  0  0  0  0  0  0  0
  -21.2320   -6.8440   23.8750 C   0  0  0  0  0  3  0  0  0  0  0  0
  -21.1470   -6.0400   25.0280 C   0  0  0  0  0  3  0  0  0  0  0  0
  -21.4340   -4.6640   24.9490 C   0  0  0  0  0  0  0  0  0  0  0  0
  -21.8090   -4.0910   23.7220 C   0  0  0  0  0  3  0  0  0  0  0  0
  -21.8980   -4.8920   22.5720 C   0  0  0  0  0  0  0  0  0  0  0  0
  -22.2400   -4.3310   21.3860 F   0  0  0  0  0  0  0  0  0  0  0  0
  -21.3430   -3.8900   26.0540 F   0  0  0  0  0  0  0  0  0  0  0  0
  -22.7820  -13.6190   21.1670 C   0  0  0  0  0  0  0  0  0  0  0  0
  -22.1010  -12.9250   22.0720 N   0  0  0  0  0  0  0  0  0  0  0  0
  -22.3230  -14.6470   20.6710 O   0  0  0  0  0  0  0  0  0  0  0  0
  -22.4910  -12.0920   22.4890 H   0  0  0  0  0  0  0  0  0  0  0  0
  -21.1790  -13.2250   22.3490 H   0  0  0  0  0  0  0  0  0  0  0  0
  -25.3680  -15.2820   20.2390 N   0  0  0  0  0  0  0  0  0  0  0  0
  -24.5890  -15.9150   20.3780 H   0  0  0  0  0  0  0  0  0  0  0  0
  -26.1920  -15.7530   19.8850 H   0  0  0  0  0  0  0  0  0  0  0  0
  -31.9690  -17.2590   21.0090 C   0  0  0  0  0  2  0  0  0  0  0  0
  -32.7710  -17.7200   19.7750 C   0  0  0  0  0  2  0  0  0  0  0  0
  -34.1530  -17.5680   20.0400 O   0  0  0  0  0  0  0  0  0  0  0  0
  -34.3630  -18.0830   20.8140 H   0  0  0  0  0  0  0  0  0  0  0  0
  -29.9240  -22.3070   20.2150 C   0  0  0  0  0  2  0  0  0  0  0  0
  -28.8860  -23.4570   20.0840 C   0  0  0  0  0  2  0  0  0  0  0  0
  -29.4960  -24.7740   19.5330 C   0  0  0  0  0  2  0  0  0  0  0  0
  -28.4790  -25.8610   19.1030 C   0  0  0  0  0  2  0  0  0  0  0  0
  -28.1710  -26.7480   20.1880 O   0  0  0  0  0  0  0  0  0  0  0  0
  -24.4930  -32.0020   23.2700 C   0  0  0  0  0  0  0  0  0  0  0  0
  -27.0020  -27.4850   20.1600 C   0  0  0  0  0  0  0  0  0  0  0  0
  -23.2310  -30.6060   21.6670 C   0  0  0  0  0  3  0  0  0  0  0  0
  -24.6280  -29.0310   20.2250 C   0  0  0  0  0  0  0  0  0  0  0  0
  -25.7570  -30.9150   21.4170 C   0  0  0  0  0  2  0  0  0  0  0  0
  -25.8060  -29.5370   20.7880 C   0  0  0  0  0  0  0  0  0  0  0  0
  -26.9900  -28.7650   20.7630 C   0  0  0  0  0  3  0  0  0  0  0  0
  -25.7970  -26.9910   19.6060 C   0  0  0  0  0  3  0  0  0  0  0  0
  -24.6190  -27.7570   19.6360 C   0  0  0  0  0  3  0  0  0  0  0  0
  -23.3950  -29.9040   20.2930 C   0  0  0  0  0  2  0  0  0  0  0  0
  -24.5140  -31.1900   22.1760 N   0  0  0  0  0  0  0  0  0  0  0  0
  -23.4270  -32.2980   23.8270 O   0  0  0  0  0  0  0  0  0  0  0  0
  -22.5810  -29.6070   22.6510 C   0  0  0  0  0  0  0  0  0  0  0  0
  -21.2580  -29.4200   22.5240 N   0  0  0  0  0  0  0  0  0  0  0  0
  -23.2650  -29.0020   23.4810 O   0  0  0  0  0  0  0  0  0  0  0  0
  -20.7700  -29.9500   21.8150 H   0  0  0  0  0  0  0  0  0  0  0  0
  -17.8940  -28.2010   23.0100 C   0  0  0  0  0  0  0  0  0  0  0  0
  -20.4420  -28.5010   23.3140 C   0  0  0  0  0  3  0  0  0  0  0  0
  -20.5750  -27.0540   22.7880 C   0  0  0  0  0  2  0  0  0  0  0  0
  -19.4930  -26.6810   21.7690 C   0  0  0  0  0  2  0  0  0  0  0  0
  -18.0980  -26.8310   22.3840 C   0  0  0  0  0  2  0  0  0  0  0  0
  -18.9950  -28.9920   23.4310 C   0  0  0  0  0  0  0  0  0  0  0  0
  -18.7510  -30.2730   23.9720 C   0  0  0  0  0  3  0  0  0  0  0  0
  -17.4380  -30.7620   24.0990 C   0  0  0  0  0  3  0  0  0  0  0  0
  -16.3510  -29.9690   23.6960 C   0  0  0  0  0  3  0  0  0  0  0  0
  -16.5790  -28.6910   23.1550 C   0  0  0  0  0  3  0  0  0  0  0  0
  -25.8010  -32.6150   23.8610 C   0  0  0  0  0  3  0  0  0  0  0  0
  -26.3360  -31.8390   25.1260 C   0  0  1  0  0  0  0  0  0  0  0  0
  -25.2630  -31.6160   26.2180 C   0  0  0  0  0  1  0  0  0  0  0  0
  -26.8920  -30.4530   24.7220 C   0  0  0  0  0  1  0  0  0  0  0  0
  -27.5110  -32.6190   25.7610 C   0  0  0  0  0  1  0  0  0  0  0  0
  -25.5210  -34.0180   24.1920 N   0  0  0  0  0  0  0  0  0  0  0  0
  -25.8590  -35.0630   23.4240 C   0  0  0  0  0  0  0  0  0  0  0  0
  -26.5120  -34.9460   22.3840 O   0  0  0  0  0  0  0  0  0  0  0  0
  -24.9420  -34.1830   25.0020 H   0  0  0  0  0  0  0  0  0  0  0  0
  -24.1530  -36.8790   23.0910 C   0  0  0  0  0  1  0  0  0  0  0  0
  -25.4010  -36.4590   23.8850 C   0  0  0  0  0  3  0  0  0  0  0  0
  -27.5630  -37.3080   24.6760 C   0  0  0  0  0  1  0  0  0  0  0  0
  -26.4470  -37.4960   23.7540 N   0  0  0  0  0  0  0  0  0  0  0  0
  -26.0570  -38.4220   23.9120 H   0  0  0  0  0  0  0  0  0  0  0  0
  1  3  1  0
  2  1  1  0
  5  4  1  0
  5  1  1  0
  5  6  1  0
  7  6  1  0
  7 46  1  0
  9  8  1  0
  9  7  1  0
 10  9  1  0
 11 16  1  0
 12 13  1  0
 12 11  1  0
 14 13  1  0
 14 21  1  0
 14 15  1  0
 16 10  1  0
 16 15  1  0
 17 10  2  0
 18 19  2  0
 19 38  1  0
 20 19  1  0
 20 23  1  0
 21 22  1  0
 21 18  1  0
 22 20  2  0
 23 24  1  0
 24 25  2  0
 26 29  1  0
 26 25  1  0
 27 26  2  0
 28 27  1  0
 28 23  2  0
 29 30  1  0
 30 31  1  0
 31 32  2  0
 33 32  1  0
 33 37  1  0
 34 33  2  0
 35 30  2  0
 35 34  1  0
 36 35  1  0
 38 39  1  0
 39 42  1  0
 39 41  1  0
 40 38  2  0
 43 44  1  0
 43 18  1  0
 45 43  1  0
 47 48  1  0
 47 46  1  0
 48 49  1  0
 50  1  1  0
 51 50  1  0
 52 51  1  0
 53 52  1  0
 53 54  1  0
 55 66  2  0
 56 54  1  0
 56 61  1  0
 57 65  1  0
 57 67  1  0
 58 64  1  0
 58 60  1  0
 59 65  1  0
 60 59  1  0
 61 60  2  0
 62 63  1  0
 62 56  2  0
 63 58  2  0
 64 57  1  0
 65 55  1  0
 67 69  2  0
 68 67  1  0
 70 68  1  0
 71 80  2  0
 71 76  1  0
 72 68  1  0
 72 76  1  0
 73 72  1  0
 74 75  1  0
 74 73  1  0
 75 71  1  0
 76 77  2  0
 77 78  1  0
 79 78  2  0
 80 79  1  0
 81 55  1  0
 81 86  1  0
 81 82  1  0
 82 85  1  1
 82 83  1  0
 84 82  1  0
 86 89  1  0
 87 91  1  0
 87 86  1  0
 88 87  2  0
 91 90  1  0
 93 91  1  0
 93 94  1  0
 93 92  1  0
M  ISO  4   9 100  10 100  53 101  54 101
M  END
>  <TORSDO>  (9) 
F 27

>  <SCORE>  (9) 
-11.344

>  <name>  (9) 
8

>  <ligand_id>  (9) 
8

>  <original_smiles>  (9) 
[H]OC([H])([H])C([H])([H])C([H])(C([H])([H])C([H])(C([H])([H])[H])[N+]([H])([H])C([H])([H])C([H])([H])C([H])([H])C([H])([H])Oc1c([H])c([H])c2c(c1[H])C([H])([H])N(C(=O)C([H])(N([H])C(=O)C([H])(N([H])C([H])([H])[H])C([H])([H])[H])C(C([H])([H])[H])(C([H])([H])[H])C([H])([H])[H])C([H])(C(=O)N([H])C1([H])c3c([H])c([H])c([H])c([H])c3C([H])([H])C([H])([H])C1([H])[H])C2([H])[H])C([H])(C(=O)N1C([H])([H])C([H])([H])C([H])([H])C([H])(n2nc(-c3c([H])c([H])c(Oc4c([H])c([H])c(F)c([H])c4F)c([H])c3[H])c(C(=O)N([H])[H])c2N([H])[H])C1([H])[H])C([H])([H])[H]

>  <smiles>  (9) 
[H]OC([H])([H])C([H])([H])C([H])(C([H])([H])C([H])(C([H])([H])[H])[N+]([H])([H])C([H])([H])C([H])([H])C([H])([H])C([H])([H])Oc1c([H])c([H])c2c(c1[H])C([H])([H])N(C(=O)C([H])(N([H])C(=O)C([H])(N([H])C([H])([H])[H])C([H])([H])[H])C(C([H])([H])[H])(C([H])([H])[H])C([H])([H])[H])C([H])(C(=O)N([H])C1([H])c3c([H])c([H])c([H])c([H])c3C([H])([H])C([H])([H])C1([H])[H])C2([H])[H])C([H])(C(=O)N1C([H])([H])C([H])([H])C([H])([H])C([H])(n2nc(-c3c([H])c([H])c(Oc4c([H])c([H])c(F)c([H])c4F)c([H])c3[H])c(C(=O)N([H])[H])c2N([H])[H])C1([H])[H])C([H])([H])[H]

$$$$
9:0:0
     RDKit          3D

 90 98  0  0  1  0  0  0  0  0999 V2000
  -29.0650  -20.9690   22.0290 C   0  0  0  0  0  3  0  0  0  0  0  0
  -28.8190  -23.2640   22.0270 C   0  0  0  0  0  3  0  0  0  0  0  0
  -29.7190  -21.0260   20.7720 C   0  0  0  0  0  0  0  0  0  0  0  0
  -29.4690  -23.3490   20.7730 C   0  0  0  0  0  0  0  0  0  0  0  0
  -28.6120  -22.0820   22.6560 N   0  0  0  0  0  0  0  0  0  0  0  0
  -29.9140  -22.2230   20.1400 N   0  0  0  0  0  0  0  0  0  0  0  0
  -30.2370  -19.7660   20.0560 C   0  0  0  0  0  2  0  0  0  0  0  0
  -30.0900  -18.3880   20.7780 C   0  0  0  0  0  2  0  0  0  0  0  0
  -30.6680  -17.2170   19.9330 C   0  0  0  0  0  2  0  0  0  0  0  0
  -31.0600  -14.7630   19.9920 C   0  0  0  0  0  0  0  0  0  0  0  0
  -30.6900  -12.5680   18.9330 C   0  0  0  0  0  2  0  0  0  0  0  0
  -29.7150  -12.7600   17.7520 C   0  0  0  0  0  2  0  0  0  0  0  0
  -28.2520  -12.6540   18.2300 C   0  0  0  0  0  2  0  0  0  0  0  0
  -27.9690  -13.5180   19.4880 C   0  0  0  0  0  3  0  0  0  0  0  0
  -29.0610  -13.3250   20.5670 C   0  0  0  0  0  2  0  0  0  0  0  0
  -30.3690  -13.5900   19.9450 N   0  0  0  0  0  0  0  0  0  0  0  0
  -32.1770  -14.8960   19.4830 O   0  0  0  0  0  0  0  0  0  0  0  0
  -30.3750  -15.8470   20.4150 N   0  0  0  0  0  0  0  0  0  0  0  0
  -29.4740  -15.6750   20.8370 H   0  0  0  0  0  0  0  0  0  0  0  0
  -25.6130  -14.1680   20.2920 C   0  0  0  0  0  0  0  0  0  0  0  0
  -24.5440  -13.4160   20.6950 C   0  0  0  0  0  0  0  0  0  0  0  0
  -24.9750  -12.0550   20.6380 C   0  0  0  0  0  0  0  0  0  0  0  0
  -26.6300  -13.2680   20.0160 N   0  0  0  0  0  0  0  0  0  0  0  0
  -26.2510  -11.9920   20.2790 N   0  0  0  0  0  0  0  0  0  0  0  0
  -24.2310  -10.8080   20.8520 C   0  0  0  0  0  0  0  0  0  0  0  0
  -24.6440   -9.8540   21.8080 C   0  0  0  0  0  3  0  0  0  0  0  0
  -23.8990   -8.6710   22.0080 C   0  0  0  0  0  3  0  0  0  0  0  0
  -22.7270   -8.4350   21.2510 C   0  0  0  0  0  0  0  0  0  0  0  0
  -22.3340   -9.3770   20.2850 C   0  0  0  0  0  3  0  0  0  0  0  0
  -23.0780  -10.5510   20.0840 C   0  0  0  0  0  3  0  0  0  0  0  0
  -21.9570   -7.3030   21.3570 O   0  0  0  0  0  0  0  0  0  0  0  0
  -21.8570   -6.6080   22.5360 C   0  0  0  0  0  0  0  0  0  0  0  0
  -21.3500   -7.2020   23.7120 C   0  0  0  0  0  3  0  0  0  0  0  0
  -21.1990   -6.4300   24.8820 C   0  0  0  0  0  3  0  0  0  0  0  0
  -21.5470   -5.0670   24.8770 C   0  0  0  0  0  0  0  0  0  0  0  0
  -22.0480   -4.4730   23.7060 C   0  0  0  0  0  3  0  0  0  0  0  0
  -22.2000   -5.2410   22.5390 C   0  0  0  0  0  0  0  0  0  0  0  0
  -22.6630   -4.6570   21.4080 F   0  0  0  0  0  0  0  0  0  0  0  0
  -21.3960   -4.3250   26.0000 F   0  0  0  0  0  0  0  0  0  0  0  0
  -23.1690  -13.9200   21.0280 C   0  0  0  0  0  0  0  0  0  0  0  0
  -22.4650  -13.2350   21.9210 N   0  0  0  0  0  0  0  0  0  0  0  0
  -22.7310  -14.9570   20.5310 O   0  0  0  0  0  0  0  0  0  0  0  0
  -22.8390  -12.3990   22.3450 H   0  0  0  0  0  0  0  0  0  0  0  0
  -21.5430  -13.5530   22.1870 H   0  0  0  0  0  0  0  0  0  0  0  0
  -25.8020  -15.5360   20.1180 N   0  0  0  0  0  0  0  0  0  0  0  0
  -25.0570  -16.2070   20.2650 H   0  0  0  0  0  0  0  0  0  0  0  0
  -26.6510  -15.9600   19.7680 H   0  0  0  0  0  0  0  0  0  0  0  0
  -29.7120  -24.7270   20.1300 C   0  0  0  0  0  2  0  0  0  0  0  0
  -28.4270  -25.4660   19.6730 C   0  0  0  0  0  2  0  0  0  0  0  0
  -28.5740  -26.9030   19.5540 O   0  0  0  0  0  0  0  0  0  0  0  0
  -24.6420  -31.7050   23.0640 C   0  0  0  0  0  0  0  0  0  0  0  0
  -27.3930  -27.6270   19.5870 C   0  0  0  0  0  0  0  0  0  0  0  0
  -23.4600  -30.3980   21.3310 C   0  0  0  0  0  3  0  0  0  0  0  0
  -24.9470  -29.0500   19.7590 C   0  0  0  0  0  0  0  0  0  0  0  0
  -25.9700  -30.8740   21.1240 C   0  0  0  0  0  2  0  0  0  0  0  0
  -26.0990  -29.5680   20.3630 C   0  0  0  0  0  0  0  0  0  0  0  0
  -27.3290  -28.8700   20.2670 C   0  0  0  0  0  3  0  0  0  0  0  0
  -26.2200  -27.1350   18.9710 C   0  0  0  0  0  3  0  0  0  0  0  0
  -25.0030  -27.8350   19.0580 C   0  0  0  0  0  3  0  0  0  0  0  0
  -23.6710  -29.8500   19.8960 C   0  0  0  0  0  2  0  0  0  0  0  0
  -24.7100  -31.0030   21.8980 N   0  0  0  0  0  0  0  0  0  0  0  0
  -23.5600  -31.8850   23.6420 O   0  0  0  0  0  0  0  0  0  0  0  0
  -22.8700  -29.2730   22.2100 C   0  0  0  0  0  0  0  0  0  0  0  0
  -21.5500  -29.0530   22.0950 N   0  0  0  0  0  0  0  0  0  0  0  0
  -23.5940  -28.6050   22.9530 O   0  0  0  0  0  0  0  0  0  0  0  0
  -21.0230  -29.6480   21.4710 H   0  0  0  0  0  0  0  0  0  0  0  0
  -18.2270  -27.7190   22.5840 C   0  0  0  0  0  0  0  0  0  0  0  0
  -20.7840  -28.0240   22.7980 C   0  0  0  0  0  3  0  0  0  0  0  0
  -20.9040  -26.6570   22.0840 C   0  0  0  0  0  2  0  0  0  0  0  0
  -19.7770  -26.4010   21.0790 C   0  0  0  0  0  2  0  0  0  0  0  0
  -18.4140  -26.4450   21.7770 C   0  0  0  0  0  2  0  0  0  0  0  0
  -19.3380  -28.4690   23.0490 C   0  0  0  0  0  0  0  0  0  0  0  0
  -19.1080  -29.6650   23.7640 C   0  0  0  0  0  3  0  0  0  0  0  0
  -17.7970  -30.1100   24.0180 C   0  0  0  0  0  3  0  0  0  0  0  0
  -16.6990  -29.3560   23.5680 C   0  0  0  0  0  3  0  0  0  0  0  0
  -16.9150  -28.1620   22.8570 C   0  0  0  0  0  3  0  0  0  0  0  0
  -25.9120  -32.3370   23.7140 C   0  0  0  0  0  3  0  0  0  0  0  0
  -25.5720  -33.7100   24.1070 N   0  0  0  0  0  0  0  0  0  0  0  0
  -25.8770  -34.8030   23.3950 C   0  0  0  0  0  0  0  0  0  0  0  0
  -26.5440  -34.7620   22.3580 O   0  0  0  0  0  0  0  0  0  0  0  0
  -24.9810  -33.8150   24.9200 H   0  0  0  0  0  0  0  0  0  0  0  0
  -24.0990  -36.5620   23.1360 C   0  0  0  0  0  1  0  0  0  0  0  0
  -25.3590  -36.1570   23.9170 C   0  0  0  0  0  3  0  0  0  0  0  0
  -27.4720  -37.0680   24.7750 C   0  0  0  0  0  1  0  0  0  0  0  0
  -26.3620  -37.2410   23.8400 N   0  0  0  0  0  0  0  0  0  0  0  0
  -25.9320  -38.1440   24.0240 H   0  0  0  0  0  0  0  0  0  0  0  0
  -26.4500  -31.5180   24.9500 C   0  0  1  0  0  0  0  0  0  0  0  0
  -25.3660  -31.2040   26.0070 C   0  0  0  0  0  1  0  0  0  0  0  0
  -27.0640  -30.1750   24.4890 C   0  0  0  0  0  1  0  0  0  0  0  0
  -27.5830  -32.3060   25.6490 C   0  0  0  0  0  1  0  0  0  0  0  0
  1  5  1  0
  2  5  2  0
  3  1  2  0
  4  2  1  0
  6  3  1  0
  6  4  2  0
  7  3  1  0
  7  8  1  0
  9 18  1  0
  9  8  1  0
 10 18  1  0
 11 16  1  0
 12 13  1  0
 12 11  1  0
 14 13  1  0
 14 23  1  0
 14 15  1  0
 16 10  1  0
 16 15  1  0
 17 10  2  0
 18 19  1  0
 20 21  2  0
 21 40  1  0
 22 21  1  0
 22 25  1  0
 23 24  1  0
 23 20  1  0
 24 22  2  0
 25 26  1  0
 26 27  2  0
 28 31  1  0
 28 27  1  0
 29 28  2  0
 30 29  1  0
 30 25  2  0
 31 32  1  0
 32 37  2  0
 32 33  1  0
 33 34  2  0
 35 34  1  0
 35 39  1  0
 36 35  2  0
 37 36  1  0
 38 37  1  0
 40 41  1  0
 41 44  1  0
 41 43  1  0
 42 40  2  0
 45 46  1  0
 45 20  1  0
 47 45  1  0
 48  4  1  0
 49 48  1  0
 50 52  1  0
 50 49  1  0
 51 62  2  0
 52 57  1  0
 53 61  1  0
 53 63  1  0
 54 60  1  0
 54 56  1  0
 55 61  1  0
 56 55  1  0
 57 56  2  0
 58 59  1  0
 58 52  2  0
 59 54  2  0
 60 53  1  0
 61 51  1  0
 63 65  2  0
 64 63  1  0
 66 64  1  0
 67 76  2  0
 67 72  1  0
 68 64  1  0
 68 72  1  0
 69 68  1  0
 70 71  1  0
 70 69  1  0
 71 67  1  0
 72 73  2  0
 73 74  1  0
 75 74  2  0
 76 75  1  0
 77 51  1  0
 77 78  1  0
 77 87  1  0
 78 81  1  0
 79 83  1  0
 79 78  1  0
 80 79  2  0
 83 82  1  0
 85 83  1  0
 85 86  1  0
 85 84  1  0
 87 90  1  1
 87 88  1  0
 89 87  1  0
M  ISO  4  10 100  18 100  49 101  50 101
M  END
>  <TORSDO>  (10) 
F 21

>  <SCORE>  (10) 
-11.915

>  <name>  (10) 
9

>  <ligand_id>  (10) 
9

>  <original_smiles>  (10) 
[H]c1nc([H])c(C([H])([H])C([H])([H])C([H])([H])N([H])C(=O)N2C([H])([H])C([H])([H])C([H])([H])C([H])(n3nc(-c4c([H])c([H])c(Oc5c([H])c([H])c(F)c([H])c5F)c([H])c4[H])c(C(=O)N([H])[H])c3N([H])[H])C2([H])[H])nc1C([H])([H])C([H])([H])Oc1c([H])c([H])c2c(c1[H])C([H])([H])N(C(=O)C([H])(N([H])C(=O)C([H])(N([H])C([H])([H])[H])C([H])([H])[H])C(C([H])([H])[H])(C([H])([H])[H])C([H])([H])[H])C([H])(C(=O)N([H])C1([H])c3c([H])c([H])c([H])c([H])c3C([H])([H])C([H])([H])C1([H])[H])C2([H])[H]

>  <smiles>  (10) 
[H]c1nc([H])c(C([H])([H])C([H])([H])C([H])([H])N([H])C(=O)N2C([H])([H])C([H])([H])C([H])([H])C([H])(n3nc(-c4c([H])c([H])c(Oc5c([H])c([H])c(F)c([H])c5F)c([H])c4[H])c(C(=O)N([H])[H])c3N([H])[H])C2([H])[H])nc1C([H])([H])C([H])([H])Oc1c([H])c([H])c2c(c1[H])C([H])([H])N(C(=O)C([H])(N([H])C(=O)C([H])(N([H])C([H])([H])[H])C([H])([H])[H])C(C([H])([H])[H])(C([H])([H])[H])C([H])([H])[H])C([H])(C(=O)N([H])C1([H])c3c([H])c([H])c([H])c([H])c3C([H])([H])C([H])([H])C1([H])[H])C2([H])[H]

$$$$
10:0:0
     RDKit          3D

 96104  0  0  1  0  0  0  0  0999 V2000
  -28.7460  -23.0050   19.2010 C   0  0  0  0  0  3  0  0  0  0  0  0
  -28.6750  -24.3680   19.4410 C   0  0  0  0  0  0  0  0  0  0  0  0
  -28.6850  -23.2690   21.3980 C   0  0  0  0  0  3  0  0  0  0  0  0
  -28.7350  -22.3460   20.4150 N   0  0  0  0  0  0  0  0  0  0  0  0
  -28.6470  -24.4720   20.8050 N   0  0  0  0  0  0  0  0  0  0  0  0
  -28.5740  -25.3510   21.3020 H   0  0  0  0  0  0  0  0  0  0  0  0
  -28.6290  -25.5700   18.5050 C   0  0  0  0  0  2  0  0  0  0  0  0
  -28.5150  -26.8780   19.1190 O   0  0  0  0  0  0  0  0  0  0  0  0
  -24.6430  -31.5820   22.8480 C   0  0  0  0  0  0  0  0  0  0  0  0
  -27.2940  -27.5290   19.2320 C   0  0  0  0  0  0  0  0  0  0  0  0
  -23.4000  -30.2440   21.1840 C   0  0  0  0  0  3  0  0  0  0  0  0
  -24.8260  -28.9050   19.5400 C   0  0  0  0  0  0  0  0  0  0  0  0
  -25.8860  -30.7550   20.8480 C   0  0  0  0  0  2  0  0  0  0  0  0
  -25.9950  -29.4430   20.0900 C   0  0  0  0  0  0  0  0  0  0  0  0
  -27.2270  -28.7620   19.9350 C   0  0  0  0  0  3  0  0  0  0  0  0
  -26.0970  -27.0060   18.6890 C   0  0  0  0  0  3  0  0  0  0  0  0
  -24.8730  -27.6870   18.8400 C   0  0  0  0  0  3  0  0  0  0  0  0
  -23.5460  -29.6870   19.7430 C   0  0  0  0  0  2  0  0  0  0  0  0
  -24.6650  -30.8720   21.6830 N   0  0  0  0  0  0  0  0  0  0  0  0
  -23.5890  -31.7460   23.4790 O   0  0  0  0  0  0  0  0  0  0  0  0
  -22.8750  -29.1140   22.0990 C   0  0  0  0  0  0  0  0  0  0  0  0
  -21.5600  -28.8440   22.0270 N   0  0  0  0  0  0  0  0  0  0  0  0
  -23.6450  -28.4830   22.8290 O   0  0  0  0  0  0  0  0  0  0  0  0
  -20.9930  -29.4130   21.4130 H   0  0  0  0  0  0  0  0  0  0  0  0
  -18.3200  -27.3360   22.5670 C   0  0  0  0  0  0  0  0  0  0  0  0
  -20.8550  -27.7980   22.7670 C   0  0  0  0  0  3  0  0  0  0  0  0
  -21.0580  -26.4140   22.1090 C   0  0  0  0  0  2  0  0  0  0  0  0
  -19.9490  -26.0540   21.1150 C   0  0  0  0  0  2  0  0  0  0  0  0
  -18.5850  -26.0450   21.8130 C   0  0  0  0  0  2  0  0  0  0  0  0
  -19.3870  -28.1660   23.0030 C   0  0  0  0  0  0  0  0  0  0  0  0
  -19.0860  -29.3700   23.6760 C   0  0  0  0  0  3  0  0  0  0  0  0
  -17.7510  -29.7480   23.9120 C   0  0  0  0  0  3  0  0  0  0  0  0
  -16.6990  -28.9150   23.4910 C   0  0  0  0  0  3  0  0  0  0  0  0
  -16.9850  -27.7110   22.8250 C   0  0  0  0  0  3  0  0  0  0  0  0
  -25.9320  -32.2390   23.4310 C   0  0  0  0  0  3  0  0  0  0  0  0
  -25.5550  -33.5560   23.9640 N   0  0  0  0  0  0  0  0  0  0  0  0
  -25.7670  -34.7200   23.3360 C   0  0  0  0  0  0  0  0  0  0  0  0
  -26.3730  -34.8010   22.2630 O   0  0  0  0  0  0  0  0  0  0  0  0
  -25.0070  -33.5600   24.8110 H   0  0  0  0  0  0  0  0  0  0  0  0
  -23.9120  -36.4190   23.3180 C   0  0  0  0  0  1  0  0  0  0  0  0
  -25.2210  -35.9970   24.0040 C   0  0  0  0  0  3  0  0  0  0  0  0
  -27.3430  -36.9100   24.8390 C   0  0  0  0  0  1  0  0  0  0  0  0
  -26.1780  -37.1260   23.9850 N   0  0  0  0  0  0  0  0  0  0  0  0
  -25.7270  -37.9900   24.2750 H   0  0  0  0  0  0  0  0  0  0  0  0
  -26.6260  -31.3660   24.5470 C   0  0  1  0  0  0  0  0  0  0  0  0
  -25.6650  -30.9110   25.6710 C   0  0  0  0  0  1  0  0  0  0  0  0
  -27.2630  -30.0990   23.9300 C   0  0  0  0  0  1  0  0  0  0  0  0
  -27.7770  -32.1670   25.1990 C   0  0  0  0  0  1  0  0  0  0  0  0
  -28.6080  -23.0200   22.8790 C   0  0  0  0  0  2  0  0  0  0  0  0
  -28.8940  -24.2320   23.7920 C   0  0  0  0  0  2  0  0  0  0  0  0
  -28.2220  -26.5180   24.6870 C   0  0  0  0  0  1  0  0  0  0  0  0
  -27.8660  -25.3790   23.7220 C   0  0  0  0  0  2  0  0  0  0  0  0
  -28.6240  -20.8700   20.6720 C   0  0  0  0  0  3  0  0  0  0  0  0
  -29.8490  -19.9350   20.3590 C   0  0  0  0  0  3  0  0  0  0  0  0
  -28.3340  -17.9570   21.0600 C   0  0  0  0  0  1  0  0  0  0  0  0
  -30.4170  -18.4250   22.3280 C   0  0  0  0  0  1  0  0  0  0  0  0
  -29.7910  -18.4450   20.9210 C   0  0  2  0  0  0  0  0  0  0  0  0
  -30.5810  -17.3980   20.0330 C   0  0  0  0  0  2  0  0  0  0  0  0
  -31.1180  -14.9050   20.0750 C   0  0  0  0  0  0  0  0  0  0  0  0
  -30.7970  -12.6920   19.0340 C   0  0  0  0  0  2  0  0  0  0  0  0
  -29.8070  -12.8660   17.8610 C   0  0  0  0  0  2  0  0  0  0  0  0
  -28.3470  -12.7590   18.3460 C   0  0  0  0  0  2  0  0  0  0  0  0
  -28.0640  -13.6160   19.6110 C   0  0  0  0  0  3  0  0  0  0  0  0
  -29.1660  -13.4200   20.6800 C   0  0  0  0  0  2  0  0  0  0  0  0
  -30.4650  -13.7070   20.0470 N   0  0  0  0  0  0  0  0  0  0  0  0
  -32.2570  -15.0530   19.6260 O   0  0  0  0  0  0  0  0  0  0  0  0
  -30.3490  -15.9720   20.3880 N   0  0  0  0  0  0  0  0  0  0  0  0
  -29.4240  -15.7430   20.7190 H   0  0  0  0  0  0  0  0  0  0  0  0
  -25.7170  -14.2580   20.4530 C   0  0  0  0  0  0  0  0  0  0  0  0
  -24.6460  -13.5050   20.8490 C   0  0  0  0  0  0  0  0  0  0  0  0
  -25.0640  -12.1440   20.7450 C   0  0  0  0  0  0  0  0  0  0  0  0
  -26.7270  -13.3600   20.1450 N   0  0  0  0  0  0  0  0  0  0  0  0
  -26.3380  -12.0790   20.3760 N   0  0  0  0  0  0  0  0  0  0  0  0
  -24.3080  -10.8990   20.9230 C   0  0  0  0  0  0  0  0  0  0  0  0
  -24.7170   -9.9120   21.8460 C   0  0  0  0  0  3  0  0  0  0  0  0
  -23.9600   -8.7330   22.0160 C   0  0  0  0  0  3  0  0  0  0  0  0
  -22.7830   -8.5310   21.2590 C   0  0  0  0  0  0  0  0  0  0  0  0
  -22.3890   -9.5080   20.3260 C   0  0  0  0  0  3  0  0  0  0  0  0
  -23.1470  -10.6800   20.1560 C   0  0  0  0  0  3  0  0  0  0  0  0
  -22.0030   -7.4000   21.3350 O   0  0  0  0  0  0  0  0  0  0  0  0
  -21.8720   -6.6930   22.5020 C   0  0  0  0  0  0  0  0  0  0  0  0
  -21.4060   -7.2960   23.6920 C   0  0  0  0  0  3  0  0  0  0  0  0
  -21.2180   -6.5150   24.8500 C   0  0  0  0  0  3  0  0  0  0  0  0
  -21.4920   -5.1340   24.8210 C   0  0  0  0  0  0  0  0  0  0  0  0
  -21.9550   -4.5330   23.6380 C   0  0  0  0  0  3  0  0  0  0  0  0
  -22.1410   -5.3080   22.4820 C   0  0  0  0  0  0  0  0  0  0  0  0
  -22.5640   -4.7180   21.3370 F   0  0  0  0  0  0  0  0  0  0  0  0
  -21.3040   -4.3850   25.9320 F   0  0  0  0  0  0  0  0  0  0  0  0
  -23.2780  -14.0150   21.1970 C   0  0  0  0  0  0  0  0  0  0  0  0
  -22.5770  -13.3220   22.0890 N   0  0  0  0  0  0  0  0  0  0  0  0
  -22.8410  -15.0580   20.7150 O   0  0  0  0  0  0  0  0  0  0  0  0
  -22.9440  -12.4760   22.5000 H   0  0  0  0  0  0  0  0  0  0  0  0
  -21.6630  -13.6510   22.3680 H   0  0  0  0  0  0  0  0  0  0  0  0
  -25.8950  -15.6280   20.3060 N   0  0  0  0  0  0  0  0  0  0  0  0
  -25.1480  -16.2850   20.5090 H   0  0  0  0  0  0  0  0  0  0  0  0
  -26.7100  -16.0740   19.9060 H   0  0  0  0  0  0  0  0  0  0  0  0
  1  2  2  0
  1  4  1  0
  2  5  1  0
  3 49  1  0
  4 53  1  0
  4  3  1  0
  5  6  1  0
  5  3  1  0
  7  8  1  0
  7  2  1  0
  8 10  1  0
  9 20  2  0
 10 15  1  0
 11 19  1  0
 11 21  1  0
 12 18  1  0
 12 14  1  0
 13 19  1  0
 14 13  1  0
 15 14  2  0
 16 17  1  0
 16 10  2  0
 17 12  2  0
 18 11  1  0
 19  9  1  0
 21 23  2  0
 22 21  1  0
 24 22  1  0
 25 34  2  0
 25 30  1  0
 26 22  1  0
 26 30  1  0
 27 26  1  0
 28 29  1  0
 28 27  1  0
 29 25  1  0
 30 31  2  0
 31 32  1  0
 33 32  2  0
 34 33  1  0
 35  9  1  0
 35 36  1  0
 35 45  1  0
 36 39  1  0
 37 36  1  0
 37 41  1  0
 38 37  2  0
 41 40  1  0
 43 41  1  0
 43 44  1  0
 43 42  1  0
 45 48  1  1
 45 46  1  0
 47 45  1  0
 49 50  1  0
 52 50  1  0
 52 51  1  0
 54 53  2  0
 54 57  1  0
 57 55  1  1
 57 56  1  0
 58 67  1  0
 58 57  1  0
 59 67  1  0
 60 65  1  0
 61 62  1  0
 61 60  1  0
 63 62  1  0
 63 72  1  0
 63 64  1  0
 65 59  1  0
 65 64  1  0
 66 59  2  0
 67 68  1  0
 69 70  2  0
 70 89  1  0
 71 70  1  0
 71 74  1  0
 72 73  1  0
 72 69  1  0
 73 71  2  0
 74 75  1  0
 75 76  2  0
 77 80  1  0
 77 76  1  0
 78 77  2  0
 79 78  1  0
 79 74  2  0
 80 81  1  0
 81 82  1  0
 82 83  2  0
 84 83  1  0
 84 88  1  0
 85 84  2  0
 86 81  2  0
 86 85  1  0
 87 86  1  0
 89 90  1  0
 90 93  1  0
 90 92  1  0
 91 89  2  0
 94 69  1  0
 94 95  1  0
 96 94  1  0
M  ISO  4   7 101   8 101  59 100  67 100
M  END
>  <TORSDO>  (11) 
F 24

>  <SCORE>  (11) 
-9.172

>  <name>  (11) 
10

>  <ligand_id>  (11) 
10

>  <original_smiles>  (11) 
[H]c1c([H])c([H])c2c(c1[H])C([H])([H])C([H])([H])C([H])([H])C2([H])N([H])C(=O)C1([H])N(C(=O)C([H])(N([H])C(=O)C([H])(N([H])C([H])([H])[H])C([H])([H])[H])C(C([H])([H])[H])(C([H])([H])[H])C([H])([H])[H])C([H])([H])c2c([H])c(OC([H])([H])c3c([H])n(C([H])([H])C([H])([H])C(C([H])([H])[H])(C([H])([H])[H])C([H])([H])N([H])C(=O)N4C([H])([H])C([H])([H])C([H])([H])C([H])(n5nc(-c6c([H])c([H])c(Oc7c([H])c([H])c(F)c([H])c7F)c([H])c6[H])c(C(=O)N([H])[H])c5N([H])[H])C4([H])[H])c(C([H])([H])C([H])([H])C([H])([H])C([H])([H])[H])[n+]3[H])c([H])c([H])c2C1([H])[H]

>  <smiles>  (11) 
[H]c1c([H])c([H])c2c(c1[H])C([H])([H])C([H])([H])C([H])([H])C2([H])N([H])C(=O)C1([H])N(C(=O)C([H])(N([H])C(=O)C([H])(N([H])C([H])([H])[H])C([H])([H])[H])C(C([H])([H])[H])(C([H])([H])[H])C([H])([H])[H])C([H])([H])c2c([H])c(OC([H])([H])c3c([H])n(C([H])([H])C([H])([H])C(C([H])([H])[H])(C([H])([H])[H])C([H])([H])N([H])C(=O)N4C([H])([H])C([H])([H])C([H])([H])C([H])(n5nc(-c6c([H])c([H])c(Oc7c([H])c([H])c(F)c([H])c7F)c([H])c6[H])c(C(=O)N([H])[H])c5N([H])[H])C4([H])[H])c(C([H])([H])C([H])([H])C([H])([H])C([H])([H])[H])[n+]3[H])c([H])c([H])c2C1([H])[H]

$$$$
11:0:0
     RDKit          3D

 91 99  0  0  1  0  0  0  0  0999 V2000
  -27.0390  -22.8290   19.6830 C   0  0  0  0  0  3  0  0  0  0  0  0
  -29.1730  -22.0440   20.4520 C   0  0  0  0  0  3  0  0  0  0  0  0
  -28.2570  -23.2210   20.2790 C   0  0  0  0  0  0  0  0  0  0  0  0
  -26.7650  -21.4770   19.3620 C   0  0  0  0  0  0  0  0  0  0  0  0
  -28.8470  -20.6300   20.0850 C   0  0  0  0  0  0  0  0  0  0  0  0
  -27.6170  -20.4420   19.5680 N   0  0  0  0  0  0  0  0  0  0  0  0
  -28.3360  -24.7740   20.9030 C   0  0  0  0  0  2  0  0  0  0  0  0
  -28.2840  -26.1930   20.2250 O   0  0  0  0  0  0  0  0  0  0  0  0
  -24.6210  -31.9400   23.2490 C   0  0  0  0  0  0  0  0  0  0  0  0
  -27.2080  -27.1590   20.2980 C   0  0  0  0  0  0  0  0  0  0  0  0
  -23.4320  -30.5230   21.6210 C   0  0  0  0  0  3  0  0  0  0  0  0
  -24.8840  -28.9230   20.2300 C   0  0  0  0  0  0  0  0  0  0  0  0
  -25.9860  -30.7840   21.4620 C   0  0  0  0  0  2  0  0  0  0  0  0
  -26.0640  -29.3760   20.8350 C   0  0  0  0  0  0  0  0  0  0  0  0
  -27.2290  -28.5130   20.8440 C   0  0  0  0  0  3  0  0  0  0  0  0
  -26.0000  -26.8120   19.6620 C   0  0  0  0  0  3  0  0  0  0  0  0
  -24.8660  -27.6560   19.6280 C   0  0  0  0  0  3  0  0  0  0  0  0
  -23.6590  -29.8260   20.2540 C   0  0  0  0  0  2  0  0  0  0  0  0
  -24.7020  -31.1060   22.1650 N   0  0  0  0  0  0  0  0  0  0  0  0
  -23.5310  -32.2270   23.7680 O   0  0  0  0  0  0  0  0  0  0  0  0
  -22.7490  -29.5290   22.5940 C   0  0  0  0  0  0  0  0  0  0  0  0
  -21.4200  -29.3580   22.4660 N   0  0  0  0  0  0  0  0  0  0  0  0
  -23.4170  -28.9100   23.4260 O   0  0  0  0  0  0  0  0  0  0  0  0
  -20.9350  -29.9060   21.7710 H   0  0  0  0  0  0  0  0  0  0  0  0
  -18.0390  -28.1580   22.9740 C   0  0  0  0  0  0  0  0  0  0  0  0
  -20.5970  -28.4280   23.2450 C   0  0  0  0  0  3  0  0  0  0  0  0
  -20.7020  -26.9900   22.6840 C   0  0  0  0  0  2  0  0  0  0  0  0
  -19.6020  -26.6550   21.6720 C   0  0  0  0  0  2  0  0  0  0  0  0
  -18.2180  -26.8050   22.3090 C   0  0  0  0  0  2  0  0  0  0  0  0
  -19.1560  -28.9280   23.3980 C   0  0  0  0  0  0  0  0  0  0  0  0
  -18.9310  -30.1940   23.9800 C   0  0  0  0  0  3  0  0  0  0  0  0
  -17.6230  -30.6920   24.1390 C   0  0  0  0  0  3  0  0  0  0  0  0
  -16.5220  -29.9210   23.7290 C   0  0  0  0  0  3  0  0  0  0  0  0
  -16.7310  -28.6550   23.1530 C   0  0  0  0  0  3  0  0  0  0  0  0
  -25.8940  -32.5860   23.8780 C   0  0  0  0  0  3  0  0  0  0  0  0
  -25.5760  -33.9880   24.1980 N   0  0  0  0  0  0  0  0  0  0  0  0
  -25.9060  -35.0400   23.4380 C   0  0  0  0  0  0  0  0  0  0  0  0
  -26.5770  -34.9340   22.4090 O   0  0  0  0  0  0  0  0  0  0  0  0
  -24.9850  -34.1440   25.0010 H   0  0  0  0  0  0  0  0  0  0  0  0
  -24.1730  -36.8280   23.0820 C   0  0  0  0  0  1  0  0  0  0  0  0
  -25.4170  -36.4300   23.8930 C   0  0  0  0  0  3  0  0  0  0  0  0
  -27.5520  -37.3230   24.7110 C   0  0  0  0  0  1  0  0  0  0  0  0
  -26.4460  -37.4860   23.7730 N   0  0  0  0  0  0  0  0  0  0  0  0
  -26.0370  -38.4060   23.9190 H   0  0  0  0  0  0  0  0  0  0  0  0
  -26.4000  -31.8310   25.1690 C   0  0  1  0  0  0  0  0  0  0  0  0
  -25.2980  -31.6050   26.2310 C   0  0  0  0  0  1  0  0  0  0  0  0
  -26.9870  -30.4490   24.8020 C   0  0  0  0  0  1  0  0  0  0  0  0
  -27.5480  -32.6320   25.8270 C   0  0  0  0  0  1  0  0  0  0  0  0
  -25.4250  -21.0970   18.7460 C   0  0  0  0  0  2  0  0  0  0  0  0
  -26.2060  -19.8210   16.6290 C   0  0  0  0  0  1  0  0  0  0  0  0
  -25.4380  -21.0210   17.2060 C   0  0  0  0  0  2  0  0  0  0  0  0
  -29.7750  -19.2440   19.9130 C   0  0  0  0  0  2  0  0  0  0  0  0
  -29.7940  -17.7950   20.8120 C   0  0  0  0  0  2  0  0  0  0  0  0
  -30.5780  -15.0980   20.2680 C   0  0  0  0  0  0  0  0  0  0  0  0
  -30.4870  -12.7460   19.2840 C   0  0  0  0  0  2  0  0  0  0  0  0
  -29.5300  -12.6760   18.0700 C   0  0  0  0  0  2  0  0  0  0  0  0
  -28.0730  -12.4590   18.5240 C   0  0  0  0  0  2  0  0  0  0  0  0
  -27.6760  -13.3800   19.7060 C   0  0  0  0  0  3  0  0  0  0  0  0
  -28.7480  -13.3900   20.8140 C   0  0  0  0  0  2  0  0  0  0  0  0
  -29.9970  -13.8320   20.1800 N   0  0  0  0  0  0  0  0  0  0  0  0
  -31.7990  -15.1710   20.0930 O   0  0  0  0  0  0  0  0  0  0  0  0
  -29.7460  -16.2620   20.3330 N   0  0  0  0  0  0  0  0  0  0  0  0
  -28.7870  -15.9670   20.2330 H   0  0  0  0  0  0  0  0  0  0  0  0
  -25.3010  -13.9530   20.4660 C   0  0  0  0  0  0  0  0  0  0  0  0
  -24.2420  -13.1760   20.8460 C   0  0  0  0  0  0  0  0  0  0  0  0
  -24.7120  -11.8280   20.8180 C   0  0  0  0  0  0  0  0  0  0  0  0
  -26.3460  -13.0790   20.2220 N   0  0  0  0  0  0  0  0  0  0  0  0
  -26.0020  -11.7950   20.5020 N   0  0  0  0  0  0  0  0  0  0  0  0
  -23.9900  -10.5630   21.0140 C   0  0  0  0  0  0  0  0  0  0  0  0
  -24.4300   -9.5980   21.9450 C   0  0  0  0  0  3  0  0  0  0  0  0
  -23.7070   -8.4000   22.1280 C   0  0  0  0  0  3  0  0  0  0  0  0
  -22.5300   -8.1600   21.3810 C   0  0  0  0  0  0  0  0  0  0  0  0
  -22.1090   -9.1150   20.4380 C   0  0  0  0  0  3  0  0  0  0  0  0
  -22.8330  -10.3030   20.2530 C   0  0  0  0  0  3  0  0  0  0  0  0
  -21.7760   -7.0150   21.4760 O   0  0  0  0  0  0  0  0  0  0  0  0
  -21.7370   -6.2710   22.6290 C   0  0  0  0  0  0  0  0  0  0  0  0
  -21.3310   -6.8280   23.8620 C   0  0  0  0  0  3  0  0  0  0  0  0
  -21.2400   -6.0120   25.0060 C   0  0  0  0  0  3  0  0  0  0  0  0
  -21.5440   -4.6400   24.9200 C   0  0  0  0  0  0  0  0  0  0  0  0
  -21.9420   -4.0830   23.6930 C   0  0  0  0  0  3  0  0  0  0  0  0
  -22.0360   -4.8960   22.5490 C   0  0  0  0  0  0  0  0  0  0  0  0
  -22.3990   -4.3500   21.3640 F   0  0  0  0  0  0  0  0  0  0  0  0
  -21.4490   -3.8540   26.0180 F   0  0  0  0  0  0  0  0  0  0  0  0
  -22.8450  -13.6510   21.1190 C   0  0  0  0  0  0  0  0  0  0  0  0
  -22.1220  -12.9570   21.9900 N   0  0  0  0  0  0  0  0  0  0  0  0
  -22.4030  -14.6720   20.5930 O   0  0  0  0  0  0  0  0  0  0  0  0
  -22.4930  -12.1300   22.4340 H   0  0  0  0  0  0  0  0  0  0  0  0
  -21.1840  -13.2570   22.2180 H   0  0  0  0  0  0  0  0  0  0  0  0
  -25.4560  -15.3250   20.2780 N   0  0  0  0  0  0  0  0  0  0  0  0
  -24.6750  -15.9660   20.3740 H   0  0  0  0  0  0  0  0  0  0  0  0
  -26.2820  -15.7660   19.8980 H   0  0  0  0  0  0  0  0  0  0  0  0
  1  3  1  0
  3  2  2  0
  3  7  1  0
  4  6  1  0
  4  1  2  0
  5  2  1  0
  6  5  2  0
  8 10  1  0
  8  7  1  0
  9 20  2  0
 10 15  1  0
 11 19  1  0
 11 21  1  0
 12 18  1  0
 12 14  1  0
 13 19  1  0
 14 15  2  0
 14 13  1  0
 16 10  2  0
 17 16  1  0
 17 12  2  0
 18 11  1  0
 19  9  1  0
 21 23  2  0
 22 21  1  0
 24 22  1  0
 25 34  2  0
 25 30  1  0
 26 22  1  0
 26 30  1  0
 27 26  1  0
 28 29  1  0
 28 27  1  0
 29 25  1  0
 30 31  2  0
 31 32  1  0
 33 32  2  0
 34 33  1  0
 35  9  1  0
 35 36  1  0
 35 45  1  0
 36 39  1  0
 37 41  1  0
 37 36  1  0
 38 37  2  0
 41 40  1  0
 43 41  1  0
 43 44  1  0
 43 42  1  0
 45 48  1  1
 45 46  1  0
 47 45  1  0
 49  4  1  0
 50 51  1  0
 51 49  1  0
 52  5  1  0
 52 53  1  0
 54 62  1  0
 55 60  1  0
 56 57  1  0
 56 55  1  0
 58 57  1  0
 58 67  1  0
 58 59  1  0
 60 54  1  0
 60 59  1  0
 61 54  2  0
 62 53  1  0
 63 62  1  0
 64 65  2  0
 65 84  1  0
 66 65  1  0
 66 69  1  0
 67 64  1  0
 67 68  1  0
 68 66  2  0
 69 70  1  0
 70 71  2  0
 72 75  1  0
 72 71  1  0
 73 72  2  0
 74 73  1  0
 74 69  2  0
 75 76  1  0
 76 77  1  0
 77 78  2  0
 79 78  1  0
 79 83  1  0
 80 79  2  0
 81 76  2  0
 81 80  1  0
 82 81  1  0
 84 85  1  0
 85 88  1  0
 85 87  1  0
 86 84  2  0
 89 90  1  0
 89 64  1  0
 91 89  1  0
M  ISO  4   7 101   8 101  54 100  62 100
M  END
>  <TORSDO>  (12) 
F 21

>  <SCORE>  (12) 
-13.331

>  <name>  (12) 
11

>  <ligand_id>  (12) 
11

>  <original_smiles>  (12) 
[H]c1c([H])c([H])c2c(c1[H])C([H])([H])C([H])([H])C([H])([H])C2([H])N([H])C(=O)C1([H])N(C(=O)C([H])(N([H])C(=O)C([H])(N([H])C([H])([H])[H])C([H])([H])[H])C(C([H])([H])[H])(C([H])([H])[H])C([H])([H])[H])C([H])([H])c2c([H])c(OC([H])([H])c3c([H])c(C([H])([H])C([H])([H])N([H])C(=O)N4C([H])([H])C([H])([H])C([H])([H])C([H])(n5nc(-c6c([H])c([H])c(Oc7c([H])c([H])c(F)c([H])c7F)c([H])c6[H])c(C(=O)N([H])[H])c5N([H])[H])C4([H])[H])nc(C([H])([H])C([H])([H])C([H])([H])[H])c3[H])c([H])c([H])c2C1([H])[H]

>  <smiles>  (12) 
[H]c1c([H])c([H])c2c(c1[H])C([H])([H])C([H])([H])C([H])([H])C2([H])N([H])C(=O)C1([H])N(C(=O)C([H])(N([H])C(=O)C([H])(N([H])C([H])([H])[H])C([H])([H])[H])C(C([H])([H])[H])(C([H])([H])[H])C([H])([H])[H])C([H])([H])c2c([H])c(OC([H])([H])c3c([H])c(C([H])([H])C([H])([H])N([H])C(=O)N4C([H])([H])C([H])([H])C([H])([H])C([H])(n5nc(-c6c([H])c([H])c(Oc7c([H])c([H])c(F)c([H])c7F)c([H])c6[H])c(C(=O)N([H])[H])c5N([H])[H])C4([H])[H])nc(C([H])([H])C([H])([H])C([H])([H])[H])c3[H])c([H])c([H])c2C1([H])[H]

$$$$
12:0:0
     RDKit          3D

 90 98  0  0  1  0  0  0  0  0999 V2000
  -26.9680  -23.5510   20.1830 C   0  0  0  0  0  3  0  0  0  0  0  0
  -29.1670  -22.7960   20.7790 C   0  0  0  0  0  3  0  0  0  0  0  0
  -28.2410  -23.9040   20.6750 C   0  0  0  0  0  0  0  0  0  0  0  0
  -26.6830  -22.2150   19.8270 C   0  0  0  0  0  0  0  0  0  0  0  0
  -28.8120  -21.4430   20.3990 C   0  0  0  0  0  0  0  0  0  0  0  0
  -25.2930  -21.8340   19.3600 C   0  0  0  0  0  1  0  0  0  0  0  0
  -27.5740  -21.1990   19.9190 N   0  0  0  0  0  0  0  0  0  0  0  0
  -28.4730  -25.3610   21.2810 C   0  0  0  0  0  2  0  0  0  0  0  0
  -28.4450  -26.6140   20.4780 O   0  0  0  0  0  0  0  0  0  0  0  0
  -24.5490  -32.0110   23.4110 C   0  0  0  0  0  0  0  0  0  0  0  0
  -27.3180  -27.4500   20.4940 C   0  0  0  0  0  0  0  0  0  0  0  0
  -23.4230  -30.5890   21.7370 C   0  0  0  0  0  3  0  0  0  0  0  0
  -24.9430  -29.0440   20.3750 C   0  0  0  0  0  0  0  0  0  0  0  0
  -25.9630  -30.9360   21.6420 C   0  0  0  0  0  2  0  0  0  0  0  0
  -26.0830  -29.5500   21.0140 C   0  0  0  0  0  0  0  0  0  0  0  0
  -27.2780  -28.7660   21.0600 C   0  0  0  0  0  3  0  0  0  0  0  0
  -26.1610  -27.0010   19.8300 C   0  0  0  0  0  3  0  0  0  0  0  0
  -24.9840  -27.7740   19.7770 C   0  0  0  0  0  3  0  0  0  0  0  0
  -23.6960  -29.9060   20.3710 C   0  0  0  0  0  2  0  0  0  0  0  0
  -24.6620  -31.1980   22.3190 N   0  0  0  0  0  0  0  0  0  0  0  0
  -23.4430  -32.2760   23.9060 O   0  0  0  0  0  0  0  0  0  0  0  0
  -22.7410  -29.5690   22.6790 C   0  0  0  0  0  0  0  0  0  0  0  0
  -21.4230  -29.3700   22.5040 N   0  0  0  0  0  0  0  0  0  0  0  0
  -23.3970  -28.9600   23.5270 O   0  0  0  0  0  0  0  0  0  0  0  0
  -20.9510  -29.9110   21.7930 H   0  0  0  0  0  0  0  0  0  0  0  0
  -18.0430  -28.1490   22.9140 C   0  0  0  0  0  0  0  0  0  0  0  0
  -20.5910  -28.4250   23.2510 C   0  0  0  0  0  3  0  0  0  0  0  0
  -20.7170  -26.9960   22.6720 C   0  0  0  0  0  2  0  0  0  0  0  0
  -19.6440  -26.6720   21.6260 C   0  0  0  0  0  2  0  0  0  0  0  0
  -18.2460  -26.8050   22.2360 C   0  0  0  0  0  2  0  0  0  0  0  0
  -19.1440  -28.9170   23.3760 C   0  0  0  0  0  0  0  0  0  0  0  0
  -18.9010  -30.1760   23.9690 C   0  0  0  0  0  3  0  0  0  0  0  0
  -17.5890  -30.6670   24.1030 C   0  0  0  0  0  3  0  0  0  0  0  0
  -16.5020  -29.8940   23.6600 C   0  0  0  0  0  3  0  0  0  0  0  0
  -16.7290  -28.6380   23.0730 C   0  0  0  0  0  3  0  0  0  0  0  0
  -25.7990  -32.6640   24.0760 C   0  0  0  0  0  3  0  0  0  0  0  0
  -26.2370  -31.9480   25.4140 C   0  0  1  0  0  0  0  0  0  0  0  0
  -25.0780  -31.7450   26.4170 C   0  0  0  0  0  1  0  0  0  0  0  0
  -26.8530  -30.5620   25.1160 C   0  0  0  0  0  1  0  0  0  0  0  0
  -27.3370  -32.7780   26.1150 C   0  0  0  0  0  1  0  0  0  0  0  0
  -25.4820  -34.0780   24.3280 N   0  0  0  0  0  0  0  0  0  0  0  0
  -25.8410  -35.0930   23.5330 C   0  0  0  0  0  0  0  0  0  0  0  0
  -26.5430  -34.9400   22.5300 O   0  0  0  0  0  0  0  0  0  0  0  0
  -24.8570  -34.2690   25.0980 H   0  0  0  0  0  0  0  0  0  0  0  0
  -24.1210  -36.8640   23.0490 C   0  0  0  0  0  1  0  0  0  0  0  0
  -25.3430  -36.5020   23.9100 C   0  0  0  0  0  3  0  0  0  0  0  0
  -27.4530  -37.4320   24.7490 C   0  0  0  0  0  1  0  0  0  0  0  0
  -26.3780  -37.5490   23.7690 N   0  0  0  0  0  0  0  0  0  0  0  0
  -25.9690  -38.4760   23.8530 H   0  0  0  0  0  0  0  0  0  0  0  0
  -29.7870  -20.1900   20.4740 C   0  0  0  0  0  2  0  0  0  0  0  0
  -29.2560  -18.6610   20.3550 C   0  0  0  0  0  3  0  0  0  0  0  0
  -30.3370  -17.4540   20.3680 C   0  0  0  0  0  3  0  0  0  0  0  0
  -30.6370  -14.8730   20.0530 C   0  0  0  0  0  0  0  0  0  0  0  0
  -30.3610  -12.6330   18.9870 C   0  0  0  0  0  2  0  0  0  0  0  0
  -29.3590  -12.7600   17.8180 C   0  0  0  0  0  2  0  0  0  0  0  0
  -27.9130  -12.5820   18.3220 C   0  0  0  0  0  2  0  0  0  0  0  0
  -27.6160  -13.4360   19.5840 C   0  0  0  0  0  3  0  0  0  0  0  0
  -28.7320  -13.3030   20.6430 C   0  0  0  0  0  2  0  0  0  0  0  0
  -29.9980  -13.6570   19.9910 N   0  0  0  0  0  0  0  0  0  0  0  0
  -31.7900  -14.9870   19.6310 O   0  0  0  0  0  0  0  0  0  0  0  0
  -29.9010  -15.9920   20.4030 N   0  0  0  0  0  0  0  0  0  0  0  0
  -28.9560  -15.8080   20.7110 H   0  0  0  0  0  0  0  0  0  0  0  0
  -25.2790  -14.0280   20.4650 C   0  0  0  0  0  0  0  0  0  0  0  0
  -24.2290  -13.2530   20.8740 C   0  0  0  0  0  0  0  0  0  0  0  0
  -24.6770  -11.8980   20.7790 C   0  0  0  0  0  0  0  0  0  0  0  0
  -26.3000  -13.1470   20.1410 N   0  0  0  0  0  0  0  0  0  0  0  0
  -25.9470  -11.8590   20.3920 N   0  0  0  0  0  0  0  0  0  0  0  0
  -23.9490  -10.6380   20.9760 C   0  0  0  0  0  0  0  0  0  0  0  0
  -24.4070   -9.6550   21.8810 C   0  0  0  0  0  3  0  0  0  0  0  0
  -23.6780   -8.4600   22.0680 C   0  0  0  0  0  3  0  0  0  0  0  0
  -22.4810   -8.2390   21.3470 C   0  0  0  0  0  0  0  0  0  0  0  0
  -22.0440   -9.2110   20.4310 C   0  0  0  0  0  3  0  0  0  0  0  0
  -22.7700  -10.3980   20.2430 C   0  0  0  0  0  3  0  0  0  0  0  0
  -21.7230   -7.0960   21.4430 O   0  0  0  0  0  0  0  0  0  0  0  0
  -21.6870   -6.3500   22.5940 C   0  0  0  0  0  0  0  0  0  0  0  0
  -21.2550   -6.8970   23.8220 C   0  0  0  0  0  3  0  0  0  0  0  0
  -21.1670   -6.0790   24.9650 C   0  0  0  0  0  3  0  0  0  0  0  0
  -21.5000   -4.7130   24.8810 C   0  0  0  0  0  0  0  0  0  0  0  0
  -21.9240   -4.1640   23.6570 C   0  0  0  0  0  3  0  0  0  0  0  0
  -22.0130   -4.9810   22.5160 C   0  0  0  0  0  0  0  0  0  0  0  0
  -22.4030   -4.4430   21.3340 F   0  0  0  0  0  0  0  0  0  0  0  0
  -21.4080   -3.9240   25.9770 F   0  0  0  0  0  0  0  0  0  0  0  0
  -22.8560  -13.7350   21.2400 C   0  0  0  0  0  0  0  0  0  0  0  0
  -22.1740  -13.0240   22.1320 N   0  0  0  0  0  0  0  0  0  0  0  0
  -22.3960  -14.7770   20.7740 O   0  0  0  0  0  0  0  0  0  0  0  0
  -22.5590  -12.1830   22.5340 H   0  0  0  0  0  0  0  0  0  0  0  0
  -21.2550  -13.3310   22.4210 H   0  0  0  0  0  0  0  0  0  0  0  0
  -25.4440  -15.4030   20.3190 N   0  0  0  0  0  0  0  0  0  0  0  0
  -24.6880  -16.0550   20.4890 H   0  0  0  0  0  0  0  0  0  0  0  0
  -26.2710  -15.8490   19.9450 H   0  0  0  0  0  0  0  0  0  0  0  0
  1  3  1  0
  3  2  2  0
  3  8  1  0
  4  7  1  0
  4  1  2  0
  5 50  1  0
  5  2  1  0
  6  4  1  0
  7  5  2  0
  9 11  1  0
  9  8  1  0
 10 21  2  0
 11 16  1  0
 12 20  1  0
 12 22  1  0
 13 15  1  0
 14 20  1  0
 15 16  2  0
 15 14  1  0
 17 11  2  0
 18 17  1  0
 18 13  2  0
 19 13  1  0
 19 12  1  0
 20 10  1  0
 22 24  2  0
 23 22  1  0
 25 23  1  0
 26 35  2  0
 26 31  1  0
 27 23  1  0
 27 31  1  0
 28 27  1  0
 29 30  1  0
 29 28  1  0
 30 26  1  0
 31 32  2  0
 32 33  1  0
 34 33  2  0
 35 34  1  0
 36 10  1  0
 36 41  1  0
 36 37  1  0
 37 40  1  1
 37 38  1  0
 39 37  1  0
 41 44  1  0
 42 46  1  0
 42 41  1  0
 43 42  2  0
 46 45  1  0
 48 49  1  0
 48 46  1  0
 48 47  1  0
 51 52  2  0
 51 50  1  0
 52 61  1  0
 53 61  1  0
 54 59  1  0
 55 56  1  0
 55 54  1  0
 57 56  1  0
 57 66  1  0
 57 58  1  0
 59 53  1  0
 59 58  1  0
 60 53  2  0
 61 62  1  0
 63 64  2  0
 64 83  1  0
 65 64  1  0
 65 68  1  0
 66 67  1  0
 66 63  1  0
 67 65  2  0
 68 69  1  0
 69 70  2  0
 71 74  1  0
 71 70  1  0
 72 71  2  0
 73 72  1  0
 73 68  2  0
 74 75  1  0
 75 76  1  0
 76 77  2  0
 78 77  1  0
 78 82  1  0
 79 78  2  0
 80 75  2  0
 80 79  1  0
 81 80  1  0
 83 84  1  0
 84 87  1  0
 84 86  1  0
 85 83  2  0
 88 63  1  0
 88 89  1  0
 90 88  1  0
M  ISO  4   8 101   9 101  53 100  61 100
M  END
>  <TORSDO>  (13) 
F 20

>  <SCORE>  (13) 
-12.957

>  <name>  (13) 
12

>  <ligand_id>  (13) 
12

>  <original_smiles>  (13) 
[H]c1c([H])c([H])c2c(c1[H])C([H])([H])C([H])([H])C([H])([H])C2([H])N([H])C(=O)C1([H])N(C(=O)C([H])(N([H])C(=O)C([H])(N([H])C([H])([H])[H])C([H])([H])[H])C(C([H])([H])[H])(C([H])([H])[H])C([H])([H])[H])C([H])([H])c2c([H])c(OC([H])([H])c3c([H])c(C([H])([H])[H])nc(C([H])([H])C([H])([H])C([H])([H])N([H])C(=O)N4C([H])([H])C([H])([H])C([H])([H])C([H])(n5nc(-c6c([H])c([H])c(Oc7c([H])c([H])c(F)c([H])c7F)c([H])c6[H])c(C(=O)N([H])[H])c5N([H])[H])C4([H])[H])c3[H])c([H])c([H])c2C1([H])[H]

>  <smiles>  (13) 
[H]c1c([H])c([H])c2c(c1[H])C([H])([H])C([H])([H])C([H])([H])C2([H])N([H])C(=O)C1([H])N(C(=O)C([H])(N([H])C(=O)C([H])(N([H])C([H])([H])[H])C([H])([H])[H])C(C([H])([H])[H])(C([H])([H])[H])C([H])([H])[H])C([H])([H])c2c([H])c(OC([H])([H])c3c([H])c(C([H])([H])[H])nc(C([H])([H])C([H])([H])C([H])([H])N([H])C(=O)N4C([H])([H])C([H])([H])C([H])([H])C([H])(n5nc(-c6c([H])c([H])c(Oc7c([H])c([H])c(F)c([H])c7F)c([H])c6[H])c(C(=O)N([H])[H])c5N([H])[H])C4([H])[H])c3[H])c([H])c([H])c2C1([H])[H]

$$$$
13:0:0
     RDKit          3D

 86 94  0  0  1  0  0  0  0  0999 V2000
  -28.4430  -21.7210   20.4290 C   0  0  0  0  0  2  0  0  0  0  0  0
  -28.7920  -18.9550   20.1370 C   0  0  0  0  0  3  0  0  0  0  0  0
  -29.2400  -20.2660   20.4320 C   0  0  0  0  0  0  0  0  0  0  0  0
  -30.4800  -19.9760   21.0380 N   0  0  0  0  0  0  0  0  0  0  0  0
  -30.7530  -18.6650   21.0860 N   0  0  0  0  0  0  0  0  0  0  0  0
  -29.7300  -17.9330   20.5450 N   0  0  0  0  0  0  0  0  0  0  0  0
  -29.5460  -16.3670   20.7790 C   0  0  0  0  0  2  0  0  0  0  0  0
  -30.4720  -15.0360   20.3830 C   0  0  0  0  0  0  0  0  0  0  0  0
  -30.4060  -12.6920   19.3780 C   0  0  0  0  0  2  0  0  0  0  0  0
  -29.4570  -12.6850   18.1540 C   0  0  0  0  0  2  0  0  0  0  0  0
  -27.9940  -12.4600   18.5850 C   0  0  0  0  0  2  0  0  0  0  0  0
  -27.5960  -13.3540   19.7860 C   0  0  0  0  0  3  0  0  0  0  0  0
  -28.6580  -13.3170   20.9060 C   0  0  0  0  0  2  0  0  0  0  0  0
  -29.9370  -13.7460   20.3220 N   0  0  0  0  0  0  0  0  0  0  0  0
  -31.6540  -15.1590   20.0330 O   0  0  0  0  0  0  0  0  0  0  0  0
  -25.2160  -13.9340   20.5360 C   0  0  0  0  0  0  0  0  0  0  0  0
  -24.1520  -13.1570   20.9040 C   0  0  0  0  0  0  0  0  0  0  0  0
  -24.6160  -11.8060   20.8620 C   0  0  0  0  0  0  0  0  0  0  0  0
  -26.2580  -13.0560   20.2850 N   0  0  0  0  0  0  0  0  0  0  0  0
  -25.9060  -11.7700   20.5480 N   0  0  0  0  0  0  0  0  0  0  0  0
  -23.8890  -10.5430   21.0470 C   0  0  0  0  0  0  0  0  0  0  0  0
  -24.3130   -9.5770   21.9850 C   0  0  0  0  0  3  0  0  0  0  0  0
  -23.5870   -8.3790   22.1580 C   0  0  0  0  0  3  0  0  0  0  0  0
  -22.4210   -8.1390   21.3910 C   0  0  0  0  0  0  0  0  0  0  0  0
  -22.0160   -9.0940   20.4430 C   0  0  0  0  0  3  0  0  0  0  0  0
  -22.7430  -10.2840   20.2690 C   0  0  0  0  0  3  0  0  0  0  0  0
  -21.6680   -6.9930   21.4720 O   0  0  0  0  0  0  0  0  0  0  0  0
  -21.5970   -6.2590   22.6280 C   0  0  0  0  0  0  0  0  0  0  0  0
  -21.1160   -6.8130   23.8350 C   0  0  0  0  0  3  0  0  0  0  0  0
  -20.9960   -6.0030   24.9820 C   0  0  0  0  0  3  0  0  0  0  0  0
  -21.3450   -4.6400   24.9230 C   0  0  0  0  0  0  0  0  0  0  0  0
  -21.8180   -4.0860   23.7210 C   0  0  0  0  0  3  0  0  0  0  0  0
  -21.9410   -4.8920   22.5760 C   0  0  0  0  0  0  0  0  0  0  0  0
  -22.3780   -4.3480   21.4150 F   0  0  0  0  0  0  0  0  0  0  0  0
  -21.2210   -3.8600   26.0220 F   0  0  0  0  0  0  0  0  0  0  0  0
  -22.7550  -13.6330   21.1790 C   0  0  0  0  0  0  0  0  0  0  0  0
  -22.0280  -12.9310   22.0420 N   0  0  0  0  0  0  0  0  0  0  0  0
  -22.3170  -14.6630   20.6670 O   0  0  0  0  0  0  0  0  0  0  0  0
  -22.3950  -12.0980   22.4770 H   0  0  0  0  0  0  0  0  0  0  0  0
  -21.0900  -13.2310   22.2690 H   0  0  0  0  0  0  0  0  0  0  0  0
  -25.3800  -15.3050   20.3670 N   0  0  0  0  0  0  0  0  0  0  0  0
  -24.6130  -15.9580   20.4840 H   0  0  0  0  0  0  0  0  0  0  0  0
  -26.2230  -15.7440   20.0230 H   0  0  0  0  0  0  0  0  0  0  0  0
  -28.9840  -23.3200   20.3140 C   0  0  0  0  0  3  0  0  0  0  0  0
  -27.9440  -24.6590   20.1910 C   0  0  0  0  0  3  0  0  0  0  0  0
  -28.2330  -26.1980   20.2550 O   0  0  0  0  0  0  0  0  0  0  0  0
  -24.6040  -31.9060   23.2390 C   0  0  0  0  0  0  0  0  0  0  0  0
  -27.1740  -27.1840   20.2010 C   0  0  0  0  0  0  0  0  0  0  0  0
  -23.3990  -30.5120   21.6030 C   0  0  0  0  0  3  0  0  0  0  0  0
  -24.8430  -28.9360   20.1750 C   0  0  0  0  0  0  0  0  0  0  0  0
  -25.9540  -30.7740   21.4320 C   0  0  0  0  0  2  0  0  0  0  0  0
  -26.0260  -29.3810   20.7790 C   0  0  0  0  0  0  0  0  0  0  0  0
  -27.1920  -28.5230   20.7710 C   0  0  0  0  0  3  0  0  0  0  0  0
  -25.9590  -26.8430   19.5620 C   0  0  0  0  0  3  0  0  0  0  0  0
  -24.8230  -27.6810   19.5510 C   0  0  0  0  0  3  0  0  0  0  0  0
  -23.6160  -29.8340   20.2240 C   0  0  0  0  0  2  0  0  0  0  0  0
  -24.6720  -31.0850   22.1460 N   0  0  0  0  0  0  0  0  0  0  0  0
  -23.5190  -32.1910   23.7690 O   0  0  0  0  0  0  0  0  0  0  0  0
  -22.7200  -29.5050   22.5660 C   0  0  0  0  0  0  0  0  0  0  0  0
  -21.3930  -29.3280   22.4360 N   0  0  0  0  0  0  0  0  0  0  0  0
  -23.3920  -28.8860   23.3960 O   0  0  0  0  0  0  0  0  0  0  0  0
  -20.9070  -29.8790   21.7420 H   0  0  0  0  0  0  0  0  0  0  0  0
  -18.0140  -28.1190   22.9350 C   0  0  0  0  0  0  0  0  0  0  0  0
  -20.5720  -28.3920   23.2080 C   0  0  0  0  0  3  0  0  0  0  0  0
  -20.6790  -26.9580   22.6390 C   0  0  0  0  0  2  0  0  0  0  0  0
  -19.5810  -26.6280   21.6230 C   0  0  0  0  0  2  0  0  0  0  0  0
  -18.1980  -26.7690   22.2630 C   0  0  0  0  0  2  0  0  0  0  0  0
  -19.1290  -28.8880   23.3650 C   0  0  0  0  0  0  0  0  0  0  0  0
  -18.9030  -30.1500   23.9550 C   0  0  0  0  0  3  0  0  0  0  0  0
  -17.5950  -30.6450   24.1190 C   0  0  0  0  0  3  0  0  0  0  0  0
  -16.4940  -29.8740   23.7060 C   0  0  0  0  0  3  0  0  0  0  0  0
  -16.7050  -28.6140   23.1190 C   0  0  0  0  0  3  0  0  0  0  0  0
  -25.8830  -32.5410   23.8630 C   0  0  0  0  0  3  0  0  0  0  0  0
  -26.3960  -31.7700   25.1420 C   0  0  1  0  0  0  0  0  0  0  0  0
  -25.3000  -31.5350   26.2080 C   0  0  0  0  0  1  0  0  0  0  0  0
  -26.9800  -30.3920   24.7590 C   0  0  0  0  0  1  0  0  0  0  0  0
  -27.5450  -32.5660   25.8060 C   0  0  0  0  0  1  0  0  0  0  0  0
  -25.5710  -33.9400   24.1980 N   0  0  0  0  0  0  0  0  0  0  0  0
  -25.8880  -34.9970   23.4390 C   0  0  0  0  0  0  0  0  0  0  0  0
  -26.5380  -34.8970   22.3940 O   0  0  0  0  0  0  0  0  0  0  0  0
  -24.9900  -34.0900   25.0090 H   0  0  0  0  0  0  0  0  0  0  0  0
  -24.1460  -36.7880   23.1280 C   0  0  0  0  0  1  0  0  0  0  0  0
  -25.4080  -36.3840   23.9090 C   0  0  0  0  0  3  0  0  0  0  0  0
  -27.5550  -37.2810   24.6950 C   0  0  0  0  0  1  0  0  0  0  0  0
  -26.4340  -37.4400   23.7730 N   0  0  0  0  0  0  0  0  0  0  0  0
  -26.0280  -38.3600   23.9230 H   0  0  0  0  0  0  0  0  0  0  0  0
  1  3  1  0
  2  3  2  0
  2  6  1  0
  3  4  1  0
  4  5  2  0
  6  7  1  0
  6  5  1  0
  8  7  1  0
  9 14  1  0
 10 11  1  0
 10  9  1  0
 12 11  1  0
 12 19  1  0
 12 13  1  0
 14  8  1  0
 14 13  1  0
 15  8  2  0
 16 17  2  0
 17 36  1  0
 18 17  1  0
 18 21  1  0
 19 16  1  0
 19 20  1  0
 20 18  2  0
 21 22  1  0
 22 23  2  0
 24 27  1  0
 24 23  1  0
 25 24  2  0
 26 25  1  0
 26 21  2  0
 27 28  1  0
 28 29  1  0
 29 30  2  0
 31 30  1  0
 31 35  1  0
 32 31  2  0
 33 28  2  0
 33 32  1  0
 34 33  1  0
 36 37  1  0
 37 40  1  0
 37 39  1  0
 38 36  2  0
 41 42  1  0
 41 16  1  0
 43 41  1  0
 44  1  1  0
 45 46  1  0
 45 44  2  0
 47 58  2  0
 48 46  1  0
 48 53  1  0
 49 57  1  0
 49 59  1  0
 50 56  1  0
 50 52  1  0
 51 57  1  0
 52 51  1  0
 53 52  2  0
 54 48  2  0
 55 54  1  0
 55 50  2  0
 56 49  1  0
 57 47  1  0
 59 61  2  0
 60 59  1  0
 62 60  1  0
 63 72  2  0
 63 68  1  0
 64 60  1  0
 64 68  1  0
 65 64  1  0
 66 67  1  0
 66 65  1  0
 67 63  1  0
 68 69  2  0
 69 70  1  0
 71 70  2  0
 72 71  1  0
 73 47  1  0
 73 78  1  0
 73 74  1  0
 74 77  1  1
 74 75  1  0
 76 74  1  0
 78 81  1  0
 79 83  1  0
 79 78  1  0
 80 79  2  0
 83 82  1  0
 85 83  1  0
 85 86  1  0
 85 84  1  0
M  ISO  4   7 100   8 100  45 101  46 101
M  END
>  <TORSDO>  (14) 
F 20

>  <SCORE>  (14) 
-14.671

>  <name>  (14) 
13

>  <ligand_id>  (14) 
13

>  <original_smiles>  (14) 
[H]c1c([H])c([H])c2c(c1[H])C([H])([H])C([H])([H])C([H])([H])C2([H])N([H])C(=O)C1([H])N(C(=O)C([H])(N([H])C(=O)C([H])(N([H])C([H])([H])[H])C([H])([H])[H])C(C([H])([H])[H])(C([H])([H])[H])C([H])([H])[H])C([H])([H])c2c([H])c(OC([H])([H])C([H])([H])C([H])([H])c3nnn(C([H])([H])C(=O)N4C([H])([H])C([H])([H])C([H])([H])C([H])(n5nc(-c6c([H])c([H])c(Oc7c([H])c([H])c(F)c([H])c7F)c([H])c6[H])c(C(=O)N([H])[H])c5N([H])[H])C4([H])[H])c3[H])c([H])c([H])c2C1([H])[H]

>  <smiles>  (14) 
[H]c1c([H])c([H])c2c(c1[H])C([H])([H])C([H])([H])C([H])([H])C2([H])N([H])C(=O)C1([H])N(C(=O)C([H])(N([H])C(=O)C([H])(N([H])C([H])([H])[H])C([H])([H])[H])C(C([H])([H])[H])(C([H])([H])[H])C([H])([H])[H])C([H])([H])c2c([H])c(OC([H])([H])C([H])([H])C([H])([H])c3nnn(C([H])([H])C(=O)N4C([H])([H])C([H])([H])C([H])([H])C([H])(n5nc(-c6c([H])c([H])c(Oc7c([H])c([H])c(F)c([H])c7F)c([H])c6[H])c(C(=O)N([H])[H])c5N([H])[H])C4([H])[H])c3[H])c([H])c([H])c2C1([H])[H]

$$$$
14:0:0
     RDKit          3D

 88 96  0  0  1  0  0  0  0  0999 V2000
  -29.9590  -20.8780   20.1700 C   0  0  0  0  0  3  0  0  0  0  0  0
  -29.6300  -16.8880   20.6590 C   0  0  0  0  0  3  0  0  0  0  0  0
  -30.7570  -17.4230   18.6610 C   0  0  0  0  0  3  0  0  0  0  0  0
  -30.3780  -16.3770   19.5600 C   0  0  0  0  0  0  0  0  0  0  0  0
  -29.3810  -18.3080   20.8230 C   0  0  0  0  0  0  0  0  0  0  0  0
  -29.8510  -19.2820   19.8790 C   0  0  0  0  0  0  0  0  0  0  0  0
  -28.6700  -18.7790   22.0800 C   0  0  0  0  0  1  0  0  0  0  0  0
  -30.5080  -18.7770   18.7980 N   0  0  0  0  0  0  0  0  0  0  0  0
  -30.9750  -14.9230   19.3900 C   0  0  0  0  0  0  0  0  0  0  0  0
  -30.6230  -12.6030   18.5330 C   0  0  0  0  0  2  0  0  0  0  0  0
  -29.5510  -12.6210   17.4230 C   0  0  0  0  0  2  0  0  0  0  0  0
  -28.1550  -12.4290   18.0420 C   0  0  0  0  0  2  0  0  0  0  0  0
  -27.9150  -13.3630   19.2580 C   0  0  0  0  0  3  0  0  0  0  0  0
  -29.1040  -13.3760   20.2380 C   0  0  0  0  0  2  0  0  0  0  0  0
  -30.3110  -13.7110   19.4790 N   0  0  0  0  0  0  0  0  0  0  0  0
  -32.1160  -14.9030   18.9230 O   0  0  0  0  0  0  0  0  0  0  0  0
  -25.7030  -13.9360   20.4130 C   0  0  0  0  0  0  0  0  0  0  0  0
  -24.6770  -13.1600   20.8740 C   0  0  0  0  0  0  0  0  0  0  0  0
  -25.0750  -11.8040   20.6540 C   0  0  0  0  0  0  0  0  0  0  0  0
  -26.6580  -13.0570   19.9330 N   0  0  0  0  0  0  0  0  0  0  0  0
  -26.3000  -11.7630   20.1430 N   0  0  0  0  0  0  0  0  0  0  0  0
  -24.3350  -10.5490   20.8440 C   0  0  0  0  0  0  0  0  0  0  0  0
  -24.7300   -9.5920   21.8050 C   0  0  0  0  0  3  0  0  0  0  0  0
  -23.9890   -8.4050   21.9800 C   0  0  0  0  0  3  0  0  0  0  0  0
  -22.8360   -8.1640   21.1940 C   0  0  0  0  0  0  0  0  0  0  0  0
  -22.4580   -9.1090   20.2230 C   0  0  0  0  0  3  0  0  0  0  0  0
  -23.2020  -10.2880   20.0470 C   0  0  0  0  0  3  0  0  0  0  0  0
  -22.0680   -7.0270   21.2790 O   0  0  0  0  0  0  0  0  0  0  0  0
  -21.7700   -6.4460   22.4860 C   0  0  0  0  0  0  0  0  0  0  0  0
  -21.0680   -7.1430   23.4930 C   0  0  0  0  0  3  0  0  0  0  0  0
  -20.7220   -6.4860   24.6910 C   0  0  0  0  0  3  0  0  0  0  0  0
  -21.0690   -5.1350   24.8800 C   0  0  0  0  0  0  0  0  0  0  0  0
  -21.7650   -4.4390   23.8760 C   0  0  0  0  0  3  0  0  0  0  0  0
  -22.1110   -5.0930   22.6810 C   0  0  0  0  0  0  0  0  0  0  0  0
  -22.7640   -4.4110   21.7070 F   0  0  0  0  0  0  0  0  0  0  0  0
  -20.7310   -4.5010   26.0280 F   0  0  0  0  0  0  0  0  0  0  0  0
  -23.3590  -13.6470   21.4020 C   0  0  0  0  0  0  0  0  0  0  0  0
  -22.7500  -12.9050   22.3180 N   0  0  0  0  0  0  0  0  0  0  0  0
  -22.8840  -14.7220   21.0350 O   0  0  0  0  0  0  0  0  0  0  0  0
  -23.1450  -12.0330   22.6370 H   0  0  0  0  0  0  0  0  0  0  0  0
  -21.8740  -13.2160   22.7130 H   0  0  0  0  0  0  0  0  0  0  0  0
  -25.8970  -15.3130   20.3370 N   0  0  0  0  0  0  0  0  0  0  0  0
  -25.1930  -15.9770   20.6380 H   0  0  0  0  0  0  0  0  0  0  0  0
  -26.7150  -15.7560   19.9350 H   0  0  0  0  0  0  0  0  0  0  0  0
  -28.9610  -22.0800   19.6720 C   0  0  0  0  0  3  0  0  0  0  0  0
  -29.2360  -23.6420   20.1420 C   0  0  0  0  0  3  0  0  0  0  0  0
  -28.2490  -24.8950   19.7600 C   0  0  0  0  0  3  0  0  0  0  0  0
  -28.4440  -26.3410   20.2080 O   0  0  0  0  0  0  0  0  0  0  0  0
  -24.5890  -31.7070   23.3040 C   0  0  0  0  0  0  0  0  0  0  0  0
  -27.3540  -27.2580   20.1370 C   0  0  0  0  0  0  0  0  0  0  0  0
  -23.4560  -30.3440   21.5890 C   0  0  0  0  0  3  0  0  0  0  0  0
  -24.9730  -28.8850   20.1270 C   0  0  0  0  0  0  0  0  0  0  0  0
  -25.9980  -30.7080   21.4780 C   0  0  0  0  0  2  0  0  0  0  0  0
  -26.1230  -29.3530   20.7750 C   0  0  0  0  0  0  0  0  0  0  0  0
  -27.3160  -28.5530   20.7700 C   0  0  0  0  0  3  0  0  0  0  0  0
  -26.1830  -26.8800   19.4440 C   0  0  0  0  0  3  0  0  0  0  0  0
  -25.0110  -27.6590   19.4490 C   0  0  0  0  0  3  0  0  0  0  0  0
  -23.7170  -29.7360   20.1870 C   0  0  0  0  0  2  0  0  0  0  0  0
  -24.6980  -30.9380   22.1800 N   0  0  0  0  0  0  0  0  0  0  0  0
  -23.4860  -31.9380   23.8220 O   0  0  0  0  0  0  0  0  0  0  0  0
  -22.7970  -29.2740   22.4960 C   0  0  0  0  0  0  0  0  0  0  0  0
  -21.4920  -29.0260   22.2960 N   0  0  0  0  0  0  0  0  0  0  0  0
  -23.4640  -28.6730   23.3410 O   0  0  0  0  0  0  0  0  0  0  0  0
  -21.0100  -29.5670   21.5900 H   0  0  0  0  0  0  0  0  0  0  0  0
  -18.1670  -27.6200   22.5890 C   0  0  0  0  0  0  0  0  0  0  0  0
  -20.6860  -28.0310   23.0080 C   0  0  0  0  0  3  0  0  0  0  0  0
  -20.9080  -26.6160   22.4250 C   0  0  0  0  0  2  0  0  0  0  0  0
  -19.8870  -26.2420   21.3460 C   0  0  0  0  0  2  0  0  0  0  0  0
  -18.4650  -26.2940   21.9100 C   0  0  0  0  0  2  0  0  0  0  0  0
  -19.2110  -28.4430   23.0900 C   0  0  0  0  0  0  0  0  0  0  0  0
  -18.8800  -29.6810   23.6830 C   0  0  0  0  0  3  0  0  0  0  0  0
  -17.5400  -30.0980   23.7800 C   0  0  0  0  0  3  0  0  0  0  0  0
  -16.5100  -29.2740   23.2950 C   0  0  0  0  0  3  0  0  0  0  0  0
  -16.8240  -28.0360   22.7050 C   0  0  0  0  0  3  0  0  0  0  0  0
  -25.8390  -32.3510   23.9760 C   0  0  0  0  0  3  0  0  0  0  0  0
  -26.2580  -31.6350   25.3200 C   0  0  1  0  0  0  0  0  0  0  0  0
  -25.0940  -31.4560   26.3220 C   0  0  0  0  0  1  0  0  0  0  0  0
  -26.8550  -30.2380   25.0350 C   0  0  0  0  0  1  0  0  0  0  0  0
  -27.3690  -32.4520   26.0220 C   0  0  0  0  0  1  0  0  0  0  0  0
  -25.5310  -33.7680   24.2230 N   0  0  0  0  0  0  0  0  0  0  0  0
  -25.8740  -34.7760   23.4100 C   0  0  0  0  0  0  0  0  0  0  0  0
  -26.5520  -34.6130   22.3920 O   0  0  0  0  0  0  0  0  0  0  0  0
  -24.9310  -33.9690   25.0090 H   0  0  0  0  0  0  0  0  0  0  0  0
  -24.1430  -36.5470   22.9600 C   0  0  0  0  0  1  0  0  0  0  0  0
  -25.3890  -36.1910   23.7860 C   0  0  0  0  0  3  0  0  0  0  0  0
  -27.5210  -37.1350   24.5570 C   0  0  0  0  0  1  0  0  0  0  0  0
  -26.4220  -37.2340   23.6010 N   0  0  0  0  0  0  0  0  0  0  0  0
  -26.0140  -38.1620   23.6840 H   0  0  0  0  0  0  0  0  0  0  0  0
  2  5  1  0
  3  8  2  0
  3  4  1  0
  4  2  2  0
  5  7  1  0
  6  1  1  0
  6  5  2  0
  8  6  1  0
  9 15  1  0
  9  4  1  0
 10 15  1  0
 11 12  1  0
 11 10  1  0
 13 12  1  0
 13 20  1  0
 13 14  1  0
 15 14  1  0
 16  9  2  0
 17 18  2  0
 18 37  1  0
 19 22  1  0
 19 18  1  0
 20 21  1  0
 20 17  1  0
 21 19  2  0
 22 23  1  0
 23 24  2  0
 25 28  1  0
 25 24  1  0
 26 25  2  0
 27 26  1  0
 27 22  2  0
 28 29  1  0
 29 34  2  0
 29 30  1  0
 30 31  2  0
 31 32  1  0
 32 36  1  0
 33 32  2  0
 34 33  1  0
 35 34  1  0
 37 38  1  0
 38 40  1  0
 38 41  1  0
 39 37  2  0
 42 17  1  0
 42 43  1  0
 44 42  1  0
 45 46  1  0
 45  1  2  0
 47 46  2  0
 47 48  1  0
 49 60  2  0
 50 48  1  0
 50 55  1  0
 51 59  1  0
 51 61  1  0
 52 58  1  0
 52 54  1  0
 53 59  1  0
 54 53  1  0
 55 54  2  0
 56 57  1  0
 56 50  2  0
 57 52  2  0
 58 51  1  0
 59 49  1  0
 61 63  2  0
 62 61  1  0
 64 62  1  0
 65 74  2  0
 65 70  1  0
 66 62  1  0
 66 70  1  0
 67 66  1  0
 68 69  1  0
 68 67  1  0
 69 65  1  0
 70 71  2  0
 71 72  1  0
 73 72  2  0
 74 73  1  0
 75 49  1  0
 75 80  1  0
 75 76  1  0
 76 79  1  1
 76 77  1  0
 78 76  1  0
 80 83  1  0
 81 85  1  0
 81 80  1  0
 82 81  2  0
 85 84  1  0
 87 88  1  0
 87 85  1  0
 87 86  1  0
M  ISO  4   4 100   9 100  47 101  48 101
M  END
>  <TORSDO>  (15) 
F 20

>  <SCORE>  (15) 
-9.637

>  <name>  (15) 
14

>  <ligand_id>  (15) 
14

>  <original_smiles>  (15) 
[H]c1nc(C([H])([H])C([H])([H])C([H])([H])C([H])([H])Oc2c([H])c([H])c3c(c2[H])C([H])([H])N(C(=O)C([H])(N([H])C(=O)C([H])(N([H])C([H])([H])[H])C([H])([H])[H])C(C([H])([H])[H])(C([H])([H])[H])C([H])([H])[H])C([H])(C(=O)N([H])C2([H])c4c([H])c([H])c([H])c([H])c4C([H])([H])C([H])([H])C2([H])[H])C3([H])[H])c(C([H])([H])[H])c([H])c1C(=O)N1C([H])([H])C([H])([H])C([H])([H])C([H])(n2nc(-c3c([H])c([H])c(Oc4c([H])c([H])c(F)c([H])c4F)c([H])c3[H])c(C(=O)N([H])[H])c2N([H])[H])C1([H])[H]

>  <smiles>  (15) 
[H]c1nc(C([H])([H])C([H])([H])C([H])([H])C([H])([H])Oc2c([H])c([H])c3c(c2[H])C([H])([H])N(C(=O)C([H])(N([H])C(=O)C([H])(N([H])C([H])([H])[H])C([H])([H])[H])C(C([H])([H])[H])(C([H])([H])[H])C([H])([H])[H])C([H])(C(=O)N([H])C2([H])c4c([H])c([H])c([H])c([H])c4C([H])([H])C([H])([H])C2([H])[H])C3([H])[H])c(C([H])([H])[H])c([H])c1C(=O)N1C([H])([H])C([H])([H])C([H])([H])C([H])(n2nc(-c3c([H])c([H])c(Oc4c([H])c([H])c(F)c([H])c4F)c([H])c3[H])c(C(=O)N([H])[H])c2N([H])[H])C1([H])[H]

$$$$
15:0:0
     RDKit          3D

 90 98  0  0  1  0  0  0  0  0999 V2000
  -30.2950  -23.4080   19.6170 C   0  0  0  0  0  3  0  0  0  0  0  0
  -29.0040  -23.9920   19.7480 C   0  0  0  0  0  0  0  0  0  0  0  0
  -28.2530  -21.8750   20.4670 C   0  0  0  0  0  0  0  0  0  0  0  0
  -29.5550  -21.2940   20.3370 C   0  0  0  0  0  0  0  0  0  0  0  0
  -27.0890  -21.0620   20.9960 C   0  0  0  0  0  1  0  0  0  0  0  0
  -30.5660  -22.0940   19.8980 N   0  0  0  0  0  0  0  0  0  0  0  0
  -27.9790  -23.1910   20.1660 N   0  0  0  0  0  0  0  0  0  0  0  0
  -29.9630  -19.8690   20.8860 C   0  0  0  0  0  2  0  0  0  0  0  0
  -29.6800  -18.4980   20.1190 C   0  0  0  0  0  2  0  0  0  0  0  0
  -30.4220  -17.2180   20.7340 C   0  0  0  0  0  2  0  0  0  0  0  0
  -30.6800  -14.7220   20.0290 C   0  0  0  0  0  0  0  0  0  0  0  0
  -30.3770  -12.5080   18.9330 C   0  0  0  0  0  2  0  0  0  0  0  0
  -29.3770  -12.6480   17.7640 C   0  0  0  0  0  2  0  0  0  0  0  0
  -27.9280  -12.4910   18.2660 C   0  0  0  0  0  2  0  0  0  0  0  0
  -27.6340  -13.3560   19.5220 C   0  0  0  0  0  3  0  0  0  0  0  0
  -28.7420  -13.1910   20.5840 C   0  0  0  0  0  2  0  0  0  0  0  0
  -30.0200  -13.5240   19.9420 N   0  0  0  0  0  0  0  0  0  0  0  0
  -31.8400  -14.8410   19.6260 O   0  0  0  0  0  0  0  0  0  0  0  0
  -29.9490  -15.8180   20.4170 N   0  0  0  0  0  0  0  0  0  0  0  0
  -28.9900  -15.6130   20.6570 H   0  0  0  0  0  0  0  0  0  0  0  0
  -25.2840  -13.9740   20.3510 C   0  0  0  0  0  0  0  0  0  0  0  0
  -24.2260  -13.2070   20.7640 C   0  0  0  0  0  0  0  0  0  0  0  0
  -24.6760  -11.8530   20.7100 C   0  0  0  0  0  0  0  0  0  0  0  0
  -26.3080  -13.0840   20.0680 N   0  0  0  0  0  0  0  0  0  0  0  0
  -25.9510  -11.8050   20.3450 N   0  0  0  0  0  0  0  0  0  0  0  0
  -23.9490  -10.5960   20.9260 C   0  0  0  0  0  0  0  0  0  0  0  0
  -24.4020   -9.6280   21.8500 C   0  0  0  0  0  3  0  0  0  0  0  0
  -23.6740   -8.4370   22.0550 C   0  0  0  0  0  3  0  0  0  0  0  0
  -22.4790   -8.2020   21.3360 C   0  0  0  0  0  0  0  0  0  0  0  0
  -22.0430   -9.1570   20.4000 C   0  0  0  0  0  3  0  0  0  0  0  0
  -22.7720  -10.3410   20.1940 C   0  0  0  0  0  3  0  0  0  0  0  0
  -21.7210   -7.0620   21.4490 O   0  0  0  0  0  0  0  0  0  0  0  0
  -21.6940   -6.3280   22.6070 C   0  0  0  0  0  0  0  0  0  0  0  0
  -21.2870   -6.8910   23.8370 C   0  0  0  0  0  3  0  0  0  0  0  0
  -21.2090   -6.0830   24.9880 C   0  0  0  0  0  3  0  0  0  0  0  0
  -21.5270   -4.7140   24.9130 C   0  0  0  0  0  0  0  0  0  0  0  0
  -21.9290   -4.1520   23.6880 C   0  0  0  0  0  3  0  0  0  0  0  0
  -22.0090   -4.9560   22.5380 C   0  0  0  0  0  0  0  0  0  0  0  0
  -22.3760   -4.4040   21.3560 F   0  0  0  0  0  0  0  0  0  0  0  0
  -21.4450   -3.9360   26.0170 F   0  0  0  0  0  0  0  0  0  0  0  0
  -22.8470  -13.6970   21.0970 C   0  0  0  0  0  0  0  0  0  0  0  0
  -22.1510  -13.0010   21.9910 N   0  0  0  0  0  0  0  0  0  0  0  0
  -22.3980  -14.7280   20.6020 O   0  0  0  0  0  0  0  0  0  0  0  0
  -22.5270  -12.1650   22.4110 H   0  0  0  0  0  0  0  0  0  0  0  0
  -21.2280  -13.3140   22.2600 H   0  0  0  0  0  0  0  0  0  0  0  0
  -25.4520  -15.3420   20.1700 N   0  0  0  0  0  0  0  0  0  0  0  0
  -24.6920  -16.0000   20.3080 H   0  0  0  0  0  0  0  0  0  0  0  0
  -26.2810  -15.7730   19.7820 H   0  0  0  0  0  0  0  0  0  0  0  0
  -28.7030  -25.4390   19.1930 C   0  0  0  0  0  2  0  0  0  0  0  0
  -28.4880  -26.5880   20.1010 O   0  0  0  0  0  0  0  0  0  0  0  0
  -24.6550  -31.8740   23.1600 C   0  0  0  0  0  0  0  0  0  0  0  0
  -27.3380  -27.3930   20.0380 C   0  0  0  0  0  0  0  0  0  0  0  0
  -23.4730  -30.4830   21.4990 C   0  0  0  0  0  3  0  0  0  0  0  0
  -24.9470  -28.9710   20.0550 C   0  0  0  0  0  0  0  0  0  0  0  0
  -26.0080  -30.8340   21.3270 C   0  0  0  0  0  2  0  0  0  0  0  0
  -26.1060  -29.4650   20.6640 C   0  0  0  0  0  0  0  0  0  0  0  0
  -27.3000  -28.6840   20.6530 C   0  0  0  0  0  3  0  0  0  0  0  0
  -26.1430  -26.9430   19.4290 C   0  0  0  0  0  3  0  0  0  0  0  0
  -24.9660  -27.7160   19.4330 C   0  0  0  0  0  3  0  0  0  0  0  0
  -23.6990  -29.8280   20.1110 C   0  0  0  0  0  2  0  0  0  0  0  0
  -24.7320  -31.0790   22.0540 N   0  0  0  0  0  0  0  0  0  0  0  0
  -23.5680  -32.1340   23.6940 O   0  0  0  0  0  0  0  0  0  0  0  0
  -22.8170  -29.4480   22.4420 C   0  0  0  0  0  0  0  0  0  0  0  0
  -21.4920  -29.2640   22.3120 N   0  0  0  0  0  0  0  0  0  0  0  0
  -23.4980  -28.8130   23.2510 O   0  0  0  0  0  0  0  0  0  0  0  0
  -20.9980  -29.8330   21.6360 H   0  0  0  0  0  0  0  0  0  0  0  0
  -18.1200  -28.0510   22.7970 C   0  0  0  0  0  0  0  0  0  0  0  0
  -20.6780  -28.3100   23.0680 C   0  0  0  0  0  3  0  0  0  0  0  0
  -20.7820  -26.8900   22.4650 C   0  0  0  0  0  2  0  0  0  0  0  0
  -19.6790  -26.5840   21.4470 C   0  0  0  0  0  2  0  0  0  0  0  0
  -18.2970  -26.7150   22.0950 C   0  0  0  0  0  2  0  0  0  0  0  0
  -19.2370  -28.8070   23.2390 C   0  0  0  0  0  0  0  0  0  0  0  0
  -19.0160  -30.0600   23.8520 C   0  0  0  0  0  3  0  0  0  0  0  0
  -17.7110  -30.5550   24.0290 C   0  0  0  0  0  3  0  0  0  0  0  0
  -16.6070  -29.7940   23.6050 C   0  0  0  0  0  3  0  0  0  0  0  0
  -16.8130  -28.5440   22.9950 C   0  0  0  0  0  3  0  0  0  0  0  0
  -25.9270  -32.5120   23.7960 C   0  0  0  0  0  3  0  0  0  0  0  0
  -26.4310  -31.7450   25.0790 C   0  0  1  0  0  0  0  0  0  0  0  0
  -25.3250  -31.5060   26.1340 C   0  0  0  0  0  1  0  0  0  0  0  0
  -27.0230  -30.3690   24.6960 C   0  0  0  0  0  1  0  0  0  0  0  0
  -27.5700  -32.5450   25.7530 C   0  0  0  0  0  1  0  0  0  0  0  0
  -25.6080  -33.9100   24.1200 N   0  0  0  0  0  0  0  0  0  0  0  0
  -25.9460  -34.9630   23.3630 C   0  0  0  0  0  0  0  0  0  0  0  0
  -26.6280  -34.8600   22.3390 O   0  0  0  0  0  0  0  0  0  0  0  0
  -25.0020  -34.0620   24.9120 H   0  0  0  0  0  0  0  0  0  0  0  0
  -24.2190  -36.7530   22.9880 C   0  0  0  0  0  1  0  0  0  0  0  0
  -25.4510  -36.3520   23.8120 C   0  0  0  0  0  3  0  0  0  0  0  0
  -27.5740  -37.2470   24.6660 C   0  0  0  0  0  1  0  0  0  0  0  0
  -26.4830  -37.4060   23.7070 N   0  0  0  0  0  0  0  0  0  0  0  0
  -26.0730  -38.3270   23.8450 H   0  0  0  0  0  0  0  0  0  0  0  0
  1  2  2  0
  1  6  1  0
  2  7  1  0
  3  5  1  0
  4  3  1  0
  4  8  1  0
  6  4  2  0
  7  3  2  0
  9 10  1  0
  9  8  1  0
 11 19  1  0
 12 17  1  0
 13 14  1  0
 13 12  1  0
 15 14  1  0
 15 24  1  0
 15 16  1  0
 17 11  1  0
 17 16  1  0
 18 11  2  0
 19 20  1  0
 19 10  1  0
 21 22  2  0
 22 41  1  0
 23 22  1  0
 23 26  1  0
 24 25  1  0
 24 21  1  0
 25 23  2  0
 26 27  1  0
 27 28  2  0
 29 32  1  0
 29 28  1  0
 30 29  2  0
 31 30  1  0
 31 26  2  0
 32 33  1  0
 33 34  1  0
 34 35  2  0
 36 35  1  0
 36 40  1  0
 37 36  2  0
 38 33  2  0
 38 37  1  0
 39 38  1  0
 41 42  1  0
 42 45  1  0
 42 44  1  0
 43 41  2  0
 46 47  1  0
 46 21  1  0
 48 46  1  0
 49  2  1  0
 49 50  1  0
 51 62  2  0
 52 50  1  0
 52 57  1  0
 53 61  1  0
 53 63  1  0
 54 60  1  0
 54 56  1  0
 55 61  1  0
 56 55  1  0
 57 56  2  0
 58 59  1  0
 58 52  2  0
 59 54  2  0
 60 53  1  0
 61 51  1  0
 63 65  2  0
 64 63  1  0
 66 64  1  0
 67 76  2  0
 67 72  1  0
 68 64  1  0
 68 72  1  0
 69 68  1  0
 70 71  1  0
 70 69  1  0
 71 67  1  0
 72 73  2  0
 73 74  1  0
 75 74  2  0
 76 75  1  0
 77 51  1  0
 77 82  1  0
 77 78  1  0
 78 81  1  1
 78 79  1  0
 80 78  1  0
 82 85  1  0
 83 87  1  0
 83 82  1  0
 84 83  2  0
 87 86  1  0
 89 87  1  0
 89 90  1  0
 89 88  1  0
M  ISO  4  11 100  19 100  49 101  50 101
M  END
>  <TORSDO>  (16) 
F 20

>  <SCORE>  (16) 
-12.534

>  <name>  (16) 
15

>  <ligand_id>  (16) 
15

>  <original_smiles>  (16) 
[H]c1nc(C([H])([H])C([H])([H])C([H])([H])N([H])C(=O)N2C([H])([H])C([H])([H])C([H])([H])C([H])(n3nc(-c4c([H])c([H])c(Oc5c([H])c([H])c(F)c([H])c5F)c([H])c4[H])c(C(=O)N([H])[H])c3N([H])[H])C2([H])[H])c(C([H])([H])[H])nc1C([H])([H])Oc1c([H])c([H])c2c(c1[H])C([H])([H])N(C(=O)C([H])(N([H])C(=O)C([H])(N([H])C([H])([H])[H])C([H])([H])[H])C(C([H])([H])[H])(C([H])([H])[H])C([H])([H])[H])C([H])(C(=O)N([H])C1([H])c3c([H])c([H])c([H])c([H])c3C([H])([H])C([H])([H])C1([H])[H])C2([H])[H]

>  <smiles>  (16) 
[H]c1nc(C([H])([H])C([H])([H])C([H])([H])N([H])C(=O)N2C([H])([H])C([H])([H])C([H])([H])C([H])(n3nc(-c4c([H])c([H])c(Oc5c([H])c([H])c(F)c([H])c5F)c([H])c4[H])c(C(=O)N([H])[H])c3N([H])[H])C2([H])[H])c(C([H])([H])[H])nc1C([H])([H])Oc1c([H])c([H])c2c(c1[H])C([H])([H])N(C(=O)C([H])(N([H])C(=O)C([H])(N([H])C([H])([H])[H])C([H])([H])[H])C(C([H])([H])[H])(C([H])([H])[H])C([H])([H])[H])C([H])(C(=O)N([H])C1([H])c3c([H])c([H])c([H])c([H])c3C([H])([H])C([H])([H])C1([H])[H])C2([H])[H]

$$$$
16:0:0
     RDKit          3D

 91 99  0  0  1  0  0  0  0  0999 V2000
  -29.6540  -20.8740   19.3040 C   0  0  0  0  0  3  0  0  0  0  0  0
  -29.5080  -20.2030   20.5450 C   0  0  0  0  0  0  0  0  0  0  0  0
  -29.4120  -22.2650   21.6130 C   0  0  0  0  0  0  0  0  0  0  0  0
  -29.5660  -22.9420   20.3700 C   0  0  0  0  0  0  0  0  0  0  0  0
  -29.2420  -23.0060   22.9280 C   0  0  0  0  0  1  0  0  0  0  0  0
  -29.6850  -22.2330   19.2150 N   0  0  0  0  0  0  0  0  0  0  0  0
  -29.3960  -20.9090   21.7000 N   0  0  0  0  0  0  0  0  0  0  0  0
  -29.4200  -18.6710   20.6560 C   0  0  0  0  0  2  0  0  0  0  0  0
  -30.7680  -17.9580   20.9370 C   0  0  0  0  0  2  0  0  0  0  0  0
  -30.7230  -16.6470   21.7800 C   0  0  0  0  0  2  0  0  0  0  0  0
  -30.8310  -14.4980   20.4600 C   0  0  0  0  0  0  0  0  0  0  0  0
  -30.5260  -12.3740   19.2250 C   0  0  0  0  0  2  0  0  0  0  0  0
  -29.5760  -12.5890   18.0290 C   0  0  0  0  0  2  0  0  0  0  0  0
  -28.1030  -12.4570   18.4600 C   0  0  0  0  0  2  0  0  0  0  0  0
  -27.7750  -13.2780   19.7350 C   0  0  0  0  0  3  0  0  0  0  0  0
  -28.8250  -13.0150   20.8340 C   0  0  0  0  0  2  0  0  0  0  0  0
  -30.1480  -13.3360   20.2720 N   0  0  0  0  0  0  0  0  0  0  0  0
  -31.9540  -14.7040   19.9910 O   0  0  0  0  0  0  0  0  0  0  0  0
  -30.1610  -15.4490   21.1390 N   0  0  0  0  0  0  0  0  0  0  0  0
  -29.2210  -15.2000   21.4070 H   0  0  0  0  0  0  0  0  0  0  0  0
  -25.3710  -13.9010   20.4100 C   0  0  0  0  0  0  0  0  0  0  0  0
  -24.2980  -13.1350   20.7790 C   0  0  0  0  0  0  0  0  0  0  0  0
  -24.7590  -11.7840   20.7750 C   0  0  0  0  0  0  0  0  0  0  0  0
  -26.4170  -13.0160   20.2040 N   0  0  0  0  0  0  0  0  0  0  0  0
  -26.0520  -11.7380   20.4800 N   0  0  0  0  0  0  0  0  0  0  0  0
  -24.0300  -10.5250   20.9750 C   0  0  0  0  0  0  0  0  0  0  0  0
  -24.4530   -9.5670   21.9240 C   0  0  0  0  0  3  0  0  0  0  0  0
  -23.7240   -8.3730   22.1090 C   0  0  0  0  0  3  0  0  0  0  0  0
  -22.5570   -8.1290   21.3470 C   0  0  0  0  0  0  0  0  0  0  0  0
  -22.1540   -9.0740   20.3890 C   0  0  0  0  0  3  0  0  0  0  0  0
  -22.8830  -10.2600   20.2000 C   0  0  0  0  0  3  0  0  0  0  0  0
  -21.8000   -6.9860   21.4420 O   0  0  0  0  0  0  0  0  0  0  0  0
  -21.7370   -6.2590   22.6050 C   0  0  0  0  0  0  0  0  0  0  0  0
  -21.2980   -6.8320   23.8180 C   0  0  0  0  0  3  0  0  0  0  0  0
  -21.1830   -6.0340   24.9740 C   0  0  0  0  0  3  0  0  0  0  0  0
  -21.4940   -4.6620   24.9140 C   0  0  0  0  0  0  0  0  0  0  0  0
  -21.9260   -4.0890   23.7050 C   0  0  0  0  0  3  0  0  0  0  0  0
  -22.0440   -4.8850   22.5530 C   0  0  0  0  0  0  0  0  0  0  0  0
  -22.4400   -4.3230   21.3850 F   0  0  0  0  0  0  0  0  0  0  0  0
  -21.3760   -3.8910   26.0220 F   0  0  0  0  0  0  0  0  0  0  0  0
  -22.8990  -13.6190   21.0290 C   0  0  0  0  0  0  0  0  0  0  0  0
  -22.1640  -12.9370   21.9010 N   0  0  0  0  0  0  0  0  0  0  0  0
  -22.4660  -14.6350   20.4890 O   0  0  0  0  0  0  0  0  0  0  0  0
  -22.5260  -12.1120   22.3550 H   0  0  0  0  0  0  0  0  0  0  0  0
  -21.2260  -13.2440   22.1170 H   0  0  0  0  0  0  0  0  0  0  0  0
  -25.5400  -15.2690   20.2150 N   0  0  0  0  0  0  0  0  0  0  0  0
  -24.7750  -15.9280   20.3150 H   0  0  0  0  0  0  0  0  0  0  0  0
  -26.3930  -15.7030   19.8850 H   0  0  0  0  0  0  0  0  0  0  0  0
  -29.6620  -24.4780   20.2630 C   0  0  0  0  0  2  0  0  0  0  0  0
  -28.3260  -25.2160   19.9920 C   0  0  0  0  0  2  0  0  0  0  0  0
  -28.4490  -26.6570   20.1140 O   0  0  0  0  0  0  0  0  0  0  0  0
  -24.6690  -31.8690   23.2270 C   0  0  0  0  0  0  0  0  0  0  0  0
  -27.2800  -27.4060   20.1090 C   0  0  0  0  0  0  0  0  0  0  0  0
  -23.4540  -30.4760   21.5860 C   0  0  0  0  0  3  0  0  0  0  0  0
  -24.8950  -28.9470   20.1420 C   0  0  0  0  0  0  0  0  0  0  0  0
  -25.9820  -30.8250   21.3780 C   0  0  0  0  0  2  0  0  0  0  0  0
  -26.0600  -29.4560   20.7240 C   0  0  0  0  0  0  0  0  0  0  0  0
  -27.2570  -28.6940   20.7000 C   0  0  0  0  0  3  0  0  0  0  0  0
  -26.0850  -26.9180   19.5250 C   0  0  0  0  0  3  0  0  0  0  0  0
  -24.9030  -27.6780   19.5400 C   0  0  0  0  0  3  0  0  0  0  0  0
  -23.6550  -29.8120   20.1990 C   0  0  0  0  0  2  0  0  0  0  0  0
  -24.7200  -31.0720   22.1210 N   0  0  0  0  0  0  0  0  0  0  0  0
  -23.5900  -32.1400   23.7720 O   0  0  0  0  0  0  0  0  0  0  0  0
  -22.8070  -29.4500   22.5440 C   0  0  0  0  0  0  0  0  0  0  0  0
  -21.4810  -29.2710   22.4230 N   0  0  0  0  0  0  0  0  0  0  0  0
  -23.4950  -28.8190   23.3510 O   0  0  0  0  0  0  0  0  0  0  0  0
  -20.9900  -29.8330   21.7410 H   0  0  0  0  0  0  0  0  0  0  0  0
  -18.1040  -28.0850   22.9360 C   0  0  0  0  0  0  0  0  0  0  0  0
  -20.6650  -28.3320   23.1920 C   0  0  0  0  0  3  0  0  0  0  0  0
  -20.7590  -26.9060   22.6040 C   0  0  0  0  0  2  0  0  0  0  0  0
  -19.6490  -26.5930   21.5950 C   0  0  0  0  0  2  0  0  0  0  0  0
  -18.2720  -26.7380   22.2510 C   0  0  0  0  0  2  0  0  0  0  0  0
  -19.2290  -28.8390   23.3640 C   0  0  0  0  0  0  0  0  0  0  0  0
  -19.0200  -30.0990   23.9660 C   0  0  0  0  0  3  0  0  0  0  0  0
  -17.7180  -30.6050   24.1420 C   0  0  0  0  0  3  0  0  0  0  0  0
  -16.6080  -29.8470   23.7300 C   0  0  0  0  0  3  0  0  0  0  0  0
  -16.8020  -28.5880   23.1330 C   0  0  0  0  0  3  0  0  0  0  0  0
  -25.9560  -32.4970   23.8430 C   0  0  0  0  0  3  0  0  0  0  0  0
  -25.6460  -33.8900   24.1900 N   0  0  0  0  0  0  0  0  0  0  0  0
  -25.9620  -34.9510   23.4350 C   0  0  0  0  0  0  0  0  0  0  0  0
  -26.6170  -34.8600   22.3930 O   0  0  0  0  0  0  0  0  0  0  0  0
  -25.0560  -34.0350   24.9970 H   0  0  0  0  0  0  0  0  0  0  0  0
  -24.2170  -36.7370   23.1290 C   0  0  0  0  0  1  0  0  0  0  0  0
  -25.4760  -36.3330   23.9120 C   0  0  0  0  0  3  0  0  0  0  0  0
  -27.6250  -37.2220   24.7080 C   0  0  0  0  0  1  0  0  0  0  0  0
  -26.5030  -37.3910   23.7870 N   0  0  0  0  0  0  0  0  0  0  0  0
  -26.0960  -38.3090   23.9480 H   0  0  0  0  0  0  0  0  0  0  0  0
  -26.4890  -31.7110   25.1030 C   0  0  1  0  0  0  0  0  0  0  0  0
  -25.4080  -31.4520   26.1790 C   0  0  0  0  0  1  0  0  0  0  0  0
  -27.0720  -30.3420   24.6850 C   0  0  0  0  0  1  0  0  0  0  0  0
  -27.6470  -32.5010   25.7620 C   0  0  0  0  0  1  0  0  0  0  0  0
  1  2  1  0
  2  8  1  0
  2  7  2  0
  3  7  1  0
  3  5  1  0
  4  3  2  0
  6  1  2  0
  6  4  1  0
  8  9  1  0
  9 10  1  0
 11 19  1  0
 12 17  1  0
 13 14  1  0
 13 12  1  0
 15 14  1  0
 15 24  1  0
 15 16  1  0
 17 11  1  0
 17 16  1  0
 18 11  2  0
 19 20  1  0
 19 10  1  0
 21 22  2  0
 22 41  1  0
 23 22  1  0
 23 26  1  0
 24 21  1  0
 24 25  1  0
 25 23  2  0
 26 27  1  0
 27 28  2  0
 29 32  1  0
 29 28  1  0
 30 29  2  0
 31 30  1  0
 31 26  2  0
 32 33  1  0
 33 34  1  0
 34 35  2  0
 36 35  1  0
 36 40  1  0
 37 36  2  0
 38 33  2  0
 38 37  1  0
 39 38  1  0
 41 42  1  0
 42 45  1  0
 42 44  1  0
 43 41  2  0
 46 47  1  0
 46 21  1  0
 48 46  1  0
 49  4  1  0
 50 51  1  0
 50 49  1  0
 52 63  2  0
 53 51  1  0
 53 58  1  0
 54 62  1  0
 54 64  1  0
 55 61  1  0
 55 57  1  0
 56 62  1  0
 57 56  1  0
 58 57  2  0
 59 60  1  0
 59 53  2  0
 60 55  2  0
 61 54  1  0
 62 52  1  0
 64 66  2  0
 65 64  1  0
 67 65  1  0
 68 77  2  0
 68 73  1  0
 69 65  1  0
 69 73  1  0
 70 69  1  0
 71 72  1  0
 71 70  1  0
 72 68  1  0
 73 74  2  0
 74 75  1  0
 76 75  2  0
 77 76  1  0
 78 52  1  0
 78 79  1  0
 78 88  1  0
 79 82  1  0
 80 84  1  0
 80 79  1  0
 81 80  2  0
 84 83  1  0
 86 84  1  0
 86 87  1  0
 86 85  1  0
 88 91  1  1
 88 89  1  0
 90 88  1  0
M  ISO  4  11 100  19 100  50 101  51 101
M  END
>  <TORSDO>  (17) 
F 21

>  <SCORE>  (17) 
-13.489

>  <name>  (17) 
16

>  <ligand_id>  (17) 
16

>  <original_smiles>  (17) 
[H]c1nc(C([H])([H])C([H])([H])Oc2c([H])c([H])c3c(c2[H])C([H])([H])N(C(=O)C([H])(N([H])C(=O)C([H])(N([H])C([H])([H])[H])C([H])([H])[H])C(C([H])([H])[H])(C([H])([H])[H])C([H])([H])[H])C([H])(C(=O)N([H])C2([H])c4c([H])c([H])c([H])c([H])c4C([H])([H])C([H])([H])C2([H])[H])C3([H])[H])c(C([H])([H])[H])nc1C([H])([H])C([H])([H])C([H])([H])N([H])C(=O)N1C([H])([H])C([H])([H])C([H])([H])C([H])(n2nc(-c3c([H])c([H])c(Oc4c([H])c([H])c(F)c([H])c4F)c([H])c3[H])c(C(=O)N([H])[H])c2N([H])[H])C1([H])[H]

>  <smiles>  (17) 
[H]c1nc(C([H])([H])C([H])([H])Oc2c([H])c([H])c3c(c2[H])C([H])([H])N(C(=O)C([H])(N([H])C(=O)C([H])(N([H])C([H])([H])[H])C([H])([H])[H])C(C([H])([H])[H])(C([H])([H])[H])C([H])([H])[H])C([H])(C(=O)N([H])C2([H])c4c([H])c([H])c([H])c([H])c4C([H])([H])C([H])([H])C2([H])[H])C3([H])[H])c(C([H])([H])[H])nc1C([H])([H])C([H])([H])C([H])([H])N([H])C(=O)N1C([H])([H])C([H])([H])C([H])([H])C([H])(n2nc(-c3c([H])c([H])c(Oc4c([H])c([H])c(F)c([H])c4F)c([H])c3[H])c(C(=O)N([H])[H])c2N([H])[H])C1([H])[H]

$$$$
17:0:0
     RDKit          3D

 92100  0  0  1  0  0  0  0  0999 V2000
  -30.2250  -20.8210   23.4970 C   0  0  0  0  0  3  0  0  0  0  0  0
  -29.9720  -22.2040   23.3920 C   0  0  0  0  0  0  0  0  0  0  0  0
  -29.7290  -20.5380   21.2470 C   0  0  0  0  0  0  0  0  0  0  0  0
  -29.4980  -21.9660   21.1330 C   0  0  0  0  0  0  0  0  0  0  0  0
  -30.0350  -23.1080   24.6040 C   0  0  0  0  0  1  0  0  0  0  0  0
  -30.0930  -19.9950   22.4360 N   0  0  0  0  0  0  0  0  0  0  0  0
  -29.6170  -22.7710   22.2180 N   0  0  0  0  0  0  0  0  0  0  0  0
  -29.3750  -19.4770   20.1760 C   0  0  0  0  0  2  0  0  0  0  0  0
  -30.2570  -18.1690   20.0180 C   0  0  0  0  0  2  0  0  0  0  0  0
  -30.2610  -17.0880   21.1620 C   0  0  0  0  0  2  0  0  0  0  0  0
  -30.7220  -14.6480   20.3840 C   0  0  0  0  0  0  0  0  0  0  0  0
  -30.4760  -12.4610   19.2380 C   0  0  0  0  0  2  0  0  0  0  0  0
  -29.5320  -12.6340   18.0290 C   0  0  0  0  0  2  0  0  0  0  0  0
  -28.0540  -12.4930   18.4520 C   0  0  0  0  0  2  0  0  0  0  0  0
  -27.7080  -13.3370   19.7090 C   0  0  0  0  0  3  0  0  0  0  0  0
  -28.7600  -13.1210   20.8180 C   0  0  0  0  0  2  0  0  0  0  0  0
  -30.0770  -13.4520   20.2510 N   0  0  0  0  0  0  0  0  0  0  0  0
  -31.8870  -14.8190   20.0140 O   0  0  0  0  0  0  0  0  0  0  0  0
  -29.9390  -15.6790   20.7950 N   0  0  0  0  0  0  0  0  0  0  0  0
  -28.9860  -15.4040   20.9850 H   0  0  0  0  0  0  0  0  0  0  0  0
  -25.3100  -13.9600   20.4000 C   0  0  0  0  0  0  0  0  0  0  0  0
  -24.2380  -13.1970   20.7740 C   0  0  0  0  0  0  0  0  0  0  0  0
  -24.6950  -11.8440   20.7660 C   0  0  0  0  0  0  0  0  0  0  0  0
  -26.3540  -13.0710   20.1870 N   0  0  0  0  0  0  0  0  0  0  0  0
  -25.9870  -11.7950   20.4670 N   0  0  0  0  0  0  0  0  0  0  0  0
  -23.9630  -10.5860   20.9710 C   0  0  0  0  0  0  0  0  0  0  0  0
  -24.3910   -9.6280   21.9160 C   0  0  0  0  0  3  0  0  0  0  0  0
  -23.6610   -8.4360   22.1060 C   0  0  0  0  0  3  0  0  0  0  0  0
  -22.4880   -8.1930   21.3530 C   0  0  0  0  0  0  0  0  0  0  0  0
  -22.0780   -9.1400   20.3980 C   0  0  0  0  0  3  0  0  0  0  0  0
  -22.8080  -10.3240   20.2050 C   0  0  0  0  0  3  0  0  0  0  0  0
  -21.7290   -7.0510   21.4520 O   0  0  0  0  0  0  0  0  0  0  0  0
  -21.6790   -6.3190   22.6100 C   0  0  0  0  0  0  0  0  0  0  0  0
  -21.2710   -6.8880   23.8370 C   0  0  0  0  0  3  0  0  0  0  0  0
  -21.1700   -6.0820   24.9880 C   0  0  0  0  0  3  0  0  0  0  0  0
  -21.4670   -4.7090   24.9140 C   0  0  0  0  0  0  0  0  0  0  0  0
  -21.8690   -4.1390   23.6940 C   0  0  0  0  0  3  0  0  0  0  0  0
  -21.9730   -4.9420   22.5450 C   0  0  0  0  0  0  0  0  0  0  0  0
  -22.3390   -4.3830   21.3660 F   0  0  0  0  0  0  0  0  0  0  0  0
  -21.3630   -3.9320   26.0190 F   0  0  0  0  0  0  0  0  0  0  0  0
  -22.8390  -13.6830   21.0280 C   0  0  0  0  0  0  0  0  0  0  0  0
  -22.1030  -13.0030   21.9010 N   0  0  0  0  0  0  0  0  0  0  0  0
  -22.4080  -14.6990   20.4860 O   0  0  0  0  0  0  0  0  0  0  0  0
  -22.4640  -12.1810   22.3620 H   0  0  0  0  0  0  0  0  0  0  0  0
  -21.1640  -13.3090   22.1100 H   0  0  0  0  0  0  0  0  0  0  0  0
  -25.4830  -15.3280   20.2030 N   0  0  0  0  0  0  0  0  0  0  0  0
  -24.7190  -15.9910   20.2950 H   0  0  0  0  0  0  0  0  0  0  0  0
  -26.3360  -15.7570   19.8690 H   0  0  0  0  0  0  0  0  0  0  0  0
  -28.9600  -22.7050   19.8870 C   0  0  0  0  0  2  0  0  0  0  0  0
  -29.2520  -24.2570   19.7500 C   0  0  0  0  0  3  0  0  0  0  0  0
  -28.3120  -25.2500   20.5160 C   0  0  0  0  0  3  0  0  0  0  0  0
  -28.4440  -26.6590   20.1420 O   0  0  0  0  0  0  0  0  0  0  0  0
  -24.6090  -31.8950   23.2040 C   0  0  0  0  0  0  0  0  0  0  0  0
  -27.2860  -27.4290   20.1380 C   0  0  0  0  0  0  0  0  0  0  0  0
  -23.4170  -30.4850   21.5630 C   0  0  0  0  0  3  0  0  0  0  0  0
  -24.8850  -28.9560   20.1380 C   0  0  0  0  0  0  0  0  0  0  0  0
  -25.9450  -30.8530   21.3690 C   0  0  0  0  0  2  0  0  0  0  0  0
  -26.0430  -29.4780   20.7290 C   0  0  0  0  0  0  0  0  0  0  0  0
  -27.2470  -28.7260   20.7200 C   0  0  0  0  0  3  0  0  0  0  0  0
  -26.1100  -26.9440   19.5250 C   0  0  0  0  0  3  0  0  0  0  0  0
  -24.9160  -27.6900   19.5310 C   0  0  0  0  0  3  0  0  0  0  0  0
  -23.6340  -29.8050   20.1840 C   0  0  0  0  0  2  0  0  0  0  0  0
  -24.6760  -31.0920   22.1030 N   0  0  0  0  0  0  0  0  0  0  0  0
  -23.5240  -32.1580   23.7440 O   0  0  0  0  0  0  0  0  0  0  0  0
  -22.7710  -29.4590   22.5240 C   0  0  0  0  0  0  0  0  0  0  0  0
  -21.4450  -29.2720   22.4020 N   0  0  0  0  0  0  0  0  0  0  0  0
  -23.4580  -28.8340   23.3350 O   0  0  0  0  0  0  0  0  0  0  0  0
  -20.9480  -29.8310   21.7230 H   0  0  0  0  0  0  0  0  0  0  0  0
  -18.0790  -28.0590   22.9120 C   0  0  0  0  0  0  0  0  0  0  0  0
  -20.6360  -28.3270   23.1730 C   0  0  0  0  0  3  0  0  0  0  0  0
  -20.7420  -26.8980   22.5900 C   0  0  0  0  0  2  0  0  0  0  0  0
  -19.6370  -26.5760   21.5790 C   0  0  0  0  0  2  0  0  0  0  0  0
  -18.2570  -26.7140   22.2290 C   0  0  0  0  0  2  0  0  0  0  0  0
  -19.1960  -28.8240   23.3400 C   0  0  0  0  0  0  0  0  0  0  0  0
  -18.9740  -30.0850   23.9360 C   0  0  0  0  0  3  0  0  0  0  0  0
  -17.6680  -30.5790   24.1090 C   0  0  0  0  0  3  0  0  0  0  0  0
  -16.5650  -29.8110   23.6980 C   0  0  0  0  0  3  0  0  0  0  0  0
  -16.7710  -28.5530   23.1040 C   0  0  0  0  0  3  0  0  0  0  0  0
  -25.8880  -32.5390   23.8260 C   0  0  0  0  0  3  0  0  0  0  0  0
  -25.5650  -33.9330   24.1620 N   0  0  0  0  0  0  0  0  0  0  0  0
  -25.8850  -34.9920   23.4060 C   0  0  0  0  0  0  0  0  0  0  0  0
  -26.5550  -34.8990   22.3730 O   0  0  0  0  0  0  0  0  0  0  0  0
  -24.9710  -34.0780   24.9650 H   0  0  0  0  0  0  0  0  0  0  0  0
  -24.1410  -36.7690   23.0580 C   0  0  0  0  0  1  0  0  0  0  0  0
  -25.3850  -36.3730   23.8690 C   0  0  0  0  0  3  0  0  0  0  0  0
  -27.5110  -37.2760   24.7020 C   0  0  0  0  0  1  0  0  0  0  0  0
  -26.4070  -37.4370   23.7600 N   0  0  0  0  0  0  0  0  0  0  0  0
  -25.9920  -38.3510   23.9120 H   0  0  0  0  0  0  0  0  0  0  0  0
  -26.4160  -31.7680   25.0970 C   0  0  1  0  0  0  0  0  0  0  0  0
  -25.3300  -31.5140   26.1670 C   0  0  0  0  0  1  0  0  0  0  0  0
  -27.0130  -30.3980   24.6970 C   0  0  0  0  0  1  0  0  0  0  0  0
  -27.5620  -32.5700   25.7570 C   0  0  0  0  0  1  0  0  0  0  0  0
  2  1  1  0
  2  5  1  0
  3  6  1  0
  4  3  2  0
  4  7  1  0
  6  1  2  0
  7  2  2  0
  8  3  1  0
  9  8  1  0
  9 10  1  0
 11 19  1  0
 12 17  1  0
 13 14  1  0
 13 12  1  0
 15 14  1  0
 15 24  1  0
 15 16  1  0
 17 11  1  0
 17 16  1  0
 18 11  2  0
 19 20  1  0
 19 10  1  0
 21 22  2  0
 22 41  1  0
 23 22  1  0
 23 26  1  0
 24 21  1  0
 24 25  1  0
 25 23  2  0
 26 27  1  0
 27 28  2  0
 29 32  1  0
 29 28  1  0
 30 29  2  0
 31 30  1  0
 31 26  2  0
 32 33  1  0
 33 34  1  0
 34 35  2  0
 36 35  1  0
 36 40  1  0
 37 36  2  0
 38 33  2  0
 38 37  1  0
 39 38  1  0
 41 42  1  0
 42 45  1  0
 42 44  1  0
 43 41  2  0
 46 47  1  0
 46 21  1  0
 48 46  1  0
 49  4  1  0
 50 49  1  0
 50 51  2  0
 52 51  1  0
 53 64  2  0
 54 52  1  0
 54 59  1  0
 55 63  1  0
 55 65  1  0
 56 62  1  0
 56 58  1  0
 57 63  1  0
 58 57  1  0
 59 58  2  0
 60 61  1  0
 60 54  2  0
 61 56  2  0
 62 55  1  0
 63 53  1  0
 65 67  2  0
 66 65  1  0
 68 66  1  0
 69 78  2  0
 69 74  1  0
 70 66  1  0
 70 74  1  0
 71 70  1  0
 72 73  1  0
 72 71  1  0
 73 69  1  0
 74 75  2  0
 75 76  1  0
 77 76  2  0
 78 77  1  0
 79 53  1  0
 79 80  1  0
 79 89  1  0
 80 83  1  0
 81 85  1  0
 81 80  1  0
 82 81  2  0
 85 84  1  0
 87 85  1  0
 87 88  1  0
 87 86  1  0
 89 92  1  1
 89 90  1  0
 91 89  1  0
M  ISO  4  11 100  19 100  51 101  52 101
M  END
>  <TORSDO>  (18) 
F 22

>  <SCORE>  (18) 
-12.522

>  <name>  (18) 
17

>  <ligand_id>  (18) 
17

>  <original_smiles>  (18) 
[H]c1nc(C([H])([H])C([H])([H])C([H])([H])N([H])C(=O)N2C([H])([H])C([H])([H])C([H])([H])C([H])(n3nc(-c4c([H])c([H])c(Oc5c([H])c([H])c(F)c([H])c5F)c([H])c4[H])c(C(=O)N([H])[H])c3N([H])[H])C2([H])[H])c(C([H])([H])C([H])([H])C([H])([H])Oc2c([H])c([H])c3c(c2[H])C([H])([H])N(C(=O)C([H])(N([H])C(=O)C([H])(N([H])C([H])([H])[H])C([H])([H])[H])C(C([H])([H])[H])(C([H])([H])[H])C([H])([H])[H])C([H])(C(=O)N([H])C2([H])c4c([H])c([H])c([H])c([H])c4C([H])([H])C([H])([H])C2([H])[H])C3([H])[H])nc1C([H])([H])[H]

>  <smiles>  (18) 
[H]c1nc(C([H])([H])C([H])([H])C([H])([H])N([H])C(=O)N2C([H])([H])C([H])([H])C([H])([H])C([H])(n3nc(-c4c([H])c([H])c(Oc5c([H])c([H])c(F)c([H])c5F)c([H])c4[H])c(C(=O)N([H])[H])c3N([H])[H])C2([H])[H])c(C([H])([H])C([H])([H])C([H])([H])Oc2c([H])c([H])c3c(c2[H])C([H])([H])N(C(=O)C([H])(N([H])C(=O)C([H])(N([H])C([H])([H])[H])C([H])([H])[H])C(C([H])([H])[H])(C([H])([H])[H])C([H])([H])[H])C([H])(C(=O)N([H])C2([H])c4c([H])c([H])c([H])c([H])c4C([H])([H])C([H])([H])C2([H])[H])C3([H])[H])nc1C([H])([H])[H]

$$$$
18:0:0
     RDKit          3D

 90 98  0  0  1  0  0  0  0  0999 V2000
  -28.5160  -21.3100   20.3340 C   0  0  0  0  0  3  0  0  0  0  0  0
  -29.5710  -20.6160   20.8560 C   0  0  0  0  0  0  0  0  0  0  0  0
  -29.9170  -21.1950   22.0750 N   0  0  0  0  0  0  0  0  0  0  0  0
  -29.1310  -22.1980   22.3170 N   0  0  0  0  0  0  0  0  0  0  0  0
  -28.2710  -22.2950   21.2750 N   0  0  0  0  0  0  0  0  0  0  0  0
  -30.2940  -19.4050   20.3350 C   0  0  0  0  0  2  0  0  0  0  0  0
  -29.6880  -18.0710   20.8280 C   0  0  0  0  0  2  0  0  0  0  0  0
  -30.6360  -16.8850   20.5760 C   0  0  0  0  0  2  0  0  0  0  0  0
  -30.7160  -14.4410   20.4520 C   0  0  0  0  0  0  0  0  0  0  0  0
  -30.3470  -12.2860   19.3420 C   0  0  0  0  0  2  0  0  0  0  0  0
  -29.4280  -12.5290   18.1300 C   0  0  0  0  0  2  0  0  0  0  0  0
  -27.9490  -12.4160   18.5510 C   0  0  0  0  0  2  0  0  0  0  0  0
  -27.6140  -13.2420   19.8250 C   0  0  0  0  0  3  0  0  0  0  0  0
  -28.6700  -13.0340   20.9360 C   0  0  0  0  0  2  0  0  0  0  0  0
  -29.9940  -13.2930   20.3540 N   0  0  0  0  0  0  0  0  0  0  0  0
  -31.8700  -14.5370   20.0320 O   0  0  0  0  0  0  0  0  0  0  0  0
  -30.0540  -15.5530   20.8160 N   0  0  0  0  0  0  0  0  0  0  0  0
  -29.0940  -15.4820   21.1120 H   0  0  0  0  0  0  0  0  0  0  0  0
  -25.2100  -13.8440   20.5140 C   0  0  0  0  0  0  0  0  0  0  0  0
  -24.1400  -13.0750   20.8810 C   0  0  0  0  0  0  0  0  0  0  0  0
  -24.6020  -11.7230   20.8610 C   0  0  0  0  0  0  0  0  0  0  0  0
  -26.2580  -12.9640   20.3000 N   0  0  0  0  0  0  0  0  0  0  0  0
  -25.8940  -11.6820   20.5620 N   0  0  0  0  0  0  0  0  0  0  0  0
  -23.8730  -10.4620   21.0540 C   0  0  0  0  0  0  0  0  0  0  0  0
  -24.3110   -9.4890   21.9770 C   0  0  0  0  0  3  0  0  0  0  0  0
  -23.5820   -8.2950   22.1610 C   0  0  0  0  0  3  0  0  0  0  0  0
  -22.4000   -8.0630   21.4190 C   0  0  0  0  0  0  0  0  0  0  0  0
  -21.9780   -9.0250   20.4850 C   0  0  0  0  0  3  0  0  0  0  0  0
  -22.7080  -10.2120   20.3000 C   0  0  0  0  0  3  0  0  0  0  0  0
  -21.6410   -6.9200   21.5130 O   0  0  0  0  0  0  0  0  0  0  0  0
  -21.6220   -6.1620   22.6550 C   0  0  0  0  0  0  0  0  0  0  0  0
  -21.2490   -6.7020   23.9050 C   0  0  0  0  0  3  0  0  0  0  0  0
  -21.1780   -5.8700   25.0390 C   0  0  0  0  0  3  0  0  0  0  0  0
  -21.4660   -4.4970   24.9250 C   0  0  0  0  0  0  0  0  0  0  0  0
  -21.8320   -3.9540   23.6800 C   0  0  0  0  0  3  0  0  0  0  0  0
  -21.9060   -4.7840   22.5490 C   0  0  0  0  0  0  0  0  0  0  0  0
  -22.2390   -4.2540   21.3470 F   0  0  0  0  0  0  0  0  0  0  0  0
  -21.3900   -3.6950   26.0130 F   0  0  0  0  0  0  0  0  0  0  0  0
  -22.7420  -13.5550   21.1430 C   0  0  0  0  0  0  0  0  0  0  0  0
  -22.0120  -12.8640   22.0110 N   0  0  0  0  0  0  0  0  0  0  0  0
  -22.3080  -14.5770   20.6130 O   0  0  0  0  0  0  0  0  0  0  0  0
  -22.3790  -12.0410   22.4630 H   0  0  0  0  0  0  0  0  0  0  0  0
  -21.0720  -13.1670   22.2310 H   0  0  0  0  0  0  0  0  0  0  0  0
  -25.3770  -15.2120   20.3290 N   0  0  0  0  0  0  0  0  0  0  0  0
  -24.6130  -15.8680   20.4420 H   0  0  0  0  0  0  0  0  0  0  0  0
  -26.2350  -15.6470   20.0150 H   0  0  0  0  0  0  0  0  0  0  0  0
  -27.1980  -23.2780   21.3220 C   0  0  0  0  0  2  0  0  0  0  0  0
  -27.6760  -24.7420   21.4420 C   0  0  0  0  0  2  0  0  0  0  0  0
  -28.3480  -25.3070   20.1690 C   0  0  0  0  0  2  0  0  0  0  0  0
  -28.4120  -26.7410   20.1810 O   0  0  0  0  0  0  0  0  0  0  0  0
  -24.5920  -31.8740   23.2320 C   0  0  0  0  0  0  0  0  0  0  0  0
  -27.2260  -27.4510   20.1430 C   0  0  0  0  0  0  0  0  0  0  0  0
  -23.3790  -30.4740   21.5930 C   0  0  0  0  0  3  0  0  0  0  0  0
  -24.8260  -28.9480   20.1550 C   0  0  0  0  0  0  0  0  0  0  0  0
  -25.9000  -30.8440   21.3800 C   0  0  0  0  0  2  0  0  0  0  0  0
  -25.9860  -29.4770   20.7390 C   0  0  0  0  0  0  0  0  0  0  0  0
  -27.1850  -28.7320   20.7330 C   0  0  0  0  0  3  0  0  0  0  0  0
  -26.0480  -26.9410   19.5460 C   0  0  0  0  0  3  0  0  0  0  0  0
  -24.8520  -27.6790   19.5610 C   0  0  0  0  0  3  0  0  0  0  0  0
  -23.5810  -29.8030   20.2090 C   0  0  0  0  0  2  0  0  0  0  0  0
  -24.6430  -31.0780   22.1270 N   0  0  0  0  0  0  0  0  0  0  0  0
  -23.5140  -32.1440   23.7790 O   0  0  0  0  0  0  0  0  0  0  0  0
  -22.7360  -29.4490   22.5540 C   0  0  0  0  0  0  0  0  0  0  0  0
  -21.4110  -29.2690   22.4380 N   0  0  0  0  0  0  0  0  0  0  0  0
  -23.4260  -28.8210   23.3610 O   0  0  0  0  0  0  0  0  0  0  0  0
  -20.9110  -29.8250   21.7580 H   0  0  0  0  0  0  0  0  0  0  0  0
  -18.0410  -28.0830   22.9500 C   0  0  0  0  0  0  0  0  0  0  0  0
  -20.6000  -28.3310   23.2120 C   0  0  0  0  0  3  0  0  0  0  0  0
  -20.6980  -26.9030   22.6280 C   0  0  0  0  0  2  0  0  0  0  0  0
  -19.5900  -26.5890   21.6200 C   0  0  0  0  0  2  0  0  0  0  0  0
  -18.2100  -26.7350   22.2700 C   0  0  0  0  0  2  0  0  0  0  0  0
  -19.1640  -28.8380   23.3780 C   0  0  0  0  0  0  0  0  0  0  0  0
  -18.9540  -30.1020   23.9710 C   0  0  0  0  0  3  0  0  0  0  0  0
  -17.6520  -30.6080   24.1470 C   0  0  0  0  0  3  0  0  0  0  0  0
  -16.5420  -29.8490   23.7390 C   0  0  0  0  0  3  0  0  0  0  0  0
  -16.7380  -28.5890   23.1440 C   0  0  0  0  0  3  0  0  0  0  0  0
  -25.8820  -32.5060   23.8440 C   0  0  0  0  0  3  0  0  0  0  0  0
  -25.5730  -33.9030   24.1800 N   0  0  0  0  0  0  0  0  0  0  0  0
  -25.9030  -34.9580   23.4240 C   0  0  0  0  0  0  0  0  0  0  0  0
  -26.5710  -34.8590   22.3900 O   0  0  0  0  0  0  0  0  0  0  0  0
  -24.9820  -34.0550   24.9840 H   0  0  0  0  0  0  0  0  0  0  0  0
  -24.1680  -36.7440   23.0840 C   0  0  0  0  0  1  0  0  0  0  0  0
  -25.4150  -36.3430   23.8880 C   0  0  0  0  0  3  0  0  0  0  0  0
  -27.5550  -37.2260   24.7060 C   0  0  0  0  0  1  0  0  0  0  0  0
  -26.4450  -37.3990   23.7740 N   0  0  0  0  0  0  0  0  0  0  0  0
  -26.0390  -38.3180   23.9330 H   0  0  0  0  0  0  0  0  0  0  0  0
  -26.4130  -31.7290   25.1100 C   0  0  1  0  0  0  0  0  0  0  0  0
  -25.3330  -31.4900   26.1880 C   0  0  0  0  0  1  0  0  0  0  0  0
  -26.9940  -30.3550   24.7030 C   0  0  0  0  0  1  0  0  0  0  0  0
  -27.5680  -32.5230   25.7650 C   0  0  0  0  0  1  0  0  0  0  0  0
  1  2  2  0
  1  5  1  0
  2  3  1  0
  3  4  2  0
  5 47  1  0
  5  4  1  0
  6  7  1  0
  6  2  1  0
  8 17  1  0
  8  7  1  0
  9 17  1  0
 10 15  1  0
 11 12  1  0
 11 10  1  0
 13 12  1  0
 13 22  1  0
 13 14  1  0
 15  9  1  0
 15 14  1  0
 16  9  2  0
 17 18  1  0
 19 20  2  0
 20 39  1  0
 21 20  1  0
 21 24  1  0
 22 19  1  0
 22 23  1  0
 23 21  2  0
 24 25  1  0
 25 26  2  0
 27 30  1  0
 27 26  1  0
 28 27  2  0
 29 28  1  0
 29 24  2  0
 30 31  1  0
 31 32  1  0
 32 33  2  0
 34 33  1  0
 34 38  1  0
 35 34  2  0
 36 31  2  0
 36 35  1  0
 37 36  1  0
 39 40  1  0
 40 43  1  0
 40 42  1  0
 41 39  2  0
 44 45  1  0
 44 19  1  0
 46 44  1  0
 47 48  1  0
 49 50  1  0
 49 48  1  0
 51 62  2  0
 52 50  1  0
 52 57  1  0
 53 61  1  0
 53 63  1  0
 54 60  1  0
 54 56  1  0
 55 61  1  0
 56 55  1  0
 57 56  2  0
 58 59  1  0
 58 52  2  0
 59 54  2  0
 60 53  1  0
 61 51  1  0
 63 65  2  0
 64 63  1  0
 66 64  1  0
 67 76  2  0
 67 72  1  0
 68 64  1  0
 68 72  1  0
 69 68  1  0
 70 71  1  0
 70 69  1  0
 71 67  1  0
 72 73  2  0
 73 74  1  0
 75 74  2  0
 76 75  1  0
 77 51  1  0
 77 78  1  0
 77 87  1  0
 78 81  1  0
 79 83  1  0
 79 78  1  0
 80 79  2  0
 83 82  1  0
 85 83  1  0
 85 86  1  0
 85 84  1  0
 87 90  1  1
 87 88  1  0
 89 87  1  0
M  ISO  4   9 100  17 100  49 101  50 101
M  END
>  <TORSDO>  (19) 
F 22

>  <SCORE>  (19) 
-13.354

>  <name>  (19) 
18

>  <ligand_id>  (19) 
18

>  <original_smiles>  (19) 
[H]c1c([H])c([H])c2c(c1[H])C([H])([H])C([H])([H])C([H])([H])C2([H])N([H])C(=O)C1([H])N(C(=O)C([H])(N([H])C(=O)C([H])(N([H])C([H])([H])[H])C([H])([H])[H])C(C([H])([H])[H])(C([H])([H])[H])C([H])([H])[H])C([H])([H])c2c([H])c(OC([H])([H])C([H])([H])C([H])([H])n3nnc(C([H])([H])C([H])([H])C([H])([H])N([H])C(=O)N4C([H])([H])C([H])([H])C([H])([H])C([H])(n5nc(-c6c([H])c([H])c(Oc7c([H])c([H])c(F)c([H])c7F)c([H])c6[H])c(C(=O)N([H])[H])c5N([H])[H])C4([H])[H])c3[H])c([H])c([H])c2C1([H])[H]

>  <smiles>  (19) 
[H]c1c([H])c([H])c2c(c1[H])C([H])([H])C([H])([H])C([H])([H])C2([H])N([H])C(=O)C1([H])N(C(=O)C([H])(N([H])C(=O)C([H])(N([H])C([H])([H])[H])C([H])([H])[H])C(C([H])([H])[H])(C([H])([H])[H])C([H])([H])[H])C([H])([H])c2c([H])c(OC([H])([H])C([H])([H])C([H])([H])n3nnc(C([H])([H])C([H])([H])C([H])([H])N([H])C(=O)N4C([H])([H])C([H])([H])C([H])([H])C([H])(n5nc(-c6c([H])c([H])c(Oc7c([H])c([H])c(F)c([H])c7F)c([H])c6[H])c(C(=O)N([H])[H])c5N([H])[H])C4([H])[H])c3[H])c([H])c([H])c2C1([H])[H]

$$$$
19:0:0
     RDKit          3D

 92100  0  0  1  0  0  0  0  0999 V2000
  -28.0670  -22.0120   19.0840 C   0  0  0  0  0  3  0  0  0  0  0  0
  -28.2510  -20.6560   19.0240 C   0  0  0  0  0  0  0  0  0  0  0  0
  -29.4890  -20.4450   19.7090 C   0  0  0  0  0  0  0  0  0  0  0  0
  -29.9950  -21.5900   20.1630 N   0  0  0  0  0  0  0  0  0  0  0  0
  -29.1350  -22.5520   19.7590 N   0  0  0  0  0  0  0  0  0  0  0  0
  -27.2490  -19.8730   16.8480 C   0  0  0  0  0  1  0  0  0  0  0  0
  -27.3390  -19.6560   18.3640 C   0  0  0  0  0  2  0  0  0  0  0  0
  -30.2830  -19.1710   19.9200 C   0  0  0  0  0  2  0  0  0  0  0  0
  -29.5700  -18.0440   20.7110 C   0  0  0  0  0  2  0  0  0  0  0  0
  -30.5580  -16.9630   21.2260 C   0  0  0  0  0  2  0  0  0  0  0  0
  -30.7270  -14.5520   20.5900 C   0  0  0  0  0  0  0  0  0  0  0  0
  -30.4030  -12.4490   19.3560 C   0  0  0  0  0  2  0  0  0  0  0  0
  -29.4720  -12.7240   18.1590 C   0  0  0  0  0  2  0  0  0  0  0  0
  -28.0000  -12.5620   18.5820 C   0  0  0  0  0  2  0  0  0  0  0  0
  -27.6580  -13.3470   19.8760 C   0  0  0  0  0  3  0  0  0  0  0  0
  -28.7090  -13.0870   20.9780 C   0  0  0  0  0  2  0  0  0  0  0  0
  -30.0350  -13.3940   20.4220 N   0  0  0  0  0  0  0  0  0  0  0  0
  -31.8570  -14.7220   20.1270 O   0  0  0  0  0  0  0  0  0  0  0  0
  -30.0530  -15.5780   21.1480 N   0  0  0  0  0  0  0  0  0  0  0  0
  -29.1360  -15.3850   21.5230 H   0  0  0  0  0  0  0  0  0  0  0  0
  -25.2480  -13.9190   20.5720 C   0  0  0  0  0  0  0  0  0  0  0  0
  -24.1880  -13.1310   20.9270 C   0  0  0  0  0  0  0  0  0  0  0  0
  -24.6650  -11.7860   20.8890 C   0  0  0  0  0  0  0  0  0  0  0  0
  -26.3050  -13.0530   20.3400 N   0  0  0  0  0  0  0  0  0  0  0  0
  -25.9580  -11.7640   20.5890 N   0  0  0  0  0  0  0  0  0  0  0  0
  -23.9490  -10.5140   21.0600 C   0  0  0  0  0  0  0  0  0  0  0  0
  -24.3660   -9.5560   22.0100 C   0  0  0  0  0  3  0  0  0  0  0  0
  -23.6520   -8.3490   22.1700 C   0  0  0  0  0  3  0  0  0  0  0  0
  -22.5070   -8.0930   21.3780 C   0  0  0  0  0  0  0  0  0  0  0  0
  -22.1120   -9.0380   20.4160 C   0  0  0  0  0  3  0  0  0  0  0  0
  -22.8260  -10.2370   20.2550 C   0  0  0  0  0  3  0  0  0  0  0  0
  -21.7650   -6.9380   21.4490 O   0  0  0  0  0  0  0  0  0  0  0  0
  -21.6660   -6.2130   22.6090 C   0  0  0  0  0  0  0  0  0  0  0  0
  -21.1340   -6.7680   23.7940 C   0  0  0  0  0  3  0  0  0  0  0  0
  -20.9890   -5.9670   24.9440 C   0  0  0  0  0  3  0  0  0  0  0  0
  -21.3630   -4.6090   24.9100 C   0  0  0  0  0  0  0  0  0  0  0  0
  -21.8880   -4.0550   23.7290 C   0  0  0  0  0  3  0  0  0  0  0  0
  -22.0360   -4.8540   22.5820 C   0  0  0  0  0  0  0  0  0  0  0  0
  -22.5230   -4.3080   21.4410 F   0  0  0  0  0  0  0  0  0  0  0  0
  -21.2170   -3.8370   26.0110 F   0  0  0  0  0  0  0  0  0  0  0  0
  -22.7830  -13.5900   21.1960 C   0  0  0  0  0  0  0  0  0  0  0  0
  -22.0510  -12.8700   22.0400 N   0  0  0  0  0  0  0  0  0  0  0  0
  -22.3420  -14.6220   20.6910 O   0  0  0  0  0  0  0  0  0  0  0  0
  -22.4160  -12.0330   22.4710 H   0  0  0  0  0  0  0  0  0  0  0  0
  -21.1080  -13.1610   22.2610 H   0  0  0  0  0  0  0  0  0  0  0  0
  -25.3970  -15.2930   20.4120 N   0  0  0  0  0  0  0  0  0  0  0  0
  -24.6130  -15.9290   20.5080 H   0  0  0  0  0  0  0  0  0  0  0  0
  -26.2450  -15.7520   20.1100 H   0  0  0  0  0  0  0  0  0  0  0  0
  -29.4220  -23.9600   20.0020 C   0  0  0  0  0  2  0  0  0  0  0  0
  -28.5010  -24.5810   21.0720 C   0  0  0  0  0  2  0  0  0  0  0  0
  -28.7430  -26.0900   21.2710 C   0  0  0  0  0  2  0  0  0  0  0  0
  -28.3860  -26.8120   20.0940 O   0  0  0  0  0  0  0  0  0  0  0  0
  -24.5340  -31.9200   23.2530 C   0  0  0  0  0  0  0  0  0  0  0  0
  -27.2100  -27.5150   20.1680 C   0  0  0  0  0  0  0  0  0  0  0  0
  -23.3360  -30.5110   21.6060 C   0  0  0  0  0  3  0  0  0  0  0  0
  -24.8000  -28.9800   20.1860 C   0  0  0  0  0  0  0  0  0  0  0  0
  -25.8560  -30.8910   21.4080 C   0  0  0  0  0  2  0  0  0  0  0  0
  -25.9510  -29.5170   20.7780 C   0  0  0  0  0  0  0  0  0  0  0  0
  -27.1590  -28.7890   20.7750 C   0  0  0  0  0  3  0  0  0  0  0  0
  -26.0510  -26.9840   19.5720 C   0  0  0  0  0  3  0  0  0  0  0  0
  -24.8430  -27.7090   19.5840 C   0  0  0  0  0  3  0  0  0  0  0  0
  -23.5500  -29.8290   20.2280 C   0  0  0  0  0  2  0  0  0  0  0  0
  -24.5940  -31.1220   22.1480 N   0  0  0  0  0  0  0  0  0  0  0  0
  -23.4530  -32.1860   23.7930 O   0  0  0  0  0  0  0  0  0  0  0  0
  -22.6900  -29.4890   22.5670 C   0  0  0  0  0  0  0  0  0  0  0  0
  -21.3690  -29.2940   22.4300 N   0  0  0  0  0  0  0  0  0  0  0  0
  -23.3740  -28.8730   23.3880 O   0  0  0  0  0  0  0  0  0  0  0  0
  -20.8790  -29.8400   21.7360 H   0  0  0  0  0  0  0  0  0  0  0  0
  -18.0010  -28.0810   22.9150 C   0  0  0  0  0  0  0  0  0  0  0  0
  -20.5560  -28.3520   23.1980 C   0  0  0  0  0  3  0  0  0  0  0  0
  -20.6700  -26.9230   22.6190 C   0  0  0  0  0  2  0  0  0  0  0  0
  -19.5740  -26.5950   21.6020 C   0  0  0  0  0  2  0  0  0  0  0  0
  -18.1880  -26.7320   22.2410 C   0  0  0  0  0  2  0  0  0  0  0  0
  -19.1140  -28.8480   23.3510 C   0  0  0  0  0  0  0  0  0  0  0  0
  -18.8860  -30.1090   23.9420 C   0  0  0  0  0  3  0  0  0  0  0  0
  -17.5780  -30.6040   24.1040 C   0  0  0  0  0  3  0  0  0  0  0  0
  -16.4800  -29.8340   23.6840 C   0  0  0  0  0  3  0  0  0  0  0  0
  -16.6920  -28.5740   23.0960 C   0  0  0  0  0  3  0  0  0  0  0  0
  -25.8180  -32.5550   23.8730 C   0  0  0  0  0  3  0  0  0  0  0  0
  -25.5110  -33.9590   24.1840 N   0  0  0  0  0  0  0  0  0  0  0  0
  -25.8620  -35.0000   23.4180 C   0  0  0  0  0  0  0  0  0  0  0  0
  -26.5480  -34.8810   22.3990 O   0  0  0  0  0  0  0  0  0  0  0  0
  -24.9060  -34.1260   24.9750 H   0  0  0  0  0  0  0  0  0  0  0  0
  -24.1620  -36.8050   22.9980 C   0  0  0  0  0  1  0  0  0  0  0  0
  -25.3740  -36.3960   23.8510 C   0  0  0  0  0  3  0  0  0  0  0  0
  -27.4860  -37.2700   24.7460 C   0  0  0  0  0  1  0  0  0  0  0  0
  -26.4190  -37.4370   23.7630 N   0  0  0  0  0  0  0  0  0  0  0  0
  -26.0170  -38.3630   23.8880 H   0  0  0  0  0  0  0  0  0  0  0  0
  -26.3300  -31.7960   25.1590 C   0  0  1  0  0  0  0  0  0  0  0  0
  -25.2330  -31.5660   26.2250 C   0  0  0  0  0  1  0  0  0  0  0  0
  -26.9140  -30.4150   24.7780 C   0  0  0  0  0  1  0  0  0  0  0  0
  -27.4760  -32.5970   25.8190 C   0  0  0  0  0  1  0  0  0  0  0  0
  1  5  1  0
  2  1  2  0
  2  3  1  0
  3  8  1  0
  3  4  2  0
  5 49  1  0
  5  4  1  0
  6  7  1  0
  7  2  1  0
  8  9  1  0
  9 10  1  0
 11 19  1  0
 12 17  1  0
 13 14  1  0
 13 12  1  0
 15 14  1  0
 15 24  1  0
 15 16  1  0
 17 11  1  0
 17 16  1  0
 18 11  2  0
 19 10  1  0
 19 20  1  0
 21 22  2  0
 22 41  1  0
 23 22  1  0
 23 26  1  0
 24 21  1  0
 24 25  1  0
 25 23  2  0
 26 27  1  0
 27 28  2  0
 29 32  1  0
 29 28  1  0
 30 29  2  0
 31 30  1  0
 31 26  2  0
 32 33  1  0
 33 34  1  0
 34 35  2  0
 36 35  1  0
 36 40  1  0
 37 36  2  0
 38 33  2  0
 38 37  1  0
 39 38  1  0
 41 42  1  0
 42 45  1  0
 42 44  1  0
 43 41  2  0
 46 47  1  0
 46 21  1  0
 48 46  1  0
 49 50  1  0
 50 51  1  0
 52 54  1  0
 52 51  1  0
 53 64  2  0
 54 59  1  0
 55 63  1  0
 55 65  1  0
 56 62  1  0
 56 58  1  0
 57 63  1  0
 58 57  1  0
 59 58  2  0
 60 61  1  0
 60 54  2  0
 61 56  2  0
 62 55  1  0
 63 53  1  0
 65 67  2  0
 66 65  1  0
 68 66  1  0
 69 78  2  0
 69 74  1  0
 70 66  1  0
 70 74  1  0
 71 70  1  0
 72 73  1  0
 72 71  1  0
 73 69  1  0
 74 75  2  0
 75 76  1  0
 77 76  2  0
 78 77  1  0
 79 53  1  0
 79 80  1  0
 79 89  1  0
 80 83  1  0
 81 85  1  0
 81 80  1  0
 82 81  2  0
 85 84  1  0
 87 85  1  0
 87 88  1  0
 87 86  1  0
 89 92  1  1
 89 90  1  0
 91 89  1  0
M  ISO  4  11 100  19 100  51 101  52 101
M  END
>  <TORSDO>  (20) 
F 23

>  <SCORE>  (20) 
-12.949

>  <name>  (20) 
19

>  <ligand_id>  (20) 
19

>  <original_smiles>  (20) 
[H]c1c([H])c([H])c2c(c1[H])C([H])([H])C([H])([H])C([H])([H])C2([H])N([H])C(=O)C1([H])N(C(=O)C([H])(N([H])C(=O)C([H])(N([H])C([H])([H])[H])C([H])([H])[H])C(C([H])([H])[H])(C([H])([H])[H])C([H])([H])[H])C([H])([H])c2c([H])c(OC([H])([H])C([H])([H])C([H])([H])n3nc(C([H])([H])C([H])([H])C([H])([H])N([H])C(=O)N4C([H])([H])C([H])([H])C([H])([H])C([H])(n5nc(-c6c([H])c([H])c(Oc7c([H])c([H])c(F)c([H])c7F)c([H])c6[H])c(C(=O)N([H])[H])c5N([H])[H])C4([H])[H])c(C([H])([H])C([H])([H])[H])c3[H])c([H])c([H])c2C1([H])[H]

>  <smiles>  (20) 
[H]c1c([H])c([H])c2c(c1[H])C([H])([H])C([H])([H])C([H])([H])C2([H])N([H])C(=O)C1([H])N(C(=O)C([H])(N([H])C(=O)C([H])(N([H])C([H])([H])[H])C([H])([H])[H])C(C([H])([H])[H])(C([H])([H])[H])C([H])([H])[H])C([H])([H])c2c([H])c(OC([H])([H])C([H])([H])C([H])([H])n3nc(C([H])([H])C([H])([H])C([H])([H])N([H])C(=O)N4C([H])([H])C([H])([H])C([H])([H])C([H])(n5nc(-c6c([H])c([H])c(Oc7c([H])c([H])c(F)c([H])c7F)c([H])c6[H])c(C(=O)N([H])[H])c5N([H])[H])C4([H])[H])c(C([H])([H])C([H])([H])[H])c3[H])c([H])c([H])c2C1([H])[H]

$$$$
20:0:0
     RDKit          3D

 91 99  0  0  1  0  0  0  0  0999 V2000
  -28.7100  -20.2850   19.7340 C   0  0  0  0  0  3  0  0  0  0  0  0
  -29.9680  -20.8550   21.6670 C   0  0  0  0  0  3  0  0  0  0  0  0
  -29.5110  -19.8280   20.8070 C   0  0  0  0  0  0  0  0  0  0  0  0
  -28.3260  -21.6600   19.6360 C   0  0  0  0  0  0  0  0  0  0  0  0
  -28.8050  -22.6140   20.5820 C   0  0  0  0  0  0  0  0  0  0  0  0
  -29.6520  -22.1780   21.5520 N   0  0  0  0  0  0  0  0  0  0  0  0
  -25.9420  -21.4290   18.8310 C   0  0  0  0  0  1  0  0  0  0  0  0
  -27.3230  -22.0310   18.5510 C   0  0  0  0  0  2  0  0  0  0  0  0
  -29.7860  -18.3190   21.1680 C   0  0  0  0  0  3  0  0  0  0  0  0
  -29.5270  -17.1450   20.1430 C   0  0  0  0  0  3  0  0  0  0  0  0
  -30.4610  -14.7220   20.2150 C   0  0  0  0  0  0  0  0  0  0  0  0
  -30.2110  -12.5620   19.0110 C   0  0  0  0  0  2  0  0  0  0  0  0
  -29.1960  -12.7740   17.8660 C   0  0  0  0  0  2  0  0  0  0  0  0
  -27.7520  -12.5760   18.3670 C   0  0  0  0  0  2  0  0  0  0  0  0
  -27.4650  -13.3340   19.6900 C   0  0  0  0  0  3  0  0  0  0  0  0
  -28.5880  -13.0990   20.7270 C   0  0  0  0  0  2  0  0  0  0  0  0
  -29.8640  -13.4930   20.1070 N   0  0  0  0  0  0  0  0  0  0  0  0
  -31.5750  -14.9480   19.7390 O   0  0  0  0  0  0  0  0  0  0  0  0
  -29.6490  -15.7310   20.6430 N   0  0  0  0  0  0  0  0  0  0  0  0
  -28.8190  -15.3880   21.0980 H   0  0  0  0  0  0  0  0  0  0  0  0
  -25.0880  -13.8410   20.5340 C   0  0  0  0  0  0  0  0  0  0  0  0
  -24.0620  -13.0260   20.9320 C   0  0  0  0  0  0  0  0  0  0  0  0
  -24.5620  -11.6920   20.8350 C   0  0  0  0  0  0  0  0  0  0  0  0
  -26.1470  -13.0000   20.2270 N   0  0  0  0  0  0  0  0  0  0  0  0
  -25.8370  -11.7030   20.4660 N   0  0  0  0  0  0  0  0  0  0  0  0
  -23.8830  -10.4030   21.0190 C   0  0  0  0  0  0  0  0  0  0  0  0
  -24.3580   -9.4410   21.9390 C   0  0  0  0  0  3  0  0  0  0  0  0
  -23.6780   -8.2170   22.1100 C   0  0  0  0  0  3  0  0  0  0  0  0
  -22.5080   -7.9430   21.3610 C   0  0  0  0  0  0  0  0  0  0  0  0
  -22.0520   -8.8920   20.4290 C   0  0  0  0  0  3  0  0  0  0  0  0
  -22.7340  -10.1090   20.2560 C   0  0  0  0  0  3  0  0  0  0  0  0
  -21.7980   -6.7680   21.4420 O   0  0  0  0  0  0  0  0  0  0  0  0
  -21.7620   -6.0280   22.5950 C   0  0  0  0  0  0  0  0  0  0  0  0
  -21.2340   -6.5520   23.7970 C   0  0  0  0  0  3  0  0  0  0  0  0
  -21.1470   -5.7340   24.9410 C   0  0  0  0  0  3  0  0  0  0  0  0
  -21.5790   -4.3960   24.8860 C   0  0  0  0  0  0  0  0  0  0  0  0
  -22.0950   -3.8720   23.6900 C   0  0  0  0  0  3  0  0  0  0  0  0
  -22.1850   -4.6850   22.5470 C   0  0  0  0  0  0  0  0  0  0  0  0
  -22.6660   -4.1710   21.3900 F   0  0  0  0  0  0  0  0  0  0  0  0
  -21.4890   -3.6070   25.9840 F   0  0  0  0  0  0  0  0  0  0  0  0
  -22.6660  -13.4530   21.2790 C   0  0  0  0  0  0  0  0  0  0  0  0
  -21.9960  -12.7120   22.1560 N   0  0  0  0  0  0  0  0  0  0  0  0
  -22.1790  -14.4820   20.8140 O   0  0  0  0  0  0  0  0  0  0  0  0
  -22.4020  -11.8770   22.5560 H   0  0  0  0  0  0  0  0  0  0  0  0
  -21.0630  -12.9860   22.4290 H   0  0  0  0  0  0  0  0  0  0  0  0
  -25.2070  -15.2190   20.3870 N   0  0  0  0  0  0  0  0  0  0  0  0
  -24.4250  -15.8450   20.5340 H   0  0  0  0  0  0  0  0  0  0  0  0
  -26.0020  -15.6860   19.9770 H   0  0  0  0  0  0  0  0  0  0  0  0
  -28.2580  -24.0920   20.7480 C   0  0  0  0  0  2  0  0  0  0  0  0
  -28.7480  -25.2770   19.8070 C   0  0  0  0  0  2  0  0  0  0  0  0
  -28.6160  -26.6830   20.2740 O   0  0  0  0  0  0  0  0  0  0  0  0
  -24.6490  -31.9050   23.2440 C   0  0  0  0  0  0  0  0  0  0  0  0
  -27.4400  -27.4440   20.1980 C   0  0  0  0  0  0  0  0  0  0  0  0
  -23.5140  -30.5030   21.5550 C   0  0  0  0  0  3  0  0  0  0  0  0
  -25.0320  -28.9960   20.1460 C   0  0  0  0  0  0  0  0  0  0  0  0
  -26.0480  -30.8810   21.4320 C   0  0  0  0  0  2  0  0  0  0  0  0
  -26.1730  -29.5090   20.7760 C   0  0  0  0  0  0  0  0  0  0  0  0
  -27.3740  -28.7440   20.7910 C   0  0  0  0  0  3  0  0  0  0  0  0
  -26.2720  -26.9710   19.5600 C   0  0  0  0  0  3  0  0  0  0  0  0
  -25.0830  -27.7320   19.5300 C   0  0  0  0  0  3  0  0  0  0  0  0
  -23.7760  -29.8450   20.1730 C   0  0  0  0  0  2  0  0  0  0  0  0
  -24.7550  -31.1140   22.1360 N   0  0  0  0  0  0  0  0  0  0  0  0
  -23.5480  -32.1530   23.7550 O   0  0  0  0  0  0  0  0  0  0  0  0
  -22.8490  -29.4610   22.4840 C   0  0  0  0  0  0  0  0  0  0  0  0
  -21.5240  -29.2850   22.3450 N   0  0  0  0  0  0  0  0  0  0  0  0
  -23.5210  -28.8200   23.2950 O   0  0  0  0  0  0  0  0  0  0  0  0
  -21.0410  -29.8560   21.6650 H   0  0  0  0  0  0  0  0  0  0  0  0
  -18.1360  -28.1240   22.8480 C   0  0  0  0  0  0  0  0  0  0  0  0
  -20.7030  -28.3260   23.0840 C   0  0  0  0  0  3  0  0  0  0  0  0
  -20.7690  -26.9200   22.4410 C   0  0  0  0  0  2  0  0  0  0  0  0
  -19.6440  -26.6660   21.4320 C   0  0  0  0  0  2  0  0  0  0  0  0
  -18.2760  -26.8050   22.1070 C   0  0  0  0  0  2  0  0  0  0  0  0
  -19.2770  -28.8450   23.2930 C   0  0  0  0  0  0  0  0  0  0  0  0
  -19.0890  -30.0840   23.9470 C   0  0  0  0  0  3  0  0  0  0  0  0
  -17.7950  -30.5990   24.1580 C   0  0  0  0  0  3  0  0  0  0  0  0
  -16.6710  -29.8730   23.7270 C   0  0  0  0  0  3  0  0  0  0  0  0
  -16.8430  -28.6370   23.0780 C   0  0  0  0  0  3  0  0  0  0  0  0
  -25.9030  -32.5530   23.9080 C   0  0  0  0  0  3  0  0  0  0  0  0
  -25.5750  -33.9550   24.2040 N   0  0  0  0  0  0  0  0  0  0  0  0
  -25.9190  -34.9980   23.4340 C   0  0  0  0  0  0  0  0  0  0  0  0
  -26.6140  -34.8810   22.4210 O   0  0  0  0  0  0  0  0  0  0  0  0
  -24.9610  -34.1200   24.9880 H   0  0  0  0  0  0  0  0  0  0  0  0
  -24.1850  -36.7690   23.0020 C   0  0  0  0  0  1  0  0  0  0  0  0
  -25.4080  -36.3900   23.8540 C   0  0  0  0  0  3  0  0  0  0  0  0
  -27.5040  -37.3160   24.7360 C   0  0  0  0  0  1  0  0  0  0  0  0
  -26.4360  -37.4490   23.7480 N   0  0  0  0  0  0  0  0  0  0  0  0
  -26.0160  -38.3690   23.8570 H   0  0  0  0  0  0  0  0  0  0  0  0
  -26.3700  -31.8060   25.2170 C   0  0  1  0  0  0  0  0  0  0  0  0
  -25.2330  -31.5730   26.2390 C   0  0  0  0  0  1  0  0  0  0  0  0
  -26.9790  -30.4290   24.8690 C   0  0  0  0  0  1  0  0  0  0  0  0
  -27.4850  -32.6180   25.9170 C   0  0  0  0  0  1  0  0  0  0  0  0
  1  3  1  0
  3  9  1  0
  3  2  2  0
  4  1  2  0
  4  5  1  0
  5 49  1  0
  5  6  2  0
  6  2  1  0
  8  7  1  0
  8  4  1  0
 10 19  1  0
 10  9  2  0
 11 19  1  0
 12 17  1  0
 13 14  1  0
 13 12  1  0
 15 14  1  0
 15 24  1  0
 15 16  1  0
 17 11  1  0
 17 16  1  0
 18 11  2  0
 19 20  1  0
 21 22  2  0
 22 41  1  0
 23 22  1  0
 23 26  1  0
 24 25  1  0
 24 21  1  0
 25 23  2  0
 26 27  1  0
 27 28  2  0
 29 32  1  0
 29 28  1  0
 30 29  2  0
 31 30  1  0
 31 26  2  0
 32 33  1  0
 33 34  1  0
 34 35  2  0
 36 35  1  0
 36 40  1  0
 37 36  2  0
 38 33  2  0
 38 37  1  0
 39 38  1  0
 41 42  1  0
 42 45  1  0
 42 44  1  0
 43 41  2  0
 46 47  1  0
 46 21  1  0
 48 46  1  0
 50 51  1  0
 50 49  1  0
 52 63  2  0
 53 51  1  0
 53 58  1  0
 54 62  1  0
 54 64  1  0
 55 61  1  0
 55 57  1  0
 56 62  1  0
 57 58  2  0
 57 56  1  0
 59 53  2  0
 60 59  1  0
 60 55  2  0
 61 54  1  0
 62 52  1  0
 64 66  2  0
 65 64  1  0
 67 65  1  0
 68 77  2  0
 68 73  1  0
 69 65  1  0
 69 73  1  0
 70 69  1  0
 71 72  1  0
 71 70  1  0
 72 68  1  0
 73 74  2  0
 74 75  1  0
 76 75  2  0
 77 76  1  0
 78 52  1  0
 78 79  1  0
 78 88  1  0
 79 82  1  0
 80 84  1  0
 80 79  1  0
 81 80  2  0
 84 83  1  0
 86 84  1  0
 86 87  1  0
 86 85  1  0
 88 91  1  1
 88 89  1  0
 90 88  1  0
M  ISO  4  11 100  19 100  50 101  51 101
M  END
>  <TORSDO>  (21) 
F 21

>  <SCORE>  (21) 
-13.307

>  <name>  (21) 
20

>  <ligand_id>  (21) 
20

>  <original_smiles>  (21) 
[H]c1nc(C([H])([H])C([H])([H])Oc2c([H])c([H])c3c(c2[H])C([H])([H])N(C(=O)C([H])(N([H])C(=O)C([H])(N([H])C([H])([H])[H])C([H])([H])[H])C(C([H])([H])[H])(C([H])([H])[H])C([H])([H])[H])C([H])(C(=O)N([H])C2([H])c4c([H])c([H])c([H])c([H])c4C([H])([H])C([H])([H])C2([H])[H])C3([H])[H])c(C([H])([H])C([H])([H])[H])c([H])c1C([H])([H])C([H])([H])N([H])C(=O)N1C([H])([H])C([H])([H])C([H])([H])C([H])(n2nc(-c3c([H])c([H])c(Oc4c([H])c([H])c(F)c([H])c4F)c([H])c3[H])c(C(=O)N([H])[H])c2N([H])[H])C1([H])[H]

>  <smiles>  (21) 
[H]c1nc(C([H])([H])C([H])([H])Oc2c([H])c([H])c3c(c2[H])C([H])([H])N(C(=O)C([H])(N([H])C(=O)C([H])(N([H])C([H])([H])[H])C([H])([H])[H])C(C([H])([H])[H])(C([H])([H])[H])C([H])([H])[H])C([H])(C(=O)N([H])C2([H])c4c([H])c([H])c([H])c([H])c4C([H])([H])C([H])([H])C2([H])[H])C3([H])[H])c(C([H])([H])C([H])([H])[H])c([H])c1C([H])([H])C([H])([H])N([H])C(=O)N1C([H])([H])C([H])([H])C([H])([H])C([H])(n2nc(-c3c([H])c([H])c(Oc4c([H])c([H])c(F)c([H])c4F)c([H])c3[H])c(C(=O)N([H])[H])c2N([H])[H])C1([H])[H]

$$$$
21:0:0
     RDKit          3D

 92100  0  0  1  0  0  0  0  0999 V2000
  -31.3510  -24.2130   18.7140 C   0  0  0  0  0  3  0  0  0  0  0  0
  -31.0080  -22.9140   18.3050 C   0  0  0  0  0  0  0  0  0  0  0  0
  -29.7770  -22.4170   18.7800 C   0  0  0  0  0  0  0  0  0  0  0  0
  -29.3640  -24.4410   19.8170 C   0  0  0  0  0  0  0  0  0  0  0  0
  -30.5290  -24.9750   19.4610 N   0  0  0  0  0  0  0  0  0  0  0  0
  -28.9670  -23.1960   19.5370 N   0  0  0  0  0  0  0  0  0  0  0  0
  -32.0430  -22.0490   17.2220 Cl  0  0  0  0  0  0  0  0  0  0  0  0
  -29.1860  -21.0730   18.3410 C   0  0  0  0  0  2  0  0  0  0  0  0
  -29.9960  -19.7720   18.5960 C   0  0  0  0  0  2  0  0  0  0  0  0
  -29.8830  -19.1030   19.9850 C   0  0  0  0  0  2  0  0  0  0  0  0
  -30.0800  -17.5690   19.8900 C   0  0  0  0  0  2  0  0  0  0  0  0
  -30.2590  -16.8440   21.2430 C   0  0  0  0  0  2  0  0  0  0  0  0
  -30.6600  -14.4440   20.5500 C   0  0  0  0  0  0  0  0  0  0  0  0
  -30.3710  -12.3020   19.3600 C   0  0  0  0  0  2  0  0  0  0  0  0
  -29.4320  -12.5250   18.1560 C   0  0  0  0  0  2  0  0  0  0  0  0
  -27.9540  -12.3930   18.5740 C   0  0  0  0  0  2  0  0  0  0  0  0
  -27.6160  -13.2200   19.8420 C   0  0  0  0  0  3  0  0  0  0  0  0
  -28.6590  -12.9620   20.9530 C   0  0  0  0  0  2  0  0  0  0  0  0
  -29.9940  -13.2670   20.4030 N   0  0  0  0  0  0  0  0  0  0  0  0
  -31.7700  -14.6640   20.0570 O   0  0  0  0  0  0  0  0  0  0  0  0
  -29.9520  -15.4110   21.1570 N   0  0  0  0  0  0  0  0  0  0  0  0
  -29.0590  -15.1240   21.5300 H   0  0  0  0  0  0  0  0  0  0  0  0
  -25.2150  -13.8480   20.5290 C   0  0  0  0  0  0  0  0  0  0  0  0
  -24.1370  -13.0820   20.8860 C   0  0  0  0  0  0  0  0  0  0  0  0
  -24.5870  -11.7280   20.8550 C   0  0  0  0  0  0  0  0  0  0  0  0
  -26.2550  -12.9590   20.3060 N   0  0  0  0  0  0  0  0  0  0  0  0
  -25.8790  -11.6780   20.5560 N   0  0  0  0  0  0  0  0  0  0  0  0
  -23.8500  -10.4710   21.0360 C   0  0  0  0  0  0  0  0  0  0  0  0
  -24.2950   -9.4760   21.9330 C   0  0  0  0  0  3  0  0  0  0  0  0
  -23.5590   -8.2830   22.1020 C   0  0  0  0  0  3  0  0  0  0  0  0
  -22.3650   -8.0760   21.3720 C   0  0  0  0  0  0  0  0  0  0  0  0
  -21.9390   -9.0590   20.4630 C   0  0  0  0  0  3  0  0  0  0  0  0
  -22.6740  -10.2440   20.2920 C   0  0  0  0  0  3  0  0  0  0  0  0
  -21.5990   -6.9380   21.4530 O   0  0  0  0  0  0  0  0  0  0  0  0
  -21.6000   -6.1480   22.5740 C   0  0  0  0  0  0  0  0  0  0  0  0
  -21.2810   -6.6640   23.8490 C   0  0  0  0  0  3  0  0  0  0  0  0
  -21.2260   -5.8020   24.9620 C   0  0  0  0  0  3  0  0  0  0  0  0
  -21.4800   -4.4270   24.8030 C   0  0  0  0  0  0  0  0  0  0  0  0
  -21.7920   -3.9100   23.5330 C   0  0  0  0  0  3  0  0  0  0  0  0
  -21.8490   -4.7690   22.4220 C   0  0  0  0  0  0  0  0  0  0  0  0
  -22.1300   -4.2630   21.1960 F   0  0  0  0  0  0  0  0  0  0  0  0
  -21.4190   -3.5970   25.8710 F   0  0  0  0  0  0  0  0  0  0  0  0
  -22.7420  -13.5700   21.1520 C   0  0  0  0  0  0  0  0  0  0  0  0
  -22.0040  -12.8780   22.0140 N   0  0  0  0  0  0  0  0  0  0  0  0
  -22.3130  -14.5990   20.6290 O   0  0  0  0  0  0  0  0  0  0  0  0
  -22.3640  -12.0460   22.4570 H   0  0  0  0  0  0  0  0  0  0  0  0
  -21.0690  -13.1860   22.2340 H   0  0  0  0  0  0  0  0  0  0  0  0
  -25.3930  -15.2180   20.3570 N   0  0  0  0  0  0  0  0  0  0  0  0
  -24.6320  -15.8790   20.4610 H   0  0  0  0  0  0  0  0  0  0  0  0
  -26.2520  -15.6490   20.0380 H   0  0  0  0  0  0  0  0  0  0  0  0
  -28.3730  -25.3580   20.5450 C   0  0  0  0  0  2  0  0  0  0  0  0
  -28.4120  -26.7230   20.0810 O   0  0  0  0  0  0  0  0  0  0  0  0
  -24.6110  -31.8800   23.2050 C   0  0  0  0  0  0  0  0  0  0  0  0
  -27.2290  -27.4280   20.1210 C   0  0  0  0  0  0  0  0  0  0  0  0
  -23.3890  -30.4700   21.5810 C   0  0  0  0  0  3  0  0  0  0  0  0
  -24.8290  -28.9240   20.1530 C   0  0  0  0  0  0  0  0  0  0  0  0
  -25.9110  -30.8310   21.3540 C   0  0  0  0  0  2  0  0  0  0  0  0
  -25.9920  -29.4560   20.7230 C   0  0  0  0  0  0  0  0  0  0  0  0
  -27.1960  -28.7170   20.7010 C   0  0  0  0  0  3  0  0  0  0  0  0
  -26.0500  -26.9120   19.5390 C   0  0  0  0  0  3  0  0  0  0  0  0
  -24.8520  -27.6500   19.5580 C   0  0  0  0  0  3  0  0  0  0  0  0
  -23.5840  -29.7810   20.2040 C   0  0  0  0  0  2  0  0  0  0  0  0
  -24.6560  -31.0750   22.1050 N   0  0  0  0  0  0  0  0  0  0  0  0
  -23.5360  -32.1530   23.7550 O   0  0  0  0  0  0  0  0  0  0  0  0
  -22.7480  -29.4530   22.5530 C   0  0  0  0  0  0  0  0  0  0  0  0
  -21.4210  -29.2730   22.4410 N   0  0  0  0  0  0  0  0  0  0  0  0
  -23.4400  -28.8280   23.3610 O   0  0  0  0  0  0  0  0  0  0  0  0
  -20.9250  -29.8290   21.7600 H   0  0  0  0  0  0  0  0  0  0  0  0
  -18.0530  -28.0790   22.9690 C   0  0  0  0  0  0  0  0  0  0  0  0
  -20.6120  -28.3400   23.2230 C   0  0  0  0  0  3  0  0  0  0  0  0
  -20.7120  -26.9050   22.6550 C   0  0  0  0  0  2  0  0  0  0  0  0
  -19.6030  -26.5760   21.6500 C   0  0  0  0  0  2  0  0  0  0  0  0
  -18.2260  -26.7250   22.3020 C   0  0  0  0  0  2  0  0  0  0  0  0
  -19.1740  -28.8440   23.3880 C   0  0  0  0  0  0  0  0  0  0  0  0
  -18.9590  -30.1120   23.9710 C   0  0  0  0  0  3  0  0  0  0  0  0
  -17.6550  -30.6140   24.1410 C   0  0  0  0  0  3  0  0  0  0  0  0
  -16.5490  -29.8460   23.7400 C   0  0  0  0  0  3  0  0  0  0  0  0
  -16.7480  -28.5800   23.1600 C   0  0  0  0  0  3  0  0  0  0  0  0
  -25.9040  -32.5120   23.8090 C   0  0  0  0  0  3  0  0  0  0  0  0
  -25.5920  -33.9020   24.1650 N   0  0  0  0  0  0  0  0  0  0  0  0
  -25.9010  -34.9670   23.4130 C   0  0  0  0  0  0  0  0  0  0  0  0
  -26.5510  -34.8830   22.3670 O   0  0  0  0  0  0  0  0  0  0  0  0
  -25.0120  -34.0410   24.9790 H   0  0  0  0  0  0  0  0  0  0  0  0
  -24.1470  -36.7440   23.1210 C   0  0  0  0  0  1  0  0  0  0  0  0
  -25.4110  -36.3450   23.8980 C   0  0  0  0  0  3  0  0  0  0  0  0
  -27.5590  -37.2370   24.6810 C   0  0  0  0  0  1  0  0  0  0  0  0
  -26.4300  -37.4100   23.7730 N   0  0  0  0  0  0  0  0  0  0  0  0
  -26.0200  -38.3230   23.9450 H   0  0  0  0  0  0  0  0  0  0  0  0
  -26.4570  -31.7250   25.0600 C   0  0  1  0  0  0  0  0  0  0  0  0
  -25.3900  -31.4630   26.1490 C   0  0  0  0  0  1  0  0  0  0  0  0
  -27.0380  -30.3580   24.6310 C   0  0  0  0  0  1  0  0  0  0  0  0
  -27.6170  -32.5160   25.7070 C   0  0  0  0  0  1  0  0  0  0  0  0
  1  5  1  0
  2  1  2  0
  2  3  1  0
  3  6  2  0
  4 51  1  0
  5  4  2  0
  6  4  1  0
  7  2  1  0
  8  9  1  0
  8  3  1  0
  9 10  1  0
 11 10  1  0
 11 12  1  0
 13 21  1  0
 14 19  1  0
 15 16  1  0
 15 14  1  0
 17 16  1  0
 17 26  1  0
 17 18  1  0
 19 13  1  0
 19 18  1  0
 20 13  2  0
 21 12  1  0
 21 22  1  0
 23 24  2  0
 24 43  1  0
 25 24  1  0
 25 28  1  0
 26 23  1  0
 26 27  1  0
 27 25  2  0
 28 29  1  0
 29 30  2  0
 31 34  1  0
 31 30  1  0
 32 31  2  0
 33 32  1  0
 33 28  2  0
 34 35  1  0
 35 36  1  0
 36 37  2  0
 38 37  1  0
 38 42  1  0
 39 38  2  0
 40 35  2  0
 40 39  1  0
 41 40  1  0
 43 44  1  0
 44 47  1  0
 44 46  1  0
 45 43  2  0
 48 49  1  0
 48 23  1  0
 50 48  1  0
 52 54  1  0
 52 51  1  0
 53 64  2  0
 54 59  1  0
 55 63  1  0
 55 65  1  0
 56 62  1  0
 56 58  1  0
 57 63  1  0
 58 57  1  0
 59 58  2  0
 60 61  1  0
 60 54  2  0
 61 56  2  0
 62 55  1  0
 63 53  1  0
 65 67  2  0
 66 65  1  0
 68 66  1  0
 69 78  2  0
 69 74  1  0
 70 66  1  0
 70 74  1  0
 71 70  1  0
 72 73  1  0
 72 71  1  0
 73 69  1  0
 74 75  2  0
 75 76  1  0
 77 76  2  0
 78 77  1  0
 79 53  1  0
 79 80  1  0
 79 89  1  0
 80 83  1  0
 81 85  1  0
 81 80  1  0
 82 81  2  0
 85 84  1  0
 87 85  1  0
 87 88  1  0
 87 86  1  0
 89 92  1  1
 89 90  1  0
 91 89  1  0
M  ISO  4  13 100  21 100  51 101  52 101
M  END
>  <TORSDO>  (22) 
F 22

>  <SCORE>  (22) 
-12.985

>  <name>  (22) 
21

>  <ligand_id>  (22) 
21

>  <original_smiles>  (22) 
[H]c1nc(C([H])([H])Oc2c([H])c([H])c3c(c2[H])C([H])([H])N(C(=O)C([H])(N([H])C(=O)C([H])(N([H])C([H])([H])[H])C([H])([H])[H])C(C([H])([H])[H])(C([H])([H])[H])C([H])([H])[H])C([H])(C(=O)N([H])C2([H])c4c([H])c([H])c([H])c([H])c4C([H])([H])C([H])([H])C2([H])[H])C3([H])[H])nc(C([H])([H])C([H])([H])C([H])([H])C([H])([H])C([H])([H])N([H])C(=O)N2C([H])([H])C([H])([H])C([H])([H])C([H])(n3nc(-c4c([H])c([H])c(Oc5c([H])c([H])c(F)c([H])c5F)c([H])c4[H])c(C(=O)N([H])[H])c3N([H])[H])C2([H])[H])c1Cl

>  <smiles>  (22) 
[H]c1nc(C([H])([H])Oc2c([H])c([H])c3c(c2[H])C([H])([H])N(C(=O)C([H])(N([H])C(=O)C([H])(N([H])C([H])([H])[H])C([H])([H])[H])C(C([H])([H])[H])(C([H])([H])[H])C([H])([H])[H])C([H])(C(=O)N([H])C2([H])c4c([H])c([H])c([H])c([H])c4C([H])([H])C([H])([H])C2([H])[H])C3([H])[H])nc(C([H])([H])C([H])([H])C([H])([H])C([H])([H])C([H])([H])N([H])C(=O)N2C([H])([H])C([H])([H])C([H])([H])C([H])(n3nc(-c4c([H])c([H])c(Oc5c([H])c([H])c(F)c([H])c5F)c([H])c4[H])c(C(=O)N([H])[H])c3N([H])[H])C2([H])[H])c1Cl

$$$$
22:0:0
     RDKit          3D

 90 98  0  0  1  0  0  0  0  0999 V2000
  -29.0330  -21.8240   19.9320 C   0  0  0  0  0  0  0  0  0  0  0  0
  -29.6070  -20.3990   19.7810 C   0  0  0  0  0  0  0  0  0  0  0  0
  -27.7410  -21.6170   19.4610 C   0  0  0  0  0  0  0  0  0  0  0  0
  -26.5440  -22.5180   19.3550 C   0  0  0  0  0  1  0  0  0  0  0  0
  -26.4730  -19.6480   18.4040 C   0  0  0  0  0  1  0  0  0  0  0  0
  -28.7150  -19.6160   19.2080 N   0  0  0  0  0  0  0  0  0  0  0  0
  -27.6090  -20.3200   19.0170 N   0  0  0  0  0  0  0  0  0  0  0  0
  -29.4600  -23.3510   20.4570 C   0  0  0  0  0  3  0  0  0  0  0  0
  -28.5050  -24.7440   20.2320 C   0  0  0  0  0  3  0  0  0  0  0  0
  -28.7650  -26.2720   20.4330 O   0  0  0  0  0  0  0  0  0  0  0  0
  -24.7830  -31.8410   23.2400 C   0  0  0  0  0  0  0  0  0  0  0  0
  -27.6810  -27.2270   20.3350 C   0  0  0  0  0  0  0  0  0  0  0  0
  -23.7220  -30.4130   21.5360 C   0  0  0  0  0  3  0  0  0  0  0  0
  -25.2980  -28.8970   20.1870 C   0  0  0  0  0  0  0  0  0  0  0  0
  -26.2720  -30.7600   21.5140 C   0  0  0  0  0  2  0  0  0  0  0  0
  -26.4280  -29.3750   20.8620 C   0  0  0  0  0  0  0  0  0  0  0  0
  -27.6210  -28.5570   20.9190 C   0  0  0  0  0  3  0  0  0  0  0  0
  -26.5230  -26.8580   19.6130 C   0  0  0  0  0  3  0  0  0  0  0  0
  -25.3590  -27.6510   19.5480 C   0  0  0  0  0  3  0  0  0  0  0  0
  -24.0410  -29.7510   20.1700 C   0  0  0  0  0  2  0  0  0  0  0  0
  -24.9420  -31.0270   22.1520 N   0  0  0  0  0  0  0  0  0  0  0  0
  -23.6600  -32.0880   23.7080 O   0  0  0  0  0  0  0  0  0  0  0  0
  -23.0270  -29.3770   22.4560 C   0  0  0  0  0  0  0  0  0  0  0  0
  -21.7100  -29.1780   22.2730 N   0  0  0  0  0  0  0  0  0  0  0  0
  -23.6780  -28.7570   23.3000 O   0  0  0  0  0  0  0  0  0  0  0  0
  -21.2380  -29.7360   21.5730 H   0  0  0  0  0  0  0  0  0  0  0  0
  -18.3240  -27.9480   22.6820 C   0  0  0  0  0  0  0  0  0  0  0  0
  -20.8780  -28.2140   22.9990 C   0  0  0  0  0  3  0  0  0  0  0  0
  -20.9950  -26.8010   22.3820 C   0  0  0  0  0  2  0  0  0  0  0  0
  -19.9120  -26.5050   21.3400 C   0  0  0  0  0  2  0  0  0  0  0  0
  -18.5180  -26.6230   21.9660 C   0  0  0  0  0  2  0  0  0  0  0  0
  -19.4330  -28.7030   23.1530 C   0  0  0  0  0  0  0  0  0  0  0  0
  -19.1980  -29.9420   23.7850 C   0  0  0  0  0  3  0  0  0  0  0  0
  -17.8870  -30.4300   23.9500 C   0  0  0  0  0  3  0  0  0  0  0  0
  -16.7940  -29.6740   23.4940 C   0  0  0  0  0  3  0  0  0  0  0  0
  -17.0130  -28.4350   22.8670 C   0  0  0  0  0  3  0  0  0  0  0  0
  -26.0020  -32.5180   23.9360 C   0  0  0  0  0  3  0  0  0  0  0  0
  -26.4540  -31.7770   25.2560 C   0  0  1  0  0  0  0  0  0  0  0  0
  -25.2930  -31.4950   26.2400 C   0  0  0  0  0  1  0  0  0  0  0  0
  -27.1270  -30.4240   24.9300 C   0  0  0  0  0  1  0  0  0  0  0  0
  -27.5120  -32.6290   25.9970 C   0  0  0  0  0  1  0  0  0  0  0  0
  -25.6320  -33.9120   24.2330 N   0  0  0  0  0  0  0  0  0  0  0  0
  -25.9730  -34.9690   23.4850 C   0  0  0  0  0  0  0  0  0  0  0  0
  -26.7000  -34.8780   22.4930 O   0  0  0  0  0  0  0  0  0  0  0  0
  -24.9890  -34.0540   24.9980 H   0  0  0  0  0  0  0  0  0  0  0  0
  -24.2080  -36.7090   23.0380 C   0  0  0  0  0  1  0  0  0  0  0  0
  -25.4250  -36.3470   23.9040 C   0  0  0  0  0  3  0  0  0  0  0  0
  -27.4920  -37.3110   24.8170 C   0  0  0  0  0  1  0  0  0  0  0  0
  -26.4280  -37.4320   23.8240 N   0  0  0  0  0  0  0  0  0  0  0  0
  -25.9870  -38.3390   23.9390 H   0  0  0  0  0  0  0  0  0  0  0  0
  -30.9390  -19.4710   19.9090 C   0  0  0  0  0  2  0  0  0  0  0  0
  -31.0620  -18.0500   20.8350 C   0  0  0  0  0  2  0  0  0  0  0  0
  -31.3890  -15.3290   20.4720 C   0  0  0  0  0  0  0  0  0  0  0  0
  -31.2300  -12.9630   19.5760 C   0  0  0  0  0  2  0  0  0  0  0  0
  -30.3570  -12.8970   18.3030 C   0  0  0  0  0  2  0  0  0  0  0  0
  -28.8650  -12.7530   18.6640 C   0  0  0  0  0  2  0  0  0  0  0  0
  -28.4280  -13.7240   19.7920 C   0  0  0  0  0  3  0  0  0  0  0  0
  -29.4270  -13.7490   20.9660 C   0  0  0  0  0  2  0  0  0  0  0  0
  -30.7370  -14.1010   20.3990 N   0  0  0  0  0  0  0  0  0  0  0  0
  -32.6170  -15.3280   20.3330 O   0  0  0  0  0  0  0  0  0  0  0  0
  -30.6640  -16.5530   20.4970 N   0  0  0  0  0  0  0  0  0  0  0  0
  -29.6660  -16.4140   20.4410 H   0  0  0  0  0  0  0  0  0  0  0  0
  -26.0450  -14.3950   20.4330 C   0  0  0  0  0  0  0  0  0  0  0  0
  -24.9330  -13.6610   20.7440 C   0  0  0  0  0  0  0  0  0  0  0  0
  -25.3420  -12.2940   20.7200 C   0  0  0  0  0  0  0  0  0  0  0  0
  -27.0610  -13.4750   20.2320 N   0  0  0  0  0  0  0  0  0  0  0  0
  -26.6440  -12.2050   20.4710 N   0  0  0  0  0  0  0  0  0  0  0  0
  -24.5530  -11.0620   20.8590 C   0  0  0  0  0  0  0  0  0  0  0  0
  -24.8830  -10.0780   21.8160 C   0  0  0  0  0  3  0  0  0  0  0  0
  -24.0970   -8.9120   21.9440 C   0  0  0  0  0  3  0  0  0  0  0  0
  -22.9670   -8.7230   21.1140 C   0  0  0  0  0  0  0  0  0  0  0  0
  -22.6570   -9.6950   20.1470 C   0  0  0  0  0  3  0  0  0  0  0  0
  -23.4420  -10.8520   20.0170 C   0  0  0  0  0  3  0  0  0  0  0  0
  -22.1590   -7.6120   21.1520 O   0  0  0  0  0  0  0  0  0  0  0  0
  -21.9510   -6.9110   22.3120 C   0  0  0  0  0  0  0  0  0  0  0  0
  -21.4010   -7.5200   23.4620 C   0  0  0  0  0  3  0  0  0  0  0  0
  -21.1410   -6.7470   24.6110 C   0  0  0  0  0  3  0  0  0  0  0  0
  -21.4190   -5.3670   24.6110 C   0  0  0  0  0  0  0  0  0  0  0  0
  -21.9620   -4.7590   23.4650 C   0  0  0  0  0  3  0  0  0  0  0  0
  -22.2250   -5.5280   22.3190 C   0  0  0  0  0  0  0  0  0  0  0  0
  -22.7280   -4.9330   21.2110 F   0  0  0  0  0  0  0  0  0  0  0  0
  -21.1620   -4.6220   25.7110 F   0  0  0  0  0  0  0  0  0  0  0  0
  -23.5460  -14.1970   20.9500 C   0  0  0  0  0  0  0  0  0  0  0  0
  -22.7540  -13.5340   21.7860 N   0  0  0  0  0  0  0  0  0  0  0  0
  -23.1740  -15.2350   20.4070 O   0  0  0  0  0  0  0  0  0  0  0  0
  -23.0690  -12.6950   22.2490 H   0  0  0  0  0  0  0  0  0  0  0  0
  -21.8180  -13.8710   21.9650 H   0  0  0  0  0  0  0  0  0  0  0  0
  -26.2720  -15.7580   20.2770 N   0  0  0  0  0  0  0  0  0  0  0  0
  -25.5240  -16.4380   20.3570 H   0  0  0  0  0  0  0  0  0  0  0  0
  -27.1430  -16.1660   19.9650 H   0  0  0  0  0  0  0  0  0  0  0  0
  1  8  1  0
  2 51  1  0
  2  1  1  0
  3  1  2  0
  4  3  1  0
  5  7  1  0
  6  2  2  0
  7  6  1  0
  7  3  1  0
  9 10  1  0
  9  8  2  0
 11 22  2  0
 12 10  1  0
 12 17  1  0
 13 21  1  0
 13 23  1  0
 14 16  1  0
 15 21  1  0
 16 17  2  0
 16 15  1  0
 18 12  2  0
 19 18  1  0
 19 14  2  0
 20 14  1  0
 20 13  1  0
 21 11  1  0
 23 25  2  0
 24 23  1  0
 26 24  1  0
 27 36  2  0
 27 32  1  0
 28 24  1  0
 28 32  1  0
 29 28  1  0
 30 31  1  0
 30 29  1  0
 31 27  1  0
 32 33  2  0
 33 34  1  0
 35 34  2  0
 36 35  1  0
 37 11  1  0
 37 42  1  0
 37 38  1  0
 38 41  1  1
 38 39  1  0
 40 38  1  0
 42 45  1  0
 43 47  1  0
 43 42  1  0
 44 43  2  0
 47 46  1  0
 49 47  1  0
 49 50  1  0
 49 48  1  0
 51 52  1  0
 53 61  1  0
 54 59  1  0
 55 56  1  0
 55 54  1  0
 57 56  1  0
 57 66  1  0
 57 58  1  0
 59 53  1  0
 59 58  1  0
 60 53  2  0
 61 52  1  0
 62 61  1  0
 63 64  2  0
 64 83  1  0
 65 64  1  0
 65 68  1  0
 66 63  1  0
 66 67  1  0
 67 65  2  0
 68 69  1  0
 69 70  2  0
 71 74  1  0
 71 70  1  0
 72 71  2  0
 73 72  1  0
 73 68  2  0
 74 75  1  0
 75 80  2  0
 75 76  1  0
 76 77  2  0
 77 78  1  0
 78 82  1  0
 79 78  2  0
 80 79  1  0
 81 80  1  0
 83 84  1  0
 84 87  1  0
 84 86  1  0
 85 83  2  0
 88 89  1  0
 88 63  1  0
 90 88  1  0
M  ISO  4   9 101  10 101  53 100  61 100
M  END
>  <TORSDO>  (23) 
F 20

>  <SCORE>  (23) 
-14.204

>  <name>  (23) 
22

>  <ligand_id>  (23) 
22

>  <original_smiles>  (23) 
[H]c1c([H])c([H])c2c(c1[H])C([H])([H])C([H])([H])C([H])([H])C2([H])N([H])C(=O)C1([H])N(C(=O)C([H])(N([H])C(=O)C([H])(N([H])C([H])([H])[H])C([H])([H])[H])C(C([H])([H])[H])(C([H])([H])[H])C([H])([H])[H])C([H])([H])c2c([H])c(OC([H])([H])C([H])([H])c3c(C([H])([H])C([H])([H])N([H])C(=O)N4C([H])([H])C([H])([H])C([H])([H])C([H])(n5nc(-c6c([H])c([H])c(Oc7c([H])c([H])c(F)c([H])c7F)c([H])c6[H])c(C(=O)N([H])[H])c5N([H])[H])C4([H])[H])nn(C([H])([H])[H])c3C([H])([H])[H])c([H])c([H])c2C1([H])[H]

>  <smiles>  (23) 
[H]c1c([H])c([H])c2c(c1[H])C([H])([H])C([H])([H])C([H])([H])C2([H])N([H])C(=O)C1([H])N(C(=O)C([H])(N([H])C(=O)C([H])(N([H])C([H])([H])[H])C([H])([H])[H])C(C([H])([H])[H])(C([H])([H])[H])C([H])([H])[H])C([H])([H])c2c([H])c(OC([H])([H])C([H])([H])c3c(C([H])([H])C([H])([H])N([H])C(=O)N4C([H])([H])C([H])([H])C([H])([H])C([H])(n5nc(-c6c([H])c([H])c(Oc7c([H])c([H])c(F)c([H])c7F)c([H])c6[H])c(C(=O)N([H])[H])c5N([H])[H])C4([H])[H])nn(C([H])([H])[H])c3C([H])([H])[H])c([H])c([H])c2C1([H])[H]

$$$$
23:0:0
     RDKit          3D

 97105  0  0  1  0  0  0  0  0999 V2000
  -28.5500  -23.7150   18.9920 C   0  0  0  0  0  3  0  0  0  0  0  0
  -28.7340  -22.8600   20.0950 C   0  0  0  0  0  0  0  0  0  0  0  0
  -28.5920  -21.4560   19.8700 C   0  0  0  0  0  0  0  0  0  0  0  0
  -28.1980  -23.1960   17.7420 C   0  0  0  0  0  0  0  0  0  0  0  0
  -28.1660  -21.0360   18.5830 C   0  0  0  0  0  0  0  0  0  0  0  0
  -27.7870  -19.5940   18.2790 C   0  0  0  0  0  1  0  0  0  0  0  0
  -27.9980  -21.8810   17.5440 N   0  0  0  0  0  0  0  0  0  0  0  0
  -29.0710  -23.5070   21.4410 C   0  0  0  0  0  2  0  0  0  0  0  0
  -28.2000  -24.7420   21.8160 C   0  0  0  0  0  2  0  0  0  0  0  0
  -28.8200  -26.1350   21.5370 C   0  0  0  0  0  2  0  0  0  0  0  0
  -28.4720  -26.6450   20.2490 O   0  0  0  0  0  0  0  0  0  0  0  0
  -24.5250  -31.7840   23.1710 C   0  0  0  0  0  0  0  0  0  0  0  0
  -27.3110  -27.3720   20.2130 C   0  0  0  0  0  0  0  0  0  0  0  0
  -23.3870  -30.3720   21.4860 C   0  0  0  0  0  3  0  0  0  0  0  0
  -24.9010  -28.8310   20.1210 C   0  0  0  0  0  0  0  0  0  0  0  0
  -25.9080  -30.7500   21.3740 C   0  0  0  0  0  2  0  0  0  0  0  0
  -26.0250  -29.3750   20.7560 C   0  0  0  0  0  0  0  0  0  0  0  0
  -27.2300  -28.6510   20.8020 C   0  0  0  0  0  3  0  0  0  0  0  0
  -26.1860  -26.8410   19.5540 C   0  0  0  0  0  3  0  0  0  0  0  0
  -24.9750  -27.5640   19.5120 C   0  0  0  0  0  3  0  0  0  0  0  0
  -23.6490  -29.6810   20.1190 C   0  0  0  0  0  2  0  0  0  0  0  0
  -24.6230  -30.9820   22.0720 N   0  0  0  0  0  0  0  0  0  0  0  0
  -23.4230  -32.0520   23.6700 O   0  0  0  0  0  0  0  0  0  0  0  0
  -22.7070  -29.3510   22.4240 C   0  0  0  0  0  0  0  0  0  0  0  0
  -21.3860  -29.1830   22.2580 N   0  0  0  0  0  0  0  0  0  0  0  0
  -23.3650  -28.7140   23.2510 O   0  0  0  0  0  0  0  0  0  0  0  0
  -20.9190  -29.7510   21.5650 H   0  0  0  0  0  0  0  0  0  0  0  0
  -17.9890  -28.0290   22.6620 C   0  0  0  0  0  0  0  0  0  0  0  0
  -20.5390  -28.2420   22.9940 C   0  0  0  0  0  3  0  0  0  0  0  0
  -20.6330  -26.8200   22.3960 C   0  0  0  0  0  2  0  0  0  0  0  0
  -19.5490  -26.5300   21.3530 C   0  0  0  0  0  2  0  0  0  0  0  0
  -18.1570  -26.6870   21.9720 C   0  0  0  0  0  2  0  0  0  0  0  0
  -19.1080  -28.7680   23.1270 C   0  0  0  0  0  0  0  0  0  0  0  0
  -18.8950  -30.0290   23.7260 C   0  0  0  0  0  3  0  0  0  0  0  0
  -17.5950  -30.5460   23.8770 C   0  0  0  0  0  3  0  0  0  0  0  0
  -16.4880  -29.8000   23.4290 C   0  0  0  0  0  3  0  0  0  0  0  0
  -16.6860  -28.5460   22.8230 C   0  0  0  0  0  3  0  0  0  0  0  0
  -25.7840  -32.4160   23.8400 C   0  0  0  0  0  3  0  0  0  0  0  0
  -26.2590  -31.6390   25.1300 C   0  0  1  0  0  0  0  0  0  0  0  0
  -25.1340  -31.3890   26.1620 C   0  0  0  0  0  1  0  0  0  0  0  0
  -26.8560  -30.2680   24.7430 C   0  0  0  0  0  1  0  0  0  0  0  0
  -27.3820  -32.4320   25.8370 C   0  0  0  0  0  1  0  0  0  0  0  0
  -25.4550  -33.8090   24.1640 N   0  0  0  0  0  0  0  0  0  0  0  0
  -25.8060  -34.8650   23.4170 C   0  0  0  0  0  0  0  0  0  0  0  0
  -26.5100  -34.7680   22.4080 O   0  0  0  0  0  0  0  0  0  0  0  0
  -24.8350  -33.9520   24.9470 H   0  0  0  0  0  0  0  0  0  0  0  0
  -24.0690  -36.6390   23.0170 C   0  0  0  0  0  1  0  0  0  0  0  0
  -25.2950  -36.2490   23.8610 C   0  0  0  0  0  3  0  0  0  0  0  0
  -27.4060  -37.1530   24.7380 C   0  0  0  0  0  1  0  0  0  0  0  0
  -26.3220  -37.3120   23.7720 N   0  0  0  0  0  0  0  0  0  0  0  0
  -25.9060  -38.2290   23.9070 H   0  0  0  0  0  0  0  0  0  0  0  0
  -28.0280  -24.1140   16.5410 C   0  0  0  0  0  2  0  0  0  0  0  0
  -30.0950  -25.6270   16.3190 C   0  0  0  0  0  1  0  0  0  0  0  0
  -29.3430  -24.3910   15.7870 C   0  0  0  0  0  2  0  0  0  0  0  0
  -28.8500  -20.3810   20.9390 C   0  0  0  0  0  2  0  0  0  0  0  0
  -30.1590  -19.5740   20.7210 C   0  0  0  0  0  2  0  0  0  0  0  0
  -30.1040  -18.1750   21.3730 C   0  0  0  0  0  2  0  0  0  0  0  0
  -31.3820  -17.3350   21.1880 C   0  0  0  0  0  2  0  0  0  0  0  0
  -31.3180  -15.9570   21.8890 C   0  0  0  0  0  2  0  0  0  0  0  0
  -30.7480  -14.2390   20.1690 C   0  0  0  0  0  0  0  0  0  0  0  0
  -30.2490  -12.1810   18.9000 C   0  0  0  0  0  2  0  0  0  0  0  0
  -29.2430  -12.4110   17.7600 C   0  0  0  0  0  2  0  0  0  0  0  0
  -27.7970  -12.2890   18.2760 C   0  0  0  0  0  2  0  0  0  0  0  0
  -27.5460  -13.1270   19.5570 C   0  0  0  0  0  3  0  0  0  0  0  0
  -28.6570  -12.8850   20.6040 C   0  0  0  0  0  2  0  0  0  0  0  0
  -29.9660  -13.1450   19.9720 N   0  0  0  0  0  0  0  0  0  0  0  0
  -31.7400  -14.4900   19.4780 O   0  0  0  0  0  0  0  0  0  0  0  0
  -30.4340  -14.9910   21.2320 N   0  0  0  0  0  0  0  0  0  0  0  0
  -29.5850  -14.7430   21.7160 H   0  0  0  0  0  0  0  0  0  0  0  0
  -25.1940  -13.7720   20.3880 C   0  0  0  0  0  0  0  0  0  0  0  0
  -24.1370  -13.0200   20.8180 C   0  0  0  0  0  0  0  0  0  0  0  0
  -24.5760  -11.6600   20.7710 C   0  0  0  0  0  0  0  0  0  0  0  0
  -26.2150  -12.8770   20.1090 N   0  0  0  0  0  0  0  0  0  0  0  0
  -25.8470  -11.6000   20.3930 N   0  0  0  0  0  0  0  0  0  0  0  0
  -23.8410  -10.4110   21.0060 C   0  0  0  0  0  0  0  0  0  0  0  0
  -24.2960   -9.4470   21.9340 C   0  0  0  0  0  3  0  0  0  0  0  0
  -23.5600   -8.2640   22.1560 C   0  0  0  0  0  3  0  0  0  0  0  0
  -22.3550   -8.0330   21.4500 C   0  0  0  0  0  0  0  0  0  0  0  0
  -21.9200   -8.9830   20.5090 C   0  0  0  0  0  3  0  0  0  0  0  0
  -22.6550  -10.1590   20.2850 C   0  0  0  0  0  3  0  0  0  0  0  0
  -21.5900   -6.9000   21.5830 O   0  0  0  0  0  0  0  0  0  0  0  0
  -21.5670   -6.1770   22.7490 C   0  0  0  0  0  0  0  0  0  0  0  0
  -21.1970   -6.7620   23.9810 C   0  0  0  0  0  3  0  0  0  0  0  0
  -21.1190   -5.9670   25.1410 C   0  0  0  0  0  3  0  0  0  0  0  0
  -21.4020   -4.5900   25.0730 C   0  0  0  0  0  0  0  0  0  0  0  0
  -21.7640   -4.0050   23.8470 C   0  0  0  0  0  3  0  0  0  0  0  0
  -21.8440   -4.7960   22.6880 C   0  0  0  0  0  0  0  0  0  0  0  0
  -22.1730   -4.2230   21.5050 F   0  0  0  0  0  0  0  0  0  0  0  0
  -21.3200   -3.8240   26.1870 F   0  0  0  0  0  0  0  0  0  0  0  0
  -22.7630  -13.5190   21.1620 C   0  0  0  0  0  0  0  0  0  0  0  0
  -22.0710  -12.8390   22.0690 N   0  0  0  0  0  0  0  0  0  0  0  0
  -22.3150  -14.5490   20.6600 O   0  0  0  0  0  0  0  0  0  0  0  0
  -22.4430  -12.0060   22.4990 H   0  0  0  0  0  0  0  0  0  0  0  0
  -21.1520  -13.1620   22.3390 H   0  0  0  0  0  0  0  0  0  0  0  0
  -25.3650  -15.1410   20.1960 N   0  0  0  0  0  0  0  0  0  0  0  0
  -24.6100  -15.8010   20.3480 H   0  0  0  0  0  0  0  0  0  0  0  0
  -26.2020  -15.5780   19.8310 H   0  0  0  0  0  0  0  0  0  0  0  0
  1  2  1  0
  2  8  1  0
  3  2  2  0
  3 55  1  0
  4  1  2  0
  5  3  1  0
  6  5  1  0
  7  4  1  0
  7  5  2  0
  8  9  1  0
 10  9  1  0
 11 10  1  0
 12 23  2  0
 13 11  1  0
 13 18  1  0
 14 22  1  0
 14 24  1  0
 15 17  1  0
 16 22  1  0
 17 18  2  0
 17 16  1  0
 19 13  2  0
 20 19  1  0
 20 15  2  0
 21 15  1  0
 21 14  1  0
 22 12  1  0
 24 26  2  0
 25 24  1  0
 27 25  1  0
 28 37  2  0
 28 33  1  0
 29 25  1  0
 29 33  1  0
 30 29  1  0
 31 32  1  0
 31 30  1  0
 32 28  1  0
 33 34  2  0
 34 35  1  0
 36 35  2  0
 37 36  1  0
 38 12  1  0
 38 43  1  0
 38 39  1  0
 39 42  1  1
 39 40  1  0
 41 39  1  0
 43 46  1  0
 44 48  1  0
 44 43  1  0
 45 44  2  0
 48 47  1  0
 50 48  1  0
 50 51  1  0
 50 49  1  0
 52  4  1  0
 54 53  1  0
 54 52  1  0
 56 55  1  0
 56 57  1  0
 58 57  1  0
 58 59  1  0
 60 68  1  0
 61 66  1  0
 62 63  1  0
 62 61  1  0
 64 63  1  0
 64 73  1  0
 64 65  1  0
 66 60  1  0
 66 65  1  0
 67 60  2  0
 68 69  1  0
 68 59  1  0
 70 71  2  0
 71 90  1  0
 72 71  1  0
 72 75  1  0
 73 70  1  0
 73 74  1  0
 74 72  2  0
 75 76  1  0
 76 77  2  0
 78 81  1  0
 78 77  1  0
 79 78  2  0
 80 79  1  0
 80 75  2  0
 81 82  1  0
 82 83  1  0
 83 84  2  0
 85 84  1  0
 85 89  1  0
 86 85  2  0
 87 82  2  0
 87 86  1  0
 88 87  1  0
 90 91  1  0
 91 94  1  0
 91 93  1  0
 92 90  2  0
 95 96  1  0
 95 70  1  0
 97 95  1  0
M  ISO  4  10 101  11 101  60 100  68 100
M  END
>  <TORSDO>  (24) 
F 26

>  <SCORE>  (24) 
-11.624

>  <name>  (24) 
23

>  <ligand_id>  (24) 
23

>  <original_smiles>  (24) 
[H]c1c([H])c([H])c2c(c1[H])C([H])([H])C([H])([H])C([H])([H])C2([H])N([H])C(=O)C1([H])N(C(=O)C([H])(N([H])C(=O)C([H])(N([H])C([H])([H])[H])C([H])([H])[H])C(C([H])([H])[H])(C([H])([H])[H])C([H])([H])[H])C([H])([H])c2c([H])c(OC([H])([H])C([H])([H])C([H])([H])c3c([H])c(C([H])([H])C([H])([H])C([H])([H])[H])nc(C([H])([H])[H])c3C([H])([H])C([H])([H])C([H])([H])C([H])([H])C([H])([H])N([H])C(=O)N3C([H])([H])C([H])([H])C([H])([H])C([H])(n4nc(-c5c([H])c([H])c(Oc6c([H])c([H])c(F)c([H])c6F)c([H])c5[H])c(C(=O)N([H])[H])c4N([H])[H])C3([H])[H])c([H])c([H])c2C1([H])[H]

>  <smiles>  (24) 
[H]c1c([H])c([H])c2c(c1[H])C([H])([H])C([H])([H])C([H])([H])C2([H])N([H])C(=O)C1([H])N(C(=O)C([H])(N([H])C(=O)C([H])(N([H])C([H])([H])[H])C([H])([H])[H])C(C([H])([H])[H])(C([H])([H])[H])C([H])([H])[H])C([H])([H])c2c([H])c(OC([H])([H])C([H])([H])C([H])([H])c3c([H])c(C([H])([H])C([H])([H])C([H])([H])[H])nc(C([H])([H])[H])c3C([H])([H])C([H])([H])C([H])([H])C([H])([H])C([H])([H])N([H])C(=O)N3C([H])([H])C([H])([H])C([H])([H])C([H])(n4nc(-c5c([H])c([H])c(Oc6c([H])c([H])c(F)c([H])c6F)c([H])c5[H])c(C(=O)N([H])[H])c4N([H])[H])C3([H])[H])c([H])c([H])c2C1([H])[H]

$$$$
24:0:0
     RDKit          3D

 92100  0  0  1  0  0  0  0  0999 V2000
  -30.5510  -23.0020   17.9720 C   0  0  0  0  0  3  0  0  0  0  0  0
  -29.8610  -23.9850   18.7000 C   0  0  0  0  0  3  0  0  0  0  0  0
  -30.4770  -21.6440   18.3500 C   0  0  0  0  0  0  0  0  0  0  0  0
  -29.0880  -23.6120   19.8080 C   0  0  0  0  0  0  0  0  0  0  0  0
  -29.6980  -21.2680   19.4710 C   0  0  0  0  0  0  0  0  0  0  0  0
  -31.2990  -20.6330   17.5660 C   0  0  0  0  0  1  0  0  0  0  0  0
  -29.0160  -22.2640   20.1660 N   0  0  0  0  0  0  0  0  0  0  0  0
  -29.7810  -19.7810   20.0500 C   0  0  0  0  0  2  0  0  0  0  0  0
  -29.6000  -18.4120   19.1880 C   0  0  0  0  0  2  0  0  0  0  0  0
  -30.7180  -17.2320   19.2790 C   0  0  0  0  0  2  0  0  0  0  0  0
  -31.0150  -14.6510   19.3160 C   0  0  0  0  0  0  0  0  0  0  0  0
  -30.6170  -12.3290   18.4470 C   0  0  0  0  0  2  0  0  0  0  0  0
  -29.5160  -12.3450   17.3620 C   0  0  0  0  0  2  0  0  0  0  0  0
  -28.1160  -12.2430   17.9990 C   0  0  0  0  0  2  0  0  0  0  0  0
  -27.9430  -13.1980   19.2120 C   0  0  0  0  0  3  0  0  0  0  0  0
  -29.1430  -13.1200   20.1730 C   0  0  0  0  0  2  0  0  0  0  0  0
  -30.3490  -13.4400   19.3970 N   0  0  0  0  0  0  0  0  0  0  0  0
  -32.0560  -14.7130   18.6520 O   0  0  0  0  0  0  0  0  0  0  0  0
  -30.4460  -15.8180   19.8500 N   0  0  0  0  0  0  0  0  0  0  0  0
  -25.8050  -13.9020   20.4420 C   0  0  0  0  0  0  0  0  0  0  0  0
  -24.7410  -13.1860   20.9190 C   0  0  0  0  0  0  0  0  0  0  0  0
  -25.0330  -11.8140   20.6490 C   0  0  0  0  0  0  0  0  0  0  0  0
  -26.6810  -12.9700   19.9110 N   0  0  0  0  0  0  0  0  0  0  0  0
  -26.2340  -11.7000   20.0930 N   0  0  0  0  0  0  0  0  0  0  0  0
  -24.2130  -10.6100   20.8340 C   0  0  0  0  0  0  0  0  0  0  0  0
  -24.5970   -9.5840   21.7270 C   0  0  0  0  0  3  0  0  0  0  0  0
  -23.7810   -8.4450   21.9010 C   0  0  0  0  0  3  0  0  0  0  0  0
  -22.5680   -8.3240   21.1830 C   0  0  0  0  0  0  0  0  0  0  0  0
  -22.2000   -9.3390   20.2810 C   0  0  0  0  0  3  0  0  0  0  0  0
  -23.0150  -10.4680   20.1050 C   0  0  0  0  0  3  0  0  0  0  0  0
  -21.7240   -7.2420   21.2720 O   0  0  0  0  0  0  0  0  0  0  0  0
  -21.5240   -6.5790   22.4560 C   0  0  0  0  0  0  0  0  0  0  0  0
  -21.0300   -7.2370   23.6030 C   0  0  0  0  0  3  0  0  0  0  0  0
  -20.7730   -6.5030   24.7780 C   0  0  0  0  0  3  0  0  0  0  0  0
  -20.9970   -5.1150   24.8050 C   0  0  0  0  0  0  0  0  0  0  0  0
  -21.4860   -4.4580   23.6630 C   0  0  0  0  0  3  0  0  0  0  0  0
  -21.7440   -5.1870   22.4900 C   0  0  0  0  0  0  0  0  0  0  0  0
  -22.1940   -4.5460   21.3840 F   0  0  0  0  0  0  0  0  0  0  0  0
  -20.7410   -4.4080   25.9310 F   0  0  0  0  0  0  0  0  0  0  0  0
  -23.4780  -13.7520   21.4990 C   0  0  0  0  0  0  0  0  0  0  0  0
  -22.8570  -13.0370   22.4320 N   0  0  0  0  0  0  0  0  0  0  0  0
  -23.0620  -14.8610   21.1660 O   0  0  0  0  0  0  0  0  0  0  0  0
  -23.2160  -12.1430   22.7310 H   0  0  0  0  0  0  0  0  0  0  0  0
  -22.0100  -13.3880   22.8540 H   0  0  0  0  0  0  0  0  0  0  0  0
  -26.0890  -15.2620   20.3950 N   0  0  0  0  0  0  0  0  0  0  0  0
  -25.4360  -15.9630   20.7290 H   0  0  0  0  0  0  0  0  0  0  0  0
  -26.9290  -15.6570   19.9930 H   0  0  0  0  0  0  0  0  0  0  0  0
  -30.6120  -15.8780   21.3160 C   0  0  0  0  0  2  0  0  0  0  0  0
  -30.5430  -17.4320   23.2910 C   0  0  0  0  0  1  0  0  0  0  0  0
  -29.8250  -16.9980   22.0090 C   0  0  0  0  0  2  0  0  0  0  0  0
  -28.2470  -24.7310   20.5580 C   0  0  0  0  0  2  0  0  0  0  0  0
  -28.5290  -26.2050   20.3680 O   0  0  0  0  0  0  0  0  0  0  0  0
  -24.4890  -31.5940   23.1140 C   0  0  0  0  0  0  0  0  0  0  0  0
  -27.4180  -27.0660   20.2690 C   0  0  0  0  0  0  0  0  0  0  0  0
  -23.4180  -30.1010   21.4660 C   0  0  0  0  0  3  0  0  0  0  0  0
  -24.9970  -28.5950   20.1290 C   0  0  0  0  0  0  0  0  0  0  0  0
  -25.9480  -30.5350   21.3690 C   0  0  0  0  0  2  0  0  0  0  0  0
  -26.1210  -29.1440   20.7600 C   0  0  0  0  0  0  0  0  0  0  0  0
  -27.3410  -28.3920   20.8180 C   0  0  0  0  0  3  0  0  0  0  0  0
  -26.2790  -26.6000   19.5800 C   0  0  0  0  0  3  0  0  0  0  0  0
  -25.0810  -27.3330   19.5260 C   0  0  0  0  0  3  0  0  0  0  0  0
  -23.7180  -29.4090   20.1120 C   0  0  0  0  0  2  0  0  0  0  0  0
  -24.6350  -30.7640   22.0390 N   0  0  0  0  0  0  0  0  0  0  0  0
  -23.3750  -31.8230   23.6060 O   0  0  0  0  0  0  0  0  0  0  0  0
  -22.7720  -29.0720   22.4270 C   0  0  0  0  0  0  0  0  0  0  0  0
  -21.4540  -28.8430   22.2780 N   0  0  0  0  0  0  0  0  0  0  0  0
  -23.4550  -28.4800   23.2660 O   0  0  0  0  0  0  0  0  0  0  0  0
  -20.9560  -29.3800   21.5820 H   0  0  0  0  0  0  0  0  0  0  0  0
  -18.1130  -27.5370   22.7510 C   0  0  0  0  0  0  0  0  0  0  0  0
  -20.6570  -27.8840   23.0480 C   0  0  0  0  0  3  0  0  0  0  0  0
  -20.8110  -26.4490   22.4920 C   0  0  0  0  0  2  0  0  0  0  0  0
  -19.7350  -26.0810   21.4660 C   0  0  0  0  0  2  0  0  0  0  0  0
  -18.3410  -26.1880   22.0930 C   0  0  0  0  0  2  0  0  0  0  0  0
  -19.2010  -28.3400   23.1870 C   0  0  0  0  0  0  0  0  0  0  0  0
  -18.9330  -29.6000   23.7660 C   0  0  0  0  0  3  0  0  0  0  0  0
  -17.6100  -30.0590   23.9080 C   0  0  0  0  0  3  0  0  0  0  0  0
  -16.5370  -29.2540   23.4870 C   0  0  0  0  0  3  0  0  0  0  0  0
  -16.7890  -27.9950   22.9160 C   0  0  0  0  0  3  0  0  0  0  0  0
  -25.7140  -32.3090   23.7620 C   0  0  0  0  0  3  0  0  0  0  0  0
  -25.3280  -33.7040   24.0180 N   0  0  0  0  0  0  0  0  0  0  0  0
  -25.6410  -34.7390   23.2250 C   0  0  0  0  0  0  0  0  0  0  0  0
  -26.3490  -34.6190   22.2220 O   0  0  0  0  0  0  0  0  0  0  0  0
  -24.7010  -33.8630   24.7930 H   0  0  0  0  0  0  0  0  0  0  0  0
  -23.8430  -36.4310   22.7440 C   0  0  0  0  0  1  0  0  0  0  0  0
  -25.0800  -36.1230   23.6050 C   0  0  0  0  0  3  0  0  0  0  0  0
  -27.1510  -37.1420   24.4420 C   0  0  0  0  0  1  0  0  0  0  0  0
  -26.0660  -37.2170   23.4670 N   0  0  0  0  0  0  0  0  0  0  0  0
  -25.6150  -38.1230   23.5650 H   0  0  0  0  0  0  0  0  0  0  0  0
  -26.2020  -31.6160   25.0940 C   0  0  1  0  0  0  0  0  0  0  0  0
  -25.0730  -31.3720   26.1230 C   0  0  0  0  0  1  0  0  0  0  0  0
  -26.8600  -30.2520   24.7900 C   0  0  0  0  0  1  0  0  0  0  0  0
  -27.2850  -32.4870   25.7720 C   0  0  0  0  0  1  0  0  0  0  0  0
  1  3  2  0
  1  2  1  0
  2  4  2  0
  3  5  1  0
  4  7  1  0
  4 51  1  0
  5  8  1  0
  5  7  2  0
  6  3  1  0
  9 10  1  0
  9  8  1  0
 10 19  1  0
 11 17  1  0
 11 19  1  0
 12 17  1  0
 13 14  1  0
 13 12  1  0
 15 14  1  0
 15 23  1  0
 15 16  1  0
 17 16  1  0
 18 11  2  0
 19 48  1  0
 20 21  2  0
 21 40  1  0
 22 25  1  0
 22 21  1  0
 23 24  1  0
 23 20  1  0
 24 22  2  0
 25 26  1  0
 26 27  2  0
 28 31  1  0
 28 27  1  0
 29 28  2  0
 30 29  1  0
 30 25  2  0
 31 32  1  0
 32 37  2  0
 32 33  1  0
 33 34  2  0
 34 35  1  0
 35 39  1  0
 36 35  2  0
 37 36  1  0
 38 37  1  0
 40 41  1  0
 41 43  1  0
 41 44  1  0
 42 40  2  0
 45 20  1  0
 45 46  1  0
 47 45  1  0
 48 50  1  0
 50 49  1  0
 52 51  1  0
 53 64  2  0
 54 52  1  0
 54 59  1  0
 55 63  1  0
 55 65  1  0
 56 58  1  0
 57 63  1  0
 58 59  2  0
 58 57  1  0
 60 54  2  0
 61 60  1  0
 61 56  2  0
 62 56  1  0
 62 55  1  0
 63 53  1  0
 65 67  2  0
 66 65  1  0
 68 66  1  0
 69 78  2  0
 69 74  1  0
 70 66  1  0
 70 74  1  0
 71 70  1  0
 72 73  1  0
 72 71  1  0
 73 69  1  0
 74 75  2  0
 75 76  1  0
 77 76  2  0
 78 77  1  0
 79 53  1  0
 79 80  1  0
 79 89  1  0
 80 83  1  0
 81 85  1  0
 81 80  1  0
 82 81  2  0
 85 84  1  0
 87 88  1  0
 87 85  1  0
 87 86  1  0
 89 92  1  1
 89 90  1  0
 91 89  1  0
M  ISO  4  11 100  19 100  51 101  52 101
M  END
>  <TORSDO>  (25) 
F 22

>  <SCORE>  (25) 
-10.753

>  <name>  (25) 
24

>  <ligand_id>  (25) 
24

>  <original_smiles>  (25) 
[H]c1c(C([H])([H])Oc2c([H])c([H])c3c(c2[H])C([H])([H])N(C(=O)C([H])(N([H])C(=O)C([H])(N([H])C([H])([H])[H])C([H])([H])[H])C(C([H])([H])[H])(C([H])([H])[H])C([H])([H])[H])C([H])(C(=O)N([H])C2([H])c4c([H])c([H])c([H])c([H])c4C([H])([H])C([H])([H])C2([H])[H])C3([H])[H])nc(C([H])([H])C([H])([H])C([H])([H])N(C(=O)N2C([H])([H])C([H])([H])C([H])([H])C([H])(n3nc(-c4c([H])c([H])c(Oc5c([H])c([H])c(F)c([H])c5F)c([H])c4[H])c(C(=O)N([H])[H])c3N([H])[H])C2([H])[H])C([H])([H])C([H])([H])C([H])([H])[H])c(C([H])([H])[H])c1[H]

>  <smiles>  (25) 
[H]c1c(C([H])([H])Oc2c([H])c([H])c3c(c2[H])C([H])([H])N(C(=O)C([H])(N([H])C(=O)C([H])(N([H])C([H])([H])[H])C([H])([H])[H])C(C([H])([H])[H])(C([H])([H])[H])C([H])([H])[H])C([H])(C(=O)N([H])C2([H])c4c([H])c([H])c([H])c([H])c4C([H])([H])C([H])([H])C2([H])[H])C3([H])[H])nc(C([H])([H])C([H])([H])C([H])([H])N(C(=O)N2C([H])([H])C([H])([H])C([H])([H])C([H])(n3nc(-c4c([H])c([H])c(Oc5c([H])c([H])c(F)c([H])c5F)c([H])c4[H])c(C(=O)N([H])[H])c3N([H])[H])C2([H])[H])C([H])([H])C([H])([H])C([H])([H])[H])c(C([H])([H])[H])c1[H]

$$$$
25:0:0
     RDKit          3D

 89 97  0  0  1  0  0  0  0  0999 V2000
  -30.2940  -22.9990   18.2870 C   0  0  0  0  0  3  0  0  0  0  0  0
  -28.9380  -23.4180   19.9330 C   0  0  0  0  0  0  0  0  0  0  0  0
  -29.2030  -21.9490   19.9110 C   0  0  0  0  0  0  0  0  0  0  0  0
  -30.6250  -20.5760   18.2400 C   0  0  0  0  0  1  0  0  0  0  0  0
  -29.7020  -23.9900   18.9170 N   0  0  0  0  0  0  0  0  0  0  0  0
  -30.0650  -21.7940   18.8060 N   0  0  0  0  0  0  0  0  0  0  0  0
  -28.0290  -24.6070   20.6030 C   0  0  0  0  0  2  0  0  0  0  0  0
  -28.2670  -26.1280   20.2750 O   0  0  0  0  0  0  0  0  0  0  0  0
  -24.6490  -31.8580   23.1950 C   0  0  0  0  0  0  0  0  0  0  0  0
  -27.2130  -27.1120   20.2200 C   0  0  0  0  0  0  0  0  0  0  0  0
  -23.4440  -30.4580   21.5590 C   0  0  0  0  0  3  0  0  0  0  0  0
  -24.8960  -28.8750   20.1410 C   0  0  0  0  0  0  0  0  0  0  0  0
  -25.9970  -30.7190   21.3890 C   0  0  0  0  0  2  0  0  0  0  0  0
  -26.0730  -29.3190   20.7550 C   0  0  0  0  0  0  0  0  0  0  0  0
  -27.2330  -28.4540   20.7770 C   0  0  0  0  0  3  0  0  0  0  0  0
  -26.0130  -26.7710   19.5600 C   0  0  0  0  0  3  0  0  0  0  0  0
  -24.8830  -27.6180   19.5210 C   0  0  0  0  0  3  0  0  0  0  0  0
  -23.6660  -29.7730   20.1830 C   0  0  0  0  0  2  0  0  0  0  0  0
  -24.7170  -31.0350   22.1040 N   0  0  0  0  0  0  0  0  0  0  0  0
  -23.5670  -32.1430   23.7290 O   0  0  0  0  0  0  0  0  0  0  0  0
  -22.7700  -29.4540   22.5260 C   0  0  0  0  0  0  0  0  0  0  0  0
  -21.4410  -29.2850   22.4090 N   0  0  0  0  0  0  0  0  0  0  0  0
  -23.4440  -28.8270   23.3460 O   0  0  0  0  0  0  0  0  0  0  0  0
  -20.9490  -29.8450   21.7280 H   0  0  0  0  0  0  0  0  0  0  0  0
  -18.0640  -28.0710   22.9160 C   0  0  0  0  0  0  0  0  0  0  0  0
  -20.6220  -28.3500   23.1860 C   0  0  0  0  0  3  0  0  0  0  0  0
  -20.7310  -26.9100   22.6290 C   0  0  0  0  0  2  0  0  0  0  0  0
  -19.6340  -26.5710   21.6130 C   0  0  0  0  0  2  0  0  0  0  0  0
  -18.2490  -26.7170   22.2500 C   0  0  0  0  0  2  0  0  0  0  0  0
  -19.1800  -28.8420   23.3400 C   0  0  0  0  0  0  0  0  0  0  0  0
  -18.9510  -30.1070   23.9260 C   0  0  0  0  0  3  0  0  0  0  0  0
  -17.6440  -30.6040   24.0830 C   0  0  0  0  0  3  0  0  0  0  0  0
  -16.5440  -29.8300   23.6700 C   0  0  0  0  0  3  0  0  0  0  0  0
  -16.7570  -28.5640   23.0960 C   0  0  0  0  0  3  0  0  0  0  0  0
  -25.9290  -32.4980   23.8180 C   0  0  0  0  0  3  0  0  0  0  0  0
  -26.4530  -31.7270   25.0930 C   0  0  1  0  0  0  0  0  0  0  0  0
  -25.3670  -31.4880   26.1670 C   0  0  0  0  0  1  0  0  0  0  0  0
  -27.0330  -30.3500   24.6960 C   0  0  0  0  0  1  0  0  0  0  0  0
  -27.6040  -32.5200   25.7530 C   0  0  0  0  0  1  0  0  0  0  0  0
  -25.6120  -33.8950   24.1630 N   0  0  0  0  0  0  0  0  0  0  0  0
  -25.9300  -34.9590   23.4130 C   0  0  0  0  0  0  0  0  0  0  0  0
  -26.5880  -34.8680   22.3730 O   0  0  0  0  0  0  0  0  0  0  0  0
  -25.0320  -34.0380   24.9760 H   0  0  0  0  0  0  0  0  0  0  0  0
  -24.1880  -36.7490   23.1000 C   0  0  0  0  0  1  0  0  0  0  0  0
  -25.4410  -36.3410   23.8920 C   0  0  0  0  0  3  0  0  0  0  0  0
  -27.5830  -37.2300   24.6970 C   0  0  0  0  0  1  0  0  0  0  0  0
  -26.4660  -37.4000   23.7720 N   0  0  0  0  0  0  0  0  0  0  0  0
  -26.0580  -38.3160   23.9390 H   0  0  0  0  0  0  0  0  0  0  0  0
  -28.7120  -20.5240   20.5650 C   0  0  0  0  0  2  0  0  0  0  0  0
  -29.5830  -19.0900   20.9130 C   0  0  0  0  0  2  0  0  0  0  0  0
  -29.5990  -17.6350   20.0420 C   0  0  0  0  0  2  0  0  0  0  0  0
  -30.4680  -14.9760   20.2960 C   0  0  0  0  0  0  0  0  0  0  0  0
  -30.3450  -12.6350   19.3280 C   0  0  0  0  0  2  0  0  0  0  0  0
  -29.4030  -12.6050   18.0980 C   0  0  0  0  0  2  0  0  0  0  0  0
  -27.9380  -12.4090   18.5260 C   0  0  0  0  0  2  0  0  0  0  0  0
  -27.5530  -13.2970   19.7390 C   0  0  0  0  0  3  0  0  0  0  0  0
  -28.6130  -13.2940   20.8600 C   0  0  0  0  0  2  0  0  0  0  0  0
  -29.8860  -13.7080   20.2560 N   0  0  0  0  0  0  0  0  0  0  0  0
  -31.6400  -15.0690   19.9200 O   0  0  0  0  0  0  0  0  0  0  0  0
  -29.6750  -16.1310   20.5700 N   0  0  0  0  0  0  0  0  0  0  0  0
  -28.7830  -15.8370   20.9430 H   0  0  0  0  0  0  0  0  0  0  0  0
  -25.1830  -13.8680   20.5080 C   0  0  0  0  0  0  0  0  0  0  0  0
  -24.1210  -13.0880   20.8840 C   0  0  0  0  0  0  0  0  0  0  0  0
  -24.5870  -11.7400   20.8430 C   0  0  0  0  0  0  0  0  0  0  0  0
  -26.2220  -12.9900   20.2490 N   0  0  0  0  0  0  0  0  0  0  0  0
  -25.8770  -11.7050   20.5210 N   0  0  0  0  0  0  0  0  0  0  0  0
  -23.8600  -10.4790   21.0430 C   0  0  0  0  0  0  0  0  0  0  0  0
  -24.3070   -9.5030   21.9620 C   0  0  0  0  0  3  0  0  0  0  0  0
  -23.5770   -8.3080   22.1510 C   0  0  0  0  0  3  0  0  0  0  0  0
  -22.3860   -8.0840   21.4190 C   0  0  0  0  0  0  0  0  0  0  0  0
  -21.9560   -9.0490   20.4930 C   0  0  0  0  0  3  0  0  0  0  0  0
  -22.6860  -10.2340   20.3020 C   0  0  0  0  0  3  0  0  0  0  0  0
  -21.6240   -6.9440   21.5200 O   0  0  0  0  0  0  0  0  0  0  0  0
  -21.6130   -6.1840   22.6610 C   0  0  0  0  0  0  0  0  0  0  0  0
  -21.2480   -6.7250   23.9140 C   0  0  0  0  0  3  0  0  0  0  0  0
  -21.1810   -5.8910   25.0480 C   0  0  0  0  0  3  0  0  0  0  0  0
  -21.4650   -4.5190   24.9330 C   0  0  0  0  0  0  0  0  0  0  0  0
  -21.8200   -3.9760   23.6840 C   0  0  0  0  0  3  0  0  0  0  0  0
  -21.8910   -4.8040   22.5500 C   0  0  0  0  0  0  0  0  0  0  0  0
  -22.2140   -4.2720   21.3460 F   0  0  0  0  0  0  0  0  0  0  0  0
  -21.3940   -3.7140   26.0210 F   0  0  0  0  0  0  0  0  0  0  0  0
  -22.7300  -13.5710   21.1610 C   0  0  0  0  0  0  0  0  0  0  0  0
  -22.0090  -12.8770   22.0400 N   0  0  0  0  0  0  0  0  0  0  0  0
  -22.2900  -14.5970   20.6460 O   0  0  0  0  0  0  0  0  0  0  0  0
  -22.3840  -12.0490   22.4780 H   0  0  0  0  0  0  0  0  0  0  0  0
  -21.0770  -13.1780   22.2690 H   0  0  0  0  0  0  0  0  0  0  0  0
  -25.3400  -15.2380   20.3350 N   0  0  0  0  0  0  0  0  0  0  0  0
  -24.5710  -15.8830   20.4720 H   0  0  0  0  0  0  0  0  0  0  0  0
  -26.1810  -15.6890   19.9920 H   0  0  0  0  0  0  0  0  0  0  0  0
  1  6  1  0
  1  5  2  0
  2  7  1  0
  3  2  2  0
  3 49  1  0
  4  6  1  0
  5  2  1  0
  6  3  1  0
  8  7  1  0
  9 20  2  0
 10  8  1  0
 10 15  1  0
 11 19  1  0
 11 21  1  0
 12 18  1  0
 12 14  1  0
 13 19  1  0
 14 15  2  0
 14 13  1  0
 16 10  2  0
 17 16  1  0
 17 12  2  0
 18 11  1  0
 19  9  1  0
 21 23  2  0
 22 21  1  0
 24 22  1  0
 25 34  2  0
 25 30  1  0
 26 22  1  0
 26 30  1  0
 27 26  1  0
 28 29  1  0
 28 27  1  0
 29 25  1  0
 30 31  2  0
 31 32  1  0
 33 32  2  0
 34 33  1  0
 35  9  1  0
 35 40  1  0
 35 36  1  0
 36 39  1  1
 36 37  1  0
 38 36  1  0
 40 43  1  0
 41 45  1  0
 41 40  1  0
 42 41  2  0
 45 44  1  0
 47 45  1  0
 47 48  1  0
 47 46  1  0
 49 50  1  0
 51 60  1  0
 51 50  1  0
 52 60  1  0
 53 58  1  0
 54 55  1  0
 54 53  1  0
 56 55  1  0
 56 65  1  0
 56 57  1  0
 58 52  1  0
 58 57  1  0
 59 52  2  0
 60 61  1  0
 62 63  2  0
 63 82  1  0
 64 63  1  0
 64 67  1  0
 65 62  1  0
 65 66  1  0
 66 64  2  0
 67 68  1  0
 68 69  2  0
 70 73  1  0
 70 69  1  0
 71 70  2  0
 72 71  1  0
 72 67  2  0
 73 74  1  0
 74 75  1  0
 75 76  2  0
 77 76  1  0
 77 81  1  0
 78 77  2  0
 79 74  2  0
 79 78  1  0
 80 79  1  0
 82 83  1  0
 83 86  1  0
 83 85  1  0
 84 82  2  0
 87 88  1  0
 87 62  1  0
 89 87  1  0
M  ISO  4   7 101   8 101  52 100  60 100
M  END
>  <TORSDO>  (26) 
F 20

>  <SCORE>  (26) 
-14.856

>  <name>  (26) 
25

>  <ligand_id>  (26) 
25

>  <original_smiles>  (26) 
[H]c1c([H])c([H])c2c(c1[H])C([H])([H])C([H])([H])C([H])([H])C2([H])N([H])C(=O)C1([H])N(C(=O)C([H])(N([H])C(=O)C([H])(N([H])C([H])([H])[H])C([H])([H])[H])C(C([H])([H])[H])(C([H])([H])[H])C([H])([H])[H])C([H])([H])c2c([H])c(OC([H])([H])c3nc([H])n(C([H])([H])[H])c3C([H])([H])C([H])([H])C([H])([H])N([H])C(=O)N3C([H])([H])C([H])([H])C([H])([H])C([H])(n4nc(-c5c([H])c([H])c(Oc6c([H])c([H])c(F)c([H])c6F)c([H])c5[H])c(C(=O)N([H])[H])c4N([H])[H])C3([H])[H])c([H])c([H])c2C1([H])[H]

>  <smiles>  (26) 
[H]c1c([H])c([H])c2c(c1[H])C([H])([H])C([H])([H])C([H])([H])C2([H])N([H])C(=O)C1([H])N(C(=O)C([H])(N([H])C(=O)C([H])(N([H])C([H])([H])[H])C([H])([H])[H])C(C([H])([H])[H])(C([H])([H])[H])C([H])([H])[H])C([H])([H])c2c([H])c(OC([H])([H])c3nc([H])n(C([H])([H])[H])c3C([H])([H])C([H])([H])C([H])([H])N([H])C(=O)N3C([H])([H])C([H])([H])C([H])([H])C([H])(n4nc(-c5c([H])c([H])c(Oc6c([H])c([H])c(F)c([H])c6F)c([H])c5[H])c(C(=O)N([H])[H])c4N([H])[H])C3([H])[H])c([H])c([H])c2C1([H])[H]

$$$$
26:0:0
     RDKit          3D

 90 98  0  0  1  0  0  0  0  0999 V2000
  -28.8900  -22.7930   19.9550 C   0  0  0  0  0  0  0  0  0  0  0  0
  -27.8820  -22.0790   19.3470 C   0  0  0  0  0  0  0  0  0  0  0  0
  -29.4920  -20.6350   20.5620 C   0  0  0  0  0  0  0  0  0  0  0  0
  -26.7880  -22.6050   18.4750 C   0  0  0  0  0  1  0  0  0  0  0  0
  -29.7700  -21.9500   20.6680 N   0  0  0  0  0  0  0  0  0  0  0  0
  -28.0200  -20.3560   19.6390 S   0  0  0  0  0  0  0  0  0  0  0  0
  -29.1450  -24.2910   19.8020 C   0  0  0  0  0  2  0  0  0  0  0  0
  -28.2390  -25.2440   20.6280 C   0  0  0  0  0  2  0  0  0  0  0  0
  -28.3870  -26.6350   20.2300 O   0  0  0  0  0  0  0  0  0  0  0  0
  -24.5840  -31.8670   23.2340 C   0  0  0  0  0  0  0  0  0  0  0  0
  -27.2360  -27.4010   20.1900 C   0  0  0  0  0  0  0  0  0  0  0  0
  -23.3820  -30.4630   21.5930 C   0  0  0  0  0  3  0  0  0  0  0  0
  -24.8440  -28.9330   20.1650 C   0  0  0  0  0  0  0  0  0  0  0  0
  -25.9120  -30.8220   21.4020 C   0  0  0  0  0  2  0  0  0  0  0  0
  -26.0040  -29.4530   20.7570 C   0  0  0  0  0  0  0  0  0  0  0  0
  -27.2030  -28.6970   20.7610 C   0  0  0  0  0  3  0  0  0  0  0  0
  -26.0660  -26.9150   19.5650 C   0  0  0  0  0  3  0  0  0  0  0  0
  -24.8760  -27.6630   19.5650 C   0  0  0  0  0  3  0  0  0  0  0  0
  -23.5970  -29.7880   20.2130 C   0  0  0  0  0  2  0  0  0  0  0  0
  -24.6450  -31.0620   22.1350 N   0  0  0  0  0  0  0  0  0  0  0  0
  -23.5010  -32.1390   23.7710 O   0  0  0  0  0  0  0  0  0  0  0  0
  -22.7280  -29.4380   22.5500 C   0  0  0  0  0  0  0  0  0  0  0  0
  -21.4010  -29.2610   22.4320 N   0  0  0  0  0  0  0  0  0  0  0  0
  -23.4130  -28.8050   23.3570 O   0  0  0  0  0  0  0  0  0  0  0  0
  -20.9050  -29.8260   21.7560 H   0  0  0  0  0  0  0  0  0  0  0  0
  -18.0240  -28.0910   22.9460 C   0  0  0  0  0  0  0  0  0  0  0  0
  -20.5850  -28.3210   23.2000 C   0  0  0  0  0  3  0  0  0  0  0  0
  -20.6730  -26.8930   22.6120 C   0  0  0  0  0  2  0  0  0  0  0  0
  -19.5610  -26.5920   21.6020 C   0  0  0  0  0  2  0  0  0  0  0  0
  -18.1840  -26.7450   22.2580 C   0  0  0  0  0  2  0  0  0  0  0  0
  -19.1520  -28.8390   23.3720 C   0  0  0  0  0  0  0  0  0  0  0  0
  -18.9520  -30.1020   23.9700 C   0  0  0  0  0  3  0  0  0  0  0  0
  -17.6550  -30.6180   24.1450 C   0  0  0  0  0  3  0  0  0  0  0  0
  -16.5390  -29.8650   23.7400 C   0  0  0  0  0  3  0  0  0  0  0  0
  -16.7230  -28.6020   23.1470 C   0  0  0  0  0  3  0  0  0  0  0  0
  -25.8690  -32.4980   23.8520 C   0  0  0  0  0  3  0  0  0  0  0  0
  -25.5580  -33.8980   24.1720 N   0  0  0  0  0  0  0  0  0  0  0  0
  -25.8980  -34.9470   23.4090 C   0  0  0  0  0  0  0  0  0  0  0  0
  -26.5770  -34.8390   22.3840 O   0  0  0  0  0  0  0  0  0  0  0  0
  -24.9570  -34.0580   24.9670 H   0  0  0  0  0  0  0  0  0  0  0  0
  -24.1810  -36.7450   23.0300 C   0  0  0  0  0  1  0  0  0  0  0  0
  -25.4080  -36.3380   23.8580 C   0  0  0  0  0  3  0  0  0  0  0  0
  -27.5330  -37.2180   24.7150 C   0  0  0  0  0  1  0  0  0  0  0  0
  -26.4440  -37.3890   23.7590 N   0  0  0  0  0  0  0  0  0  0  0  0
  -26.0350  -38.3080   23.9110 H   0  0  0  0  0  0  0  0  0  0  0  0
  -26.3880  -31.7300   25.1280 C   0  0  1  0  0  0  0  0  0  0  0  0
  -25.2960  -31.4930   26.1980 C   0  0  0  0  0  1  0  0  0  0  0  0
  -26.9700  -30.3490   24.7400 C   0  0  0  0  0  1  0  0  0  0  0  0
  -27.5340  -32.5270   25.7910 C   0  0  0  0  0  1  0  0  0  0  0  0
  -30.4190  -19.5450   21.0720 C   0  0  0  0  0  2  0  0  0  0  0  0
  -29.8560  -18.1040   21.3460 C   0  0  0  0  0  2  0  0  0  0  0  0
  -30.6030  -16.9610   20.5860 C   0  0  0  0  0  2  0  0  0  0  0  0
  -30.7560  -14.4990   20.2980 C   0  0  0  0  0  0  0  0  0  0  0  0
  -30.3860  -12.3610   19.1250 C   0  0  0  0  0  2  0  0  0  0  0  0
  -29.4310  -12.6200   17.9410 C   0  0  0  0  0  2  0  0  0  0  0  0
  -27.9610  -12.5020   18.3820 C   0  0  0  0  0  2  0  0  0  0  0  0
  -27.6610  -13.2910   19.6850 C   0  0  0  0  0  3  0  0  0  0  0  0
  -28.7330  -13.0350   20.7640 C   0  0  0  0  0  2  0  0  0  0  0  0
  -30.0500  -13.3350   20.1800 N   0  0  0  0  0  0  0  0  0  0  0  0
  -31.8760  -14.6360   19.7970 O   0  0  0  0  0  0  0  0  0  0  0  0
  -30.1160  -15.5730   20.8160 N   0  0  0  0  0  0  0  0  0  0  0  0
  -29.2040  -15.4330   21.2240 H   0  0  0  0  0  0  0  0  0  0  0  0
  -25.2780  -13.8910   20.4250 C   0  0  0  0  0  0  0  0  0  0  0  0
  -24.2160  -13.1180   20.8130 C   0  0  0  0  0  0  0  0  0  0  0  0
  -24.6760  -11.7660   20.7720 C   0  0  0  0  0  0  0  0  0  0  0  0
  -26.3170  -13.0080   20.1810 N   0  0  0  0  0  0  0  0  0  0  0  0
  -25.9600  -11.7260   20.4420 N   0  0  0  0  0  0  0  0  0  0  0  0
  -23.9520  -10.5050   20.9770 C   0  0  0  0  0  0  0  0  0  0  0  0
  -24.4000   -9.5410   21.9090 C   0  0  0  0  0  3  0  0  0  0  0  0
  -23.6790   -8.3430   22.1040 C   0  0  0  0  0  3  0  0  0  0  0  0
  -22.4950   -8.1010   21.3660 C   0  0  0  0  0  0  0  0  0  0  0  0
  -22.0680   -9.0500   20.4200 C   0  0  0  0  0  3  0  0  0  0  0  0
  -22.7890  -10.2400   20.2250 C   0  0  0  0  0  3  0  0  0  0  0  0
  -21.7450   -6.9550   21.4670 O   0  0  0  0  0  0  0  0  0  0  0  0
  -21.7060   -6.2180   22.6230 C   0  0  0  0  0  0  0  0  0  0  0  0
  -21.2850   -6.7780   23.8480 C   0  0  0  0  0  3  0  0  0  0  0  0
  -21.1920   -5.9670   24.9980 C   0  0  0  0  0  3  0  0  0  0  0  0
  -21.5130   -4.5990   24.9220 C   0  0  0  0  0  0  0  0  0  0  0  0
  -21.9270   -4.0390   23.7010 C   0  0  0  0  0  3  0  0  0  0  0  0
  -22.0170   -4.8450   22.5530 C   0  0  0  0  0  0  0  0  0  0  0  0
  -22.3970   -4.2980   21.3730 F   0  0  0  0  0  0  0  0  0  0  0  0
  -21.4170   -3.8170   26.0230 F   0  0  0  0  0  0  0  0  0  0  0  0
  -22.8260  -13.5950   21.1180 C   0  0  0  0  0  0  0  0  0  0  0  0
  -22.1240  -12.8910   22.0010 N   0  0  0  0  0  0  0  0  0  0  0  0
  -22.3710  -14.6160   20.6060 O   0  0  0  0  0  0  0  0  0  0  0  0
  -22.5120  -12.0650   22.4300 H   0  0  0  0  0  0  0  0  0  0  0  0
  -21.1850  -13.1740   22.2470 H   0  0  0  0  0  0  0  0  0  0  0  0
  -25.4490  -15.2600   20.2400 N   0  0  0  0  0  0  0  0  0  0  0  0
  -24.7190  -15.9480   20.3770 H   0  0  0  0  0  0  0  0  0  0  0  0
  -26.3190  -15.6680   19.9230 H   0  0  0  0  0  0  0  0  0  0  0  0
  1  5  1  0
  2  6  1  0
  2  1  2  0
  3  5  2  0
  3 50  1  0
  4  2  1  0
  6  3  1  0
  7  1  1  0
  7  8  1  0
  9  8  1  0
 10 21  2  0
 11  9  1  0
 11 16  1  0
 12 20  1  0
 12 22  1  0
 13 19  1  0
 13 15  1  0
 14 20  1  0
 15 16  2  0
 15 14  1  0
 17 11  2  0
 18 17  1  0
 18 13  2  0
 19 12  1  0
 20 10  1  0
 22 24  2  0
 23 22  1  0
 25 23  1  0
 26 35  2  0
 26 31  1  0
 27 23  1  0
 27 31  1  0
 28 27  1  0
 29 30  1  0
 29 28  1  0
 30 26  1  0
 31 32  2  0
 32 33  1  0
 34 33  2  0
 35 34  1  0
 36 10  1  0
 36 37  1  0
 36 46  1  0
 37 40  1  0
 38 42  1  0
 38 37  1  0
 39 38  2  0
 42 41  1  0
 44 42  1  0
 44 45  1  0
 44 43  1  0
 46 49  1  1
 46 47  1  0
 48 46  1  0
 50 51  1  0
 52 61  1  0
 52 51  1  0
 53 61  1  0
 54 59  1  0
 55 56  1  0
 55 54  1  0
 57 56  1  0
 57 66  1  0
 57 58  1  0
 59 53  1  0
 59 58  1  0
 60 53  2  0
 61 62  1  0
 63 64  2  0
 64 83  1  0
 65 64  1  0
 65 68  1  0
 66 63  1  0
 66 67  1  0
 67 65  2  0
 68 69  1  0
 69 70  2  0
 71 74  1  0
 71 70  1  0
 72 71  2  0
 73 72  1  0
 73 68  2  0
 74 75  1  0
 75 76  1  0
 76 77  2  0
 78 77  1  0
 78 82  1  0
 79 78  2  0
 80 75  2  0
 80 79  1  0
 81 80  1  0
 83 84  1  0
 84 87  1  0
 84 86  1  0
 85 83  2  0
 88 89  1  0
 88 63  1  0
 90 88  1  0
M  ISO  4   8 101   9 101  53 100  61 100
M  END
>  <TORSDO>  (27) 
F 21

>  <SCORE>  (27) 
-13.360

>  <name>  (27) 
26

>  <ligand_id>  (27) 
26

>  <original_smiles>  (27) 
[H]c1c([H])c([H])c2c(c1[H])C([H])([H])C([H])([H])C([H])([H])C2([H])N([H])C(=O)C1([H])N(C(=O)C([H])(N([H])C(=O)C([H])(N([H])C([H])([H])[H])C([H])([H])[H])C(C([H])([H])[H])(C([H])([H])[H])C([H])([H])[H])C([H])([H])c2c([H])c(OC([H])([H])C([H])([H])c3nc(C([H])([H])C([H])([H])C([H])([H])N([H])C(=O)N4C([H])([H])C([H])([H])C([H])([H])C([H])(n5nc(-c6c([H])c([H])c(Oc7c([H])c([H])c(F)c([H])c7F)c([H])c6[H])c(C(=O)N([H])[H])c5N([H])[H])C4([H])[H])sc3C([H])([H])[H])c([H])c([H])c2C1([H])[H]

>  <smiles>  (27) 
[H]c1c([H])c([H])c2c(c1[H])C([H])([H])C([H])([H])C([H])([H])C2([H])N([H])C(=O)C1([H])N(C(=O)C([H])(N([H])C(=O)C([H])(N([H])C([H])([H])[H])C([H])([H])[H])C(C([H])([H])[H])(C([H])([H])[H])C([H])([H])[H])C([H])([H])c2c([H])c(OC([H])([H])C([H])([H])c3nc(C([H])([H])C([H])([H])C([H])([H])N([H])C(=O)N4C([H])([H])C([H])([H])C([H])([H])C([H])(n5nc(-c6c([H])c([H])c(Oc7c([H])c([H])c(F)c([H])c7F)c([H])c6[H])c(C(=O)N([H])[H])c5N([H])[H])C4([H])[H])sc3C([H])([H])[H])c([H])c([H])c2C1([H])[H]

$$$$
27:0:0
     RDKit          3D

 91 99  0  0  1  0  0  0  0  0999 V2000
  -29.1940  -23.3020   20.5440 C   0  0  0  0  0  3  0  0  0  0  0  0
  -26.7490  -22.7020   21.5880 C   0  0  0  0  0  3  0  0  0  0  0  0
  -28.3820  -24.3990   20.9740 C   0  0  0  0  0  0  0  0  0  0  0  0
  -27.1130  -24.0600   21.5080 C   0  0  0  0  0  0  0  0  0  0  0  0
  -28.7580  -21.9560   20.7020 C   0  0  0  0  0  0  0  0  0  0  0  0
  -26.1230  -25.0940   22.0300 C   0  0  0  0  0  1  0  0  0  0  0  0
  -27.5430  -21.6800   21.2130 N   0  0  0  0  0  0  0  0  0  0  0  0
  -28.9210  -25.8620   21.0040 C   0  0  0  0  0  2  0  0  0  0  0  0
  -28.5250  -26.7820   19.9560 O   0  0  0  0  0  0  0  0  0  0  0  0
  -24.6340  -31.9130   23.2250 C   0  0  0  0  0  0  0  0  0  0  0  0
  -27.3690  -27.5340   20.0830 C   0  0  0  0  0  0  0  0  0  0  0  0
  -23.4750  -30.5470   21.5230 C   0  0  0  0  0  3  0  0  0  0  0  0
  -24.9700  -29.0540   20.0860 C   0  0  0  0  0  0  0  0  0  0  0  0
  -26.0060  -30.9140   21.3930 C   0  0  0  0  0  2  0  0  0  0  0  0
  -26.1160  -29.5540   20.7230 C   0  0  0  0  0  0  0  0  0  0  0  0
  -27.3190  -28.8000   20.7250 C   0  0  0  0  0  3  0  0  0  0  0  0
  -26.2130  -27.0660   19.4270 C   0  0  0  0  0  3  0  0  0  0  0  0
  -25.0160  -27.8070   19.4390 C   0  0  0  0  0  3  0  0  0  0  0  0
  -23.7190  -29.9060   20.1310 C   0  0  0  0  0  2  0  0  0  0  0  0
  -24.7220  -31.1400   22.1050 N   0  0  0  0  0  0  0  0  0  0  0  0
  -23.5410  -32.1620   23.7520 O   0  0  0  0  0  0  0  0  0  0  0  0
  -22.8140  -29.4940   22.4440 C   0  0  0  0  0  0  0  0  0  0  0  0
  -21.4890  -29.3190   22.3040 N   0  0  0  0  0  0  0  0  0  0  0  0
  -23.4930  -28.8380   23.2370 O   0  0  0  0  0  0  0  0  0  0  0  0
  -21.0020  -29.9010   21.6370 H   0  0  0  0  0  0  0  0  0  0  0  0
  -18.1050  -28.1390   22.7820 C   0  0  0  0  0  0  0  0  0  0  0  0
  -20.6690  -28.3530   23.0340 C   0  0  0  0  0  3  0  0  0  0  0  0
  -20.7470  -26.9520   22.3830 C   0  0  0  0  0  2  0  0  0  0  0  0
  -19.6300  -26.6960   21.3670 C   0  0  0  0  0  2  0  0  0  0  0  0
  -18.2570  -26.8250   22.0330 C   0  0  0  0  0  2  0  0  0  0  0  0
  -19.2390  -28.8640   23.2360 C   0  0  0  0  0  0  0  0  0  0  0  0
  -19.0450  -30.0980   23.8950 C   0  0  0  0  0  3  0  0  0  0  0  0
  -17.7500  -30.6100   24.1000 C   0  0  0  0  0  3  0  0  0  0  0  0
  -16.6300  -29.8810   23.6640 C   0  0  0  0  0  3  0  0  0  0  0  0
  -16.8080  -28.6470   23.0130 C   0  0  0  0  0  3  0  0  0  0  0  0
  -25.9020  -32.5400   23.8840 C   0  0  0  0  0  3  0  0  0  0  0  0
  -25.5880  -33.9370   24.2150 N   0  0  0  0  0  0  0  0  0  0  0  0
  -25.9420  -34.9930   23.4720 C   0  0  0  0  0  0  0  0  0  0  0  0
  -26.6400  -34.8960   22.4580 O   0  0  0  0  0  0  0  0  0  0  0  0
  -24.9730  -34.0880   25.0020 H   0  0  0  0  0  0  0  0  0  0  0  0
  -24.2280  -36.7910   23.0830 C   0  0  0  0  0  1  0  0  0  0  0  0
  -25.4450  -36.3790   23.9250 C   0  0  0  0  0  3  0  0  0  0  0  0
  -27.5540  -37.2560   24.8260 C   0  0  0  0  0  1  0  0  0  0  0  0
  -26.4820  -37.4310   23.8480 N   0  0  0  0  0  0  0  0  0  0  0  0
  -26.0730  -38.3500   23.9900 H   0  0  0  0  0  0  0  0  0  0  0  0
  -26.3860  -31.7590   25.1670 C   0  0  1  0  0  0  0  0  0  0  0  0
  -25.2650  -31.5080   26.2030 C   0  0  0  0  0  1  0  0  0  0  0  0
  -26.9850  -30.3880   24.7810 C   0  0  0  0  0  1  0  0  0  0  0  0
  -27.5180  -32.5520   25.8650 C   0  0  0  0  0  1  0  0  0  0  0  0
  -29.5440  -20.8620   20.3120 O   0  0  0  0  0  0  0  0  0  0  0  0
  -29.4990  -19.6090   21.0650 C   0  0  0  0  0  2  0  0  0  0  0  0
  -29.8130  -18.2920   20.2570 C   0  0  0  0  0  2  0  0  0  0  0  0
  -30.3220  -17.0780   21.1260 C   0  0  0  0  0  2  0  0  0  0  0  0
  -30.7700  -14.7050   20.1790 C   0  0  0  0  0  0  0  0  0  0  0  0
  -30.5270  -12.5160   19.0270 C   0  0  0  0  0  2  0  0  0  0  0  0
  -29.5480  -12.6760   17.8430 C   0  0  0  0  0  2  0  0  0  0  0  0
  -28.0870  -12.5190   18.3110 C   0  0  0  0  0  2  0  0  0  0  0  0
  -27.7680  -13.3680   19.5720 C   0  0  0  0  0  3  0  0  0  0  0  0
  -28.8470  -13.1530   20.6550 C   0  0  0  0  0  2  0  0  0  0  0  0
  -30.1430  -13.4990   20.0540 N   0  0  0  0  0  0  0  0  0  0  0  0
  -31.9150  -14.9050   19.7610 O   0  0  0  0  0  0  0  0  0  0  0  0
  -29.9870  -15.7030   20.6640 N   0  0  0  0  0  0  0  0  0  0  0  0
  -29.0470  -15.4030   20.8760 H   0  0  0  0  0  0  0  0  0  0  0  0
  -25.3860  -13.9810   20.3250 C   0  0  0  0  0  0  0  0  0  0  0  0
  -24.3260  -13.2110   20.7230 C   0  0  0  0  0  0  0  0  0  0  0  0
  -24.7890  -11.8600   20.6990 C   0  0  0  0  0  0  0  0  0  0  0  0
  -26.4260  -13.0970   20.0810 N   0  0  0  0  0  0  0  0  0  0  0  0
  -26.0720  -11.8180   20.3660 N   0  0  0  0  0  0  0  0  0  0  0  0
  -24.0700  -10.6000   20.9150 C   0  0  0  0  0  0  0  0  0  0  0  0
  -24.4980   -9.6620   21.8800 C   0  0  0  0  0  3  0  0  0  0  0  0
  -23.7800   -8.4640   22.0820 C   0  0  0  0  0  3  0  0  0  0  0  0
  -22.6180   -8.1970   21.3190 C   0  0  0  0  0  0  0  0  0  0  0  0
  -22.2090   -9.1240   20.3440 C   0  0  0  0  0  3  0  0  0  0  0  0
  -22.9280  -10.3130   20.1410 C   0  0  0  0  0  3  0  0  0  0  0  0
  -21.8710   -7.0490   21.4270 O   0  0  0  0  0  0  0  0  0  0  0  0
  -21.7880   -6.3550   22.6080 C   0  0  0  0  0  0  0  0  0  0  0  0
  -21.2920   -6.9490   23.7880 C   0  0  0  0  0  3  0  0  0  0  0  0
  -21.1580   -6.1790   24.9620 C   0  0  0  0  0  3  0  0  0  0  0  0
  -21.5080   -4.8170   24.9540 C   0  0  0  0  0  0  0  0  0  0  0  0
  -21.9970   -4.2210   23.7790 C   0  0  0  0  0  3  0  0  0  0  0  0
  -22.1330   -4.9880   22.6080 C   0  0  0  0  0  0  0  0  0  0  0  0
  -22.5840   -4.4050   21.4710 F   0  0  0  0  0  0  0  0  0  0  0  0
  -21.3720   -4.0750   26.0790 F   0  0  0  0  0  0  0  0  0  0  0  0
  -22.9330  -13.6900   21.0140 C   0  0  0  0  0  0  0  0  0  0  0  0
  -22.2240  -13.0020   21.9030 N   0  0  0  0  0  0  0  0  0  0  0  0
  -22.4840  -14.7090   20.4930 O   0  0  0  0  0  0  0  0  0  0  0  0
  -22.6020  -12.1790   22.3470 H   0  0  0  0  0  0  0  0  0  0  0  0
  -21.2900  -13.3040   22.1410 H   0  0  0  0  0  0  0  0  0  0  0  0
  -25.5450  -15.3500   20.1300 N   0  0  0  0  0  0  0  0  0  0  0  0
  -24.7740  -15.9990   20.2460 H   0  0  0  0  0  0  0  0  0  0  0  0
  -26.3800  -15.7880   19.7620 H   0  0  0  0  0  0  0  0  0  0  0  0
  1  5  1  0
  1  3  2  0
  3  8  1  0
  3  4  1  0
  4  2  2  0
  4  6  1  0
  5  7  2  0
  7  2  1  0
  9 11  1  0
  9  8  1  0
 10 21  2  0
 11 16  1  0
 12 20  1  0
 12 22  1  0
 13 19  1  0
 13 15  1  0
 14 20  1  0
 15 16  2  0
 15 14  1  0
 17 18  1  0
 17 11  2  0
 18 13  2  0
 19 12  1  0
 20 10  1  0
 22 24  2  0
 23 22  1  0
 25 23  1  0
 26 35  2  0
 26 31  1  0
 27 23  1  0
 27 31  1  0
 28 27  1  0
 29 30  1  0
 29 28  1  0
 30 26  1  0
 31 32  2  0
 32 33  1  0
 34 33  2  0
 35 34  1  0
 36 10  1  0
 36 37  1  0
 36 46  1  0
 37 40  1  0
 38 42  1  0
 38 37  1  0
 39 38  2  0
 42 41  1  0
 44 42  1  0
 44 45  1  0
 44 43  1  0
 46 49  1  1
 46 47  1  0
 48 46  1  0
 50  5  1  0
 50 51  1  0
 52 51  1  0
 52 53  1  0
 54 62  1  0
 55 60  1  0
 56 57  1  0
 56 55  1  0
 58 57  1  0
 58 67  1  0
 58 59  1  0
 60 54  1  0
 60 59  1  0
 61 54  2  0
 62 63  1  0
 62 53  1  0
 64 65  2  0
 65 84  1  0
 66 65  1  0
 66 69  1  0
 67 64  1  0
 67 68  1  0
 68 66  2  0
 69 70  1  0
 70 71  2  0
 72 75  1  0
 72 71  1  0
 73 72  2  0
 74 73  1  0
 74 69  2  0
 75 76  1  0
 76 81  2  0
 76 77  1  0
 77 78  2  0
 79 78  1  0
 79 83  1  0
 80 79  2  0
 81 80  1  0
 82 81  1  0
 84 85  1  0
 85 88  1  0
 85 87  1  0
 86 84  2  0
 89 90  1  0
 89 64  1  0
 91 89  1  0
M  ISO  4   8 101   9 101  54 100  62 100
M  END
>  <TORSDO>  (28) 
F 21

>  <SCORE>  (28) 
-13.044

>  <name>  (28) 
27

>  <ligand_id>  (28) 
27

>  <original_smiles>  (28) 
[H]c1nc(OC([H])([H])C([H])([H])C([H])([H])N([H])C(=O)N2C([H])([H])C([H])([H])C([H])([H])C([H])(n3nc(-c4c([H])c([H])c(Oc5c([H])c([H])c(F)c([H])c5F)c([H])c4[H])c(C(=O)N([H])[H])c3N([H])[H])C2([H])[H])c([H])c(C([H])([H])Oc2c([H])c([H])c3c(c2[H])C([H])([H])N(C(=O)C([H])(N([H])C(=O)C([H])(N([H])C([H])([H])[H])C([H])([H])[H])C(C([H])([H])[H])(C([H])([H])[H])C([H])([H])[H])C([H])(C(=O)N([H])C2([H])c4c([H])c([H])c([H])c([H])c4C([H])([H])C([H])([H])C2([H])[H])C3([H])[H])c1C([H])([H])[H]

>  <smiles>  (28) 
[H]c1nc(OC([H])([H])C([H])([H])C([H])([H])N([H])C(=O)N2C([H])([H])C([H])([H])C([H])([H])C([H])(n3nc(-c4c([H])c([H])c(Oc5c([H])c([H])c(F)c([H])c5F)c([H])c4[H])c(C(=O)N([H])[H])c3N([H])[H])C2([H])[H])c([H])c(C([H])([H])Oc2c([H])c([H])c3c(c2[H])C([H])([H])N(C(=O)C([H])(N([H])C(=O)C([H])(N([H])C([H])([H])[H])C([H])([H])[H])C(C([H])([H])[H])(C([H])([H])[H])C([H])([H])[H])C([H])(C(=O)N([H])C2([H])c4c([H])c([H])c([H])c([H])c4C([H])([H])C([H])([H])C2([H])[H])C3([H])[H])c1C([H])([H])[H]

$$$$
28:0:0
     RDKit          3D

 91 99  0  0  1  0  0  0  0  0999 V2000
  -27.7160  -23.3130   20.8210 C   0  0  0  0  0  3  0  0  0  0  0  0
  -27.4040  -22.0150   21.2290 C   0  0  0  0  0  0  0  0  0  0  0  0
  -28.8330  -23.4950   19.9890 C   0  0  0  0  0  0  0  0  0  0  0  0
  -29.1700  -21.1740   20.0280 C   0  0  0  0  0  0  0  0  0  0  0  0
  -26.2150  -21.7330   22.1220 C   0  0  0  0  0  1  0  0  0  0  0  0
  -28.1240  -20.9600   20.8190 N   0  0  0  0  0  0  0  0  0  0  0  0
  -29.5590  -22.3970   19.6010 N   0  0  0  0  0  0  0  0  0  0  0  0
  -29.1840  -24.9030   19.4230 C   0  0  0  0  0  3  0  0  0  0  0  0
  -28.9280  -26.1370   20.3680 C   0  0  0  0  0  3  0  0  0  0  0  0
  -28.9710  -27.4760   19.7850 O   0  0  0  0  0  0  0  0  0  0  0  0
  -24.9020  -31.9700   23.5990 C   0  0  0  0  0  0  0  0  0  0  0  0
  -27.7920  -28.1980   19.8800 C   0  0  0  0  0  0  0  0  0  0  0  0
  -23.7790  -30.7670   21.7550 C   0  0  0  0  0  3  0  0  0  0  0  0
  -25.3180  -29.5650   20.1110 C   0  0  0  0  0  0  0  0  0  0  0  0
  -26.2810  -31.3030   21.6270 C   0  0  0  0  0  2  0  0  0  0  0  0
  -26.4490  -30.0560   20.7760 C   0  0  0  0  0  0  0  0  0  0  0  0
  -27.6930  -29.3830   20.6540 C   0  0  0  0  0  3  0  0  0  0  0  0
  -26.6440  -27.7350   19.2050 C   0  0  0  0  0  3  0  0  0  0  0  0
  -25.4120  -28.4060   19.3200 C   0  0  0  0  0  3  0  0  0  0  0  0
  -24.0230  -30.3280   20.2870 C   0  0  0  0  0  2  0  0  0  0  0  0
  -25.0050  -31.3550   22.3860 N   0  0  0  0  0  0  0  0  0  0  0  0
  -23.8090  -32.0860   24.1700 O   0  0  0  0  0  0  0  0  0  0  0  0
  -23.1960  -29.5720   22.5420 C   0  0  0  0  0  0  0  0  0  0  0  0
  -21.8990  -29.2890   22.3350 N   0  0  0  0  0  0  0  0  0  0  0  0
  -23.9100  -28.9060   23.2970 O   0  0  0  0  0  0  0  0  0  0  0  0
  -21.3800  -29.8850   21.7050 H   0  0  0  0  0  0  0  0  0  0  0  0
  -18.6560  -27.7010   22.4760 C   0  0  0  0  0  0  0  0  0  0  0  0
  -21.1520  -28.1850   22.9380 C   0  0  0  0  0  3  0  0  0  0  0  0
  -21.4410  -26.8540   22.2040 C   0  0  0  0  0  2  0  0  0  0  0  0
  -20.4330  -26.5480   21.0920 C   0  0  0  0  0  2  0  0  0  0  0  0
  -19.0130  -26.4700   21.6600 C   0  0  0  0  0  2  0  0  0  0  0  0
  -19.6610  -28.5150   23.0620 C   0  0  0  0  0  0  0  0  0  0  0  0
  -19.2740  -29.6670   23.7810 C   0  0  0  0  0  3  0  0  0  0  0  0
  -17.9150  -30.0070   23.9210 C   0  0  0  0  0  3  0  0  0  0  0  0
  -16.9240  -29.1880   23.3510 C   0  0  0  0  0  3  0  0  0  0  0  0
  -17.2950  -28.0360   22.6350 C   0  0  0  0  0  3  0  0  0  0  0  0
  -26.1490  -32.5780   24.3170 C   0  0  0  0  0  3  0  0  0  0  0  0
  -25.8110  -33.9560   24.7000 N   0  0  0  0  0  0  0  0  0  0  0  0
  -26.1720  -35.0470   24.0110 C   0  0  0  0  0  0  0  0  0  0  0  0
  -26.8930  -34.9990   23.0100 O   0  0  0  0  0  0  0  0  0  0  0  0
  -25.1800  -34.0660   25.4800 H   0  0  0  0  0  0  0  0  0  0  0  0
  -24.4380  -36.8360   23.6680 C   0  0  0  0  0  1  0  0  0  0  0  0
  -25.6490  -36.4070   24.5110 C   0  0  0  0  0  3  0  0  0  0  0  0
  -27.7360  -37.2760   25.4700 C   0  0  0  0  0  1  0  0  0  0  0  0
  -26.6730  -37.4740   24.4890 N   0  0  0  0  0  0  0  0  0  0  0  0
  -26.2500  -38.3830   24.6580 H   0  0  0  0  0  0  0  0  0  0  0  0
  -26.6090  -31.7450   25.5760 C   0  0  1  0  0  0  0  0  0  0  0  0
  -25.4610  -31.4180   26.5580 C   0  0  0  0  0  1  0  0  0  0  0  0
  -27.2520  -30.4090   25.1400 C   0  0  0  0  0  1  0  0  0  0  0  0
  -27.6960  -32.5260   26.3510 C   0  0  0  0  0  1  0  0  0  0  0  0
  -29.8330  -19.8810   19.4790 C   0  0  0  0  0  2  0  0  0  0  0  0
  -30.5260  -18.9410   20.5340 C   0  0  0  0  0  2  0  0  0  0  0  0
  -30.1960  -17.3970   20.5260 C   0  0  0  0  0  2  0  0  0  0  0  0
  -31.7570  -15.4540   19.9210 C   0  0  0  0  0  0  0  0  0  0  0  0
  -31.5010  -13.1120   19.1920 C   0  0  0  0  0  2  0  0  0  0  0  0
  -30.5850  -13.0720   17.9530 C   0  0  0  0  0  2  0  0  0  0  0  0
  -29.1090  -12.9680   18.3810 C   0  0  0  0  0  2  0  0  0  0  0  0
  -28.7250  -14.0000   19.4770 C   0  0  0  0  0  3  0  0  0  0  0  0
  -29.7700  -14.0410   20.6140 C   0  0  0  0  0  2  0  0  0  0  0  0
  -31.0800  -14.2720   19.9970 N   0  0  0  0  0  0  0  0  0  0  0  0
  -32.9430  -15.4980   19.6030 O   0  0  0  0  0  0  0  0  0  0  0  0
  -31.0380  -16.5720   19.6430 N   0  0  0  0  0  0  0  0  0  0  0  0
  -31.5750  -17.1550   19.0180 H   0  0  0  0  0  0  0  0  0  0  0  0
  -26.3720  -14.6870   20.2440 C   0  0  0  0  0  0  0  0  0  0  0  0
  -25.2810  -13.9530   20.6220 C   0  0  0  0  0  0  0  0  0  0  0  0
  -25.6870  -12.5850   20.5690 C   0  0  0  0  0  0  0  0  0  0  0  0
  -27.3770  -13.7680   19.9840 N   0  0  0  0  0  0  0  0  0  0  0  0
  -26.9690  -12.4980   20.2400 N   0  0  0  0  0  0  0  0  0  0  0  0
  -24.9130  -11.3510   20.7550 C   0  0  0  0  0  0  0  0  0  0  0  0
  -25.2360  -10.4210   21.7690 C   0  0  0  0  0  3  0  0  0  0  0  0
  -24.4650   -9.2510   21.9410 C   0  0  0  0  0  3  0  0  0  0  0  0
  -23.3550   -9.0030   21.0980 C   0  0  0  0  0  0  0  0  0  0  0  0
  -23.0510   -9.9200   20.0760 C   0  0  0  0  0  3  0  0  0  0  0  0
  -23.8230  -11.0800   19.9030 C   0  0  0  0  0  3  0  0  0  0  0  0
  -22.5640   -7.8810   21.1750 O   0  0  0  0  0  0  0  0  0  0  0  0
  -22.2610   -7.2960   22.3780 C   0  0  0  0  0  0  0  0  0  0  0  0
  -21.5920   -8.0030   23.4020 C   0  0  0  0  0  3  0  0  0  0  0  0
  -21.2360   -7.3430   24.5950 C   0  0  0  0  0  3  0  0  0  0  0  0
  -21.5390   -5.9780   24.7640 C   0  0  0  0  0  0  0  0  0  0  0  0
  -22.1990   -5.2720   23.7430 C   0  0  0  0  0  3  0  0  0  0  0  0
  -22.5560   -5.9300   22.5520 C   0  0  0  0  0  0  0  0  0  0  0  0
  -23.1740   -5.2390   21.5630 F   0  0  0  0  0  0  0  0  0  0  0  0
  -21.1910   -5.3420   25.9060 F   0  0  0  0  0  0  0  0  0  0  0  0
  -23.9080  -14.4830   20.9210 C   0  0  0  0  0  0  0  0  0  0  0  0
  -23.1720  -13.8150   21.8020 N   0  0  0  0  0  0  0  0  0  0  0  0
  -23.4990  -15.5240   20.4090 O   0  0  0  0  0  0  0  0  0  0  0  0
  -23.5150  -12.9730   22.2380 H   0  0  0  0  0  0  0  0  0  0  0  0
  -22.2500  -14.1530   22.0440 H   0  0  0  0  0  0  0  0  0  0  0  0
  -26.5880  -16.0510   20.0740 N   0  0  0  0  0  0  0  0  0  0  0  0
  -25.8490  -16.7350   20.1960 H   0  0  0  0  0  0  0  0  0  0  0  0
  -27.4440  -16.4510   19.7140 H   0  0  0  0  0  0  0  0  0  0  0  0
  1  2  2  0
  2  5  1  0
  3  1  1  0
  4  6  2  0
  6  2  1  0
  7  3  2  0
  7  4  1  0
  8  3  1  0
  8  9  2  0
 10 12  1  0
 10  9  1  0
 11 22  2  0
 12 17  1  0
 13 21  1  0
 13 23  1  0
 14 20  1  0
 14 16  1  0
 15 21  1  0
 16 15  1  0
 17 16  2  0
 18 19  1  0
 18 12  2  0
 19 14  2  0
 20 13  1  0
 21 11  1  0
 23 25  2  0
 24 23  1  0
 26 24  1  0
 27 36  2  0
 27 32  1  0
 28 24  1  0
 28 32  1  0
 29 28  1  0
 30 31  1  0
 30 29  1  0
 31 27  1  0
 32 33  2  0
 33 34  1  0
 35 34  2  0
 36 35  1  0
 37 11  1  0
 37 38  1  0
 37 47  1  0
 38 41  1  0
 39 43  1  0
 39 38  1  0
 40 39  2  0
 43 42  1  0
 45 43  1  0
 45 46  1  0
 45 44  1  0
 47 50  1  1
 47 48  1  0
 49 47  1  0
 51  4  1  0
 51 52  1  0
 53 52  1  0
 54 60  1  0
 55 60  1  0
 56 57  1  0
 56 55  1  0
 58 57  1  0
 58 67  1  0
 58 59  1  0
 60 59  1  0
 61 54  2  0
 62 54  1  0
 62 53  1  0
 63 62  1  0
 64 65  2  0
 65 84  1  0
 66 65  1  0
 66 69  1  0
 67 68  1  0
 67 64  1  0
 68 66  2  0
 69 70  1  0
 70 71  2  0
 72 75  1  0
 72 71  1  0
 73 72  2  0
 74 73  1  0
 74 69  2  0
 75 76  1  0
 76 81  2  0
 76 77  1  0
 77 78  2  0
 78 79  1  0
 79 83  1  0
 80 79  2  0
 81 80  1  0
 82 81  1  0
 84 85  1  0
 85 88  1  0
 85 87  1  0
 86 84  2  0
 89 90  1  0
 89 64  1  0
 91 89  1  0
M  ISO  4   9 101  10 101  54 100  62 100
M  END
>  <TORSDO>  (29) 
F 21

>  <SCORE>  (29) 
-6.709

>  <name>  (29) 
28

>  <ligand_id>  (29) 
28

>  <original_smiles>  (29) 
[H]c1c(C([H])([H])[H])nc(C([H])([H])C([H])([H])C([H])([H])N([H])C(=O)N2C([H])([H])C([H])([H])C([H])([H])C([H])(n3nc(-c4c([H])c([H])c(Oc5c([H])c([H])c(F)c([H])c5F)c([H])c4[H])c(C(=O)N([H])[H])c3N([H])[H])C2([H])[H])nc1C([H])([H])C([H])([H])Oc1c([H])c([H])c2c(c1[H])C([H])([H])N(C(=O)C([H])(N([H])C(=O)C([H])(N([H])C([H])([H])[H])C([H])([H])[H])C(C([H])([H])[H])(C([H])([H])[H])C([H])([H])[H])C([H])(C(=O)N([H])C1([H])c3c([H])c([H])c([H])c([H])c3C([H])([H])C([H])([H])C1([H])[H])C2([H])[H]

>  <smiles>  (29) 
[H]c1c(C([H])([H])[H])nc(C([H])([H])C([H])([H])C([H])([H])N([H])C(=O)N2C([H])([H])C([H])([H])C([H])([H])C([H])(n3nc(-c4c([H])c([H])c(Oc5c([H])c([H])c(F)c([H])c5F)c([H])c4[H])c(C(=O)N([H])[H])c3N([H])[H])C2([H])[H])nc1C([H])([H])C([H])([H])Oc1c([H])c([H])c2c(c1[H])C([H])([H])N(C(=O)C([H])(N([H])C(=O)C([H])(N([H])C([H])([H])[H])C([H])([H])[H])C(C([H])([H])[H])(C([H])([H])[H])C([H])([H])[H])C([H])(C(=O)N([H])C1([H])c3c([H])c([H])c([H])c([H])c3C([H])([H])C([H])([H])C1([H])[H])C2([H])[H]

$$$$
29:0:0
     RDKit          3D

 91 99  0  0  1  0  0  0  0  0999 V2000
  -30.6000  -23.3610   20.4480 C   0  0  0  0  0  3  0  0  0  0  0  0
  -30.9120  -20.6530   20.5500 C   0  0  0  0  0  3  0  0  0  0  0  0
  -29.4090  -22.6050   20.5300 C   0  0  0  0  0  0  0  0  0  0  0  0
  -29.5840  -21.1330   20.5720 C   0  0  0  0  0  0  0  0  0  0  0  0
  -31.8600  -22.7480   20.4470 C   0  0  0  0  0  0  0  0  0  0  0  0
  -33.1290  -23.5750   20.4120 C   0  0  0  0  0  1  0  0  0  0  0  0
  -32.0160  -21.4180   20.4950 N   0  0  0  0  0  0  0  0  0  0  0  0
  -28.1040  -23.5130   20.5250 C   0  0  0  0  0  2  0  0  0  0  0  0
  -28.0840  -24.9820   21.2530 C   0  0  0  0  0  2  0  0  0  0  0  0
  -28.3040  -26.3300   20.6070 O   0  0  0  0  0  0  0  0  0  0  0  0
  -24.6670  -31.9520   23.4670 C   0  0  0  0  0  0  0  0  0  0  0  0
  -27.2240  -27.2430   20.5560 C   0  0  0  0  0  0  0  0  0  0  0  0
  -23.4600  -30.5490   21.8340 C   0  0  0  0  0  3  0  0  0  0  0  0
  -24.9000  -28.9320   20.4630 C   0  0  0  0  0  0  0  0  0  0  0  0
  -26.0120  -30.7990   21.6890 C   0  0  0  0  0  2  0  0  0  0  0  0
  -26.0720  -29.4020   21.0710 C   0  0  0  0  0  0  0  0  0  0  0  0
  -27.2390  -28.5720   21.1010 C   0  0  0  0  0  3  0  0  0  0  0  0
  -26.0320  -26.8370   19.9180 C   0  0  0  0  0  3  0  0  0  0  0  0
  -24.8850  -27.6570   19.8750 C   0  0  0  0  0  3  0  0  0  0  0  0
  -23.6840  -29.8390   20.4720 C   0  0  0  0  0  2  0  0  0  0  0  0
  -24.7310  -31.1200   22.3860 N   0  0  0  0  0  0  0  0  0  0  0  0
  -23.5820  -32.2640   23.9800 O   0  0  0  0  0  0  0  0  0  0  0  0
  -22.7580  -29.5690   22.8040 C   0  0  0  0  0  0  0  0  0  0  0  0
  -21.4510  -29.3350   22.5920 N   0  0  0  0  0  0  0  0  0  0  0  0
  -23.3910  -29.0200   23.7090 O   0  0  0  0  0  0  0  0  0  0  0  0
  -20.9980  -29.8310   21.8360 H   0  0  0  0  0  0  0  0  0  0  0  0
  -18.1190  -27.9440   22.8350 C   0  0  0  0  0  0  0  0  0  0  0  0
  -20.6080  -28.4130   23.3560 C   0  0  0  0  0  3  0  0  0  0  0  0
  -20.8650  -26.9470   22.9370 C   0  0  0  0  0  2  0  0  0  0  0  0
  -19.9100  -26.4550   21.8440 C   0  0  0  0  0  2  0  0  0  0  0  0
  -18.4560  -26.5550   22.3150 C   0  0  0  0  0  2  0  0  0  0  0  0
  -19.1300  -28.8210   23.3090 C   0  0  0  0  0  0  0  0  0  0  0  0
  -18.7660  -30.1100   23.7500 C   0  0  0  0  0  3  0  0  0  0  0  0
  -17.4220  -30.5280   23.7240 C   0  0  0  0  0  3  0  0  0  0  0  0
  -16.4230  -29.6510   23.2680 C   0  0  0  0  0  3  0  0  0  0  0  0
  -16.7710  -28.3610   22.8290 C   0  0  0  0  0  3  0  0  0  0  0  0
  -25.9520  -32.5710   24.1000 C   0  0  0  0  0  3  0  0  0  0  0  0
  -25.6780  -33.9900   24.3680 N   0  0  0  0  0  0  0  0  0  0  0  0
  -26.0410  -35.0020   23.5700 C   0  0  0  0  0  0  0  0  0  0  0  0
  -26.7100  -34.8380   22.5460 O   0  0  0  0  0  0  0  0  0  0  0  0
  -25.0850  -34.1930   25.1600 H   0  0  0  0  0  0  0  0  0  0  0  0
  -24.3470  -36.8160   23.1550 C   0  0  0  0  0  1  0  0  0  0  0  0
  -25.5900  -36.4220   23.9670 C   0  0  0  0  0  3  0  0  0  0  0  0
  -27.7490  -37.3030   24.7360 C   0  0  0  0  0  1  0  0  0  0  0  0
  -26.6440  -37.4440   23.7920 N   0  0  0  0  0  0  0  0  0  0  0  0
  -26.2580  -38.3800   23.8930 H   0  0  0  0  0  0  0  0  0  0  0  0
  -26.4100  -31.8360   25.4200 C   0  0  1  0  0  0  0  0  0  0  0  0
  -25.2760  -31.6570   26.4560 C   0  0  0  0  0  1  0  0  0  0  0  0
  -26.9810  -30.4360   25.0990 C   0  0  0  0  0  1  0  0  0  0  0  0
  -27.5490  -32.6350   26.0960 C   0  0  0  0  0  1  0  0  0  0  0  0
  -28.5170  -19.9750   20.7220 C   0  0  0  0  0  2  0  0  0  0  0  0
  -28.7240  -18.4450   20.1470 C   0  0  0  0  0  2  0  0  0  0  0  0
  -29.5910  -17.2480   20.8240 C   0  0  0  0  0  2  0  0  0  0  0  0
  -30.1370  -14.7200   20.1020 C   0  0  0  0  0  0  0  0  0  0  0  0
  -29.9650  -12.5150   18.9270 C   0  0  0  0  0  2  0  0  0  0  0  0
  -28.9130  -12.6210   17.8010 C   0  0  0  0  0  2  0  0  0  0  0  0
  -27.4940  -12.3510   18.3410 C   0  0  0  0  0  2  0  0  0  0  0  0
  -27.1960  -13.1180   19.6590 C   0  0  0  0  0  3  0  0  0  0  0  0
  -28.3580  -12.9940   20.6650 C   0  0  0  0  0  2  0  0  0  0  0  0
  -29.5720  -13.4690   19.9860 N   0  0  0  0  0  0  0  0  0  0  0  0
  -31.2920  -14.9140   19.7110 O   0  0  0  0  0  0  0  0  0  0  0  0
  -29.3160  -15.7740   20.4780 N   0  0  0  0  0  0  0  0  0  0  0  0
  -28.3710  -15.4790   20.6730 H   0  0  0  0  0  0  0  0  0  0  0  0
  -24.8350  -13.5180   20.5780 C   0  0  0  0  0  0  0  0  0  0  0  0
  -23.8600  -12.6620   21.0110 C   0  0  0  0  0  0  0  0  0  0  0  0
  -24.4180  -11.3490   20.9200 C   0  0  0  0  0  0  0  0  0  0  0  0
  -25.9190  -12.7220   20.2440 N   0  0  0  0  0  0  0  0  0  0  0  0
  -25.6790  -11.4130   20.5120 N   0  0  0  0  0  0  0  0  0  0  0  0
  -23.8010  -10.0340   21.1400 C   0  0  0  0  0  0  0  0  0  0  0  0
  -24.3040   -9.1310   22.1020 C   0  0  0  0  0  3  0  0  0  0  0  0
  -23.6820   -7.8820   22.3080 C   0  0  0  0  0  3  0  0  0  0  0  0
  -22.5390   -7.5260   21.5520 C   0  0  0  0  0  0  0  0  0  0  0  0
  -22.0540   -8.4170   20.5790 C   0  0  0  0  0  3  0  0  0  0  0  0
  -22.6800   -9.6580   20.3710 C   0  0  0  0  0  3  0  0  0  0  0  0
  -21.8840   -6.3240   21.6670 O   0  0  0  0  0  0  0  0  0  0  0  0
  -21.8330   -5.6420   22.8560 C   0  0  0  0  0  0  0  0  0  0  0  0
  -21.2270   -6.1940   24.0060 C   0  0  0  0  0  3  0  0  0  0  0  0
  -21.1340   -5.4310   25.1870 C   0  0  0  0  0  3  0  0  0  0  0  0
  -21.6360   -4.1170   25.2200 C   0  0  0  0  0  0  0  0  0  0  0  0
  -22.2350   -3.5630   24.0750 C   0  0  0  0  0  3  0  0  0  0  0  0
  -22.3290   -4.3230   22.8960 C   0  0  0  0  0  0  0  0  0  0  0  0
  -22.8880   -3.7780   21.7880 F   0  0  0  0  0  0  0  0  0  0  0  0
  -21.5400   -3.3820   26.3520 F   0  0  0  0  0  0  0  0  0  0  0  0
  -22.4550  -13.0310   21.3930 C   0  0  0  0  0  0  0  0  0  0  0  0
  -21.8460  -12.2760   22.3000 N   0  0  0  0  0  0  0  0  0  0  0  0
  -21.9050  -14.0260   20.9210 O   0  0  0  0  0  0  0  0  0  0  0  0
  -22.3050  -11.4760   22.7090 H   0  0  0  0  0  0  0  0  0  0  0  0
  -20.9060  -12.5040   22.5920 H   0  0  0  0  0  0  0  0  0  0  0  0
  -24.8820  -14.8990   20.4140 N   0  0  0  0  0  0  0  0  0  0  0  0
  -24.0780  -15.4900   20.6010 H   0  0  0  0  0  0  0  0  0  0  0  0
  -25.6560  -15.4060   20.0050 H   0  0  0  0  0  0  0  0  0  0  0  0
  1  3  1  0
  2  4  1  0
  3  4  2  0
  4 51  1  0
  5  1  2  0
  5  7  1  0
  6  5  1  0
  7  2  2  0
  8  3  1  0
  8  9  1  0
 10  9  1  0
 11 22  2  0
 12 10  1  0
 12 17  1  0
 13 21  1  0
 13 23  1  0
 14 20  1  0
 14 16  1  0
 15 21  1  0
 16 17  2  0
 16 15  1  0
 18 12  2  0
 19 18  1  0
 19 14  2  0
 20 13  1  0
 21 11  1  0
 23 25  2  0
 24 23  1  0
 26 24  1  0
 27 32  1  0
 28 24  1  0
 29 28  1  0
 30 31  1  0
 30 29  1  0
 31 27  1  0
 32 28  1  0
 32 33  2  0
 34 33  1  0
 35 34  2  0
 36 27  2  0
 36 35  1  0
 37 11  1  0
 37 38  1  0
 37 47  1  0
 38 41  1  0
 39 43  1  0
 39 38  1  0
 40 39  2  0
 43 42  1  0
 45 46  1  0
 45 43  1  0
 45 44  1  0
 47 50  1  1
 47 48  1  0
 49 47  1  0
 52 51  1  0
 52 53  1  0
 54 62  1  0
 55 60  1  0
 56 57  1  0
 56 55  1  0
 58 57  1  0
 58 67  1  0
 58 59  1  0
 60 54  1  0
 60 59  1  0
 61 54  2  0
 62 63  1  0
 62 53  1  0
 64 65  2  0
 65 84  1  0
 66 65  1  0
 66 69  1  0
 67 68  1  0
 67 64  1  0
 68 66  2  0
 69 70  1  0
 70 71  2  0
 72 75  1  0
 72 71  1  0
 73 72  2  0
 74 73  1  0
 74 69  2  0
 75 76  1  0
 76 81  2  0
 76 77  1  0
 77 78  2  0
 78 79  1  0
 79 83  1  0
 80 79  2  0
 81 80  1  0
 82 81  1  0
 84 85  1  0
 85 88  1  0
 85 87  1  0
 86 84  2  0
 89 64  1  0
 89 90  1  0
 91 89  1  0
M  ISO  4   9 101  10 101  54 100  62 100
M  END
>  <TORSDO>  (30) 
F 21

>  <SCORE>  (30) 
-12.130

>  <name>  (30) 
29

>  <ligand_id>  (30) 
29

>  <original_smiles>  (30) 
[H]c1nc(C([H])([H])[H])c([H])c(C([H])([H])C([H])([H])Oc2c([H])c([H])c3c(c2[H])C([H])([H])N(C(=O)C([H])(N([H])C(=O)C([H])(N([H])C([H])([H])[H])C([H])([H])[H])C(C([H])([H])[H])(C([H])([H])[H])C([H])([H])[H])C([H])(C(=O)N([H])C2([H])c4c([H])c([H])c([H])c([H])c4C([H])([H])C([H])([H])C2([H])[H])C3([H])[H])c1C([H])([H])C([H])([H])C([H])([H])N([H])C(=O)N1C([H])([H])C([H])([H])C([H])([H])C([H])(n2nc(-c3c([H])c([H])c(Oc4c([H])c([H])c(F)c([H])c4F)c([H])c3[H])c(C(=O)N([H])[H])c2N([H])[H])C1([H])[H]

>  <smiles>  (30) 
[H]c1nc(C([H])([H])[H])c([H])c(C([H])([H])C([H])([H])Oc2c([H])c([H])c3c(c2[H])C([H])([H])N(C(=O)C([H])(N([H])C(=O)C([H])(N([H])C([H])([H])[H])C([H])([H])[H])C(C([H])([H])[H])(C([H])([H])[H])C([H])([H])[H])C([H])(C(=O)N([H])C2([H])c4c([H])c([H])c([H])c([H])c4C([H])([H])C([H])([H])C2([H])[H])C3([H])[H])c1C([H])([H])C([H])([H])C([H])([H])N([H])C(=O)N1C([H])([H])C([H])([H])C([H])([H])C([H])(n2nc(-c3c([H])c([H])c(Oc4c([H])c([H])c(F)c([H])c4F)c([H])c3[H])c(C(=O)N([H])[H])c2N([H])[H])C1([H])[H]

$$$$
30:0:0
     RDKit          3D

 92100  0  0  1  0  0  0  0  0999 V2000
  -29.6270  -21.3420   19.0330 C   0  0  0  0  0  3  0  0  0  0  0  0
  -28.4540  -19.9210   21.0580 C   0  0  0  0  0  3  0  0  0  0  0  0
  -29.8580  -19.9460   19.0830 C   0  0  0  0  0  0  0  0  0  0  0  0
  -29.2140  -19.2030   20.1070 C   0  0  0  0  0  0  0  0  0  0  0  0
  -28.8000  -21.9570   19.9890 C   0  0  0  0  0  0  0  0  0  0  0  0
  -28.2510  -21.2580   21.0060 N   0  0  0  0  0  0  0  0  0  0  0  0
  -31.6060  -20.1910   17.1840 C   0  0  0  0  0  1  0  0  0  0  0  0
  -30.7350  -19.2540   18.0400 C   0  0  0  0  0  2  0  0  0  0  0  0
  -29.1910  -17.6650   20.1300 C   0  0  0  0  0  2  0  0  0  0  0  0
  -30.2580  -16.9470   20.9930 C   0  0  0  0  0  2  0  0  0  0  0  0
  -30.7070  -14.5220   20.4080 C   0  0  0  0  0  0  0  0  0  0  0  0
  -30.4130  -12.3820   19.2160 C   0  0  0  0  0  2  0  0  0  0  0  0
  -29.4460  -12.5900   18.0310 C   0  0  0  0  0  2  0  0  0  0  0  0
  -27.9780  -12.4520   18.4740 C   0  0  0  0  0  2  0  0  0  0  0  0
  -27.6610  -13.2750   19.7530 C   0  0  0  0  0  3  0  0  0  0  0  0
  -28.7270  -13.0200   20.8430 C   0  0  0  0  0  2  0  0  0  0  0  0
  -30.0480  -13.3390   20.2720 N   0  0  0  0  0  0  0  0  0  0  0  0
  -31.8050  -14.7440   19.8900 O   0  0  0  0  0  0  0  0  0  0  0  0
  -30.0050  -15.4950   21.0210 N   0  0  0  0  0  0  0  0  0  0  0  0
  -29.1340  -15.1970   21.4360 H   0  0  0  0  0  0  0  0  0  0  0  0
  -25.2690  -13.8900   20.4780 C   0  0  0  0  0  0  0  0  0  0  0  0
  -24.2030  -13.1180   20.8590 C   0  0  0  0  0  0  0  0  0  0  0  0
  -24.6630  -11.7660   20.8230 C   0  0  0  0  0  0  0  0  0  0  0  0
  -26.3100  -13.0060   20.2400 N   0  0  0  0  0  0  0  0  0  0  0  0
  -25.9490  -11.7240   20.5020 N   0  0  0  0  0  0  0  0  0  0  0  0
  -23.9360  -10.5050   21.0170 C   0  0  0  0  0  0  0  0  0  0  0  0
  -24.3670   -9.5420   21.9560 C   0  0  0  0  0  3  0  0  0  0  0  0
  -23.6420   -8.3440   22.1370 C   0  0  0  0  0  3  0  0  0  0  0  0
  -22.4720   -8.1010   21.3780 C   0  0  0  0  0  0  0  0  0  0  0  0
  -22.0610   -9.0520   20.4270 C   0  0  0  0  0  3  0  0  0  0  0  0
  -22.7870  -10.2410   20.2450 C   0  0  0  0  0  3  0  0  0  0  0  0
  -21.7180   -6.9560   21.4700 O   0  0  0  0  0  0  0  0  0  0  0  0
  -21.6560   -6.2260   22.6290 C   0  0  0  0  0  0  0  0  0  0  0  0
  -21.1900   -6.7870   23.8390 C   0  0  0  0  0  3  0  0  0  0  0  0
  -21.0790   -5.9830   24.9900 C   0  0  0  0  0  3  0  0  0  0  0  0
  -21.4190   -4.6170   24.9340 C   0  0  0  0  0  0  0  0  0  0  0  0
  -21.8730   -4.0550   23.7270 C   0  0  0  0  0  3  0  0  0  0  0  0
  -21.9880   -4.8570   22.5780 C   0  0  0  0  0  0  0  0  0  0  0  0
  -22.4080   -4.3060   21.4130 F   0  0  0  0  0  0  0  0  0  0  0  0
  -21.3030   -3.8430   26.0370 F   0  0  0  0  0  0  0  0  0  0  0  0
  -22.8100  -13.5960   21.1450 C   0  0  0  0  0  0  0  0  0  0  0  0
  -22.0890  -12.8960   22.0160 N   0  0  0  0  0  0  0  0  0  0  0  0
  -22.3670  -14.6240   20.6330 O   0  0  0  0  0  0  0  0  0  0  0  0
  -22.4560  -12.0620   22.4490 H   0  0  0  0  0  0  0  0  0  0  0  0
  -21.1540  -13.1970   22.2510 H   0  0  0  0  0  0  0  0  0  0  0  0
  -25.4350  -15.2590   20.2980 N   0  0  0  0  0  0  0  0  0  0  0  0
  -24.6760  -15.9210   20.4180 H   0  0  0  0  0  0  0  0  0  0  0  0
  -26.2800  -15.6900   19.9490 H   0  0  0  0  0  0  0  0  0  0  0  0
  -28.4150  -23.4380   19.8740 C   0  0  0  0  0  2  0  0  0  0  0  0
  -29.1630  -24.3810   20.8450 C   0  0  0  0  0  2  0  0  0  0  0  0
  -28.4180  -25.6940   21.1900 C   0  0  0  0  0  2  0  0  0  0  0  0
  -28.4610  -26.7060   20.1740 O   0  0  0  0  0  0  0  0  0  0  0  0
  -24.6180  -31.8910   23.2220 C   0  0  0  0  0  0  0  0  0  0  0  0
  -27.3210  -27.4790   20.1530 C   0  0  0  0  0  0  0  0  0  0  0  0
  -23.4390  -30.4850   21.5610 C   0  0  0  0  0  3  0  0  0  0  0  0
  -24.9210  -28.9630   20.1470 C   0  0  0  0  0  0  0  0  0  0  0  0
  -25.9630  -30.8640   21.3920 C   0  0  0  0  0  2  0  0  0  0  0  0
  -26.0680  -29.4950   20.7490 C   0  0  0  0  0  0  0  0  0  0  0  0
  -27.2760  -28.7590   20.7520 C   0  0  0  0  0  3  0  0  0  0  0  0
  -26.1630  -26.9600   19.5430 C   0  0  0  0  0  3  0  0  0  0  0  0
  -24.9610  -27.6940   19.5420 C   0  0  0  0  0  3  0  0  0  0  0  0
  -23.6690  -29.8100   20.1820 C   0  0  0  0  0  2  0  0  0  0  0  0
  -24.6910  -31.0940   22.1170 N   0  0  0  0  0  0  0  0  0  0  0  0
  -23.5280  -32.1530   23.7510 O   0  0  0  0  0  0  0  0  0  0  0  0
  -22.7850  -29.4580   22.5130 C   0  0  0  0  0  0  0  0  0  0  0  0
  -21.4600  -29.2820   22.3830 N   0  0  0  0  0  0  0  0  0  0  0  0
  -23.4670  -28.8210   23.3200 O   0  0  0  0  0  0  0  0  0  0  0  0
  -20.9740  -29.8460   21.7010 H   0  0  0  0  0  0  0  0  0  0  0  0
  -18.0770  -28.1230   22.8920 C   0  0  0  0  0  0  0  0  0  0  0  0
  -20.6400  -28.3390   23.1420 C   0  0  0  0  0  3  0  0  0  0  0  0
  -20.7170  -26.9200   22.5320 C   0  0  0  0  0  2  0  0  0  0  0  0
  -19.5990  -26.6350   21.5250 C   0  0  0  0  0  2  0  0  0  0  0  0
  -18.2270  -26.7860   22.1870 C   0  0  0  0  0  2  0  0  0  0  0  0
  -19.2110  -28.8600   23.3270 C   0  0  0  0  0  0  0  0  0  0  0  0
  -19.0170  -30.1140   23.9450 C   0  0  0  0  0  3  0  0  0  0  0  0
  -17.7220  -30.6310   24.1350 C   0  0  0  0  0  3  0  0  0  0  0  0
  -16.6020  -29.8910   23.7190 C   0  0  0  0  0  3  0  0  0  0  0  0
  -16.7800  -28.6400   23.1020 C   0  0  0  0  0  3  0  0  0  0  0  0
  -25.8930  -32.5270   23.8590 C   0  0  0  0  0  3  0  0  0  0  0  0
  -25.5750  -33.9230   24.1840 N   0  0  0  0  0  0  0  0  0  0  0  0
  -25.9110  -34.9760   23.4270 C   0  0  0  0  0  0  0  0  0  0  0  0
  -26.5910  -34.8740   22.4030 O   0  0  0  0  0  0  0  0  0  0  0  0
  -24.9740  -34.0760   24.9800 H   0  0  0  0  0  0  0  0  0  0  0  0
  -24.1830  -36.7610   23.0440 C   0  0  0  0  0  1  0  0  0  0  0  0
  -25.4110  -36.3610   23.8770 C   0  0  0  0  0  3  0  0  0  0  0  0
  -27.5260  -37.2560   24.7470 C   0  0  0  0  0  1  0  0  0  0  0  0
  -26.4420  -37.4170   23.7800 N   0  0  0  0  0  0  0  0  0  0  0  0
  -26.0300  -38.3370   23.9170 H   0  0  0  0  0  0  0  0  0  0  0  0
  -26.4000  -31.7560   25.1380 C   0  0  1  0  0  0  0  0  0  0  0  0
  -25.2960  -31.5120   26.1930 C   0  0  0  0  0  1  0  0  0  0  0  0
  -26.9960  -30.3830   24.7470 C   0  0  0  0  0  1  0  0  0  0  0  0
  -27.5390  -32.5550   25.8150 C   0  0  0  0  0  1  0  0  0  0  0  0
  1  3  2  0
  1  5  1  0
  3  4  1  0
  4  9  1  0
  4  2  2  0
  5  6  2  0
  6  2  1  0
  7  8  1  0
  8  3  1  0
  9 10  1  0
 10 19  1  0
 11 19  1  0
 12 17  1  0
 13 14  1  0
 13 12  1  0
 15 14  1  0
 15 24  1  0
 15 16  1  0
 17 11  1  0
 17 16  1  0
 18 11  2  0
 19 20  1  0
 21 22  2  0
 22 41  1  0
 23 22  1  0
 23 26  1  0
 24 21  1  0
 24 25  1  0
 25 23  2  0
 26 27  1  0
 27 28  2  0
 29 32  1  0
 29 28  1  0
 30 29  2  0
 31 30  1  0
 31 26  2  0
 32 33  1  0
 33 34  1  0
 34 35  2  0
 36 35  1  0
 36 40  1  0
 37 36  2  0
 38 33  2  0
 38 37  1  0
 39 38  1  0
 41 42  1  0
 42 45  1  0
 42 44  1  0
 43 41  2  0
 46 47  1  0
 46 21  1  0
 48 46  1  0
 49  5  1  0
 49 50  1  0
 50 51  1  0
 52 51  1  0
 53 64  2  0
 54 52  1  0
 54 59  1  0
 55 63  1  0
 55 65  1  0
 56 62  1  0
 56 58  1  0
 57 63  1  0
 58 59  2  0
 58 57  1  0
 60 54  2  0
 61 60  1  0
 61 56  2  0
 62 55  1  0
 63 53  1  0
 65 67  2  0
 66 65  1  0
 68 66  1  0
 69 78  2  0
 69 74  1  0
 70 66  1  0
 70 74  1  0
 71 70  1  0
 72 73  1  0
 72 71  1  0
 73 69  1  0
 74 75  2  0
 75 76  1  0
 77 76  2  0
 78 77  1  0
 79 53  1  0
 79 80  1  0
 79 89  1  0
 80 83  1  0
 81 85  1  0
 81 80  1  0
 82 81  2  0
 85 84  1  0
 87 85  1  0
 87 88  1  0
 87 86  1  0
 89 92  1  1
 89 90  1  0
 91 89  1  0
M  ISO  4  11 100  19 100  51 101  52 101
M  END
>  <TORSDO>  (31) 
F 22

>  <SCORE>  (31) 
-13.079

>  <name>  (31) 
30

>  <ligand_id>  (31) 
30

>  <original_smiles>  (31) 
[H]c1nc(C([H])([H])C([H])([H])C([H])([H])Oc2c([H])c([H])c3c(c2[H])C([H])([H])N(C(=O)C([H])(N([H])C(=O)C([H])(N([H])C([H])([H])[H])C([H])([H])[H])C(C([H])([H])[H])(C([H])([H])[H])C([H])([H])[H])C([H])(C(=O)N([H])C2([H])c4c([H])c([H])c([H])c([H])c4C([H])([H])C([H])([H])C2([H])[H])C3([H])[H])c([H])c(C([H])([H])C([H])([H])[H])c1C([H])([H])C([H])([H])N([H])C(=O)N1C([H])([H])C([H])([H])C([H])([H])C([H])(n2nc(-c3c([H])c([H])c(Oc4c([H])c([H])c(F)c([H])c4F)c([H])c3[H])c(C(=O)N([H])[H])c2N([H])[H])C1([H])[H]

>  <smiles>  (31) 
[H]c1nc(C([H])([H])C([H])([H])C([H])([H])Oc2c([H])c([H])c3c(c2[H])C([H])([H])N(C(=O)C([H])(N([H])C(=O)C([H])(N([H])C([H])([H])[H])C([H])([H])[H])C(C([H])([H])[H])(C([H])([H])[H])C([H])([H])[H])C([H])(C(=O)N([H])C2([H])c4c([H])c([H])c([H])c([H])c4C([H])([H])C([H])([H])C2([H])[H])C3([H])[H])c([H])c(C([H])([H])C([H])([H])[H])c1C([H])([H])C([H])([H])N([H])C(=O)N1C([H])([H])C([H])([H])C([H])([H])C([H])(n2nc(-c3c([H])c([H])c(Oc4c([H])c([H])c(F)c([H])c4F)c([H])c3[H])c(C(=O)N([H])[H])c2N([H])[H])C1([H])[H]

$$$$
31:0:0
     RDKit          3D

 98106  0  0  1  0  0  0  0  0999 V2000
  -30.1250  -23.8770   19.8840 C   0  0  0  0  0  0  0  0  0  0  0  0
  -29.5580  -23.0880   20.9120 C   0  0  0  0  0  0  0  0  0  0  0  0
  -28.1970  -24.8570   21.5450 C   0  0  0  0  0  0  0  0  0  0  0  0
  -28.7250  -25.6290   20.4610 C   0  0  0  0  0  0  0  0  0  0  0  0
  -31.2040  -23.3700   18.9440 C   0  0  0  0  0  1  0  0  0  0  0  0
  -28.6120  -23.5800   21.7440 N   0  0  0  0  0  0  0  0  0  0  0  0
  -29.7050  -25.1390   19.6660 N   0  0  0  0  0  0  0  0  0  0  0  0
  -27.7290  -25.6370   23.9500 C   0  0  0  0  0  1  0  0  0  0  0  0
  -27.1510  -25.3240   22.5590 C   0  0  0  0  0  2  0  0  0  0  0  0
  -28.4740  -26.9360   20.1400 O   0  0  0  0  0  0  0  0  0  0  0  0
  -24.6080  -31.9590   23.2530 C   0  0  0  0  0  0  0  0  0  0  0  0
  -27.2500  -27.5390   20.2060 C   0  0  0  0  0  0  0  0  0  0  0  0
  -23.3930  -30.5510   21.6120 C   0  0  0  0  0  3  0  0  0  0  0  0
  -24.8430  -28.9940   20.2090 C   0  0  0  0  0  0  0  0  0  0  0  0
  -25.9090  -30.9170   21.4130 C   0  0  0  0  0  2  0  0  0  0  0  0
  -25.9910  -29.5400   20.7920 C   0  0  0  0  0  0  0  0  0  0  0  0
  -27.1950  -28.8180   20.7870 C   0  0  0  0  0  3  0  0  0  0  0  0
  -26.0920  -26.9820   19.6210 C   0  0  0  0  0  3  0  0  0  0  0  0
  -24.8830  -27.7110   19.6230 C   0  0  0  0  0  3  0  0  0  0  0  0
  -23.6020  -29.8540   20.2400 C   0  0  0  0  0  2  0  0  0  0  0  0
  -24.6530  -31.1570   22.1520 N   0  0  0  0  0  0  0  0  0  0  0  0
  -23.5270  -32.2380   23.7930 O   0  0  0  0  0  0  0  0  0  0  0  0
  -22.7400  -29.5380   22.5810 C   0  0  0  0  0  0  0  0  0  0  0  0
  -21.4150  -29.3680   22.4550 N   0  0  0  0  0  0  0  0  0  0  0  0
  -23.4220  -28.9090   23.3940 O   0  0  0  0  0  0  0  0  0  0  0  0
  -20.9300  -29.9250   21.7670 H   0  0  0  0  0  0  0  0  0  0  0  0
  -18.0230  -28.2470   22.9910 C   0  0  0  0  0  0  0  0  0  0  0  0
  -20.5880  -28.4420   23.2290 C   0  0  0  0  0  3  0  0  0  0  0  0
  -20.6520  -27.0150   22.6350 C   0  0  0  0  0  2  0  0  0  0  0  0
  -19.5290  -26.7290   21.6340 C   0  0  0  0  0  2  0  0  0  0  0  0
  -18.1590  -26.9010   22.2970 C   0  0  0  0  0  2  0  0  0  0  0  0
  -19.1640  -28.9790   23.4110 C   0  0  0  0  0  0  0  0  0  0  0  0
  -18.9820  -30.2400   24.0180 C   0  0  0  0  0  3  0  0  0  0  0  0
  -17.6910  -30.7710   24.2020 C   0  0  0  0  0  3  0  0  0  0  0  0
  -16.5650  -30.0340   23.7980 C   0  0  0  0  0  3  0  0  0  0  0  0
  -16.7320  -28.7740   23.1980 C   0  0  0  0  0  3  0  0  0  0  0  0
  -25.9000  -32.5810   23.8690 C   0  0  0  0  0  3  0  0  0  0  0  0
  -26.4250  -31.8050   25.1380 C   0  0  1  0  0  0  0  0  0  0  0  0
  -25.3340  -31.5550   26.2040 C   0  0  0  0  0  1  0  0  0  0  0  0
  -27.0140  -30.4340   24.7340 C   0  0  0  0  0  1  0  0  0  0  0  0
  -27.5730  -32.6020   25.8050 C   0  0  0  0  0  1  0  0  0  0  0  0
  -25.6030  -33.9800   24.2010 N   0  0  0  0  0  0  0  0  0  0  0  0
  -25.9240  -35.0290   23.4330 C   0  0  0  0  0  0  0  0  0  0  0  0
  -26.5740  -34.9240   22.3910 O   0  0  0  0  0  0  0  0  0  0  0  0
  -25.0260  -34.1390   25.0130 H   0  0  0  0  0  0  0  0  0  0  0  0
  -24.1930  -36.8230   23.1020 C   0  0  0  0  0  1  0  0  0  0  0  0
  -25.4420  -36.4160   23.8980 C   0  0  0  0  0  3  0  0  0  0  0  0
  -27.5840  -37.2970   24.7110 C   0  0  0  0  0  1  0  0  0  0  0  0
  -26.4740  -37.4690   23.7780 N   0  0  0  0  0  0  0  0  0  0  0  0
  -26.0690  -38.3880   23.9350 H   0  0  0  0  0  0  0  0  0  0  0  0
  -29.8800  -21.6170   21.0750 C   0  0  0  0  0  2  0  0  0  0  0  0
  -28.7680  -20.7700   20.4210 C   0  0  0  0  0  2  0  0  0  0  0  0
  -29.1180  -19.3550   20.1650 N   0  0  0  0  0  4  0  0  0  0  0  0
  -29.7400  -19.3250   19.3740 H   0  0  0  0  0  0  0  0  0  0  0  0
  -28.2700  -18.8830   19.8930 H   0  0  0  0  0  0  0  0  0  0  0  0
  -29.7330  -18.6270   21.2960 C   0  0  0  0  0  2  0  0  0  0  0  0
  -30.2240  -17.2310   20.8870 C   0  0  0  0  0  2  0  0  0  0  0  0
  -31.3240  -16.7110   21.8370 C   0  0  0  0  0  2  0  0  0  0  0  0
  -32.3810  -15.8290   21.1530 C   0  0  0  0  0  2  0  0  0  0  0  0
  -32.1390  -14.3240   21.3020 C   0  0  0  0  0  2  0  0  0  0  0  0
  -30.5940  -13.7730   19.4100 C   0  0  0  0  0  0  0  0  0  0  0  0
  -29.8150  -11.8630   18.0930 C   0  0  0  0  0  2  0  0  0  0  0  0
  -28.6490  -12.1000   17.1270 C   0  0  0  0  0  2  0  0  0  0  0  0
  -27.3060  -11.9470   17.8590 C   0  0  0  0  0  2  0  0  0  0  0  0
  -27.2410  -12.8150   19.1400 C   0  0  0  0  0  3  0  0  0  0  0  0
  -28.4810  -12.5900   20.0270 C   0  0  0  0  0  2  0  0  0  0  0  0
  -29.6960  -12.7910   19.2180 N   0  0  0  0  0  0  0  0  0  0  0  0
  -31.2900  -14.2730   18.5200 O   0  0  0  0  0  0  0  0  0  0  0  0
  -30.8880  -13.8730   20.7110 N   0  0  0  0  0  0  0  0  0  0  0  0
  -30.2950  -13.3180   21.3130 H   0  0  0  0  0  0  0  0  0  0  0  0
  -25.0800  -13.4810   20.3760 C   0  0  0  0  0  0  0  0  0  0  0  0
  -24.0790  -12.7300   20.9280 C   0  0  0  0  0  0  0  0  0  0  0  0
  -24.4570  -11.3640   20.7400 C   0  0  0  0  0  0  0  0  0  0  0  0
  -26.0090  -12.5740   19.8860 N   0  0  0  0  0  0  0  0  0  0  0  0
  -25.6480  -11.2930   20.1610 N   0  0  0  0  0  0  0  0  0  0  0  0
  -23.7290  -10.1210   21.0210 C   0  0  0  0  0  0  0  0  0  0  0  0
  -24.2550   -9.1360   21.8880 C   0  0  0  0  0  3  0  0  0  0  0  0
  -23.5270   -7.9560   22.1570 C   0  0  0  0  0  3  0  0  0  0  0  0
  -22.2610   -7.7530   21.5590 C   0  0  0  0  0  0  0  0  0  0  0  0
  -21.7530   -8.7250   20.6780 C   0  0  0  0  0  3  0  0  0  0  0  0
  -22.4800   -9.8960   20.4080 C   0  0  0  0  0  3  0  0  0  0  0  0
  -21.4960   -6.6260   21.7380 O   0  0  0  0  0  0  0  0  0  0  0  0
  -21.5480   -5.9000   22.9000 C   0  0  0  0  0  0  0  0  0  0  0  0
  -21.2130   -6.4670   24.1500 C   0  0  0  0  0  3  0  0  0  0  0  0
  -21.2120   -5.6660   25.3090 C   0  0  0  0  0  3  0  0  0  0  0  0
  -21.5360   -4.2980   25.2210 C   0  0  0  0  0  0  0  0  0  0  0  0
  -21.8650   -3.7310   23.9780 C   0  0  0  0  0  3  0  0  0  0  0  0
  -21.8680   -4.5290   22.8200 C   0  0  0  0  0  0  0  0  0  0  0  0
  -22.1640   -3.9730   21.6200 F   0  0  0  0  0  0  0  0  0  0  0  0
  -21.5290   -3.5270   26.3330 F   0  0  0  0  0  0  0  0  0  0  0  0
  -22.7920  -13.2420   21.5090 C   0  0  0  0  0  0  0  0  0  0  0  0
  -22.2270  -12.5270   22.4740 N   0  0  0  0  0  0  0  0  0  0  0  0
  -22.3040  -14.3080   21.1370 O   0  0  0  0  0  0  0  0  0  0  0  0
  -22.6420  -11.6670   22.7990 H   0  0  0  0  0  0  0  0  0  0  0  0
  -21.3660  -12.8460   22.8960 H   0  0  0  0  0  0  0  0  0  0  0  0
  -25.2740  -14.8520   20.2320 N   0  0  0  0  0  0  0  0  0  0  0  0
  -24.5850  -15.5340   20.5310 H   0  0  0  0  0  0  0  0  0  0  0  0
  -26.0660  -15.2670   19.7580 H   0  0  0  0  0  0  0  0  0  0  0  0
  1  2  2  0
  2 51  1  0
  2  6  1  0
  3  6  2  0
  3  9  1  0
  4  3  1  0
  5  1  1  0
  7  1  1  0
  7  4  2  0
  9  8  1  0
 10 12  1  0
 10  4  1  0
 11 22  2  0
 12 17  1  0
 13 21  1  0
 13 23  1  0
 14 20  1  0
 14 16  1  0
 15 21  1  0
 16 15  1  0
 17 16  2  0
 18 19  1  0
 18 12  2  0
 19 14  2  0
 20 13  1  0
 21 11  1  0
 23 25  2  0
 24 23  1  0
 26 24  1  0
 27 36  2  0
 27 32  1  0
 28 24  1  0
 28 32  1  0
 29 28  1  0
 30 31  1  0
 30 29  1  0
 31 27  1  0
 32 33  2  0
 33 34  1  0
 35 34  2  0
 36 35  1  0
 37 11  1  0
 37 42  1  0
 37 38  1  0
 38 41  1  1
 38 39  1  0
 40 38  1  0
 42 45  1  0
 43 47  1  0
 43 42  1  0
 44 43  2  0
 47 46  1  0
 49 47  1  0
 49 50  1  0
 49 48  1  0
 52 51  1  0
 53 52  1  0
 53 56  1  0
 54 53  1  0
 55 53  1  0
 57 56  1  0
 57 58  1  0
 59 60  1  0
 59 58  1  0
 61 69  1  0
 62 67  1  0
 63 64  1  0
 63 62  1  0
 65 64  1  0
 65 74  1  0
 65 66  1  0
 67 61  1  0
 67 66  1  0
 68 61  2  0
 69 60  1  0
 69 70  1  0
 71 72  2  0
 72 91  1  0
 73 72  1  0
 73 76  1  0
 74 75  1  0
 74 71  1  0
 75 73  2  0
 76 77  1  0
 77 78  2  0
 79 82  1  0
 79 78  1  0
 80 79  2  0
 81 80  1  0
 81 76  2  0
 82 83  1  0
 83 84  1  0
 84 85  2  0
 86 85  1  0
 86 90  1  0
 87 86  2  0
 88 83  2  0
 88 87  1  0
 89 88  1  0
 91 92  1  0
 92 94  1  0
 92 95  1  0
 93 91  2  0
 96 71  1  0
 96 97  1  0
 98 96  1  0
M  ISO  4   4 101  10 101  61 100  69 100
M  END
>  <TORSDO>  (32) 
F 25

>  <SCORE>  (32) 
-9.419

>  <name>  (32) 
31

>  <ligand_id>  (32) 
31

>  <original_smiles>  (32) 
[H]c1c([H])c([H])c2c(c1[H])C([H])([H])C([H])([H])C([H])([H])C2([H])N([H])C(=O)C1([H])N(C(=O)C([H])(N([H])C(=O)C([H])(N([H])C([H])([H])[H])C([H])([H])[H])C(C([H])([H])[H])(C([H])([H])[H])C([H])([H])[H])C([H])([H])c2c([H])c(Oc3nc(C([H])([H])[H])c(C([H])([H])C([H])([H])[N+]([H])([H])C([H])([H])C([H])([H])C([H])([H])C([H])([H])C([H])([H])N([H])C(=O)N4C([H])([H])C([H])([H])C([H])([H])C([H])(n5nc(-c6c([H])c([H])c(Oc7c([H])c([H])c(F)c([H])c7F)c([H])c6[H])c(C(=O)N([H])[H])c5N([H])[H])C4([H])[H])nc3C([H])([H])C([H])([H])[H])c([H])c([H])c2C1([H])[H]

>  <smiles>  (32) 
[H]c1c([H])c([H])c2c(c1[H])C([H])([H])C([H])([H])C([H])([H])C2([H])N([H])C(=O)C1([H])N(C(=O)C([H])(N([H])C(=O)C([H])(N([H])C([H])([H])[H])C([H])([H])[H])C(C([H])([H])[H])(C([H])([H])[H])C([H])([H])[H])C([H])([H])c2c([H])c(Oc3nc(C([H])([H])[H])c(C([H])([H])C([H])([H])[N+]([H])([H])C([H])([H])C([H])([H])C([H])([H])C([H])([H])C([H])([H])N([H])C(=O)N4C([H])([H])C([H])([H])C([H])([H])C([H])(n5nc(-c6c([H])c([H])c(Oc7c([H])c([H])c(F)c([H])c7F)c([H])c6[H])c(C(=O)N([H])[H])c5N([H])[H])C4([H])[H])nc3C([H])([H])C([H])([H])[H])c([H])c([H])c2C1([H])[H]

$$$$
32:0:0
     RDKit          3D

 91 94  0  0  1  0  0  0  0  0999 V2000
  -23.2590  -24.5240   21.7110 C   0  0  0  0  0  2  0  0  0  0  0  0
  -21.7050  -25.5790   22.0290 C   0  0  0  0  0  2  0  0  0  0  0  0
  -24.1190  -25.5250   22.2050 C   0  0  0  0  0  0  0  0  0  0  0  0
  -19.9200  -27.4660   20.5580 C   0  0  0  0  0  0  0  0  0  0  0  0
  -23.9180  -26.6220   24.4950 C   0  0  0  0  0  1  0  0  0  0  0  0
  -22.0080  -25.7580   23.3110 N   0  0  0  0  0  2  0  0  0  0  0  0
  -23.3780  -25.9440   23.3270 N   0  0  0  0  0  0  0  0  0  0  0  0
  -24.5560  -22.8950   20.9350 C   0  0  0  0  0 15  0  0  0  0  0  0
  -26.1930  -21.2970   21.1310 C   0  0  0  0  0 15  0  0  0  0  0  0
  -27.6360  -19.7120   20.3010 C   0  0  0  0  0 15  0  0  0  0  0  0
  -29.9430  -16.7770   20.0150 C   0  0  0  0  0  0  0  0  0  0  0  0
  -30.9890  -14.2480   19.1350 C   0  0  0  0  0  2  0  0  0  0  0  0
  -30.3050  -13.4620   17.9430 C   0  0  0  0  0  2  0  0  0  0  0  0
  -28.9460  -12.8910   18.3600 C   0  0  0  0  0  2  0  0  0  0  0  0
  -28.3010  -13.8890   19.3330 C   0  0  0  0  0  3  0  0  0  0  0  0
  -29.1700  -14.2830   20.5230 C   0  0  0  0  0  2  0  0  0  0  0  0
  -30.0380  -15.2590   19.9200 N   0  0  0  0  0  0  0  0  0  0  0  0
  -31.1670  -16.9710   19.6790 O   0  0  0  0  0  0  0  0  0  0  0  0
  -28.6460  -17.9140   20.3390 N   0  0  0  0  0  2  0  0  0  0  0  0
  -27.9240  -17.2690   20.6460 H   0  0  0  0  0  0  0  0  0  0  0  0
  -26.0420  -14.4510   20.1700 C   0  0  0  0  0  0  0  0  0  0  0  0
  -25.0110  -13.6810   20.6000 C   0  0  0  0  0  0  0  0  0  0  0  0
  -25.4710  -12.3290   20.5380 C   0  0  0  0  0  0  0  0  0  0  0  0
  -27.0280  -13.5510   19.8390 N   0  0  0  0  0  0  0  0  0  0  0  0
  -26.7320  -12.2730   20.1420 N   0  0  0  0  0  0  0  0  0  0  0  0
  -24.7620  -11.0740   20.7540 C   0  0  0  0  0  0  0  0  0  0  0  0
  -25.1340  -10.1820   21.7810 C   0  0  0  0  0  3  0  0  0  0  0  0
  -24.4150   -8.9840   21.9730 C   0  0  0  0  0  3  0  0  0  0  0  0
  -23.3180   -8.6770   21.1330 C   0  0  0  0  0  0  0  0  0  0  0  0
  -22.9740   -9.5570   20.0940 C   0  0  0  0  0  3  0  0  0  0  0  0
  -23.6930  -10.7460   19.9000 C   0  0  0  0  0  3  0  0  0  0  0  0
  -22.5730   -7.5280   21.2300 O   0  0  0  0  0  0  0  0  0  0  0  0
  -22.2510   -6.9850   22.4460 C   0  0  0  0  0  0  0  0  0  0  0  0
  -21.5550   -7.7180   23.4310 C   0  0  0  0  0  3  0  0  0  0  0  0
  -21.1850   -7.0960   24.6400 C   0  0  0  0  0  3  0  0  0  0  0  0
  -21.5010   -5.7410   24.8600 C   0  0  0  0  0  0  0  0  0  0  0  0
  -22.1910   -5.0100   23.8790 C   0  0  0  0  0  3  0  0  0  0  0  0
  -22.5630   -5.6300   22.6730 C   0  0  0  0  0  0  0  0  0  0  0  0
  -23.2100   -4.9160   21.7200 F   0  0  0  0  0  0  0  0  0  0  0  0
  -21.1370   -5.1400   26.0160 F   0  0  0  0  0  0  0  0  0  0  0  0
  -23.6410  -14.1740   20.9320 C   0  0  0  0  0  0  0  0  0  0  0  0
  -22.9620  -13.5070   21.8560 N   0  0  0  0  0  0  0  0  0  0  0  0
  -23.1870  -15.1880   20.4010 O   0  0  0  0  0  0  0  0  0  0  0  0
  -23.3520  -12.6880   22.3010 H   0  0  0  0  0  0  0  0  0  0  0  0
  -22.0420  -13.8200   22.1250 H   0  0  0  0  0  0  0  0  0  0  0  0
  -26.2210  -15.8260   19.9970 N   0  0  0  0  0  0  0  0  0  0  0  0
  -25.3900  -16.4050   20.0600 H   0  0  0  0  0  0  0  0  0  0  0  0
  -26.8440  -16.1440   19.2660 H   0  0  0  0  0  0  0  0  0  0  0  0
  -25.5990  -26.1730   21.9660 C   0  0  0  0  0  3  0  0  0  0  0  0
  -26.6970  -25.9870   20.7400 C   0  0  0  0  0  2  0  0  0  0  0  0
  -27.8700  -26.9550   20.3960 O   0  0  0  0  0  0  0  0  0  0  0  0
  -24.7060  -32.1680   23.4310 C   0  0  0  0  0  0  0  0  0  0  0  0
  -27.4280  -28.1780   19.9700 C   0  0  0  0  0  0  0  0  0  0  0  0
  -23.7830  -31.2400   21.3760 C   0  0  0  0  0  3  0  0  0  0  0  0
  -25.3650  -30.0180   19.8070 C   0  0  0  0  0  0  0  0  0  0  0  0
  -26.2980  -31.4640   21.6230 C   0  0  0  0  0  2  0  0  0  0  0  0
  -26.4170  -30.2580   20.7040 C   0  0  0  0  0  0  0  0  0  0  0  0
  -27.4820  -29.3290   20.7940 C   0  0  0  0  0  3  0  0  0  0  0  0
  -26.5410  -28.1210   18.8900 C   0  0  0  0  0  3  0  0  0  0  0  0
  -25.4450  -28.9810   18.8660 C   0  0  0  0  0  3  0  0  0  0  0  0
  -24.1600  -30.9170   19.9060 C   0  0  0  0  0  2  0  0  0  0  0  0
  -24.9440  -31.6590   22.1910 N   0  0  0  0  0  0  0  0  0  0  0  0
  -23.5520  -32.3330   23.8580 O   0  0  0  0  0  0  0  0  0  0  0  0
  -23.1770  -30.0060   22.0220 C   0  0  0  0  0  0  0  0  0  0  0  0
  -21.8750  -29.9340   21.9930 N   0  0  0  0  0  0  0  0  0  0  0  0
  -23.8740  -29.1090   22.5020 O   0  0  0  0  0  0  0  0  0  0  0  0
  -21.3190  -30.6990   21.6400 H   0  0  0  0  0  0  0  0  0  0  0  0
  -18.4990  -28.1060   22.6910 C   0  0  0  0  0  0  0  0  0  0  0  0
  -21.3340  -28.6140   22.0140 C   0  0  0  0  0  2  0  0  0  0  0  0
  -21.4290  -28.0970   19.9660 C   0  0  0  0  0  1  0  0  0  0  0  0
  -19.4640  -26.9950   19.4480 C   0  0  0  0  0  2  0  0  0  0  0  0
  -18.3400  -26.9130   21.2480 C   0  0  0  0  0  2  0  0  0  0  0  0
  -19.8490  -28.7860   23.0410 C   0  0  0  0  0  0  0  0  0  0  0  0
  -19.7820  -29.9640   23.9210 C   0  0  0  0  0  3  0  0  0  0  0  0
  -18.5990  -30.5940   24.4100 C   0  0  0  0  0  3  0  0  0  0  0  0
  -17.3650  -30.0700   24.0040 C   0  0  0  0  0  3  0  0  0  0  0  0
  -17.3400  -28.8920   23.1740 C   0  0  0  0  0  3  0  0  0  0  0  0
  -25.8780  -32.5850   24.3560 C   0  0  0  0  0  3  0  0  0  0  0  0
  -25.6240  -33.9730   24.7500 N   0  0  0  0  0  0  0  0  0  0  0  0
  -26.1360  -35.0370   24.1190 C   0  0  0  0  0  0  0  0  0  0  0  0
  -26.9470  -34.9400   23.1940 O   0  0  0  0  0  0  0  0  0  0  0  0
  -24.9280  -34.1240   25.4640 H   0  0  0  0  0  0  0  0  0  0  0  0
  -24.6010  -36.9730   23.6510 C   0  0  0  0  0  1  0  0  0  0  0  0
  -25.6830  -36.4280   24.5980 C   0  0  0  0  0  3  0  0  0  0  0  0
  -27.7460  -37.0740   25.7590 C   0  0  0  0  0  1  0  0  0  0  0  0
  -26.7920  -37.3990   24.7010 N   0  0  0  0  0  0  0  0  0  0  0  0
  -26.4360  -38.3360   24.8730 H   0  0  0  0  0  0  0  0  0  0  0  0
  -26.0360  -31.6580   25.6210 C   0  0  1  0  0  0  0  0  0  0  0  0
  -24.7240  -31.4410   26.4100 C   0  0  0  0  0  1  0  0  0  0  0  0
  -26.5760  -30.2660   25.2180 C   0  0  0  0  0  1  0  0  0  0  0  0
  -27.0770  -32.2780   26.5790 C   0  0  0  0  0  1  0  0  0  0  0  0
  1  2  1  0
  1  3  1  0
  2  6  1  0
  3  7  1  0
  4 72  1  0
  6  7  1  0
  7  5  1  0
 11 19  1  0
 12 17  1  0
 13 14  1  0
 13 12  1  0
 15 14  1  0
 15 24  1  0
 15 16  1  0
 17 11  1  0
 17 16  1  0
 18 11  2  0
 19 20  1  0
 21 22  2  0
 22 41  1  0
 23 22  1  0
 23 26  1  0
 24 25  1  0
 24 21  1  0
 25 23  2  0
 26 27  1  0
 27 28  2  0
 29 32  1  0
 29 28  1  0
 30 29  2  0
 31 30  1  0
 31 26  2  0
 32 33  1  0
 33 38  2  0
 33 34  1  0
 34 35  2  0
 35 36  1  0
 36 40  1  0
 37 36  2  0
 38 37  1  0
 39 38  1  0
 41 42  1  0
 42 45  1  0
 42 44  1  0
 43 41  2  0
 46 47  1  0
 46 21  1  0
 48 46  1  0
 49  3  2  0
 50 49  1  0
 51 50  1  0
 52 63  2  0
 53 51  1  0
 53 58  1  0
 54 64  1  0
 54 62  1  0
 55 61  1  0
 55 57  1  0
 56 62  1  0
 57 58  2  0
 57 56  1  0
 59 53  2  0
 60 59  1  0
 60 55  2  0
 61 54  1  0
 62 52  1  0
 64 66  2  0
 65 69  1  0
 65 64  1  0
 67 65  1  0
 68 73  2  0
 68 77  1  0
 69 73  1  0
 70  4  1  0
 71  4  2  0
 72 68  1  0
 73 74  1  0
 74 75  2  0
 76 75  1  0
 77 76  2  0
 78 52  1  0
 78 79  1  0
 78 88  1  0
 79 82  1  0
 80 84  1  0
 80 79  1  0
 81 80  2  0
 84 83  1  0
 84 86  1  0
 86 87  1  0
 86 85  1  0
 88 89  1  1
 88 91  1  0
 90 88  1  0
M  ISO  4  11 100  19 100  50 101  51 101
M  END
>  <TORSDO>  (33) 
F 21

>  <SCORE>  (33) 
-7.287

>  <name>  (33) 
32

>  <ligand_id>  (33) 
32

>  <original_smiles>  (33) 
[H]c1c([H])c([H])c2c(c1[H])C([H])([H])C([H])([H])C([H])([H])C2([H])N([H])C(=O)C1([H])N(C(=O)C([H])(N([H])C(=O)C([H])(N([H])C([H])([H])[H])C([H])([H])[H])C(C([H])([H])[H])(C([H])([H])[H])C([H])([H])[H])C([H])([H])c2c([H])c(OC([H])([H])C([H])([H])c3c(C([H])([H])C([H])([H])C([H])([H])N([H])C(=O)N4C([H])([H])C([H])([H])C([H])([H])C([H])(n5nc(-c6c([H])c([H])c(Oc7c([H])c([H])c(F)c([H])c7F)c([H])c6[H])c(C(=O)N([H])[H])c5N([H])[H])C4([H])[H])c(C([H])([H])[H])nn3C([H])([H])[H])c([H])c([H])c2C1([H])[H]

>  <smiles>  (33) 
[H]c1c([H])c([H])c2c(c1[H])C([H])([H])C([H])([H])C([H])([H])C2([H])N([H])C(=O)C1([H])N(C(=O)C([H])(N([H])C(=O)C([H])(N([H])C([H])([H])[H])C([H])([H])[H])C(C([H])([H])[H])(C([H])([H])[H])C([H])([H])[H])C([H])([H])c2c([H])c(OC([H])([H])C([H])([H])c3c(C([H])([H])C([H])([H])C([H])([H])N([H])C(=O)N4C([H])([H])C([H])([H])C([H])([H])C([H])(n5nc(-c6c([H])c([H])c(Oc7c([H])c([H])c(F)c([H])c7F)c([H])c6[H])c(C(=O)N([H])[H])c5N([H])[H])C4([H])[H])c(C([H])([H])[H])nn3C([H])([H])[H])c([H])c([H])c2C1([H])[H]

$$$$
33:0:0
     RDKit          3D

 90 98  0  0  1  0  0  0  0  0999 V2000
  -30.1530  -21.2680   20.1520 C   0  0  0  0  0  3  0  0  0  0  0  0
  -29.5790  -20.0070   19.9330 C   0  0  0  0  0  0  0  0  0  0  0  0
  -28.2020  -20.3940   19.8410 C   0  0  0  0  0  0  0  0  0  0  0  0
  -27.0470  -19.4900   19.5050 C   0  0  0  0  0  1  0  0  0  0  0  0
  -27.9730  -21.7080   20.0170 N   0  0  0  0  0  0  0  0  0  0  0  0
  -29.1770  -22.3090   20.1840 N   0  0  0  0  0  0  0  0  0  0  0  0
  -31.4330  -18.7050   18.7820 C   0  0  0  0  0  1  0  0  0  0  0  0
  -30.1540  -18.5380   19.6170 C   0  0  0  0  0  3  0  0  0  0  0  0
  -30.3780  -17.4010   20.7580 C   0  0  0  0  0  2  0  0  0  0  0  0
  -30.6610  -14.7750   20.2580 C   0  0  0  0  0  0  0  0  0  0  0  0
  -30.3700  -12.5090   19.2310 C   0  0  0  0  0  2  0  0  0  0  0  0
  -29.4270  -12.6030   18.0140 C   0  0  0  0  0  2  0  0  0  0  0  0
  -27.9580  -12.4530   18.4510 C   0  0  0  0  0  2  0  0  0  0  0  0
  -27.6030  -13.3270   19.6830 C   0  0  0  0  0  3  0  0  0  0  0  0
  -28.6800  -13.2380   20.7900 C   0  0  0  0  0  2  0  0  0  0  0  0
  -29.9790  -13.5750   20.1820 N   0  0  0  0  0  0  0  0  0  0  0  0
  -31.8410  -14.8370   19.9170 O   0  0  0  0  0  0  0  0  0  0  0  0
  -29.9540  -15.9350   20.5380 N   0  0  0  0  0  0  0  0  0  0  0  0
  -28.9940  -15.7530   20.7890 H   0  0  0  0  0  0  0  0  0  0  0  0
  -25.2150  -13.9250   20.4130 C   0  0  0  0  0  0  0  0  0  0  0  0
  -24.1510  -13.1570   20.7980 C   0  0  0  0  0  0  0  0  0  0  0  0
  -24.6120  -11.8050   20.7780 C   0  0  0  0  0  0  0  0  0  0  0  0
  -26.2600  -13.0430   20.1850 N   0  0  0  0  0  0  0  0  0  0  0  0
  -25.9020  -11.7600   20.4650 N   0  0  0  0  0  0  0  0  0  0  0  0
  -23.8810  -10.5450   20.9820 C   0  0  0  0  0  0  0  0  0  0  0  0
  -24.3150   -9.5800   21.9160 C   0  0  0  0  0  3  0  0  0  0  0  0
  -23.5840   -8.3870   22.1080 C   0  0  0  0  0  3  0  0  0  0  0  0
  -22.4020   -8.1520   21.3660 C   0  0  0  0  0  0  0  0  0  0  0  0
  -21.9880   -9.1040   20.4150 C   0  0  0  0  0  3  0  0  0  0  0  0
  -22.7210  -10.2860   20.2230 C   0  0  0  0  0  3  0  0  0  0  0  0
  -21.6410   -7.0120   21.4670 O   0  0  0  0  0  0  0  0  0  0  0  0
  -21.6020   -6.2730   22.6220 C   0  0  0  0  0  0  0  0  0  0  0  0
  -21.2000   -6.8350   23.8540 C   0  0  0  0  0  3  0  0  0  0  0  0
  -21.1100   -6.0230   25.0000 C   0  0  0  0  0  3  0  0  0  0  0  0
  -21.4080   -4.6490   24.9170 C   0  0  0  0  0  0  0  0  0  0  0  0
  -21.8050   -4.0870   23.6910 C   0  0  0  0  0  3  0  0  0  0  0  0
  -21.8960   -4.8960   22.5440 C   0  0  0  0  0  0  0  0  0  0  0  0
  -22.2580   -4.3460   21.3600 F   0  0  0  0  0  0  0  0  0  0  0  0
  -21.3120   -3.8660   26.0180 F   0  0  0  0  0  0  0  0  0  0  0  0
  -22.7560  -13.6370   21.0690 C   0  0  0  0  0  0  0  0  0  0  0  0
  -22.0270  -12.9490   21.9410 N   0  0  0  0  0  0  0  0  0  0  0  0
  -22.3170  -14.6560   20.5390 O   0  0  0  0  0  0  0  0  0  0  0  0
  -22.3950  -12.1290   22.3990 H   0  0  0  0  0  0  0  0  0  0  0  0
  -21.0870  -13.2500   22.1580 H   0  0  0  0  0  0  0  0  0  0  0  0
  -25.3770  -15.2940   20.2190 N   0  0  0  0  0  0  0  0  0  0  0  0
  -24.6000  -15.9400   20.3040 H   0  0  0  0  0  0  0  0  0  0  0  0
  -26.2140  -15.7250   19.8520 H   0  0  0  0  0  0  0  0  0  0  0  0
  -29.3060  -23.8180   20.4490 C   0  0  0  0  0  3  0  0  0  0  0  0
  -28.1520  -24.8880   20.0340 C   0  0  0  0  0  3  0  0  0  0  0  0
  -28.3330  -26.3760   20.2370 O   0  0  0  0  0  0  0  0  0  0  0  0
  -24.5970  -31.8430   23.2360 C   0  0  0  0  0  0  0  0  0  0  0  0
  -27.2170  -27.2500   20.1790 C   0  0  0  0  0  0  0  0  0  0  0  0
  -23.3970  -30.4490   21.5900 C   0  0  0  0  0  3  0  0  0  0  0  0
  -24.8510  -28.8970   20.1580 C   0  0  0  0  0  0  0  0  0  0  0  0
  -25.9440  -30.7560   21.4160 C   0  0  0  0  0  2  0  0  0  0  0  0
  -26.0240  -29.3740   20.7640 C   0  0  0  0  0  0  0  0  0  0  0  0
  -27.2040  -28.5640   20.7650 C   0  0  0  0  0  3  0  0  0  0  0  0
  -26.0210  -26.8420   19.5450 C   0  0  0  0  0  3  0  0  0  0  0  0
  -24.8560  -27.6380   19.5370 C   0  0  0  0  0  3  0  0  0  0  0  0
  -23.6180  -29.7790   20.2090 C   0  0  0  0  0  2  0  0  0  0  0  0
  -24.6660  -31.0370   22.1350 N   0  0  0  0  0  0  0  0  0  0  0  0
  -23.5130  -32.1180   23.7690 O   0  0  0  0  0  0  0  0  0  0  0  0
  -22.7290  -29.4350   22.5510 C   0  0  0  0  0  0  0  0  0  0  0  0
  -21.4000  -29.2680   22.4320 N   0  0  0  0  0  0  0  0  0  0  0  0
  -23.4080  -28.8000   23.3620 O   0  0  0  0  0  0  0  0  0  0  0  0
  -20.9100  -29.8330   21.7540 H   0  0  0  0  0  0  0  0  0  0  0  0
  -18.0160  -28.0890   22.9380 C   0  0  0  0  0  0  0  0  0  0  0  0
  -20.5770  -28.3320   23.2010 C   0  0  0  0  0  3  0  0  0  0  0  0
  -20.6720  -26.9020   22.6200 C   0  0  0  0  0  2  0  0  0  0  0  0
  -19.5640  -26.5910   21.6090 C   0  0  0  0  0  2  0  0  0  0  0  0
  -18.1850  -26.7430   22.2550 C   0  0  0  0  0  2  0  0  0  0  0  0
  -19.1400  -28.8430   23.3670 C   0  0  0  0  0  0  0  0  0  0  0  0
  -18.9280  -30.1030   23.9650 C   0  0  0  0  0  3  0  0  0  0  0  0
  -17.6270  -30.6070   24.1420 C   0  0  0  0  0  3  0  0  0  0  0  0
  -16.5170  -29.8510   23.7250 C   0  0  0  0  0  3  0  0  0  0  0  0
  -16.7130  -28.5950   23.1270 C   0  0  0  0  0  3  0  0  0  0  0  0
  -25.8770  -32.4760   23.8640 C   0  0  0  0  0  3  0  0  0  0  0  0
  -26.3820  -31.7080   25.1470 C   0  0  1  0  0  0  0  0  0  0  0  0
  -25.2840  -31.4890   26.2120 C   0  0  0  0  0  1  0  0  0  0  0  0
  -26.9520  -30.3220   24.7690 C   0  0  0  0  0  1  0  0  0  0  0  0
  -27.5310  -32.5010   25.8090 C   0  0  0  0  0  1  0  0  0  0  0  0
  -25.5710  -33.8780   24.1860 N   0  0  0  0  0  0  0  0  0  0  0  0
  -25.9110  -34.9280   23.4290 C   0  0  0  0  0  0  0  0  0  0  0  0
  -26.5810  -34.8200   22.3970 O   0  0  0  0  0  0  0  0  0  0  0  0
  -24.9780  -34.0370   24.9880 H   0  0  0  0  0  0  0  0  0  0  0  0
  -24.1890  -36.7310   23.0680 C   0  0  0  0  0  1  0  0  0  0  0  0
  -25.4270  -36.3210   23.8830 C   0  0  0  0  0  3  0  0  0  0  0  0
  -27.5640  -37.1980   24.7150 C   0  0  0  0  0  1  0  0  0  0  0  0
  -26.4640  -37.3700   23.7720 N   0  0  0  0  0  0  0  0  0  0  0  0
  -26.0580  -38.2920   23.9140 H   0  0  0  0  0  0  0  0  0  0  0  0
  1  6  1  0
  2  1  2  0
  3  2  1  0
  3  5  2  0
  4  3  1  0
  5  6  1  0
  6 48  1  0
  8  7  1  0
  8  2  1  0
  8  9  1  0
 10 18  1  0
 11 16  1  0
 12 13  1  0
 12 11  1  0
 14 13  1  0
 14 23  1  0
 14 15  1  0
 16 10  1  0
 16 15  1  0
 17 10  2  0
 18  9  1  0
 18 19  1  0
 20 21  2  0
 21 40  1  0
 22 21  1  0
 22 25  1  0
 23 20  1  0
 23 24  1  0
 24 22  2  0
 25 26  1  0
 26 27  2  0
 28 31  1  0
 28 27  1  0
 29 28  2  0
 30 29  1  0
 30 25  2  0
 31 32  1  0
 32 33  1  0
 33 34  2  0
 35 34  1  0
 35 39  1  0
 36 35  2  0
 37 32  2  0
 37 36  1  0
 38 37  1  0
 40 41  1  0
 41 44  1  0
 41 43  1  0
 42 40  2  0
 45 46  1  0
 45 20  1  0
 47 45  1  0
 49 50  1  0
 49 48  2  0
 51 62  2  0
 52 50  1  0
 52 57  1  0
 53 61  1  0
 53 63  1  0
 54 60  1  0
 54 56  1  0
 55 61  1  0
 56 57  2  0
 56 55  1  0
 58 52  2  0
 59 58  1  0
 59 54  2  0
 60 53  1  0
 61 51  1  0
 63 65  2  0
 64 63  1  0
 66 64  1  0
 67 76  2  0
 67 72  1  0
 68 64  1  0
 68 72  1  0
 69 68  1  0
 70 71  1  0
 70 69  1  0
 71 67  1  0
 72 73  2  0
 73 74  1  0
 75 74  2  0
 76 75  1  0
 77 51  1  0
 77 82  1  0
 77 78  1  0
 78 81  1  1
 78 79  1  0
 80 78  1  0
 82 85  1  0
 83 87  1  0
 83 82  1  0
 84 83  2  0
 87 86  1  0
 89 87  1  0
 89 90  1  0
 89 88  1  0
M  ISO  4  10 100  18 100  49 101  50 101
M  END
>  <TORSDO>  (34) 
F 20

>  <SCORE>  (34) 
-13.626

>  <name>  (34) 
33

>  <ligand_id>  (34) 
33

>  <original_smiles>  (34) 
[H]c1c([H])c([H])c2c(c1[H])C([H])([H])C([H])([H])C([H])([H])C2([H])N([H])C(=O)C1([H])N(C(=O)C([H])(N([H])C(=O)C([H])(N([H])C([H])([H])[H])C([H])([H])[H])C(C([H])([H])[H])(C([H])([H])[H])C([H])([H])[H])C([H])([H])c2c([H])c(OC([H])([H])C([H])([H])n3nc(C([H])([H])[H])c(C([H])(C([H])([H])[H])C([H])([H])N([H])C(=O)N4C([H])([H])C([H])([H])C([H])([H])C([H])(n5nc(-c6c([H])c([H])c(Oc7c([H])c([H])c(F)c([H])c7F)c([H])c6[H])c(C(=O)N([H])[H])c5N([H])[H])C4([H])[H])c3[H])c([H])c([H])c2C1([H])[H]

>  <smiles>  (34) 
[H]c1c([H])c([H])c2c(c1[H])C([H])([H])C([H])([H])C([H])([H])C2([H])N([H])C(=O)C1([H])N(C(=O)C([H])(N([H])C(=O)C([H])(N([H])C([H])([H])[H])C([H])([H])[H])C(C([H])([H])[H])(C([H])([H])[H])C([H])([H])[H])C([H])([H])c2c([H])c(OC([H])([H])C([H])([H])n3nc(C([H])([H])[H])c(C([H])(C([H])([H])[H])C([H])([H])N([H])C(=O)N4C([H])([H])C([H])([H])C([H])([H])C([H])(n5nc(-c6c([H])c([H])c(Oc7c([H])c([H])c(F)c([H])c7F)c([H])c6[H])c(C(=O)N([H])[H])c5N([H])[H])C4([H])[H])c3[H])c([H])c([H])c2C1([H])[H]

$$$$
34:0:0
     RDKit          3D

 90 98  0  0  1  0  0  0  0  0999 V2000
  -29.2470  -20.6570   20.1660 C   0  0  0  0  0  0  0  0  0  0  0  0
  -28.9250  -21.2320   18.8970 C   0  0  0  0  0  0  0  0  0  0  0  0
  -29.3370  -21.7090   21.1390 C   0  0  0  0  0  0  0  0  0  0  0  0
  -28.7200  -23.5010   19.6740 C   0  0  0  0  0  0  0  0  0  0  0  0
  -28.7390  -20.3330   17.6900 C   0  0  0  0  0  1  0  0  0  0  0  0
  -29.6480  -21.3840   22.5850 C   0  0  0  0  0  1  0  0  0  0  0  0
  -28.6790  -22.5780   18.6820 N   0  0  0  0  0  0  0  0  0  0  0  0
  -29.0720  -23.0470   20.8960 N   0  0  0  0  0  0  0  0  0  0  0  0
  -29.1920  -19.0480   20.5220 C   0  0  0  0  0  3  0  0  0  0  0  0
  -30.3650  -17.8800   20.3830 C   0  0  0  0  0  3  0  0  0  0  0  0
  -30.7880  -15.1900   20.2580 C   0  0  0  0  0  0  0  0  0  0  0  0
  -30.6420  -12.8690   19.2810 C   0  0  0  0  0  2  0  0  0  0  0  0
  -29.6990  -12.8630   18.0560 C   0  0  0  0  0  2  0  0  0  0  0  0
  -28.2350  -12.6620   18.4940 C   0  0  0  0  0  2  0  0  0  0  0  0
  -27.8440  -13.5680   19.6910 C   0  0  0  0  0  3  0  0  0  0  0  0
  -28.9070  -13.5450   20.8110 C   0  0  0  0  0  2  0  0  0  0  0  0
  -30.1820  -13.9430   20.2020 N   0  0  0  0  0  0  0  0  0  0  0  0
  -31.9810  -15.2710   19.9520 O   0  0  0  0  0  0  0  0  0  0  0  0
  -30.0140  -16.3540   20.4540 N   0  0  0  0  0  0  0  0  0  0  0  0
  -29.0440  -16.1590   20.6500 H   0  0  0  0  0  0  0  0  0  0  0  0
  -25.4640  -14.1390   20.4490 C   0  0  0  0  0  0  0  0  0  0  0  0
  -24.4030  -13.3590   20.8190 C   0  0  0  0  0  0  0  0  0  0  0  0
  -24.8690  -12.0100   20.7740 C   0  0  0  0  0  0  0  0  0  0  0  0
  -26.5070  -13.2650   20.1940 N   0  0  0  0  0  0  0  0  0  0  0  0
  -26.1590  -11.9790   20.4560 N   0  0  0  0  0  0  0  0  0  0  0  0
  -24.1450  -10.7450   20.9550 C   0  0  0  0  0  0  0  0  0  0  0  0
  -24.5430   -9.7970   21.9240 C   0  0  0  0  0  3  0  0  0  0  0  0
  -23.8190   -8.5980   22.0930 C   0  0  0  0  0  3  0  0  0  0  0  0
  -22.6820   -8.3360   21.2930 C   0  0  0  0  0  0  0  0  0  0  0  0
  -22.3020   -9.2730   20.3140 C   0  0  0  0  0  3  0  0  0  0  0  0
  -23.0270  -10.4630   20.1430 C   0  0  0  0  0  3  0  0  0  0  0  0
  -21.9300   -7.1890   21.3690 O   0  0  0  0  0  0  0  0  0  0  0  0
  -21.7790   -6.5050   22.5500 C   0  0  0  0  0  0  0  0  0  0  0  0
  -21.1710   -7.0960   23.6790 C   0  0  0  0  0  3  0  0  0  0  0  0
  -20.9720   -6.3350   24.8490 C   0  0  0  0  0  3  0  0  0  0  0  0
  -21.3680   -4.9860   24.8880 C   0  0  0  0  0  0  0  0  0  0  0  0
  -21.9660   -4.3940   23.7620 C   0  0  0  0  0  3  0  0  0  0  0  0
  -22.1680   -5.1520   22.5950 C   0  0  0  0  0  0  0  0  0  0  0  0
  -22.7260   -4.5710   21.5060 F   0  0  0  0  0  0  0  0  0  0  0  0
  -21.1700   -4.2520   26.0090 F   0  0  0  0  0  0  0  0  0  0  0  0
  -23.0060  -13.8330   21.1010 C   0  0  0  0  0  0  0  0  0  0  0  0
  -22.2850  -13.1330   21.9690 N   0  0  0  0  0  0  0  0  0  0  0  0
  -22.5640  -14.8580   20.5860 O   0  0  0  0  0  0  0  0  0  0  0  0
  -22.6570  -12.3050   22.4110 H   0  0  0  0  0  0  0  0  0  0  0  0
  -21.3480  -13.4330   22.1990 H   0  0  0  0  0  0  0  0  0  0  0  0
  -25.6230  -15.5120   20.2830 N   0  0  0  0  0  0  0  0  0  0  0  0
  -24.8520  -16.1590   20.4050 H   0  0  0  0  0  0  0  0  0  0  0  0
  -26.4550  -15.9540   19.9120 H   0  0  0  0  0  0  0  0  0  0  0  0
  -27.8640  -24.8990   19.5060 C   0  0  0  0  0  2  0  0  0  0  0  0
  -28.2500  -26.3800   19.7410 O   0  0  0  0  0  0  0  0  0  0  0  0
  -24.6530  -31.7870   23.2210 C   0  0  0  0  0  0  0  0  0  0  0  0
  -27.1920  -27.3620   19.7700 C   0  0  0  0  0  0  0  0  0  0  0  0
  -23.4150  -30.4850   21.5370 C   0  0  0  0  0  3  0  0  0  0  0  0
  -24.8350  -29.0530   19.9540 C   0  0  0  0  0  0  0  0  0  0  0  0
  -25.9580  -30.8140   21.3000 C   0  0  0  0  0  2  0  0  0  0  0  0
  -26.0300  -29.4750   20.5500 C   0  0  0  0  0  0  0  0  0  0  0  0
  -27.2090  -28.6450   20.4470 C   0  0  0  0  0  3  0  0  0  0  0  0
  -25.9660  -27.0550   19.1310 C   0  0  0  0  0  3  0  0  0  0  0  0
  -24.8140  -27.8550   19.2300 C   0  0  0  0  0  3  0  0  0  0  0  0
  -23.5920  -29.9130   20.1080 C   0  0  0  0  0  2  0  0  0  0  0  0
  -24.6960  -31.0460   22.0740 N   0  0  0  0  0  0  0  0  0  0  0  0
  -23.5840  -32.0140   23.8070 O   0  0  0  0  0  0  0  0  0  0  0  0
  -22.7920  -29.3980   22.4490 C   0  0  0  0  0  0  0  0  0  0  0  0
  -21.4790  -29.1510   22.2990 N   0  0  0  0  0  0  0  0  0  0  0  0
  -23.4940  -28.7790   23.2520 O   0  0  0  0  0  0  0  0  0  0  0  0
  -20.9660  -29.7060   21.6270 H   0  0  0  0  0  0  0  0  0  0  0  0
  -18.1820  -27.7000   22.6740 C   0  0  0  0  0  0  0  0  0  0  0  0
  -20.7060  -28.1390   23.0240 C   0  0  0  0  0  3  0  0  0  0  0  0
  -20.9280  -26.7320   22.4230 C   0  0  0  0  0  2  0  0  0  0  0  0
  -19.8820  -26.3550   21.3690 C   0  0  0  0  0  2  0  0  0  0  0  0
  -18.4760  -26.3830   21.9750 C   0  0  0  0  0  2  0  0  0  0  0  0
  -19.2290  -28.5310   23.1530 C   0  0  0  0  0  0  0  0  0  0  0  0
  -18.9010  -29.7590   23.7680 C   0  0  0  0  0  3  0  0  0  0  0  0
  -17.5590  -30.1580   23.9080 C   0  0  0  0  0  3  0  0  0  0  0  0
  -16.5260  -29.3240   23.4450 C   0  0  0  0  0  3  0  0  0  0  0  0
  -16.8380  -28.0970   22.8350 C   0  0  0  0  0  3  0  0  0  0  0  0
  -25.9440  -32.4020   23.8420 C   0  0  0  0  0  3  0  0  0  0  0  0
  -26.4620  -31.6100   25.1060 C   0  0  1  0  0  0  0  0  0  0  0  0
  -25.3720  -31.3690   26.1770 C   0  0  0  0  0  1  0  0  0  0  0  0
  -27.0320  -30.2320   24.6990 C   0  0  0  0  0  1  0  0  0  0  0  0
  -27.6230  -32.3860   25.7690 C   0  0  0  0  0  1  0  0  0  0  0  0
  -25.6470  -33.7980   24.1970 N   0  0  0  0  0  0  0  0  0  0  0  0
  -25.9360  -34.8600   23.4330 C   0  0  0  0  0  0  0  0  0  0  0  0
  -26.5500  -34.7660   22.3660 O   0  0  0  0  0  0  0  0  0  0  0  0
  -25.0920  -33.9420   25.0290 H   0  0  0  0  0  0  0  0  0  0  0  0
  -24.1750  -36.6430   23.2120 C   0  0  0  0  0  1  0  0  0  0  0  0
  -25.4730  -36.2430   23.9300 C   0  0  0  0  0  3  0  0  0  0  0  0
  -27.6480  -37.1520   24.6230 C   0  0  0  0  0  1  0  0  0  0  0  0
  -26.4870  -37.3040   23.7480 N   0  0  0  0  0  0  0  0  0  0  0  0
  -26.0830  -38.2220   23.9160 H   0  0  0  0  0  0  0  0  0  0  0  0
  1  9  1  0
  1  3  1  0
  2  1  2  0
  3  6  1  0
  4  8  1  0
  5  2  1  0
  7  2  1  0
  7  4  2  0
  8  3  2  0
 10 19  1  0
 10  9  2  0
 11 19  1  0
 12 17  1  0
 13 14  1  0
 13 12  1  0
 15 14  1  0
 15 24  1  0
 15 16  1  0
 17 11  1  0
 17 16  1  0
 18 11  2  0
 19 20  1  0
 21 22  2  0
 22 41  1  0
 23 22  1  0
 23 26  1  0
 24 21  1  0
 24 25  1  0
 25 23  2  0
 26 27  1  0
 27 28  2  0
 29 32  1  0
 29 28  1  0
 30 29  2  0
 31 30  1  0
 31 26  2  0
 32 33  1  0
 33 38  2  0
 33 34  1  0
 34 35  2  0
 35 36  1  0
 36 40  1  0
 37 36  2  0
 38 37  1  0
 39 38  1  0
 41 42  1  0
 42 45  1  0
 42 44  1  0
 43 41  2  0
 46 47  1  0
 46 21  1  0
 48 46  1  0
 49  4  1  0
 49 50  1  0
 50 52  1  0
 51 62  2  0
 52 57  1  0
 53 61  1  0
 53 63  1  0
 54 60  1  0
 54 56  1  0
 55 61  1  0
 56 55  1  0
 57 56  2  0
 58 59  1  0
 58 52  2  0
 59 54  2  0
 60 53  1  0
 61 51  1  0
 63 65  2  0
 64 63  1  0
 66 64  1  0
 67 76  2  0
 67 72  1  0
 68 64  1  0
 68 72  1  0
 69 68  1  0
 70 71  1  0
 70 69  1  0
 71 67  1  0
 72 73  2  0
 73 74  1  0
 75 74  2  0
 76 75  1  0
 77 51  1  0
 77 82  1  0
 77 78  1  0
 78 81  1  1
 78 79  1  0
 80 78  1  0
 82 85  1  0
 83 87  1  0
 83 82  1  0
 84 83  2  0
 87 86  1  0
 89 90  1  0
 89 87  1  0
 89 88  1  0
M  ISO  4  11 100  19 100  49 101  50 101
M  END
>  <TORSDO>  (35) 
F 19

>  <SCORE>  (35) 
-13.843

>  <name>  (35) 
34

>  <ligand_id>  (35) 
34

>  <original_smiles>  (35) 
[H]c1c([H])c([H])c2c(c1[H])C([H])([H])C([H])([H])C([H])([H])C2([H])N([H])C(=O)C1([H])N(C(=O)C([H])(N([H])C(=O)C([H])(N([H])C([H])([H])[H])C([H])([H])[H])C(C([H])([H])[H])(C([H])([H])[H])C([H])([H])[H])C([H])([H])c2c([H])c(OC([H])([H])c3nc(C([H])([H])[H])c(C([H])([H])C([H])([H])N([H])C(=O)N4C([H])([H])C([H])([H])C([H])([H])C([H])(n5nc(-c6c([H])c([H])c(Oc7c([H])c([H])c(F)c([H])c7F)c([H])c6[H])c(C(=O)N([H])[H])c5N([H])[H])C4([H])[H])c(C([H])([H])[H])n3)c([H])c([H])c2C1([H])[H]

>  <smiles>  (35) 
[H]c1c([H])c([H])c2c(c1[H])C([H])([H])C([H])([H])C([H])([H])C2([H])N([H])C(=O)C1([H])N(C(=O)C([H])(N([H])C(=O)C([H])(N([H])C([H])([H])[H])C([H])([H])[H])C(C([H])([H])[H])(C([H])([H])[H])C([H])([H])[H])C([H])([H])c2c([H])c(OC([H])([H])c3nc(C([H])([H])[H])c(C([H])([H])C([H])([H])N([H])C(=O)N4C([H])([H])C([H])([H])C([H])([H])C([H])(n5nc(-c6c([H])c([H])c(Oc7c([H])c([H])c(F)c([H])c7F)c([H])c6[H])c(C(=O)N([H])[H])c5N([H])[H])C4([H])[H])c(C([H])([H])[H])n3)c([H])c([H])c2C1([H])[H]

$$$$
35:0:0
     RDKit          3D

 93101  0  0  1  0  0  0  0  0999 V2000
  -29.5490  -21.3040   22.7340 C   0  0  0  0  0  0  0  0  0  0  0  0
  -29.4060  -22.7040   22.7220 C   0  0  0  0  0  0  0  0  0  0  0  0
  -28.9200  -21.1850   20.4880 C   0  0  0  0  0  0  0  0  0  0  0  0
  -28.7910  -22.6670   20.4550 C   0  0  0  0  0  0  0  0  0  0  0  0
  -29.9360  -20.5300   23.9780 C   0  0  0  0  0  1  0  0  0  0  0  0
  -29.3090  -20.5700   21.6310 N   0  0  0  0  0  0  0  0  0  0  0  0
  -29.0720  -23.3580   21.5910 N   0  0  0  0  0  0  0  0  0  0  0  0
  -30.9040  -24.3170   24.0030 C   0  0  0  0  0  1  0  0  0  0  0  0
  -29.5720  -23.5580   23.9700 C   0  0  0  0  0  2  0  0  0  0  0  0
  -28.4470  -20.0710   19.4810 C   0  0  0  0  0  2  0  0  0  0  0  0
  -29.1580  -18.5960   19.2820 C   0  0  0  0  0  2  0  0  0  0  0  0
  -29.3610  -17.4270   20.3840 C   0  0  0  0  0  2  0  0  0  0  0  0
  -30.2860  -14.9050   19.9070 C   0  0  0  0  0  0  0  0  0  0  0  0
  -30.2560  -12.5470   19.0520 C   0  0  0  0  0  2  0  0  0  0  0  0
  -29.2270  -12.4370   17.9040 C   0  0  0  0  0  2  0  0  0  0  0  0
  -27.8090  -12.1810   18.4550 C   0  0  0  0  0  2  0  0  0  0  0  0
  -27.4430  -13.1340   19.6230 C   0  0  0  0  0  3  0  0  0  0  0  0
  -28.5780  -13.1990   20.6670 C   0  0  0  0  0  2  0  0  0  0  0  0
  -29.7930  -13.6210   19.9540 N   0  0  0  0  0  0  0  0  0  0  0  0
  -31.4510  -15.1160   19.5600 O   0  0  0  0  0  0  0  0  0  0  0  0
  -29.3560  -15.9240   20.0620 N   0  0  0  0  0  0  0  0  0  0  0  0
  -28.4340  -15.5280   20.1750 H   0  0  0  0  0  0  0  0  0  0  0  0
  -25.1450  -13.6380   20.6480 C   0  0  0  0  0  0  0  0  0  0  0  0
  -24.1260  -12.8250   21.0600 C   0  0  0  0  0  0  0  0  0  0  0  0
  -24.5860  -11.4860   20.8650 C   0  0  0  0  0  0  0  0  0  0  0  0
  -26.1600  -12.7940   20.2280 N   0  0  0  0  0  0  0  0  0  0  0  0
  -25.8370  -11.4900   20.4220 N   0  0  0  0  0  0  0  0  0  0  0  0
  -23.8870  -10.2040   21.0200 C   0  0  0  0  0  0  0  0  0  0  0  0
  -24.3770   -9.1960   21.8780 C   0  0  0  0  0  3  0  0  0  0  0  0
  -23.6790   -7.9780   22.0250 C   0  0  0  0  0  3  0  0  0  0  0  0
  -22.4740   -7.7610   21.3140 C   0  0  0  0  0  0  0  0  0  0  0  0
  -22.0020   -8.7610   20.4440 C   0  0  0  0  0  3  0  0  0  0  0  0
  -22.7020   -9.9690   20.2950 C   0  0  0  0  0  3  0  0  0  0  0  0
  -21.7410   -6.6010   21.3740 O   0  0  0  0  0  0  0  0  0  0  0  0
  -21.7190   -5.8220   22.5030 C   0  0  0  0  0  0  0  0  0  0  0  0
  -21.2640   -6.3210   23.7430 C   0  0  0  0  0  3  0  0  0  0  0  0
  -21.1930   -5.4680   24.8620 C   0  0  0  0  0  3  0  0  0  0  0  0
  -21.5640   -4.1150   24.7410 C   0  0  0  0  0  0  0  0  0  0  0  0
  -22.0110   -3.6150   23.5060 C   0  0  0  0  0  3  0  0  0  0  0  0
  -22.0850   -4.4660   22.3890 C   0  0  0  0  0  0  0  0  0  0  0  0
  -22.4960   -3.9740   21.1960 F   0  0  0  0  0  0  0  0  0  0  0  0
  -21.4880   -3.2920   25.8130 F   0  0  0  0  0  0  0  0  0  0  0  0
  -22.7620  -13.2600   21.5130 C   0  0  0  0  0  0  0  0  0  0  0  0
  -22.1350  -12.4890   22.3940 N   0  0  0  0  0  0  0  0  0  0  0  0
  -22.2660  -14.3180   21.1250 O   0  0  0  0  0  0  0  0  0  0  0  0
  -22.5520  -11.6310   22.7250 H   0  0  0  0  0  0  0  0  0  0  0  0
  -21.2250  -12.7580   22.7400 H   0  0  0  0  0  0  0  0  0  0  0  0
  -25.2840  -15.0220   20.5690 N   0  0  0  0  0  0  0  0  0  0  0  0
  -24.5210  -15.6480   20.8050 H   0  0  0  0  0  0  0  0  0  0  0  0
  -26.0720  -15.5010   20.1560 H   0  0  0  0  0  0  0  0  0  0  0  0
  -28.3550  -23.7040   19.3160 C   0  0  0  0  0  3  0  0  0  0  0  0
  -27.9370  -25.2230   19.7910 C   0  0  0  0  0  3  0  0  0  0  0  0
  -27.8550  -26.4590   18.9350 O   0  0  0  0  0  0  0  0  0  0  0  0
  -24.4950  -31.5520   22.9090 C   0  0  0  0  0  0  0  0  0  0  0  0
  -26.7650  -27.3350   19.1380 C   0  0  0  0  0  0  0  0  0  0  0  0
  -23.1240  -30.3150   21.2710 C   0  0  0  0  0  3  0  0  0  0  0  0
  -24.4160  -28.9350   19.5440 C   0  0  0  0  0  0  0  0  0  0  0  0
  -25.6310  -30.6770   20.8480 C   0  0  0  0  0  2  0  0  0  0  0  0
  -25.6440  -29.3700   20.0570 C   0  0  0  0  0  0  0  0  0  0  0  0
  -26.8240  -28.5860   19.8400 C   0  0  0  0  0  3  0  0  0  0  0  0
  -25.5140  -26.9640   18.6070 C   0  0  0  0  0  3  0  0  0  0  0  0
  -24.3540  -27.7390   18.8090 C   0  0  0  0  0  3  0  0  0  0  0  0
  -23.1880  -29.7850   19.8150 C   0  0  0  0  0  2  0  0  0  0  0  0
  -24.4420  -30.8610   21.7320 N   0  0  0  0  0  0  0  0  0  0  0  0
  -23.4750  -31.7580   23.5840 O   0  0  0  0  0  0  0  0  0  0  0  0
  -22.5720  -29.1970   22.1890 C   0  0  0  0  0  0  0  0  0  0  0  0
  -21.2490  -28.9600   22.1270 N   0  0  0  0  0  0  0  0  0  0  0  0
  -23.3300  -28.5470   22.9130 O   0  0  0  0  0  0  0  0  0  0  0  0
  -20.6910  -29.5410   21.5180 H   0  0  0  0  0  0  0  0  0  0  0  0
  -17.9840  -27.5000   22.6710 C   0  0  0  0  0  0  0  0  0  0  0  0
  -20.5270  -27.9240   22.8680 C   0  0  0  0  0  3  0  0  0  0  0  0
  -20.7050  -26.5370   22.2060 C   0  0  0  0  0  2  0  0  0  0  0  0
  -19.5900  -26.1960   21.2120 C   0  0  0  0  0  2  0  0  0  0  0  0
  -18.2260  -26.2070   21.9090 C   0  0  0  0  0  2  0  0  0  0  0  0
  -19.0630  -28.3130   23.1070 C   0  0  0  0  0  0  0  0  0  0  0  0
  -18.7810  -29.5230   23.7780 C   0  0  0  0  0  3  0  0  0  0  0  0
  -17.4520  -29.9190   24.0180 C   0  0  0  0  0  3  0  0  0  0  0  0
  -16.3870  -29.1030   23.6000 C   0  0  0  0  0  3  0  0  0  0  0  0
  -16.6540  -27.8940   22.9300 C   0  0  0  0  0  3  0  0  0  0  0  0
  -25.8360  -32.1360   23.4520 C   0  0  0  0  0  3  0  0  0  0  0  0
  -25.5580  -33.4800   23.9800 N   0  0  0  0  0  0  0  0  0  0  0  0
  -25.8220  -34.6220   23.3300 C   0  0  0  0  0  0  0  0  0  0  0  0
  -26.3970  -34.6540   22.2400 O   0  0  0  0  0  0  0  0  0  0  0  0
  -25.0430  -33.5300   24.8460 H   0  0  0  0  0  0  0  0  0  0  0  0
  -24.0770  -36.4320   23.3500 C   0  0  0  0  0  1  0  0  0  0  0  0
  -25.3800  -35.9390   24.0000 C   0  0  0  0  0  3  0  0  0  0  0  0
  -27.5760  -36.7280   24.7610 C   0  0  0  0  0  1  0  0  0  0  0  0
  -26.4020  -37.0060   23.9380 N   0  0  0  0  0  0  0  0  0  0  0  0
  -26.0110  -37.8970   24.2330 H   0  0  0  0  0  0  0  0  0  0  0  0
  -26.4990  -31.2340   24.5640 C   0  0  1  0  0  0  0  0  0  0  0  0
  -25.5380  -30.8600   25.7180 C   0  0  0  0  0  1  0  0  0  0  0  0
  -27.0350  -29.9190   23.9510 C   0  0  0  0  0  1  0  0  0  0  0  0
  -27.7190  -31.9640   25.1720 C   0  0  0  0  0  1  0  0  0  0  0  0
  1  5  1  0
  2  1  1  0
  2  9  1  0
  3  6  1  0
  4  3  2  0
  4  7  1  0
  6  1  2  0
  7  2  2  0
  9  8  1  0
 10  3  1  0
 11 10  1  0
 11 12  1  0
 13 19  1  0
 13 21  1  0
 14 19  1  0
 15 16  1  0
 15 14  1  0
 17 16  1  0
 17 26  1  0
 17 18  1  0
 19 18  1  0
 20 13  2  0
 21 22  1  0
 21 12  1  0
 23 24  2  0
 24 43  1  0
 25 28  1  0
 25 24  1  0
 26 27  1  0
 26 23  1  0
 27 25  2  0
 28 29  1  0
 29 30  2  0
 31 34  1  0
 31 30  1  0
 32 31  2  0
 33 32  1  0
 33 28  2  0
 34 35  1  0
 35 36  1  0
 36 37  2  0
 38 37  1  0
 38 42  1  0
 39 38  2  0
 40 35  2  0
 40 39  1  0
 41 40  1  0
 43 44  1  0
 44 46  1  0
 44 47  1  0
 45 43  2  0
 48 23  1  0
 48 49  1  0
 50 48  1  0
 51 52  2  0
 51  4  1  0
 53 55  1  0
 53 52  1  0
 54 65  2  0
 55 60  1  0
 56 64  1  0
 56 66  1  0
 57 63  1  0
 57 59  1  0
 58 64  1  0
 59 58  1  0
 60 59  2  0
 61 62  1  0
 61 55  2  0
 62 57  2  0
 63 56  1  0
 64 54  1  0
 66 68  2  0
 67 66  1  0
 69 67  1  0
 70 79  2  0
 70 75  1  0
 71 67  1  0
 71 75  1  0
 72 71  1  0
 73 74  1  0
 73 72  1  0
 74 70  1  0
 75 76  2  0
 76 77  1  0
 78 77  2  0
 79 78  1  0
 80 54  1  0
 80 81  1  0
 80 90  1  0
 81 84  1  0
 82 81  1  0
 82 86  1  0
 83 82  2  0
 86 85  1  0
 88 86  1  0
 88 89  1  0
 88 87  1  0
 90 93  1  1
 90 91  1  0
 92 90  1  0
M  ISO  4  13 100  21 100  52 101  53 101
M  END
>  <TORSDO>  (36) 
F 22

>  <SCORE>  (36) 
-8.523

>  <name>  (36) 
35

>  <ligand_id>  (36) 
35

>  <original_smiles>  (36) 
[H]c1c([H])c([H])c2c(c1[H])C([H])([H])C([H])([H])C([H])([H])C2([H])N([H])C(=O)C1([H])N(C(=O)C([H])(N([H])C(=O)C([H])(N([H])C([H])([H])[H])C([H])([H])[H])C(C([H])([H])[H])(C([H])([H])[H])C([H])([H])[H])C([H])([H])c2c([H])c(OC([H])([H])C([H])([H])c3nc(C([H])([H])C([H])([H])[H])c(C([H])([H])[H])nc3C([H])([H])C([H])([H])C([H])([H])N([H])C(=O)N3C([H])([H])C([H])([H])C([H])([H])C([H])(n4nc(-c5c([H])c([H])c(Oc6c([H])c([H])c(F)c([H])c6F)c([H])c5[H])c(C(=O)N([H])[H])c4N([H])[H])C3([H])[H])c([H])c([H])c2C1([H])[H]

>  <smiles>  (36) 
[H]c1c([H])c([H])c2c(c1[H])C([H])([H])C([H])([H])C([H])([H])C2([H])N([H])C(=O)C1([H])N(C(=O)C([H])(N([H])C(=O)C([H])(N([H])C([H])([H])[H])C([H])([H])[H])C(C([H])([H])[H])(C([H])([H])[H])C([H])([H])[H])C([H])([H])c2c([H])c(OC([H])([H])C([H])([H])c3nc(C([H])([H])C([H])([H])[H])c(C([H])([H])[H])nc3C([H])([H])C([H])([H])C([H])([H])N([H])C(=O)N3C([H])([H])C([H])([H])C([H])([H])C([H])(n4nc(-c5c([H])c([H])c(Oc6c([H])c([H])c(F)c([H])c6F)c([H])c5[H])c(C(=O)N([H])[H])c4N([H])[H])C3([H])[H])c([H])c([H])c2C1([H])[H]

$$$$
36:0:0
     RDKit          3D

 92100  0  0  1  0  0  0  0  0999 V2000
  -26.4610  -21.8150   19.4510 C   0  0  0  0  0  3  0  0  0  0  0  0
  -27.8090  -21.4700   19.6800 C   0  0  0  0  0  0  0  0  0  0  0  0
  -28.1080  -20.0710   19.5710 C   0  0  0  0  0  0  0  0  0  0  0  0
  -25.8660  -19.6390   19.2080 C   0  0  0  0  0  0  0  0  0  0  0  0
  -24.7980  -18.5980   18.9560 C   0  0  0  0  0  1  0  0  0  0  0  0
  -25.4980  -20.9070   19.2180 N   0  0  0  0  0  0  0  0  0  0  0  0
  -27.0990  -19.1970   19.3750 N   0  0  0  0  0  0  0  0  0  0  0  0
  -28.8050  -22.6300   19.9360 C   0  0  0  0  0  2  0  0  0  0  0  0
  -28.2260  -23.9230   20.6430 C   0  0  0  0  0  3  0  0  0  0  0  0
  -28.8200  -25.2900   20.1630 C   0  0  0  0  0  3  0  0  0  0  0  0
  -28.5160  -26.4530   20.9820 O   0  0  0  0  0  0  0  0  0  0  0  0
  -24.5240  -31.8690   23.4090 C   0  0  0  0  0  0  0  0  0  0  0  0
  -27.3470  -27.1870   20.8190 C   0  0  0  0  0  0  0  0  0  0  0  0
  -23.4370  -30.3760   21.7670 C   0  0  0  0  0  3  0  0  0  0  0  0
  -24.9770  -28.7420   20.5540 C   0  0  0  0  0  0  0  0  0  0  0  0
  -25.9780  -30.6960   21.7490 C   0  0  0  0  0  2  0  0  0  0  0  0
  -26.0970  -29.2840   21.1960 C   0  0  0  0  0  0  0  0  0  0  0  0
  -27.2810  -28.5160   21.3220 C   0  0  0  0  0  3  0  0  0  0  0  0
  -26.1990  -26.6660   20.1790 C   0  0  0  0  0  3  0  0  0  0  0  0
  -25.0270  -27.4330   20.0460 C   0  0  0  0  0  3  0  0  0  0  0  0
  -23.7470  -29.6150   20.4500 C   0  0  0  0  0  2  0  0  0  0  0  0
  -24.6610  -31.0010   22.3660 N   0  0  0  0  0  0  0  0  0  0  0  0
  -23.4070  -32.1790   23.8460 O   0  0  0  0  0  0  0  0  0  0  0  0
  -22.7020  -29.4180   22.7330 C   0  0  0  0  0  0  0  0  0  0  0  0
  -21.3890  -29.2340   22.5150 N   0  0  0  0  0  0  0  0  0  0  0  0
  -23.3130  -28.8410   23.6360 O   0  0  0  0  0  0  0  0  0  0  0  0
  -20.9600  -29.7500   21.7600 H   0  0  0  0  0  0  0  0  0  0  0  0
  -17.9680  -28.1160   22.8480 C   0  0  0  0  0  0  0  0  0  0  0  0
  -20.5060  -28.3470   23.2730 C   0  0  0  0  0  3  0  0  0  0  0  0
  -20.6190  -26.8880   22.7740 C   0  0  0  0  0  2  0  0  0  0  0  0
  -19.5790  -26.5340   21.7050 C   0  0  0  0  0  2  0  0  0  0  0  0
  -18.1630  -26.7330   22.2500 C   0  0  0  0  0  2  0  0  0  0  0  0
  -19.0700  -28.8810   23.3140 C   0  0  0  0  0  0  0  0  0  0  0  0
  -18.8370  -30.1750   23.8280 C   0  0  0  0  0  3  0  0  0  0  0  0
  -17.5340  -30.7040   23.8810 C   0  0  0  0  0  3  0  0  0  0  0  0
  -16.4450  -29.9370   23.4330 C   0  0  0  0  0  3  0  0  0  0  0  0
  -16.6620  -28.6440   22.9240 C   0  0  0  0  0  3  0  0  0  0  0  0
  -25.7640  -32.5330   24.0870 C   0  0  0  0  0  3  0  0  0  0  0  0
  -25.4440  -33.9500   24.3050 N   0  0  0  0  0  0  0  0  0  0  0  0
  -25.8350  -34.9490   23.5020 C   0  0  0  0  0  0  0  0  0  0  0  0
  -26.5710  -34.7750   22.5270 O   0  0  0  0  0  0  0  0  0  0  0  0
  -24.7990  -34.1590   25.0530 H   0  0  0  0  0  0  0  0  0  0  0  0
  -24.1390  -36.7120   22.9190 C   0  0  0  0  0  1  0  0  0  0  0  0
  -25.3270  -36.3660   23.8310 C   0  0  0  0  0  3  0  0  0  0  0  0
  -27.4170  -37.3010   24.7200 C   0  0  0  0  0  1  0  0  0  0  0  0
  -26.3720  -37.4070   23.7070 N   0  0  0  0  0  0  0  0  0  0  0  0
  -25.9640  -38.3360   23.7670 H   0  0  0  0  0  0  0  0  0  0  0  0
  -26.1730  -31.8420   25.4470 C   0  0  1  0  0  0  0  0  0  0  0  0
  -24.9900  -31.6430   26.4250 C   0  0  0  0  0  1  0  0  0  0  0  0
  -26.8070  -30.4580   25.1860 C   0  0  0  0  0  1  0  0  0  0  0  0
  -27.2490  -32.6920   26.1640 C   0  0  0  0  0  1  0  0  0  0  0  0
  -29.4950  -19.3780   19.6560 C   0  0  0  0  0  2  0  0  0  0  0  0
  -29.4310  -17.7960   19.5580 C   0  0  0  0  0  2  0  0  0  0  0  0
  -30.7130  -16.9310   19.7870 C   0  0  0  0  0  2  0  0  0  0  0  0
  -31.1190  -14.4070   19.8230 C   0  0  0  0  0  0  0  0  0  0  0  0
  -30.7890  -12.0890   19.0370 C   0  0  0  0  0  2  0  0  0  0  0  0
  -29.8070  -12.1250   17.8460 C   0  0  0  0  0  2  0  0  0  0  0  0
  -28.3470  -12.0630   18.3400 C   0  0  0  0  0  2  0  0  0  0  0  0
  -28.0590  -13.0760   19.4810 C   0  0  0  0  0  3  0  0  0  0  0  0
  -29.1540  -13.0110   20.5720 C   0  0  0  0  0  2  0  0  0  0  0  0
  -30.4540  -13.2210   19.9180 N   0  0  0  0  0  0  0  0  0  0  0  0
  -32.2490  -14.4990   19.3380 O   0  0  0  0  0  0  0  0  0  0  0  0
  -30.3870  -15.5140   20.1020 N   0  0  0  0  0  0  0  0  0  0  0  0
  -29.4740  -15.3390   20.4940 H   0  0  0  0  0  0  0  0  0  0  0  0
  -25.7860  -13.8520   20.4070 C   0  0  0  0  0  0  0  0  0  0  0  0
  -24.6720  -13.1570   20.7960 C   0  0  0  0  0  0  0  0  0  0  0  0
  -24.9920  -11.7740   20.6320 C   0  0  0  0  0  0  0  0  0  0  0  0
  -26.7210  -12.8940   20.0370 N   0  0  0  0  0  0  0  0  0  0  0  0
  -26.2480  -11.6370   20.2300 N   0  0  0  0  0  0  0  0  0  0  0  0
  -24.1570  -10.5760   20.7790 C   0  0  0  0  0  0  0  0  0  0  0  0
  -24.5270   -9.5170   21.6380 C   0  0  0  0  0  3  0  0  0  0  0  0
  -23.6980   -8.3840   21.7780 C   0  0  0  0  0  3  0  0  0  0  0  0
  -22.4820   -8.3020   21.0580 C   0  0  0  0  0  0  0  0  0  0  0  0
  -22.1290   -9.3490   20.1880 C   0  0  0  0  0  3  0  0  0  0  0  0
  -22.9580  -10.4720   20.0450 C   0  0  0  0  0  3  0  0  0  0  0  0
  -21.6240   -7.2310   21.1100 O   0  0  0  0  0  0  0  0  0  0  0  0
  -21.5120   -6.4550   22.2360 C   0  0  0  0  0  0  0  0  0  0  0  0
  -21.1370   -7.0000   23.4840 C   0  0  0  0  0  3  0  0  0  0  0  0
  -20.9680   -6.1550   24.5990 C   0  0  0  0  0  3  0  0  0  0  0  0
  -21.1620   -4.7670   24.4660 C   0  0  0  0  0  0  0  0  0  0  0  0
  -21.5290   -4.2220   23.2230 C   0  0  0  0  0  3  0  0  0  0  0  0
  -21.7020   -5.0640   22.1110 C   0  0  0  0  0  0  0  0  0  0  0  0
  -22.0360   -4.5320   20.9110 F   0  0  0  0  0  0  0  0  0  0  0  0
  -20.9910   -3.9540   25.5340 F   0  0  0  0  0  0  0  0  0  0  0  0
  -23.3510  -13.7430   21.2030 C   0  0  0  0  0  0  0  0  0  0  0  0
  -22.6160  -13.0570   22.0720 N   0  0  0  0  0  0  0  0  0  0  0  0
  -22.9820  -14.8400   20.7860 O   0  0  0  0  0  0  0  0  0  0  0  0
  -22.9260  -12.1670   22.4330 H   0  0  0  0  0  0  0  0  0  0  0  0
  -21.7290  -13.4280   22.3790 H   0  0  0  0  0  0  0  0  0  0  0  0
  -26.0730  -15.2110   20.3180 N   0  0  0  0  0  0  0  0  0  0  0  0
  -25.3760  -15.9160   20.5270 H   0  0  0  0  0  0  0  0  0  0  0  0
  -26.9410  -15.6030   19.9750 H   0  0  0  0  0  0  0  0  0  0  0  0
  1  2  2  0
  2  8  1  0
  3 52  1  0
  3  2  1  0
  4  6  2  0
  4  7  1  0
  5  4  1  0
  6  1  1  0
  7  3  2  0
  8  9  1  0
 10  9  2  0
 10 11  1  0
 12 23  2  0
 13 11  1  0
 13 18  1  0
 14 22  1  0
 14 24  1  0
 15 17  1  0
 16 22  1  0
 17 18  2  0
 17 16  1  0
 19 13  2  0
 20 19  1  0
 20 15  2  0
 21 15  1  0
 21 14  1  0
 22 12  1  0
 24 26  2  0
 25 24  1  0
 27 25  1  0
 28 37  2  0
 28 33  1  0
 29 25  1  0
 29 33  1  0
 30 29  1  0
 31 32  1  0
 31 30  1  0
 32 28  1  0
 33 34  2  0
 34 35  1  0
 36 35  2  0
 37 36  1  0
 38 12  1  0
 38 39  1  0
 38 48  1  0
 39 42  1  0
 40 44  1  0
 40 39  1  0
 41 40  2  0
 44 43  1  0
 46 47  1  0
 46 44  1  0
 46 45  1  0
 48 51  1  1
 48 49  1  0
 50 48  1  0
 53 52  1  0
 53 54  1  0
 54 63  1  0
 55 61  1  0
 55 63  1  0
 56 61  1  0
 57 58  1  0
 57 56  1  0
 59 58  1  0
 59 68  1  0
 59 60  1  0
 61 60  1  0
 62 55  2  0
 63 64  1  0
 65 66  2  0
 66 85  1  0
 67 70  1  0
 67 66  1  0
 68 69  1  0
 68 65  1  0
 69 67  2  0
 70 71  1  0
 71 72  2  0
 73 76  1  0
 73 72  1  0
 74 73  2  0
 75 74  1  0
 75 70  2  0
 76 77  1  0
 77 78  1  0
 78 79  2  0
 80 79  1  0
 80 84  1  0
 81 80  2  0
 82 77  2  0
 82 81  1  0
 83 82  1  0
 85 86  1  0
 86 89  1  0
 86 88  1  0
 87 85  2  0
 90 65  1  0
 90 91  1  0
 92 90  1  0
M  ISO  4  10 101  11 101  55 100  63 100
M  END
>  <TORSDO>  (37) 
F 22

>  <SCORE>  (37) 
-10.193

>  <name>  (37) 
36

>  <ligand_id>  (37) 
36

>  <original_smiles>  (37) 
[H]c1nc(C([H])([H])[H])nc(C([H])([H])C([H])([H])C([H])([H])N([H])C(=O)N2C([H])([H])C([H])([H])C([H])([H])C([H])(n3nc(-c4c([H])c([H])c(Oc5c([H])c([H])c(F)c([H])c5F)c([H])c4[H])c(C(=O)N([H])[H])c3N([H])[H])C2([H])[H])c1C([H])([H])C([H])([H])C([H])([H])Oc1c([H])c([H])c2c(c1[H])C([H])([H])N(C(=O)C([H])(N([H])C(=O)C([H])(N([H])C([H])([H])[H])C([H])([H])[H])C(C([H])([H])[H])(C([H])([H])[H])C([H])([H])[H])C([H])(C(=O)N([H])C1([H])c3c([H])c([H])c([H])c([H])c3C([H])([H])C([H])([H])C1([H])[H])C2([H])[H]

>  <smiles>  (37) 
[H]c1nc(C([H])([H])[H])nc(C([H])([H])C([H])([H])C([H])([H])N([H])C(=O)N2C([H])([H])C([H])([H])C([H])([H])C([H])(n3nc(-c4c([H])c([H])c(Oc5c([H])c([H])c(F)c([H])c5F)c([H])c4[H])c(C(=O)N([H])[H])c3N([H])[H])C2([H])[H])c1C([H])([H])C([H])([H])C([H])([H])Oc1c([H])c([H])c2c(c1[H])C([H])([H])N(C(=O)C([H])(N([H])C(=O)C([H])(N([H])C([H])([H])[H])C([H])([H])[H])C(C([H])([H])[H])(C([H])([H])[H])C([H])([H])[H])C([H])(C(=O)N([H])C1([H])c3c([H])c([H])c([H])c([H])c3C([H])([H])C([H])([H])C1([H])[H])C2([H])[H]

$$$$
37:0:0
     RDKit          3D

 92100  0  0  1  0  0  0  0  0999 V2000
  -30.6930  -22.8090   20.8790 C   0  0  0  0  0  0  0  0  0  0  0  0
  -28.1100  -22.6060   20.1420 C   0  0  0  0  0  0  0  0  0  0  0  0
  -30.0840  -21.5350   20.6600 C   0  0  0  0  0  0  0  0  0  0  0  0
  -28.7160  -23.8840   20.3310 C   0  0  0  0  0  0  0  0  0  0  0  0
  -32.1380  -22.9460   21.3160 C   0  0  0  0  0  1  0  0  0  0  0  0
  -26.6430  -22.4280   19.7790 C   0  0  0  0  0  1  0  0  0  0  0  0
  -28.7930  -21.4510   20.2810 N   0  0  0  0  0  0  0  0  0  0  0  0
  -30.0160  -23.9840   20.7040 N   0  0  0  0  0  0  0  0  0  0  0  0
  -30.8080  -20.1800   20.7300 C   0  0  0  0  0  2  0  0  0  0  0  0
  -30.2270  -19.1880   21.7770 C   0  0  0  0  0  2  0  0  0  0  0  0
  -29.7100  -17.8210   21.2460 C   0  0  0  0  0  2  0  0  0  0  0  0
  -30.7920  -16.7720   20.9030 C   0  0  0  0  0  2  0  0  0  0  0  0
  -30.7940  -14.4140   20.0710 C   0  0  0  0  0  0  0  0  0  0  0  0
  -30.3580  -12.2760   18.9230 C   0  0  0  0  0  2  0  0  0  0  0  0
  -29.3450  -12.4900   17.7790 C   0  0  0  0  0  2  0  0  0  0  0  0
  -27.9000  -12.3860   18.2990 C   0  0  0  0  0  2  0  0  0  0  0  0
  -27.6550  -13.2300   19.5780 C   0  0  0  0  0  3  0  0  0  0  0  0
  -28.7730  -12.9950   20.6200 C   0  0  0  0  0  2  0  0  0  0  0  0
  -30.0700  -13.2670   19.9720 N   0  0  0  0  0  0  0  0  0  0  0  0
  -31.8660  -14.5830   19.4850 O   0  0  0  0  0  0  0  0  0  0  0  0
  -30.2270  -15.4190   20.7600 N   0  0  0  0  0  0  0  0  0  0  0  0
  -29.3380  -15.2280   21.1960 H   0  0  0  0  0  0  0  0  0  0  0  0
  -25.3200  -13.8720   20.4490 C   0  0  0  0  0  0  0  0  0  0  0  0
  -24.2570  -13.1150   20.8660 C   0  0  0  0  0  0  0  0  0  0  0  0
  -24.6810  -11.7540   20.7730 C   0  0  0  0  0  0  0  0  0  0  0  0
  -26.3280  -12.9720   20.1350 N   0  0  0  0  0  0  0  0  0  0  0  0
  -25.9480  -11.6920   20.3850 N   0  0  0  0  0  0  0  0  0  0  0  0
  -23.9350  -10.5040   20.9760 C   0  0  0  0  0  0  0  0  0  0  0  0
  -24.3780   -9.5170   21.8840 C   0  0  0  0  0  3  0  0  0  0  0  0
  -23.6340   -8.3330   22.0750 C   0  0  0  0  0  3  0  0  0  0  0  0
  -22.4320   -8.1290   21.3570 C   0  0  0  0  0  0  0  0  0  0  0  0
  -22.0080   -9.1020   20.4350 C   0  0  0  0  0  3  0  0  0  0  0  0
  -22.7540  -10.2780   20.2440 C   0  0  0  0  0  3  0  0  0  0  0  0
  -21.6580   -6.9980   21.4590 O   0  0  0  0  0  0  0  0  0  0  0  0
  -21.6040   -6.2630   22.6160 C   0  0  0  0  0  0  0  0  0  0  0  0
  -21.1750   -6.8270   23.8370 C   0  0  0  0  0  3  0  0  0  0  0  0
  -21.0710   -6.0190   24.9870 C   0  0  0  0  0  3  0  0  0  0  0  0
  -21.3860   -4.6500   24.9150 C   0  0  0  0  0  0  0  0  0  0  0  0
  -21.8080   -4.0850   23.7000 C   0  0  0  0  0  3  0  0  0  0  0  0
  -21.9140   -4.8890   22.5520 C   0  0  0  0  0  0  0  0  0  0  0  0
  -22.3030   -4.3370   21.3770 F   0  0  0  0  0  0  0  0  0  0  0  0
  -21.2770   -3.8710   26.0180 F   0  0  0  0  0  0  0  0  0  0  0  0
  -22.8920  -13.6180   21.2410 C   0  0  0  0  0  0  0  0  0  0  0  0
  -22.2010  -12.9100   22.1290 N   0  0  0  0  0  0  0  0  0  0  0  0
  -22.4500  -14.6700   20.7840 O   0  0  0  0  0  0  0  0  0  0  0  0
  -22.5770  -12.0590   22.5180 H   0  0  0  0  0  0  0  0  0  0  0  0
  -21.2910  -13.2250   22.4300 H   0  0  0  0  0  0  0  0  0  0  0  0
  -25.5050  -15.2420   20.2920 N   0  0  0  0  0  0  0  0  0  0  0  0
  -24.7630  -15.9130   20.4590 H   0  0  0  0  0  0  0  0  0  0  0  0
  -26.3480  -15.6670   19.9250 H   0  0  0  0  0  0  0  0  0  0  0  0
  -27.8660  -25.1250   20.0290 C   0  0  0  0  0  2  0  0  0  0  0  0
  -28.2690  -26.5040   20.2790 O   0  0  0  0  0  0  0  0  0  0  0  0
  -24.5240  -31.8720   23.2030 C   0  0  0  0  0  0  0  0  0  0  0  0
  -27.1830  -27.3790   20.1570 C   0  0  0  0  0  0  0  0  0  0  0  0
  -23.3480  -30.4870   21.5340 C   0  0  0  0  0  3  0  0  0  0  0  0
  -24.8230  -28.9710   20.1200 C   0  0  0  0  0  0  0  0  0  0  0  0
  -25.8920  -30.8150   21.4030 C   0  0  0  0  0  2  0  0  0  0  0  0
  -25.9800  -29.4490   20.7480 C   0  0  0  0  0  0  0  0  0  0  0  0
  -27.1640  -28.6600   20.7740 C   0  0  0  0  0  3  0  0  0  0  0  0
  -26.0060  -26.9780   19.4640 C   0  0  0  0  0  3  0  0  0  0  0  0
  -24.8340  -27.7360   19.4710 C   0  0  0  0  0  3  0  0  0  0  0  0
  -23.5850  -29.8360   20.1510 C   0  0  0  0  0  2  0  0  0  0  0  0
  -24.6050  -31.0710   22.1030 N   0  0  0  0  0  0  0  0  0  0  0  0
  -23.4310  -32.1490   23.7150 O   0  0  0  0  0  0  0  0  0  0  0  0
  -22.6730  -29.4550   22.4690 C   0  0  0  0  0  0  0  0  0  0  0  0
  -21.3480  -29.2900   22.3250 N   0  0  0  0  0  0  0  0  0  0  0  0
  -23.3390  -28.8110   23.2830 O   0  0  0  0  0  0  0  0  0  0  0  0
  -20.8730  -29.8630   21.6400 H   0  0  0  0  0  0  0  0  0  0  0  0
  -17.9470  -28.1530   22.7950 C   0  0  0  0  0  0  0  0  0  0  0  0
  -20.5090  -28.3560   23.0760 C   0  0  0  0  0  3  0  0  0  0  0  0
  -20.5850  -26.9330   22.4770 C   0  0  0  0  0  2  0  0  0  0  0  0
  -19.4790  -26.6480   21.4560 C   0  0  0  0  0  2  0  0  0  0  0  0
  -18.0980  -26.8100   22.0990 C   0  0  0  0  0  2  0  0  0  0  0  0
  -19.0800  -28.8850   23.2390 C   0  0  0  0  0  0  0  0  0  0  0  0
  -18.8850  -30.1430   23.8500 C   0  0  0  0  0  3  0  0  0  0  0  0
  -17.5910  -30.6690   24.0180 C   0  0  0  0  0  3  0  0  0  0  0  0
  -16.4720  -29.9340   23.5890 C   0  0  0  0  0  3  0  0  0  0  0  0
  -16.6510  -28.6770   22.9850 C   0  0  0  0  0  3  0  0  0  0  0  0
  -25.7990  -32.4960   23.8490 C   0  0  0  0  0  3  0  0  0  0  0  0
  -25.4820  -33.8890   24.1890 N   0  0  0  0  0  0  0  0  0  0  0  0
  -25.8150  -34.9480   23.4390 C   0  0  0  0  0  0  0  0  0  0  0  0
  -26.4930  -34.8550   22.4110 O   0  0  0  0  0  0  0  0  0  0  0  0
  -24.8800  -34.0350   24.9860 H   0  0  0  0  0  0  0  0  0  0  0  0
  -24.0830  -36.7360   23.0770 C   0  0  0  0  0  1  0  0  0  0  0  0
  -25.3170  -36.3300   23.9010 C   0  0  0  0  0  3  0  0  0  0  0  0
  -27.4380  -37.2160   24.7640 C   0  0  0  0  0  1  0  0  0  0  0  0
  -26.3460  -37.3890   23.8090 N   0  0  0  0  0  0  0  0  0  0  0  0
  -25.9350  -38.3060   23.9580 H   0  0  0  0  0  0  0  0  0  0  0  0
  -26.2960  -31.7080   25.1220 C   0  0  1  0  0  0  0  0  0  0  0  0
  -25.1840  -31.4500   26.1670 C   0  0  0  0  0  1  0  0  0  0  0  0
  -26.8920  -30.3380   24.7210 C   0  0  0  0  0  1  0  0  0  0  0  0
  -27.4310  -32.4970   25.8130 C   0  0  0  0  0  1  0  0  0  0  0  0
  1  5  1  0
  2  7  2  0
  2  4  1  0
  3  9  1  0
  3  1  2  0
  4  8  2  0
  6  2  1  0
  7  3  1  0
  8  1  1  0
  9 10  1  0
 11 10  1  0
 12 11  1  0
 13 21  1  0
 14 19  1  0
 15 16  1  0
 15 14  1  0
 17 16  1  0
 17 26  1  0
 17 18  1  0
 19 13  1  0
 19 18  1  0
 20 13  2  0
 21 12  1  0
 21 22  1  0
 23 24  2  0
 24 43  1  0
 25 24  1  0
 25 28  1  0
 26 27  1  0
 26 23  1  0
 27 25  2  0
 28 29  1  0
 29 30  2  0
 31 34  1  0
 31 30  1  0
 32 31  2  0
 33 32  1  0
 33 28  2  0
 34 35  1  0
 35 36  1  0
 36 37  2  0
 38 37  1  0
 38 42  1  0
 39 38  2  0
 40 35  2  0
 40 39  1  0
 41 40  1  0
 43 44  1  0
 44 47  1  0
 44 46  1  0
 45 43  2  0
 48 23  1  0
 48 49  1  0
 50 48  1  0
 51 52  1  0
 51  4  1  0
 53 64  2  0
 54 52  1  0
 54 59  1  0
 55 63  1  0
 55 65  1  0
 56 62  1  0
 56 58  1  0
 57 63  1  0
 58 59  2  0
 58 57  1  0
 60 61  1  0
 60 54  2  0
 61 56  2  0
 62 55  1  0
 63 53  1  0
 65 67  2  0
 66 65  1  0
 68 66  1  0
 69 78  2  0
 69 74  1  0
 70 66  1  0
 70 74  1  0
 71 70  1  0
 72 73  1  0
 72 71  1  0
 73 69  1  0
 74 75  2  0
 75 76  1  0
 77 76  2  0
 78 77  1  0
 79 53  1  0
 79 80  1  0
 79 89  1  0
 80 83  1  0
 81 85  1  0
 81 80  1  0
 82 81  2  0
 85 84  1  0
 87 85  1  0
 87 88  1  0
 87 86  1  0
 89 92  1  1
 89 90  1  0
 91 89  1  0
M  ISO  4  13 100  21 100  51 101  52 101
M  END
>  <TORSDO>  (38) 
F 21

>  <SCORE>  (38) 
-12.527

>  <name>  (38) 
37

>  <ligand_id>  (38) 
37

>  <original_smiles>  (38) 
[H]c1c([H])c([H])c2c(c1[H])C([H])([H])C([H])([H])C([H])([H])C2([H])N([H])C(=O)C1([H])N(C(=O)C([H])(N([H])C(=O)C([H])(N([H])C([H])([H])[H])C([H])([H])[H])C(C([H])([H])[H])(C([H])([H])[H])C([H])([H])[H])C([H])([H])c2c([H])c(OC([H])([H])c3nc(C([H])([H])[H])c(C([H])([H])C([H])([H])C([H])([H])C([H])([H])N([H])C(=O)N4C([H])([H])C([H])([H])C([H])([H])C([H])(n5nc(-c6c([H])c([H])c(Oc7c([H])c([H])c(F)c([H])c7F)c([H])c6[H])c(C(=O)N([H])[H])c5N([H])[H])C4([H])[H])nc3C([H])([H])[H])c([H])c([H])c2C1([H])[H]

>  <smiles>  (38) 
[H]c1c([H])c([H])c2c(c1[H])C([H])([H])C([H])([H])C([H])([H])C2([H])N([H])C(=O)C1([H])N(C(=O)C([H])(N([H])C(=O)C([H])(N([H])C([H])([H])[H])C([H])([H])[H])C(C([H])([H])[H])(C([H])([H])[H])C([H])([H])[H])C([H])([H])c2c([H])c(OC([H])([H])c3nc(C([H])([H])[H])c(C([H])([H])C([H])([H])C([H])([H])C([H])([H])N([H])C(=O)N4C([H])([H])C([H])([H])C([H])([H])C([H])(n5nc(-c6c([H])c([H])c(Oc7c([H])c([H])c(F)c([H])c7F)c([H])c6[H])c(C(=O)N([H])[H])c5N([H])[H])C4([H])[H])nc3C([H])([H])[H])c([H])c([H])c2C1([H])[H]

$$$$
38:0:0
     RDKit          3D

 88 96  0  0  1  0  0  0  0  0999 V2000
  -28.4020  -22.4140   20.6620 C   0  0  0  0  0  3  0  0  0  0  0  0
  -30.0110  -23.5120   19.7570 C   0  0  0  0  0  3  0  0  0  0  0  0
  -29.4780  -21.5160   20.5500 C   0  0  0  0  0  0  0  0  0  0  0  0
  -30.5010  -22.2690   19.9560 N   0  0  0  0  0  0  0  0  0  0  0  0
  -28.7420  -23.7080   20.1530 N   0  0  0  0  0  0  0  0  0  0  0  0
  -29.7350  -20.0560   21.1240 C   0  0  0  0  0  3  0  0  0  0  0  0
  -29.6930  -18.6810   20.2670 C   0  0  0  0  0  3  0  0  0  0  0  0
  -30.3840  -17.3480   20.9040 C   0  0  0  0  0  2  0  0  0  0  0  0
  -30.6270  -14.7680   20.3510 C   0  0  0  0  0  0  0  0  0  0  0  0
  -30.3740  -12.4990   19.3180 C   0  0  0  0  0  2  0  0  0  0  0  0
  -29.4350  -12.5720   18.0950 C   0  0  0  0  0  2  0  0  0  0  0  0
  -27.9700  -12.3950   18.5380 C   0  0  0  0  0  2  0  0  0  0  0  0
  -27.6010  -13.2930   19.7470 C   0  0  0  0  0  3  0  0  0  0  0  0
  -28.6660  -13.2320   20.8640 C   0  0  0  0  0  2  0  0  0  0  0  0
  -29.9600  -13.5660   20.2580 N   0  0  0  0  0  0  0  0  0  0  0  0
  -31.8190  -14.8380   20.0460 O   0  0  0  0  0  0  0  0  0  0  0  0
  -29.9010  -15.9220   20.6020 N   0  0  0  0  0  0  0  0  0  0  0  0
  -28.9160  -15.7620   20.7400 H   0  0  0  0  0  0  0  0  0  0  0  0
  -25.2160  -13.8880   20.4770 C   0  0  0  0  0  0  0  0  0  0  0  0
  -24.1490  -13.1170   20.8520 C   0  0  0  0  0  0  0  0  0  0  0  0
  -24.6140  -11.7640   20.8320 C   0  0  0  0  0  0  0  0  0  0  0  0
  -26.2600  -13.0070   20.2440 N   0  0  0  0  0  0  0  0  0  0  0  0
  -25.9050  -11.7250   20.5220 N   0  0  0  0  0  0  0  0  0  0  0  0
  -23.8870  -10.5030   21.0270 C   0  0  0  0  0  0  0  0  0  0  0  0
  -24.3280   -9.5300   21.9520 C   0  0  0  0  0  3  0  0  0  0  0  0
  -23.5970   -8.3350   22.1370 C   0  0  0  0  0  3  0  0  0  0  0  0
  -22.4150   -8.1040   21.3950 C   0  0  0  0  0  0  0  0  0  0  0  0
  -21.9930   -9.0660   20.4610 C   0  0  0  0  0  3  0  0  0  0  0  0
  -22.7220  -10.2500   20.2750 C   0  0  0  0  0  3  0  0  0  0  0  0
  -21.6570   -6.9620   21.4890 O   0  0  0  0  0  0  0  0  0  0  0  0
  -21.6310   -6.2070   22.6340 C   0  0  0  0  0  0  0  0  0  0  0  0
  -21.2460   -6.7560   23.8770 C   0  0  0  0  0  3  0  0  0  0  0  0
  -21.1670   -5.9290   25.0160 C   0  0  0  0  0  3  0  0  0  0  0  0
  -21.4610   -4.5560   24.9120 C   0  0  0  0  0  0  0  0  0  0  0  0
  -21.8390   -4.0080   23.6730 C   0  0  0  0  0  3  0  0  0  0  0  0
  -21.9190   -4.8320   22.5380 C   0  0  0  0  0  0  0  0  0  0  0  0
  -22.2650   -4.2950   21.3430 F   0  0  0  0  0  0  0  0  0  0  0  0
  -21.3770   -3.7600   26.0040 F   0  0  0  0  0  0  0  0  0  0  0  0
  -22.7520  -13.5970   21.1160 C   0  0  0  0  0  0  0  0  0  0  0  0
  -22.0240  -12.9110   21.9870 N   0  0  0  0  0  0  0  0  0  0  0  0
  -22.3170  -14.6190   20.5840 O   0  0  0  0  0  0  0  0  0  0  0  0
  -22.3890  -12.0870   22.4420 H   0  0  0  0  0  0  0  0  0  0  0  0
  -21.0860  -13.2160   22.2070 H   0  0  0  0  0  0  0  0  0  0  0  0
  -25.3770  -15.2560   20.2900 N   0  0  0  0  0  0  0  0  0  0  0  0
  -24.5940  -15.8960   20.3740 H   0  0  0  0  0  0  0  0  0  0  0  0
  -26.2100  -15.6960   19.9200 H   0  0  0  0  0  0  0  0  0  0  0  0
  -27.8100  -24.8930   19.9100 C   0  0  0  0  0  2  0  0  0  0  0  0
  -28.2010  -26.2930   20.2210 O   0  0  0  0  0  0  0  0  0  0  0  0
  -24.6040  -31.8940   23.2360 C   0  0  0  0  0  0  0  0  0  0  0  0
  -27.1510  -27.2570   20.1570 C   0  0  0  0  0  0  0  0  0  0  0  0
  -23.3890  -30.5040   21.6050 C   0  0  0  0  0  3  0  0  0  0  0  0
  -24.8250  -28.9590   20.1620 C   0  0  0  0  0  0  0  0  0  0  0  0
  -25.9390  -30.7870   21.4190 C   0  0  0  0  0  2  0  0  0  0  0  0
  -26.0070  -29.4080   20.7650 C   0  0  0  0  0  0  0  0  0  0  0  0
  -27.1740  -28.5690   20.7560 C   0  0  0  0  0  3  0  0  0  0  0  0
  -25.9410  -26.9070   19.5060 C   0  0  0  0  0  3  0  0  0  0  0  0
  -24.7990  -27.7200   19.5180 C   0  0  0  0  0  3  0  0  0  0  0  0
  -23.5970  -29.8440   20.2190 C   0  0  0  0  0  2  0  0  0  0  0  0
  -24.6640  -31.0790   22.1440 N   0  0  0  0  0  0  0  0  0  0  0  0
  -23.5230  -32.1750   23.7750 O   0  0  0  0  0  0  0  0  0  0  0  0
  -22.7250  -29.4840   22.5640 C   0  0  0  0  0  0  0  0  0  0  0  0
  -21.3980  -29.3090   22.4410 N   0  0  0  0  0  0  0  0  0  0  0  0
  -23.4050  -28.8540   23.3790 O   0  0  0  0  0  0  0  0  0  0  0  0
  -20.9070  -29.8730   21.7600 H   0  0  0  0  0  0  0  0  0  0  0  0
  -18.0200  -28.1130   22.9500 C   0  0  0  0  0  0  0  0  0  0  0  0
  -20.5790  -28.3760   23.2170 C   0  0  0  0  0  3  0  0  0  0  0  0
  -20.6800  -26.9410   22.6470 C   0  0  0  0  0  2  0  0  0  0  0  0
  -19.5770  -26.6140   21.6360 C   0  0  0  0  0  2  0  0  0  0  0  0
  -18.1970  -26.7610   22.2810 C   0  0  0  0  0  2  0  0  0  0  0  0
  -19.1400  -28.8780   23.3760 C   0  0  0  0  0  0  0  0  0  0  0  0
  -18.9180  -30.1440   23.9620 C   0  0  0  0  0  3  0  0  0  0  0  0
  -17.6130  -30.6430   24.1270 C   0  0  0  0  0  3  0  0  0  0  0  0
  -16.5080  -29.8750   23.7170 C   0  0  0  0  0  3  0  0  0  0  0  0
  -16.7160  -28.6120   23.1320 C   0  0  0  0  0  3  0  0  0  0  0  0
  -25.8890  -32.5230   23.8520 C   0  0  0  0  0  3  0  0  0  0  0  0
  -26.4100  -31.7490   25.1250 C   0  0  1  0  0  0  0  0  0  0  0  0
  -25.3220  -31.5140   26.1970 C   0  0  0  0  0  1  0  0  0  0  0  0
  -26.9860  -30.3690   24.7300 C   0  0  0  0  0  1  0  0  0  0  0  0
  -27.5660  -32.5400   25.7810 C   0  0  0  0  0  1  0  0  0  0  0  0
  -25.5810  -33.9210   24.1860 N   0  0  0  0  0  0  0  0  0  0  0  0
  -25.9070  -34.9760   23.4270 C   0  0  0  0  0  0  0  0  0  0  0  0
  -26.5670  -34.8760   22.3900 O   0  0  0  0  0  0  0  0  0  0  0  0
  -24.9930  -34.0740   24.9920 H   0  0  0  0  0  0  0  0  0  0  0  0
  -24.1750  -36.7720   23.0960 C   0  0  0  0  0  1  0  0  0  0  0  0
  -25.4250  -36.3630   23.8930 C   0  0  0  0  0  3  0  0  0  0  0  0
  -27.5680  -37.2460   24.7020 C   0  0  0  0  0  1  0  0  0  0  0  0
  -26.4550  -37.4190   23.7730 N   0  0  0  0  0  0  0  0  0  0  0  0
  -26.0490  -38.3370   23.9300 H   0  0  0  0  0  0  0  0  0  0  0  0
  2  4  2  0
  2  5  1  0
  3  1  2  0
  3  6  1  0
  4  3  1  0
  5  1  1  0
  7  8  1  0
  7  6  2  0
  9 17  1  0
 10 15  1  0
 11 12  1  0
 11 10  1  0
 13 12  1  0
 13 22  1  0
 13 14  1  0
 15  9  1  0
 15 14  1  0
 16  9  2  0
 17 18  1  0
 17  8  1  0
 19 20  2  0
 20 39  1  0
 21 20  1  0
 21 24  1  0
 22 19  1  0
 22 23  1  0
 23 21  2  0
 24 25  1  0
 25 26  2  0
 27 30  1  0
 27 26  1  0
 28 27  2  0
 29 28  1  0
 29 24  2  0
 30 31  1  0
 31 32  1  0
 32 33  2  0
 34 33  1  0
 34 38  1  0
 35 34  2  0
 36 31  2  0
 36 35  1  0
 37 36  1  0
 39 40  1  0
 40 43  1  0
 40 42  1  0
 41 39  2  0
 44 45  1  0
 44 19  1  0
 46 44  1  0
 47  5  1  0
 47 48  1  0
 49 60  2  0
 50 48  1  0
 50 55  1  0
 51 59  1  0
 51 61  1  0
 52 58  1  0
 52 54  1  0
 53 59  1  0
 54 53  1  0
 55 54  2  0
 56 57  1  0
 56 50  2  0
 57 52  2  0
 58 51  1  0
 59 49  1  0
 61 63  2  0
 62 61  1  0
 64 62  1  0
 65 74  2  0
 65 70  1  0
 66 62  1  0
 66 70  1  0
 67 66  1  0
 68 69  1  0
 68 67  1  0
 69 65  1  0
 70 71  2  0
 71 72  1  0
 73 72  2  0
 74 73  1  0
 75 49  1  0
 75 80  1  0
 75 76  1  0
 76 79  1  1
 76 77  1  0
 78 76  1  0
 80 83  1  0
 81 85  1  0
 81 80  1  0
 82 81  2  0
 85 84  1  0
 87 85  1  0
 87 88  1  0
 87 86  1  0
M  ISO  4   9 100  17 100  47 101  48 101
M  END
>  <TORSDO>  (39) 
F 20

>  <SCORE>  (39) 
-13.659

>  <name>  (39) 
38

>  <ligand_id>  (39) 
38

>  <original_smiles>  (39) 
[H]c1c([H])c([H])c2c(c1[H])C([H])([H])C([H])([H])C([H])([H])C2([H])N([H])C(=O)C1([H])N(C(=O)C([H])(N([H])C(=O)C([H])(N([H])C([H])([H])[H])C([H])([H])[H])C(C([H])([H])[H])(C([H])([H])[H])C([H])([H])[H])C([H])([H])c2c([H])c(OC([H])([H])n3c([H])nc(C([H])([H])C([H])([H])C([H])([H])N([H])C(=O)N4C([H])([H])C([H])([H])C([H])([H])C([H])(n5nc(-c6c([H])c([H])c(Oc7c([H])c([H])c(F)c([H])c7F)c([H])c6[H])c(C(=O)N([H])[H])c5N([H])[H])C4([H])[H])c3[H])c([H])c([H])c2C1([H])[H]

>  <smiles>  (39) 
[H]c1c([H])c([H])c2c(c1[H])C([H])([H])C([H])([H])C([H])([H])C2([H])N([H])C(=O)C1([H])N(C(=O)C([H])(N([H])C(=O)C([H])(N([H])C([H])([H])[H])C([H])([H])[H])C(C([H])([H])[H])(C([H])([H])[H])C([H])([H])[H])C([H])([H])c2c([H])c(OC([H])([H])n3c([H])nc(C([H])([H])C([H])([H])C([H])([H])N([H])C(=O)N4C([H])([H])C([H])([H])C([H])([H])C([H])(n5nc(-c6c([H])c([H])c(Oc7c([H])c([H])c(F)c([H])c7F)c([H])c6[H])c(C(=O)N([H])[H])c5N([H])[H])C4([H])[H])c3[H])c([H])c([H])c2C1([H])[H]

$$$$
39:0:0
     RDKit          3D

 89 97  0  0  1  0  0  0  0  0999 V2000
  -30.0500  -23.3800   20.8870 C   0  0  0  0  0  3  0  0  0  0  0  0
  -28.4200  -21.8010   20.1200 C   0  0  0  0  0  3  0  0  0  0  0  0
  -28.7630  -23.2350   20.3350 C   0  0  0  0  0  0  0  0  0  0  0  0
  -30.8500  -22.2490   21.1890 C   0  0  0  0  0  0  0  0  0  0  0  0
  -29.2980  -20.6420   20.4350 C   0  0  0  0  0  0  0  0  0  0  0  0
  -32.2180  -22.4580   21.8030 C   0  0  0  0  0  1  0  0  0  0  0  0
  -30.4930  -20.9500   20.9860 N   0  0  0  0  0  0  0  0  0  0  0  0
  -27.8290  -24.5730   20.0290 C   0  0  0  0  0  2  0  0  0  0  0  0
  -28.1670  -26.0850   20.2820 O   0  0  0  0  0  0  0  0  0  0  0  0
  -24.6190  -31.8580   23.2500 C   0  0  0  0  0  0  0  0  0  0  0  0
  -27.1390  -27.1060   20.2020 C   0  0  0  0  0  0  0  0  0  0  0  0
  -23.4020  -30.4770   21.6130 C   0  0  0  0  0  3  0  0  0  0  0  0
  -24.8320  -28.8930   20.1790 C   0  0  0  0  0  0  0  0  0  0  0  0
  -25.9600  -30.7120   21.4430 C   0  0  0  0  0  2  0  0  0  0  0  0
  -26.0190  -29.3200   20.7870 C   0  0  0  0  0  0  0  0  0  0  0  0
  -27.1730  -28.4440   20.7820 C   0  0  0  0  0  3  0  0  0  0  0  0
  -25.9270  -26.7940   19.5470 C   0  0  0  0  0  3  0  0  0  0  0  0
  -24.8010  -27.6450   19.5420 C   0  0  0  0  0  3  0  0  0  0  0  0
  -23.6140  -29.8020   20.2320 C   0  0  0  0  0  2  0  0  0  0  0  0
  -24.6820  -31.0370   22.1560 N   0  0  0  0  0  0  0  0  0  0  0  0
  -23.5380  -32.1510   23.7810 O   0  0  0  0  0  0  0  0  0  0  0  0
  -22.7160  -29.4740   22.5750 C   0  0  0  0  0  0  0  0  0  0  0  0
  -21.3870  -29.3110   22.4490 N   0  0  0  0  0  0  0  0  0  0  0  0
  -23.3830  -28.8440   23.4000 O   0  0  0  0  0  0  0  0  0  0  0  0
  -20.9040  -29.8700   21.7590 H   0  0  0  0  0  0  0  0  0  0  0  0
  -17.9990  -28.1270   22.9500 C   0  0  0  0  0  0  0  0  0  0  0  0
  -20.5590  -28.3810   23.2210 C   0  0  0  0  0  3  0  0  0  0  0  0
  -20.6560  -26.9460   22.6530 C   0  0  0  0  0  2  0  0  0  0  0  0
  -19.5550  -26.6230   21.6370 C   0  0  0  0  0  2  0  0  0  0  0  0
  -18.1730  -26.7750   22.2770 C   0  0  0  0  0  2  0  0  0  0  0  0
  -19.1200  -28.8870   23.3780 C   0  0  0  0  0  0  0  0  0  0  0  0
  -18.9020  -30.1510   23.9690 C   0  0  0  0  0  3  0  0  0  0  0  0
  -17.5990  -30.6550   24.1330 C   0  0  0  0  0  3  0  0  0  0  0  0
  -16.4930  -29.8920   23.7190 C   0  0  0  0  0  3  0  0  0  0  0  0
  -16.6940  -28.6290   23.1330 C   0  0  0  0  0  3  0  0  0  0  0  0
  -25.9040  -32.4820   23.8740 C   0  0  0  0  0  3  0  0  0  0  0  0
  -26.4110  -31.7080   25.1540 C   0  0  1  0  0  0  0  0  0  0  0  0
  -25.3130  -31.4850   26.2220 C   0  0  0  0  0  1  0  0  0  0  0  0
  -26.9790  -30.3220   24.7710 C   0  0  0  0  0  1  0  0  0  0  0  0
  -27.5690  -32.4910   25.8150 C   0  0  0  0  0  1  0  0  0  0  0  0
  -25.6050  -33.8830   24.2100 N   0  0  0  0  0  0  0  0  0  0  0  0
  -25.9140  -34.9370   23.4430 C   0  0  0  0  0  0  0  0  0  0  0  0
  -26.5490  -34.8310   22.3910 O   0  0  0  0  0  0  0  0  0  0  0  0
  -25.0350  -34.0380   25.0290 H   0  0  0  0  0  0  0  0  0  0  0  0
  -24.1640  -36.7260   23.1710 C   0  0  0  0  0  1  0  0  0  0  0  0
  -25.4490  -36.3280   23.9170 C   0  0  0  0  0  3  0  0  0  0  0  0
  -27.6200  -37.2270   24.6310 C   0  0  0  0  0  1  0  0  0  0  0  0
  -26.4710  -37.3830   23.7430 N   0  0  0  0  0  0  0  0  0  0  0  0
  -26.0690  -38.3040   23.9030 H   0  0  0  0  0  0  0  0  0  0  0  0
  -28.9510  -19.0130   20.3860 C   0  0  0  0  0  3  0  0  0  0  0  0
  -30.0420  -17.7070   20.3200 C   0  0  0  0  0  3  0  0  0  0  0  0
  -30.4420  -14.9580   20.2720 C   0  0  0  0  0  0  0  0  0  0  0  0
  -30.3180  -12.5940   19.3530 C   0  0  0  0  0  2  0  0  0  0  0  0
  -29.3790  -12.5310   18.1270 C   0  0  0  0  0  2  0  0  0  0  0  0
  -27.9190  -12.3200   18.5690 C   0  0  0  0  0  2  0  0  0  0  0  0
  -27.5160  -13.2510   19.7430 C   0  0  0  0  0  3  0  0  0  0  0  0
  -28.5800  -13.2830   20.8610 C   0  0  0  0  0  2  0  0  0  0  0  0
  -29.8430  -13.6980   20.2370 N   0  0  0  0  0  0  0  0  0  0  0  0
  -31.6420  -15.0110   19.9840 O   0  0  0  0  0  0  0  0  0  0  0  0
  -29.6770  -16.1560   20.4220 N   0  0  0  0  0  0  0  0  0  0  0  0
  -28.7020  -15.9760   20.6110 H   0  0  0  0  0  0  0  0  0  0  0  0
  -25.1440  -13.8230   20.5140 C   0  0  0  0  0  0  0  0  0  0  0  0
  -24.0840  -13.0470   20.8900 C   0  0  0  0  0  0  0  0  0  0  0  0
  -24.5480  -11.6960   20.8450 C   0  0  0  0  0  0  0  0  0  0  0  0
  -26.1840  -12.9470   20.2550 N   0  0  0  0  0  0  0  0  0  0  0  0
  -25.8370  -11.6620   20.5220 N   0  0  0  0  0  0  0  0  0  0  0  0
  -23.8220  -10.4320   21.0340 C   0  0  0  0  0  0  0  0  0  0  0  0
  -24.2510   -9.4640   21.9670 C   0  0  0  0  0  3  0  0  0  0  0  0
  -23.5230   -8.2680   22.1440 C   0  0  0  0  0  3  0  0  0  0  0  0
  -22.3510   -8.0310   21.3880 C   0  0  0  0  0  0  0  0  0  0  0  0
  -21.9400   -8.9890   20.4440 C   0  0  0  0  0  3  0  0  0  0  0  0
  -22.6690  -10.1760   20.2640 C   0  0  0  0  0  3  0  0  0  0  0  0
  -21.5950   -6.8870   21.4740 O   0  0  0  0  0  0  0  0  0  0  0  0
  -21.5360   -6.1490   22.6290 C   0  0  0  0  0  0  0  0  0  0  0  0
  -21.0930   -6.7060   23.8480 C   0  0  0  0  0  3  0  0  0  0  0  0
  -20.9810   -5.8940   24.9940 C   0  0  0  0  0  3  0  0  0  0  0  0
  -21.3040   -4.5260   24.9220 C   0  0  0  0  0  0  0  0  0  0  0  0
  -21.7390   -3.9680   23.7070 C   0  0  0  0  0  3  0  0  0  0  0  0
  -21.8520   -4.7760   22.5630 C   0  0  0  0  0  0  0  0  0  0  0  0
  -22.2520   -4.2290   21.3900 F   0  0  0  0  0  0  0  0  0  0  0  0
  -21.1890   -3.7430   26.0210 F   0  0  0  0  0  0  0  0  0  0  0  0
  -22.6890  -13.5240   21.1740 C   0  0  0  0  0  0  0  0  0  0  0  0
  -21.9690  -12.8250   22.0440 N   0  0  0  0  0  0  0  0  0  0  0  0
  -22.2490  -14.5520   20.6610 O   0  0  0  0  0  0  0  0  0  0  0  0
  -22.3390  -11.9940   22.4820 H   0  0  0  0  0  0  0  0  0  0  0  0
  -21.0330  -13.1260   22.2760 H   0  0  0  0  0  0  0  0  0  0  0  0
  -25.3040  -15.1950   20.3410 N   0  0  0  0  0  0  0  0  0  0  0  0
  -24.5320  -15.8430   20.4580 H   0  0  0  0  0  0  0  0  0  0  0  0
  -26.1330  -15.6360   19.9640 H   0  0  0  0  0  0  0  0  0  0  0  0
  1  4  1  0
  2  3  1  0
  2  5  2  0
  3  1  2  0
  4  6  1  0
  5  7  1  0
  7  4  2  0
  8  9  1  0
  8  3  1  0
 10 21  2  0
 11  9  1  0
 11 16  1  0
 12 20  1  0
 12 22  1  0
 13 19  1  0
 13 15  1  0
 14 20  1  0
 15 14  1  0
 16 15  2  0
 17 11  2  0
 18 17  1  0
 18 13  2  0
 19 12  1  0
 20 10  1  0
 22 24  2  0
 23 22  1  0
 25 23  1  0
 26 35  2  0
 26 31  1  0
 27 23  1  0
 27 31  1  0
 28 27  1  0
 29 30  1  0
 29 28  1  0
 30 26  1  0
 31 32  2  0
 32 33  1  0
 34 33  2  0
 35 34  1  0
 36 10  1  0
 36 41  1  0
 36 37  1  0
 37 40  1  1
 37 38  1  0
 39 37  1  0
 41 44  1  0
 42 46  1  0
 42 41  1  0
 43 42  2  0
 46 45  1  0
 48 49  1  0
 48 46  1  0
 48 47  1  0
 50  5  1  0
 51 50  2  0
 51 60  1  0
 52 60  1  0
 53 58  1  0
 54 55  1  0
 54 53  1  0
 56 55  1  0
 56 65  1  0
 56 57  1  0
 58 52  1  0
 58 57  1  0
 59 52  2  0
 60 61  1  0
 62 63  2  0
 63 82  1  0
 64 63  1  0
 64 67  1  0
 65 62  1  0
 65 66  1  0
 66 64  2  0
 67 68  1  0
 68 69  2  0
 70 73  1  0
 70 69  1  0
 71 70  2  0
 72 71  1  0
 72 67  2  0
 73 74  1  0
 74 75  1  0
 75 76  2  0
 77 76  1  0
 77 81  1  0
 78 77  2  0
 79 74  2  0
 79 78  1  0
 80 79  1  0
 82 83  1  0
 83 86  1  0
 83 85  1  0
 84 82  2  0
 87 88  1  0
 87 62  1  0
 89 87  1  0
M  ISO  4   8 101   9 101  52 100  60 100
M  END
>  <TORSDO>  (40) 
F 19

>  <SCORE>  (40) 
-14.165

>  <name>  (40) 
39

>  <ligand_id>  (40) 
39

>  <original_smiles>  (40) 
[H]c1c([H])c([H])c2c(c1[H])C([H])([H])C([H])([H])C([H])([H])C2([H])N([H])C(=O)C1([H])N(C(=O)C([H])(N([H])C(=O)C([H])(N([H])C([H])([H])[H])C([H])([H])[H])C(C([H])([H])[H])(C([H])([H])[H])C([H])([H])[H])C([H])([H])c2c([H])c(OC([H])([H])c3c([H])c(C([H])([H])[H])nc(C([H])([H])C([H])([H])N([H])C(=O)N4C([H])([H])C([H])([H])C([H])([H])C([H])(n5nc(-c6c([H])c([H])c(Oc7c([H])c([H])c(F)c([H])c7F)c([H])c6[H])c(C(=O)N([H])[H])c5N([H])[H])C4([H])[H])c3[H])c([H])c([H])c2C1([H])[H]

>  <smiles>  (40) 
[H]c1c([H])c([H])c2c(c1[H])C([H])([H])C([H])([H])C([H])([H])C2([H])N([H])C(=O)C1([H])N(C(=O)C([H])(N([H])C(=O)C([H])(N([H])C([H])([H])[H])C([H])([H])[H])C(C([H])([H])[H])(C([H])([H])[H])C([H])([H])[H])C([H])([H])c2c([H])c(OC([H])([H])c3c([H])c(C([H])([H])[H])nc(C([H])([H])C([H])([H])N([H])C(=O)N4C([H])([H])C([H])([H])C([H])([H])C([H])(n5nc(-c6c([H])c([H])c(Oc7c([H])c([H])c(F)c([H])c7F)c([H])c6[H])c(C(=O)N([H])[H])c5N([H])[H])C4([H])[H])c3[H])c([H])c([H])c2C1([H])[H]

$$$$
40:0:0
     RDKit          3D

 94102  0  0  1  0  0  0  0  0999 V2000
  -29.1580  -20.2970   18.8760 C   0  0  0  0  0  0  0  0  0  0  0  0
  -29.3080  -19.7050   20.1580 C   0  0  0  0  0  0  0  0  0  0  0  0
  -28.7630  -21.7280   21.1480 C   0  0  0  0  0  0  0  0  0  0  0  0
  -28.5570  -22.3040   19.8620 C   0  0  0  0  0  0  0  0  0  0  0  0
  -29.3470  -19.5250   17.5850 C   0  0  0  0  0  1  0  0  0  0  0  0
  -28.7930  -21.5960   18.7310 N   0  0  0  0  0  0  0  0  0  0  0  0
  -29.1310  -20.4310   21.2830 N   0  0  0  0  0  0  0  0  0  0  0  0
  -29.4530  -22.2080   23.5870 C   0  0  0  0  0  1  0  0  0  0  0  0
  -28.4520  -22.4720   22.4440 C   0  0  0  0  0  2  0  0  0  0  0  0
  -29.6310  -18.2320   20.3890 C   0  0  0  0  0  2  0  0  0  0  0  0
  -31.1260  -17.9570   20.6590 C   0  0  0  0  0  2  0  0  0  0  0  0
  -31.4120  -16.7400   21.5670 C   0  0  0  0  0  2  0  0  0  0  0  0
  -31.2890  -14.6290   20.2210 C   0  0  0  0  0  0  0  0  0  0  0  0
  -30.8520  -12.5520   18.9620 C   0  0  0  0  0  2  0  0  0  0  0  0
  -29.8750  -12.8020   17.7980 C   0  0  0  0  0  2  0  0  0  0  0  0
  -28.4130  -12.7040   18.2720 C   0  0  0  0  0  2  0  0  0  0  0  0
  -28.1440  -13.5340   19.5540 C   0  0  0  0  0  3  0  0  0  0  0  0
  -29.2180  -13.2390   20.6250 C   0  0  0  0  0  2  0  0  0  0  0  0
  -30.5430  -13.5090   20.0340 N   0  0  0  0  0  0  0  0  0  0  0  0
  -32.3360  -14.8600   19.6100 O   0  0  0  0  0  0  0  0  0  0  0  0
  -30.7940  -15.4920   21.1170 N   0  0  0  0  0  0  0  0  0  0  0  0
  -29.9310  -15.2220   21.5690 H   0  0  0  0  0  0  0  0  0  0  0  0
  -25.8040  -14.2230   20.3810 C   0  0  0  0  0  0  0  0  0  0  0  0
  -24.7110  -13.4840   20.7530 C   0  0  0  0  0  0  0  0  0  0  0  0
  -25.1020  -12.1170   20.6350 C   0  0  0  0  0  0  0  0  0  0  0  0
  -26.7940  -13.3040   20.0670 N   0  0  0  0  0  0  0  0  0  0  0  0
  -26.3750  -12.0300   20.2740 N   0  0  0  0  0  0  0  0  0  0  0  0
  -24.3210  -10.8810   20.7900 C   0  0  0  0  0  0  0  0  0  0  0  0
  -24.7370   -9.8500   21.6590 C   0  0  0  0  0  3  0  0  0  0  0  0
  -23.9610   -8.6800   21.8040 C   0  0  0  0  0  3  0  0  0  0  0  0
  -22.7550   -8.5330   21.0770 C   0  0  0  0  0  0  0  0  0  0  0  0
  -22.3590   -9.5550   20.1940 C   0  0  0  0  0  3  0  0  0  0  0  0
  -23.1350  -10.7160   20.0480 C   0  0  0  0  0  3  0  0  0  0  0  0
  -21.9500   -7.4220   21.1340 O   0  0  0  0  0  0  0  0  0  0  0  0
  -21.8720   -6.6480   22.2640 C   0  0  0  0  0  0  0  0  0  0  0  0
  -21.4870   -7.1870   23.5120 C   0  0  0  0  0  3  0  0  0  0  0  0
  -21.3520   -6.3420   24.6320 C   0  0  0  0  0  3  0  0  0  0  0  0
  -21.5890   -4.9600   24.5070 C   0  0  0  0  0  0  0  0  0  0  0  0
  -21.9670   -4.4220   23.2650 C   0  0  0  0  0  3  0  0  0  0  0  0
  -22.1060   -5.2620   22.1450 C   0  0  0  0  0  0  0  0  0  0  0  0
  -22.4490   -4.7350   20.9450 F   0  0  0  0  0  0  0  0  0  0  0  0
  -21.4520   -4.1470   25.5810 F   0  0  0  0  0  0  0  0  0  0  0  0
  -23.3500  -14.0130   21.1040 C   0  0  0  0  0  0  0  0  0  0  0  0
  -22.6250  -13.3120   21.9690 N   0  0  0  0  0  0  0  0  0  0  0  0
  -22.9430  -15.0800   20.6490 O   0  0  0  0  0  0  0  0  0  0  0  0
  -22.9700  -12.4480   22.3600 H   0  0  0  0  0  0  0  0  0  0  0  0
  -21.7100  -13.6420   22.2410 H   0  0  0  0  0  0  0  0  0  0  0  0
  -26.0330  -15.5900   20.2670 N   0  0  0  0  0  0  0  0  0  0  0  0
  -25.3080  -16.2770   20.4390 H   0  0  0  0  0  0  0  0  0  0  0  0
  -26.8970  -15.9980   19.9350 H   0  0  0  0  0  0  0  0  0  0  0  0
  -27.9280  -23.6810   19.6740 C   0  0  0  0  0  2  0  0  0  0  0  0
  -28.7180  -24.8770   20.2540 C   0  0  0  0  0  2  0  0  0  0  0  0
  -29.2320  -25.8950   19.2040 C   0  0  0  0  0  2  0  0  0  0  0  0
  -29.0720  -27.2570   19.6270 O   0  0  0  0  0  0  0  0  0  0  0  0
  -24.6360  -31.5790   23.1380 C   0  0  0  0  0  0  0  0  0  0  0  0
  -27.8000  -27.8020   19.6660 C   0  0  0  0  0  0  0  0  0  0  0  0
  -23.5990  -30.1440   21.4130 C   0  0  0  0  0  3  0  0  0  0  0  0
  -25.2150  -28.9480   19.8490 C   0  0  0  0  0  0  0  0  0  0  0  0
  -26.0460  -30.8730   21.2100 C   0  0  0  0  0  2  0  0  0  0  0  0
  -26.3050  -29.5830   20.4570 C   0  0  0  0  0  0  0  0  0  0  0  0
  -27.5980  -29.0150   20.3650 C   0  0  0  0  0  3  0  0  0  0  0  0
  -26.6820  -27.1870   19.0490 C   0  0  0  0  0  3  0  0  0  0  0  0
  -25.3990  -27.7460   19.1470 C   0  0  0  0  0  3  0  0  0  0  0  0
  -23.8640  -29.6110   19.9830 C   0  0  0  0  0  2  0  0  0  0  0  0
  -24.7780  -30.8770   21.9770 N   0  0  0  0  0  0  0  0  0  0  0  0
  -23.5430  -31.6560   23.7140 O   0  0  0  0  0  0  0  0  0  0  0  0
  -23.1270  -28.9680   22.2990 C   0  0  0  0  0  0  0  0  0  0  0  0
  -21.8540  -28.5720   22.1370 N   0  0  0  0  0  0  0  0  0  0  0  0
  -23.9010  -28.4200   23.0880 O   0  0  0  0  0  0  0  0  0  0  0  0
  -21.2910  -29.0770   21.4680 H   0  0  0  0  0  0  0  0  0  0  0  0
  -18.7510  -26.7380   22.4230 C   0  0  0  0  0  0  0  0  0  0  0  0
  -21.1980  -27.4660   22.8330 C   0  0  0  0  0  3  0  0  0  0  0  0
  -21.6000  -26.1070   22.2180 C   0  0  0  0  0  2  0  0  0  0  0  0
  -20.6250  -25.6200   21.1420 C   0  0  0  0  0  2  0  0  0  0  0  0
  -19.2130  -25.4730   21.7190 C   0  0  0  0  0  2  0  0  0  0  0  0
  -19.6840  -27.6820   22.9310 C   0  0  0  0  0  0  0  0  0  0  0  0
  -19.2060  -28.8560   23.5500 C   0  0  0  0  0  3  0  0  0  0  0  0
  -17.8250  -29.0980   23.6630 C   0  0  0  0  0  3  0  0  0  0  0  0
  -16.9040  -28.1550   23.1720 C   0  0  0  0  0  3  0  0  0  0  0  0
  -17.3670  -26.9760   22.5590 C   0  0  0  0  0  3  0  0  0  0  0  0
  -25.8380  -32.3360   23.7840 C   0  0  0  0  0  3  0  0  0  0  0  0
  -25.3730  -33.6910   24.1060 N   0  0  0  0  0  0  0  0  0  0  0  0
  -25.6260  -34.7780   23.3650 C   0  0  0  0  0  0  0  0  0  0  0  0
  -26.3450  -34.7530   22.3620 O   0  0  0  0  0  0  0  0  0  0  0  0
  -24.7290  -33.7760   24.8800 H   0  0  0  0  0  0  0  0  0  0  0  0
  -23.7380  -36.3840   22.9550 C   0  0  0  0  0  1  0  0  0  0  0  0
  -24.9860  -36.1050   23.8070 C   0  0  0  0  0  3  0  0  0  0  0  0
  -26.9920  -37.1940   24.7130 C   0  0  0  0  0  1  0  0  0  0  0  0
  -25.9090  -37.2580   23.7340 N   0  0  0  0  0  0  0  0  0  0  0  0
  -25.4060  -38.1290   23.8780 H   0  0  0  0  0  0  0  0  0  0  0  0
  -26.4100  -31.6160   25.0660 C   0  0  1  0  0  0  0  0  0  0  0  0
  -25.3270  -31.2700   26.1160 C   0  0  0  0  0  1  0  0  0  0  0  0
  -27.1330  -30.3030   24.6800 C   0  0  0  0  0  1  0  0  0  0  0  0
  -27.4650  -32.5210   25.7460 C   0  0  0  0  0  1  0  0  0  0  0  0
  1  2  1  0
  2 10  1  0
  2  7  2  0
  3  7  1  0
  3  9  1  0
  4  3  2  0
  5  1  1  0
  6  1  2  0
  6  4  1  0
  9  8  1  0
 10 11  1  0
 11 12  1  0
 13 21  1  0
 14 19  1  0
 15 16  1  0
 15 14  1  0
 17 16  1  0
 17 26  1  0
 17 18  1  0
 19 13  1  0
 19 18  1  0
 20 13  2  0
 21 12  1  0
 21 22  1  0
 23 24  2  0
 24 43  1  0
 25 24  1  0
 25 28  1  0
 26 27  1  0
 26 23  1  0
 27 25  2  0
 28 29  1  0
 29 30  2  0
 31 34  1  0
 31 30  1  0
 32 31  2  0
 33 32  1  0
 33 28  2  0
 34 35  1  0
 35 36  1  0
 36 37  2  0
 38 37  1  0
 38 42  1  0
 39 38  2  0
 40 35  2  0
 40 39  1  0
 41 40  1  0
 43 44  1  0
 44 47  1  0
 44 46  1  0
 45 43  2  0
 48 23  1  0
 48 49  1  0
 50 48  1  0
 51  4  1  0
 51 52  1  0
 53 54  1  0
 53 52  1  0
 54 56  1  0
 55 66  2  0
 56 61  1  0
 57 65  1  0
 57 67  1  0
 58 64  1  0
 58 60  1  0
 59 65  1  0
 60 59  1  0
 61 60  2  0
 62 63  1  0
 62 56  2  0
 63 58  2  0
 64 57  1  0
 65 55  1  0
 67 69  2  0
 68 67  1  0
 70 68  1  0
 71 80  2  0
 71 76  1  0
 72 68  1  0
 72 76  1  0
 73 72  1  0
 74 75  1  0
 74 73  1  0
 75 71  1  0
 76 77  2  0
 77 78  1  0
 79 78  2  0
 80 79  1  0
 81 55  1  0
 81 82  1  0
 81 91  1  0
 82 85  1  0
 83 87  1  0
 83 82  1  0
 84 83  2  0
 87 86  1  0
 89 87  1  0
 89 90  1  0
 89 88  1  0
 91 94  1  1
 91 92  1  0
 93 91  1  0
M  ISO  4  13 100  21 100  53 101  54 101
M  END
>  <TORSDO>  (41) 
F 23

>  <SCORE>  (41) 
-10.712

>  <name>  (41) 
40

>  <ligand_id>  (41) 
40

>  <original_smiles>  (41) 
[H]c1c([H])c([H])c2c(c1[H])C([H])([H])C([H])([H])C([H])([H])C2([H])N([H])C(=O)C1([H])N(C(=O)C([H])(N([H])C(=O)C([H])(N([H])C([H])([H])[H])C([H])([H])[H])C(C([H])([H])[H])(C([H])([H])[H])C([H])([H])[H])C([H])([H])c2c([H])c(OC([H])([H])C([H])([H])C([H])([H])c3nc(C([H])([H])[H])c(C([H])([H])C([H])([H])C([H])([H])N([H])C(=O)N4C([H])([H])C([H])([H])C([H])([H])C([H])(n5nc(-c6c([H])c([H])c(Oc7c([H])c([H])c(F)c([H])c7F)c([H])c6[H])c(C(=O)N([H])[H])c5N([H])[H])C4([H])[H])nc3C([H])([H])C([H])([H])[H])c([H])c([H])c2C1([H])[H]

>  <smiles>  (41) 
[H]c1c([H])c([H])c2c(c1[H])C([H])([H])C([H])([H])C([H])([H])C2([H])N([H])C(=O)C1([H])N(C(=O)C([H])(N([H])C(=O)C([H])(N([H])C([H])([H])[H])C([H])([H])[H])C(C([H])([H])[H])(C([H])([H])[H])C([H])([H])[H])C([H])([H])c2c([H])c(OC([H])([H])C([H])([H])C([H])([H])c3nc(C([H])([H])[H])c(C([H])([H])C([H])([H])C([H])([H])N([H])C(=O)N4C([H])([H])C([H])([H])C([H])([H])C([H])(n5nc(-c6c([H])c([H])c(Oc7c([H])c([H])c(F)c([H])c7F)c([H])c6[H])c(C(=O)N([H])[H])c5N([H])[H])C4([H])[H])nc3C([H])([H])C([H])([H])[H])c([H])c([H])c2C1([H])[H]

$$$$
41:0:0
     RDKit          3D

 87 95  0  0  1  0  0  0  0  0999 V2000
  -27.9740  -19.7010   20.2480 C   0  0  0  0  0  3  0  0  0  0  0  0
  -29.3740  -19.3860   20.3460 C   0  0  0  0  0  0  0  0  0  0  0  0
  -27.6920  -21.0140   20.2420 N   0  0  0  0  0  0  0  0  0  0  0  0
  -29.9160  -20.6460   20.3940 N   0  0  0  0  0  0  0  0  0  0  0  0
  -28.8930  -21.6610   20.3170 N   0  0  0  0  0  0  0  0  0  0  0  0
  -30.2210  -17.9240   20.3570 C   0  0  0  0  0  2  0  0  0  0  0  0
  -30.5130  -15.1540   20.2870 C   0  0  0  0  0  0  0  0  0  0  0  0
  -30.3990  -12.7880   19.3280 C   0  0  0  0  0  2  0  0  0  0  0  0
  -29.4500  -12.7140   18.1090 C   0  0  0  0  0  2  0  0  0  0  0  0
  -27.9990  -12.4740   18.5650 C   0  0  0  0  0  2  0  0  0  0  0  0
  -27.5970  -13.3870   19.7520 C   0  0  0  0  0  3  0  0  0  0  0  0
  -28.6710  -13.4320   20.8600 C   0  0  0  0  0  2  0  0  0  0  0  0
  -29.9140  -13.8850   20.2250 N   0  0  0  0  0  0  0  0  0  0  0  0
  -31.7190  -15.1850   20.0120 O   0  0  0  0  0  0  0  0  0  0  0  0
  -29.7720  -16.3820   20.4430 N   0  0  0  0  0  0  0  0  0  0  0  0
  -28.7870  -16.2490   20.6200 H   0  0  0  0  0  0  0  0  0  0  0  0
  -25.2310  -13.9300   20.5450 C   0  0  0  0  0  0  0  0  0  0  0  0
  -24.1790  -13.1420   20.9210 C   0  0  0  0  0  0  0  0  0  0  0  0
  -24.6530  -11.7950   20.8640 C   0  0  0  0  0  0  0  0  0  0  0  0
  -26.2750  -13.0640   20.2740 N   0  0  0  0  0  0  0  0  0  0  0  0
  -25.9400  -11.7720   20.5330 N   0  0  0  0  0  0  0  0  0  0  0  0
  -23.9360  -10.5260   21.0470 C   0  0  0  0  0  0  0  0  0  0  0  0
  -24.3750   -9.5560   21.9750 C   0  0  0  0  0  3  0  0  0  0  0  0
  -23.6560   -8.3540   22.1470 C   0  0  0  0  0  3  0  0  0  0  0  0
  -22.4850   -8.1120   21.3920 C   0  0  0  0  0  0  0  0  0  0  0  0
  -22.0660   -9.0690   20.4520 C   0  0  0  0  0  3  0  0  0  0  0  0
  -22.7850  -10.2640   20.2780 C   0  0  0  0  0  3  0  0  0  0  0  0
  -21.7380   -6.9610   21.4730 O   0  0  0  0  0  0  0  0  0  0  0  0
  -21.6750   -6.2240   22.6280 C   0  0  0  0  0  0  0  0  0  0  0  0
  -21.1840   -6.7710   23.8340 C   0  0  0  0  0  3  0  0  0  0  0  0
  -21.0710   -5.9600   24.9810 C   0  0  0  0  0  3  0  0  0  0  0  0
  -21.4370   -4.6010   24.9220 C   0  0  0  0  0  0  0  0  0  0  0  0
  -21.9190   -4.0530   23.7200 C   0  0  0  0  0  3  0  0  0  0  0  0
  -22.0350   -4.8630   22.5770 C   0  0  0  0  0  0  0  0  0  0  0  0
  -22.4800   -4.3240   21.4160 F   0  0  0  0  0  0  0  0  0  0  0  0
  -21.3210   -3.8200   26.0210 F   0  0  0  0  0  0  0  0  0  0  0  0
  -22.7840  -13.6070   21.2160 C   0  0  0  0  0  0  0  0  0  0  0  0
  -22.0740  -12.8990   22.0900 N   0  0  0  0  0  0  0  0  0  0  0  0
  -22.3300  -14.6310   20.7090 O   0  0  0  0  0  0  0  0  0  0  0  0
  -22.4550  -12.0710   22.5220 H   0  0  0  0  0  0  0  0  0  0  0  0
  -21.1380  -13.1910   22.3280 H   0  0  0  0  0  0  0  0  0  0  0  0
  -25.3810  -15.3050   20.3810 N   0  0  0  0  0  0  0  0  0  0  0  0
  -24.6070  -15.9500   20.5030 H   0  0  0  0  0  0  0  0  0  0  0  0
  -26.2040  -15.7460   19.9930 H   0  0  0  0  0  0  0  0  0  0  0  0
  -29.0990  -23.2670   20.4300 C   0  0  0  0  0  3  0  0  0  0  0  0
  -28.0110  -24.5760   20.1460 C   0  0  0  0  0  3  0  0  0  0  0  0
  -28.2560  -26.1430   20.3180 O   0  0  0  0  0  0  0  0  0  0  0  0
  -24.6470  -31.9350   23.2640 C   0  0  0  0  0  0  0  0  0  0  0  0
  -27.2140  -27.1630   20.2470 C   0  0  0  0  0  0  0  0  0  0  0  0
  -23.4510  -30.5450   21.6170 C   0  0  0  0  0  3  0  0  0  0  0  0
  -24.9010  -28.9580   20.1980 C   0  0  0  0  0  0  0  0  0  0  0  0
  -26.0110  -30.7860   21.4710 C   0  0  0  0  0  2  0  0  0  0  0  0
  -26.0820  -29.3890   20.8150 C   0  0  0  0  0  0  0  0  0  0  0  0
  -27.2370  -28.5090   20.8180 C   0  0  0  0  0  3  0  0  0  0  0  0
  -26.0060  -26.8480   19.5890 C   0  0  0  0  0  3  0  0  0  0  0  0
  -24.8800  -27.7040   19.5670 C   0  0  0  0  0  3  0  0  0  0  0  0
  -23.6790  -29.8650   20.2410 C   0  0  0  0  0  2  0  0  0  0  0  0
  -24.7240  -31.1110   22.1720 N   0  0  0  0  0  0  0  0  0  0  0  0
  -23.5580  -32.2240   23.7850 O   0  0  0  0  0  0  0  0  0  0  0  0
  -22.7590  -29.5440   22.5770 C   0  0  0  0  0  0  0  0  0  0  0  0
  -21.4310  -29.3750   22.4400 N   0  0  0  0  0  0  0  0  0  0  0  0
  -23.4210  -28.9200   23.4100 O   0  0  0  0  0  0  0  0  0  0  0  0
  -20.9530  -29.9290   21.7440 H   0  0  0  0  0  0  0  0  0  0  0  0
  -18.0440  -28.1790   22.9210 C   0  0  0  0  0  0  0  0  0  0  0  0
  -20.6020  -28.4400   23.2060 C   0  0  0  0  0  3  0  0  0  0  0  0
  -20.7060  -27.0060   22.6320 C   0  0  0  0  0  2  0  0  0  0  0  0
  -19.6100  -26.6850   21.6100 C   0  0  0  0  0  2  0  0  0  0  0  0
  -18.2250  -26.8310   22.2430 C   0  0  0  0  0  2  0  0  0  0  0  0
  -19.1610  -28.9410   23.3580 C   0  0  0  0  0  0  0  0  0  0  0  0
  -18.9360  -30.2020   23.9530 C   0  0  0  0  0  3  0  0  0  0  0  0
  -17.6300  -30.7000   24.1140 C   0  0  0  0  0  3  0  0  0  0  0  0
  -16.5290  -29.9360   23.6920 C   0  0  0  0  0  3  0  0  0  0  0  0
  -16.7360  -28.6760   23.1020 C   0  0  0  0  0  3  0  0  0  0  0  0
  -25.9220  -32.5660   23.9010 C   0  0  0  0  0  3  0  0  0  0  0  0
  -26.4170  -31.7990   25.1890 C   0  0  1  0  0  0  0  0  0  0  0  0
  -25.3090  -31.5720   26.2440 C   0  0  0  0  0  1  0  0  0  0  0  0
  -26.9990  -30.4160   24.8180 C   0  0  0  0  0  1  0  0  0  0  0  0
  -27.5620  -32.5910   25.8630 C   0  0  0  0  0  1  0  0  0  0  0  0
  -25.6130  -33.9680   24.2300 N   0  0  0  0  0  0  0  0  0  0  0  0
  -25.9290  -35.0220   23.4650 C   0  0  0  0  0  0  0  0  0  0  0  0
  -26.5760  -34.9170   22.4200 O   0  0  0  0  0  0  0  0  0  0  0  0
  -25.0350  -34.1230   25.0430 H   0  0  0  0  0  0  0  0  0  0  0  0
  -24.1830  -36.8110   23.1650 C   0  0  0  0  0  1  0  0  0  0  0  0
  -25.4540  -36.4130   23.9320 C   0  0  0  0  0  3  0  0  0  0  0  0
  -27.6090  -37.3190   24.6890 C   0  0  0  0  0  1  0  0  0  0  0  0
  -26.4780  -37.4700   23.7760 N   0  0  0  0  0  0  0  0  0  0  0  0
  -26.0720  -38.3900   23.9220 H   0  0  0  0  0  0  0  0  0  0  0  0
  1  2  1  0
  2  6  1  0
  2  4  2  0
  3  1  2  0
  3  5  1  0
  5  4  1  0
  5 45  1  0
  6 15  1  0
  7 15  1  0
  8 13  1  0
  9 10  1  0
  9  8  1  0
 11 10  1  0
 11 20  1  0
 11 12  1  0
 13  7  1  0
 13 12  1  0
 14  7  2  0
 15 16  1  0
 17 18  2  0
 18 37  1  0
 19 18  1  0
 19 22  1  0
 20 21  1  0
 20 17  1  0
 21 19  2  0
 22 23  1  0
 23 24  2  0
 25 28  1  0
 25 24  1  0
 26 25  2  0
 27 26  1  0
 27 22  2  0
 28 29  1  0
 29 30  1  0
 30 31  2  0
 32 31  1  0
 32 36  1  0
 33 32  2  0
 34 29  2  0
 34 33  1  0
 35 34  1  0
 37 38  1  0
 38 41  1  0
 38 40  1  0
 39 37  2  0
 42 43  1  0
 42 17  1  0
 44 42  1  0
 46 47  1  0
 46 45  2  0
 48 59  2  0
 49 47  1  0
 49 54  1  0
 50 58  1  0
 50 60  1  0
 51 57  1  0
 51 53  1  0
 52 58  1  0
 53 54  2  0
 53 52  1  0
 55 49  2  0
 56 55  1  0
 56 51  2  0
 57 50  1  0
 58 48  1  0
 60 62  2  0
 61 60  1  0
 63 61  1  0
 64 73  2  0
 64 69  1  0
 65 61  1  0
 65 69  1  0
 66 65  1  0
 67 68  1  0
 67 66  1  0
 68 64  1  0
 69 70  2  0
 70 71  1  0
 72 71  2  0
 73 72  1  0
 74 48  1  0
 74 79  1  0
 74 75  1  0
 75 78  1  1
 75 76  1  0
 77 75  1  0
 79 82  1  0
 80 84  1  0
 80 79  1  0
 81 80  2  0
 84 83  1  0
 86 87  1  0
 86 84  1  0
 86 85  1  0
M  ISO  4   7 100  15 100  46 101  47 101
M  END
>  <TORSDO>  (42) 
F 19

>  <SCORE>  (42) 
-14.833

>  <name>  (42) 
41

>  <ligand_id>  (42) 
41

>  <original_smiles>  (42) 
[H]c1nn(C([H])([H])C([H])([H])Oc2c([H])c([H])c3c(c2[H])C([H])([H])N(C(=O)C([H])(N([H])C(=O)C([H])(N([H])C([H])([H])[H])C([H])([H])[H])C(C([H])([H])[H])(C([H])([H])[H])C([H])([H])[H])C([H])(C(=O)N([H])C2([H])c4c([H])c([H])c([H])c([H])c4C([H])([H])C([H])([H])C2([H])[H])C3([H])[H])nc1C([H])([H])N([H])C(=O)N1C([H])([H])C([H])([H])C([H])([H])C([H])(n2nc(-c3c([H])c([H])c(Oc4c([H])c([H])c(F)c([H])c4F)c([H])c3[H])c(C(=O)N([H])[H])c2N([H])[H])C1([H])[H]

>  <smiles>  (42) 
[H]c1nn(C([H])([H])C([H])([H])Oc2c([H])c([H])c3c(c2[H])C([H])([H])N(C(=O)C([H])(N([H])C(=O)C([H])(N([H])C([H])([H])[H])C([H])([H])[H])C(C([H])([H])[H])(C([H])([H])[H])C([H])([H])[H])C([H])(C(=O)N([H])C2([H])c4c([H])c([H])c([H])c([H])c4C([H])([H])C([H])([H])C2([H])[H])C3([H])[H])nc1C([H])([H])N([H])C(=O)N1C([H])([H])C([H])([H])C([H])([H])C([H])(n2nc(-c3c([H])c([H])c(Oc4c([H])c([H])c(F)c([H])c4F)c([H])c3[H])c(C(=O)N([H])[H])c2N([H])[H])C1([H])[H]

$$$$
42:0:0
     RDKit          3D

 91 99  0  0  1  0  0  0  0  0999 V2000
  -28.7100  -21.8470   19.5540 C   0  0  0  0  0  0  0  0  0  0  0  0
  -29.0870  -23.0320   21.9390 C   0  0  0  0  0  0  0  0  0  0  0  0
  -29.0330  -21.0390   20.6930 C   0  0  0  0  0  0  0  0  0  0  0  0
  -28.7550  -23.8530   20.8100 C   0  0  0  0  0  0  0  0  0  0  0  0
  -28.4200  -21.1960   18.2170 C   0  0  0  0  0  1  0  0  0  0  0  0
  -29.1690  -23.5810   23.3530 C   0  0  0  0  0  1  0  0  0  0  0  0
  -29.2490  -21.6760   21.8690 N   0  0  0  0  0  0  0  0  0  0  0  0
  -28.5870  -23.2240   19.6050 N   0  0  0  0  0  0  0  0  0  0  0  0
  -28.9220  -19.4610   20.7840 C   0  0  0  0  0  2  0  0  0  0  0  0
  -30.0260  -18.4810   20.1890 C   0  0  0  0  0  2  0  0  0  0  0  0
  -30.4620  -17.1640   20.9960 C   0  0  0  0  0  2  0  0  0  0  0  0
  -30.7660  -14.6870   20.2420 C   0  0  0  0  0  0  0  0  0  0  0  0
  -30.5090  -12.4640   19.1490 C   0  0  0  0  0  2  0  0  0  0  0  0
  -29.5440  -12.5930   17.9510 C   0  0  0  0  0  2  0  0  0  0  0  0
  -28.0790  -12.4400   18.4090 C   0  0  0  0  0  2  0  0  0  0  0  0
  -27.7470  -13.3060   19.6550 C   0  0  0  0  0  3  0  0  0  0  0  0
  -28.8230  -13.1480   20.7490 C   0  0  0  0  0  2  0  0  0  0  0  0
  -30.1180  -13.4850   20.1410 N   0  0  0  0  0  0  0  0  0  0  0  0
  -31.9400  -14.8120   19.8820 O   0  0  0  0  0  0  0  0  0  0  0  0
  -30.0120  -15.7790   20.5980 N   0  0  0  0  0  0  0  0  0  0  0  0
  -29.0470  -15.5620   20.8000 H   0  0  0  0  0  0  0  0  0  0  0  0
  -25.3730  -13.9240   20.4150 C   0  0  0  0  0  0  0  0  0  0  0  0
  -24.3080  -13.1600   20.8050 C   0  0  0  0  0  0  0  0  0  0  0  0
  -24.7610  -11.8060   20.7700 C   0  0  0  0  0  0  0  0  0  0  0  0
  -26.4080  -13.0350   20.1650 N   0  0  0  0  0  0  0  0  0  0  0  0
  -26.0440  -11.7550   20.4400 N   0  0  0  0  0  0  0  0  0  0  0  0
  -24.0280  -10.5490   20.9740 C   0  0  0  0  0  0  0  0  0  0  0  0
  -24.4660   -9.5810   21.9040 C   0  0  0  0  0  3  0  0  0  0  0  0
  -23.7350   -8.3880   22.0960 C   0  0  0  0  0  3  0  0  0  0  0  0
  -22.5510   -8.1570   21.3570 C   0  0  0  0  0  0  0  0  0  0  0  0
  -22.1300   -9.1130   20.4140 C   0  0  0  0  0  3  0  0  0  0  0  0
  -22.8630  -10.2960   20.2210 C   0  0  0  0  0  3  0  0  0  0  0  0
  -21.7880   -7.0180   21.4590 O   0  0  0  0  0  0  0  0  0  0  0  0
  -21.7460   -6.2800   22.6140 C   0  0  0  0  0  0  0  0  0  0  0  0
  -21.3440   -6.8450   23.8450 C   0  0  0  0  0  3  0  0  0  0  0  0
  -21.2480   -6.0330   24.9930 C   0  0  0  0  0  3  0  0  0  0  0  0
  -21.5470   -4.6590   24.9130 C   0  0  0  0  0  0  0  0  0  0  0  0
  -21.9410   -4.0950   23.6880 C   0  0  0  0  0  3  0  0  0  0  0  0
  -22.0390   -4.9040   22.5410 C   0  0  0  0  0  0  0  0  0  0  0  0
  -22.3990   -4.3510   21.3580 F   0  0  0  0  0  0  0  0  0  0  0  0
  -21.4480   -3.8770   26.0120 F   0  0  0  0  0  0  0  0  0  0  0  0
  -22.9190  -13.6480   21.0960 C   0  0  0  0  0  0  0  0  0  0  0  0
  -22.1980  -12.9600   21.9750 N   0  0  0  0  0  0  0  0  0  0  0  0
  -22.4800  -14.6750   20.5800 O   0  0  0  0  0  0  0  0  0  0  0  0
  -22.5640  -12.1280   22.4130 H   0  0  0  0  0  0  0  0  0  0  0  0
  -21.2640  -13.2680   22.2110 H   0  0  0  0  0  0  0  0  0  0  0  0
  -25.5450  -15.2940   20.2300 N   0  0  0  0  0  0  0  0  0  0  0  0
  -24.7790  -15.9490   20.3420 H   0  0  0  0  0  0  0  0  0  0  0  0
  -26.3900  -15.7290   19.8830 H   0  0  0  0  0  0  0  0  0  0  0  0
  -28.3750  -25.3800   21.0330 C   0  0  0  0  0  2  0  0  0  0  0  0
  -28.5280  -26.4580   20.0270 O   0  0  0  0  0  0  0  0  0  0  0  0
  -24.6760  -31.7380   23.1180 C   0  0  0  0  0  0  0  0  0  0  0  0
  -27.4370  -27.3340   19.9850 C   0  0  0  0  0  0  0  0  0  0  0  0
  -23.5210  -30.3220   21.4530 C   0  0  0  0  0  3  0  0  0  0  0  0
  -25.0250  -28.8570   19.9920 C   0  0  0  0  0  0  0  0  0  0  0  0
  -26.0440  -30.7480   21.2630 C   0  0  0  0  0  2  0  0  0  0  0  0
  -26.1770  -29.3830   20.5960 C   0  0  0  0  0  0  0  0  0  0  0  0
  -27.3910  -28.6320   20.5860 C   0  0  0  0  0  3  0  0  0  0  0  0
  -26.2690  -26.8650   19.3520 C   0  0  0  0  0  3  0  0  0  0  0  0
  -25.0740  -27.6050   19.3570 C   0  0  0  0  0  3  0  0  0  0  0  0
  -23.7580  -29.6820   20.0590 C   0  0  0  0  0  2  0  0  0  0  0  0
  -24.7660  -30.9540   22.0020 N   0  0  0  0  0  0  0  0  0  0  0  0
  -23.5870  -31.9590   23.6650 O   0  0  0  0  0  0  0  0  0  0  0  0
  -22.9010  -29.2650   22.3970 C   0  0  0  0  0  0  0  0  0  0  0  0
  -21.5850  -29.0330   22.2680 N   0  0  0  0  0  0  0  0  0  0  0  0
  -23.6070  -28.6570   23.2080 O   0  0  0  0  0  0  0  0  0  0  0  0
  -21.0720  -29.5730   21.5860 H   0  0  0  0  0  0  0  0  0  0  0  0
  -18.2650  -27.6680   22.7320 C   0  0  0  0  0  0  0  0  0  0  0  0
  -20.8070  -28.0510   23.0270 C   0  0  0  0  0  3  0  0  0  0  0  0
  -20.9860  -26.6300   22.4440 C   0  0  0  0  0  2  0  0  0  0  0  0
  -19.9090  -26.2620   21.4160 C   0  0  0  0  0  2  0  0  0  0  0  0
  -18.5150  -26.3360   22.0460 C   0  0  0  0  0  2  0  0  0  0  0  0
  -19.3420  -28.4820   23.1780 C   0  0  0  0  0  0  0  0  0  0  0  0
  -19.0550  -29.7270   23.7750 C   0  0  0  0  0  3  0  0  0  0  0  0
  -17.7260  -30.1630   23.9330 C   0  0  0  0  0  3  0  0  0  0  0  0
  -16.6650  -29.3470   23.5030 C   0  0  0  0  0  3  0  0  0  0  0  0
  -16.9360  -28.1010   22.9090 C   0  0  0  0  0  3  0  0  0  0  0  0
  -25.9380  -32.4080   23.7450 C   0  0  0  0  0  3  0  0  0  0  0  0
  -26.4930  -31.6310   25.0010 C   0  0  1  0  0  0  0  0  0  0  0  0
  -25.4180  -31.3340   26.0710 C   0  0  0  0  0  1  0  0  0  0  0  0
  -27.1210  -30.2840   24.5770 C   0  0  0  0  0  1  0  0  0  0  0  0
  -27.6210  -32.4500   25.6720 C   0  0  0  0  0  1  0  0  0  0  0  0
  -25.5790  -33.7880   24.1080 N   0  0  0  0  0  0  0  0  0  0  0  0
  -25.8590  -34.8670   23.3680 C   0  0  0  0  0  0  0  0  0  0  0  0
  -26.5170  -34.8140   22.3250 O   0  0  0  0  0  0  0  0  0  0  0  0
  -25.0080  -33.9030   24.9320 H   0  0  0  0  0  0  0  0  0  0  0  0
  -24.0530  -36.5880   23.0640 C   0  0  0  0  0  1  0  0  0  0  0  0
  -25.3180  -36.2240   23.8570 C   0  0  0  0  0  3  0  0  0  0  0  0
  -27.4210  -37.1780   24.6880 C   0  0  0  0  0  1  0  0  0  0  0  0
  -26.3020  -37.3220   23.7590 N   0  0  0  0  0  0  0  0  0  0  0  0
  -25.8580  -38.2190   23.9370 H   0  0  0  0  0  0  0  0  0  0  0  0
  1  8  2  0
  1  3  1  0
  2  6  1  0
  3  9  1  0
  3  7  2  0
  4 50  1  0
  4  2  2  0
  5  1  1  0
  7  2  1  0
  8  4  1  0
 10  9  1  0
 10 11  1  0
 12 20  1  0
 13 18  1  0
 14 15  1  0
 14 13  1  0
 16 15  1  0
 16 25  1  0
 16 17  1  0
 18 12  1  0
 18 17  1  0
 19 12  2  0
 20 21  1  0
 20 11  1  0
 22 23  2  0
 23 42  1  0
 24 23  1  0
 24 27  1  0
 25 22  1  0
 25 26  1  0
 26 24  2  0
 27 28  1  0
 28 29  2  0
 30 33  1  0
 30 29  1  0
 31 30  2  0
 32 31  1  0
 32 27  2  0
 33 34  1  0
 34 35  1  0
 35 36  2  0
 37 36  1  0
 37 41  1  0
 38 37  2  0
 39 34  2  0
 39 38  1  0
 40 39  1  0
 42 43  1  0
 43 46  1  0
 43 45  1  0
 44 42  2  0
 47 48  1  0
 47 22  1  0
 49 47  1  0
 51 50  1  0
 52 63  2  0
 53 51  1  0
 53 58  1  0
 54 62  1  0
 54 64  1  0
 55 61  1  0
 55 57  1  0
 56 62  1  0
 57 56  1  0
 58 57  2  0
 59 60  1  0
 59 53  2  0
 60 55  2  0
 61 54  1  0
 62 52  1  0
 64 66  2  0
 65 64  1  0
 67 65  1  0
 68 77  2  0
 68 73  1  0
 69 65  1  0
 69 73  1  0
 70 69  1  0
 71 72  1  0
 71 70  1  0
 72 68  1  0
 73 74  2  0
 74 75  1  0
 76 75  2  0
 77 76  1  0
 78 52  1  0
 78 83  1  0
 78 79  1  0
 79 82  1  1
 79 80  1  0
 81 79  1  0
 83 86  1  0
 84 88  1  0
 84 83  1  0
 85 84  2  0
 88 87  1  0
 90 88  1  0
 90 91  1  0
 90 89  1  0
M  ISO  4  12 100  20 100  50 101  51 101
M  END
>  <TORSDO>  (43) 
F 20

>  <SCORE>  (43) 
-13.325

>  <name>  (43) 
42

>  <ligand_id>  (43) 
42

>  <original_smiles>  (43) 
[H]c1c([H])c([H])c2c(c1[H])C([H])([H])C([H])([H])C([H])([H])C2([H])N([H])C(=O)C1([H])N(C(=O)C([H])(N([H])C(=O)C([H])(N([H])C([H])([H])[H])C([H])([H])[H])C(C([H])([H])[H])(C([H])([H])[H])C([H])([H])[H])C([H])([H])c2c([H])c(OC([H])([H])c3nc(C([H])([H])[H])c(C([H])([H])C([H])([H])C([H])([H])N([H])C(=O)N4C([H])([H])C([H])([H])C([H])([H])C([H])(n5nc(-c6c([H])c([H])c(Oc7c([H])c([H])c(F)c([H])c7F)c([H])c6[H])c(C(=O)N([H])[H])c5N([H])[H])C4([H])[H])nc3C([H])([H])[H])c([H])c([H])c2C1([H])[H]

>  <smiles>  (43) 
[H]c1c([H])c([H])c2c(c1[H])C([H])([H])C([H])([H])C([H])([H])C2([H])N([H])C(=O)C1([H])N(C(=O)C([H])(N([H])C(=O)C([H])(N([H])C([H])([H])[H])C([H])([H])[H])C(C([H])([H])[H])(C([H])([H])[H])C([H])([H])[H])C([H])([H])c2c([H])c(OC([H])([H])c3nc(C([H])([H])[H])c(C([H])([H])C([H])([H])C([H])([H])N([H])C(=O)N4C([H])([H])C([H])([H])C([H])([H])C([H])(n5nc(-c6c([H])c([H])c(Oc7c([H])c([H])c(F)c([H])c7F)c([H])c6[H])c(C(=O)N([H])[H])c5N([H])[H])C4([H])[H])nc3C([H])([H])[H])c([H])c([H])c2C1([H])[H]

$$$$
43:0:0
     RDKit          3D

 90 98  0  0  1  0  0  0  0  0999 V2000
  -28.6880  -23.6930   20.3690 C   0  0  0  0  0  0  0  0  0  0  0  0
  -28.9930  -23.2030   19.0600 C   0  0  0  0  0  0  0  0  0  0  0  0
  -28.9520  -22.5460   21.1260 C   0  0  0  0  0  0  0  0  0  0  0  0
  -28.9020  -23.9580   17.7660 C   0  0  0  0  0  1  0  0  0  0  0  0
  -28.8420  -22.3790   22.6070 C   0  0  0  0  0  1  0  0  0  0  0  0
  -29.4090  -21.9220   19.0400 N   0  0  0  0  0  0  0  0  0  0  0  0
  -29.3920  -21.4650   20.3180 N   0  0  0  0  0  0  0  0  0  0  0  0
  -28.0930  -25.0950   20.8570 C   0  0  0  0  0  2  0  0  0  0  0  0
  -28.3630  -26.4110   20.1890 O   0  0  0  0  0  0  0  0  0  0  0  0
  -24.5990  -31.8700   23.1850 C   0  0  0  0  0  0  0  0  0  0  0  0
  -27.2790  -27.3160   20.1520 C   0  0  0  0  0  0  0  0  0  0  0  0
  -23.4240  -30.4620   21.5340 C   0  0  0  0  0  3  0  0  0  0  0  0
  -24.9060  -28.9290   20.1120 C   0  0  0  0  0  0  0  0  0  0  0  0
  -25.9650  -30.8020   21.3730 C   0  0  0  0  0  2  0  0  0  0  0  0
  -26.0670  -29.4220   20.7240 C   0  0  0  0  0  0  0  0  0  0  0  0
  -27.2600  -28.6280   20.7320 C   0  0  0  0  0  3  0  0  0  0  0  0
  -26.0990  -26.8930   19.5030 C   0  0  0  0  0  3  0  0  0  0  0  0
  -24.9270  -27.6720   19.4900 C   0  0  0  0  0  3  0  0  0  0  0  0
  -23.6580  -29.7920   20.1540 C   0  0  0  0  0  2  0  0  0  0  0  0
  -24.6820  -31.0620   22.0880 N   0  0  0  0  0  0  0  0  0  0  0  0
  -23.5090  -32.1340   23.7130 O   0  0  0  0  0  0  0  0  0  0  0  0
  -22.7640  -29.4380   22.4880 C   0  0  0  0  0  0  0  0  0  0  0  0
  -21.4380  -29.2560   22.3620 N   0  0  0  0  0  0  0  0  0  0  0  0
  -23.4460  -28.8080   23.3020 O   0  0  0  0  0  0  0  0  0  0  0  0
  -20.9470  -29.8150   21.6780 H   0  0  0  0  0  0  0  0  0  0  0  0
  -18.0650  -28.0500   22.8680 C   0  0  0  0  0  0  0  0  0  0  0  0
  -20.6240  -28.3100   23.1270 C   0  0  0  0  0  3  0  0  0  0  0  0
  -20.7250  -26.8840   22.5380 C   0  0  0  0  0  2  0  0  0  0  0  0
  -19.6180  -26.5700   21.5250 C   0  0  0  0  0  2  0  0  0  0  0  0
  -18.2390  -26.7070   22.1780 C   0  0  0  0  0  2  0  0  0  0  0  0
  -19.1840  -28.8090   23.2990 C   0  0  0  0  0  0  0  0  0  0  0  0
  -18.9660  -30.0650   23.9060 C   0  0  0  0  0  3  0  0  0  0  0  0
  -17.6620  -30.5630   24.0830 C   0  0  0  0  0  3  0  0  0  0  0  0
  -16.5560  -29.8000   23.6670 C   0  0  0  0  0  3  0  0  0  0  0  0
  -16.7580  -28.5450   23.0660 C   0  0  0  0  0  3  0  0  0  0  0  0
  -25.8690  -32.5180   23.8180 C   0  0  0  0  0  3  0  0  0  0  0  0
  -26.3880  -31.7460   25.0940 C   0  0  1  0  0  0  0  0  0  0  0  0
  -25.2910  -31.4870   26.1540 C   0  0  0  0  0  1  0  0  0  0  0  0
  -26.9930  -30.3790   24.6990 C   0  0  0  0  0  1  0  0  0  0  0  0
  -27.5230  -32.5530   25.7670 C   0  0  0  0  0  1  0  0  0  0  0  0
  -25.5380  -33.9100   24.1570 N   0  0  0  0  0  0  0  0  0  0  0  0
  -25.8600  -34.9730   23.4080 C   0  0  0  0  0  0  0  0  0  0  0  0
  -26.5370  -34.8860   22.3800 O   0  0  0  0  0  0  0  0  0  0  0  0
  -24.9370  -34.0490   24.9560 H   0  0  0  0  0  0  0  0  0  0  0  0
  -24.1190  -36.7530   23.0520 C   0  0  0  0  0  1  0  0  0  0  0  0
  -25.3540  -36.3520   23.8750 C   0  0  0  0  0  3  0  0  0  0  0  0
  -27.4650  -37.2540   24.7460 C   0  0  0  0  0  1  0  0  0  0  0  0
  -26.3770  -37.4160   23.7850 N   0  0  0  0  0  0  0  0  0  0  0  0
  -25.9590  -38.3310   23.9310 H   0  0  0  0  0  0  0  0  0  0  0  0
  -30.0430  -20.1250   20.6850 C   0  0  0  0  0  2  0  0  0  0  0  0
  -29.4850  -18.6680   20.2450 C   0  0  0  0  0  3  0  0  0  0  0  0
  -30.4130  -17.3820   20.6130 C   0  0  0  0  0  3  0  0  0  0  0  0
  -30.6750  -14.7890   20.2370 C   0  0  0  0  0  0  0  0  0  0  0  0
  -30.4570  -12.5140   19.2270 C   0  0  0  0  0  2  0  0  0  0  0  0
  -29.5090  -12.5730   18.0100 C   0  0  0  0  0  2  0  0  0  0  0  0
  -28.0420  -12.4020   18.4540 C   0  0  0  0  0  2  0  0  0  0  0  0
  -27.6780  -13.3000   19.6670 C   0  0  0  0  0  3  0  0  0  0  0  0
  -28.7450  -13.2240   20.7790 C   0  0  0  0  0  2  0  0  0  0  0  0
  -30.0330  -13.5740   20.1690 N   0  0  0  0  0  0  0  0  0  0  0  0
  -31.8630  -14.8770   19.9150 O   0  0  0  0  0  0  0  0  0  0  0  0
  -29.9280  -15.9350   20.4740 N   0  0  0  0  0  0  0  0  0  0  0  0
  -28.9490  -15.7760   20.6570 H   0  0  0  0  0  0  0  0  0  0  0  0
  -25.2970  -13.8950   20.4140 C   0  0  0  0  0  0  0  0  0  0  0  0
  -24.2330  -13.1220   20.7930 C   0  0  0  0  0  0  0  0  0  0  0  0
  -24.6950  -11.7700   20.7620 C   0  0  0  0  0  0  0  0  0  0  0  0
  -26.3380  -13.0140   20.1700 N   0  0  0  0  0  0  0  0  0  0  0  0
  -25.9830  -11.7320   20.4420 N   0  0  0  0  0  0  0  0  0  0  0  0
  -23.9690  -10.5080   20.9580 C   0  0  0  0  0  0  0  0  0  0  0  0
  -24.3940   -9.5520   21.9050 C   0  0  0  0  0  3  0  0  0  0  0  0
  -23.6680   -8.3550   22.0890 C   0  0  0  0  0  3  0  0  0  0  0  0
  -22.5030   -8.1070   21.3250 C   0  0  0  0  0  0  0  0  0  0  0  0
  -22.0970   -9.0530   20.3670 C   0  0  0  0  0  3  0  0  0  0  0  0
  -22.8240  -10.2410   20.1820 C   0  0  0  0  0  3  0  0  0  0  0  0
  -21.7480   -6.9630   21.4180 O   0  0  0  0  0  0  0  0  0  0  0  0
  -21.6760   -6.2400   22.5810 C   0  0  0  0  0  0  0  0  0  0  0  0
  -21.1950   -6.8090   23.7820 C   0  0  0  0  0  3  0  0  0  0  0  0
  -21.0710   -6.0130   24.9380 C   0  0  0  0  0  3  0  0  0  0  0  0
  -21.4180   -4.6480   24.8940 C   0  0  0  0  0  0  0  0  0  0  0  0
  -21.8910   -4.0790   23.6990 C   0  0  0  0  0  3  0  0  0  0  0  0
  -22.0160   -4.8730   22.5450 C   0  0  0  0  0  0  0  0  0  0  0  0
  -22.4530   -4.3160   21.3910 F   0  0  0  0  0  0  0  0  0  0  0  0
  -21.2900   -3.8810   26.0020 F   0  0  0  0  0  0  0  0  0  0  0  0
  -22.8390  -13.6000   21.0730 C   0  0  0  0  0  0  0  0  0  0  0  0
  -22.1140  -12.9040   21.9400 N   0  0  0  0  0  0  0  0  0  0  0  0
  -22.3990  -14.6270   20.5560 O   0  0  0  0  0  0  0  0  0  0  0  0
  -22.4810  -12.0730   22.3810 H   0  0  0  0  0  0  0  0  0  0  0  0
  -21.1770  -13.2060   22.1670 H   0  0  0  0  0  0  0  0  0  0  0  0
  -25.4600  -15.2650   20.2310 N   0  0  0  0  0  0  0  0  0  0  0  0
  -24.6890  -15.9170   20.3350 H   0  0  0  0  0  0  0  0  0  0  0  0
  -26.2930  -15.7000   19.8570 H   0  0  0  0  0  0  0  0  0  0  0  0
  1  8  1  0
  1  3  2  0
  2  1  1  0
  3  5  1  0
  4  2  1  0
  6  2  2  0
  6  7  1  0
  7 50  1  0
  7  3  1  0
  9  8  1  0
 10 21  2  0
 11  9  1  0
 11 16  1  0
 12 20  1  0
 12 22  1  0
 13 19  1  0
 13 15  1  0
 14 20  1  0
 15 16  2  0
 15 14  1  0
 17 11  2  0
 18 17  1  0
 18 13  2  0
 19 12  1  0
 20 10  1  0
 22 24  2  0
 23 22  1  0
 25 23  1  0
 26 35  2  0
 26 31  1  0
 27 23  1  0
 27 31  1  0
 28 27  1  0
 29 30  1  0
 29 28  1  0
 30 26  1  0
 31 32  2  0
 32 33  1  0
 34 33  2  0
 35 34  1  0
 36 10  1  0
 36 41  1  0
 36 37  1  0
 37 40  1  1
 37 38  1  0
 39 37  1  0
 41 44  1  0
 42 46  1  0
 42 41  1  0
 43 42  2  0
 46 45  1  0
 48 46  1  0
 48 49  1  0
 48 47  1  0
 51 52  2  0
 51 50  1  0
 53 61  1  0
 54 59  1  0
 55 56  1  0
 55 54  1  0
 57 56  1  0
 57 66  1  0
 57 58  1  0
 59 53  1  0
 59 58  1  0
 60 53  2  0
 61 52  1  0
 61 62  1  0
 63 64  2  0
 64 83  1  0
 65 64  1  0
 65 68  1  0
 66 63  1  0
 66 67  1  0
 67 65  2  0
 68 69  1  0
 69 70  2  0
 71 74  1  0
 71 70  1  0
 72 71  2  0
 73 72  1  0
 73 68  2  0
 74 75  1  0
 75 76  1  0
 76 77  2  0
 78 77  1  0
 78 82  1  0
 79 78  2  0
 80 75  2  0
 80 79  1  0
 81 80  1  0
 83 84  1  0
 84 87  1  0
 84 86  1  0
 85 83  2  0
 88 89  1  0
 88 63  1  0
 90 88  1  0
M  ISO  4   8 101   9 101  53 100  61 100
M  END
>  <TORSDO>  (44) 
F 20

>  <SCORE>  (44) 
-13.716

>  <name>  (44) 
43

>  <ligand_id>  (44) 
43

>  <original_smiles>  (44) 
[H]c1c([H])c([H])c2c(c1[H])C([H])([H])C([H])([H])C([H])([H])C2([H])N([H])C(=O)C1([H])N(C(=O)C([H])(N([H])C(=O)C([H])(N([H])C([H])([H])[H])C([H])([H])[H])C(C([H])([H])[H])(C([H])([H])[H])C([H])([H])[H])C([H])([H])c2c([H])c(OC([H])([H])c3c(C([H])([H])[H])nn(C([H])([H])C([H])([H])C([H])([H])N([H])C(=O)N4C([H])([H])C([H])([H])C([H])([H])C([H])(n5nc(-c6c([H])c([H])c(Oc7c([H])c([H])c(F)c([H])c7F)c([H])c6[H])c(C(=O)N([H])[H])c5N([H])[H])C4([H])[H])c3C([H])([H])[H])c([H])c([H])c2C1([H])[H]

>  <smiles>  (44) 
[H]c1c([H])c([H])c2c(c1[H])C([H])([H])C([H])([H])C([H])([H])C2([H])N([H])C(=O)C1([H])N(C(=O)C([H])(N([H])C(=O)C([H])(N([H])C([H])([H])[H])C([H])([H])[H])C(C([H])([H])[H])(C([H])([H])[H])C([H])([H])[H])C([H])([H])c2c([H])c(OC([H])([H])c3c(C([H])([H])[H])nn(C([H])([H])C([H])([H])C([H])([H])N([H])C(=O)N4C([H])([H])C([H])([H])C([H])([H])C([H])(n5nc(-c6c([H])c([H])c(Oc7c([H])c([H])c(F)c([H])c7F)c([H])c6[H])c(C(=O)N([H])[H])c5N([H])[H])C4([H])[H])c3C([H])([H])[H])c([H])c([H])c2C1([H])[H]

$$$$
44:0:0
     RDKit          3D

 88 96  0  0  1  0  0  0  0  0999 V2000
  -28.6690  -21.4430   19.5430 C   0  0  0  0  0  3  0  0  0  0  0  0
  -28.4810  -23.0300   19.6270 C   0  0  0  0  0  3  0  0  0  0  0  0
  -28.2860  -21.2990   18.2170 C   0  0  0  0  0  3  0  0  0  0  0  0
  -27.7270  -20.1710   17.4080 C   0  0  0  0  0  1  0  0  0  0  0  0
  -28.4850  -23.5030   18.3910 N   0  0  0  0  0  2  0  0  0  0  0  0
  -28.3250  -22.4460   17.5170 O   0  0  0  0  0  0  0  0  0  0  0  0
  -28.9030  -19.9400   20.4050 C   0  0  0  0  0  2  0  0  0  0  0  0
  -30.1910  -18.3910   18.5280 C   0  0  0  0  0  1  0  0  0  0  0  0
  -29.8030  -18.4280   20.0150 C   0  0  0  0  0  3  0  0  0  0  0  0
  -29.5670  -16.7350   20.5350 C   0  0  0  0  0  2  0  0  0  0  0  0
  -30.4150  -15.2440   20.2220 C   0  0  0  0  0  0  0  0  0  0  0  0
  -30.4060  -12.8120   19.3400 C   0  0  0  0  0  2  0  0  0  0  0  0
  -29.4720  -12.6730   18.1110 C   0  0  0  0  0  2  0  0  0  0  0  0
  -28.0260  -12.4020   18.5640 C   0  0  0  0  0  2  0  0  0  0  0  0
  -27.5900  -13.3470   19.7110 C   0  0  0  0  0  3  0  0  0  0  0  0
  -28.6480  -13.4490   20.8280 C   0  0  0  0  0  2  0  0  0  0  0  0
  -29.8930  -13.9280   20.2070 N   0  0  0  0  0  0  0  0  0  0  0  0
  -31.6120  -15.2870   19.9000 O   0  0  0  0  0  0  0  0  0  0  0  0
  -25.2250  -13.8900   20.4980 C   0  0  0  0  0  0  0  0  0  0  0  0
  -24.1750  -13.1070   20.8800 C   0  0  0  0  0  0  0  0  0  0  0  0
  -24.6500  -11.7600   20.8390 C   0  0  0  0  0  0  0  0  0  0  0  0
  -26.2700  -13.0240   20.2320 N   0  0  0  0  0  0  0  0  0  0  0  0
  -25.9380  -11.7360   20.5070 N   0  0  0  0  0  0  0  0  0  0  0  0
  -23.9340  -10.4930   21.0340 C   0  0  0  0  0  0  0  0  0  0  0  0
  -24.3850   -9.5240   21.9590 C   0  0  0  0  0  3  0  0  0  0  0  0
  -23.6670   -8.3230   22.1430 C   0  0  0  0  0  3  0  0  0  0  0  0
  -22.4820   -8.0830   21.4050 C   0  0  0  0  0  0  0  0  0  0  0  0
  -22.0510   -9.0420   20.4720 C   0  0  0  0  0  3  0  0  0  0  0  0
  -22.7690  -10.2330   20.2850 C   0  0  0  0  0  3  0  0  0  0  0  0
  -21.7330   -6.9360   21.4990 O   0  0  0  0  0  0  0  0  0  0  0  0
  -21.7060   -6.1880   22.6490 C   0  0  0  0  0  0  0  0  0  0  0  0
  -21.2930   -6.7320   23.8840 C   0  0  0  0  0  3  0  0  0  0  0  0
  -21.2140   -5.9100   25.0260 C   0  0  0  0  0  3  0  0  0  0  0  0
  -21.5380   -4.5420   24.9320 C   0  0  0  0  0  0  0  0  0  0  0  0
  -21.9400   -3.9970   23.7000 C   0  0  0  0  0  3  0  0  0  0  0  0
  -22.0230   -4.8180   22.5620 C   0  0  0  0  0  0  0  0  0  0  0  0
  -22.3950   -4.2850   21.3750 F   0  0  0  0  0  0  0  0  0  0  0  0
  -21.4560   -3.7470   26.0240 F   0  0  0  0  0  0  0  0  0  0  0  0
  -22.7760  -13.5760   21.1690 C   0  0  0  0  0  0  0  0  0  0  0  0
  -22.0580  -12.8750   22.0380 N   0  0  0  0  0  0  0  0  0  0  0  0
  -22.3290  -14.5990   20.6540 O   0  0  0  0  0  0  0  0  0  0  0  0
  -22.4270  -12.0420   22.4680 H   0  0  0  0  0  0  0  0  0  0  0  0
  -21.1230  -13.1730   22.2790 H   0  0  0  0  0  0  0  0  0  0  0  0
  -25.3860  -15.2630   20.3290 N   0  0  0  0  0  0  0  0  0  0  0  0
  -24.6360  -15.9320   20.4650 H   0  0  0  0  0  0  0  0  0  0  0  0
  -26.2370  -15.6830   19.9830 H   0  0  0  0  0  0  0  0  0  0  0  0
  -28.1440  -24.4100   20.5720 C   0  0  0  0  0  2  0  0  0  0  0  0
  -28.2650  -25.9840   20.1660 O   0  0  0  0  0  0  0  0  0  0  0  0
  -24.6850  -31.8810   23.2010 C   0  0  0  0  0  0  0  0  0  0  0  0
  -27.2180  -27.0220   20.1990 C   0  0  0  0  0  0  0  0  0  0  0  0
  -23.4830  -30.4790   21.5770 C   0  0  0  0  0  3  0  0  0  0  0  0
  -24.9180  -28.8650   20.1600 C   0  0  0  0  0  0  0  0  0  0  0  0
  -26.0430  -30.7010   21.4050 C   0  0  0  0  0  2  0  0  0  0  0  0
  -26.1100  -29.2870   20.7610 C   0  0  0  0  0  0  0  0  0  0  0  0
  -27.2610  -28.3900   20.7420 C   0  0  0  0  0  3  0  0  0  0  0  0
  -25.9890  -26.7280   19.5700 C   0  0  0  0  0  3  0  0  0  0  0  0
  -24.8780  -27.6040   19.5480 C   0  0  0  0  0  3  0  0  0  0  0  0
  -23.7020  -29.7860   20.2060 C   0  0  0  0  0  2  0  0  0  0  0  0
  -24.7600  -31.0410   22.1180 N   0  0  0  0  0  0  0  0  0  0  0  0
  -23.5980  -32.1800   23.7230 O   0  0  0  0  0  0  0  0  0  0  0  0
  -22.7890  -29.4920   22.5500 C   0  0  0  0  0  0  0  0  0  0  0  0
  -21.4580  -29.3320   22.4230 N   0  0  0  0  0  0  0  0  0  0  0  0
  -23.4520  -28.8670   23.3840 O   0  0  0  0  0  0  0  0  0  0  0  0
  -20.9800  -29.8790   21.7190 H   0  0  0  0  0  0  0  0  0  0  0  0
  -18.0720  -28.1440   22.9280 C   0  0  0  0  0  0  0  0  0  0  0  0
  -20.6290  -28.4050   23.1980 C   0  0  0  0  0  3  0  0  0  0  0  0
  -20.7330  -26.9710   22.6270 C   0  0  0  0  0  2  0  0  0  0  0  0
  -19.6330  -26.6440   21.6130 C   0  0  0  0  0  2  0  0  0  0  0  0
  -18.2500  -26.7920   22.2530 C   0  0  0  0  0  2  0  0  0  0  0  0
  -19.1890  -28.9060   23.3570 C   0  0  0  0  0  0  0  0  0  0  0  0
  -18.9700  -30.1680   23.9490 C   0  0  0  0  0  3  0  0  0  0  0  0
  -17.6660  -30.6680   24.1150 C   0  0  0  0  0  3  0  0  0  0  0  0
  -16.5640  -29.9030   23.7020 C   0  0  0  0  0  3  0  0  0  0  0  0
  -16.7670  -28.6420   23.1130 C   0  0  0  0  0  3  0  0  0  0  0  0
  -25.9630  -32.5170   23.8310 C   0  0  0  0  0  3  0  0  0  0  0  0
  -26.4680  -31.7420   25.1110 C   0  0  1  0  0  0  0  0  0  0  0  0
  -25.3710  -31.5100   26.1780 C   0  0  0  0  0  1  0  0  0  0  0  0
  -27.0410  -30.3590   24.7220 C   0  0  0  0  0  1  0  0  0  0  0  0
  -27.6180  -32.5310   25.7790 C   0  0  0  0  0  1  0  0  0  0  0  0
  -25.6480  -33.9150   24.1780 N   0  0  0  0  0  0  0  0  0  0  0  0
  -25.9840  -34.9800   23.4370 C   0  0  0  0  0  0  0  0  0  0  0  0
  -26.6540  -34.8850   22.4060 O   0  0  0  0  0  0  0  0  0  0  0  0
  -25.0510  -34.0590   24.9780 H   0  0  0  0  0  0  0  0  0  0  0  0
  -24.2680  -36.7900   23.1010 C   0  0  0  0  0  1  0  0  0  0  0  0
  -25.5010  -36.3650   23.9150 C   0  0  0  0  0  3  0  0  0  0  0  0
  -27.6330  -37.2290   24.7720 C   0  0  0  0  0  1  0  0  0  0  0  0
  -26.5390  -37.4130   23.8230 N   0  0  0  0  0  0  0  0  0  0  0  0
  -26.1360  -38.3340   23.9790 H   0  0  0  0  0  0  0  0  0  0  0  0
  1  2  1  0
  1  7  1  0
  2 47  1  0
  3  4  1  0
  3  1  1  0
  5  2  1  0
  6  3  1  0
  6  5  1  0
  9  8  1  0
  9  7  1  0
  9 10  1  0
 11 10  1  0
 12 17  1  0
 13 14  1  0
 13 12  1  0
 15 14  1  0
 15 22  1  0
 15 16  1  0
 17 11  1  0
 17 16  1  0
 18 11  2  0
 19 20  2  0
 20 39  1  0
 21 20  1  0
 21 24  1  0
 22 19  1  0
 22 23  1  0
 23 21  2  0
 24 25  1  0
 25 26  2  0
 27 30  1  0
 27 26  1  0
 28 27  2  0
 29 28  1  0
 29 24  2  0
 30 31  1  0
 31 32  1  0
 32 33  2  0
 34 33  1  0
 34 38  1  0
 35 34  2  0
 36 31  2  0
 36 35  1  0
 37 36  1  0
 39 40  1  0
 40 43  1  0
 40 42  1  0
 41 39  2  0
 44 45  1  0
 44 19  1  0
 46 44  1  0
 48 50  1  0
 48 47  1  0
 49 60  2  0
 50 55  1  0
 51 59  1  0
 51 61  1  0
 52 58  1  0
 52 54  1  0
 53 59  1  0
 54 53  1  0
 55 54  2  0
 56 50  2  0
 57 56  1  0
 57 52  2  0
 58 51  1  0
 59 49  1  0
 61 63  2  0
 62 61  1  0
 64 62  1  0
 65 74  2  0
 65 70  1  0
 66 62  1  0
 66 70  1  0
 67 66  1  0
 68 69  1  0
 68 67  1  0
 69 65  1  0
 70 71  2  0
 71 72  1  0
 73 72  2  0
 74 73  1  0
 75 49  1  0
 75 80  1  0
 75 76  1  0
 76 79  1  1
 76 77  1  0
 78 76  1  0
 80 83  1  0
 81 85  1  0
 81 80  1  0
 82 81  2  0
 85 84  1  0
 87 85  1  0
 87 88  1  0
 87 86  1  0
M  ISO  4  10 100  11 100  47 101  48 101
M  END
>  <TORSDO>  (45) 
F 20

>  <SCORE>  (45) 
-16.447

>  <name>  (45) 
44

>  <ligand_id>  (45) 
44

>  <original_smiles>  (45) 
[H]c1c([H])c([H])c2c(c1[H])C([H])([H])C([H])([H])C([H])([H])C2([H])N([H])C(=O)C1([H])N(C(=O)C([H])(N([H])C(=O)C([H])(N([H])C([H])([H])[H])C([H])([H])[H])C(C([H])([H])[H])(C([H])([H])[H])C([H])([H])[H])C([H])([H])c2c([H])c(OC([H])([H])c3noc(C([H])([H])[H])c3C([H])([H])C([H])(C([H])([H])[H])C([H])([H])C(=O)N3C([H])([H])C([H])([H])C([H])([H])C([H])(n4nc(-c5c([H])c([H])c(Oc6c([H])c([H])c(F)c([H])c6F)c([H])c5[H])c(C(=O)N([H])[H])c4N([H])[H])C3([H])[H])c([H])c([H])c2C1([H])[H]

>  <smiles>  (45) 
[H]c1c([H])c([H])c2c(c1[H])C([H])([H])C([H])([H])C([H])([H])C2([H])N([H])C(=O)C1([H])N(C(=O)C([H])(N([H])C(=O)C([H])(N([H])C([H])([H])[H])C([H])([H])[H])C(C([H])([H])[H])(C([H])([H])[H])C([H])([H])[H])C([H])([H])c2c([H])c(OC([H])([H])c3noc(C([H])([H])[H])c3C([H])([H])C([H])(C([H])([H])[H])C([H])([H])C(=O)N3C([H])([H])C([H])([H])C([H])([H])C([H])(n4nc(-c5c([H])c([H])c(Oc6c([H])c([H])c(F)c([H])c6F)c([H])c5[H])c(C(=O)N([H])[H])c4N([H])[H])C3([H])[H])c([H])c([H])c2C1([H])[H]

$$$$
45:0:0
     RDKit          3D

 91 99  0  0  1  0  0  0  0  0999 V2000
  -28.6720  -22.3060   20.0280 C   0  0  0  0  0  0  0  0  0  0  0  0
  -29.1000  -21.2200   20.8810 C   0  0  0  0  0  0  0  0  0  0  0  0
  -28.7840  -23.6770   20.4980 C   0  0  0  0  0  0  0  0  0  0  0  0
  -29.6530  -22.8280   22.4630 C   0  0  0  0  0  0  0  0  0  0  0  0
  -28.0830  -22.0030   18.6510 C   0  0  0  0  0  1  0  0  0  0  0  0
  -30.0680  -23.1070   23.8970 C   0  0  0  0  0  1  0  0  0  0  0  0
  -29.5980  -21.5440   22.0950 N   0  0  0  0  0  0  0  0  0  0  0  0
  -29.2910  -23.8830   21.7330 N   0  0  0  0  0  0  0  0  0  0  0  0
  -28.8000  -19.6620   20.7010 C   0  0  0  0  0  2  0  0  0  0  0  0
  -29.8700  -18.5650   20.1890 C   0  0  0  0  0  2  0  0  0  0  0  0
  -30.1760  -17.2140   21.0350 C   0  0  0  0  0  2  0  0  0  0  0  0
  -30.5780  -14.7140   20.2870 C   0  0  0  0  0  0  0  0  0  0  0  0
  -30.3610  -12.4590   19.2220 C   0  0  0  0  0  2  0  0  0  0  0  0
  -29.3810  -12.5060   18.0280 C   0  0  0  0  0  2  0  0  0  0  0  0
  -27.9260  -12.3360   18.5080 C   0  0  0  0  0  2  0  0  0  0  0  0
  -27.5780  -13.2470   19.7120 C   0  0  0  0  0  3  0  0  0  0  0  0
  -28.6640  -13.1470   20.8060 C   0  0  0  0  0  2  0  0  0  0  0  0
  -29.9450  -13.5000   20.1840 N   0  0  0  0  0  0  0  0  0  0  0  0
  -31.7710  -14.8250   19.9890 O   0  0  0  0  0  0  0  0  0  0  0  0
  -29.7960  -15.8220   20.5530 N   0  0  0  0  0  0  0  0  0  0  0  0
  -28.8100  -15.6130   20.6200 H   0  0  0  0  0  0  0  0  0  0  0  0
  -25.2050  -13.8500   20.4800 C   0  0  0  0  0  0  0  0  0  0  0  0
  -24.1430  -13.0780   20.8650 C   0  0  0  0  0  0  0  0  0  0  0  0
  -24.6060  -11.7270   20.8370 C   0  0  0  0  0  0  0  0  0  0  0  0
  -26.2440  -12.9680   20.2340 N   0  0  0  0  0  0  0  0  0  0  0  0
  -25.8910  -11.6870   20.5120 N   0  0  0  0  0  0  0  0  0  0  0  0
  -23.8840  -10.4660   21.0360 C   0  0  0  0  0  0  0  0  0  0  0  0
  -24.3390   -9.4940   21.9550 C   0  0  0  0  0  3  0  0  0  0  0  0
  -23.6150   -8.2980   22.1510 C   0  0  0  0  0  3  0  0  0  0  0  0
  -22.4230   -8.0630   21.4240 C   0  0  0  0  0  0  0  0  0  0  0  0
  -21.9860   -9.0260   20.4950 C   0  0  0  0  0  3  0  0  0  0  0  0
  -22.7100  -10.2130   20.3000 C   0  0  0  0  0  3  0  0  0  0  0  0
  -21.6680   -6.9190   21.5270 O   0  0  0  0  0  0  0  0  0  0  0  0
  -21.6650   -6.1610   22.6700 C   0  0  0  0  0  0  0  0  0  0  0  0
  -21.2990   -6.7030   23.9220 C   0  0  0  0  0  3  0  0  0  0  0  0
  -21.2430   -5.8730   25.0590 C   0  0  0  0  0  3  0  0  0  0  0  0
  -21.5390   -4.5020   24.9460 C   0  0  0  0  0  0  0  0  0  0  0  0
  -21.8970   -3.9590   23.6990 C   0  0  0  0  0  3  0  0  0  0  0  0
  -21.9590   -4.7860   22.5640 C   0  0  0  0  0  0  0  0  0  0  0  0
  -22.2820   -4.2540   21.3600 F   0  0  0  0  0  0  0  0  0  0  0  0
  -21.4780   -3.7030   26.0370 F   0  0  0  0  0  0  0  0  0  0  0  0
  -22.7500  -13.5550   21.1500 C   0  0  0  0  0  0  0  0  0  0  0  0
  -22.0330  -12.8620   22.0280 N   0  0  0  0  0  0  0  0  0  0  0  0
  -22.3080  -14.5790   20.6300 O   0  0  0  0  0  0  0  0  0  0  0  0
  -22.4070  -12.0290   22.4590 H   0  0  0  0  0  0  0  0  0  0  0  0
  -21.1020  -13.1650   22.2680 H   0  0  0  0  0  0  0  0  0  0  0  0
  -25.3630  -15.2190   20.2950 N   0  0  0  0  0  0  0  0  0  0  0  0
  -24.5910  -15.8650   20.4140 H   0  0  0  0  0  0  0  0  0  0  0  0
  -26.1930  -15.6600   19.9220 H   0  0  0  0  0  0  0  0  0  0  0  0
  -28.3220  -24.9740   19.6760 C   0  0  0  0  0  2  0  0  0  0  0  0
  -28.3030  -26.3630   20.2750 O   0  0  0  0  0  0  0  0  0  0  0  0
  -24.6060  -31.8620   23.2350 C   0  0  0  0  0  0  0  0  0  0  0  0
  -27.1890  -27.2400   20.1810 C   0  0  0  0  0  0  0  0  0  0  0  0
  -23.3900  -30.4630   21.6090 C   0  0  0  0  0  3  0  0  0  0  0  0
  -24.8330  -28.9080   20.1760 C   0  0  0  0  0  0  0  0  0  0  0  0
  -25.9380  -30.7630   21.4120 C   0  0  0  0  0  2  0  0  0  0  0  0
  -26.0110  -29.3810   20.7660 C   0  0  0  0  0  0  0  0  0  0  0  0
  -27.1890  -28.5610   20.7560 C   0  0  0  0  0  3  0  0  0  0  0  0
  -25.9800  -26.8430   19.5610 C   0  0  0  0  0  3  0  0  0  0  0  0
  -24.8270  -27.6480   19.5640 C   0  0  0  0  0  3  0  0  0  0  0  0
  -23.5920  -29.7770   20.2360 C   0  0  0  0  0  2  0  0  0  0  0  0
  -24.6650  -31.0450   22.1410 N   0  0  0  0  0  0  0  0  0  0  0  0
  -23.5250  -32.1440   23.7750 O   0  0  0  0  0  0  0  0  0  0  0  0
  -22.7300  -29.4480   22.5770 C   0  0  0  0  0  0  0  0  0  0  0  0
  -21.4030  -29.2690   22.4560 N   0  0  0  0  0  0  0  0  0  0  0  0
  -23.4130  -28.8260   23.3940 O   0  0  0  0  0  0  0  0  0  0  0  0
  -20.9110  -29.8260   21.7710 H   0  0  0  0  0  0  0  0  0  0  0  0
  -18.0260  -28.0750   22.9620 C   0  0  0  0  0  0  0  0  0  0  0  0
  -20.5840  -28.3330   23.2280 C   0  0  0  0  0  3  0  0  0  0  0  0
  -20.6880  -26.9010   22.6510 C   0  0  0  0  0  2  0  0  0  0  0  0
  -19.5820  -26.5780   21.6430 C   0  0  0  0  0  2  0  0  0  0  0  0
  -18.2000  -26.7240   22.2870 C   0  0  0  0  0  2  0  0  0  0  0  0
  -19.1450  -28.8390   23.3850 C   0  0  0  0  0  0  0  0  0  0  0  0
  -18.9250  -30.1060   23.9660 C   0  0  0  0  0  3  0  0  0  0  0  0
  -17.6230  -30.6040   24.1420 C   0  0  0  0  0  3  0  0  0  0  0  0
  -16.5180  -29.8350   23.7410 C   0  0  0  0  0  3  0  0  0  0  0  0
  -16.7190  -28.5750   23.1500 C   0  0  0  0  0  3  0  0  0  0  0  0
  -25.8910  -32.4950   23.8510 C   0  0  0  0  0  3  0  0  0  0  0  0
  -26.4150  -31.7260   25.1260 C   0  0  1  0  0  0  0  0  0  0  0  0
  -25.3260  -31.4760   26.1980 C   0  0  0  0  0  1  0  0  0  0  0  0
  -27.0070  -30.3580   24.7280 C   0  0  0  0  0  1  0  0  0  0  0  0
  -27.5650  -32.5310   25.7790 C   0  0  0  0  0  1  0  0  0  0  0  0
  -25.5830  -33.8930   24.1860 N   0  0  0  0  0  0  0  0  0  0  0  0
  -25.9040  -34.9470   23.4230 C   0  0  0  0  0  0  0  0  0  0  0  0
  -26.5570  -34.8430   22.3820 O   0  0  0  0  0  0  0  0  0  0  0  0
  -25.0180  -34.0510   25.0070 H   0  0  0  0  0  0  0  0  0  0  0  0
  -24.1630  -36.7300   23.0970 C   0  0  0  0  0  1  0  0  0  0  0  0
  -25.4220  -36.3350   23.8860 C   0  0  0  0  0  3  0  0  0  0  0  0
  -27.5640  -37.2240   24.6830 C   0  0  0  0  0  1  0  0  0  0  0  0
  -26.4500  -37.3910   23.7550 N   0  0  0  0  0  0  0  0  0  0  0  0
  -26.0430  -38.3090   23.9140 H   0  0  0  0  0  0  0  0  0  0  0  0
  1  3  1  0
  1  2  2  0
  2  7  1  0
  3  8  2  0
  4  6  1  0
  5  1  1  0
  7  4  2  0
  8  4  1  0
  9  2  1  0
 10  9  1  0
 10 11  1  0
 12 20  1  0
 13 18  1  0
 14 15  1  0
 14 13  1  0
 16 15  1  0
 16 25  1  0
 16 17  1  0
 18 12  1  0
 18 17  1  0
 19 12  2  0
 20 21  1  0
 20 11  1  0
 22 23  2  0
 23 42  1  0
 24 23  1  0
 24 27  1  0
 25 22  1  0
 25 26  1  0
 26 24  2  0
 27 28  1  0
 28 29  2  0
 30 33  1  0
 30 29  1  0
 31 30  2  0
 32 31  1  0
 32 27  2  0
 33 34  1  0
 34 35  1  0
 35 36  2  0
 37 36  1  0
 37 41  1  0
 38 37  2  0
 39 34  2  0
 39 38  1  0
 40 39  1  0
 42 43  1  0
 43 46  1  0
 43 45  1  0
 44 42  2  0
 47 48  1  0
 47 22  1  0
 49 47  1  0
 50 51  1  0
 50  3  1  0
 52 63  2  0
 53 51  1  0
 53 58  1  0
 54 62  1  0
 54 64  1  0
 55 61  1  0
 55 57  1  0
 56 62  1  0
 57 56  1  0
 58 57  2  0
 59 60  1  0
 59 53  2  0
 60 55  2  0
 61 54  1  0
 62 52  1  0
 64 66  2  0
 65 64  1  0
 67 65  1  0
 68 77  2  0
 68 73  1  0
 69 65  1  0
 69 73  1  0
 70 69  1  0
 71 72  1  0
 71 70  1  0
 72 68  1  0
 73 74  2  0
 74 75  1  0
 76 75  2  0
 77 76  1  0
 78 52  1  0
 78 83  1  0
 78 79  1  0
 79 82  1  1
 79 80  1  0
 81 79  1  0
 83 86  1  0
 84 88  1  0
 84 83  1  0
 85 84  2  0
 88 87  1  0
 90 88  1  0
 90 91  1  0
 90 89  1  0
M  ISO  4  12 100  20 100  50 101  51 101
M  END
>  <TORSDO>  (46) 
F 20

>  <SCORE>  (46) 
-13.894

>  <name>  (46) 
45

>  <ligand_id>  (46) 
45

>  <original_smiles>  (46) 
[H]c1c([H])c([H])c2c(c1[H])C([H])([H])C([H])([H])C([H])([H])C2([H])N([H])C(=O)C1([H])N(C(=O)C([H])(N([H])C(=O)C([H])(N([H])C([H])([H])[H])C([H])([H])[H])C(C([H])([H])[H])(C([H])([H])[H])C([H])([H])[H])C([H])([H])c2c([H])c(OC([H])([H])c3nc(C([H])([H])[H])nc(C([H])([H])C([H])([H])C([H])([H])N([H])C(=O)N4C([H])([H])C([H])([H])C([H])([H])C([H])(n5nc(-c6c([H])c([H])c(Oc7c([H])c([H])c(F)c([H])c7F)c([H])c6[H])c(C(=O)N([H])[H])c5N([H])[H])C4([H])[H])c3C([H])([H])[H])c([H])c([H])c2C1([H])[H]

>  <smiles>  (46) 
[H]c1c([H])c([H])c2c(c1[H])C([H])([H])C([H])([H])C([H])([H])C2([H])N([H])C(=O)C1([H])N(C(=O)C([H])(N([H])C(=O)C([H])(N([H])C([H])([H])[H])C([H])([H])[H])C(C([H])([H])[H])(C([H])([H])[H])C([H])([H])[H])C([H])([H])c2c([H])c(OC([H])([H])c3nc(C([H])([H])[H])nc(C([H])([H])C([H])([H])C([H])([H])N([H])C(=O)N4C([H])([H])C([H])([H])C([H])([H])C([H])(n5nc(-c6c([H])c([H])c(Oc7c([H])c([H])c(F)c([H])c7F)c([H])c6[H])c(C(=O)N([H])[H])c5N([H])[H])C4([H])[H])c3C([H])([H])[H])c([H])c([H])c2C1([H])[H]

$$$$
46:0:0
     RDKit          3D

 87 95  0  0  1  0  0  0  0  0999 V2000
  -28.7400  -21.7850   19.8350 C   0  0  0  0  0  2  0  0  0  0  0  0
  -30.3790  -20.0710   21.1060 C   0  0  0  0  0  3  0  0  0  0  0  0
  -29.7790  -17.9930   20.4610 C   0  0  0  0  0  0  0  0  0  0  0  0
  -29.0190  -19.0340   19.8320 C   0  0  0  0  0  0  0  0  0  0  0  0
  -27.9090  -18.8460   18.8470 C   0  0  0  0  0  1  0  0  0  0  0  0
  -30.6460  -18.7460   21.2770 N   0  0  0  0  0  0  0  0  0  0  0  0
  -29.3660  -20.3840   20.2680 N   0  0  0  0  0  0  0  0  0  0  0  0
  -29.5310  -16.3580   20.5890 C   0  0  0  0  0  2  0  0  0  0  0  0
  -30.4770  -15.0070   20.3240 C   0  0  0  0  0  0  0  0  0  0  0  0
  -30.4080  -12.6550   19.3580 C   0  0  0  0  0  2  0  0  0  0  0  0
  -29.4550  -12.6270   18.1350 C   0  0  0  0  0  2  0  0  0  0  0  0
  -27.9930  -12.4030   18.5690 C   0  0  0  0  0  2  0  0  0  0  0  0
  -27.5920  -13.3130   19.7570 C   0  0  0  0  0  3  0  0  0  0  0  0
  -28.6540  -13.3000   20.8750 C   0  0  0  0  0  2  0  0  0  0  0  0
  -29.9360  -13.7180   20.2880 N   0  0  0  0  0  0  0  0  0  0  0  0
  -31.6700  -15.1120   20.0110 O   0  0  0  0  0  0  0  0  0  0  0  0
  -25.2130  -13.8910   20.5030 C   0  0  0  0  0  0  0  0  0  0  0  0
  -24.1490  -13.1140   20.8710 C   0  0  0  0  0  0  0  0  0  0  0  0
  -24.6160  -11.7640   20.8430 C   0  0  0  0  0  0  0  0  0  0  0  0
  -26.2560  -13.0140   20.2600 N   0  0  0  0  0  0  0  0  0  0  0  0
  -25.9070  -11.7290   20.5300 N   0  0  0  0  0  0  0  0  0  0  0  0
  -23.8920  -10.5010   21.0350 C   0  0  0  0  0  0  0  0  0  0  0  0
  -24.3290   -9.5320   21.9660 C   0  0  0  0  0  3  0  0  0  0  0  0
  -23.6040   -8.3350   22.1470 C   0  0  0  0  0  3  0  0  0  0  0  0
  -22.4270   -8.0970   21.3970 C   0  0  0  0  0  0  0  0  0  0  0  0
  -22.0080   -9.0550   20.4560 C   0  0  0  0  0  3  0  0  0  0  0  0
  -22.7350  -10.2430   20.2730 C   0  0  0  0  0  3  0  0  0  0  0  0
  -21.6750   -6.9520   21.4850 O   0  0  0  0  0  0  0  0  0  0  0  0
  -21.6360   -6.2030   22.6350 C   0  0  0  0  0  0  0  0  0  0  0  0
  -21.2130   -6.7520   23.8660 C   0  0  0  0  0  3  0  0  0  0  0  0
  -21.1210   -5.9310   25.0070 C   0  0  0  0  0  3  0  0  0  0  0  0
  -21.4390   -4.5610   24.9190 C   0  0  0  0  0  0  0  0  0  0  0  0
  -21.8550   -4.0130   23.6930 C   0  0  0  0  0  3  0  0  0  0  0  0
  -21.9500   -4.8320   22.5540 C   0  0  0  0  0  0  0  0  0  0  0  0
  -22.3300   -4.2930   21.3700 F   0  0  0  0  0  0  0  0  0  0  0  0
  -21.3460   -3.7700   26.0140 F   0  0  0  0  0  0  0  0  0  0  0  0
  -22.7520  -13.5890   21.1430 C   0  0  0  0  0  0  0  0  0  0  0  0
  -22.0260  -12.8920   22.0090 N   0  0  0  0  0  0  0  0  0  0  0  0
  -22.3120  -14.6130   20.6220 O   0  0  0  0  0  0  0  0  0  0  0  0
  -22.3950  -12.0620   22.4510 H   0  0  0  0  0  0  0  0  0  0  0  0
  -21.0890  -13.1930   22.2370 H   0  0  0  0  0  0  0  0  0  0  0  0
  -25.3750  -15.2620   20.3280 N   0  0  0  0  0  0  0  0  0  0  0  0
  -24.6150  -15.9200   20.4640 H   0  0  0  0  0  0  0  0  0  0  0  0
  -26.2290  -15.7050   20.0130 H   0  0  0  0  0  0  0  0  0  0  0  0
  -28.9600  -23.3300   20.4820 C   0  0  0  0  0  3  0  0  0  0  0  0
  -28.0710  -24.6850   19.9830 C   0  0  0  0  0  3  0  0  0  0  0  0
  -28.2610  -26.1990   20.3120 O   0  0  0  0  0  0  0  0  0  0  0  0
  -24.6160  -31.8900   23.2450 C   0  0  0  0  0  0  0  0  0  0  0  0
  -27.1960  -27.1740   20.2190 C   0  0  0  0  0  0  0  0  0  0  0  0
  -23.4150  -30.4940   21.6050 C   0  0  0  0  0  3  0  0  0  0  0  0
  -24.8600  -28.9150   20.1820 C   0  0  0  0  0  0  0  0  0  0  0  0
  -25.9680  -30.7580   21.4400 C   0  0  0  0  0  2  0  0  0  0  0  0
  -26.0400  -29.3640   20.7910 C   0  0  0  0  0  0  0  0  0  0  0  0
  -27.2050  -28.5110   20.7920 C   0  0  0  0  0  3  0  0  0  0  0  0
  -25.9920  -26.8300   19.5620 C   0  0  0  0  0  3  0  0  0  0  0  0
  -24.8500  -27.6610   19.5500 C   0  0  0  0  0  3  0  0  0  0  0  0
  -23.6320  -29.8100   20.2290 C   0  0  0  0  0  2  0  0  0  0  0  0
  -24.6860  -31.0680   22.1520 N   0  0  0  0  0  0  0  0  0  0  0  0
  -23.5310  -32.1760   23.7730 O   0  0  0  0  0  0  0  0  0  0  0  0
  -22.7330  -29.4910   22.5690 C   0  0  0  0  0  0  0  0  0  0  0  0
  -21.4030  -29.3230   22.4440 N   0  0  0  0  0  0  0  0  0  0  0  0
  -23.4030  -28.8630   23.3940 O   0  0  0  0  0  0  0  0  0  0  0  0
  -20.9140  -29.8900   21.7650 H   0  0  0  0  0  0  0  0  0  0  0  0
  -18.0260  -28.1110   22.9390 C   0  0  0  0  0  0  0  0  0  0  0  0
  -20.5830  -28.3830   23.2170 C   0  0  0  0  0  3  0  0  0  0  0  0
  -20.6930  -26.9500   22.6450 C   0  0  0  0  0  2  0  0  0  0  0  0
  -19.5950  -26.6270   21.6240 C   0  0  0  0  0  2  0  0  0  0  0  0
  -18.2110  -26.7620   22.2620 C   0  0  0  0  0  2  0  0  0  0  0  0
  -19.1390  -28.8780   23.3740 C   0  0  0  0  0  0  0  0  0  0  0  0
  -18.9120  -30.1420   23.9620 C   0  0  0  0  0  3  0  0  0  0  0  0
  -17.6030  -30.6390   24.1150 C   0  0  0  0  0  3  0  0  0  0  0  0
  -16.5050  -29.8680   23.6970 C   0  0  0  0  0  3  0  0  0  0  0  0
  -16.7150  -28.6050   23.1160 C   0  0  0  0  0  3  0  0  0  0  0  0
  -25.8960  -32.5230   23.8710 C   0  0  0  0  0  3  0  0  0  0  0  0
  -26.4000  -31.7590   25.1580 C   0  0  1  0  0  0  0  0  0  0  0  0
  -25.3020  -31.5420   26.2250 C   0  0  0  0  0  1  0  0  0  0  0  0
  -26.9760  -30.3740   24.7880 C   0  0  0  0  0  1  0  0  0  0  0  0
  -27.5540  -32.5520   25.8170 C   0  0  0  0  0  1  0  0  0  0  0  0
  -25.5910  -33.9250   24.1940 N   0  0  0  0  0  0  0  0  0  0  0  0
  -25.9150  -34.9750   23.4260 C   0  0  0  0  0  0  0  0  0  0  0  0
  -26.5670  -34.8620   22.3850 O   0  0  0  0  0  0  0  0  0  0  0  0
  -25.0070  -34.0860   25.0020 H   0  0  0  0  0  0  0  0  0  0  0  0
  -24.1800  -36.7680   23.0990 C   0  0  0  0  0  1  0  0  0  0  0  0
  -25.4390  -36.3680   23.8830 C   0  0  0  0  0  3  0  0  0  0  0  0
  -27.5920  -37.2620   24.6560 C   0  0  0  0  0  1  0  0  0  0  0  0
  -26.4690  -37.4200   23.7370 N   0  0  0  0  0  0  0  0  0  0  0  0
  -26.0650  -38.3420   23.8820 H   0  0  0  0  0  0  0  0  0  0  0  0
  1  7  1  0
  1 45  1  0
  2  6  2  0
  3  8  1  0
  3  6  1  0
  4  7  1  0
  4  3  2  0
  5  4  1  0
  7  2  1  0
  9  8  1  0
 10 15  1  0
 11 12  1  0
 11 10  1  0
 13 12  1  0
 13 20  1  0
 13 14  1  0
 15  9  1  0
 15 14  1  0
 16  9  2  0
 17 18  2  0
 18 37  1  0
 19 18  1  0
 19 22  1  0
 20 17  1  0
 20 21  1  0
 21 19  2  0
 22 23  1  0
 23 24  2  0
 25 28  1  0
 25 24  1  0
 26 25  2  0
 27 26  1  0
 27 22  2  0
 28 29  1  0
 29 30  1  0
 30 31  2  0
 32 31  1  0
 32 36  1  0
 33 32  2  0
 34 29  2  0
 34 33  1  0
 35 34  1  0
 37 38  1  0
 38 41  1  0
 38 40  1  0
 39 37  2  0
 42 43  1  0
 42 17  1  0
 44 42  1  0
 46 47  1  0
 46 45  2  0
 48 59  2  0
 49 47  1  0
 49 54  1  0
 50 58  1  0
 50 60  1  0
 51 57  1  0
 51 53  1  0
 52 58  1  0
 53 54  2  0
 53 52  1  0
 55 49  2  0
 56 55  1  0
 56 51  2  0
 57 50  1  0
 58 48  1  0
 60 62  2  0
 61 60  1  0
 63 61  1  0
 64 73  2  0
 64 69  1  0
 65 61  1  0
 65 69  1  0
 66 65  1  0
 67 68  1  0
 67 66  1  0
 68 64  1  0
 69 70  2  0
 70 71  1  0
 72 71  2  0
 73 72  1  0
 74 48  1  0
 74 79  1  0
 74 75  1  0
 75 78  1  1
 75 76  1  0
 77 75  1  0
 79 82  1  0
 80 84  1  0
 80 79  1  0
 81 80  2  0
 84 83  1  0
 86 87  1  0
 86 84  1  0
 86 85  1  0
M  ISO  4   8 100   9 100  46 101  47 101
M  END
>  <TORSDO>  (47) 
F 20

>  <SCORE>  (47) 
-14.710

>  <name>  (47) 
46

>  <ligand_id>  (47) 
46

>  <original_smiles>  (47) 
[H]c1c([H])c([H])c2c(c1[H])C([H])([H])C([H])([H])C([H])([H])C2([H])N([H])C(=O)C1([H])N(C(=O)C([H])(N([H])C(=O)C([H])(N([H])C([H])([H])[H])C([H])([H])[H])C(C([H])([H])[H])(C([H])([H])[H])C([H])([H])[H])C([H])([H])c2c([H])c(OC([H])([H])C([H])([H])C([H])([H])n3c([H])nc(C([H])([H])C(=O)N4C([H])([H])C([H])([H])C([H])([H])C([H])(n5nc(-c6c([H])c([H])c(Oc7c([H])c([H])c(F)c([H])c7F)c([H])c6[H])c(C(=O)N([H])[H])c5N([H])[H])C4([H])[H])c3C([H])([H])[H])c([H])c([H])c2C1([H])[H]

>  <smiles>  (47) 
[H]c1c([H])c([H])c2c(c1[H])C([H])([H])C([H])([H])C([H])([H])C2([H])N([H])C(=O)C1([H])N(C(=O)C([H])(N([H])C(=O)C([H])(N([H])C([H])([H])[H])C([H])([H])[H])C(C([H])([H])[H])(C([H])([H])[H])C([H])([H])[H])C([H])([H])c2c([H])c(OC([H])([H])C([H])([H])C([H])([H])n3c([H])nc(C([H])([H])C(=O)N4C([H])([H])C([H])([H])C([H])([H])C([H])(n5nc(-c6c([H])c([H])c(Oc7c([H])c([H])c(F)c([H])c7F)c([H])c6[H])c(C(=O)N([H])[H])c5N([H])[H])C4([H])[H])c3C([H])([H])[H])c([H])c([H])c2C1([H])[H]

$$$$
47:0:0
     RDKit          3D

 92100  0  0  1  0  0  0  0  0999 V2000
  -30.6020  -23.3710   20.4180 C   0  0  0  0  0  3  0  0  0  0  0  0
  -30.9210  -20.6080   20.6120 C   0  0  0  0  0  3  0  0  0  0  0  0
  -29.4270  -22.5850   20.5170 C   0  0  0  0  0  0  0  0  0  0  0  0
  -31.8960  -22.8220   20.4520 C   0  0  0  0  0  0  0  0  0  0  0  0
  -29.5980  -21.1120   20.5880 C   0  0  0  0  0  0  0  0  0  0  0  0
  -32.0510  -21.4350   20.5560 C   0  0  0  0  0  0  0  0  0  0  0  0
  -33.1180  -23.7200   20.4020 C   0  0  0  0  0  1  0  0  0  0  0  0
  -33.2890  -20.8860   20.6100 F   0  0  0  0  0  0  0  0  0  0  0  0
  -28.1090  -23.4750   20.5100 C   0  0  0  0  0  2  0  0  0  0  0  0
  -28.0700  -24.9520   21.2240 C   0  0  0  0  0  2  0  0  0  0  0  0
  -28.3010  -26.3020   20.5810 O   0  0  0  0  0  0  0  0  0  0  0  0
  -24.6940  -31.9540   23.4340 C   0  0  0  0  0  0  0  0  0  0  0  0
  -27.2230  -27.2190   20.5320 C   0  0  0  0  0  0  0  0  0  0  0  0
  -23.4700  -30.5350   21.8260 C   0  0  0  0  0  3  0  0  0  0  0  0
  -24.8990  -28.9100   20.4500 C   0  0  0  0  0  0  0  0  0  0  0  0
  -26.0190  -30.7860   21.6490 C   0  0  0  0  0  2  0  0  0  0  0  0
  -26.0760  -29.3840   21.0420 C   0  0  0  0  0  0  0  0  0  0  0  0
  -27.2440  -28.5520   21.0680 C   0  0  0  0  0  3  0  0  0  0  0  0
  -26.0260  -26.8120   19.9070 C   0  0  0  0  0  3  0  0  0  0  0  0
  -24.8790  -27.6320   19.8680 C   0  0  0  0  0  3  0  0  0  0  0  0
  -23.6790  -29.8150   20.4680 C   0  0  0  0  0  2  0  0  0  0  0  0
  -24.7470  -31.1120   22.3580 N   0  0  0  0  0  0  0  0  0  0  0  0
  -23.6140  -32.2680   23.9560 O   0  0  0  0  0  0  0  0  0  0  0  0
  -22.7800  -29.5620   22.8130 C   0  0  0  0  0  0  0  0  0  0  0  0
  -21.4720  -29.3270   22.6190 N   0  0  0  0  0  0  0  0  0  0  0  0
  -23.4250  -29.0190   23.7120 O   0  0  0  0  0  0  0  0  0  0  0  0
  -21.0080  -29.8160   21.8660 H   0  0  0  0  0  0  0  0  0  0  0  0
  -18.1450  -27.9290   22.9100 C   0  0  0  0  0  0  0  0  0  0  0  0
  -20.6390  -28.4100   23.4010 C   0  0  0  0  0  3  0  0  0  0  0  0
  -20.8940  -26.9400   22.9940 C   0  0  0  0  0  2  0  0  0  0  0  0
  -19.9300  -26.4350   21.9150 C   0  0  0  0  0  2  0  0  0  0  0  0
  -18.4810  -26.5360   22.4010 C   0  0  0  0  0  2  0  0  0  0  0  0
  -19.1600  -28.8130   23.3650 C   0  0  0  0  0  0  0  0  0  0  0  0
  -18.7960  -30.1060   23.7980 C   0  0  0  0  0  3  0  0  0  0  0  0
  -17.4520  -30.5210   23.7810 C   0  0  0  0  0  3  0  0  0  0  0  0
  -16.4500  -29.6370   23.3440 C   0  0  0  0  0  3  0  0  0  0  0  0
  -16.7960  -28.3430   22.9150 C   0  0  0  0  0  3  0  0  0  0  0  0
  -25.9850  -32.5800   24.0450 C   0  0  0  0  0  3  0  0  0  0  0  0
  -25.7110  -34.0010   24.3050 N   0  0  0  0  0  0  0  0  0  0  0  0
  -26.0740  -35.0080   23.4990 C   0  0  0  0  0  0  0  0  0  0  0  0
  -26.7420  -34.8380   22.4760 O   0  0  0  0  0  0  0  0  0  0  0  0
  -25.1190  -34.2100   25.0950 H   0  0  0  0  0  0  0  0  0  0  0  0
  -24.3850  -36.8230   23.0690 C   0  0  0  0  0  1  0  0  0  0  0  0
  -25.6250  -36.4300   23.8890 C   0  0  0  0  0  3  0  0  0  0  0  0
  -27.7830  -37.3110   24.6620 C   0  0  0  0  0  1  0  0  0  0  0  0
  -26.6810  -37.4500   23.7130 N   0  0  0  0  0  0  0  0  0  0  0  0
  -26.2970  -38.3870   23.8090 H   0  0  0  0  0  0  0  0  0  0  0  0
  -26.4600  -31.8570   25.3660 C   0  0  1  0  0  0  0  0  0  0  0  0
  -25.3400  -31.6870   26.4180 C   0  0  0  0  0  1  0  0  0  0  0  0
  -27.0260  -30.4540   25.0500 C   0  0  0  0  0  1  0  0  0  0  0  0
  -27.6060  -32.6640   26.0210 C   0  0  0  0  0  1  0  0  0  0  0  0
  -28.5200  -19.9640   20.7220 C   0  0  0  0  0  2  0  0  0  0  0  0
  -28.7250  -18.4330   20.1510 C   0  0  0  0  0  2  0  0  0  0  0  0
  -29.5830  -17.2300   20.8290 C   0  0  0  0  0  2  0  0  0  0  0  0
  -30.1230  -14.6980   20.1030 C   0  0  0  0  0  0  0  0  0  0  0  0
  -29.9460  -12.4900   18.9280 C   0  0  0  0  0  2  0  0  0  0  0  0
  -28.8970  -12.5990   17.7990 C   0  0  0  0  0  2  0  0  0  0  0  0
  -27.4760  -12.3360   18.3350 C   0  0  0  0  0  2  0  0  0  0  0  0
  -27.1760  -13.1080   19.6500 C   0  0  0  0  0  3  0  0  0  0  0  0
  -28.3350  -12.9780   20.6620 C   0  0  0  0  0  2  0  0  0  0  0  0
  -29.5510  -13.4490   19.9870 N   0  0  0  0  0  0  0  0  0  0  0  0
  -31.2770  -14.8860   19.7140 O   0  0  0  0  0  0  0  0  0  0  0  0
  -29.3040  -15.7560   20.4820 N   0  0  0  0  0  0  0  0  0  0  0  0
  -28.3580  -15.4630   20.6790 H   0  0  0  0  0  0  0  0  0  0  0  0
  -24.8130  -13.5190   20.5590 C   0  0  0  0  0  0  0  0  0  0  0  0
  -23.8340  -12.6680   20.9900 C   0  0  0  0  0  0  0  0  0  0  0  0
  -24.3860  -11.3530   20.9050 C   0  0  0  0  0  0  0  0  0  0  0  0
  -25.8950  -12.7190   20.2320 N   0  0  0  0  0  0  0  0  0  0  0  0
  -25.6500  -11.4100   20.5020 N   0  0  0  0  0  0  0  0  0  0  0  0
  -23.7630  -10.0400   21.1250 C   0  0  0  0  0  0  0  0  0  0  0  0
  -24.2590   -9.1390   22.0940 C   0  0  0  0  0  3  0  0  0  0  0  0
  -23.6280   -7.8930   22.2990 C   0  0  0  0  0  3  0  0  0  0  0  0
  -22.4900   -7.5370   21.5370 C   0  0  0  0  0  0  0  0  0  0  0  0
  -22.0150   -8.4290   20.5600 C   0  0  0  0  0  3  0  0  0  0  0  0
  -22.6460   -9.6670   20.3510 C   0  0  0  0  0  3  0  0  0  0  0  0
  -21.8280   -6.3390   21.6530 O   0  0  0  0  0  0  0  0  0  0  0  0
  -21.7580   -5.6670   22.8470 C   0  0  0  0  0  0  0  0  0  0  0  0
  -21.1430   -6.2320   23.9860 C   0  0  0  0  0  3  0  0  0  0  0  0
  -21.0300   -5.4790   25.1710 C   0  0  0  0  0  3  0  0  0  0  0  0
  -21.5230   -4.1610   25.2190 C   0  0  0  0  0  0  0  0  0  0  0  0
  -22.1310   -3.5950   24.0860 C   0  0  0  0  0  3  0  0  0  0  0  0
  -22.2450   -4.3450   22.9020 C   0  0  0  0  0  0  0  0  0  0  0  0
  -22.8120   -3.7870   21.8060 F   0  0  0  0  0  0  0  0  0  0  0  0
  -21.4080   -3.4350   26.3550 F   0  0  0  0  0  0  0  0  0  0  0  0
  -22.4280  -13.0440   21.3650 C   0  0  0  0  0  0  0  0  0  0  0  0
  -21.8120  -12.2910   22.2700 N   0  0  0  0  0  0  0  0  0  0  0  0
  -21.8850  -14.0410   20.8880 O   0  0  0  0  0  0  0  0  0  0  0  0
  -22.2660  -11.4890   22.6810 H   0  0  0  0  0  0  0  0  0  0  0  0
  -20.8720  -12.5220   22.5580 H   0  0  0  0  0  0  0  0  0  0  0  0
  -24.8660  -14.9000   20.3930 N   0  0  0  0  0  0  0  0  0  0  0  0
  -24.0630  -15.4940   20.5710 H   0  0  0  0  0  0  0  0  0  0  0  0
  -25.6450  -15.4030   19.9860 H   0  0  0  0  0  0  0  0  0  0  0  0
  1  4  2  0
  1  3  1  0
  3  5  2  0
  4  6  1  0
  5  2  1  0
  5 52  1  0
  6  8  1  0
  6  2  2  0
  7  4  1  0
  9  3  1  0
  9 10  1  0
 11 10  1  0
 12 23  2  0
 13 11  1  0
 13 18  1  0
 14 22  1  0
 14 24  1  0
 15 21  1  0
 15 17  1  0
 16 22  1  0
 17 18  2  0
 17 16  1  0
 19 13  2  0
 20 19  1  0
 20 15  2  0
 21 14  1  0
 22 12  1  0
 24 26  2  0
 25 24  1  0
 27 25  1  0
 28 37  2  0
 28 33  1  0
 29 25  1  0
 30 29  1  0
 31 32  1  0
 31 30  1  0
 32 28  1  0
 33 29  1  0
 33 34  2  0
 35 34  1  0
 36 35  2  0
 37 36  1  0
 38 12  1  0
 38 39  1  0
 38 48  1  0
 39 42  1  0
 40 44  1  0
 40 39  1  0
 41 40  2  0
 44 43  1  0
 46 47  1  0
 46 44  1  0
 46 45  1  0
 48 51  1  1
 48 49  1  0
 50 48  1  0
 53 52  1  0
 53 54  1  0
 55 63  1  0
 56 61  1  0
 57 58  1  0
 57 56  1  0
 59 58  1  0
 59 68  1  0
 59 60  1  0
 61 55  1  0
 61 60  1  0
 62 55  2  0
 63 64  1  0
 63 54  1  0
 65 66  2  0
 66 85  1  0
 67 66  1  0
 67 70  1  0
 68 69  1  0
 68 65  1  0
 69 67  2  0
 70 71  1  0
 71 72  2  0
 73 76  1  0
 73 72  1  0
 74 73  2  0
 75 74  1  0
 75 70  2  0
 76 77  1  0
 77 82  2  0
 77 78  1  0
 78 79  2  0
 79 80  1  0
 80 84  1  0
 81 80  2  0
 82 81  1  0
 83 82  1  0
 85 86  1  0
 86 89  1  0
 86 88  1  0
 87 85  2  0
 90 65  1  0
 90 91  1  0
 92 90  1  0
M  ISO  4  10 101  11 101  55 100  63 100
M  END
>  <TORSDO>  (48) 
F 21

>  <SCORE>  (48) 
-12.197

>  <name>  (48) 
47

>  <ligand_id>  (48) 
47

>  <original_smiles>  (48) 
[H]c1c([H])c([H])c2c(c1[H])C([H])([H])C([H])([H])C([H])([H])C2([H])N([H])C(=O)C1([H])N(C(=O)C([H])(N([H])C(=O)C([H])(N([H])C([H])([H])[H])C([H])([H])[H])C(C([H])([H])[H])(C([H])([H])[H])C([H])([H])[H])C([H])([H])c2c([H])c(OC([H])([H])C([H])([H])c3c([H])c(C([H])([H])[H])c(F)c([H])c3C([H])([H])C([H])([H])C([H])([H])N([H])C(=O)N3C([H])([H])C([H])([H])C([H])([H])C([H])(n4nc(-c5c([H])c([H])c(Oc6c([H])c([H])c(F)c([H])c6F)c([H])c5[H])c(C(=O)N([H])[H])c4N([H])[H])C3([H])[H])c([H])c([H])c2C1([H])[H]

>  <smiles>  (48) 
[H]c1c([H])c([H])c2c(c1[H])C([H])([H])C([H])([H])C([H])([H])C2([H])N([H])C(=O)C1([H])N(C(=O)C([H])(N([H])C(=O)C([H])(N([H])C([H])([H])[H])C([H])([H])[H])C(C([H])([H])[H])(C([H])([H])[H])C([H])([H])[H])C([H])([H])c2c([H])c(OC([H])([H])C([H])([H])c3c([H])c(C([H])([H])[H])c(F)c([H])c3C([H])([H])C([H])([H])C([H])([H])N([H])C(=O)N3C([H])([H])C([H])([H])C([H])([H])C([H])(n4nc(-c5c([H])c([H])c(Oc6c([H])c([H])c(F)c([H])c6F)c([H])c5[H])c(C(=O)N([H])[H])c4N([H])[H])C3([H])[H])c([H])c([H])c2C1([H])[H]

$$$$
48:0:0
     RDKit          3D

 89 97  0  0  1  0  0  0  0  0999 V2000
  -27.2120  -24.1090   20.9600 C   0  0  0  0  0  3  0  0  0  0  0  0
  -28.1150  -23.8910   19.8850 C   0  0  0  0  0  0  0  0  0  0  0  0
  -28.4310  -22.4540   19.9820 C   0  0  0  0  0  0  0  0  0  0  0  0
  -27.8440  -20.8850   21.9660 C   0  0  0  0  0  1  0  0  0  0  0  0
  -27.0380  -23.0710   21.7320 N   0  0  0  0  0  0  0  0  0  0  0  0
  -27.7990  -22.1090   21.1900 N   0  0  0  0  0  0  0  0  0  0  0  0
  -28.3370  -25.2670   19.0150 C   0  0  0  0  0  2  0  0  0  0  0  0
  -28.2510  -26.7140   19.6000 O   0  0  0  0  0  0  0  0  0  0  0  0
  -24.5610  -31.9120   23.2480 C   0  0  0  0  0  0  0  0  0  0  0  0
  -27.1330  -27.6170   19.6490 C   0  0  0  0  0  0  0  0  0  0  0  0
  -23.3190  -30.6110   21.5610 C   0  0  0  0  0  3  0  0  0  0  0  0
  -24.7380  -29.2430   19.9080 C   0  0  0  0  0  0  0  0  0  0  0  0
  -25.8450  -31.0120   21.2770 C   0  0  0  0  0  2  0  0  0  0  0  0
  -25.9310  -29.6910   20.4880 C   0  0  0  0  0  0  0  0  0  0  0  0
  -27.1240  -28.8940   20.3440 C   0  0  0  0  0  3  0  0  0  0  0  0
  -25.9080  -27.2590   19.0490 C   0  0  0  0  0  3  0  0  0  0  0  0
  -24.7390  -28.0420   19.1780 C   0  0  0  0  0  3  0  0  0  0  0  0
  -23.4790  -30.0730   20.1130 C   0  0  0  0  0  2  0  0  0  0  0  0
  -24.5960  -31.1980   22.0810 N   0  0  0  0  0  0  0  0  0  0  0  0
  -23.4990  -32.0980   23.8620 O   0  0  0  0  0  0  0  0  0  0  0  0
  -22.7390  -29.4940   22.4610 C   0  0  0  0  0  0  0  0  0  0  0  0
  -21.4320  -29.2180   22.3280 N   0  0  0  0  0  0  0  0  0  0  0  0
  -23.4650  -28.8770   23.2440 O   0  0  0  0  0  0  0  0  0  0  0  0
  -20.8960  -29.7650   21.6670 H   0  0  0  0  0  0  0  0  0  0  0  0
  -18.1910  -27.6590   22.7130 C   0  0  0  0  0  0  0  0  0  0  0  0
  -20.7020  -28.1720   23.0460 C   0  0  0  0  0  3  0  0  0  0  0  0
  -20.9630  -26.7820   22.4200 C   0  0  0  0  0  2  0  0  0  0  0  0
  -19.9180  -26.3860   21.3700 C   0  0  0  0  0  2  0  0  0  0  0  0
  -18.5170  -26.3620   21.9910 C   0  0  0  0  0  2  0  0  0  0  0  0
  -19.2160  -28.5130   23.1950 C   0  0  0  0  0  0  0  0  0  0  0  0
  -18.8590  -29.7200   23.8360 C   0  0  0  0  0  3  0  0  0  0  0  0
  -17.5070  -30.0700   23.9980 C   0  0  0  0  0  3  0  0  0  0  0  0
  -16.4960  -29.2160   23.5270 C   0  0  0  0  0  3  0  0  0  0  0  0
  -16.8360  -28.0120   22.8920 C   0  0  0  0  0  3  0  0  0  0  0  0
  -25.8520  -32.5430   23.8580 C   0  0  0  0  0  3  0  0  0  0  0  0
  -26.4110  -31.7370   25.0950 C   0  0  1  0  0  0  0  0  0  0  0  0
  -25.3460  -31.4410   26.1750 C   0  0  0  0  0  1  0  0  0  0  0  0
  -27.0080  -30.3830   24.6500 C   0  0  0  0  0  1  0  0  0  0  0  0
  -27.5640  -32.5270   25.7580 C   0  0  0  0  0  1  0  0  0  0  0  0
  -25.5300  -33.9220   24.2530 N   0  0  0  0  0  0  0  0  0  0  0  0
  -25.8440  -35.0150   23.5440 C   0  0  0  0  0  0  0  0  0  0  0  0
  -26.5020  -34.9640   22.5020 O   0  0  0  0  0  0  0  0  0  0  0  0
  -24.9490  -34.0340   25.0710 H   0  0  0  0  0  0  0  0  0  0  0  0
  -24.0980  -36.8090   23.2920 C   0  0  0  0  0  1  0  0  0  0  0  0
  -25.3490  -36.3750   24.0720 C   0  0  0  0  0  3  0  0  0  0  0  0
  -27.4750  -37.2440   24.9400 C   0  0  0  0  0  1  0  0  0  0  0  0
  -26.3710  -37.4410   24.0050 N   0  0  0  0  0  0  0  0  0  0  0  0
  -25.9560  -38.3500   24.1890 H   0  0  0  0  0  0  0  0  0  0  0  0
  -29.3150  -21.2260   19.2790 C   0  0  0  0  0  2  0  0  0  0  0  0
  -29.0410  -19.5280   19.3010 C   0  0  0  0  0  3  0  0  0  0  0  0
  -30.2020  -18.2890   19.1520 C   0  0  0  0  0  3  0  0  0  0  0  0
  -30.8560  -15.6050   19.4920 C   0  0  0  0  0  0  0  0  0  0  0  0
  -30.8580  -13.1620   18.8300 C   0  0  0  0  0  2  0  0  0  0  0  0
  -29.8660  -12.9240   17.6680 C   0  0  0  0  0  2  0  0  0  0  0  0
  -28.4460  -12.6770   18.2190 C   0  0  0  0  0  2  0  0  0  0  0  0
  -28.0410  -13.7180   19.2950 C   0  0  0  0  0  3  0  0  0  0  0  0
  -29.1490  -13.8910   20.3570 C   0  0  0  0  0  2  0  0  0  0  0  0
  -30.3530  -14.3120   19.6330 N   0  0  0  0  0  0  0  0  0  0  0  0
  -32.0400  -15.7030   19.1460 O   0  0  0  0  0  0  0  0  0  0  0  0
  -30.0000  -16.7490   19.5210 N   0  0  0  0  0  0  0  0  0  0  0  0
  -29.0600  -16.5210   19.8110 H   0  0  0  0  0  0  0  0  0  0  0  0
  -25.7260  -14.2960   20.2180 C   0  0  0  0  0  0  0  0  0  0  0  0
  -24.6880  -13.5180   20.6460 C   0  0  0  0  0  0  0  0  0  0  0  0
  -25.1420  -12.1660   20.5600 C   0  0  0  0  0  0  0  0  0  0  0  0
  -26.7440  -13.4170   19.8860 N   0  0  0  0  0  0  0  0  0  0  0  0
  -26.4070  -12.1300   20.1570 N   0  0  0  0  0  0  0  0  0  0  0  0
  -24.4280  -10.9030   20.7790 C   0  0  0  0  0  0  0  0  0  0  0  0
  -24.8120   -9.9990   21.7930 C   0  0  0  0  0  3  0  0  0  0  0  0
  -24.0940   -8.8000   21.9950 C   0  0  0  0  0  3  0  0  0  0  0  0
  -22.9810   -8.4940   21.1800 C   0  0  0  0  0  0  0  0  0  0  0  0
  -22.6150   -9.3870   20.1590 C   0  0  0  0  0  3  0  0  0  0  0  0
  -23.3320  -10.5760   19.9560 C   0  0  0  0  0  3  0  0  0  0  0  0
  -22.2380   -7.3420   21.2910 O   0  0  0  0  0  0  0  0  0  0  0  0
  -21.9650   -6.7770   22.5090 C   0  0  0  0  0  0  0  0  0  0  0  0
  -21.2690   -7.4790   23.5180 C   0  0  0  0  0  3  0  0  0  0  0  0
  -20.9500   -6.8310   24.7300 C   0  0  0  0  0  3  0  0  0  0  0  0
  -21.3150   -5.4880   24.9290 C   0  0  0  0  0  0  0  0  0  0  0  0
  -22.0050   -4.7880   23.9260 C   0  0  0  0  0  3  0  0  0  0  0  0
  -22.3260   -5.4300   22.7170 C   0  0  0  0  0  0  0  0  0  0  0  0
  -22.9710   -4.7440   21.7430 F   0  0  0  0  0  0  0  0  0  0  0  0
  -21.0010   -4.8670   26.0920 F   0  0  0  0  0  0  0  0  0  0  0  0
  -23.3130  -13.9970   21.0130 C   0  0  0  0  0  0  0  0  0  0  0  0
  -22.6480  -13.3080   21.9330 N   0  0  0  0  0  0  0  0  0  0  0  0
  -22.8420  -15.0210   20.5230 O   0  0  0  0  0  0  0  0  0  0  0  0
  -23.0410  -12.4820   22.3550 H   0  0  0  0  0  0  0  0  0  0  0  0
  -21.7290  -13.6160   22.2180 H   0  0  0  0  0  0  0  0  0  0  0  0
  -25.8840  -15.6690   20.0530 N   0  0  0  0  0  0  0  0  0  0  0  0
  -25.1240  -16.3160   20.2360 H   0  0  0  0  0  0  0  0  0  0  0  0
  -26.6800  -16.1160   19.6180 H   0  0  0  0  0  0  0  0  0  0  0  0
  1  5  2  0
  2  3  2  0
  2  1  1  0
  3  6  1  0
  6  5  1  0
  6  4  1  0
  7  8  1  0
  7  2  1  0
  8 10  1  0
  9 20  2  0
 10 15  1  0
 11 19  1  0
 11 21  1  0
 12 18  1  0
 12 14  1  0
 13 19  1  0
 14 13  1  0
 15 14  2  0
 16 17  1  0
 16 10  2  0
 17 12  2  0
 18 11  1  0
 19  9  1  0
 21 23  2  0
 22 21  1  0
 24 22  1  0
 25 34  2  0
 25 30  1  0
 26 22  1  0
 26 30  1  0
 27 26  1  0
 28 29  1  0
 28 27  1  0
 29 25  1  0
 30 31  2  0
 31 32  1  0
 33 32  2  0
 34 33  1  0
 35  9  1  0
 35 40  1  0
 35 36  1  0
 36 39  1  1
 36 37  1  0
 38 36  1  0
 40 43  1  0
 41 45  1  0
 41 40  1  0
 42 41  2  0
 45 44  1  0
 47 45  1  0
 47 48  1  0
 47 46  1  0
 49 50  1  0
 49  3  1  0
 51 50  2  0
 51 60  1  0
 52 60  1  0
 52 58  1  0
 53 58  1  0
 54 55  1  0
 54 53  1  0
 56 55  1  0
 56 65  1  0
 56 57  1  0
 58 57  1  0
 59 52  2  0
 60 61  1  0
 62 63  2  0
 63 82  1  0
 64 63  1  0
 64 67  1  0
 65 66  1  0
 65 62  1  0
 66 64  2  0
 67 68  1  0
 68 69  2  0
 70 73  1  0
 70 69  1  0
 71 70  2  0
 72 71  1  0
 72 67  2  0
 73 74  1  0
 74 79  2  0
 74 75  1  0
 75 76  2  0
 76 77  1  0
 77 81  1  0
 78 77  2  0
 79 78  1  0
 80 79  1  0
 82 83  1  0
 83 86  1  0
 83 85  1  0
 84 82  2  0
 87 62  1  0
 87 88  1  0
 89 87  1  0
M  ISO  4   7 101   8 101  52 100  60 100
M  END
>  <TORSDO>  (49) 
F 20

>  <SCORE>  (49) 
-11.873

>  <name>  (49) 
48

>  <ligand_id>  (49) 
48

>  <original_smiles>  (49) 
[H]c1nn(C([H])([H])[H])c(C([H])([H])C([H])([H])C([H])([H])N([H])C(=O)N2C([H])([H])C([H])([H])C([H])([H])C([H])(n3nc(-c4c([H])c([H])c(Oc5c([H])c([H])c(F)c([H])c5F)c([H])c4[H])c(C(=O)N([H])[H])c3N([H])[H])C2([H])[H])c1C([H])([H])Oc1c([H])c([H])c2c(c1[H])C([H])([H])N(C(=O)C([H])(N([H])C(=O)C([H])(N([H])C([H])([H])[H])C([H])([H])[H])C(C([H])([H])[H])(C([H])([H])[H])C([H])([H])[H])C([H])(C(=O)N([H])C1([H])c3c([H])c([H])c([H])c([H])c3C([H])([H])C([H])([H])C1([H])[H])C2([H])[H]

>  <smiles>  (49) 
[H]c1nn(C([H])([H])[H])c(C([H])([H])C([H])([H])C([H])([H])N([H])C(=O)N2C([H])([H])C([H])([H])C([H])([H])C([H])(n3nc(-c4c([H])c([H])c(Oc5c([H])c([H])c(F)c([H])c5F)c([H])c4[H])c(C(=O)N([H])[H])c3N([H])[H])C2([H])[H])c1C([H])([H])Oc1c([H])c([H])c2c(c1[H])C([H])([H])N(C(=O)C([H])(N([H])C(=O)C([H])(N([H])C([H])([H])[H])C([H])([H])[H])C(C([H])([H])[H])(C([H])([H])[H])C([H])([H])[H])C([H])(C(=O)N([H])C1([H])c3c([H])c([H])c([H])c([H])c3C([H])([H])C([H])([H])C1([H])[H])C2([H])[H]

$$$$
49:0:0
     RDKit          3D

 91 99  0  0  1  0  0  0  0  0999 V2000
  -27.6100  -22.5390   18.2950 C   0  0  0  0  0  3  0  0  0  0  0  0
  -28.4790  -22.2920   19.3870 C   0  0  0  0  0  0  0  0  0  0  0  0
  -28.8670  -20.8780   19.4970 C   0  0  0  0  0  0  0  0  0  0  0  0
  -27.8600  -20.4660   17.4430 C   0  0  0  0  0  0  0  0  0  0  0  0
  -27.6160  -19.4950   16.3070 C   0  0  0  0  0  1  0  0  0  0  0  0
  -27.3070  -21.6530   17.3410 N   0  0  0  0  0  0  0  0  0  0  0  0
  -28.6000  -20.0560   18.4570 N   0  0  0  0  0  0  0  0  0  0  0  0
  -28.9040  -23.5950   20.2100 C   0  0  0  0  0  3  0  0  0  0  0  0
  -28.1490  -24.9760   19.7880 C   0  0  0  0  0  3  0  0  0  0  0  0
  -28.4020  -26.3980   20.1830 O   0  0  0  0  0  0  0  0  0  0  0  0
  -24.7160  -31.8460   23.2410 C   0  0  0  0  0  0  0  0  0  0  0  0
  -27.3160  -27.3100   20.1020 C   0  0  0  0  0  0  0  0  0  0  0  0
  -23.5140  -30.4840   21.5750 C   0  0  0  0  0  3  0  0  0  0  0  0
  -24.9650  -28.9690   20.1140 C   0  0  0  0  0  0  0  0  0  0  0  0
  -26.0590  -30.7900   21.4050 C   0  0  0  0  0  2  0  0  0  0  0  0
  -26.1370  -29.4240   20.7310 C   0  0  0  0  0  0  0  0  0  0  0  0
  -27.3120  -28.6040   20.7230 C   0  0  0  0  0  3  0  0  0  0  0  0
  -26.1220  -26.9490   19.4250 C   0  0  0  0  0  3  0  0  0  0  0  0
  -24.9630  -27.7390   19.4480 C   0  0  0  0  0  3  0  0  0  0  0  0
  -23.7300  -29.8460   20.1800 C   0  0  0  0  0  2  0  0  0  0  0  0
  -24.7830  -31.0550   22.1310 N   0  0  0  0  0  0  0  0  0  0  0  0
  -23.6310  -32.1160   23.7770 O   0  0  0  0  0  0  0  0  0  0  0  0
  -22.8480  -29.4450   22.5100 C   0  0  0  0  0  0  0  0  0  0  0  0
  -21.5200  -29.2810   22.3870 N   0  0  0  0  0  0  0  0  0  0  0  0
  -23.5250  -28.7940   23.3100 O   0  0  0  0  0  0  0  0  0  0  0  0
  -21.0300  -29.8580   21.7160 H   0  0  0  0  0  0  0  0  0  0  0  0
  -18.1340  -28.1100   22.8880 C   0  0  0  0  0  0  0  0  0  0  0  0
  -20.6970  -28.3350   23.1440 C   0  0  0  0  0  3  0  0  0  0  0  0
  -20.7800  -26.9170   22.5350 C   0  0  0  0  0  2  0  0  0  0  0  0
  -19.6670  -26.6290   21.5230 C   0  0  0  0  0  2  0  0  0  0  0  0
  -18.2910  -26.7750   22.1800 C   0  0  0  0  0  2  0  0  0  0  0  0
  -19.2640  -28.8490   23.3270 C   0  0  0  0  0  0  0  0  0  0  0  0
  -19.0630  -30.1000   23.9520 C   0  0  0  0  0  3  0  0  0  0  0  0
  -17.7650  -30.6100   24.1420 C   0  0  0  0  0  3  0  0  0  0  0  0
  -16.6500  -29.8670   23.7190 C   0  0  0  0  0  3  0  0  0  0  0  0
  -16.8350  -28.6190   23.0970 C   0  0  0  0  0  3  0  0  0  0  0  0
  -25.9990  -32.4680   23.8740 C   0  0  0  0  0  3  0  0  0  0  0  0
  -25.6770  -33.8500   24.2570 N   0  0  0  0  0  0  0  0  0  0  0  0
  -26.0260  -34.9350   23.5550 C   0  0  0  0  0  0  0  0  0  0  0  0
  -26.7210  -34.8790   22.5360 O   0  0  0  0  0  0  0  0  0  0  0  0
  -25.0630  -33.9680   25.0490 H   0  0  0  0  0  0  0  0  0  0  0  0
  -24.3290  -36.7620   23.2180 C   0  0  0  0  0  1  0  0  0  0  0  0
  -25.5260  -36.3010   24.0640 C   0  0  0  0  0  3  0  0  0  0  0  0
  -27.6230  -37.1180   25.0450 C   0  0  0  0  0  1  0  0  0  0  0  0
  -26.5690  -37.3510   24.0620 N   0  0  0  0  0  0  0  0  0  0  0  0
  -26.1600  -38.2620   24.2460 H   0  0  0  0  0  0  0  0  0  0  0  0
  -26.5290  -31.6550   25.1180 C   0  0  1  0  0  0  0  0  0  0  0  0
  -25.4450  -31.3700   26.1820 C   0  0  0  0  0  1  0  0  0  0  0  0
  -27.1210  -30.2970   24.6730 C   0  0  0  0  0  1  0  0  0  0  0  0
  -27.6780  -32.4330   25.8020 C   0  0  0  0  0  1  0  0  0  0  0  0
  -29.6370  -20.0400   20.5940 C   0  0  0  0  0  2  0  0  0  0  0  0
  -29.2290  -18.4620   20.7480 C   0  0  0  0  0  3  0  0  0  0  0  0
  -30.2680  -17.3410   21.2570 C   0  0  0  0  0  3  0  0  0  0  0  0
  -30.6180  -14.7570   20.9750 C   0  0  0  0  0  0  0  0  0  0  0  0
  -30.5090  -12.4980   19.9230 C   0  0  0  0  0  2  0  0  0  0  0  0
  -29.6610  -12.5840   18.6360 C   0  0  0  0  0  2  0  0  0  0  0  0
  -28.1670  -12.3790   18.9590 C   0  0  0  0  0  2  0  0  0  0  0  0
  -27.6910  -13.2430   20.1590 C   0  0  0  0  0  3  0  0  0  0  0  0
  -28.6700  -13.1620   21.3520 C   0  0  0  0  0  2  0  0  0  0  0  0
  -30.0030  -13.5310   20.8550 N   0  0  0  0  0  0  0  0  0  0  0  0
  -31.8110  -14.8820   20.6880 O   0  0  0  0  0  0  0  0  0  0  0  0
  -29.8440  -15.8730   21.2250 N   0  0  0  0  0  0  0  0  0  0  0  0
  -28.8770  -15.6880   21.4520 H   0  0  0  0  0  0  0  0  0  0  0  0
  -25.2370  -13.7680   20.6890 C   0  0  0  0  0  0  0  0  0  0  0  0
  -24.1680  -12.9700   20.9900 C   0  0  0  0  0  0  0  0  0  0  0  0
  -24.6690  -11.6310   21.0140 C   0  0  0  0  0  0  0  0  0  0  0  0
  -26.3220  -12.9180   20.5480 N   0  0  0  0  0  0  0  0  0  0  0  0
  -25.9820  -11.6270   20.8030 N   0  0  0  0  0  0  0  0  0  0  0  0
  -23.9670  -10.3510   21.1670 C   0  0  0  0  0  0  0  0  0  0  0  0
  -24.3620   -9.4030   22.1350 C   0  0  0  0  0  3  0  0  0  0  0  0
  -23.6570   -8.1880   22.2770 C   0  0  0  0  0  3  0  0  0  0  0  0
  -22.5430   -7.9130   21.4490 C   0  0  0  0  0  0  0  0  0  0  0  0
  -22.1680   -8.8510   20.4710 C   0  0  0  0  0  3  0  0  0  0  0  0
  -22.8730  -10.0570   20.3280 C   0  0  0  0  0  3  0  0  0  0  0  0
  -21.8140   -6.7510   21.4960 O   0  0  0  0  0  0  0  0  0  0  0  0
  -21.7080   -6.0140   22.6490 C   0  0  0  0  0  0  0  0  0  0  0  0
  -21.1770   -6.5610   23.8370 C   0  0  0  0  0  3  0  0  0  0  0  0
  -21.0240   -5.7500   24.9790 C   0  0  0  0  0  3  0  0  0  0  0  0
  -21.3900   -4.3920   24.9330 C   0  0  0  0  0  0  0  0  0  0  0  0
  -21.9120   -3.8430   23.7480 C   0  0  0  0  0  3  0  0  0  0  0  0
  -22.0690   -4.6520   22.6090 C   0  0  0  0  0  0  0  0  0  0  0  0
  -22.5530   -4.1140   21.4650 F   0  0  0  0  0  0  0  0  0  0  0  0
  -21.2350   -3.6080   26.0260 F   0  0  0  0  0  0  0  0  0  0  0  0
  -22.7420  -13.4090   21.1490 C   0  0  0  0  0  0  0  0  0  0  0  0
  -21.9730  -12.7030   21.9670 N   0  0  0  0  0  0  0  0  0  0  0  0
  -22.3180  -14.4170   20.5840 O   0  0  0  0  0  0  0  0  0  0  0  0
  -22.3290  -11.8920   22.4500 H   0  0  0  0  0  0  0  0  0  0  0  0
  -21.0130  -12.9810   22.1180 H   0  0  0  0  0  0  0  0  0  0  0  0
  -25.3710  -15.1410   20.5020 N   0  0  0  0  0  0  0  0  0  0  0  0
  -24.5730  -15.7660   20.5430 H   0  0  0  0  0  0  0  0  0  0  0  0
  -26.2230  -15.6060   20.2170 H   0  0  0  0  0  0  0  0  0  0  0  0
  1  2  2  0
  2  3  1  0
  2  8  1  0
  3 51  1  0
  4  7  1  0
  5  4  1  0
  6  4  2  0
  6  1  1  0
  7  3  2  0
  9 10  1  0
  9  8  2  0
 11 22  2  0
 12 10  1  0
 12 17  1  0
 13 21  1  0
 13 23  1  0
 14 20  1  0
 14 16  1  0
 15 21  1  0
 16 15  1  0
 17 16  2  0
 18 19  1  0
 18 12  2  0
 19 14  2  0
 20 13  1  0
 21 11  1  0
 23 25  2  0
 24 23  1  0
 26 24  1  0
 27 36  2  0
 27 32  1  0
 28 24  1  0
 28 32  1  0
 29 28  1  0
 30 31  1  0
 30 29  1  0
 31 27  1  0
 32 33  2  0
 33 34  1  0
 35 34  2  0
 36 35  1  0
 37 11  1  0
 37 38  1  0
 37 47  1  0
 38 41  1  0
 39 43  1  0
 39 38  1  0
 40 39  2  0
 43 42  1  0
 45 43  1  0
 45 46  1  0
 45 44  1  0
 47 50  1  1
 47 48  1  0
 49 47  1  0
 51 52  1  0
 52 53  2  0
 54 62  1  0
 55 60  1  0
 56 57  1  0
 56 55  1  0
 58 57  1  0
 58 67  1  0
 58 59  1  0
 60 54  1  0
 60 59  1  0
 61 54  2  0
 62 53  1  0
 62 63  1  0
 64 65  2  0
 65 66  1  0
 65 84  1  0
 66 69  1  0
 67 64  1  0
 67 68  1  0
 68 66  2  0
 69 70  1  0
 70 71  2  0
 72 75  1  0
 72 71  1  0
 73 72  2  0
 74 73  1  0
 74 69  2  0
 75 76  1  0
 76 77  1  0
 77 78  2  0
 79 78  1  0
 79 83  1  0
 80 79  2  0
 81 76  2  0
 81 80  1  0
 82 81  1  0
 84 85  1  0
 85 88  1  0
 85 87  1  0
 86 84  2  0
 89 90  1  0
 89 64  1  0
 91 89  1  0
M  ISO  4   9 101  10 101  54 100  62 100
M  END
>  <TORSDO>  (50) 
F 21

>  <SCORE>  (50) 
-13.205

>  <name>  (50) 
49

>  <ligand_id>  (50) 
49

>  <original_smiles>  (50) 
[H]c1nc(C([H])([H])[H])nc(C([H])([H])C([H])([H])C([H])([H])N([H])C(=O)N2C([H])([H])C([H])([H])C([H])([H])C([H])(n3nc(-c4c([H])c([H])c(Oc5c([H])c([H])c(F)c([H])c5F)c([H])c4[H])c(C(=O)N([H])[H])c3N([H])[H])C2([H])[H])c1C([H])([H])C([H])([H])Oc1c([H])c([H])c2c(c1[H])C([H])([H])N(C(=O)C([H])(N([H])C(=O)C([H])(N([H])C([H])([H])[H])C([H])([H])[H])C(C([H])([H])[H])(C([H])([H])[H])C([H])([H])[H])C([H])(C(=O)N([H])C1([H])c3c([H])c([H])c([H])c([H])c3C([H])([H])C([H])([H])C1([H])[H])C2([H])[H]

>  <smiles>  (50) 
[H]c1nc(C([H])([H])[H])nc(C([H])([H])C([H])([H])C([H])([H])N([H])C(=O)N2C([H])([H])C([H])([H])C([H])([H])C([H])(n3nc(-c4c([H])c([H])c(Oc5c([H])c([H])c(F)c([H])c5F)c([H])c4[H])c(C(=O)N([H])[H])c3N([H])[H])C2([H])[H])c1C([H])([H])C([H])([H])Oc1c([H])c([H])c2c(c1[H])C([H])([H])N(C(=O)C([H])(N([H])C(=O)C([H])(N([H])C([H])([H])[H])C([H])([H])[H])C(C([H])([H])[H])(C([H])([H])[H])C([H])([H])[H])C([H])(C(=O)N([H])C1([H])c3c([H])c([H])c([H])c([H])c3C([H])([H])C([H])([H])C1([H])[H])C2([H])[H]

$$$$
50:0:0
     RDKit          3D

 90 98  0  0  1  0  0  0  0  0999 V2000
  -29.5480  -22.7650   19.3130 C   0  0  0  0  0  3  0  0  0  0  0  0
  -29.0050  -23.9370   19.8640 C   0  0  0  0  0  0  0  0  0  0  0  0
  -29.1100  -22.2610   21.4050 C   0  0  0  0  0  3  0  0  0  0  0  0
  -29.0130  -21.5800   22.7320 C   0  0  0  0  0  1  0  0  0  0  0  0
  -29.6270  -21.7430   20.2710 N   0  0  0  0  0  0  0  0  0  0  0  0
  -28.7330  -23.5430   21.1560 N   0  0  0  0  0  0  0  0  0  0  0  0
  -28.3050  -24.1500   21.8440 H   0  0  0  0  0  0  0  0  0  0  0  0
  -28.6520  -25.3360   19.2120 C   0  0  0  0  0  2  0  0  0  0  0  0
  -28.5590  -26.6330   19.9690 O   0  0  0  0  0  0  0  0  0  0  0  0
  -24.7130  -31.8470   23.2450 C   0  0  0  0  0  0  0  0  0  0  0  0
  -27.4280  -27.4850   19.9320 C   0  0  0  0  0  0  0  0  0  0  0  0
  -23.5410  -30.4960   21.5460 C   0  0  0  0  0  3  0  0  0  0  0  0
  -25.0240  -29.0670   20.0290 C   0  0  0  0  0  0  0  0  0  0  0  0
  -26.0750  -30.8890   21.3670 C   0  0  0  0  0  2  0  0  0  0  0  0
  -26.1890  -29.5470   20.6410 C   0  0  0  0  0  0  0  0  0  0  0  0
  -27.3910  -28.7680   20.5800 C   0  0  0  0  0  3  0  0  0  0  0  0
  -26.2250  -27.0660   19.3200 C   0  0  0  0  0  3  0  0  0  0  0  0
  -25.0470  -27.8340   19.3650 C   0  0  0  0  0  3  0  0  0  0  0  0
  -23.7640  -29.9000   20.1330 C   0  0  0  0  0  2  0  0  0  0  0  0
  -24.7960  -31.0940   22.1090 N   0  0  0  0  0  0  0  0  0  0  0  0
  -23.6250  -32.0640   23.7990 O   0  0  0  0  0  0  0  0  0  0  0  0
  -22.9170  -29.4130   22.4580 C   0  0  0  0  0  0  0  0  0  0  0  0
  -21.6050  -29.1690   22.3000 N   0  0  0  0  0  0  0  0  0  0  0  0
  -23.6130  -28.7980   23.2680 O   0  0  0  0  0  0  0  0  0  0  0  0
  -21.1000  -29.7140   21.6140 H   0  0  0  0  0  0  0  0  0  0  0  0
  -18.2980  -27.7450   22.6690 C   0  0  0  0  0  0  0  0  0  0  0  0
  -20.8240  -28.1620   23.0230 C   0  0  0  0  0  3  0  0  0  0  0  0
  -21.0370  -26.7560   22.4180 C   0  0  0  0  0  2  0  0  0  0  0  0
  -19.9880  -26.3860   21.3630 C   0  0  0  0  0  2  0  0  0  0  0  0
  -18.5830  -26.4260   21.9700 C   0  0  0  0  0  2  0  0  0  0  0  0
  -19.3520  -28.5670   23.1490 C   0  0  0  0  0  0  0  0  0  0  0  0
  -19.0350  -29.7960   23.7660 C   0  0  0  0  0  3  0  0  0  0  0  0
  -17.6970  -30.2080   23.9070 C   0  0  0  0  0  3  0  0  0  0  0  0
  -16.6560  -29.3850   23.4440 C   0  0  0  0  0  3  0  0  0  0  0  0
  -16.9570  -28.1560   22.8300 C   0  0  0  0  0  3  0  0  0  0  0  0
  -25.9790  -32.4900   23.8890 C   0  0  0  0  0  3  0  0  0  0  0  0
  -26.5050  -31.6970   25.1480 C   0  0  1  0  0  0  0  0  0  0  0  0
  -25.4110  -31.4070   26.2020 C   0  0  0  0  0  1  0  0  0  0  0  0
  -27.1220  -30.3420   24.7280 C   0  0  0  0  0  1  0  0  0  0  0  0
  -27.6340  -32.4980   25.8400 C   0  0  0  0  0  1  0  0  0  0  0  0
  -25.6360  -33.8710   24.2610 N   0  0  0  0  0  0  0  0  0  0  0  0
  -25.9470  -34.9550   23.5380 C   0  0  0  0  0  0  0  0  0  0  0  0
  -26.6220  -34.9020   22.5070 O   0  0  0  0  0  0  0  0  0  0  0  0
  -25.0330  -33.9850   25.0620 H   0  0  0  0  0  0  0  0  0  0  0  0
  -24.1820  -36.7210   23.2340 C   0  0  0  0  0  1  0  0  0  0  0  0
  -25.4270  -36.3170   24.0400 C   0  0  0  0  0  3  0  0  0  0  0  0
  -27.5300  -37.2230   24.9220 C   0  0  0  0  0  1  0  0  0  0  0  0
  -26.4360  -37.3960   23.9700 N   0  0  0  0  0  0  0  0  0  0  0  0
  -26.0070  -38.3010   24.1390 H   0  0  0  0  0  0  0  0  0  0  0  0
  -30.3740  -20.3820   20.1500 C   0  0  0  0  0  2  0  0  0  0  0  0
  -29.7270  -18.9040   20.3560 C   0  0  0  0  0  3  0  0  0  0  0  0
  -30.7190  -17.6280   20.1610 C   0  0  0  0  0  3  0  0  0  0  0  0
  -30.9690  -15.0210   20.0680 C   0  0  0  0  0  0  0  0  0  0  0  0
  -30.6790  -12.7590   19.0500 C   0  0  0  0  0  2  0  0  0  0  0  0
  -29.7220  -12.8910   17.8470 C   0  0  0  0  0  2  0  0  0  0  0  0
  -28.2580  -12.7430   18.3050 C   0  0  0  0  0  2  0  0  0  0  0  0
  -27.9340  -13.6070   19.5530 C   0  0  0  0  0  3  0  0  0  0  0  0
  -29.0210  -13.4930   20.6430 C   0  0  0  0  0  2  0  0  0  0  0  0
  -30.3070  -13.8160   20.0160 N   0  0  0  0  0  0  0  0  0  0  0  0
  -32.1470  -15.0910   19.7060 O   0  0  0  0  0  0  0  0  0  0  0  0
  -30.2450  -16.1800   20.3090 N   0  0  0  0  0  0  0  0  0  0  0  0
  -29.2790  -16.0480   20.5680 H   0  0  0  0  0  0  0  0  0  0  0  0
  -25.5750  -14.2180   20.3470 C   0  0  0  0  0  0  0  0  0  0  0  0
  -24.5110  -13.4520   20.7370 C   0  0  0  0  0  0  0  0  0  0  0  0
  -24.9570  -12.0960   20.6810 C   0  0  0  0  0  0  0  0  0  0  0  0
  -26.6010  -13.3300   20.0760 N   0  0  0  0  0  0  0  0  0  0  0  0
  -26.2390  -12.0480   20.3390 N   0  0  0  0  0  0  0  0  0  0  0  0
  -24.2200  -10.8410   20.8780 C   0  0  0  0  0  0  0  0  0  0  0  0
  -24.6300   -9.8830   21.8330 C   0  0  0  0  0  3  0  0  0  0  0  0
  -23.8920   -8.6940   22.0200 C   0  0  0  0  0  3  0  0  0  0  0  0
  -22.7280   -8.4540   21.2500 C   0  0  0  0  0  0  0  0  0  0  0  0
  -22.3360   -9.4000   20.2860 C   0  0  0  0  0  3  0  0  0  0  0  0
  -23.0750  -10.5800   20.0990 C   0  0  0  0  0  3  0  0  0  0  0  0
  -21.9630   -7.3160   21.3420 O   0  0  0  0  0  0  0  0  0  0  0  0
  -21.8440   -6.6230   22.5200 C   0  0  0  0  0  0  0  0  0  0  0  0
  -21.3090   -7.2190   23.6830 C   0  0  0  0  0  3  0  0  0  0  0  0
  -21.1390   -6.4520   24.8530 C   0  0  0  0  0  3  0  0  0  0  0  0
  -21.4940   -5.0900   24.8580 C   0  0  0  0  0  0  0  0  0  0  0  0
  -22.0240   -4.4940   23.7000 C   0  0  0  0  0  3  0  0  0  0  0  0
  -22.1950   -5.2580   22.5330 C   0  0  0  0  0  0  0  0  0  0  0  0
  -22.6850   -4.6750   21.4130 F   0  0  0  0  0  0  0  0  0  0  0  0
  -21.3250   -4.3490   25.9780 F   0  0  0  0  0  0  0  0  0  0  0  0
  -23.1280  -13.9420   21.0540 C   0  0  0  0  0  0  0  0  0  0  0  0
  -22.4280  -13.2540   21.9480 N   0  0  0  0  0  0  0  0  0  0  0  0
  -22.6800  -14.9680   20.5410 O   0  0  0  0  0  0  0  0  0  0  0  0
  -22.8050  -12.4190   22.3720 H   0  0  0  0  0  0  0  0  0  0  0  0
  -21.5050  -13.5670   22.2130 H   0  0  0  0  0  0  0  0  0  0  0  0
  -25.7470  -15.5900   20.1770 N   0  0  0  0  0  0  0  0  0  0  0  0
  -24.9870  -16.2490   20.3080 H   0  0  0  0  0  0  0  0  0  0  0  0
  -26.5850  -16.0250   19.8160 H   0  0  0  0  0  0  0  0  0  0  0  0
  1  2  2  0
  1  5  1  0
  2  6  1  0
  3  4  1  0
  5  3  1  0
  6  3  1  0
  6  7  1  0
  8  2  1  0
  8  9  1  0
 10 21  2  0
 11  9  1  0
 11 16  1  0
 12 20  1  0
 12 22  1  0
 13 19  1  0
 13 15  1  0
 14 20  1  0
 15 14  1  0
 16 15  2  0
 17 18  1  0
 17 11  2  0
 18 13  2  0
 19 12  1  0
 20 10  1  0
 22 24  2  0
 23 22  1  0
 25 23  1  0
 26 35  2  0
 26 31  1  0
 27 23  1  0
 27 31  1  0
 28 27  1  0
 29 30  1  0
 29 28  1  0
 30 26  1  0
 31 32  2  0
 32 33  1  0
 34 33  2  0
 35 34  1  0
 36 10  1  0
 36 41  1  0
 36 37  1  0
 37 40  1  1
 37 38  1  0
 39 37  1  0
 41 44  1  0
 42 46  1  0
 42 41  1  0
 43 42  2  0
 46 45  1  0
 48 46  1  0
 48 49  1  0
 48 47  1  0
 50  5  1  0
 50 51  1  0
 52 61  1  0
 52 51  2  0
 53 61  1  0
 54 59  1  0
 55 56  1  0
 55 54  1  0
 57 56  1  0
 57 66  1  0
 57 58  1  0
 59 53  1  0
 59 58  1  0
 60 53  2  0
 61 62  1  0
 63 64  2  0
 64 83  1  0
 65 64  1  0
 65 68  1  0
 66 67  1  0
 66 63  1  0
 67 65  2  0
 68 69  1  0
 69 70  2  0
 71 74  1  0
 71 70  1  0
 72 71  2  0
 73 72  1  0
 73 68  2  0
 74 75  1  0
 75 80  2  0
 75 76  1  0
 76 77  2  0
 77 78  1  0
 78 82  1  0
 79 78  2  0
 80 79  1  0
 81 80  1  0
 83 84  1  0
 84 87  1  0
 84 86  1  0
 85 83  2  0
 88 89  1  0
 88 63  1  0
 90 88  1  0
M  ISO  4   8 101   9 101  53 100  61 100
M  END
>  <TORSDO>  (51) 
F 20

>  <SCORE>  (51) 
-12.859

>  <name>  (51) 
50

>  <ligand_id>  (51) 
50

>  <original_smiles>  (51) 
[H]c1c([H])c([H])c2c(c1[H])C([H])([H])C([H])([H])C([H])([H])C2([H])N([H])C(=O)C1([H])N(C(=O)C([H])(N([H])C(=O)C([H])(N([H])C([H])([H])[H])C([H])([H])[H])C(C([H])([H])[H])(C([H])([H])[H])C([H])([H])[H])C([H])([H])c2c([H])c(OC([H])([H])c3c([H])n(C([H])([H])C([H])([H])C([H])([H])N([H])C(=O)N4C([H])([H])C([H])([H])C([H])([H])C([H])(n5nc(-c6c([H])c([H])c(Oc7c([H])c([H])c(F)c([H])c7F)c([H])c6[H])c(C(=O)N([H])[H])c5N([H])[H])C4([H])[H])c(C([H])([H])[H])[n+]3[H])c([H])c([H])c2C1([H])[H]

>  <smiles>  (51) 
[H]c1c([H])c([H])c2c(c1[H])C([H])([H])C([H])([H])C([H])([H])C2([H])N([H])C(=O)C1([H])N(C(=O)C([H])(N([H])C(=O)C([H])(N([H])C([H])([H])[H])C([H])([H])[H])C(C([H])([H])[H])(C([H])([H])[H])C([H])([H])[H])C([H])([H])c2c([H])c(OC([H])([H])c3c([H])n(C([H])([H])C([H])([H])C([H])([H])N([H])C(=O)N4C([H])([H])C([H])([H])C([H])([H])C([H])(n5nc(-c6c([H])c([H])c(Oc7c([H])c([H])c(F)c([H])c7F)c([H])c6[H])c(C(=O)N([H])[H])c5N([H])[H])C4([H])[H])c(C([H])([H])[H])[n+]3[H])c([H])c([H])c2C1([H])[H]

$$$$
51:0:0
     RDKit          3D

 91 99  0  0  1  0  0  0  0  0999 V2000
  -27.6100  -22.5390   18.2950 C   0  0  0  0  0  3  0  0  0  0  0  0
  -28.4790  -22.2920   19.3870 C   0  0  0  0  0  0  0  0  0  0  0  0
  -28.8670  -20.8780   19.4970 C   0  0  0  0  0  0  0  0  0  0  0  0
  -27.8600  -20.4660   17.4430 C   0  0  0  0  0  0  0  0  0  0  0  0
  -27.6160  -19.4950   16.3070 C   0  0  0  0  0  1  0  0  0  0  0  0
  -27.3070  -21.6530   17.3410 N   0  0  0  0  0  0  0  0  0  0  0  0
  -28.6000  -20.0560   18.4570 N   0  0  0  0  0  0  0  0  0  0  0  0
  -28.9040  -23.5950   20.2100 C   0  0  0  0  0  3  0  0  0  0  0  0
  -28.1490  -24.9760   19.7880 C   0  0  0  0  0  3  0  0  0  0  0  0
  -28.4020  -26.3980   20.1830 O   0  0  0  0  0  0  0  0  0  0  0  0
  -24.7160  -31.8460   23.2410 C   0  0  0  0  0  0  0  0  0  0  0  0
  -27.3160  -27.3100   20.1020 C   0  0  0  0  0  0  0  0  0  0  0  0
  -23.5140  -30.4840   21.5750 C   0  0  0  0  0  3  0  0  0  0  0  0
  -24.9650  -28.9690   20.1140 C   0  0  0  0  0  0  0  0  0  0  0  0
  -26.0590  -30.7900   21.4050 C   0  0  0  0  0  2  0  0  0  0  0  0
  -26.1370  -29.4240   20.7310 C   0  0  0  0  0  0  0  0  0  0  0  0
  -27.3120  -28.6040   20.7230 C   0  0  0  0  0  3  0  0  0  0  0  0
  -26.1220  -26.9490   19.4250 C   0  0  0  0  0  3  0  0  0  0  0  0
  -24.9630  -27.7390   19.4480 C   0  0  0  0  0  3  0  0  0  0  0  0
  -23.7300  -29.8460   20.1800 C   0  0  0  0  0  2  0  0  0  0  0  0
  -24.7830  -31.0550   22.1310 N   0  0  0  0  0  0  0  0  0  0  0  0
  -23.6310  -32.1160   23.7770 O   0  0  0  0  0  0  0  0  0  0  0  0
  -22.8480  -29.4450   22.5100 C   0  0  0  0  0  0  0  0  0  0  0  0
  -21.5200  -29.2810   22.3870 N   0  0  0  0  0  0  0  0  0  0  0  0
  -23.5250  -28.7940   23.3100 O   0  0  0  0  0  0  0  0  0  0  0  0
  -21.0300  -29.8580   21.7160 H   0  0  0  0  0  0  0  0  0  0  0  0
  -18.1340  -28.1100   22.8880 C   0  0  0  0  0  0  0  0  0  0  0  0
  -20.6970  -28.3350   23.1440 C   0  0  0  0  0  3  0  0  0  0  0  0
  -20.7800  -26.9170   22.5350 C   0  0  0  0  0  2  0  0  0  0  0  0
  -19.6670  -26.6290   21.5230 C   0  0  0  0  0  2  0  0  0  0  0  0
  -18.2910  -26.7750   22.1800 C   0  0  0  0  0  2  0  0  0  0  0  0
  -19.2640  -28.8490   23.3270 C   0  0  0  0  0  0  0  0  0  0  0  0
  -19.0630  -30.1000   23.9520 C   0  0  0  0  0  3  0  0  0  0  0  0
  -17.7650  -30.6100   24.1420 C   0  0  0  0  0  3  0  0  0  0  0  0
  -16.6500  -29.8670   23.7190 C   0  0  0  0  0  3  0  0  0  0  0  0
  -16.8350  -28.6190   23.0970 C   0  0  0  0  0  3  0  0  0  0  0  0
  -25.9990  -32.4680   23.8740 C   0  0  0  0  0  3  0  0  0  0  0  0
  -25.6770  -33.8500   24.2570 N   0  0  0  0  0  0  0  0  0  0  0  0
  -26.0260  -34.9350   23.5550 C   0  0  0  0  0  0  0  0  0  0  0  0
  -26.7210  -34.8790   22.5360 O   0  0  0  0  0  0  0  0  0  0  0  0
  -25.0630  -33.9680   25.0490 H   0  0  0  0  0  0  0  0  0  0  0  0
  -24.3290  -36.7620   23.2180 C   0  0  0  0  0  1  0  0  0  0  0  0
  -25.5260  -36.3010   24.0640 C   0  0  0  0  0  3  0  0  0  0  0  0
  -27.6230  -37.1180   25.0450 C   0  0  0  0  0  1  0  0  0  0  0  0
  -26.5690  -37.3510   24.0620 N   0  0  0  0  0  0  0  0  0  0  0  0
  -26.1600  -38.2620   24.2460 H   0  0  0  0  0  0  0  0  0  0  0  0
  -26.5290  -31.6550   25.1180 C   0  0  1  0  0  0  0  0  0  0  0  0
  -25.4450  -31.3700   26.1820 C   0  0  0  0  0  1  0  0  0  0  0  0
  -27.1210  -30.2970   24.6730 C   0  0  0  0  0  1  0  0  0  0  0  0
  -27.6780  -32.4330   25.8020 C   0  0  0  0  0  1  0  0  0  0  0  0
  -29.6370  -20.0400   20.5940 C   0  0  0  0  0  2  0  0  0  0  0  0
  -29.2290  -18.4620   20.7480 C   0  0  0  0  0  3  0  0  0  0  0  0
  -30.2680  -17.3410   21.2570 C   0  0  0  0  0  3  0  0  0  0  0  0
  -30.6180  -14.7570   20.9750 C   0  0  0  0  0  0  0  0  0  0  0  0
  -30.5090  -12.4980   19.9230 C   0  0  0  0  0  2  0  0  0  0  0  0
  -29.6610  -12.5840   18.6360 C   0  0  0  0  0  2  0  0  0  0  0  0
  -28.1670  -12.3790   18.9590 C   0  0  0  0  0  2  0  0  0  0  0  0
  -27.6910  -13.2430   20.1590 C   0  0  0  0  0  3  0  0  0  0  0  0
  -28.6700  -13.1620   21.3520 C   0  0  0  0  0  2  0  0  0  0  0  0
  -30.0030  -13.5310   20.8550 N   0  0  0  0  0  0  0  0  0  0  0  0
  -31.8110  -14.8820   20.6880 O   0  0  0  0  0  0  0  0  0  0  0  0
  -29.8440  -15.8730   21.2250 N   0  0  0  0  0  0  0  0  0  0  0  0
  -28.8770  -15.6880   21.4520 H   0  0  0  0  0  0  0  0  0  0  0  0
  -25.2370  -13.7680   20.6890 C   0  0  0  0  0  0  0  0  0  0  0  0
  -24.1680  -12.9700   20.9900 C   0  0  0  0  0  0  0  0  0  0  0  0
  -24.6690  -11.6310   21.0140 C   0  0  0  0  0  0  0  0  0  0  0  0
  -26.3220  -12.9180   20.5480 N   0  0  0  0  0  0  0  0  0  0  0  0
  -25.9820  -11.6270   20.8030 N   0  0  0  0  0  0  0  0  0  0  0  0
  -23.9670  -10.3510   21.1670 C   0  0  0  0  0  0  0  0  0  0  0  0
  -24.3620   -9.4030   22.1350 C   0  0  0  0  0  3  0  0  0  0  0  0
  -23.6570   -8.1880   22.2770 C   0  0  0  0  0  3  0  0  0  0  0  0
  -22.5430   -7.9130   21.4490 C   0  0  0  0  0  0  0  0  0  0  0  0
  -22.1680   -8.8510   20.4710 C   0  0  0  0  0  3  0  0  0  0  0  0
  -22.8730  -10.0570   20.3280 C   0  0  0  0  0  3  0  0  0  0  0  0
  -21.8140   -6.7510   21.4960 O   0  0  0  0  0  0  0  0  0  0  0  0
  -21.7080   -6.0140   22.6490 C   0  0  0  0  0  0  0  0  0  0  0  0
  -21.1770   -6.5610   23.8370 C   0  0  0  0  0  3  0  0  0  0  0  0
  -21.0240   -5.7500   24.9790 C   0  0  0  0  0  3  0  0  0  0  0  0
  -21.3900   -4.3920   24.9330 C   0  0  0  0  0  0  0  0  0  0  0  0
  -21.9120   -3.8430   23.7480 C   0  0  0  0  0  3  0  0  0  0  0  0
  -22.0690   -4.6520   22.6090 C   0  0  0  0  0  0  0  0  0  0  0  0
  -22.5530   -4.1140   21.4650 F   0  0  0  0  0  0  0  0  0  0  0  0
  -21.2350   -3.6080   26.0260 F   0  0  0  0  0  0  0  0  0  0  0  0
  -22.7420  -13.4090   21.1490 C   0  0  0  0  0  0  0  0  0  0  0  0
  -21.9730  -12.7030   21.9670 N   0  0  0  0  0  0  0  0  0  0  0  0
  -22.3180  -14.4170   20.5840 O   0  0  0  0  0  0  0  0  0  0  0  0
  -22.3290  -11.8920   22.4500 H   0  0  0  0  0  0  0  0  0  0  0  0
  -21.0130  -12.9810   22.1180 H   0  0  0  0  0  0  0  0  0  0  0  0
  -25.3710  -15.1410   20.5020 N   0  0  0  0  0  0  0  0  0  0  0  0
  -24.5730  -15.7660   20.5430 H   0  0  0  0  0  0  0  0  0  0  0  0
  -26.2230  -15.6060   20.2170 H   0  0  0  0  0  0  0  0  0  0  0  0
  1  2  2  0
  2  3  1  0
  2  8  1  0
  3 51  1  0
  4  7  1  0
  5  4  1  0
  6  4  2  0
  6  1  1  0
  7  3  2  0
  9 10  1  0
  9  8  2  0
 11 22  2  0
 12 10  1  0
 12 17  1  0
 13 21  1  0
 13 23  1  0
 14 20  1  0
 14 16  1  0
 15 21  1  0
 16 15  1  0
 17 16  2  0
 18 19  1  0
 18 12  2  0
 19 14  2  0
 20 13  1  0
 21 11  1  0
 23 25  2  0
 24 23  1  0
 26 24  1  0
 27 36  2  0
 27 32  1  0
 28 24  1  0
 28 32  1  0
 29 28  1  0
 30 31  1  0
 30 29  1  0
 31 27  1  0
 32 33  2  0
 33 34  1  0
 35 34  2  0
 36 35  1  0
 37 11  1  0
 37 38  1  0
 37 47  1  0
 38 41  1  0
 39 43  1  0
 39 38  1  0
 40 39  2  0
 43 42  1  0
 45 43  1  0
 45 46  1  0
 45 44  1  0
 47 50  1  1
 47 48  1  0
 49 47  1  0
 51 52  1  0
 52 53  2  0
 54 62  1  0
 55 60  1  0
 56 57  1  0
 56 55  1  0
 58 57  1  0
 58 67  1  0
 58 59  1  0
 60 54  1  0
 60 59  1  0
 61 54  2  0
 62 53  1  0
 62 63  1  0
 64 65  2  0
 65 66  1  0
 65 84  1  0
 66 69  1  0
 67 64  1  0
 67 68  1  0
 68 66  2  0
 69 70  1  0
 70 71  2  0
 72 75  1  0
 72 71  1  0
 73 72  2  0
 74 73  1  0
 74 69  2  0
 75 76  1  0
 76 77  1  0
 77 78  2  0
 79 78  1  0
 79 83  1  0
 80 79  2  0
 81 76  2  0
 81 80  1  0
 82 81  1  0
 84 85  1  0
 85 88  1  0
 85 87  1  0
 86 84  2  0
 89 90  1  0
 89 64  1  0
 91 89  1  0
M  ISO  4   9 101  10 101  54 100  62 100
M  END
>  <TORSDO>  (52) 
F 21

>  <SCORE>  (52) 
-13.205

>  <name>  (52) 
51

>  <ligand_id>  (52) 
51

>  <original_smiles>  (52) 
[H]c1nc(C([H])([H])[H])nc(C([H])([H])C([H])([H])C([H])([H])N([H])C(=O)N2C([H])([H])C([H])([H])C([H])([H])C([H])(n3nc(-c4c([H])c([H])c(Oc5c([H])c([H])c(F)c([H])c5F)c([H])c4[H])c(C(=O)N([H])[H])c3N([H])[H])C2([H])[H])c1C([H])([H])C([H])([H])Oc1c([H])c([H])c2c(c1[H])C([H])([H])N(C(=O)C([H])(N([H])C(=O)C([H])(N([H])C([H])([H])[H])C([H])([H])[H])C(C([H])([H])[H])(C([H])([H])[H])C([H])([H])[H])C([H])(C(=O)N([H])C1([H])c3c([H])c([H])c([H])c([H])c3C([H])([H])C([H])([H])C1([H])[H])C2([H])[H]

>  <smiles>  (52) 
[H]c1nc(C([H])([H])[H])nc(C([H])([H])C([H])([H])C([H])([H])N([H])C(=O)N2C([H])([H])C([H])([H])C([H])([H])C([H])(n3nc(-c4c([H])c([H])c(Oc5c([H])c([H])c(F)c([H])c5F)c([H])c4[H])c(C(=O)N([H])[H])c3N([H])[H])C2([H])[H])c1C([H])([H])C([H])([H])Oc1c([H])c([H])c2c(c1[H])C([H])([H])N(C(=O)C([H])(N([H])C(=O)C([H])(N([H])C([H])([H])[H])C([H])([H])[H])C(C([H])([H])[H])(C([H])([H])[H])C([H])([H])[H])C([H])(C(=O)N([H])C1([H])c3c([H])c([H])c([H])c([H])c3C([H])([H])C([H])([H])C1([H])[H])C2([H])[H]

$$$$
52:0:0
     RDKit          3D

 99108  0  0  1  0  0  0  0  0999 V2000
  -32.5260  -20.1540   20.8910 C   0  0  0  0  0  3  0  0  0  0  0  0
  -31.4440  -19.2590   20.8740 C   0  0  0  0  0  0  0  0  0  0  0  0
  -30.1620  -19.8090   21.0670 C   0  0  0  0  0  0  0  0  0  0  0  0
  -31.0760  -21.9010   21.0450 C   0  0  0  0  0  0  0  0  0  0  0  0
  -32.3320  -21.4840   20.9460 N   0  0  0  0  0  0  0  0  0  0  0  0
  -30.0080  -21.1320   21.1890 N   0  0  0  0  0  0  0  0  0  0  0  0
  -30.1640  -24.1240   21.8960 C   0  0  0  0  0  2  0  0  0  0  0  0
  -29.8920  -23.4100   19.4370 C   0  0  0  0  0  2  0  0  0  0  0  0
  -29.6830  -25.5280   21.4910 C   0  0  0  0  0  2  0  0  0  0  0  0
  -29.4300  -24.8240   19.0840 C   0  0  0  0  0  2  0  0  0  0  0  0
  -30.7810  -23.3560   20.7060 C   0  0  0  0  0  3  0  0  0  0  0  0
  -28.7330  -25.4870   20.2790 C   0  0  0  0  0  3  0  0  0  0  0  0
  -28.5160  -26.8280   19.8970 O   0  0  0  0  0  0  0  0  0  0  0  0
  -24.5010  -31.7200   23.0350 C   0  0  0  0  0  0  0  0  0  0  0  0
  -27.2640  -27.3780   19.9770 C   0  0  0  0  0  0  0  0  0  0  0  0
  -23.3180  -30.2870   21.3880 C   0  0  0  0  0  3  0  0  0  0  0  0
  -24.8090  -28.7640   19.9850 C   0  0  0  0  0  0  0  0  0  0  0  0
  -25.8260  -30.7170   21.1860 C   0  0  0  0  0  2  0  0  0  0  0  0
  -25.9440  -29.3440   20.5640 C   0  0  0  0  0  0  0  0  0  0  0  0
  -27.1710  -28.6570   20.5560 C   0  0  0  0  0  3  0  0  0  0  0  0
  -26.1160  -26.7880   19.4050 C   0  0  0  0  0  3  0  0  0  0  0  0
  -24.8860  -27.4820   19.4060 C   0  0  0  0  0  3  0  0  0  0  0  0
  -23.5450  -29.5930   20.0150 C   0  0  0  0  0  2  0  0  0  0  0  0
  -24.5640  -30.9220   21.9310 N   0  0  0  0  0  0  0  0  0  0  0  0
  -23.4150  -31.9720   23.5750 O   0  0  0  0  0  0  0  0  0  0  0  0
  -22.6840  -29.2640   22.3560 C   0  0  0  0  0  0  0  0  0  0  0  0
  -21.3600  -29.0820   22.2460 N   0  0  0  0  0  0  0  0  0  0  0  0
  -23.3840  -28.6330   23.1550 O   0  0  0  0  0  0  0  0  0  0  0  0
  -20.8590  -29.6440   21.5730 H   0  0  0  0  0  0  0  0  0  0  0  0
  -17.9890  -27.9120   22.7930 C   0  0  0  0  0  0  0  0  0  0  0  0
  -20.5540  -28.1380   23.0180 C   0  0  0  0  0  3  0  0  0  0  0  0
  -20.6300  -26.7170   22.4140 C   0  0  0  0  0  2  0  0  0  0  0  0
  -19.5050  -26.4240   21.4170 C   0  0  0  0  0  2  0  0  0  0  0  0
  -18.1360  -26.5750   22.0870 C   0  0  0  0  0  2  0  0  0  0  0  0
  -19.1240  -28.6540   23.2140 C   0  0  0  0  0  0  0  0  0  0  0  0
  -18.9330  -29.9110   23.8290 C   0  0  0  0  0  3  0  0  0  0  0  0
  -17.6370  -30.4240   24.0310 C   0  0  0  0  0  3  0  0  0  0  0  0
  -16.5160  -29.6760   23.6280 C   0  0  0  0  0  3  0  0  0  0  0  0
  -16.6930  -28.4230   23.0140 C   0  0  0  0  0  3  0  0  0  0  0  0
  -25.7800  -32.3680   23.6560 C   0  0  0  0  0  3  0  0  0  0  0  0
  -25.4250  -33.7300   24.0720 N   0  0  0  0  0  0  0  0  0  0  0  0
  -25.7200  -34.8370   23.3760 C   0  0  0  0  0  0  0  0  0  0  0  0
  -26.3880  -34.8200   22.3390 O   0  0  0  0  0  0  0  0  0  0  0  0
  -24.8350  -33.8170   24.8850 H   0  0  0  0  0  0  0  0  0  0  0  0
  -23.9400  -36.5920   23.1120 C   0  0  0  0  0  1  0  0  0  0  0  0
  -25.1820  -36.1750   23.9170 C   0  0  0  0  0  3  0  0  0  0  0  0
  -27.2750  -37.0640   24.8460 C   0  0  0  0  0  1  0  0  0  0  0  0
  -26.1820  -37.2660   23.8990 N   0  0  0  0  0  0  0  0  0  0  0  0
  -25.7430  -38.1570   24.1090 H   0  0  0  0  0  0  0  0  0  0  0  0
  -26.3680  -31.5480   24.8700 C   0  0  1  0  0  0  0  0  0  0  0  0
  -25.3110  -31.1670   25.9330 C   0  0  0  0  0  1  0  0  0  0  0  0
  -27.0340  -30.2430   24.3730 C   0  0  0  0  0  1  0  0  0  0  0  0
  -27.4760  -32.3710   25.5690 C   0  0  0  0  0  1  0  0  0  0  0  0
  -31.6680  -17.7960   20.5600 C   0  0  0  0  0  2  0  0  0  0  0  0
  -31.4780  -17.5250   19.0440 C   0  0  0  0  0  2  0  0  0  0  0  0
  -30.7090  -16.2570   18.6200 C   0  0  0  0  0  2  0  0  0  0  0  0
  -31.1370  -14.2870   19.9880 C   0  0  0  0  0  0  0  0  0  0  0  0
  -30.6470  -12.1940   18.9040 C   0  0  0  0  0  2  0  0  0  0  0  0
  -29.6730  -12.5270   17.7520 C   0  0  0  0  0  2  0  0  0  0  0  0
  -28.2120  -12.4980   18.2400 C   0  0  0  0  0  2  0  0  0  0  0  0
  -27.9860  -13.2990   19.5510 C   0  0  0  0  0  3  0  0  0  0  0  0
  -29.0860  -13.0080   20.6040 C   0  0  0  0  0  2  0  0  0  0  0  0
  -30.4020  -13.1590   19.9750 N   0  0  0  0  0  0  0  0  0  0  0  0
  -32.3420  -14.3440   19.7520 O   0  0  0  0  0  0  0  0  0  0  0  0
  -30.3740  -15.3460   19.7120 N   0  0  0  0  0  0  0  0  0  0  0  0
  -29.3940  -15.2350   19.9160 H   0  0  0  0  0  0  0  0  0  0  0  0
  -25.6390  -13.9970   20.3420 C   0  0  0  0  0  0  0  0  0  0  0  0
  -24.5520  -13.2670   20.7400 C   0  0  0  0  0  0  0  0  0  0  0  0
  -24.9650  -11.8990   20.7070 C   0  0  0  0  0  0  0  0  0  0  0  0
  -26.6450  -13.0780   20.0840 N   0  0  0  0  0  0  0  0  0  0  0  0
  -26.2440  -11.8120   20.3650 N   0  0  0  0  0  0  0  0  0  0  0  0
  -24.2010  -10.6640   20.9240 C   0  0  0  0  0  0  0  0  0  0  0  0
  -24.6070   -9.7030   21.8750 C   0  0  0  0  0  3  0  0  0  0  0  0
  -23.8480   -8.5330   22.0780 C   0  0  0  0  0  3  0  0  0  0  0  0
  -22.6690   -8.3130   21.3290 C   0  0  0  0  0  0  0  0  0  0  0  0
  -22.2800   -9.2630   20.3670 C   0  0  0  0  0  3  0  0  0  0  0  0
  -23.0390  -10.4250   20.1640 C   0  0  0  0  0  3  0  0  0  0  0  0
  -21.8830   -7.1910   21.4390 O   0  0  0  0  0  0  0  0  0  0  0  0
  -21.7930   -6.4880   22.6140 C   0  0  0  0  0  0  0  0  0  0  0  0
  -21.3400   -7.0910   23.8090 C   0  0  0  0  0  3  0  0  0  0  0  0
  -21.1930   -6.3140   24.9770 C   0  0  0  0  0  3  0  0  0  0  0  0
  -21.4930   -4.9400   24.9510 C   0  0  0  0  0  0  0  0  0  0  0  0
  -21.9430   -4.3400   23.7620 C   0  0  0  0  0  3  0  0  0  0  0  0
  -22.0900   -5.1120   22.5970 C   0  0  0  0  0  0  0  0  0  0  0  0
  -22.5010   -4.5240   21.4490 F   0  0  0  0  0  0  0  0  0  0  0  0
  -21.3480   -4.1930   26.0700 F   0  0  0  0  0  0  0  0  0  0  0  0
  -23.1810  -13.7970   21.0420 C   0  0  0  0  0  0  0  0  0  0  0  0
  -22.4450  -13.1360   21.9260 N   0  0  0  0  0  0  0  0  0  0  0  0
  -22.7700  -14.8350   20.5240 O   0  0  0  0  0  0  0  0  0  0  0  0
  -22.7870  -12.2940   22.3670 H   0  0  0  0  0  0  0  0  0  0  0  0
  -21.5280  -13.4820   22.1700 H   0  0  0  0  0  0  0  0  0  0  0  0
  -25.8430  -15.3600   20.1540 N   0  0  0  0  0  0  0  0  0  0  0  0
  -25.0840  -16.0220   20.2680 H   0  0  0  0  0  0  0  0  0  0  0  0
  -26.6800  -15.7820   19.7800 H   0  0  0  0  0  0  0  0  0  0  0  0
  -28.8620  -19.0100   21.0450 C   0  0  0  0  0  2  0  0  0  0  0  0
  -28.2930  -18.6840   19.6430 C   0  0  0  0  0  2  0  0  0  0  0  0
  -28.4810  -19.7560   18.5460 C   0  0  0  0  0  2  0  0  0  0  0  0
  -28.1270  -20.3440   16.0710 C   0  0  0  0  0  1  0  0  0  0  0  0
  -27.7990  -19.3780   17.2200 C   0  0  0  0  0  2  0  0  0  0  0  0
  1  5  1  0
  2  1  2  0
  2  3  1  0
  3  6  2  0
  4  6  1  0
  5  4  2  0
  8 11  1  0
  9  7  1  0
 10  8  1  0
 10 12  1  0
 11  4  1  0
 11  7  1  0
 12 13  1  0
 12  9  1  0
 13 15  1  0
 14 25  2  0
 15 20  1  0
 16 24  1  0
 16 26  1  0
 17 23  1  0
 17 19  1  0
 18 24  1  0
 19 18  1  0
 20 19  2  0
 21 22  1  0
 21 15  2  0
 22 17  2  0
 23 16  1  0
 24 14  1  0
 26 28  2  0
 27 26  1  0
 29 27  1  0
 30 39  2  0
 30 35  1  0
 31 27  1  0
 31 35  1  0
 32 31  1  0
 33 34  1  0
 33 32  1  0
 34 30  1  0
 35 36  2  0
 36 37  1  0
 38 37  2  0
 39 38  1  0
 40 14  1  0
 40 41  1  0
 40 50  1  0
 41 44  1  0
 42 46  1  0
 42 41  1  0
 43 42  2  0
 46 45  1  0
 48 46  1  0
 48 49  1  0
 48 47  1  0
 50 53  1  1
 50 51  1  0
 52 50  1  0
 54  2  1  0
 55 54  1  0
 56 55  1  0
 56 65  1  0
 58 63  1  0
 59 60  1  0
 59 58  1  0
 61 60  1  0
 61 70  1  0
 61 62  1  0
 63 57  1  0
 63 62  1  0
 64 57  2  0
 65 66  1  0
 65 57  1  0
 67 68  2  0
 68 87  1  0
 69 68  1  0
 69 72  1  0
 70 67  1  0
 70 71  1  0
 71 69  2  0
 72 73  1  0
 73 74  2  0
 75 78  1  0
 75 74  1  0
 76 75  2  0
 77 76  1  0
 77 72  2  0
 78 79  1  0
 79 80  1  0
 80 81  2  0
 82 81  1  0
 82 86  1  0
 83 82  2  0
 84 79  2  0
 84 83  1  0
 85 84  1  0
 87 88  1  0
 88 91  1  0
 88 90  1  0
 89 87  2  0
 92 93  1  0
 92 67  1  0
 94 92  1  0
 95  3  1  0
 96 95  1  0
 97 96  1  0
 98 99  1  0
 99 97  1  0
M  ISO  4  12 101  13 101  57 100  65 100
M  END
>  <TORSDO>  (53) 
F 24

>  <SCORE>  (53) 
-11.922

>  <name>  (53) 
52

>  <ligand_id>  (53) 
52

>  <original_smiles>  (53) 
[H]c1nc(C2([H])C([H])([H])C([H])([H])C([H])(Oc3c([H])c([H])c4c(c3[H])C([H])([H])N(C(=O)C([H])(N([H])C(=O)C([H])(N([H])C([H])([H])[H])C([H])([H])[H])C(C([H])([H])[H])(C([H])([H])[H])C([H])([H])[H])C([H])(C(=O)N([H])C3([H])c5c([H])c([H])c([H])c([H])c5C([H])([H])C([H])([H])C3([H])[H])C4([H])[H])C([H])([H])C2([H])[H])nc(C([H])([H])C([H])([H])C([H])([H])C([H])([H])C([H])([H])[H])c1C([H])([H])C([H])([H])C([H])([H])N([H])C(=O)N1C([H])([H])C([H])([H])C([H])([H])C([H])(n2nc(-c3c([H])c([H])c(Oc4c([H])c([H])c(F)c([H])c4F)c([H])c3[H])c(C(=O)N([H])[H])c2N([H])[H])C1([H])[H]

>  <smiles>  (53) 
[H]c1nc(C2([H])C([H])([H])C([H])([H])C([H])(Oc3c([H])c([H])c4c(c3[H])C([H])([H])N(C(=O)C([H])(N([H])C(=O)C([H])(N([H])C([H])([H])[H])C([H])([H])[H])C(C([H])([H])[H])(C([H])([H])[H])C([H])([H])[H])C([H])(C(=O)N([H])C3([H])c5c([H])c([H])c([H])c([H])c5C([H])([H])C([H])([H])C3([H])[H])C4([H])[H])C([H])([H])C2([H])[H])nc(C([H])([H])C([H])([H])C([H])([H])C([H])([H])C([H])([H])[H])c1C([H])([H])C([H])([H])C([H])([H])N([H])C(=O)N1C([H])([H])C([H])([H])C([H])([H])C([H])(n2nc(-c3c([H])c([H])c(Oc4c([H])c([H])c(F)c([H])c4F)c([H])c3[H])c(C(=O)N([H])[H])c2N([H])[H])C1([H])[H]

$$$$
53:0:0
     RDKit          3D

 91 99  0  0  1  0  0  0  0  0999 V2000
  -27.4660  -21.8050   20.8000 C   0  0  0  0  0  3  0  0  0  0  0  0
  -29.6450  -21.8360   20.3570 C   0  0  0  0  0  3  0  0  0  0  0  0
  -27.8380  -20.5150   20.5510 C   0  0  0  0  0  0  0  0  0  0  0  0
  -29.2460  -20.5280   20.2710 C   0  0  0  0  0  0  0  0  0  0  0  0
  -26.8820  -19.3470   20.5620 C   0  0  0  0  0  1  0  0  0  0  0  0
  -28.5650  -22.6280   20.6830 N   0  0  0  0  0  0  0  0  0  0  0  0
  -30.1990  -19.4010   19.9100 C   0  0  0  0  0  2  0  0  0  0  0  0
  -29.7670  -17.9620   20.2530 C   0  0  0  0  0  2  0  0  0  0  0  0
  -30.8790  -16.9630   19.9090 C   0  0  0  0  0  2  0  0  0  0  0  0
  -31.2350  -14.5380   19.8590 C   0  0  0  0  0  0  0  0  0  0  0  0
  -30.8080  -12.3710   18.7990 C   0  0  0  0  0  2  0  0  0  0  0  0
  -29.7970  -12.6050   17.6560 C   0  0  0  0  0  2  0  0  0  0  0  0
  -28.3500  -12.5120   18.1820 C   0  0  0  0  0  2  0  0  0  0  0  0
  -28.1180  -13.3690   19.4580 C   0  0  0  0  0  3  0  0  0  0  0  0
  -29.2430  -13.1350   20.4950 C   0  0  0  0  0  2  0  0  0  0  0  0
  -30.5350  -13.3760   19.8330 N   0  0  0  0  0  0  0  0  0  0  0  0
  -32.3310  -14.6880   19.3150 O   0  0  0  0  0  0  0  0  0  0  0  0
  -30.5490  -15.5970   20.3050 N   0  0  0  0  0  0  0  0  0  0  0  0
  -29.6480  -15.4200   20.7240 H   0  0  0  0  0  0  0  0  0  0  0  0
  -25.8100  -14.0400   20.3840 C   0  0  0  0  0  0  0  0  0  0  0  0
  -24.7390  -13.2930   20.7990 C   0  0  0  0  0  0  0  0  0  0  0  0
  -25.1340  -11.9270   20.6640 C   0  0  0  0  0  0  0  0  0  0  0  0
  -26.7930  -13.1280   20.0300 N   0  0  0  0  0  0  0  0  0  0  0  0
  -26.3930  -11.8490   20.2520 N   0  0  0  0  0  0  0  0  0  0  0  0
  -24.3670  -10.6880   20.8500 C   0  0  0  0  0  0  0  0  0  0  0  0
  -24.7290   -9.7350   21.8280 C   0  0  0  0  0  3  0  0  0  0  0  0
  -23.9670   -8.5590   21.9990 C   0  0  0  0  0  3  0  0  0  0  0  0
  -22.8280   -8.3280   21.1920 C   0  0  0  0  0  0  0  0  0  0  0  0
  -22.4870   -9.2690   20.2030 C   0  0  0  0  0  3  0  0  0  0  0  0
  -23.2490  -10.4360   20.0310 C   0  0  0  0  0  3  0  0  0  0  0  0
  -22.0410   -7.2040   21.2720 O   0  0  0  0  0  0  0  0  0  0  0  0
  -21.7870   -6.5900   22.4710 C   0  0  0  0  0  0  0  0  0  0  0  0
  -21.1540   -7.2660   23.5390 C   0  0  0  0  0  3  0  0  0  0  0  0
  -20.8470   -6.5750   24.7280 C   0  0  0  0  0  3  0  0  0  0  0  0
  -21.1630   -5.2090   24.8510 C   0  0  0  0  0  0  0  0  0  0  0  0
  -21.7880   -4.5320   23.7890 C   0  0  0  0  0  3  0  0  0  0  0  0
  -22.0960   -5.2200   22.6020 C   0  0  0  0  0  0  0  0  0  0  0  0
  -22.6800   -4.5570   21.5750 F   0  0  0  0  0  0  0  0  0  0  0  0
  -20.8600   -4.5450   25.9900 F   0  0  0  0  0  0  0  0  0  0  0  0
  -23.3910  -13.8140   21.2070 C   0  0  0  0  0  0  0  0  0  0  0  0
  -22.7120  -13.1160   22.1120 N   0  0  0  0  0  0  0  0  0  0  0  0
  -22.9530  -14.8730   20.7600 O   0  0  0  0  0  0  0  0  0  0  0  0
  -23.0780  -12.2560   22.4960 H   0  0  0  0  0  0  0  0  0  0  0  0
  -21.8120  -13.4460   22.4270 H   0  0  0  0  0  0  0  0  0  0  0  0
  -26.0200  -15.4100   20.2590 N   0  0  0  0  0  0  0  0  0  0  0  0
  -25.2900  -16.0850   20.4540 H   0  0  0  0  0  0  0  0  0  0  0  0
  -26.8580  -15.8280   19.8720 H   0  0  0  0  0  0  0  0  0  0  0  0
  -28.5430  -24.0780   20.8110 C   0  0  0  0  0  2  0  0  0  0  0  0
  -29.7600  -24.6540   21.5600 C   0  0  0  0  0  2  0  0  0  0  0  0
  -29.6500  -26.1710   21.7910 C   0  0  0  0  0  2  0  0  0  0  0  0
  -29.4430  -26.8430   20.5490 O   0  0  0  0  0  0  0  0  0  0  0  0
  -24.6710  -31.4070   23.2130 C   0  0  0  0  0  0  0  0  0  0  0  0
  -28.2100  -27.4320   20.4400 C   0  0  0  0  0  0  0  0  0  0  0  0
  -23.8510  -29.8840   21.4440 C   0  0  0  0  0  3  0  0  0  0  0  0
  -25.6460  -28.5760   20.1860 C   0  0  0  0  0  0  0  0  0  0  0  0
  -26.3070  -30.5830   21.5260 C   0  0  0  0  0  2  0  0  0  0  0  0
  -26.6440  -29.2460   20.9050 C   0  0  0  0  0  0  0  0  0  0  0  0
  -27.9290  -28.6790   21.0390 C   0  0  0  0  0  3  0  0  0  0  0  0
  -27.2060  -26.7710   19.7070 C   0  0  0  0  0  3  0  0  0  0  0  0
  -25.9200  -27.3340   19.5830 C   0  0  0  0  0  3  0  0  0  0  0  0
  -24.3000  -29.2590   20.0930 C   0  0  0  0  0  2  0  0  0  0  0  0
  -24.9530  -30.6410   22.1210 N   0  0  0  0  0  0  0  0  0  0  0  0
  -23.5110  -31.5230   23.6320 O   0  0  0  0  0  0  0  0  0  0  0  0
  -23.2410  -28.7700   22.3220 C   0  0  0  0  0  0  0  0  0  0  0  0
  -21.9750  -28.4190   22.0470 N   0  0  0  0  0  0  0  0  0  0  0  0
  -23.9080  -28.2260   23.2070 O   0  0  0  0  0  0  0  0  0  0  0  0
  -21.4900  -28.9270   21.3190 H   0  0  0  0  0  0  0  0  0  0  0  0
  -18.7370  -26.8290   22.2000 C   0  0  0  0  0  0  0  0  0  0  0  0
  -21.2100  -27.3700   22.7190 C   0  0  0  0  0  3  0  0  0  0  0  0
  -21.5300  -25.9770   22.1310 C   0  0  0  0  0  2  0  0  0  0  0  0
  -20.5740  -25.5580   21.0090 C   0  0  0  0  0  2  0  0  0  0  0  0
  -19.1320  -25.5280   21.5200 C   0  0  0  0  0  2  0  0  0  0  0  0
  -19.7130  -27.7010   22.7500 C   0  0  0  0  0  0  0  0  0  0  0  0
  -19.2950  -28.9120   23.3400 C   0  0  0  0  0  3  0  0  0  0  0  0
  -17.9310  -29.2560   23.3890 C   0  0  0  0  0  3  0  0  0  0  0  0
  -16.9670  -28.3830   22.8560 C   0  0  0  0  0  3  0  0  0  0  0  0
  -17.3700  -27.1700   22.2700 C   0  0  0  0  0  3  0  0  0  0  0  0
  -25.7900  -32.1910   23.9720 C   0  0  0  0  0  3  0  0  0  0  0  0
  -25.3090  -33.5630   24.1700 N   0  0  0  0  0  0  0  0  0  0  0  0
  -25.6400  -34.6040   23.3960 C   0  0  0  0  0  0  0  0  0  0  0  0
  -26.4500  -34.5170   22.4680 O   0  0  0  0  0  0  0  0  0  0  0  0
  -24.6030  -33.6970   24.8780 H   0  0  0  0  0  0  0  0  0  0  0  0
  -23.8120  -36.1880   22.7050 C   0  0  0  0  0  1  0  0  0  0  0  0
  -24.9660  -35.9570   23.6950 C   0  0  0  0  0  3  0  0  0  0  0  0
  -26.8680  -37.1060   24.7410 C   0  0  0  0  0  1  0  0  0  0  0  0
  -25.8980  -37.1050   23.6480 N   0  0  0  0  0  0  0  0  0  0  0  0
  -25.3910  -37.9840   23.6720 H   0  0  0  0  0  0  0  0  0  0  0  0
  -26.1840  -31.5300   25.3510 C   0  0  1  0  0  0  0  0  0  0  0  0
  -24.9710  -31.2140   26.2540 C   0  0  0  0  0  1  0  0  0  0  0  0
  -26.9620  -30.2130   25.1210 C   0  0  0  0  0  1  0  0  0  0  0  0
  -27.1260  -32.4730   26.1340 C   0  0  0  0  0  1  0  0  0  0  0  0
  2  6  1  0
  3  5  1  0
  3  1  2  0
  4  2  2  0
  4  3  1  0
  6  1  1  0
  6 48  1  0
  7  8  1  0
  7  4  1  0
  9  8  1  0
  9 18  1  0
 10 18  1  0
 11 16  1  0
 12 13  1  0
 12 11  1  0
 14 13  1  0
 14 23  1  0
 14 15  1  0
 16 10  1  0
 16 15  1  0
 17 10  2  0
 18 19  1  0
 20 21  2  0
 21 40  1  0
 22 21  1  0
 22 25  1  0
 23 24  1  0
 23 20  1  0
 24 22  2  0
 25 26  1  0
 26 27  2  0
 28 31  1  0
 28 27  1  0
 29 28  2  0
 30 29  1  0
 30 25  2  0
 31 32  1  0
 32 37  2  0
 32 33  1  0
 33 34  2  0
 34 35  1  0
 35 39  1  0
 36 35  2  0
 37 36  1  0
 38 37  1  0
 40 41  1  0
 41 44  1  0
 41 43  1  0
 42 40  2  0
 45 20  1  0
 45 46  1  0
 47 45  1  0
 48 49  1  0
 49 50  1  0
 51 50  1  0
 52 63  2  0
 53 51  1  0
 53 58  1  0
 54 62  1  0
 54 64  1  0
 55 57  1  0
 56 62  1  0
 57 58  2  0
 57 56  1  0
 59 53  2  0
 60 59  1  0
 60 55  2  0
 61 55  1  0
 61 54  1  0
 62 52  1  0
 64 66  2  0
 65 64  1  0
 67 65  1  0
 68 77  2  0
 68 73  1  0
 69 65  1  0
 69 73  1  0
 70 69  1  0
 71 72  1  0
 71 70  1  0
 72 68  1  0
 73 74  2  0
 74 75  1  0
 76 75  2  0
 77 76  1  0
 78 52  1  0
 78 79  1  0
 78 88  1  0
 79 82  1  0
 80 84  1  0
 80 79  1  0
 81 80  2  0
 84 83  1  0
 86 87  1  0
 86 84  1  0
 86 85  1  0
 88 91  1  1
 88 89  1  0
 90 88  1  0
M  ISO  4  10 100  18 100  50 101  51 101
M  END
>  <TORSDO>  (54) 
F 22

>  <SCORE>  (54) 
-9.997

>  <name>  (54) 
53

>  <ligand_id>  (54) 
53

>  <original_smiles>  (54) 
[H]c1c([H])c([H])c2c(c1[H])C([H])([H])C([H])([H])C([H])([H])C2([H])N([H])C(=O)C1([H])N(C(=O)C([H])(N([H])C(=O)C([H])(N([H])C([H])([H])[H])C([H])([H])[H])C(C([H])([H])[H])(C([H])([H])[H])C([H])([H])[H])C([H])([H])c2c([H])c(OC([H])([H])C([H])([H])C([H])([H])n3c([H])c(C([H])([H])[H])c(C([H])([H])C([H])([H])C([H])([H])N([H])C(=O)N4C([H])([H])C([H])([H])C([H])([H])C([H])(n5nc(-c6c([H])c([H])c(Oc7c([H])c([H])c(F)c([H])c7F)c([H])c6[H])c(C(=O)N([H])[H])c5N([H])[H])C4([H])[H])c3[H])c([H])c([H])c2C1([H])[H]

>  <smiles>  (54) 
[H]c1c([H])c([H])c2c(c1[H])C([H])([H])C([H])([H])C([H])([H])C2([H])N([H])C(=O)C1([H])N(C(=O)C([H])(N([H])C(=O)C([H])(N([H])C([H])([H])[H])C([H])([H])[H])C(C([H])([H])[H])(C([H])([H])[H])C([H])([H])[H])C([H])([H])c2c([H])c(OC([H])([H])C([H])([H])C([H])([H])n3c([H])c(C([H])([H])[H])c(C([H])([H])C([H])([H])C([H])([H])N([H])C(=O)N4C([H])([H])C([H])([H])C([H])([H])C([H])(n5nc(-c6c([H])c([H])c(Oc7c([H])c([H])c(F)c([H])c7F)c([H])c6[H])c(C(=O)N([H])[H])c5N([H])[H])C4([H])[H])c3[H])c([H])c([H])c2C1([H])[H]

$$$$
54:0:0
     RDKit          3D

 91 99  0  0  1  0  0  0  0  0999 V2000
  -30.3960  -21.8000   20.5810 C   0  0  0  0  0  3  0  0  0  0  0  0
  -30.0940  -20.4610   20.4980 C   0  0  0  0  0  0  0  0  0  0  0  0
  -29.4300  -20.3710   19.2300 C   0  0  0  0  0  0  0  0  0  0  0  0
  -28.8870  -19.1760   18.4960 C   0  0  0  0  0  1  0  0  0  0  0  0
  -29.3450  -21.5520   18.6210 N   0  0  0  0  0  0  0  0  0  0  0  0
  -29.9460  -22.4360   19.4420 N   0  0  0  0  0  0  0  0  0  0  0  0
  -30.4800  -19.4310   21.5660 C   0  0  0  0  0  2  0  0  0  0  0  0
  -29.8440  -18.0070   21.5620 C   0  0  0  0  0  3  0  0  0  0  0  0
  -30.6710  -16.9140   20.8340 C   0  0  0  0  0  3  0  0  0  0  0  0
  -30.7110  -14.4900   20.2930 C   0  0  0  0  0  0  0  0  0  0  0  0
  -30.3130  -12.3720   19.1000 C   0  0  0  0  0  2  0  0  0  0  0  0
  -29.3440  -12.6150   17.9240 C   0  0  0  0  0  2  0  0  0  0  0  0
  -27.8840  -12.4760   18.3900 C   0  0  0  0  0  2  0  0  0  0  0  0
  -27.5890  -13.2930   19.6760 C   0  0  0  0  0  3  0  0  0  0  0  0
  -28.6730  -13.0550   20.7540 C   0  0  0  0  0  2  0  0  0  0  0  0
  -29.9860  -13.3440   20.1570 N   0  0  0  0  0  0  0  0  0  0  0  0
  -31.8150  -14.6380   19.7670 O   0  0  0  0  0  0  0  0  0  0  0  0
  -30.1130  -15.5410   20.8970 N   0  0  0  0  0  0  0  0  0  0  0  0
  -29.2070  -15.4010   21.3150 H   0  0  0  0  0  0  0  0  0  0  0  0
  -25.2090  -13.9060   20.4420 C   0  0  0  0  0  0  0  0  0  0  0  0
  -24.1460  -13.1370   20.8330 C   0  0  0  0  0  0  0  0  0  0  0  0
  -24.6000  -11.7830   20.7860 C   0  0  0  0  0  0  0  0  0  0  0  0
  -26.2450  -13.0200   20.1850 N   0  0  0  0  0  0  0  0  0  0  0  0
  -25.8830  -11.7390   20.4480 N   0  0  0  0  0  0  0  0  0  0  0  0
  -23.8700  -10.5240   20.9910 C   0  0  0  0  0  0  0  0  0  0  0  0
  -24.3180   -9.5520   21.9130 C   0  0  0  0  0  3  0  0  0  0  0  0
  -23.5910   -8.3580   22.1040 C   0  0  0  0  0  3  0  0  0  0  0  0
  -22.4010   -8.1270   21.3740 C   0  0  0  0  0  0  0  0  0  0  0  0
  -21.9720   -9.0870   20.4410 C   0  0  0  0  0  3  0  0  0  0  0  0
  -22.6990  -10.2730   20.2470 C   0  0  0  0  0  3  0  0  0  0  0  0
  -21.6440   -6.9850   21.4730 O   0  0  0  0  0  0  0  0  0  0  0  0
  -21.6160   -6.2410   22.6260 C   0  0  0  0  0  0  0  0  0  0  0  0
  -21.2220   -6.7960   23.8620 C   0  0  0  0  0  3  0  0  0  0  0  0
  -21.1370   -5.9780   25.0070 C   0  0  0  0  0  3  0  0  0  0  0  0
  -21.4400   -4.6050   24.9150 C   0  0  0  0  0  0  0  0  0  0  0  0
  -21.8300   -4.0510   23.6840 C   0  0  0  0  0  3  0  0  0  0  0  0
  -21.9140   -4.8670   22.5420 C   0  0  0  0  0  0  0  0  0  0  0  0
  -22.2690   -4.3220   21.3520 F   0  0  0  0  0  0  0  0  0  0  0  0
  -21.3540   -3.8170   26.0120 F   0  0  0  0  0  0  0  0  0  0  0  0
  -22.7580  -13.6230   21.1370 C   0  0  0  0  0  0  0  0  0  0  0  0
  -22.0440  -12.9310   22.0190 N   0  0  0  0  0  0  0  0  0  0  0  0
  -22.3130  -14.6510   20.6290 O   0  0  0  0  0  0  0  0  0  0  0  0
  -22.4180  -12.1040   22.4590 H   0  0  0  0  0  0  0  0  0  0  0  0
  -21.1130  -13.2390   22.2600 H   0  0  0  0  0  0  0  0  0  0  0  0
  -25.3770  -15.2760   20.2650 N   0  0  0  0  0  0  0  0  0  0  0  0
  -24.6140  -15.9330   20.3870 H   0  0  0  0  0  0  0  0  0  0  0  0
  -26.2190  -15.7090   19.9070 H   0  0  0  0  0  0  0  0  0  0  0  0
  -30.1680  -23.8160   18.9990 C   0  0  0  0  0  2  0  0  0  0  0  0
  -28.9020  -24.7050   18.8820 C   0  0  0  0  0  2  0  0  0  0  0  0
  -28.4020  -25.3050   20.2140 C   0  0  0  0  0  2  0  0  0  0  0  0
  -28.4120  -26.7430   20.1970 O   0  0  0  0  0  0  0  0  0  0  0  0
  -24.5620  -31.8940   23.2460 C   0  0  0  0  0  0  0  0  0  0  0  0
  -27.2140  -27.4310   20.1910 C   0  0  0  0  0  0  0  0  0  0  0  0
  -23.3580  -30.4880   21.6030 C   0  0  0  0  0  3  0  0  0  0  0  0
  -24.8130  -28.9340   20.1920 C   0  0  0  0  0  0  0  0  0  0  0  0
  -25.8830  -30.8400   21.4120 C   0  0  0  0  0  2  0  0  0  0  0  0
  -25.9680  -29.4620   20.7840 C   0  0  0  0  0  0  0  0  0  0  0  0
  -27.1680  -28.7170   20.7810 C   0  0  0  0  0  3  0  0  0  0  0  0
  -26.0430  -26.9180   19.5910 C   0  0  0  0  0  3  0  0  0  0  0  0
  -24.8450  -27.6600   19.5960 C   0  0  0  0  0  3  0  0  0  0  0  0
  -23.5710  -29.7950   20.2280 C   0  0  0  0  0  2  0  0  0  0  0  0
  -24.6190  -31.0900   22.1440 N   0  0  0  0  0  0  0  0  0  0  0  0
  -23.4810  -32.1690   23.7830 O   0  0  0  0  0  0  0  0  0  0  0  0
  -22.7030  -29.4760   22.5690 C   0  0  0  0  0  0  0  0  0  0  0  0
  -21.3770  -29.2960   22.4380 N   0  0  0  0  0  0  0  0  0  0  0  0
  -23.3810  -28.8530   23.3900 O   0  0  0  0  0  0  0  0  0  0  0  0
  -20.8930  -29.8500   21.7460 H   0  0  0  0  0  0  0  0  0  0  0  0
  -18.0000  -28.1120   22.9290 C   0  0  0  0  0  0  0  0  0  0  0  0
  -20.5570  -28.3640   23.2100 C   0  0  0  0  0  3  0  0  0  0  0  0
  -20.6590  -26.9300   22.6380 C   0  0  0  0  0  2  0  0  0  0  0  0
  -19.5590  -26.6080   21.6210 C   0  0  0  0  0  2  0  0  0  0  0  0
  -18.1750  -26.7590   22.2590 C   0  0  0  0  0  2  0  0  0  0  0  0
  -19.1190  -28.8710   23.3600 C   0  0  0  0  0  0  0  0  0  0  0  0
  -18.9020  -30.1380   23.9460 C   0  0  0  0  0  3  0  0  0  0  0  0
  -17.5980  -30.6430   24.1050 C   0  0  0  0  0  3  0  0  0  0  0  0
  -16.4930  -29.8810   23.6880 C   0  0  0  0  0  3  0  0  0  0  0  0
  -16.6950  -28.6170   23.1040 C   0  0  0  0  0  3  0  0  0  0  0  0
  -25.8490  -32.5250   23.8670 C   0  0  0  0  0  3  0  0  0  0  0  0
  -25.5450  -33.9260   24.1840 N   0  0  0  0  0  0  0  0  0  0  0  0
  -25.8880  -34.9720   23.4210 C   0  0  0  0  0  0  0  0  0  0  0  0
  -26.5680  -34.8590   22.3970 O   0  0  0  0  0  0  0  0  0  0  0  0
  -24.9490  -34.0860   24.9830 H   0  0  0  0  0  0  0  0  0  0  0  0
  -24.1740  -36.7720   23.0300 C   0  0  0  0  0  1  0  0  0  0  0  0
  -25.4010  -36.3660   23.8620 C   0  0  0  0  0  3  0  0  0  0  0  0
  -27.5310  -37.2430   24.7140 C   0  0  0  0  0  1  0  0  0  0  0  0
  -26.4410  -37.4140   23.7550 N   0  0  0  0  0  0  0  0  0  0  0  0
  -26.0410  -38.3380   23.8890 H   0  0  0  0  0  0  0  0  0  0  0  0
  -26.3560  -31.7600   25.1500 C   0  0  1  0  0  0  0  0  0  0  0  0
  -25.2580  -31.5370   26.2170 C   0  0  0  0  0  1  0  0  0  0  0  0
  -26.9320  -30.3770   24.7690 C   0  0  0  0  0  1  0  0  0  0  0  0
  -27.5060  -32.5540   25.8140 C   0  0  0  0  0  1  0  0  0  0  0  0
  2  1  2  0
  2  7  1  0
  3  2  1  0
  4  3  1  0
  5  3  2  0
  5  6  1  0
  6  1  1  0
  8  7  1  0
  9 18  1  0
  9  8  2  0
 10 18  1  0
 11 16  1  0
 12 13  1  0
 12 11  1  0
 14 13  1  0
 14 23  1  0
 14 15  1  0
 16 10  1  0
 16 15  1  0
 17 10  2  0
 18 19  1  0
 20 21  2  0
 21 40  1  0
 22 21  1  0
 22 25  1  0
 23 20  1  0
 23 24  1  0
 24 22  2  0
 25 26  1  0
 26 27  2  0
 28 31  1  0
 28 27  1  0
 29 28  2  0
 30 29  1  0
 30 25  2  0
 31 32  1  0
 32 33  1  0
 33 34  2  0
 35 34  1  0
 35 39  1  0
 36 35  2  0
 37 32  2  0
 37 36  1  0
 38 37  1  0
 40 41  1  0
 41 44  1  0
 41 43  1  0
 42 40  2  0
 45 46  1  0
 45 20  1  0
 47 45  1  0
 48  6  1  0
 49 48  1  0
 49 50  1  0
 51 50  1  0
 52 63  2  0
 53 51  1  0
 53 58  1  0
 54 62  1  0
 54 64  1  0
 55 61  1  0
 55 57  1  0
 56 62  1  0
 57 56  1  0
 58 57  2  0
 59 60  1  0
 59 53  2  0
 60 55  2  0
 61 54  1  0
 62 52  1  0
 64 66  2  0
 65 64  1  0
 67 65  1  0
 68 77  2  0
 68 73  1  0
 69 65  1  0
 69 73  1  0
 70 69  1  0
 71 72  1  0
 71 70  1  0
 72 68  1  0
 73 74  2  0
 74 75  1  0
 76 75  2  0
 77 76  1  0
 78 52  1  0
 78 79  1  0
 78 88  1  0
 79 82  1  0
 80 84  1  0
 80 79  1  0
 81 80  2  0
 84 83  1  0
 86 84  1  0
 86 87  1  0
 86 85  1  0
 88 91  1  1
 88 89  1  0
 90 88  1  0
M  ISO  4  10 100  18 100  50 101  51 101
M  END
>  <TORSDO>  (55) 
F 22

>  <SCORE>  (55) 
-12.927

>  <name>  (55) 
54

>  <ligand_id>  (55) 
54

>  <original_smiles>  (55) 
[H]c1c([H])c([H])c2c(c1[H])C([H])([H])C([H])([H])C([H])([H])C2([H])N([H])C(=O)C1([H])N(C(=O)C([H])(N([H])C(=O)C([H])(N([H])C([H])([H])[H])C([H])([H])[H])C(C([H])([H])[H])(C([H])([H])[H])C([H])([H])[H])C([H])([H])c2c([H])c(OC([H])([H])C([H])([H])C([H])([H])n3nc(C([H])([H])[H])c(C([H])([H])C([H])([H])C([H])([H])N([H])C(=O)N4C([H])([H])C([H])([H])C([H])([H])C([H])(n5nc(-c6c([H])c([H])c(Oc7c([H])c([H])c(F)c([H])c7F)c([H])c6[H])c(C(=O)N([H])[H])c5N([H])[H])C4([H])[H])c3[H])c([H])c([H])c2C1([H])[H]

>  <smiles>  (55) 
[H]c1c([H])c([H])c2c(c1[H])C([H])([H])C([H])([H])C([H])([H])C2([H])N([H])C(=O)C1([H])N(C(=O)C([H])(N([H])C(=O)C([H])(N([H])C([H])([H])[H])C([H])([H])[H])C(C([H])([H])[H])(C([H])([H])[H])C([H])([H])[H])C([H])([H])c2c([H])c(OC([H])([H])C([H])([H])C([H])([H])n3nc(C([H])([H])[H])c(C([H])([H])C([H])([H])C([H])([H])N([H])C(=O)N4C([H])([H])C([H])([H])C([H])([H])C([H])(n5nc(-c6c([H])c([H])c(Oc7c([H])c([H])c(F)c([H])c7F)c([H])c6[H])c(C(=O)N([H])[H])c5N([H])[H])C4([H])[H])c3[H])c([H])c([H])c2C1([H])[H]

$$$$
55:0:0
     RDKit          3D

 93101  0  0  1  0  0  0  0  0999 V2000
  -31.9140  -21.1350   19.5330 C   0  0  0  0  0  3  0  0  0  0  0  0
  -30.6150  -20.5650   19.4420 C   0  0  0  0  0  0  0  0  0  0  0  0
  -31.7060  -22.4870   19.6120 C   0  0  0  0  0  0  0  0  0  0  0  0
  -29.6720  -21.4950   19.5430 N   0  0  0  0  0  0  0  0  0  0  0  0
  -30.3320  -22.6770   19.6020 N   0  0  0  0  0  0  0  0  0  0  0  0
  -32.9270  -24.1760   18.2080 C   0  0  0  0  0  1  0  0  0  0  0  0
  -34.0310  -23.2300   20.2750 C   0  0  0  0  0  1  0  0  0  0  0  0
  -32.6970  -23.6180   19.6210 C   0  0  0  0  0  3  0  0  0  0  0  0
  -30.2330  -19.1370   19.1200 C   0  0  0  0  0  2  0  0  0  0  0  0
  -30.2730  -18.1080   20.2770 C   0  0  0  0  0  2  0  0  0  0  0  0
  -29.7870  -16.7390   19.7380 C   0  0  0  0  0  2  0  0  0  0  0  0
  -30.5950  -14.5310   20.4710 C   0  0  0  0  0  0  0  0  0  0  0  0
  -30.3050  -12.3460   19.4010 C   0  0  0  0  0  2  0  0  0  0  0  0
  -29.3760  -12.5560   18.1870 C   0  0  0  0  0  2  0  0  0  0  0  0
  -27.8980  -12.4300   18.6060 C   0  0  0  0  0  2  0  0  0  0  0  0
  -27.5560  -13.2730   19.8650 C   0  0  0  0  0  3  0  0  0  0  0  0
  -28.6080  -13.0670   20.9810 C   0  0  0  0  0  2  0  0  0  0  0  0
  -29.9380  -13.3420   20.4170 N   0  0  0  0  0  0  0  0  0  0  0  0
  -31.7480  -14.6860   20.0640 O   0  0  0  0  0  0  0  0  0  0  0  0
  -29.7990  -15.5960   20.6680 N   0  0  0  0  0  0  0  0  0  0  0  0
  -28.9090  -15.3770   21.0930 H   0  0  0  0  0  0  0  0  0  0  0  0
  -25.1570  -13.8890   20.5710 C   0  0  0  0  0  0  0  0  0  0  0  0
  -24.0820  -13.1200   20.9310 C   0  0  0  0  0  0  0  0  0  0  0  0
  -24.5360  -11.7660   20.8880 C   0  0  0  0  0  0  0  0  0  0  0  0
  -26.1980  -13.0040   20.3370 N   0  0  0  0  0  0  0  0  0  0  0  0
  -25.8280  -11.7220   20.5860 N   0  0  0  0  0  0  0  0  0  0  0  0
  -23.8020  -10.5050   21.0640 C   0  0  0  0  0  0  0  0  0  0  0  0
  -24.2320   -9.5250   21.9850 C   0  0  0  0  0  3  0  0  0  0  0  0
  -23.5000   -8.3310   22.1510 C   0  0  0  0  0  3  0  0  0  0  0  0
  -22.3230   -8.1080   21.3970 C   0  0  0  0  0  0  0  0  0  0  0  0
  -21.9120   -9.0780   20.4660 C   0  0  0  0  0  3  0  0  0  0  0  0
  -22.6450  -10.2650   20.2980 C   0  0  0  0  0  3  0  0  0  0  0  0
  -21.5620   -6.9670   21.4740 O   0  0  0  0  0  0  0  0  0  0  0  0
  -21.5170   -6.2070   22.6150 C   0  0  0  0  0  0  0  0  0  0  0  0
  -21.1010   -6.7420   23.8530 C   0  0  0  0  0  3  0  0  0  0  0  0
  -21.0050   -5.9090   24.9840 C   0  0  0  0  0  3  0  0  0  0  0  0
  -21.3120   -4.5380   24.8790 C   0  0  0  0  0  0  0  0  0  0  0  0
  -21.7220   -4.0030   23.6460 C   0  0  0  0  0  3  0  0  0  0  0  0
  -21.8210   -4.8340   22.5170 C   0  0  0  0  0  0  0  0  0  0  0  0
  -22.1950   -4.3070   21.3250 F   0  0  0  0  0  0  0  0  0  0  0  0
  -21.2120   -3.7360   25.9650 F   0  0  0  0  0  0  0  0  0  0  0  0
  -22.6870  -13.6020   21.2040 C   0  0  0  0  0  0  0  0  0  0  0  0
  -21.9510  -12.8990   22.0570 N   0  0  0  0  0  0  0  0  0  0  0  0
  -22.2570  -14.6370   20.6960 O   0  0  0  0  0  0  0  0  0  0  0  0
  -22.3120  -12.0620   22.4900 H   0  0  0  0  0  0  0  0  0  0  0  0
  -21.0140  -13.2040   22.2810 H   0  0  0  0  0  0  0  0  0  0  0  0
  -25.3290  -15.2600   20.4060 N   0  0  0  0  0  0  0  0  0  0  0  0
  -24.5660  -15.9180   20.5210 H   0  0  0  0  0  0  0  0  0  0  0  0
  -26.1780  -15.7010   20.0760 H   0  0  0  0  0  0  0  0  0  0  0  0
  -29.5630  -23.9190   19.5900 C   0  0  0  0  0  2  0  0  0  0  0  0
  -29.4690  -24.5780   20.9780 C   0  0  0  0  0  2  0  0  0  0  0  0
  -28.3210  -25.5870   21.1010 C   0  0  0  0  0  2  0  0  0  0  0  0
  -28.5010  -26.7550   20.2910 O   0  0  0  0  0  0  0  0  0  0  0  0
  -24.6380  -31.9090   23.2850 C   0  0  0  0  0  0  0  0  0  0  0  0
  -27.3560  -27.5110   20.2330 C   0  0  0  0  0  0  0  0  0  0  0  0
  -23.4650  -30.4980   21.6260 C   0  0  0  0  0  3  0  0  0  0  0  0
  -24.9510  -28.9850   20.2100 C   0  0  0  0  0  0  0  0  0  0  0  0
  -25.9890  -30.8860   21.4610 C   0  0  0  0  0  2  0  0  0  0  0  0
  -26.0960  -29.5200   20.8170 C   0  0  0  0  0  0  0  0  0  0  0  0
  -27.3040  -28.7900   20.8270 C   0  0  0  0  0  3  0  0  0  0  0  0
  -26.2020  -26.9910   19.6100 C   0  0  0  0  0  3  0  0  0  0  0  0
  -24.9980  -27.7180   19.6010 C   0  0  0  0  0  3  0  0  0  0  0  0
  -23.6970  -29.8270   20.2470 C   0  0  0  0  0  2  0  0  0  0  0  0
  -24.7140  -31.1110   22.1830 N   0  0  0  0  0  0  0  0  0  0  0  0
  -23.5480  -32.1710   23.8120 O   0  0  0  0  0  0  0  0  0  0  0  0
  -22.8110  -29.4680   22.5760 C   0  0  0  0  0  0  0  0  0  0  0  0
  -21.4890  -29.2790   22.4340 N   0  0  0  0  0  0  0  0  0  0  0  0
  -23.4910  -28.8420   23.3940 O   0  0  0  0  0  0  0  0  0  0  0  0
  -21.0020  -29.8350   21.7440 H   0  0  0  0  0  0  0  0  0  0  0  0
  -18.1150  -28.0760   22.8980 C   0  0  0  0  0  0  0  0  0  0  0  0
  -20.6700  -28.3350   23.1930 C   0  0  0  0  0  3  0  0  0  0  0  0
  -20.7790  -26.9080   22.6060 C   0  0  0  0  0  2  0  0  0  0  0  0
  -19.6850  -26.5920   21.5820 C   0  0  0  0  0  2  0  0  0  0  0  0
  -18.2980  -26.7320   22.2160 C   0  0  0  0  0  2  0  0  0  0  0  0
  -19.2280  -28.8360   23.3440 C   0  0  0  0  0  0  0  0  0  0  0  0
  -19.0040  -30.0960   23.9410 C   0  0  0  0  0  3  0  0  0  0  0  0
  -17.6990  -30.5970   24.0950 C   0  0  0  0  0  3  0  0  0  0  0  0
  -16.5980  -29.8330   23.6670 C   0  0  0  0  0  3  0  0  0  0  0  0
  -16.8070  -28.5750   23.0770 C   0  0  0  0  0  3  0  0  0  0  0  0
  -25.9110  -32.5480   23.9210 C   0  0  0  0  0  3  0  0  0  0  0  0
  -25.5950  -33.9480   24.2340 N   0  0  0  0  0  0  0  0  0  0  0  0
  -25.9390  -34.9910   23.4670 C   0  0  0  0  0  0  0  0  0  0  0  0
  -26.6270  -34.8770   22.4490 O   0  0  0  0  0  0  0  0  0  0  0  0
  -24.9860  -34.1100   25.0220 H   0  0  0  0  0  0  0  0  0  0  0  0
  -24.2170  -36.7740   23.0550 C   0  0  0  0  0  1  0  0  0  0  0  0
  -25.4400  -36.3830   23.8980 C   0  0  0  0  0  3  0  0  0  0  0  0
  -27.5550  -37.2780   24.7660 C   0  0  0  0  0  1  0  0  0  0  0  0
  -26.4730  -37.4360   23.7960 N   0  0  0  0  0  0  0  0  0  0  0  0
  -26.0640  -38.3570   23.9230 H   0  0  0  0  0  0  0  0  0  0  0  0
  -26.4110  -31.7860   25.2100 C   0  0  1  0  0  0  0  0  0  0  0  0
  -25.3010  -31.5520   26.2610 C   0  0  0  0  0  1  0  0  0  0  0  0
  -27.0030  -30.4080   24.8330 C   0  0  0  0  0  1  0  0  0  0  0  0
  -27.5520  -32.5840   25.8820 C   0  0  0  0  0  1  0  0  0  0  0  0
  1  3  2  0
  2  1  1  0
  2  4  2  0
  3  8  1  0
  4  5  1  0
  5  3  1  0
  6  8  1  0
  8  7  1  0
  9  2  1  0
  9 10  1  0
 11 10  1  0
 11 20  1  0
 12 20  1  0
 13 18  1  0
 14 15  1  0
 14 13  1  0
 16 15  1  0
 16 25  1  0
 16 17  1  0
 18 12  1  0
 18 17  1  0
 19 12  2  0
 20 21  1  0
 22 23  2  0
 23 42  1  0
 24 23  1  0
 24 27  1  0
 25 22  1  0
 25 26  1  0
 26 24  2  0
 27 28  1  0
 28 29  2  0
 30 33  1  0
 30 29  1  0
 31 30  2  0
 32 31  1  0
 32 27  2  0
 33 34  1  0
 34 35  1  0
 35 36  2  0
 37 36  1  0
 37 41  1  0
 38 37  2  0
 39 34  2  0
 39 38  1  0
 40 39  1  0
 42 43  1  0
 43 46  1  0
 43 45  1  0
 44 42  2  0
 47 48  1  0
 47 22  1  0
 49 47  1  0
 50  5  1  0
 50 51  1  0
 51 52  1  0
 53 52  1  0
 54 65  2  0
 55 53  1  0
 55 60  1  0
 56 64  1  0
 56 66  1  0
 57 63  1  0
 57 59  1  0
 58 64  1  0
 59 60  2  0
 59 58  1  0
 61 55  2  0
 62 61  1  0
 62 57  2  0
 63 56  1  0
 64 54  1  0
 66 68  2  0
 67 66  1  0
 69 67  1  0
 70 79  2  0
 70 75  1  0
 71 67  1  0
 71 75  1  0
 72 71  1  0
 73 74  1  0
 73 72  1  0
 74 70  1  0
 75 76  2  0
 76 77  1  0
 78 77  2  0
 79 78  1  0
 80 54  1  0
 80 81  1  0
 80 90  1  0
 81 84  1  0
 82 86  1  0
 82 81  1  0
 83 82  2  0
 86 85  1  0
 88 86  1  0
 88 89  1  0
 88 87  1  0
 90 93  1  1
 90 91  1  0
 92 90  1  0
M  ISO  4  12 100  20 100  52 101  53 101
M  END
>  <TORSDO>  (56) 
F 23

>  <SCORE>  (56) 
-12.489

>  <name>  (56) 
55

>  <ligand_id>  (56) 
55

>  <original_smiles>  (56) 
[H]c1c([H])c([H])c2c(c1[H])C([H])([H])C([H])([H])C([H])([H])C2([H])N([H])C(=O)C1([H])N(C(=O)C([H])(N([H])C(=O)C([H])(N([H])C([H])([H])[H])C([H])([H])[H])C(C([H])([H])[H])(C([H])([H])[H])C([H])([H])[H])C([H])([H])c2c([H])c(OC([H])([H])C([H])([H])C([H])([H])n3nc(C([H])([H])C([H])([H])C([H])([H])N([H])C(=O)N4C([H])([H])C([H])([H])C([H])([H])C([H])(n5nc(-c6c([H])c([H])c(Oc7c([H])c([H])c(F)c([H])c7F)c([H])c6[H])c(C(=O)N([H])[H])c5N([H])[H])C4([H])[H])c([H])c3C([H])(C([H])([H])[H])C([H])([H])[H])c([H])c([H])c2C1([H])[H]

>  <smiles>  (56) 
[H]c1c([H])c([H])c2c(c1[H])C([H])([H])C([H])([H])C([H])([H])C2([H])N([H])C(=O)C1([H])N(C(=O)C([H])(N([H])C(=O)C([H])(N([H])C([H])([H])[H])C([H])([H])[H])C(C([H])([H])[H])(C([H])([H])[H])C([H])([H])[H])C([H])([H])c2c([H])c(OC([H])([H])C([H])([H])C([H])([H])n3nc(C([H])([H])C([H])([H])C([H])([H])N([H])C(=O)N4C([H])([H])C([H])([H])C([H])([H])C([H])(n5nc(-c6c([H])c([H])c(Oc7c([H])c([H])c(F)c([H])c7F)c([H])c6[H])c(C(=O)N([H])[H])c5N([H])[H])C4([H])[H])c([H])c3C([H])(C([H])([H])[H])C([H])([H])[H])c([H])c([H])c2C1([H])[H]

$$$$
56:0:0
     RDKit          3D

 94102  0  0  1  0  0  0  0  0999 V2000
  -30.6660  -22.7770   21.0620 C   0  0  0  0  0  3  0  0  0  0  0  0
  -29.6320  -21.9260   20.6120 C   0  0  0  0  0  0  0  0  0  0  0  0
  -29.9480  -20.5230   20.7050 C   0  0  0  0  0  0  0  0  0  0  0  0
  -32.0670  -21.0060   21.4900 C   0  0  0  0  0  0  0  0  0  0  0  0
  -31.8630  -22.3200   21.4870 N   0  0  0  0  0  0  0  0  0  0  0  0
  -31.1640  -20.1210   21.1160 N   0  0  0  0  0  0  0  0  0  0  0  0
  -34.1590  -20.5820   20.1770 C   0  0  0  0  0  1  0  0  0  0  0  0
  -33.7380  -19.0990   22.2340 C   0  0  0  0  0  1  0  0  0  0  0  0
  -33.5150  -20.4970   21.5720 C   0  0  0  0  0  3  0  0  0  0  0  0
  -28.3080  -22.5210   20.0130 C   0  0  0  0  0  2  0  0  0  0  0  0
  -27.7910  -24.0070   20.3150 C   0  0  0  0  0  3  0  0  0  0  0  0
  -28.4160  -25.2640   19.5900 C   0  0  0  0  0  3  0  0  0  0  0  0
  -28.1690  -26.6190   20.1350 O   0  0  0  0  0  0  0  0  0  0  0  0
  -24.5150  -31.9360   23.2170 C   0  0  0  0  0  0  0  0  0  0  0  0
  -27.0070  -27.3990   20.0480 C   0  0  0  0  0  0  0  0  0  0  0  0
  -23.2360  -30.5580   21.6120 C   0  0  0  0  0  3  0  0  0  0  0  0
  -24.6250  -28.9990   20.1080 C   0  0  0  0  0  0  0  0  0  0  0  0
  -25.7580  -30.8730   21.3080 C   0  0  0  0  0  2  0  0  0  0  0  0
  -25.8130  -29.4960   20.6610 C   0  0  0  0  0  0  0  0  0  0  0  0
  -26.9970  -28.7090   20.6220 C   0  0  0  0  0  3  0  0  0  0  0  0
  -25.8100  -26.9520   19.4560 C   0  0  0  0  0  3  0  0  0  0  0  0
  -24.6330  -27.7360   19.4900 C   0  0  0  0  0  3  0  0  0  0  0  0
  -23.3910  -29.8780   20.2180 C   0  0  0  0  0  2  0  0  0  0  0  0
  -24.5280  -31.1360   22.1090 N   0  0  0  0  0  0  0  0  0  0  0  0
  -23.4580  -32.2150   23.8010 O   0  0  0  0  0  0  0  0  0  0  0  0
  -22.6040  -29.5440   22.5920 C   0  0  0  0  0  0  0  0  0  0  0  0
  -21.2810  -29.3350   22.4690 N   0  0  0  0  0  0  0  0  0  0  0  0
  -23.2980  -28.9440   23.4180 O   0  0  0  0  0  0  0  0  0  0  0  0
  -20.7880  -29.8870   21.7840 H   0  0  0  0  0  0  0  0  0  0  0  0
  -17.9370  -28.0300   22.9170 C   0  0  0  0  0  0  0  0  0  0  0  0
  -20.4790  -28.3890   23.2440 C   0  0  0  0  0  3  0  0  0  0  0  0
  -20.6440  -26.9440   22.7150 C   0  0  0  0  0  2  0  0  0  0  0  0
  -19.5790  -26.5530   21.6830 C   0  0  0  0  0  2  0  0  0  0  0  0
  -18.1760  -26.6680   22.2860 C   0  0  0  0  0  2  0  0  0  0  0  0
  -19.0180  -28.8450   23.3480 C   0  0  0  0  0  0  0  0  0  0  0  0
  -18.7410  -30.1170   23.8960 C   0  0  0  0  0  3  0  0  0  0  0  0
  -17.4160  -30.5750   24.0160 C   0  0  0  0  0  3  0  0  0  0  0  0
  -16.3510  -29.7610   23.5960 C   0  0  0  0  0  3  0  0  0  0  0  0
  -16.6120  -28.4910   23.0530 C   0  0  0  0  0  3  0  0  0  0  0  0
  -25.8270  -32.5490   23.7970 C   0  0  0  0  0  3  0  0  0  0  0  0
  -25.5470  -33.9520   24.1330 N   0  0  0  0  0  0  0  0  0  0  0  0
  -25.8870  -35.0020   23.3720 C   0  0  0  0  0  0  0  0  0  0  0  0
  -26.5360  -34.8920   22.3260 O   0  0  0  0  0  0  0  0  0  0  0  0
  -24.9710  -34.1180   24.9440 H   0  0  0  0  0  0  0  0  0  0  0  0
  -24.1830  -36.8280   23.0560 C   0  0  0  0  0  1  0  0  0  0  0  0
  -25.4310  -36.3950   23.8440 C   0  0  0  0  0  3  0  0  0  0  0  0
  -27.5980  -37.2350   24.6330 C   0  0  0  0  0  1  0  0  0  0  0  0
  -26.4760  -37.4350   23.7230 N   0  0  0  0  0  0  0  0  0  0  0  0
  -26.0840  -38.3550   23.9090 H   0  0  0  0  0  0  0  0  0  0  0  0
  -26.3620  -31.7770   25.0640 C   0  0  1  0  0  0  0  0  0  0  0  0
  -25.2950  -31.5410   26.1550 C   0  0  0  0  0  1  0  0  0  0  0  0
  -26.9340  -30.4070   24.6380 C   0  0  0  0  0  1  0  0  0  0  0  0
  -27.5270  -32.5740   25.7030 C   0  0  0  0  0  1  0  0  0  0  0  0
  -29.0040  -19.3060   20.5720 C   0  0  0  0  0  2  0  0  0  0  0  0
  -29.5520  -17.9560   19.9670 C   0  0  0  0  0  2  0  0  0  0  0  0
  -30.5320  -17.1110   20.8510 C   0  0  0  0  0  2  0  0  0  0  0  0
  -30.9760  -14.6370   20.4730 C   0  0  0  0  0  0  0  0  0  0  0  0
  -30.7580  -12.4190   19.4290 C   0  0  0  0  0  2  0  0  0  0  0  0
  -29.8180  -12.4970   18.2070 C   0  0  0  0  0  2  0  0  0  0  0  0
  -28.3500  -12.3240   18.6390 C   0  0  0  0  0  2  0  0  0  0  0  0
  -27.9600  -13.2520   19.8220 C   0  0  0  0  0  3  0  0  0  0  0  0
  -28.9960  -13.1430   20.9580 C   0  0  0  0  0  2  0  0  0  0  0  0
  -30.3260  -13.4430   20.3950 N   0  0  0  0  0  0  0  0  0  0  0  0
  -32.1250  -14.8080   20.0690 O   0  0  0  0  0  0  0  0  0  0  0  0
  -30.2010  -15.6770   20.8560 N   0  0  0  0  0  0  0  0  0  0  0  0
  -29.2720  -15.4380   21.1510 H   0  0  0  0  0  0  0  0  0  0  0  0
  -25.5550  -13.8600   20.5120 C   0  0  0  0  0  0  0  0  0  0  0  0
  -24.4880  -13.0880   20.8710 C   0  0  0  0  0  0  0  0  0  0  0  0
  -24.9500  -11.7370   20.8480 C   0  0  0  0  0  0  0  0  0  0  0  0
  -26.6050  -12.9780   20.2900 N   0  0  0  0  0  0  0  0  0  0  0  0
  -26.2430  -11.6980   20.5560 N   0  0  0  0  0  0  0  0  0  0  0  0
  -24.2270  -10.4740   21.0360 C   0  0  0  0  0  0  0  0  0  0  0  0
  -24.6140   -9.5490   22.0290 C   0  0  0  0  0  3  0  0  0  0  0  0
  -23.8980   -8.3430   22.2030 C   0  0  0  0  0  3  0  0  0  0  0  0
  -22.7790   -8.0570   21.3840 C   0  0  0  0  0  0  0  0  0  0  0  0
  -22.4140   -8.9720   20.3810 C   0  0  0  0  0  3  0  0  0  0  0  0
  -23.1280  -10.1690   20.2040 C   0  0  0  0  0  3  0  0  0  0  0  0
  -22.0450   -6.8940   21.4600 O   0  0  0  0  0  0  0  0  0  0  0  0
  -21.8810   -6.2200   22.6430 C   0  0  0  0  0  0  0  0  0  0  0  0
  -21.2760   -6.8230   23.7680 C   0  0  0  0  0  3  0  0  0  0  0  0
  -21.0710   -6.0770   24.9450 C   0  0  0  0  0  3  0  0  0  0  0  0
  -21.4560   -4.7220   24.9980 C   0  0  0  0  0  0  0  0  0  0  0  0
  -22.0500   -4.1160   23.8750 C   0  0  0  0  0  3  0  0  0  0  0  0
  -22.2630   -4.8650   22.7050 C   0  0  0  0  0  0  0  0  0  0  0  0
  -22.8180   -4.2720   21.6190 F   0  0  0  0  0  0  0  0  0  0  0  0
  -21.2510   -4.0010   26.1220 F   0  0  0  0  0  0  0  0  0  0  0  0
  -23.0860  -13.5590   21.1330 C   0  0  0  0  0  0  0  0  0  0  0  0
  -22.3560  -12.8530   21.9850 N   0  0  0  0  0  0  0  0  0  0  0  0
  -22.6490  -14.5840   20.6100 O   0  0  0  0  0  0  0  0  0  0  0  0
  -22.7330  -12.0270   22.4280 H   0  0  0  0  0  0  0  0  0  0  0  0
  -21.4090  -13.1320   22.1940 H   0  0  0  0  0  0  0  0  0  0  0  0
  -25.7290  -15.2300   20.3260 N   0  0  0  0  0  0  0  0  0  0  0  0
  -24.9800  -15.9010   20.4280 H   0  0  0  0  0  0  0  0  0  0  0  0
  -26.5760  -15.6440   19.9540 H   0  0  0  0  0  0  0  0  0  0  0  0
  1  5  1  0
  2  3  1  0
  2  1  2  0
  3  6  2  0
  4  9  1  0
  5  4  2  0
  6  4  1  0
  7  9  1  0
  9  8  1  0
 10 11  1  0
 10  2  1  0
 12 13  1  0
 12 11  2  0
 14 25  2  0
 15 13  1  0
 15 20  1  0
 16 24  1  0
 16 26  1  0
 17 23  1  0
 17 19  1  0
 18 24  1  0
 19 18  1  0
 20 19  2  0
 21 22  1  0
 21 15  2  0
 22 17  2  0
 23 16  1  0
 24 14  1  0
 26 28  2  0
 27 26  1  0
 29 27  1  0
 30 39  2  0
 30 35  1  0
 31 27  1  0
 31 35  1  0
 32 31  1  0
 33 34  1  0
 33 32  1  0
 34 30  1  0
 35 36  2  0
 36 37  1  0
 38 37  2  0
 39 38  1  0
 40 14  1  0
 40 41  1  0
 40 50  1  0
 41 44  1  0
 42 46  1  0
 42 41  1  0
 43 42  2  0
 46 45  1  0
 48 46  1  0
 48 49  1  0
 48 47  1  0
 50 53  1  1
 50 51  1  0
 52 50  1  0
 54  3  1  0
 55 54  1  0
 55 56  1  0
 56 65  1  0
 57 65  1  0
 58 63  1  0
 59 60  1  0
 59 58  1  0
 61 60  1  0
 61 70  1  0
 61 62  1  0
 63 57  1  0
 63 62  1  0
 64 57  2  0
 65 66  1  0
 67 68  2  0
 68 87  1  0
 69 68  1  0
 69 72  1  0
 70 67  1  0
 70 71  1  0
 71 69  2  0
 72 73  1  0
 73 74  2  0
 75 78  1  0
 75 74  1  0
 76 75  2  0
 77 76  1  0
 77 72  2  0
 78 79  1  0
 79 84  2  0
 79 80  1  0
 80 81  2  0
 81 82  1  0
 82 86  1  0
 83 82  2  0
 84 83  1  0
 85 84  1  0
 87 88  1  0
 88 91  1  0
 88 90  1  0
 89 87  2  0
 92 93  1  0
 92 67  1  0
 94 92  1  0
M  ISO  4  12 101  13 101  57 100  65 100
M  END
>  <TORSDO>  (57) 
F 23

>  <SCORE>  (57) 
-12.069

>  <name>  (57) 
56

>  <ligand_id>  (57) 
56

>  <original_smiles>  (57) 
[H]c1nc(C([H])(C([H])([H])[H])C([H])([H])[H])nc(C([H])([H])C([H])([H])C([H])([H])N([H])C(=O)N2C([H])([H])C([H])([H])C([H])([H])C([H])(n3nc(-c4c([H])c([H])c(Oc5c([H])c([H])c(F)c([H])c5F)c([H])c4[H])c(C(=O)N([H])[H])c3N([H])[H])C2([H])[H])c1C([H])([H])C([H])([H])C([H])([H])Oc1c([H])c([H])c2c(c1[H])C([H])([H])N(C(=O)C([H])(N([H])C(=O)C([H])(N([H])C([H])([H])[H])C([H])([H])[H])C(C([H])([H])[H])(C([H])([H])[H])C([H])([H])[H])C([H])(C(=O)N([H])C1([H])c3c([H])c([H])c([H])c([H])c3C([H])([H])C([H])([H])C1([H])[H])C2([H])[H]

>  <smiles>  (57) 
[H]c1nc(C([H])(C([H])([H])[H])C([H])([H])[H])nc(C([H])([H])C([H])([H])C([H])([H])N([H])C(=O)N2C([H])([H])C([H])([H])C([H])([H])C([H])(n3nc(-c4c([H])c([H])c(Oc5c([H])c([H])c(F)c([H])c5F)c([H])c4[H])c(C(=O)N([H])[H])c3N([H])[H])C2([H])[H])c1C([H])([H])C([H])([H])C([H])([H])Oc1c([H])c([H])c2c(c1[H])C([H])([H])N(C(=O)C([H])(N([H])C(=O)C([H])(N([H])C([H])([H])[H])C([H])([H])[H])C(C([H])([H])[H])(C([H])([H])[H])C([H])([H])[H])C([H])(C(=O)N([H])C1([H])c3c([H])c([H])c([H])c([H])c3C([H])([H])C([H])([H])C1([H])[H])C2([H])[H]

$$$$
57:0:0
     RDKit          3D

 93101  0  0  1  0  0  0  0  0999 V2000
  -29.6600  -21.1110   20.1160 C   0  0  0  0  0  3  0  0  0  0  0  0
  -29.3010  -19.7910   19.6220 C   0  0  0  0  0  0  0  0  0  0  0  0
  -28.1380  -19.7660   18.8030 C   0  0  0  0  0  0  0  0  0  0  0  0
  -28.8930  -22.2980   19.7880 C   0  0  0  0  0  0  0  0  0  0  0  0
  -27.4750  -20.9770   18.4800 C   0  0  0  0  0  0  0  0  0  0  0  0
  -27.6360  -18.4490   18.2080 C   0  0  0  0  0  1  0  0  0  0  0  0
  -27.8210  -22.1800   18.9830 N   0  0  0  0  0  0  0  0  0  0  0  0
  -24.9460  -20.9990   18.1180 C   0  0  0  0  0  1  0  0  0  0  0  0
  -26.3350  -21.0380   17.4680 C   0  0  0  0  0  2  0  0  0  0  0  0
  -31.6810  -18.7660   19.6220 C   0  0  0  0  0  1  0  0  0  0  0  0
  -30.1810  -18.4520   19.7370 C   0  0  0  0  0  3  0  0  0  0  0  0
  -29.9260  -17.3820   20.9150 C   0  0  0  0  0  2  0  0  0  0  0  0
  -30.5780  -14.8220   20.4150 C   0  0  0  0  0  0  0  0  0  0  0  0
  -30.4210  -12.5410   19.4060 C   0  0  0  0  0  2  0  0  0  0  0  0
  -29.4780  -12.6000   18.1820 C   0  0  0  0  0  2  0  0  0  0  0  0
  -28.0050  -12.4310   18.6070 C   0  0  0  0  0  2  0  0  0  0  0  0
  -27.6230  -13.3250   19.8150 C   0  0  0  0  0  3  0  0  0  0  0  0
  -28.6790  -13.2270   20.9390 C   0  0  0  0  0  2  0  0  0  0  0  0
  -29.9780  -13.5870   20.3510 N   0  0  0  0  0  0  0  0  0  0  0  0
  -31.7670  -14.9680   20.1200 O   0  0  0  0  0  0  0  0  0  0  0  0
  -29.7390  -15.8940   20.6290 N   0  0  0  0  0  0  0  0  0  0  0  0
  -28.7880  -15.5880   20.7650 H   0  0  0  0  0  0  0  0  0  0  0  0
  -25.2270  -13.9230   20.5230 C   0  0  0  0  0  0  0  0  0  0  0  0
  -24.1600  -13.1500   20.8890 C   0  0  0  0  0  0  0  0  0  0  0  0
  -24.6230  -11.8000   20.8650 C   0  0  0  0  0  0  0  0  0  0  0  0
  -26.2750  -13.0430   20.2980 N   0  0  0  0  0  0  0  0  0  0  0  0
  -25.9160  -11.7610   20.5650 N   0  0  0  0  0  0  0  0  0  0  0  0
  -23.8960  -10.5380   21.0510 C   0  0  0  0  0  0  0  0  0  0  0  0
  -24.3360   -9.5600   21.9700 C   0  0  0  0  0  3  0  0  0  0  0  0
  -23.6080   -8.3630   22.1440 C   0  0  0  0  0  3  0  0  0  0  0  0
  -22.4260   -8.1360   21.4010 C   0  0  0  0  0  0  0  0  0  0  0  0
  -22.0040   -9.1030   20.4710 C   0  0  0  0  0  3  0  0  0  0  0  0
  -22.7320  -10.2920   20.2940 C   0  0  0  0  0  3  0  0  0  0  0  0
  -21.6690   -6.9920   21.4870 O   0  0  0  0  0  0  0  0  0  0  0  0
  -21.6520   -6.2240   22.6230 C   0  0  0  0  0  0  0  0  0  0  0  0
  -21.2770   -6.7550   23.8760 C   0  0  0  0  0  3  0  0  0  0  0  0
  -21.2070   -5.9150   25.0050 C   0  0  0  0  0  3  0  0  0  0  0  0
  -21.5000   -4.5430   24.8810 C   0  0  0  0  0  0  0  0  0  0  0  0
  -21.8690   -4.0110   23.6330 C   0  0  0  0  0  3  0  0  0  0  0  0
  -21.9410   -4.8490   22.5060 C   0  0  0  0  0  0  0  0  0  0  0  0
  -22.2750   -4.3270   21.3020 F   0  0  0  0  0  0  0  0  0  0  0  0
  -21.4260   -3.7330   25.9630 F   0  0  0  0  0  0  0  0  0  0  0  0
  -22.7600  -13.6290   21.1480 C   0  0  0  0  0  0  0  0  0  0  0  0
  -22.0270  -12.9380   22.0140 N   0  0  0  0  0  0  0  0  0  0  0  0
  -22.3260  -14.6500   20.6180 O   0  0  0  0  0  0  0  0  0  0  0  0
  -22.3900  -12.1100   22.4640 H   0  0  0  0  0  0  0  0  0  0  0  0
  -21.0890  -13.2430   22.2330 H   0  0  0  0  0  0  0  0  0  0  0  0
  -25.3880  -15.2920   20.3390 N   0  0  0  0  0  0  0  0  0  0  0  0
  -24.6090  -15.9340   20.4280 H   0  0  0  0  0  0  0  0  0  0  0  0
  -26.2190  -15.7270   19.9650 H   0  0  0  0  0  0  0  0  0  0  0  0
  -29.1800  -23.7870   20.2830 C   0  0  0  0  0  3  0  0  0  0  0  0
  -28.2320  -24.9960   19.7680 C   0  0  0  0  0  3  0  0  0  0  0  0
  -28.4240  -26.4460   20.1250 O   0  0  0  0  0  0  0  0  0  0  0  0
  -24.6150  -31.8320   23.1710 C   0  0  0  0  0  0  0  0  0  0  0  0
  -27.3100  -27.3190   20.0660 C   0  0  0  0  0  0  0  0  0  0  0  0
  -23.4480  -30.4490   21.4940 C   0  0  0  0  0  3  0  0  0  0  0  0
  -24.9330  -28.9380   20.0570 C   0  0  0  0  0  0  0  0  0  0  0  0
  -25.9890  -30.7850   21.3530 C   0  0  0  0  0  2  0  0  0  0  0  0
  -26.0930  -29.4170   20.6800 C   0  0  0  0  0  0  0  0  0  0  0  0
  -27.2820  -28.6180   20.6780 C   0  0  0  0  0  3  0  0  0  0  0  0
  -26.1240  -26.9130   19.4090 C   0  0  0  0  0  3  0  0  0  0  0  0
  -24.9530  -27.6930   19.4130 C   0  0  0  0  0  3  0  0  0  0  0  0
  -23.6880  -29.7990   20.1060 C   0  0  0  0  0  2  0  0  0  0  0  0
  -24.7020  -31.0400   22.0610 N   0  0  0  0  0  0  0  0  0  0  0  0
  -23.5220  -32.0890   23.6970 O   0  0  0  0  0  0  0  0  0  0  0  0
  -22.7830  -29.4100   22.4290 C   0  0  0  0  0  0  0  0  0  0  0  0
  -21.4550  -29.2440   22.3060 N   0  0  0  0  0  0  0  0  0  0  0  0
  -23.4620  -28.7550   23.2260 O   0  0  0  0  0  0  0  0  0  0  0  0
  -20.9690  -29.8210   21.6330 H   0  0  0  0  0  0  0  0  0  0  0  0
  -18.0660  -28.0870   22.8280 C   0  0  0  0  0  0  0  0  0  0  0  0
  -20.6330  -28.2950   23.0580 C   0  0  0  0  0  3  0  0  0  0  0  0
  -20.7010  -26.8840   22.4290 C   0  0  0  0  0  2  0  0  0  0  0  0
  -19.5750  -26.6180   21.4250 C   0  0  0  0  0  2  0  0  0  0  0  0
  -18.2070  -26.7610   22.1000 C   0  0  0  0  0  2  0  0  0  0  0  0
  -19.2050  -28.8140   23.2620 C   0  0  0  0  0  0  0  0  0  0  0  0
  -19.0180  -30.0570   23.9060 C   0  0  0  0  0  3  0  0  0  0  0  0
  -17.7250  -30.5720   24.1170 C   0  0  0  0  0  3  0  0  0  0  0  0
  -16.6010  -29.8420   23.6950 C   0  0  0  0  0  3  0  0  0  0  0  0
  -16.7720  -28.6010   23.0560 C   0  0  0  0  0  3  0  0  0  0  0  0
  -25.8830  -32.4680   23.8180 C   0  0  0  0  0  3  0  0  0  0  0  0
  -25.5580  -33.8640   24.1480 N   0  0  0  0  0  0  0  0  0  0  0  0
  -25.9000  -34.9230   23.4030 C   0  0  0  0  0  0  0  0  0  0  0  0
  -26.5930  -34.8290   22.3850 O   0  0  0  0  0  0  0  0  0  0  0  0
  -24.9370  -34.0090   24.9300 H   0  0  0  0  0  0  0  0  0  0  0  0
  -24.1700  -36.7130   23.0320 C   0  0  0  0  0  1  0  0  0  0  0  0
  -25.4000  -36.3070   23.8590 C   0  0  0  0  0  3  0  0  0  0  0  0
  -27.5170  -37.1990   24.7280 C   0  0  0  0  0  1  0  0  0  0  0  0
  -26.4310  -37.3660   23.7680 N   0  0  0  0  0  0  0  0  0  0  0  0
  -26.0180  -38.2840   23.9130 H   0  0  0  0  0  0  0  0  0  0  0  0
  -26.3800  -31.6950   25.1010 C   0  0  1  0  0  0  0  0  0  0  0  0
  -25.2680  -31.4500   26.1490 C   0  0  0  0  0  1  0  0  0  0  0  0
  -26.9740  -30.3190   24.7180 C   0  0  0  0  0  1  0  0  0  0  0  0
  -27.5160  -32.4910   25.7840 C   0  0  0  0  0  1  0  0  0  0  0  0
  2 11  1  0
  2  1  2  0
  3  2  1  0
  4  1  1  0
  4 51  1  0
  5  3  2  0
  5  7  1  0
  6  3  1  0
  7  4  2  0
  9  8  1  0
  9  5  1  0
 11 10  1  0
 11 12  1  0
 13 21  1  0
 14 19  1  0
 15 16  1  0
 15 14  1  0
 17 16  1  0
 17 26  1  0
 17 18  1  0
 19 13  1  0
 19 18  1  0
 20 13  2  0
 21 22  1  0
 21 12  1  0
 23 24  2  0
 24 43  1  0
 25 24  1  0
 25 28  1  0
 26 23  1  0
 26 27  1  0
 27 25  2  0
 28 29  1  0
 29 30  2  0
 31 34  1  0
 31 30  1  0
 32 31  2  0
 33 32  1  0
 33 28  2  0
 34 35  1  0
 35 36  1  0
 36 37  2  0
 38 37  1  0
 38 42  1  0
 39 38  2  0
 40 35  2  0
 40 39  1  0
 41 40  1  0
 43 44  1  0
 44 47  1  0
 44 46  1  0
 45 43  2  0
 48 49  1  0
 48 23  1  0
 50 48  1  0
 52 53  1  0
 52 51  2  0
 54 65  2  0
 55 53  1  0
 55 60  1  0
 56 64  1  0
 56 66  1  0
 57 63  1  0
 57 59  1  0
 58 64  1  0
 59 58  1  0
 60 59  2  0
 61 62  1  0
 61 55  2  0
 62 57  2  0
 63 56  1  0
 64 54  1  0
 66 68  2  0
 67 66  1  0
 69 67  1  0
 70 79  2  0
 70 75  1  0
 71 67  1  0
 71 75  1  0
 72 71  1  0
 73 74  1  0
 73 72  1  0
 74 70  1  0
 75 76  2  0
 76 77  1  0
 78 77  2  0
 79 78  1  0
 80 54  1  0
 80 81  1  0
 80 90  1  0
 81 84  1  0
 82 86  1  0
 82 81  1  0
 83 82  2  0
 86 85  1  0
 88 86  1  0
 88 89  1  0
 88 87  1  0
 90 93  1  1
 90 91  1  0
 92 90  1  0
M  ISO  4  13 100  21 100  52 101  53 101
M  END
>  <TORSDO>  (58) 
F 21

>  <SCORE>  (58) 
-13.637

>  <name>  (58) 
57

>  <ligand_id>  (58) 
57

>  <original_smiles>  (58) 
[H]c1c([H])c([H])c2c(c1[H])C([H])([H])C([H])([H])C([H])([H])C2([H])N([H])C(=O)C1([H])N(C(=O)C([H])(N([H])C(=O)C([H])(N([H])C([H])([H])[H])C([H])([H])[H])C(C([H])([H])[H])(C([H])([H])[H])C([H])([H])[H])C([H])([H])c2c([H])c(OC([H])([H])C([H])([H])c3nc(C([H])([H])C([H])([H])[H])c(C([H])([H])[H])c(C([H])(C([H])([H])[H])C([H])([H])N([H])C(=O)N4C([H])([H])C([H])([H])C([H])([H])C([H])(n5nc(-c6c([H])c([H])c(Oc7c([H])c([H])c(F)c([H])c7F)c([H])c6[H])c(C(=O)N([H])[H])c5N([H])[H])C4([H])[H])c3[H])c([H])c([H])c2C1([H])[H]

>  <smiles>  (58) 
[H]c1c([H])c([H])c2c(c1[H])C([H])([H])C([H])([H])C([H])([H])C2([H])N([H])C(=O)C1([H])N(C(=O)C([H])(N([H])C(=O)C([H])(N([H])C([H])([H])[H])C([H])([H])[H])C(C([H])([H])[H])(C([H])([H])[H])C([H])([H])[H])C([H])([H])c2c([H])c(OC([H])([H])C([H])([H])c3nc(C([H])([H])C([H])([H])[H])c(C([H])([H])[H])c(C([H])(C([H])([H])[H])C([H])([H])N([H])C(=O)N4C([H])([H])C([H])([H])C([H])([H])C([H])(n5nc(-c6c([H])c([H])c(Oc7c([H])c([H])c(F)c([H])c7F)c([H])c6[H])c(C(=O)N([H])[H])c5N([H])[H])C4([H])[H])c3[H])c([H])c([H])c2C1([H])[H]

$$$$
58:0:0
     RDKit          3D

 88 96  0  0  1  0  0  0  0  0999 V2000
  -28.7880  -18.9720   20.6460 C   0  0  0  0  0  3  0  0  0  0  0  0
  -29.2240  -20.2880   20.3180 C   0  0  0  0  0  0  0  0  0  0  0  0
  -30.8760  -18.6790   20.0920 C   0  0  0  0  0  3  0  0  0  0  0  0
  -32.2400  -18.1470   19.8080 C   0  0  0  0  0  1  0  0  0  0  0  0
  -29.7950  -17.9660   20.4910 N   0  0  0  0  0  0  0  0  0  0  0  0
  -30.5350  -20.0020   19.9760 N   0  0  0  0  0  0  0  0  0  0  0  0
  -31.1890  -20.7090   19.6580 H   0  0  0  0  0  0  0  0  0  0  0  0
  -28.4420  -21.7360   20.1630 C   0  0  0  0  0  2  0  0  0  0  0  0
  -28.9570  -23.3280   20.3960 C   0  0  0  0  0  3  0  0  0  0  0  0
  -27.9730  -24.6770   20.0960 C   0  0  0  0  0  3  0  0  0  0  0  0
  -28.2510  -26.2050   20.2730 O   0  0  0  0  0  0  0  0  0  0  0  0
  -24.6210  -31.9240   23.2110 C   0  0  0  0  0  0  0  0  0  0  0  0
  -27.1950  -27.1910   20.2000 C   0  0  0  0  0  0  0  0  0  0  0  0
  -23.4180  -30.5200   21.5810 C   0  0  0  0  0  3  0  0  0  0  0  0
  -24.8650  -28.9390   20.1610 C   0  0  0  0  0  0  0  0  0  0  0  0
  -25.9730  -30.7830   21.4120 C   0  0  0  0  0  2  0  0  0  0  0  0
  -26.0450  -29.3880   20.7650 C   0  0  0  0  0  0  0  0  0  0  0  0
  -27.2110  -28.5310   20.7670 C   0  0  0  0  0  3  0  0  0  0  0  0
  -25.9860  -26.8470   19.5550 C   0  0  0  0  0  3  0  0  0  0  0  0
  -24.8480  -27.6820   19.5390 C   0  0  0  0  0  3  0  0  0  0  0  0
  -23.6370  -29.8360   20.2060 C   0  0  0  0  0  2  0  0  0  0  0  0
  -24.6910  -31.0980   22.1230 N   0  0  0  0  0  0  0  0  0  0  0  0
  -23.5360  -32.2130   23.7390 O   0  0  0  0  0  0  0  0  0  0  0  0
  -22.7400  -29.5190   22.5500 C   0  0  0  0  0  0  0  0  0  0  0  0
  -21.4130  -29.3460   22.4240 N   0  0  0  0  0  0  0  0  0  0  0  0
  -23.4120  -28.8990   23.3790 O   0  0  0  0  0  0  0  0  0  0  0  0
  -20.9270  -29.8950   21.7290 H   0  0  0  0  0  0  0  0  0  0  0  0
  -18.0290  -28.1650   22.9540 C   0  0  0  0  0  0  0  0  0  0  0  0
  -20.5910  -28.4130   23.2010 C   0  0  0  0  0  3  0  0  0  0  0  0
  -20.6810  -26.9800   22.6280 C   0  0  0  0  0  2  0  0  0  0  0  0
  -19.5700  -26.6630   21.6210 C   0  0  0  0  0  2  0  0  0  0  0  0
  -18.1940  -26.8140   22.2760 C   0  0  0  0  0  2  0  0  0  0  0  0
  -19.1540  -28.9220   23.3750 C   0  0  0  0  0  0  0  0  0  0  0  0
  -18.9450  -30.1840   23.9700 C   0  0  0  0  0  3  0  0  0  0  0  0
  -17.6430  -30.6900   24.1490 C   0  0  0  0  0  3  0  0  0  0  0  0
  -16.5330  -29.9300   23.7440 C   0  0  0  0  0  3  0  0  0  0  0  0
  -16.7260  -28.6690   23.1520 C   0  0  0  0  0  3  0  0  0  0  0  0
  -25.9000  -32.5630   23.8330 C   0  0  0  0  0  3  0  0  0  0  0  0
  -26.4160  -31.7970   25.1130 C   0  0  1  0  0  0  0  0  0  0  0  0
  -25.3200  -31.5560   26.1780 C   0  0  0  0  0  1  0  0  0  0  0  0
  -27.0080  -30.4220   24.7300 C   0  0  0  0  0  1  0  0  0  0  0  0
  -27.5610  -32.5990   25.7770 C   0  0  0  0  0  1  0  0  0  0  0  0
  -25.5870  -33.9630   24.1650 N   0  0  0  0  0  0  0  0  0  0  0  0
  -25.9120  -35.0200   23.4090 C   0  0  0  0  0  0  0  0  0  0  0  0
  -26.5740  -34.9190   22.3730 O   0  0  0  0  0  0  0  0  0  0  0  0
  -24.9960  -34.1140   24.9700 H   0  0  0  0  0  0  0  0  0  0  0  0
  -24.1890  -36.8220   23.0630 C   0  0  0  0  0  1  0  0  0  0  0  0
  -25.4280  -36.4070   23.8740 C   0  0  0  0  0  3  0  0  0  0  0  0
  -27.5560  -37.2900   24.7250 C   0  0  0  0  0  1  0  0  0  0  0  0
  -26.4640  -37.4580   23.7700 N   0  0  0  0  0  0  0  0  0  0  0  0
  -26.0580  -38.3790   23.9130 H   0  0  0  0  0  0  0  0  0  0  0  0
  -29.6820  -16.3850   20.8410 C   0  0  0  0  0  2  0  0  0  0  0  0
  -30.5200  -15.0310   20.3340 C   0  0  0  0  0  0  0  0  0  0  0  0
  -30.4140  -12.6940   19.3220 C   0  0  0  0  0  2  0  0  0  0  0  0
  -29.4550  -12.6980   18.1060 C   0  0  0  0  0  2  0  0  0  0  0  0
  -27.9960  -12.4800   18.5520 C   0  0  0  0  0  2  0  0  0  0  0  0
  -27.6150  -13.3700   19.7640 C   0  0  0  0  0  3  0  0  0  0  0  0
  -28.6900  -13.3270   20.8720 C   0  0  0  0  0  2  0  0  0  0  0  0
  -29.9620  -13.7520   20.2710 N   0  0  0  0  0  0  0  0  0  0  0  0
  -31.6890  -15.1250   19.9400 O   0  0  0  0  0  0  0  0  0  0  0  0
  -25.2460  -13.9470   20.5460 C   0  0  0  0  0  0  0  0  0  0  0  0
  -24.1850  -13.1710   20.9210 C   0  0  0  0  0  0  0  0  0  0  0  0
  -24.6430  -11.8190   20.8610 C   0  0  0  0  0  0  0  0  0  0  0  0
  -26.2820  -13.0680   20.2750 N   0  0  0  0  0  0  0  0  0  0  0  0
  -25.9290  -11.7820   20.5290 N   0  0  0  0  0  0  0  0  0  0  0  0
  -23.9140  -10.5560   21.0410 C   0  0  0  0  0  0  0  0  0  0  0  0
  -24.3390   -9.5830   21.9720 C   0  0  0  0  0  3  0  0  0  0  0  0
  -23.6090   -8.3870   22.1410 C   0  0  0  0  0  3  0  0  0  0  0  0
  -22.4390   -8.1550   21.3800 C   0  0  0  0  0  0  0  0  0  0  0  0
  -22.0330   -9.1170   20.4380 C   0  0  0  0  0  3  0  0  0  0  0  0
  -22.7630  -10.3050   20.2660 C   0  0  0  0  0  3  0  0  0  0  0  0
  -21.6810   -7.0110   21.4580 O   0  0  0  0  0  0  0  0  0  0  0  0
  -21.5980   -6.2820   22.6170 C   0  0  0  0  0  0  0  0  0  0  0  0
  -21.1030   -6.8410   23.8150 C   0  0  0  0  0  3  0  0  0  0  0  0
  -20.9680   -6.0360   24.9640 C   0  0  0  0  0  3  0  0  0  0  0  0
  -21.3180   -4.6730   24.9160 C   0  0  0  0  0  0  0  0  0  0  0  0
  -21.8060   -4.1140   23.7220 C   0  0  0  0  0  3  0  0  0  0  0  0
  -21.9430   -4.9150   22.5750 C   0  0  0  0  0  0  0  0  0  0  0  0
  -22.3920   -4.3660   21.4210 F   0  0  0  0  0  0  0  0  0  0  0  0
  -21.1820   -3.8990   26.0170 F   0  0  0  0  0  0  0  0  0  0  0  0
  -22.7940  -13.6490   21.2200 C   0  0  0  0  0  0  0  0  0  0  0  0
  -22.0690  -12.9340   22.0730 N   0  0  0  0  0  0  0  0  0  0  0  0
  -22.3580  -14.6920   20.7320 O   0  0  0  0  0  0  0  0  0  0  0  0
  -22.4350  -12.0900   22.4890 H   0  0  0  0  0  0  0  0  0  0  0  0
  -21.1360  -13.2340   22.3150 H   0  0  0  0  0  0  0  0  0  0  0  0
  -25.4130  -15.3200   20.3870 N   0  0  0  0  0  0  0  0  0  0  0  0
  -24.6450  -15.9710   20.5090 H   0  0  0  0  0  0  0  0  0  0  0  0
  -26.2440  -15.7570   20.0110 H   0  0  0  0  0  0  0  0  0  0  0  0
  2  1  2  0
  3  4  1  0
  3  5  1  0
  5  1  1  0
  5 52  1  0
  6  3  1  0
  6  2  1  0
  7  6  1  0
  8  2  1  0
  8  9  1  0
 10 11  1  0
 10  9  2  0
 12 23  2  0
 13 11  1  0
 13 18  1  0
 14 22  1  0
 14 24  1  0
 15 21  1  0
 15 17  1  0
 16 22  1  0
 17 18  2  0
 17 16  1  0
 19 13  2  0
 20 19  1  0
 20 15  2  0
 21 14  1  0
 22 12  1  0
 24 26  2  0
 25 24  1  0
 27 25  1  0
 28 37  2  0
 28 33  1  0
 29 25  1  0
 29 33  1  0
 30 29  1  0
 31 32  1  0
 31 30  1  0
 32 28  1  0
 33 34  2  0
 34 35  1  0
 36 35  2  0
 37 36  1  0
 38 12  1  0
 38 43  1  0
 38 39  1  0
 39 42  1  1
 39 40  1  0
 41 39  1  0
 43 46  1  0
 44 48  1  0
 44 43  1  0
 45 44  2  0
 48 47  1  0
 50 48  1  0
 50 51  1  0
 50 49  1  0
 53 52  1  0
 54 59  1  0
 55 56  1  0
 55 54  1  0
 57 56  1  0
 57 64  1  0
 57 58  1  0
 59 53  1  0
 59 58  1  0
 60 53  2  0
 61 62  2  0
 62 81  1  0
 63 62  1  0
 63 66  1  0
 64 65  1  0
 64 61  1  0
 65 63  2  0
 66 67  1  0
 67 68  2  0
 69 72  1  0
 69 68  1  0
 70 69  2  0
 71 70  1  0
 71 66  2  0
 72 73  1  0
 73 74  1  0
 74 75  2  0
 76 75  1  0
 76 80  1  0
 77 76  2  0
 78 73  2  0
 78 77  1  0
 79 78  1  0
 81 82  1  0
 82 85  1  0
 82 84  1  0
 83 81  2  0
 86 87  1  0
 86 61  1  0
 88 86  1  0
M  ISO  4  10 101  11 101  52 100  53 100
M  END
>  <TORSDO>  (59) 
F 20

>  <SCORE>  (59) 
-14.586

>  <name>  (59) 
58

>  <ligand_id>  (59) 
58

>  <original_smiles>  (59) 
[H]c1c([H])c([H])c2c(c1[H])C([H])([H])C([H])([H])C([H])([H])C2([H])N([H])C(=O)C1([H])N(C(=O)C([H])(N([H])C(=O)C([H])(N([H])C([H])([H])[H])C([H])([H])[H])C(C([H])([H])[H])(C([H])([H])[H])C([H])([H])[H])C([H])([H])c2c([H])c(OC([H])([H])C([H])([H])C([H])([H])c3c([H])n(C([H])([H])C(=O)N4C([H])([H])C([H])([H])C([H])([H])C([H])(n5nc(-c6c([H])c([H])c(Oc7c([H])c([H])c(F)c([H])c7F)c([H])c6[H])c(C(=O)N([H])[H])c5N([H])[H])C4([H])[H])c(C([H])([H])[H])[n+]3[H])c([H])c([H])c2C1([H])[H]

>  <smiles>  (59) 
[H]c1c([H])c([H])c2c(c1[H])C([H])([H])C([H])([H])C([H])([H])C2([H])N([H])C(=O)C1([H])N(C(=O)C([H])(N([H])C(=O)C([H])(N([H])C([H])([H])[H])C([H])([H])[H])C(C([H])([H])[H])(C([H])([H])[H])C([H])([H])[H])C([H])([H])c2c([H])c(OC([H])([H])C([H])([H])C([H])([H])c3c([H])n(C([H])([H])C(=O)N4C([H])([H])C([H])([H])C([H])([H])C([H])(n5nc(-c6c([H])c([H])c(Oc7c([H])c([H])c(F)c([H])c7F)c([H])c6[H])c(C(=O)N([H])[H])c5N([H])[H])C4([H])[H])c(C([H])([H])[H])[n+]3[H])c([H])c([H])c2C1([H])[H]

$$$$
59:0:0
     RDKit          3D

 91 99  0  0  1  0  0  0  0  0999 V2000
  -29.8950  -22.4550   21.5850 C   0  0  0  0  0  3  0  0  0  0  0  0
  -28.6310  -21.0480   20.1000 C   0  0  0  0  0  3  0  0  0  0  0  0
  -28.8750  -22.3830   20.6240 C   0  0  0  0  0  0  0  0  0  0  0  0
  -30.5580  -21.2920   22.0170 C   0  0  0  0  0  0  0  0  0  0  0  0
  -29.3780  -19.8890   20.5610 C   0  0  0  0  0  0  0  0  0  0  0  0
  -30.3140  -20.0560   21.5210 N   0  0  0  0  0  0  0  0  0  0  0  0
  -33.0170  -21.2280   22.6600 C   0  0  0  0  0  1  0  0  0  0  0  0
  -31.5710  -21.3740   23.1430 C   0  0  0  0  0  2  0  0  0  0  0  0
  -28.0000  -23.6960   20.4090 C   0  0  0  0  0  2  0  0  0  0  0  0
  -28.5980  -25.0160   19.7180 C   0  0  0  0  0  2  0  0  0  0  0  0
  -28.4780  -26.3890   20.2970 O   0  0  0  0  0  0  0  0  0  0  0  0
  -24.7110  -31.7870   23.2340 C   0  0  0  0  0  0  0  0  0  0  0  0
  -27.3490  -27.2190   20.1950 C   0  0  0  0  0  0  0  0  0  0  0  0
  -23.5320  -30.4160   21.5510 C   0  0  0  0  0  3  0  0  0  0  0  0
  -24.9970  -28.8570   20.1420 C   0  0  0  0  0  0  0  0  0  0  0  0
  -26.0740  -30.7080   21.4260 C   0  0  0  0  0  2  0  0  0  0  0  0
  -26.1540  -29.3340   20.7680 C   0  0  0  0  0  0  0  0  0  0  0  0
  -27.3290  -28.5250   20.7850 C   0  0  0  0  0  3  0  0  0  0  0  0
  -26.1720  -26.7940   19.5440 C   0  0  0  0  0  3  0  0  0  0  0  0
  -25.0100  -27.5950   19.5200 C   0  0  0  0  0  3  0  0  0  0  0  0
  -23.7660  -29.7420   20.1710 C   0  0  0  0  0  2  0  0  0  0  0  0
  -24.7900  -30.9880   22.1280 N   0  0  0  0  0  0  0  0  0  0  0  0
  -23.6190  -32.0710   23.7480 O   0  0  0  0  0  0  0  0  0  0  0  0
  -22.8380  -29.4010   22.4890 C   0  0  0  0  0  0  0  0  0  0  0  0
  -21.5130  -29.2430   22.3360 N   0  0  0  0  0  0  0  0  0  0  0  0
  -23.4950  -28.7560   23.3110 O   0  0  0  0  0  0  0  0  0  0  0  0
  -21.0420  -29.8230   21.6560 H   0  0  0  0  0  0  0  0  0  0  0  0
  -18.1090  -28.1110   22.7890 C   0  0  0  0  0  0  0  0  0  0  0  0
  -20.6700  -28.3050   23.0780 C   0  0  0  0  0  3  0  0  0  0  0  0
  -20.7390  -26.8860   22.4660 C   0  0  0  0  0  2  0  0  0  0  0  0
  -19.6370  -26.6140   21.4390 C   0  0  0  0  0  2  0  0  0  0  0  0
  -18.2560  -26.7750   22.0810 C   0  0  0  0  0  2  0  0  0  0  0  0
  -19.2420  -28.8370   23.2430 C   0  0  0  0  0  0  0  0  0  0  0  0
  -19.0490  -30.0900   23.8640 C   0  0  0  0  0  3  0  0  0  0  0  0
  -17.7550  -30.6170   24.0350 C   0  0  0  0  0  3  0  0  0  0  0  0
  -16.6360  -29.8900   23.5940 C   0  0  0  0  0  3  0  0  0  0  0  0
  -16.8130  -28.6380   22.9780 C   0  0  0  0  0  3  0  0  0  0  0  0
  -25.9840  -32.4010   23.8930 C   0  0  0  0  0  3  0  0  0  0  0  0
  -25.6720  -33.7960   24.2410 N   0  0  0  0  0  0  0  0  0  0  0  0
  -26.0430  -34.8640   23.5220 C   0  0  0  0  0  0  0  0  0  0  0  0
  -26.7520  -34.7780   22.5160 O   0  0  0  0  0  0  0  0  0  0  0  0
  -25.0430  -33.9350   25.0180 H   0  0  0  0  0  0  0  0  0  0  0  0
  -24.3640  -36.6990   23.1260 C   0  0  0  0  0  1  0  0  0  0  0  0
  -25.5530  -36.2480   23.9920 C   0  0  0  0  0  3  0  0  0  0  0  0
  -27.6520  -37.0820   24.9640 C   0  0  0  0  0  1  0  0  0  0  0  0
  -26.6060  -37.2870   23.9650 N   0  0  0  0  0  0  0  0  0  0  0  0
  -26.2050  -38.2100   24.1080 H   0  0  0  0  0  0  0  0  0  0  0  0
  -26.4680  -31.6060   25.1700 C   0  0  1  0  0  0  0  0  0  0  0  0
  -25.3500  -31.3590   26.2100 C   0  0  0  0  0  1  0  0  0  0  0  0
  -27.0550  -30.2320   24.7730 C   0  0  0  0  0  1  0  0  0  0  0  0
  -27.6010  -32.3880   25.8760 C   0  0  0  0  0  1  0  0  0  0  0  0
  -29.0500  -18.3600   20.2330 C   0  0  0  0  0  3  0  0  0  0  0  0
  -30.2100  -17.2240   20.1730 C   0  0  0  0  0  3  0  0  0  0  0  0
  -30.6130  -14.6290   19.9970 C   0  0  0  0  0  0  0  0  0  0  0  0
  -30.3760  -12.3530   19.0080 C   0  0  0  0  0  2  0  0  0  0  0  0
  -29.3700  -12.4100   17.8380 C   0  0  0  0  0  2  0  0  0  0  0  0
  -27.9250  -12.2430   18.3460 C   0  0  0  0  0  2  0  0  0  0  0  0
  -27.6170  -13.1430   19.5700 C   0  0  0  0  0  3  0  0  0  0  0  0
  -28.7300  -13.0530   20.6380 C   0  0  0  0  0  2  0  0  0  0  0  0
  -29.9950  -13.4010   19.9800 N   0  0  0  0  0  0  0  0  0  0  0  0
  -31.7730  -14.7490   19.5890 O   0  0  0  0  0  0  0  0  0  0  0  0
  -29.8390  -15.7420   20.2760 N   0  0  0  0  0  0  0  0  0  0  0  0
  -28.9010  -15.5360   20.5840 H   0  0  0  0  0  0  0  0  0  0  0  0
  -25.2860  -13.7600   20.4480 C   0  0  0  0  0  0  0  0  0  0  0  0
  -24.2320  -12.9970   20.8690 C   0  0  0  0  0  0  0  0  0  0  0  0
  -24.6670  -11.6390   20.7760 C   0  0  0  0  0  0  0  0  0  0  0  0
  -26.2980  -12.8680   20.1300 N   0  0  0  0  0  0  0  0  0  0  0  0
  -25.9370  -11.5860   20.3900 N   0  0  0  0  0  0  0  0  0  0  0  0
  -23.9300  -10.3840   20.9770 C   0  0  0  0  0  0  0  0  0  0  0  0
  -24.3530   -9.4260   21.9250 C   0  0  0  0  0  3  0  0  0  0  0  0
  -23.6220   -8.2350   22.1160 C   0  0  0  0  0  3  0  0  0  0  0  0
  -22.4530   -7.9900   21.3590 C   0  0  0  0  0  0  0  0  0  0  0  0
  -22.0480   -8.9360   20.4000 C   0  0  0  0  0  3  0  0  0  0  0  0
  -22.7790  -10.1200   20.2070 C   0  0  0  0  0  3  0  0  0  0  0  0
  -21.6930   -6.8500   21.4570 O   0  0  0  0  0  0  0  0  0  0  0  0
  -21.5980   -6.1470   22.6310 C   0  0  0  0  0  0  0  0  0  0  0  0
  -21.0810   -6.7280   23.8100 C   0  0  0  0  0  3  0  0  0  0  0  0
  -20.9400   -5.9490   24.9760 C   0  0  0  0  0  3  0  0  0  0  0  0
  -21.3030   -4.5900   24.9630 C   0  0  0  0  0  0  0  0  0  0  0  0
  -21.8090   -4.0070   23.7890 C   0  0  0  0  0  3  0  0  0  0  0  0
  -21.9550   -4.7840   22.6260 C   0  0  0  0  0  0  0  0  0  0  0  0
  -22.4240   -4.2100   21.4910 F   0  0  0  0  0  0  0  0  0  0  0  0
  -21.1590   -3.8400   26.0810 F   0  0  0  0  0  0  0  0  0  0  0  0
  -22.8600  -13.4850   21.2350 C   0  0  0  0  0  0  0  0  0  0  0  0
  -22.1640  -12.7670   22.1090 N   0  0  0  0  0  0  0  0  0  0  0  0
  -22.4170  -14.5380   20.7790 O   0  0  0  0  0  0  0  0  0  0  0  0
  -22.5360  -11.9180   22.5070 H   0  0  0  0  0  0  0  0  0  0  0  0
  -21.2400  -13.0700   22.3870 H   0  0  0  0  0  0  0  0  0  0  0  0
  -25.4660  -15.1320   20.2870 N   0  0  0  0  0  0  0  0  0  0  0  0
  -24.7180  -15.7990   20.4430 H   0  0  0  0  0  0  0  0  0  0  0  0
  -26.2810  -15.5530   19.8590 H   0  0  0  0  0  0  0  0  0  0  0  0
  1  4  1  0
  2  5  2  0
  2  3  1  0
  3  1  2  0
  4  8  1  0
  5  6  1  0
  6  4  2  0
  7  8  1  0
  9  3  1  0
 10 11  1  0
 10  9  1  0
 12 23  2  0
 13 11  1  0
 13 18  1  0
 14 22  1  0
 14 24  1  0
 15 21  1  0
 15 17  1  0
 16 22  1  0
 17 18  2  0
 17 16  1  0
 19 13  2  0
 20 19  1  0
 20 15  2  0
 21 14  1  0
 22 12  1  0
 24 26  2  0
 25 24  1  0
 27 25  1  0
 28 37  2  0
 28 33  1  0
 29 25  1  0
 29 33  1  0
 30 29  1  0
 31 32  1  0
 31 30  1  0
 32 28  1  0
 33 34  2  0
 34 35  1  0
 36 35  2  0
 37 36  1  0
 38 12  1  0
 38 39  1  0
 38 48  1  0
 39 42  1  0
 40 44  1  0
 40 39  1  0
 41 40  2  0
 44 43  1  0
 46 44  1  0
 46 47  1  0
 46 45  1  0
 48 51  1  1
 48 49  1  0
 50 48  1  0
 52  5  1  0
 53 52  2  0
 53 62  1  0
 54 62  1  0
 55 60  1  0
 56 57  1  0
 56 55  1  0
 58 57  1  0
 58 67  1  0
 58 59  1  0
 60 54  1  0
 60 59  1  0
 61 54  2  0
 62 63  1  0
 64 65  2  0
 65 84  1  0
 66 65  1  0
 66 69  1  0
 67 68  1  0
 67 64  1  0
 68 66  2  0
 69 70  1  0
 70 71  2  0
 72 75  1  0
 72 71  1  0
 73 72  2  0
 74 73  1  0
 74 69  2  0
 75 76  1  0
 76 77  1  0
 77 78  2  0
 79 78  1  0
 79 83  1  0
 80 79  2  0
 81 76  2  0
 81 80  1  0
 82 81  1  0
 84 85  1  0
 85 88  1  0
 85 87  1  0
 86 84  2  0
 89 90  1  0
 89 64  1  0
 91 89  1  0
M  ISO  4  10 101  11 101  54 100  62 100
M  END
>  <TORSDO>  (60) 
F 21

>  <SCORE>  (60) 
-13.212

>  <name>  (60) 
59

>  <ligand_id>  (60) 
59

>  <original_smiles>  (60) 
[H]c1c([H])c([H])c2c(c1[H])C([H])([H])C([H])([H])C([H])([H])C2([H])N([H])C(=O)C1([H])N(C(=O)C([H])(N([H])C(=O)C([H])(N([H])C([H])([H])[H])C([H])([H])[H])C(C([H])([H])[H])(C([H])([H])[H])C([H])([H])[H])C([H])([H])c2c([H])c(OC([H])([H])C([H])([H])c3c([H])c(C([H])([H])C([H])([H])[H])nc(C([H])([H])C([H])([H])N([H])C(=O)N4C([H])([H])C([H])([H])C([H])([H])C([H])(n5nc(-c6c([H])c([H])c(Oc7c([H])c([H])c(F)c([H])c7F)c([H])c6[H])c(C(=O)N([H])[H])c5N([H])[H])C4([H])[H])c3[H])c([H])c([H])c2C1([H])[H]

>  <smiles>  (60) 
[H]c1c([H])c([H])c2c(c1[H])C([H])([H])C([H])([H])C([H])([H])C2([H])N([H])C(=O)C1([H])N(C(=O)C([H])(N([H])C(=O)C([H])(N([H])C([H])([H])[H])C([H])([H])[H])C(C([H])([H])[H])(C([H])([H])[H])C([H])([H])[H])C([H])([H])c2c([H])c(OC([H])([H])C([H])([H])c3c([H])c(C([H])([H])C([H])([H])[H])nc(C([H])([H])C([H])([H])N([H])C(=O)N4C([H])([H])C([H])([H])C([H])([H])C([H])(n5nc(-c6c([H])c([H])c(Oc7c([H])c([H])c(F)c([H])c7F)c([H])c6[H])c(C(=O)N([H])[H])c5N([H])[H])C4([H])[H])c3[H])c([H])c([H])c2C1([H])[H]

$$$$
60:0:0
     RDKit          3D

 91 99  0  0  1  0  0  0  0  0999 V2000
  -29.8240  -20.7930   18.6790 C   0  0  0  0  0  3  0  0  0  0  0  0
  -29.3630  -23.2120   18.6590 C   0  0  0  0  0  3  0  0  0  0  0  0
  -29.9060  -22.0540   18.0420 C   0  0  0  0  0  0  0  0  0  0  0  0
  -29.1670  -20.6240   19.9040 C   0  0  0  0  0  0  0  0  0  0  0  0
  -28.6870  -23.1370   19.8940 C   0  0  0  0  0  0  0  0  0  0  0  0
  -28.5970  -21.8180   20.4700 N   0  0  0  0  0  0  0  0  0  0  0  0
  -29.6430  -21.4200   15.6050 C   0  0  0  0  0  1  0  0  0  0  0  0
  -31.9700  -21.6300   16.6230 C   0  0  0  0  0  1  0  0  0  0  0  0
  -30.5190  -22.1440   16.6450 C   0  0  0  0  0  3  0  0  0  0  0  0
  -28.9830  -19.0460   20.4300 C   0  0  0  0  0  3  0  0  0  0  0  0
  -30.0030  -17.7080   20.1000 C   0  0  0  0  0  3  0  0  0  0  0  0
  -30.4750  -14.9620   20.2330 C   0  0  0  0  0  0  0  0  0  0  0  0
  -30.3370  -12.6100   19.2840 C   0  0  0  0  0  2  0  0  0  0  0  0
  -29.4000  -12.6000   18.0540 C   0  0  0  0  0  2  0  0  0  0  0  0
  -27.9380  -12.3830   18.4900 C   0  0  0  0  0  2  0  0  0  0  0  0
  -27.5420  -13.2880   19.6870 C   0  0  0  0  0  3  0  0  0  0  0  0
  -28.6060  -13.2830   20.8070 C   0  0  0  0  0  2  0  0  0  0  0  0
  -29.8760  -13.6990   20.1960 N   0  0  0  0  0  0  0  0  0  0  0  0
  -31.6700  -15.0120   19.9160 O   0  0  0  0  0  0  0  0  0  0  0  0
  -29.7130  -16.1620   20.4050 N   0  0  0  0  0  0  0  0  0  0  0  0
  -28.7540  -15.9830   20.6680 H   0  0  0  0  0  0  0  0  0  0  0  0
  -25.1720  -13.8610   20.4480 C   0  0  0  0  0  0  0  0  0  0  0  0
  -24.1120  -13.0840   20.8280 C   0  0  0  0  0  0  0  0  0  0  0  0
  -24.5780  -11.7340   20.7900 C   0  0  0  0  0  0  0  0  0  0  0  0
  -26.2120  -12.9840   20.1960 N   0  0  0  0  0  0  0  0  0  0  0  0
  -25.8650  -11.6980   20.4680 N   0  0  0  0  0  0  0  0  0  0  0  0
  -23.8510  -10.4710   20.9830 C   0  0  0  0  0  0  0  0  0  0  0  0
  -24.2670   -9.5160   21.9380 C   0  0  0  0  0  3  0  0  0  0  0  0
  -23.5400   -8.3200   22.1170 C   0  0  0  0  0  3  0  0  0  0  0  0
  -22.3830   -8.0700   21.3410 C   0  0  0  0  0  0  0  0  0  0  0  0
  -21.9860   -9.0110   20.3770 C   0  0  0  0  0  3  0  0  0  0  0  0
  -22.7150  -10.1990   20.1940 C   0  0  0  0  0  3  0  0  0  0  0  0
  -21.6270   -6.9250   21.4300 O   0  0  0  0  0  0  0  0  0  0  0  0
  -21.5420   -6.2090   22.5970 C   0  0  0  0  0  0  0  0  0  0  0  0
  -21.0350   -6.7760   23.7870 C   0  0  0  0  0  3  0  0  0  0  0  0
  -20.8950   -5.9810   24.9430 C   0  0  0  0  0  3  0  0  0  0  0  0
  -21.2590   -4.6210   24.9110 C   0  0  0  0  0  0  0  0  0  0  0  0
  -21.7640   -4.0550   23.7260 C   0  0  0  0  0  3  0  0  0  0  0  0
  -21.9000   -4.8460   22.5740 C   0  0  0  0  0  0  0  0  0  0  0  0
  -22.3650   -4.2880   21.4290 F   0  0  0  0  0  0  0  0  0  0  0  0
  -21.1210   -3.8570   26.0190 F   0  0  0  0  0  0  0  0  0  0  0  0
  -22.7170  -13.5600   21.1090 C   0  0  0  0  0  0  0  0  0  0  0  0
  -21.9910  -12.8600   21.9750 N   0  0  0  0  0  0  0  0  0  0  0  0
  -22.2780  -14.5870   20.5930 O   0  0  0  0  0  0  0  0  0  0  0  0
  -22.3620  -12.0340   22.4200 H   0  0  0  0  0  0  0  0  0  0  0  0
  -21.0520  -13.1560   22.1980 H   0  0  0  0  0  0  0  0  0  0  0  0
  -25.3380  -15.2310   20.2690 N   0  0  0  0  0  0  0  0  0  0  0  0
  -24.5690  -15.8860   20.3570 H   0  0  0  0  0  0  0  0  0  0  0  0
  -26.1730  -15.6530   19.8840 H   0  0  0  0  0  0  0  0  0  0  0  0
  -27.8760  -24.5030   20.4330 C   0  0  0  0  0  2  0  0  0  0  0  0
  -28.2000  -26.0380   20.1950 O   0  0  0  0  0  0  0  0  0  0  0  0
  -24.6010  -31.8250   23.2290 C   0  0  0  0  0  0  0  0  0  0  0  0
  -27.1660  -27.0620   20.1950 C   0  0  0  0  0  0  0  0  0  0  0  0
  -23.4010  -30.4230   21.5960 C   0  0  0  0  0  3  0  0  0  0  0  0
  -24.8480  -28.8450   20.1710 C   0  0  0  0  0  0  0  0  0  0  0  0
  -25.9580  -30.6770   21.4320 C   0  0  0  0  0  2  0  0  0  0  0  0
  -26.0340  -29.2790   20.7800 C   0  0  0  0  0  0  0  0  0  0  0  0
  -27.1940  -28.4050   20.7740 C   0  0  0  0  0  3  0  0  0  0  0  0
  -25.9600  -26.7540   19.5340 C   0  0  0  0  0  3  0  0  0  0  0  0
  -24.8280  -27.5980   19.5310 C   0  0  0  0  0  3  0  0  0  0  0  0
  -23.6240  -29.7480   20.2180 C   0  0  0  0  0  2  0  0  0  0  0  0
  -24.6720  -30.9990   22.1390 N   0  0  0  0  0  0  0  0  0  0  0  0
  -23.5160  -32.1110   23.7580 O   0  0  0  0  0  0  0  0  0  0  0  0
  -22.7210  -29.4190   22.5590 C   0  0  0  0  0  0  0  0  0  0  0  0
  -21.3900  -29.2600   22.4500 N   0  0  0  0  0  0  0  0  0  0  0  0
  -23.3960  -28.7840   23.3740 O   0  0  0  0  0  0  0  0  0  0  0  0
  -20.9020  -29.8260   21.7700 H   0  0  0  0  0  0  0  0  0  0  0  0
  -18.0010  -28.1130   23.0090 C   0  0  0  0  0  0  0  0  0  0  0  0
  -20.5690  -28.3280   23.2270 C   0  0  0  0  0  3  0  0  0  0  0  0
  -20.6330  -26.9010   22.6340 C   0  0  0  0  0  2  0  0  0  0  0  0
  -19.5060  -26.6110   21.6380 C   0  0  0  0  0  2  0  0  0  0  0  0
  -18.1400  -26.7700   22.3120 C   0  0  0  0  0  2  0  0  0  0  0  0
  -19.1400  -28.8510   23.4260 C   0  0  0  0  0  0  0  0  0  0  0  0
  -18.9510  -30.1080   24.0390 C   0  0  0  0  0  3  0  0  0  0  0  0
  -17.6570  -30.6250   24.2390 C   0  0  0  0  0  3  0  0  0  0  0  0
  -16.5330  -29.8840   23.8380 C   0  0  0  0  0  3  0  0  0  0  0  0
  -16.7060  -28.6290   23.2290 C   0  0  0  0  0  3  0  0  0  0  0  0
  -25.8790  -32.4630   23.8510 C   0  0  0  0  0  3  0  0  0  0  0  0
  -26.3740  -31.7150   25.1500 C   0  0  1  0  0  0  0  0  0  0  0  0
  -25.2630  -31.5100   26.2060 C   0  0  0  0  0  1  0  0  0  0  0  0
  -26.9520  -30.3240   24.8020 C   0  0  0  0  0  1  0  0  0  0  0  0
  -27.5190  -32.5160   25.8120 C   0  0  0  0  0  1  0  0  0  0  0  0
  -25.5770  -33.8720   24.1560 N   0  0  0  0  0  0  0  0  0  0  0  0
  -25.9260  -34.9120   23.3860 C   0  0  0  0  0  0  0  0  0  0  0  0
  -26.6050  -34.7860   22.3620 O   0  0  0  0  0  0  0  0  0  0  0  0
  -24.9750  -34.0410   24.9490 H   0  0  0  0  0  0  0  0  0  0  0  0
  -24.2320  -36.7290   22.9800 C   0  0  0  0  0  1  0  0  0  0  0  0
  -25.4500  -36.3120   23.8200 C   0  0  0  0  0  3  0  0  0  0  0  0
  -27.5740  -37.1840   24.6930 C   0  0  0  0  0  1  0  0  0  0  0  0
  -26.5000  -37.3490   23.7180 N   0  0  0  0  0  0  0  0  0  0  0  0
  -26.1030  -38.2770   23.8380 H   0  0  0  0  0  0  0  0  0  0  0  0
  1  4  1  0
  2  5  2  0
  3  2  1  0
  3  1  2  0
  4 10  1  0
  4  6  2  0
  5 50  1  0
  5  6  1  0
  7  9  1  0
  8  9  1  0
  9  3  1  0
 11 20  1  0
 11 10  2  0
 12 20  1  0
 13 18  1  0
 14 15  1  0
 14 13  1  0
 16 15  1  0
 16 25  1  0
 16 17  1  0
 18 12  1  0
 18 17  1  0
 19 12  2  0
 20 21  1  0
 22 23  2  0
 23 42  1  0
 24 23  1  0
 24 27  1  0
 25 22  1  0
 25 26  1  0
 26 24  2  0
 27 28  1  0
 28 29  2  0
 30 33  1  0
 30 29  1  0
 31 30  2  0
 32 31  1  0
 32 27  2  0
 33 34  1  0
 34 35  1  0
 35 36  2  0
 37 36  1  0
 37 41  1  0
 38 37  2  0
 39 34  2  0
 39 38  1  0
 40 39  1  0
 42 43  1  0
 43 46  1  0
 43 45  1  0
 44 42  2  0
 47 48  1  0
 47 22  1  0
 49 47  1  0
 51 50  1  0
 52 63  2  0
 53 51  1  0
 53 58  1  0
 54 62  1  0
 54 64  1  0
 55 61  1  0
 55 57  1  0
 56 62  1  0
 57 56  1  0
 58 57  2  0
 59 53  2  0
 60 59  1  0
 60 55  2  0
 61 54  1  0
 62 52  1  0
 64 66  2  0
 65 64  1  0
 67 65  1  0
 68 77  2  0
 68 73  1  0
 69 65  1  0
 69 73  1  0
 70 69  1  0
 71 72  1  0
 71 70  1  0
 72 68  1  0
 73 74  2  0
 74 75  1  0
 76 75  2  0
 77 76  1  0
 78 52  1  0
 78 83  1  0
 78 79  1  0
 79 82  1  1
 79 80  1  0
 81 79  1  0
 83 86  1  0
 84 88  1  0
 84 83  1  0
 85 84  2  0
 88 87  1  0
 90 88  1  0
 90 91  1  0
 90 89  1  0
M  ISO  4  12 100  20 100  50 101  51 101
M  END
>  <TORSDO>  (61) 
F 20

>  <SCORE>  (61) 
-14.142

>  <name>  (61) 
60

>  <ligand_id>  (61) 
60

>  <original_smiles>  (61) 
[H]c1c([H])c([H])c2c(c1[H])C([H])([H])C([H])([H])C([H])([H])C2([H])N([H])C(=O)C1([H])N(C(=O)C([H])(N([H])C(=O)C([H])(N([H])C([H])([H])[H])C([H])([H])[H])C(C([H])([H])[H])(C([H])([H])[H])C([H])([H])[H])C([H])([H])c2c([H])c(OC([H])([H])c3nc(C([H])([H])C([H])([H])N([H])C(=O)N4C([H])([H])C([H])([H])C([H])([H])C([H])(n5nc(-c6c([H])c([H])c(Oc7c([H])c([H])c(F)c([H])c7F)c([H])c6[H])c(C(=O)N([H])[H])c5N([H])[H])C4([H])[H])c([H])c(C([H])(C([H])([H])[H])C([H])([H])[H])c3[H])c([H])c([H])c2C1([H])[H]

>  <smiles>  (61) 
[H]c1c([H])c([H])c2c(c1[H])C([H])([H])C([H])([H])C([H])([H])C2([H])N([H])C(=O)C1([H])N(C(=O)C([H])(N([H])C(=O)C([H])(N([H])C([H])([H])[H])C([H])([H])[H])C(C([H])([H])[H])(C([H])([H])[H])C([H])([H])[H])C([H])([H])c2c([H])c(OC([H])([H])c3nc(C([H])([H])C([H])([H])N([H])C(=O)N4C([H])([H])C([H])([H])C([H])([H])C([H])(n5nc(-c6c([H])c([H])c(Oc7c([H])c([H])c(F)c([H])c7F)c([H])c6[H])c(C(=O)N([H])[H])c5N([H])[H])C4([H])[H])c([H])c(C([H])(C([H])([H])[H])C([H])([H])[H])c3[H])c([H])c([H])c2C1([H])[H]

$$$$
61:0:0
     RDKit          3D

 91 99  0  0  1  0  0  0  0  0999 V2000
  -29.8900  -20.1480   20.4440 C   0  0  0  0  0  0  0  0  0  0  0  0
  -29.9360  -20.9820   21.5930 C   0  0  0  0  0  0  0  0  0  0  0  0
  -29.3560  -20.8310   19.3110 C   0  0  0  0  0  0  0  0  0  0  0  0
  -29.0540  -22.8450   20.4760 C   0  0  0  0  0  0  0  0  0  0  0  0
  -30.4930  -20.5030   22.9210 C   0  0  0  0  0  1  0  0  0  0  0  0
  -29.2830  -20.1850   17.9410 C   0  0  0  0  0  1  0  0  0  0  0  0
  -29.5320  -22.2810   21.5890 N   0  0  0  0  0  0  0  0  0  0  0  0
  -28.9240  -22.1340   19.3490 N   0  0  0  0  0  0  0  0  0  0  0  0
  -30.5370  -18.6900   20.4380 C   0  0  0  0  0  2  0  0  0  0  0  0
  -29.7280  -17.4140   19.9400 C   0  0  0  0  0  2  0  0  0  0  0  0
  -30.8130  -15.0280   20.2020 C   0  0  0  0  0  0  0  0  0  0  0  0
  -30.6600  -12.7490   19.2190 C   0  0  0  0  0  2  0  0  0  0  0  0
  -29.6860  -12.8280   18.0190 C   0  0  0  0  0  2  0  0  0  0  0  0
  -28.2260  -12.6510   18.4810 C   0  0  0  0  0  2  0  0  0  0  0  0
  -27.8780  -13.5370   19.7070 C   0  0  0  0  0  3  0  0  0  0  0  0
  -28.9620  -13.4150   20.8070 C   0  0  0  0  0  2  0  0  0  0  0  0
  -30.2520  -13.7760   20.2020 N   0  0  0  0  0  0  0  0  0  0  0  0
  -31.9300  -15.2320   19.7180 O   0  0  0  0  0  0  0  0  0  0  0  0
  -29.9790  -16.0570   20.5650 N   0  0  0  0  0  0  0  0  0  0  0  0
  -29.1780  -15.7160   21.0770 H   0  0  0  0  0  0  0  0  0  0  0  0
  -25.5100  -14.1290   20.5090 C   0  0  0  0  0  0  0  0  0  0  0  0
  -24.4500  -13.3520   20.8890 C   0  0  0  0  0  0  0  0  0  0  0  0
  -24.9020  -12.0000   20.8040 C   0  0  0  0  0  0  0  0  0  0  0  0
  -26.5420  -13.2500   20.2210 N   0  0  0  0  0  0  0  0  0  0  0  0
  -26.1820  -11.9630   20.4560 N   0  0  0  0  0  0  0  0  0  0  0  0
  -24.1740  -10.7360   20.9780 C   0  0  0  0  0  0  0  0  0  0  0  0
  -24.5960   -9.7620   21.9090 C   0  0  0  0  0  3  0  0  0  0  0  0
  -23.8700   -8.5630   22.0720 C   0  0  0  0  0  3  0  0  0  0  0  0
  -22.7050   -8.3300   21.3020 C   0  0  0  0  0  0  0  0  0  0  0  0
  -22.3010   -9.2940   20.3610 C   0  0  0  0  0  3  0  0  0  0  0  0
  -23.0290  -10.4830   20.1960 C   0  0  0  0  0  3  0  0  0  0  0  0
  -21.9500   -7.1850   21.3740 O   0  0  0  0  0  0  0  0  0  0  0  0
  -21.8470   -6.4630   22.5370 C   0  0  0  0  0  0  0  0  0  0  0  0
  -21.3060   -7.0230   23.7150 C   0  0  0  0  0  3  0  0  0  0  0  0
  -21.1550   -6.2250   24.8670 C   0  0  0  0  0  3  0  0  0  0  0  0
  -21.5320   -4.8690   24.8400 C   0  0  0  0  0  0  0  0  0  0  0  0
  -22.0660   -4.3090   23.6660 C   0  0  0  0  0  3  0  0  0  0  0  0
  -22.2190   -5.1040   22.5170 C   0  0  0  0  0  0  0  0  0  0  0  0
  -22.7140   -4.5550   21.3810 F   0  0  0  0  0  0  0  0  0  0  0  0
  -21.3790   -4.1000   25.9430 F   0  0  0  0  0  0  0  0  0  0  0  0
  -23.0640  -13.8280   21.2180 C   0  0  0  0  0  0  0  0  0  0  0  0
  -22.3630  -13.1140   22.0920 N   0  0  0  0  0  0  0  0  0  0  0  0
  -22.6150  -14.8680   20.7390 O   0  0  0  0  0  0  0  0  0  0  0  0
  -22.7390  -12.2730   22.5000 H   0  0  0  0  0  0  0  0  0  0  0  0
  -21.4350  -13.4170   22.3540 H   0  0  0  0  0  0  0  0  0  0  0  0
  -25.6760  -15.5030   20.3650 N   0  0  0  0  0  0  0  0  0  0  0  0
  -24.9150  -16.1570   20.5140 H   0  0  0  0  0  0  0  0  0  0  0  0
  -26.5070  -15.9440   19.9940 H   0  0  0  0  0  0  0  0  0  0  0  0
  -28.4900  -24.3210   20.6350 C   0  0  0  0  0  3  0  0  0  0  0  0
  -28.8350  -25.4940   19.6170 C   0  0  0  0  0  3  0  0  0  0  0  0
  -28.6730  -26.9230   19.9890 O   0  0  0  0  0  0  0  0  0  0  0  0
  -24.6620  -31.9050   23.2540 C   0  0  0  0  0  0  0  0  0  0  0  0
  -27.4740  -27.6480   19.9590 C   0  0  0  0  0  0  0  0  0  0  0  0
  -23.5130  -30.5420   21.5410 C   0  0  0  0  0  3  0  0  0  0  0  0
  -25.0260  -29.1270   20.0340 C   0  0  0  0  0  0  0  0  0  0  0  0
  -26.0300  -30.9880   21.3670 C   0  0  0  0  0  2  0  0  0  0  0  0
  -26.1680  -29.6480   20.6520 C   0  0  0  0  0  0  0  0  0  0  0  0
  -27.3890  -28.9180   20.6070 C   0  0  0  0  0  3  0  0  0  0  0  0
  -26.3110  -27.1650   19.3260 C   0  0  0  0  0  3  0  0  0  0  0  0
  -25.0980  -27.8890   19.3660 C   0  0  0  0  0  3  0  0  0  0  0  0
  -23.7500  -29.9410   20.1280 C   0  0  0  0  0  2  0  0  0  0  0  0
  -24.7530  -31.1610   22.1130 N   0  0  0  0  0  0  0  0  0  0  0  0
  -23.5710  -32.1050   23.8060 O   0  0  0  0  0  0  0  0  0  0  0  0
  -22.9000  -29.4520   22.4520 C   0  0  0  0  0  0  0  0  0  0  0  0
  -21.5960  -29.1840   22.2780 N   0  0  0  0  0  0  0  0  0  0  0  0
  -23.5990  -28.8500   23.2720 O   0  0  0  0  0  0  0  0  0  0  0  0
  -21.0880  -29.7240   21.5910 H   0  0  0  0  0  0  0  0  0  0  0  0
  -18.3150  -27.7010   22.5940 C   0  0  0  0  0  0  0  0  0  0  0  0
  -20.8270  -28.1660   22.9930 C   0  0  0  0  0  3  0  0  0  0  0  0
  -21.0760  -26.7610   22.3980 C   0  0  0  0  0  2  0  0  0  0  0  0
  -20.0560  -26.3740   21.3230 C   0  0  0  0  0  2  0  0  0  0  0  0
  -18.6370  -26.3880   21.8990 C   0  0  0  0  0  2  0  0  0  0  0  0
  -19.3450  -28.5430   23.0930 C   0  0  0  0  0  0  0  0  0  0  0  0
  -18.9920  -29.7700   23.6970 C   0  0  0  0  0  3  0  0  0  0  0  0
  -17.6440  -30.1560   23.8070 C   0  0  0  0  0  3  0  0  0  0  0  0
  -16.6290  -29.3100   23.3290 C   0  0  0  0  0  3  0  0  0  0  0  0
  -16.9640  -28.0850   22.7260 C   0  0  0  0  0  3  0  0  0  0  0  0
  -25.9210  -32.5560   23.9100 C   0  0  0  0  0  3  0  0  0  0  0  0
  -26.4240  -31.7890   25.1940 C   0  0  1  0  0  0  0  0  0  0  0  0
  -25.3140  -31.5260   26.2360 C   0  0  0  0  0  1  0  0  0  0  0  0
  -27.0420  -30.4230   24.8080 C   0  0  0  0  0  1  0  0  0  0  0  0
  -27.5440  -32.6010   25.8850 C   0  0  0  0  0  1  0  0  0  0  0  0
  -25.5780  -33.9470   24.2400 N   0  0  0  0  0  0  0  0  0  0  0  0
  -25.8960  -35.0090   23.4860 C   0  0  0  0  0  0  0  0  0  0  0  0
  -26.5760  -34.9230   22.4600 O   0  0  0  0  0  0  0  0  0  0  0  0
  -24.9750  -34.0890   25.0360 H   0  0  0  0  0  0  0  0  0  0  0  0
  -24.1290  -36.7650   23.1290 C   0  0  0  0  0  1  0  0  0  0  0  0
  -25.3770  -36.3860   23.9430 C   0  0  0  0  0  3  0  0  0  0  0  0
  -27.4810  -37.3270   24.7910 C   0  0  0  0  0  1  0  0  0  0  0  0
  -26.3860  -37.4620   23.8340 N   0  0  0  0  0  0  0  0  0  0  0  0
  -25.9560  -38.3720   23.9690 H   0  0  0  0  0  0  0  0  0  0  0  0
  1  2  2  0
  2  5  1  0
  3  8  2  0
  3  1  1  0
  4 49  1  0
  4  7  2  0
  6  3  1  0
  7  2  1  0
  8  4  1  0
  9  1  1  0
 10  9  1  0
 10 19  1  0
 11 19  1  0
 12 17  1  0
 13 14  1  0
 13 12  1  0
 15 14  1  0
 15 24  1  0
 15 16  1  0
 17 11  1  0
 17 16  1  0
 18 11  2  0
 19 20  1  0
 21 22  2  0
 22 41  1  0
 23 22  1  0
 23 26  1  0
 24 25  1  0
 24 21  1  0
 25 23  2  0
 26 27  1  0
 27 28  2  0
 29 32  1  0
 29 28  1  0
 30 29  2  0
 31 30  1  0
 31 26  2  0
 32 33  1  0
 33 34  1  0
 34 35  2  0
 36 35  1  0
 36 40  1  0
 37 36  2  0
 38 33  2  0
 38 37  1  0
 39 38  1  0
 41 42  1  0
 42 45  1  0
 42 44  1  0
 43 41  2  0
 46 21  1  0
 46 47  1  0
 48 46  1  0
 50 51  1  0
 50 49  2  0
 52 63  2  0
 53 51  1  0
 53 58  1  0
 54 62  1  0
 54 64  1  0
 55 61  1  0
 55 57  1  0
 56 62  1  0
 57 56  1  0
 58 57  2  0
 59 60  1  0
 59 53  2  0
 60 55  2  0
 61 54  1  0
 62 52  1  0
 64 66  2  0
 65 64  1  0
 67 65  1  0
 68 77  2  0
 68 73  1  0
 69 65  1  0
 69 73  1  0
 70 69  1  0
 71 72  1  0
 71 70  1  0
 72 68  1  0
 73 74  2  0
 74 75  1  0
 76 75  2  0
 77 76  1  0
 78 52  1  0
 78 83  1  0
 78 79  1  0
 79 82  1  1
 79 80  1  0
 81 79  1  0
 83 86  1  0
 84 88  1  0
 84 83  1  0
 85 84  2  0
 88 87  1  0
 90 88  1  0
 90 91  1  0
 90 89  1  0
M  ISO  4  11 100  19 100  50 101  51 101
M  END
>  <TORSDO>  (62) 
F 20

>  <SCORE>  (62) 
-13.348

>  <name>  (62) 
61

>  <ligand_id>  (62) 
61

>  <original_smiles>  (62) 
[H]c1c([H])c([H])c2c(c1[H])C([H])([H])C([H])([H])C([H])([H])C2([H])N([H])C(=O)C1([H])N(C(=O)C([H])(N([H])C(=O)C([H])(N([H])C([H])([H])[H])C([H])([H])[H])C(C([H])([H])[H])(C([H])([H])[H])C([H])([H])[H])C([H])([H])c2c([H])c(OC([H])([H])C([H])([H])c3nc(C([H])([H])[H])c(C([H])([H])C([H])([H])N([H])C(=O)N4C([H])([H])C([H])([H])C([H])([H])C([H])(n5nc(-c6c([H])c([H])c(Oc7c([H])c([H])c(F)c([H])c7F)c([H])c6[H])c(C(=O)N([H])[H])c5N([H])[H])C4([H])[H])c(C([H])([H])[H])n3)c([H])c([H])c2C1([H])[H]

>  <smiles>  (62) 
[H]c1c([H])c([H])c2c(c1[H])C([H])([H])C([H])([H])C([H])([H])C2([H])N([H])C(=O)C1([H])N(C(=O)C([H])(N([H])C(=O)C([H])(N([H])C([H])([H])[H])C([H])([H])[H])C(C([H])([H])[H])(C([H])([H])[H])C([H])([H])[H])C([H])([H])c2c([H])c(OC([H])([H])C([H])([H])c3nc(C([H])([H])[H])c(C([H])([H])C([H])([H])N([H])C(=O)N4C([H])([H])C([H])([H])C([H])([H])C([H])(n5nc(-c6c([H])c([H])c(Oc7c([H])c([H])c(F)c([H])c7F)c([H])c6[H])c(C(=O)N([H])[H])c5N([H])[H])C4([H])[H])c(C([H])([H])[H])n3)c([H])c([H])c2C1([H])[H]

$$$$
62:0:0
     RDKit          3D

 93101  0  0  1  0  0  0  0  0999 V2000
  -28.8220  -20.9480   20.4420 C   0  0  0  0  0  3  0  0  0  0  0  0
  -28.7800  -22.3100   19.8780 C   0  0  0  0  0  0  0  0  0  0  0  0
  -29.4970  -20.0690   19.5670 C   0  0  0  0  0  0  0  0  0  0  0  0
  -29.4720  -22.2670   18.7640 N   0  0  0  0  0  0  0  0  0  0  0  0
  -29.8100  -20.9720   18.5220 N   0  0  0  0  0  0  0  0  0  0  0  0
  -31.8640  -21.0510   17.1000 C   0  0  0  0  0  1  0  0  0  0  0  0
  -30.3520  -20.7830   17.1790 C   0  0  0  0  0  2  0  0  0  0  0  0
  -31.0830  -18.1370   18.7620 C   0  0  0  0  0  1  0  0  0  0  0  0
  -29.7250  -18.4520   19.4420 C   0  0  2  0  0  0  0  0  0  0  0  0
  -27.1740  -18.0780   19.1010 C   0  0  0  0  0  1  0  0  0  0  0  0
  -28.5930  -17.8880   18.5390 C   0  0  0  0  0  2  0  0  0  0  0  0
  -29.8470  -17.4440   20.7240 C   0  0  0  0  0  2  0  0  0  0  0  0
  -30.5490  -14.8140   20.3850 C   0  0  0  0  0  0  0  0  0  0  0  0
  -30.4140  -12.5250   19.3660 C   0  0  0  0  0  2  0  0  0  0  0  0
  -29.4690  -12.5700   18.1440 C   0  0  0  0  0  2  0  0  0  0  0  0
  -27.9990  -12.3830   18.5740 C   0  0  0  0  0  2  0  0  0  0  0  0
  -27.6160  -13.2710   19.7860 C   0  0  0  0  0  3  0  0  0  0  0  0
  -28.6730  -13.1880   20.9070 C   0  0  0  0  0  2  0  0  0  0  0  0
  -29.9620  -13.5690   20.3130 N   0  0  0  0  0  0  0  0  0  0  0  0
  -31.7480  -14.9390   20.1190 O   0  0  0  0  0  0  0  0  0  0  0  0
  -29.7040  -15.9060   20.5620 N   0  0  0  0  0  0  0  0  0  0  0  0
  -28.7490  -15.6050   20.6750 H   0  0  0  0  0  0  0  0  0  0  0  0
  -25.2250  -13.8550   20.5080 C   0  0  0  0  0  0  0  0  0  0  0  0
  -24.1620  -13.0780   20.8790 C   0  0  0  0  0  0  0  0  0  0  0  0
  -24.6320  -11.7290   20.8560 C   0  0  0  0  0  0  0  0  0  0  0  0
  -26.2730  -12.9790   20.2760 N   0  0  0  0  0  0  0  0  0  0  0  0
  -25.9230  -11.6960   20.5500 N   0  0  0  0  0  0  0  0  0  0  0  0
  -23.9100  -10.4650   21.0480 C   0  0  0  0  0  0  0  0  0  0  0  0
  -24.3510   -9.4970   21.9790 C   0  0  0  0  0  3  0  0  0  0  0  0
  -23.6280   -8.2980   22.1590 C   0  0  0  0  0  3  0  0  0  0  0  0
  -22.4520   -8.0580   21.4090 C   0  0  0  0  0  0  0  0  0  0  0  0
  -22.0320   -9.0140   20.4680 C   0  0  0  0  0  3  0  0  0  0  0  0
  -22.7550  -10.2050   20.2850 C   0  0  0  0  0  3  0  0  0  0  0  0
  -21.7020   -6.9110   21.4990 O   0  0  0  0  0  0  0  0  0  0  0  0
  -21.6670   -6.1600   22.6470 C   0  0  0  0  0  0  0  0  0  0  0  0
  -21.2560   -6.7080   23.8820 C   0  0  0  0  0  3  0  0  0  0  0  0
  -21.1700   -5.8860   25.0230 C   0  0  0  0  0  3  0  0  0  0  0  0
  -21.4840   -4.5160   24.9300 C   0  0  0  0  0  0  0  0  0  0  0  0
  -21.8880   -3.9680   23.6990 C   0  0  0  0  0  3  0  0  0  0  0  0
  -21.9760   -4.7880   22.5600 C   0  0  0  0  0  0  0  0  0  0  0  0
  -22.3460   -4.2500   21.3730 F   0  0  0  0  0  0  0  0  0  0  0  0
  -21.3930   -3.7230   26.0230 F   0  0  0  0  0  0  0  0  0  0  0  0
  -22.7610  -13.5500   21.1420 C   0  0  0  0  0  0  0  0  0  0  0  0
  -22.0320  -12.8540   22.0060 N   0  0  0  0  0  0  0  0  0  0  0  0
  -22.3220  -14.5720   20.6150 O   0  0  0  0  0  0  0  0  0  0  0  0
  -22.4010  -12.0280   22.4550 H   0  0  0  0  0  0  0  0  0  0  0  0
  -21.0920  -13.1510   22.2250 H   0  0  0  0  0  0  0  0  0  0  0  0
  -25.3800  -15.2250   20.3230 N   0  0  0  0  0  0  0  0  0  0  0  0
  -24.6010  -15.8660   20.4200 H   0  0  0  0  0  0  0  0  0  0  0  0
  -26.2030  -15.6620   19.9320 H   0  0  0  0  0  0  0  0  0  0  0  0
  -27.9300  -23.6570   20.1060 C   0  0  0  0  0  2  0  0  0  0  0  0
  -28.5320  -25.0520   20.6830 C   0  0  0  0  0  2  0  0  0  0  0  0
  -28.3650  -26.4530   20.1350 O   0  0  0  0  0  0  0  0  0  0  0  0
  -24.6060  -31.8930   23.2370 C   0  0  0  0  0  0  0  0  0  0  0  0
  -27.2140  -27.2630   20.2310 C   0  0  0  0  0  0  0  0  0  0  0  0
  -23.4030  -30.4840   21.6050 C   0  0  0  0  0  3  0  0  0  0  0  0
  -24.8520  -28.9040   20.2020 C   0  0  0  0  0  0  0  0  0  0  0  0
  -25.9450  -30.7880   21.4210 C   0  0  0  0  0  2  0  0  0  0  0  0
  -26.0240  -29.3950   20.7910 C   0  0  0  0  0  0  0  0  0  0  0  0
  -27.2090  -28.5900   20.7840 C   0  0  0  0  0  3  0  0  0  0  0  0
  -26.0160  -26.8250   19.6330 C   0  0  0  0  0  3  0  0  0  0  0  0
  -24.8530  -27.6260   19.6130 C   0  0  0  0  0  3  0  0  0  0  0  0
  -23.6200  -29.7890   20.2330 C   0  0  0  0  0  2  0  0  0  0  0  0
  -24.6710  -31.0750   22.1440 N   0  0  0  0  0  0  0  0  0  0  0  0
  -23.5220  -32.1750   23.7690 O   0  0  0  0  0  0  0  0  0  0  0  0
  -22.7350  -29.4790   22.5740 C   0  0  0  0  0  0  0  0  0  0  0  0
  -21.4090  -29.3030   22.4470 N   0  0  0  0  0  0  0  0  0  0  0  0
  -23.4110  -28.8580   23.3990 O   0  0  0  0  0  0  0  0  0  0  0  0
  -20.9220  -29.8540   21.7540 H   0  0  0  0  0  0  0  0  0  0  0  0
  -18.0310  -28.1030   22.9450 C   0  0  0  0  0  0  0  0  0  0  0  0
  -20.5880  -28.3690   23.2210 C   0  0  0  0  0  3  0  0  0  0  0  0
  -20.6940  -26.9340   22.6550 C   0  0  0  0  0  2  0  0  0  0  0  0
  -19.5950  -26.6030   21.6400 C   0  0  0  0  0  2  0  0  0  0  0  0
  -18.2120  -26.7500   22.2790 C   0  0  0  0  0  2  0  0  0  0  0  0
  -19.1470  -28.8710   23.3730 C   0  0  0  0  0  0  0  0  0  0  0  0
  -18.9240  -30.1370   23.9570 C   0  0  0  0  0  3  0  0  0  0  0  0
  -17.6180  -30.6370   24.1160 C   0  0  0  0  0  3  0  0  0  0  0  0
  -16.5160  -29.8660   23.7040 C   0  0  0  0  0  3  0  0  0  0  0  0
  -16.7230  -28.6020   23.1250 C   0  0  0  0  0  3  0  0  0  0  0  0
  -25.8880  -32.5290   23.8580 C   0  0  0  0  0  3  0  0  0  0  0  0
  -25.5770  -33.9280   24.1860 N   0  0  0  0  0  0  0  0  0  0  0  0
  -25.9100  -34.9820   23.4280 C   0  0  0  0  0  0  0  0  0  0  0  0
  -26.5790  -34.8780   22.3960 O   0  0  0  0  0  0  0  0  0  0  0  0
  -24.9820  -34.0840   24.9870 H   0  0  0  0  0  0  0  0  0  0  0  0
  -24.1830  -36.7770   23.0750 C   0  0  0  0  0  1  0  0  0  0  0  0
  -25.4240  -36.3710   23.8860 C   0  0  0  0  0  3  0  0  0  0  0  0
  -27.5590  -37.2550   24.7160 C   0  0  0  0  0  1  0  0  0  0  0  0
  -26.4570  -37.4240   23.7720 N   0  0  0  0  0  0  0  0  0  0  0  0
  -26.0520  -38.3450   23.9200 H   0  0  0  0  0  0  0  0  0  0  0  0
  -26.4030  -31.7630   25.1390 C   0  0  1  0  0  0  0  0  0  0  0  0
  -25.3090  -31.5310   26.2080 C   0  0  0  0  0  1  0  0  0  0  0  0
  -26.9840  -30.3830   24.7530 C   0  0  0  0  0  1  0  0  0  0  0  0
  -27.5540  -32.5590   25.7980 C   0  0  0  0  0  1  0  0  0  0  0  0
  2 51  1  0
  2  1  1  0
  3  1  2  0
  4  2  2  0
  5  4  1  0
  5  3  1  0
  6  7  1  0
  7  5  1  0
  9  8  1  6
  9  3  1  0
  9 12  1  0
 11 10  1  0
 11  9  1  0
 13 21  1  0
 14 19  1  0
 15 16  1  0
 15 14  1  0
 17 16  1  0
 17 26  1  0
 17 18  1  0
 19 13  1  0
 19 18  1  0
 20 13  2  0
 21 22  1  0
 21 12  1  0
 23 24  2  0
 24 43  1  0
 25 24  1  0
 25 28  1  0
 26 23  1  0
 26 27  1  0
 27 25  2  0
 28 29  1  0
 29 30  2  0
 31 34  1  0
 31 30  1  0
 32 31  2  0
 33 32  1  0
 33 28  2  0
 34 35  1  0
 35 36  1  0
 36 37  2  0
 38 37  1  0
 38 42  1  0
 39 38  2  0
 40 35  2  0
 40 39  1  0
 41 40  1  0
 43 44  1  0
 44 47  1  0
 44 46  1  0
 45 43  2  0
 48 49  1  0
 48 23  1  0
 50 48  1  0
 51 52  1  0
 53 55  1  0
 53 52  1  0
 54 65  2  0
 55 60  1  0
 56 64  1  0
 56 66  1  0
 57 63  1  0
 57 59  1  0
 58 64  1  0
 59 58  1  0
 60 59  2  0
 61 55  2  0
 62 61  1  0
 62 57  2  0
 63 56  1  0
 64 54  1  0
 66 68  2  0
 67 66  1  0
 69 67  1  0
 70 79  2  0
 70 75  1  0
 71 67  1  0
 71 75  1  0
 72 71  1  0
 73 74  1  0
 73 72  1  0
 74 70  1  0
 75 76  2  0
 76 77  1  0
 78 77  2  0
 79 78  1  0
 80 54  1  0
 80 81  1  0
 80 90  1  0
 81 84  1  0
 82 86  1  0
 82 81  1  0
 83 82  2  0
 86 85  1  0
 88 86  1  0
 88 89  1  0
 88 87  1  0
 90 93  1  1
 90 91  1  0
 92 90  1  0
M  ISO  4  13 100  21 100  52 101  53 101
M  END
>  <TORSDO>  (63) 
F 22

>  <SCORE>  (63) 
-13.349

>  <name>  (63) 
62

>  <ligand_id>  (63) 
62

>  <original_smiles>  (63) 
[H]c1c([H])c([H])c2c(c1[H])C([H])([H])C([H])([H])C([H])([H])C2([H])N([H])C(=O)C1([H])N(C(=O)C([H])(N([H])C(=O)C([H])(N([H])C([H])([H])[H])C([H])([H])[H])C(C([H])([H])[H])(C([H])([H])[H])C([H])([H])[H])C([H])([H])c2c([H])c(OC([H])([H])C([H])([H])c3nn(C([H])([H])C([H])([H])[H])c(C(C([H])([H])[H])(C([H])([H])N([H])C(=O)N4C([H])([H])C([H])([H])C([H])([H])C([H])(n5nc(-c6c([H])c([H])c(Oc7c([H])c([H])c(F)c([H])c7F)c([H])c6[H])c(C(=O)N([H])[H])c5N([H])[H])C4([H])[H])C([H])([H])C([H])([H])[H])c3[H])c([H])c([H])c2C1([H])[H]

>  <smiles>  (63) 
[H]c1c([H])c([H])c2c(c1[H])C([H])([H])C([H])([H])C([H])([H])C2([H])N([H])C(=O)C1([H])N(C(=O)C([H])(N([H])C(=O)C([H])(N([H])C([H])([H])[H])C([H])([H])[H])C(C([H])([H])[H])(C([H])([H])[H])C([H])([H])[H])C([H])([H])c2c([H])c(OC([H])([H])C([H])([H])c3nn(C([H])([H])C([H])([H])[H])c(C(C([H])([H])[H])(C([H])([H])N([H])C(=O)N4C([H])([H])C([H])([H])C([H])([H])C([H])(n5nc(-c6c([H])c([H])c(Oc7c([H])c([H])c(F)c([H])c7F)c([H])c6[H])c(C(=O)N([H])[H])c5N([H])[H])C4([H])[H])C([H])([H])C([H])([H])[H])c3[H])c([H])c([H])c2C1([H])[H]

$$$$
63:0:0
     RDKit          3D

 87 95  0  0  1  0  0  0  0  0999 V2000
  -28.5830  -21.7280   19.9180 C   0  0  0  0  0  2  0  0  0  0  0  0
  -29.7330  -18.0030   20.5060 C   0  0  0  0  0  0  0  0  0  0  0  0
  -28.8860  -18.9740   19.9100 C   0  0  0  0  0  0  0  0  0  0  0  0
  -27.6860  -18.7280   19.0550 C   0  0  0  0  0  1  0  0  0  0  0  0
  -30.6180  -18.8480   21.2190 N   0  0  0  0  0  0  0  0  0  0  0  0
  -30.3550  -20.1520   21.0670 N   0  0  0  0  0  0  0  0  0  0  0  0
  -29.2530  -20.3240   20.2820 N   0  0  0  0  0  0  0  0  0  0  0  0
  -29.5610  -16.3660   20.7440 C   0  0  0  0  0  2  0  0  0  0  0  0
  -30.4770  -15.0240   20.3390 C   0  0  0  0  0  0  0  0  0  0  0  0
  -30.4110  -12.6730   19.3470 C   0  0  0  0  0  2  0  0  0  0  0  0
  -29.4610  -12.6480   18.1240 C   0  0  0  0  0  2  0  0  0  0  0  0
  -28.0000  -12.4250   18.5620 C   0  0  0  0  0  2  0  0  0  0  0  0
  -27.6000  -13.3300   19.7530 C   0  0  0  0  0  3  0  0  0  0  0  0
  -28.6630  -13.3100   20.8730 C   0  0  0  0  0  2  0  0  0  0  0  0
  -29.9410  -13.7340   20.2820 N   0  0  0  0  0  0  0  0  0  0  0  0
  -31.6580  -15.1400   19.9840 O   0  0  0  0  0  0  0  0  0  0  0  0
  -25.2230  -13.9120   20.5070 C   0  0  0  0  0  0  0  0  0  0  0  0
  -24.1590  -13.1370   20.8800 C   0  0  0  0  0  0  0  0  0  0  0  0
  -24.6220  -11.7860   20.8440 C   0  0  0  0  0  0  0  0  0  0  0  0
  -26.2640  -13.0330   20.2550 N   0  0  0  0  0  0  0  0  0  0  0  0
  -25.9120  -11.7500   20.5270 N   0  0  0  0  0  0  0  0  0  0  0  0
  -23.8970  -10.5230   21.0360 C   0  0  0  0  0  0  0  0  0  0  0  0
  -24.3330   -9.5550   21.9670 C   0  0  0  0  0  3  0  0  0  0  0  0
  -23.6070   -8.3580   22.1470 C   0  0  0  0  0  3  0  0  0  0  0  0
  -22.4320   -8.1200   21.3960 C   0  0  0  0  0  0  0  0  0  0  0  0
  -22.0150   -9.0780   20.4530 C   0  0  0  0  0  3  0  0  0  0  0  0
  -22.7420  -10.2660   20.2710 C   0  0  0  0  0  3  0  0  0  0  0  0
  -21.6800   -6.9730   21.4840 O   0  0  0  0  0  0  0  0  0  0  0  0
  -21.6310   -6.2310   22.6360 C   0  0  0  0  0  0  0  0  0  0  0  0
  -21.1950   -6.7830   23.8600 C   0  0  0  0  0  3  0  0  0  0  0  0
  -21.0940   -5.9670   25.0040 C   0  0  0  0  0  3  0  0  0  0  0  0
  -21.4180   -4.6000   24.9260 C   0  0  0  0  0  0  0  0  0  0  0  0
  -21.8460   -4.0460   23.7060 C   0  0  0  0  0  3  0  0  0  0  0  0
  -21.9480   -4.8590   22.5630 C   0  0  0  0  0  0  0  0  0  0  0  0
  -22.3420   -4.3170   21.3860 F   0  0  0  0  0  0  0  0  0  0  0  0
  -21.3120   -3.8130   26.0220 F   0  0  0  0  0  0  0  0  0  0  0  0
  -22.7630  -13.6140   21.1570 C   0  0  0  0  0  0  0  0  0  0  0  0
  -22.0370  -12.9170   22.0220 N   0  0  0  0  0  0  0  0  0  0  0  0
  -22.3280  -14.6430   20.6400 O   0  0  0  0  0  0  0  0  0  0  0  0
  -22.4040  -12.0870   22.4650 H   0  0  0  0  0  0  0  0  0  0  0  0
  -21.0990  -13.2180   22.2500 H   0  0  0  0  0  0  0  0  0  0  0  0
  -25.3860  -15.2820   20.3330 N   0  0  0  0  0  0  0  0  0  0  0  0
  -24.6170  -15.9340   20.4530 H   0  0  0  0  0  0  0  0  0  0  0  0
  -26.2280  -15.7230   19.9910 H   0  0  0  0  0  0  0  0  0  0  0  0
  -28.9390  -23.3010   20.4270 C   0  0  0  0  0  3  0  0  0  0  0  0
  -28.0200  -24.6630   19.9880 C   0  0  0  0  0  3  0  0  0  0  0  0
  -28.2470  -26.1820   20.2840 O   0  0  0  0  0  0  0  0  0  0  0  0
  -24.6250  -31.9030   23.2260 C   0  0  0  0  0  0  0  0  0  0  0  0
  -27.1890  -27.1680   20.2010 C   0  0  0  0  0  0  0  0  0  0  0  0
  -23.4170  -30.5030   21.5950 C   0  0  0  0  0  3  0  0  0  0  0  0
  -24.8580  -28.9180   20.1680 C   0  0  0  0  0  0  0  0  0  0  0  0
  -25.9700  -30.7580   21.4240 C   0  0  0  0  0  2  0  0  0  0  0  0
  -26.0390  -29.3630   20.7760 C   0  0  0  0  0  0  0  0  0  0  0  0
  -27.2020  -28.5040   20.7780 C   0  0  0  0  0  3  0  0  0  0  0  0
  -25.9830  -26.8300   19.5470 C   0  0  0  0  0  3  0  0  0  0  0  0
  -24.8440  -27.6650   19.5380 C   0  0  0  0  0  3  0  0  0  0  0  0
  -23.6310  -29.8170   20.2190 C   0  0  0  0  0  2  0  0  0  0  0  0
  -24.6910  -31.0770   22.1370 N   0  0  0  0  0  0  0  0  0  0  0  0
  -23.5410  -32.1930   23.7560 O   0  0  0  0  0  0  0  0  0  0  0  0
  -22.7380  -29.5030   22.5640 C   0  0  0  0  0  0  0  0  0  0  0  0
  -21.4080  -29.3360   22.4420 N   0  0  0  0  0  0  0  0  0  0  0  0
  -23.4090  -28.8790   23.3900 O   0  0  0  0  0  0  0  0  0  0  0  0
  -20.9230  -29.8940   21.7540 H   0  0  0  0  0  0  0  0  0  0  0  0
  -18.0260  -28.1450   22.9500 C   0  0  0  0  0  0  0  0  0  0  0  0
  -20.5850  -28.4040   23.2190 C   0  0  0  0  0  3  0  0  0  0  0  0
  -20.6840  -26.9700   22.6510 C   0  0  0  0  0  2  0  0  0  0  0  0
  -19.5840  -26.6460   21.6350 C   0  0  0  0  0  2  0  0  0  0  0  0
  -18.1990  -26.7970   22.2710 C   0  0  0  0  0  2  0  0  0  0  0  0
  -19.1460  -28.9080   23.3780 C   0  0  0  0  0  0  0  0  0  0  0  0
  -18.9270  -30.1710   23.9690 C   0  0  0  0  0  3  0  0  0  0  0  0
  -17.6230  -30.6740   24.1370 C   0  0  0  0  0  3  0  0  0  0  0  0
  -16.5180  -29.9090   23.7230 C   0  0  0  0  0  3  0  0  0  0  0  0
  -16.7210  -28.6450   23.1370 C   0  0  0  0  0  3  0  0  0  0  0  0
  -25.9060  -32.5380   23.8470 C   0  0  0  0  0  3  0  0  0  0  0  0
  -26.4210  -31.7680   25.1270 C   0  0  1  0  0  0  0  0  0  0  0  0
  -25.3280  -31.5390   26.1970 C   0  0  0  0  0  1  0  0  0  0  0  0
  -27.0010  -30.3880   24.7440 C   0  0  0  0  0  1  0  0  0  0  0  0
  -27.5730  -32.5620   25.7880 C   0  0  0  0  0  1  0  0  0  0  0  0
  -25.5970  -33.9360   24.1820 N   0  0  0  0  0  0  0  0  0  0  0  0
  -25.9160  -34.9930   23.4250 C   0  0  0  0  0  0  0  0  0  0  0  0
  -26.5700  -34.8950   22.3830 O   0  0  0  0  0  0  0  0  0  0  0  0
  -25.0150  -34.0850   24.9940 H   0  0  0  0  0  0  0  0  0  0  0  0
  -24.1770  -36.7870   23.1140 C   0  0  0  0  0  1  0  0  0  0  0  0
  -25.4370  -36.3810   23.8970 C   0  0  0  0  0  3  0  0  0  0  0  0
  -27.5840  -37.2720   24.6870 C   0  0  0  0  0  1  0  0  0  0  0  0
  -26.4640  -37.4370   23.7640 N   0  0  0  0  0  0  0  0  0  0  0  0
  -26.0590  -38.3560   23.9170 H   0  0  0  0  0  0  0  0  0  0  0  0
  1  7  1  0
  1 45  1  0
  2  8  1  0
  2  5  1  0
  3  7  1  0
  3  2  2  0
  4  3  1  0
  6  5  2  0
  7  6  1  0
  9  8  1  0
 10 15  1  0
 11 12  1  0
 11 10  1  0
 13 12  1  0
 13 20  1  0
 13 14  1  0
 15  9  1  0
 15 14  1  0
 16  9  2  0
 17 18  2  0
 18 37  1  0
 19 18  1  0
 19 22  1  0
 20 17  1  0
 20 21  1  0
 21 19  2  0
 22 23  1  0
 23 24  2  0
 25 28  1  0
 25 24  1  0
 26 25  2  0
 27 26  1  0
 27 22  2  0
 28 29  1  0
 29 30  1  0
 30 31  2  0
 32 31  1  0
 32 36  1  0
 33 32  2  0
 34 29  2  0
 34 33  1  0
 35 34  1  0
 37 38  1  0
 38 41  1  0
 38 40  1  0
 39 37  2  0
 42 43  1  0
 42 17  1  0
 44 42  1  0
 46 47  1  0
 46 45  2  0
 48 59  2  0
 49 47  1  0
 49 54  1  0
 50 58  1  0
 50 60  1  0
 51 57  1  0
 51 53  1  0
 52 58  1  0
 53 54  2  0
 53 52  1  0
 55 49  2  0
 56 55  1  0
 56 51  2  0
 57 50  1  0
 58 48  1  0
 60 62  2  0
 61 60  1  0
 63 61  1  0
 64 73  2  0
 64 69  1  0
 65 61  1  0
 65 69  1  0
 66 65  1  0
 67 68  1  0
 67 66  1  0
 68 64  1  0
 69 70  2  0
 70 71  1  0
 72 71  2  0
 73 72  1  0
 74 48  1  0
 74 79  1  0
 74 75  1  0
 75 78  1  1
 75 76  1  0
 77 75  1  0
 79 82  1  0
 80 84  1  0
 80 79  1  0
 81 80  2  0
 84 83  1  0
 86 84  1  0
 86 87  1  0
 86 85  1  0
M  ISO  4   8 100   9 100  46 101  47 101
M  END
>  <TORSDO>  (64) 
F 20

>  <SCORE>  (64) 
-14.778

>  <name>  (64) 
63

>  <ligand_id>  (64) 
63

>  <original_smiles>  (64) 
[H]c1c([H])c([H])c2c(c1[H])C([H])([H])C([H])([H])C([H])([H])C2([H])N([H])C(=O)C1([H])N(C(=O)C([H])(N([H])C(=O)C([H])(N([H])C([H])([H])[H])C([H])([H])[H])C(C([H])([H])[H])(C([H])([H])[H])C([H])([H])[H])C([H])([H])c2c([H])c(OC([H])([H])C([H])([H])C([H])([H])n3nnc(C([H])([H])C(=O)N4C([H])([H])C([H])([H])C([H])([H])C([H])(n5nc(-c6c([H])c([H])c(Oc7c([H])c([H])c(F)c([H])c7F)c([H])c6[H])c(C(=O)N([H])[H])c5N([H])[H])C4([H])[H])c3C([H])([H])[H])c([H])c([H])c2C1([H])[H]

>  <smiles>  (64) 
[H]c1c([H])c([H])c2c(c1[H])C([H])([H])C([H])([H])C([H])([H])C2([H])N([H])C(=O)C1([H])N(C(=O)C([H])(N([H])C(=O)C([H])(N([H])C([H])([H])[H])C([H])([H])[H])C(C([H])([H])[H])(C([H])([H])[H])C([H])([H])[H])C([H])([H])c2c([H])c(OC([H])([H])C([H])([H])C([H])([H])n3nnc(C([H])([H])C(=O)N4C([H])([H])C([H])([H])C([H])([H])C([H])(n5nc(-c6c([H])c([H])c(Oc7c([H])c([H])c(F)c([H])c7F)c([H])c6[H])c(C(=O)N([H])[H])c5N([H])[H])C4([H])[H])c3C([H])([H])[H])c([H])c([H])c2C1([H])[H]

$$$$
64:0:0
     RDKit          3D

 89 97  0  0  1  0  0  0  0  0999 V2000
  -28.4270  -21.0530   19.2210 C   0  0  0  0  0  3  0  0  0  0  0  0
  -29.7630  -20.0080   21.2880 C   0  0  0  0  0  3  0  0  0  0  0  0
  -28.7270  -21.9600   20.3020 C   0  0  0  0  0  0  0  0  0  0  0  0
  -29.4710  -19.0980   20.2100 C   0  0  0  0  0  0  0  0  0  0  0  0
  -29.4030  -21.3520   21.3400 N   0  0  0  0  0  0  0  0  0  0  0  0
  -28.7900  -19.7020   19.1690 N   0  0  0  0  0  0  0  0  0  0  0  0
  -28.1380  -23.4890   20.5130 C   0  0  0  0  0  2  0  0  0  0  0  0
  -28.5150  -24.8480   18.2550 C   0  0  0  0  0  1  0  0  0  0  0  0
  -28.6200  -24.9070   19.7910 C   0  0  0  0  0  3  0  0  0  0  0  0
  -28.3770  -26.3570   20.2830 O   0  0  0  0  0  0  0  0  0  0  0  0
  -24.6030  -31.8860   23.2270 C   0  0  0  0  0  0  0  0  0  0  0  0
  -27.2500  -27.2330   20.1850 C   0  0  0  0  0  0  0  0  0  0  0  0
  -23.4210  -30.4710   21.5870 C   0  0  0  0  0  3  0  0  0  0  0  0
  -24.8860  -28.9120   20.1620 C   0  0  0  0  0  0  0  0  0  0  0  0
  -25.9670  -30.7770   21.4210 C   0  0  0  0  0  2  0  0  0  0  0  0
  -26.0540  -29.3870   20.7690 C   0  0  0  0  0  0  0  0  0  0  0  0
  -27.2320  -28.5610   20.7620 C   0  0  0  0  0  3  0  0  0  0  0  0
  -26.0540  -26.8370   19.5560 C   0  0  0  0  0  3  0  0  0  0  0  0
  -24.8970  -27.6510   19.5400 C   0  0  0  0  0  3  0  0  0  0  0  0
  -23.6440  -29.7860   20.2090 C   0  0  0  0  0  2  0  0  0  0  0  0
  -24.6830  -31.0680   22.1320 N   0  0  0  0  0  0  0  0  0  0  0  0
  -23.5150  -32.1620   23.7550 O   0  0  0  0  0  0  0  0  0  0  0  0
  -22.7530  -29.4630   22.5540 C   0  0  0  0  0  0  0  0  0  0  0  0
  -21.4260  -29.2880   22.4320 N   0  0  0  0  0  0  0  0  0  0  0  0
  -23.4300  -28.8430   23.3780 O   0  0  0  0  0  0  0  0  0  0  0  0
  -20.9390  -29.8400   21.7390 H   0  0  0  0  0  0  0  0  0  0  0  0
  -18.0480  -28.0830   22.9430 C   0  0  0  0  0  0  0  0  0  0  0  0
  -20.6070  -28.3480   23.2030 C   0  0  0  0  0  3  0  0  0  0  0  0
  -20.7110  -26.9180   22.6260 C   0  0  0  0  0  2  0  0  0  0  0  0
  -19.6060  -26.5960   21.6150 C   0  0  0  0  0  2  0  0  0  0  0  0
  -18.2270  -26.7350   22.2650 C   0  0  0  0  0  2  0  0  0  0  0  0
  -19.1660  -28.8490   23.3690 C   0  0  0  0  0  0  0  0  0  0  0  0
  -18.9430  -30.1090   23.9660 C   0  0  0  0  0  3  0  0  0  0  0  0
  -17.6380  -30.6030   24.1390 C   0  0  0  0  0  3  0  0  0  0  0  0
  -16.5350  -29.8350   23.7270 C   0  0  0  0  0  3  0  0  0  0  0  0
  -16.7410  -28.5760   23.1360 C   0  0  0  0  0  3  0  0  0  0  0  0
  -25.8760  -32.5320   23.8540 C   0  0  0  0  0  3  0  0  0  0  0  0
  -26.3900  -31.7780   25.1440 C   0  0  1  0  0  0  0  0  0  0  0  0
  -25.2920  -31.5440   26.2080 C   0  0  0  0  0  1  0  0  0  0  0  0
  -26.9790  -30.3980   24.7720 C   0  0  0  0  0  1  0  0  0  0  0  0
  -27.5340  -32.5850   25.8010 C   0  0  0  0  0  1  0  0  0  0  0  0
  -25.5570  -33.9350   24.1740 N   0  0  0  0  0  0  0  0  0  0  0  0
  -25.8980  -34.9870   23.4210 C   0  0  0  0  0  0  0  0  0  0  0  0
  -26.5800  -34.8820   22.3950 O   0  0  0  0  0  0  0  0  0  0  0  0
  -24.9490  -34.0880   24.9660 H   0  0  0  0  0  0  0  0  0  0  0  0
  -24.1770  -36.7850   23.0410 C   0  0  0  0  0  1  0  0  0  0  0  0
  -25.4070  -36.3790   23.8680 C   0  0  0  0  0  3  0  0  0  0  0  0
  -27.5300  -37.2660   24.7310 C   0  0  0  0  0  1  0  0  0  0  0  0
  -26.4430  -37.4310   23.7670 N   0  0  0  0  0  0  0  0  0  0  0  0
  -26.0360  -38.3520   23.9030 H   0  0  0  0  0  0  0  0  0  0  0  0
  -30.2230  -17.6380   19.9980 C   0  0  0  0  0  2  0  0  0  0  0  0
  -30.5410  -14.9730   20.1740 C   0  0  0  0  0  0  0  0  0  0  0  0
  -30.3960  -12.6490   19.2070 C   0  0  0  0  0  2  0  0  0  0  0  0
  -29.4370  -12.6370   17.9960 C   0  0  0  0  0  2  0  0  0  0  0  0
  -27.9870  -12.4210   18.4600 C   0  0  0  0  0  2  0  0  0  0  0  0
  -27.6040  -13.3350   19.6560 C   0  0  0  0  0  3  0  0  0  0  0  0
  -28.6790  -13.3250   20.7610 C   0  0  0  0  0  2  0  0  0  0  0  0
  -29.9410  -13.7230   20.1300 N   0  0  0  0  0  0  0  0  0  0  0  0
  -31.7440  -15.0320   19.9170 O   0  0  0  0  0  0  0  0  0  0  0  0
  -29.7680  -16.1600   20.2670 N   0  0  0  0  0  0  0  0  0  0  0  0
  -28.7730  -16.0220   20.3400 H   0  0  0  0  0  0  0  0  0  0  0  0
  -25.2410  -13.9070   20.4370 C   0  0  0  0  0  0  0  0  0  0  0  0
  -24.1910  -13.1270   20.8280 C   0  0  0  0  0  0  0  0  0  0  0  0
  -24.6600  -11.7780   20.7840 C   0  0  0  0  0  0  0  0  0  0  0  0
  -26.2800  -13.0320   20.1770 N   0  0  0  0  0  0  0  0  0  0  0  0
  -25.9450  -11.7450   20.4550 N   0  0  0  0  0  0  0  0  0  0  0  0
  -23.9440  -10.5120   20.9820 C   0  0  0  0  0  0  0  0  0  0  0  0
  -24.3820   -9.5510   21.9210 C   0  0  0  0  0  3  0  0  0  0  0  0
  -23.6630   -8.3510   22.1050 C   0  0  0  0  0  3  0  0  0  0  0  0
  -22.4930   -8.1020   21.3490 C   0  0  0  0  0  0  0  0  0  0  0  0
  -22.0750   -9.0500   20.3980 C   0  0  0  0  0  3  0  0  0  0  0  0
  -22.7950  -10.2420   20.2130 C   0  0  0  0  0  3  0  0  0  0  0  0
  -21.7440   -6.9530   21.4450 O   0  0  0  0  0  0  0  0  0  0  0  0
  -21.6830   -6.2290   22.6070 C   0  0  0  0  0  0  0  0  0  0  0  0
  -21.2140   -6.7920   23.8130 C   0  0  0  0  0  3  0  0  0  0  0  0
  -21.1020   -5.9930   24.9670 C   0  0  0  0  0  3  0  0  0  0  0  0
  -21.4460   -4.6300   24.9160 C   0  0  0  0  0  0  0  0  0  0  0  0
  -21.9080   -4.0640   23.7150 C   0  0  0  0  0  3  0  0  0  0  0  0
  -22.0220   -4.8610   22.5610 C   0  0  0  0  0  0  0  0  0  0  0  0
  -22.4470   -4.3060   21.4010 F   0  0  0  0  0  0  0  0  0  0  0  0
  -21.3310   -3.8590   26.0230 F   0  0  0  0  0  0  0  0  0  0  0  0
  -22.7920  -13.5950   21.1140 C   0  0  0  0  0  0  0  0  0  0  0  0
  -22.0820  -12.8910   21.9880 N   0  0  0  0  0  0  0  0  0  0  0  0
  -22.3410  -14.6210   20.6050 O   0  0  0  0  0  0  0  0  0  0  0  0
  -22.4620  -12.0610   22.4180 H   0  0  0  0  0  0  0  0  0  0  0  0
  -21.1470  -13.1810   22.2300 H   0  0  0  0  0  0  0  0  0  0  0  0
  -25.3960  -15.2800   20.2620 N   0  0  0  0  0  0  0  0  0  0  0  0
  -24.6250  -15.9250   20.3920 H   0  0  0  0  0  0  0  0  0  0  0  0
  -26.2230  -15.7250   19.8880 H   0  0  0  0  0  0  0  0  0  0  0  0
  1  3  1  0
  2  5  1  0
  3  7  1  0
  3  5  2  0
  4  2  2  0
  6  1  2  0
  6  4  1  0
  9  8  1  0
  9 10  1  0
  9  7  1  0
 11 22  2  0
 12 10  1  0
 12 17  1  0
 13 21  1  0
 13 23  1  0
 14 20  1  0
 14 16  1  0
 15 21  1  0
 16 15  1  0
 17 16  2  0
 18 12  2  0
 19 18  1  0
 19 14  2  0
 20 13  1  0
 21 11  1  0
 23 25  2  0
 24 23  1  0
 26 24  1  0
 27 36  2  0
 27 32  1  0
 28 24  1  0
 28 32  1  0
 29 28  1  0
 30 31  1  0
 30 29  1  0
 31 27  1  0
 32 33  2  0
 33 34  1  0
 35 34  2  0
 36 35  1  0
 37 11  1  0
 37 42  1  0
 37 38  1  0
 38 41  1  1
 38 39  1  0
 40 38  1  0
 42 45  1  0
 43 47  1  0
 43 42  1  0
 44 43  2  0
 47 46  1  0
 49 47  1  0
 49 50  1  0
 49 48  1  0
 51  4  1  0
 51 60  1  0
 52 60  1  0
 53 58  1  0
 54 55  1  0
 54 53  1  0
 56 55  1  0
 56 65  1  0
 56 57  1  0
 58 52  1  0
 58 57  1  0
 59 52  2  0
 60 61  1  0
 62 63  2  0
 63 82  1  0
 64 63  1  0
 64 67  1  0
 65 62  1  0
 65 66  1  0
 66 64  2  0
 67 68  1  0
 68 69  2  0
 70 73  1  0
 70 69  1  0
 71 70  2  0
 72 71  1  0
 72 67  2  0
 73 74  1  0
 74 75  1  0
 75 76  2  0
 77 76  1  0
 77 81  1  0
 78 77  2  0
 79 74  2  0
 79 78  1  0
 80 79  1  0
 82 83  1  0
 83 86  1  0
 83 85  1  0
 84 82  2  0
 87 88  1  0
 87 62  1  0
 89 87  1  0
M  ISO  4   9 101  10 101  52 100  60 100
M  END
>  <TORSDO>  (65) 
F 19

>  <SCORE>  (65) 
-14.159

>  <name>  (65) 
64

>  <ligand_id>  (65) 
64

>  <original_smiles>  (65) 
[H]c1nc(C([H])([H])C([H])(Oc2c([H])c([H])c3c(c2[H])C([H])([H])N(C(=O)C([H])(N([H])C(=O)C([H])(N([H])C([H])([H])[H])C([H])([H])[H])C(C([H])([H])[H])(C([H])([H])[H])C([H])([H])[H])C([H])(C(=O)N([H])C2([H])c4c([H])c([H])c([H])c([H])c4C([H])([H])C([H])([H])C2([H])[H])C3([H])[H])C([H])([H])[H])c([H])nc1C([H])([H])N([H])C(=O)N1C([H])([H])C([H])([H])C([H])([H])C([H])(n2nc(-c3c([H])c([H])c(Oc4c([H])c([H])c(F)c([H])c4F)c([H])c3[H])c(C(=O)N([H])[H])c2N([H])[H])C1([H])[H]

>  <smiles>  (65) 
[H]c1nc(C([H])([H])C([H])(Oc2c([H])c([H])c3c(c2[H])C([H])([H])N(C(=O)C([H])(N([H])C(=O)C([H])(N([H])C([H])([H])[H])C([H])([H])[H])C(C([H])([H])[H])(C([H])([H])[H])C([H])([H])[H])C([H])(C(=O)N([H])C2([H])c4c([H])c([H])c([H])c([H])c4C([H])([H])C([H])([H])C2([H])[H])C3([H])[H])C([H])([H])[H])c([H])nc1C([H])([H])N([H])C(=O)N1C([H])([H])C([H])([H])C([H])([H])C([H])(n2nc(-c3c([H])c([H])c(Oc4c([H])c([H])c(F)c([H])c4F)c([H])c3[H])c(C(=O)N([H])[H])c2N([H])[H])C1([H])[H]

$$$$
65:0:0
     RDKit          3D

 91 99  0  0  1  0  0  0  0  0999 V2000
  -29.8000  -22.0250   20.1790 C   0  0  0  0  0  3  0  0  0  0  0  0
  -27.5560  -22.8440   20.5080 C   0  0  0  0  0  3  0  0  0  0  0  0
  -28.9250  -23.1200   20.3840 C   0  0  0  0  0  0  0  0  0  0  0  0
  -29.2720  -20.7100   20.0370 C   0  0  0  0  0  0  0  0  0  0  0  0
  -27.8610  -20.5800   20.0700 C   0  0  0  0  0  0  0  0  0  0  0  0
  -27.1200  -19.2920   19.7560 C   0  0  0  0  0  1  0  0  0  0  0  0
  -27.0370  -21.6160   20.3380 N   0  0  0  0  0  0  0  0  0  0  0  0
  -29.3960  -24.5810   20.4630 C   0  0  0  0  0  2  0  0  0  0  0  0
  -28.6240  -25.5110   19.4910 C   0  0  0  0  0  2  0  0  0  0  0  0
  -28.7100  -26.9180   19.8190 O   0  0  0  0  0  0  0  0  0  0  0  0
  -24.5460  -31.6920   23.0960 C   0  0  0  0  0  0  0  0  0  0  0  0
  -27.5180  -27.6260   19.7850 C   0  0  0  0  0  0  0  0  0  0  0  0
  -23.4700  -30.3550   21.3180 C   0  0  0  0  0  3  0  0  0  0  0  0
  -25.0480  -29.0190   19.8270 C   0  0  0  0  0  0  0  0  0  0  0  0
  -25.9800  -30.8600   21.2320 C   0  0  0  0  0  2  0  0  0  0  0  0
  -26.1620  -29.5510   20.4890 C   0  0  0  0  0  0  0  0  0  0  0  0
  -27.4010  -28.8650   20.4600 C   0  0  0  0  0  3  0  0  0  0  0  0
  -26.3830  -27.1270   19.0990 C   0  0  0  0  0  3  0  0  0  0  0  0
  -25.1540  -27.8080   19.1280 C   0  0  0  0  0  3  0  0  0  0  0  0
  -23.7570  -29.8020   19.8990 C   0  0  0  0  0  2  0  0  0  0  0  0
  -24.6810  -30.9790   21.9420 N   0  0  0  0  0  0  0  0  0  0  0  0
  -23.4340  -31.8640   23.6170 O   0  0  0  0  0  0  0  0  0  0  0  0
  -22.8470  -29.2300   22.1760 C   0  0  0  0  0  0  0  0  0  0  0  0
  -21.5290  -29.0200   22.0260 N   0  0  0  0  0  0  0  0  0  0  0  0
  -23.5460  -28.5540   22.9350 O   0  0  0  0  0  0  0  0  0  0  0  0
  -21.0220  -29.6200   21.3910 H   0  0  0  0  0  0  0  0  0  0  0  0
  -18.1730  -27.7550   22.4720 C   0  0  0  0  0  0  0  0  0  0  0  0
  -20.7370  -27.9910   22.7010 C   0  0  0  0  0  3  0  0  0  0  0  0
  -20.8260  -26.6410   21.9500 C   0  0  0  0  0  2  0  0  0  0  0  0
  -19.6960  -26.4390   20.9360 C   0  0  0  0  0  2  0  0  0  0  0  0
  -18.3330  -26.4980   21.6340 C   0  0  0  0  0  2  0  0  0  0  0  0
  -19.3020  -28.4660   22.9590 C   0  0  0  0  0  0  0  0  0  0  0  0
  -19.0990  -29.6500   23.7010 C   0  0  0  0  0  3  0  0  0  0  0  0
  -17.7990  -30.1210   23.9620 C   0  0  0  0  0  3  0  0  0  0  0  0
  -16.6840  -29.4040   23.4940 C   0  0  0  0  0  3  0  0  0  0  0  0
  -16.8720  -28.2230   22.7540 C   0  0  0  0  0  3  0  0  0  0  0  0
  -25.7750  -32.3420   23.8040 C   0  0  0  0  0  3  0  0  0  0  0  0
  -25.4130  -33.7270   24.1350 N   0  0  0  0  0  0  0  0  0  0  0  0
  -25.7530  -34.7960   23.4040 C   0  0  0  0  0  0  0  0  0  0  0  0
  -26.4750  -34.7240   22.4050 O   0  0  0  0  0  0  0  0  0  0  0  0
  -24.7810  -33.8560   24.9110 H   0  0  0  0  0  0  0  0  0  0  0  0
  -23.9890  -36.5380   22.9920 C   0  0  0  0  0  1  0  0  0  0  0  0
  -25.2070  -36.1660   23.8510 C   0  0  0  0  0  3  0  0  0  0  0  0
  -27.2750  -37.1060   24.7810 C   0  0  0  0  0  1  0  0  0  0  0  0
  -26.2110  -37.2490   23.7910 N   0  0  0  0  0  0  0  0  0  0  0  0
  -25.7710  -38.1560   23.9260 H   0  0  0  0  0  0  0  0  0  0  0  0
  -26.2320  -31.5610   25.0960 C   0  0  1  0  0  0  0  0  0  0  0  0
  -25.0840  -31.2740   26.0940 C   0  0  0  0  0  1  0  0  0  0  0  0
  -26.8710  -30.2060   24.7140 C   0  0  0  0  0  1  0  0  0  0  0  0
  -27.3190  -32.3700   25.8420 C   0  0  0  0  0  1  0  0  0  0  0  0
  -30.2440  -19.5410   19.7500 C   0  0  0  0  0  2  0  0  0  0  0  0
  -30.2140  -18.2710   20.6580 C   0  0  0  0  0  2  0  0  0  0  0  0
  -31.1200  -17.1350   20.1070 C   0  0  0  0  0  2  0  0  0  0  0  0
  -31.3650  -14.6810   20.0150 C   0  0  0  0  0  0  0  0  0  0  0  0
  -30.9670  -12.4730   19.0080 C   0  0  0  0  0  2  0  0  0  0  0  0
  -30.0190  -12.6660   17.8080 C   0  0  0  0  0  2  0  0  0  0  0  0
  -28.5490  -12.5780   18.2620 C   0  0  0  0  0  2  0  0  0  0  0  0
  -28.2520  -13.4770   19.4930 C   0  0  0  0  0  3  0  0  0  0  0  0
  -29.3250  -13.3070   20.5960 C   0  0  0  0  0  2  0  0  0  0  0  0
  -30.6500  -13.5250   19.9900 N   0  0  0  0  0  0  0  0  0  0  0  0
  -32.4610  -14.8020   19.4630 O   0  0  0  0  0  0  0  0  0  0  0  0
  -30.7420  -15.7660   20.5090 N   0  0  0  0  0  0  0  0  0  0  0  0
  -29.8490  -15.6180   20.9530 H   0  0  0  0  0  0  0  0  0  0  0  0
  -25.8980  -14.1680   20.2920 C   0  0  0  0  0  0  0  0  0  0  0  0
  -24.8120  -13.4330   20.6870 C   0  0  0  0  0  0  0  0  0  0  0  0
  -25.2160  -12.0640   20.6170 C   0  0  0  0  0  0  0  0  0  0  0  0
  -26.9000  -13.2500   20.0100 N   0  0  0  0  0  0  0  0  0  0  0  0
  -26.4920  -11.9780   20.2600 N   0  0  0  0  0  0  0  0  0  0  0  0
  -24.4470  -10.8280   20.8080 C   0  0  0  0  0  0  0  0  0  0  0  0
  -24.8270   -9.8600   21.7660 C   0  0  0  0  0  3  0  0  0  0  0  0
  -24.0580   -8.6900   21.9450 C   0  0  0  0  0  3  0  0  0  0  0  0
  -22.8970   -8.4780   21.1640 C   0  0  0  0  0  0  0  0  0  0  0  0
  -22.5370   -9.4330   20.1970 C   0  0  0  0  0  3  0  0  0  0  0  0
  -23.3070  -10.5940   20.0150 C   0  0  0  0  0  3  0  0  0  0  0  0
  -22.1030   -7.3580   21.2520 O   0  0  0  0  0  0  0  0  0  0  0  0
  -21.9350   -6.6830   22.4350 C   0  0  0  0  0  0  0  0  0  0  0  0
  -21.4160   -7.3170   23.5860 C   0  0  0  0  0  3  0  0  0  0  0  0
  -21.1930   -6.5720   24.7620 C   0  0  0  0  0  3  0  0  0  0  0  0
  -21.4800   -5.1930   24.7870 C   0  0  0  0  0  0  0  0  0  0  0  0
  -21.9920   -4.5590   23.6400 C   0  0  0  0  0  3  0  0  0  0  0  0
  -22.2160   -5.3020   22.4690 C   0  0  0  0  0  0  0  0  0  0  0  0
  -22.6910   -4.6810   21.3610 F   0  0  0  0  0  0  0  0  0  0  0  0
  -21.2610   -4.4760   25.9130 F   0  0  0  0  0  0  0  0  0  0  0  0
  -23.4440  -13.9630   21.0160 C   0  0  0  0  0  0  0  0  0  0  0  0
  -22.7200  -13.2940   21.9060 N   0  0  0  0  0  0  0  0  0  0  0  0
  -23.0290  -15.0110   20.5210 O   0  0  0  0  0  0  0  0  0  0  0  0
  -23.0640  -12.4450   22.3310 H   0  0  0  0  0  0  0  0  0  0  0  0
  -21.8090  -13.6410   22.1720 H   0  0  0  0  0  0  0  0  0  0  0  0
  -26.1090  -15.5350   20.1310 N   0  0  0  0  0  0  0  0  0  0  0  0
  -25.3720  -16.2130   20.2820 H   0  0  0  0  0  0  0  0  0  0  0  0
  -26.9480  -15.9450   19.7420 H   0  0  0  0  0  0  0  0  0  0  0  0
  1  3  1  0
  3  8  1  0
  3  2  2  0
  4  5  1  0
  4  1  2  0
  5  7  2  0
  6  5  1  0
  7  2  1  0
  9 10  1  0
  9  8  1  0
 11 22  2  0
 12 10  1  0
 12 17  1  0
 13 21  1  0
 13 23  1  0
 14 20  1  0
 14 16  1  0
 15 21  1  0
 16 15  1  0
 17 16  2  0
 18 19  1  0
 18 12  2  0
 19 14  2  0
 20 13  1  0
 21 11  1  0
 23 25  2  0
 24 23  1  0
 26 24  1  0
 27 36  2  0
 27 32  1  0
 28 24  1  0
 28 32  1  0
 29 28  1  0
 30 31  1  0
 30 29  1  0
 31 27  1  0
 32 33  2  0
 33 34  1  0
 35 34  2  0
 36 35  1  0
 37 11  1  0
 37 38  1  0
 37 47  1  0
 38 41  1  0
 39 43  1  0
 39 38  1  0
 40 39  2  0
 43 42  1  0
 45 43  1  0
 45 46  1  0
 45 44  1  0
 47 50  1  1
 47 48  1  0
 49 47  1  0
 51  4  1  0
 51 52  1  0
 53 62  1  0
 53 52  1  0
 54 62  1  0
 55 60  1  0
 56 57  1  0
 56 55  1  0
 58 57  1  0
 58 67  1  0
 58 59  1  0
 60 54  1  0
 60 59  1  0
 61 54  2  0
 62 63  1  0
 64 65  2  0
 65 84  1  0
 66 65  1  0
 66 69  1  0
 67 68  1  0
 67 64  1  0
 68 66  2  0
 69 70  1  0
 70 71  2  0
 72 75  1  0
 72 71  1  0
 73 72  2  0
 74 73  1  0
 74 69  2  0
 75 76  1  0
 76 81  2  0
 76 77  1  0
 77 78  2  0
 78 79  1  0
 79 83  1  0
 80 79  2  0
 81 80  1  0
 82 81  1  0
 84 85  1  0
 85 88  1  0
 85 87  1  0
 86 84  2  0
 89 90  1  0
 89 64  1  0
 91 89  1  0
M  ISO  4   9 101  10 101  54 100  62 100
M  END
>  <TORSDO>  (66) 
F 21

>  <SCORE>  (66) 
-11.930

>  <name>  (66) 
65

>  <ligand_id>  (66) 
65

>  <original_smiles>  (66) 
[H]c1nc(C([H])([H])[H])c(C([H])([H])C([H])([H])C([H])([H])N([H])C(=O)N2C([H])([H])C([H])([H])C([H])([H])C([H])(n3nc(-c4c([H])c([H])c(Oc5c([H])c([H])c(F)c([H])c5F)c([H])c4[H])c(C(=O)N([H])[H])c3N([H])[H])C2([H])[H])c([H])c1C([H])([H])C([H])([H])Oc1c([H])c([H])c2c(c1[H])C([H])([H])N(C(=O)C([H])(N([H])C(=O)C([H])(N([H])C([H])([H])[H])C([H])([H])[H])C(C([H])([H])[H])(C([H])([H])[H])C([H])([H])[H])C([H])(C(=O)N([H])C1([H])c3c([H])c([H])c([H])c([H])c3C([H])([H])C([H])([H])C1([H])[H])C2([H])[H]

>  <smiles>  (66) 
[H]c1nc(C([H])([H])[H])c(C([H])([H])C([H])([H])C([H])([H])N([H])C(=O)N2C([H])([H])C([H])([H])C([H])([H])C([H])(n3nc(-c4c([H])c([H])c(Oc5c([H])c([H])c(F)c([H])c5F)c([H])c4[H])c(C(=O)N([H])[H])c3N([H])[H])C2([H])[H])c([H])c1C([H])([H])C([H])([H])Oc1c([H])c([H])c2c(c1[H])C([H])([H])N(C(=O)C([H])(N([H])C(=O)C([H])(N([H])C([H])([H])[H])C([H])([H])[H])C(C([H])([H])[H])(C([H])([H])[H])C([H])([H])[H])C([H])(C(=O)N([H])C1([H])c3c([H])c([H])c([H])c([H])c3C([H])([H])C([H])([H])C1([H])[H])C2([H])[H]

$$$$
66:0:0
     RDKit          3D

 98106  0  0  1  0  0  0  0  0999 V2000
  -31.6780  -24.3190   18.9590 C   0  0  0  0  0  0  0  0  0  0  0  0
  -32.6690  -24.2690   19.9760 C   0  0  0  0  0  0  0  0  0  0  0  0
  -30.8460  -25.4660   18.9490 C   0  0  0  0  0  0  0  0  0  0  0  0
  -31.9160  -26.2630   20.8150 C   0  0  0  0  0  0  0  0  0  0  0  0
  -31.5130  -23.2360   17.8930 C   0  0  0  0  0  1  0  0  0  0  0  0
  -32.0480  -27.3580   21.8540 C   0  0  0  0  0  1  0  0  0  0  0  0
  -32.7510  -25.2380   20.9040 N   0  0  0  0  0  0  0  0  0  0  0  0
  -30.9910  -26.4300   19.8780 N   0  0  0  0  0  0  0  0  0  0  0  0
  -33.7440  -23.1900   20.1030 C   0  0  0  0  0  2  0  0  0  0  0  0
  -33.2690  -21.9260   20.8420 C   0  0  0  0  0  2  0  0  0  0  0  0
  -32.6290  -20.8790   19.9080 C   0  0  0  0  0  2  0  0  0  0  0  0
  -30.2630  -21.1860   20.6050 C   0  0  0  0  0  1  0  0  0  0  0  0
  -31.4010  -20.2460   20.4450 N   0  0  2  0  0  4  0  0  0  0  0  0
  -31.1240  -19.6240   19.6990 H   0  0  0  0  0  0  0  0  0  0  0  0
  -31.6090  -19.3240   21.5880 C   0  0  0  0  0  2  0  0  0  0  0  0
  -30.6680  -18.1200   21.4150 C   0  0  0  0  0  2  0  0  0  0  0  0
  -30.9650  -16.8980   22.2990 C   0  0  0  0  0  2  0  0  0  0  0  0
  -30.7810  -15.0400   20.6570 C   0  0  0  0  0  0  0  0  0  0  0  0
  -30.5140  -12.9940   19.3000 C   0  0  0  0  0  2  0  0  0  0  0  0
  -29.5720  -13.1960   18.0970 C   0  0  0  0  0  2  0  0  0  0  0  0
  -28.0930  -13.0310   18.4990 C   0  0  0  0  0  2  0  0  0  0  0  0
  -27.7280  -13.8100   19.7910 C   0  0  0  0  0  3  0  0  0  0  0  0
  -28.7700  -13.5390   20.8920 C   0  0  0  0  0  2  0  0  0  0  0  0
  -30.1000  -13.9010   20.3750 N   0  0  0  0  0  0  0  0  0  0  0  0
  -31.7760  -15.4130   20.0280 O   0  0  0  0  0  0  0  0  0  0  0  0
  -30.3340  -15.7090   21.7300 N   0  0  0  0  0  0  0  0  0  0  0  0
  -29.5010  -15.3560   22.1820 H   0  0  0  0  0  0  0  0  0  0  0  0
  -25.3000  -14.3260   20.4820 C   0  0  0  0  0  0  0  0  0  0  0  0
  -24.2570  -13.5080   20.8230 C   0  0  0  0  0  0  0  0  0  0  0  0
  -24.7630  -12.1740   20.7680 C   0  0  0  0  0  0  0  0  0  0  0  0
  -26.3770  -13.4850   20.2460 N   0  0  0  0  0  0  0  0  0  0  0  0
  -26.0560  -12.1850   20.4720 N   0  0  0  0  0  0  0  0  0  0  0  0
  -24.0800  -10.8820   20.9260 C   0  0  0  0  0  0  0  0  0  0  0  0
  -24.5130   -9.9320   21.8780 C   0  0  0  0  0  3  0  0  0  0  0  0
  -23.8310   -8.7040   22.0280 C   0  0  0  0  0  3  0  0  0  0  0  0
  -22.7010   -8.4190   21.2240 C   0  0  0  0  0  0  0  0  0  0  0  0
  -22.2870   -9.3570   20.2640 C   0  0  0  0  0  3  0  0  0  0  0  0
  -22.9700  -10.5770   20.1120 C   0  0  0  0  0  3  0  0  0  0  0  0
  -21.9940   -7.2420   21.2790 O   0  0  0  0  0  0  0  0  0  0  0  0
  -21.8930   -6.5150   22.4390 C   0  0  0  0  0  0  0  0  0  0  0  0
  -21.3540   -7.0710   23.6210 C   0  0  0  0  0  3  0  0  0  0  0  0
  -21.2050   -6.2690   24.7700 C   0  0  0  0  0  3  0  0  0  0  0  0
  -21.5810   -4.9130   24.7370 C   0  0  0  0  0  0  0  0  0  0  0  0
  -22.1130   -4.3560   23.5590 C   0  0  0  0  0  3  0  0  0  0  0  0
  -22.2650   -5.1560   22.4130 C   0  0  0  0  0  0  0  0  0  0  0  0
  -22.7560   -4.6110   21.2730 F   0  0  0  0  0  0  0  0  0  0  0  0
  -21.4310   -4.1400   25.8380 F   0  0  0  0  0  0  0  0  0  0  0  0
  -22.8410  -13.9290   21.0910 C   0  0  0  0  0  0  0  0  0  0  0  0
  -22.1330  -13.1980   21.9450 N   0  0  0  0  0  0  0  0  0  0  0  0
  -22.3670  -14.9400   20.5750 O   0  0  0  0  0  0  0  0  0  0  0  0
  -22.5300  -12.3860   22.3950 H   0  0  0  0  0  0  0  0  0  0  0  0
  -21.1790  -13.4580   22.1570 H   0  0  0  0  0  0  0  0  0  0  0  0
  -25.4220  -15.7060   20.3320 N   0  0  0  0  0  0  0  0  0  0  0  0
  -24.6430  -16.3410   20.4730 H   0  0  0  0  0  0  0  0  0  0  0  0
  -26.2660  -16.1740   20.0240 H   0  0  0  0  0  0  0  0  0  0  0  0
  -29.8200  -25.7470   17.8440 C   0  0  0  0  0  2  0  0  0  0  0  0
  -28.3400  -25.7290   18.2700 C   0  0  0  0  0  2  0  0  0  0  0  0
  -28.1620  -26.6870   19.2990 O   0  0  0  0  0  0  0  0  0  0  0  0
  -24.5290  -31.5150   22.9540 C   0  0  0  0  0  0  0  0  0  0  0  0
  -26.9690  -27.3590   19.3850 C   0  0  0  0  0  0  0  0  0  0  0  0
  -23.2240  -30.2730   21.2550 C   0  0  0  0  0  3  0  0  0  0  0  0
  -24.5890  -28.8500   19.6400 C   0  0  0  0  0  0  0  0  0  0  0  0
  -25.7390  -30.6280   20.9730 C   0  0  0  0  0  2  0  0  0  0  0  0
  -25.7740  -29.3150   20.2220 C   0  0  0  0  0  0  0  0  0  0  0  0
  -26.9620  -28.5740   20.0970 C   0  0  0  0  0  3  0  0  0  0  0  0
  -25.7640  -26.8870   18.8140 C   0  0  0  0  0  3  0  0  0  0  0  0
  -24.5740  -27.6300   18.9410 C   0  0  0  0  0  3  0  0  0  0  0  0
  -23.3660  -29.7190   19.8110 C   0  0  0  0  0  2  0  0  0  0  0  0
  -24.5170  -30.8160   21.7840 N   0  0  0  0  0  0  0  0  0  0  0  0
  -23.4790  -31.7500   23.5670 O   0  0  0  0  0  0  0  0  0  0  0  0
  -22.6060  -29.1770   22.1520 C   0  0  0  0  0  0  0  0  0  0  0  0
  -21.2750  -29.0220   22.0740 N   0  0  0  0  0  0  0  0  0  0  0  0
  -23.3180  -28.4770   22.8770 O   0  0  0  0  0  0  0  0  0  0  0  0
  -20.7610  -29.6440   21.4650 H   0  0  0  0  0  0  0  0  0  0  0  0
  -17.9100  -27.8390   22.6300 C   0  0  0  0  0  0  0  0  0  0  0  0
  -20.4810  -28.0330   22.8010 C   0  0  0  0  0  3  0  0  0  0  0  0
  -20.5310  -26.6550   22.1010 C   0  0  0  0  0  2  0  0  0  0  0  0
  -19.3780  -26.4360   21.1170 C   0  0  0  0  0  2  0  0  0  0  0  0
  -18.0310  -26.5480   21.8360 C   0  0  0  0  0  2  0  0  0  0  0  0
  -19.0600  -28.5440   23.0690 C   0  0  0  0  0  0  0  0  0  0  0  0
  -18.8940  -29.7570   23.7720 C   0  0  0  0  0  3  0  0  0  0  0  0
  -17.6060  -30.2600   24.0420 C   0  0  0  0  0  3  0  0  0  0  0  0
  -16.4710  -29.5500   23.6160 C   0  0  0  0  0  3  0  0  0  0  0  0
  -16.6220  -28.3410   22.9150 C   0  0  0  0  0  3  0  0  0  0  0  0
  -25.8550  -32.0720   23.5630 C   0  0  0  0  0  3  0  0  0  0  0  0
  -26.4290  -31.1850   24.7350 C   0  0  1  0  0  0  0  0  0  0  0  0
  -25.3950  -30.8670   25.8390 C   0  0  0  0  0  1  0  0  0  0  0  0
  -26.9640  -29.8430   24.1860 C   0  0  0  0  0  1  0  0  0  0  0  0
  -27.6280  -31.9050   25.4000 C   0  0  0  0  0  1  0  0  0  0  0  0
  -25.5890  -33.4410   24.0240 N   0  0  0  0  0  0  0  0  0  0  0  0
  -25.9410  -34.5490   23.3570 C   0  0  0  0  0  0  0  0  0  0  0  0
  -26.5970  -34.5240   22.3120 O   0  0  0  0  0  0  0  0  0  0  0  0
  -25.0170  -33.5390   24.8500 H   0  0  0  0  0  0  0  0  0  0  0  0
  -24.2550  -36.4040   23.1870 C   0  0  0  0  0  1  0  0  0  0  0  0
  -25.4920  -35.8980   23.9440 C   0  0  0  0  0  3  0  0  0  0  0  0
  -27.6540  -36.6480   24.8330 C   0  0  0  0  0  1  0  0  0  0  0  0
  -26.5490  -36.9320   23.9210 N   0  0  0  0  0  0  0  0  0  0  0  0
  -26.1660  -37.8420   24.1680 H   0  0  0  0  0  0  0  0  0  0  0  0
  1  2  2  0
  2  9  1  0
  2  7  1  0
  3  1  1  0
  3  8  2  0
  4  7  2  0
  4  6  1  0
  5  1  1  0
  8  4  1  0
  9 10  1  0
 11 13  1  0
 11 10  1  0
 13 12  1  0
 13 15  1  0
 13 14  1  6
 16 15  1  0
 16 17  1  0
 18 26  1  0
 19 24  1  0
 20 21  1  0
 20 19  1  0
 22 21  1  0
 22 31  1  0
 22 23  1  0
 24 18  1  0
 24 23  1  0
 25 18  2  0
 26 27  1  0
 26 17  1  0
 28 29  2  0
 29 48  1  0
 30 29  1  0
 30 33  1  0
 31 32  1  0
 31 28  1  0
 32 30  2  0
 33 34  1  0
 34 35  2  0
 36 39  1  0
 36 35  1  0
 37 36  2  0
 38 37  1  0
 38 33  2  0
 39 40  1  0
 40 41  1  0
 41 42  2  0
 43 42  1  0
 43 47  1  0
 44 43  2  0
 45 40  2  0
 45 44  1  0
 46 45  1  0
 48 49  1  0
 49 52  1  0
 49 51  1  0
 50 48  2  0
 53 54  1  0
 53 28  1  0
 55 53  1  0
 56 57  1  0
 56  3  1  0
 57 58  1  0
 58 60  1  0
 59 70  2  0
 60 65  1  0
 61 69  1  0
 61 71  1  0
 62 68  1  0
 62 64  1  0
 63 69  1  0
 64 63  1  0
 65 64  2  0
 66 67  1  0
 66 60  2  0
 67 62  2  0
 68 61  1  0
 69 59  1  0
 71 73  2  0
 72 71  1  0
 74 72  1  0
 75 84  2  0
 75 80  1  0
 76 72  1  0
 76 80  1  0
 77 76  1  0
 78 79  1  0
 78 77  1  0
 79 75  1  0
 80 81  2  0
 81 82  1  0
 83 82  2  0
 84 83  1  0
 85 59  1  0
 85 90  1  0
 85 86  1  0
 86 89  1  1
 86 87  1  0
 88 86  1  0
 90 93  1  0
 91 95  1  0
 91 90  1  0
 92 91  2  0
 95 94  1  0
 97 95  1  0
 97 98  1  0
 97 96  1  0
M  ISO  4  18 100  26 100  57 101  58 101
M  END
>  <TORSDO>  (67) 
F 25

>  <SCORE>  (67) 
-10.836

>  <name>  (67) 
66

>  <ligand_id>  (67) 
66

>  <original_smiles>  (67) 
[H]c1c([H])c([H])c2c(c1[H])C([H])([H])C([H])([H])C([H])([H])C2([H])N([H])C(=O)C1([H])N(C(=O)C([H])(N([H])C(=O)C([H])(N([H])C([H])([H])[H])C([H])([H])[H])C(C([H])([H])[H])(C([H])([H])[H])C([H])([H])[H])C([H])([H])c2c([H])c(OC([H])([H])C([H])([H])c3nc(C([H])([H])[H])nc(C([H])([H])C([H])([H])C([H])([H])[N+]([H])(C([H])([H])[H])C([H])([H])C([H])([H])C([H])([H])N([H])C(=O)N4C([H])([H])C([H])([H])C([H])([H])C([H])(n5nc(-c6c([H])c([H])c(Oc7c([H])c([H])c(F)c([H])c7F)c([H])c6[H])c(C(=O)N([H])[H])c5N([H])[H])C4([H])[H])c3C([H])([H])[H])c([H])c([H])c2C1([H])[H]

>  <smiles>  (67) 
[H]c1c([H])c([H])c2c(c1[H])C([H])([H])C([H])([H])C([H])([H])C2([H])N([H])C(=O)C1([H])N(C(=O)C([H])(N([H])C(=O)C([H])(N([H])C([H])([H])[H])C([H])([H])[H])C(C([H])([H])[H])(C([H])([H])[H])C([H])([H])[H])C([H])([H])c2c([H])c(OC([H])([H])C([H])([H])c3nc(C([H])([H])[H])nc(C([H])([H])C([H])([H])C([H])([H])[N+]([H])(C([H])([H])[H])C([H])([H])C([H])([H])C([H])([H])N([H])C(=O)N4C([H])([H])C([H])([H])C([H])([H])C([H])(n5nc(-c6c([H])c([H])c(Oc7c([H])c([H])c(F)c([H])c7F)c([H])c6[H])c(C(=O)N([H])[H])c5N([H])[H])C4([H])[H])c3C([H])([H])[H])c([H])c([H])c2C1([H])[H]

$$$$
67:0:0
     RDKit          3D

 88 96  0  0  1  0  0  0  0  0999 V2000
  -29.3740  -19.9020   21.0940 C   0  0  0  0  0  3  0  0  0  0  0  0
  -29.1470  -21.1770   20.2800 C   0  0  0  0  0  0  0  0  0  0  0  0
  -29.5620  -18.6440   20.3740 C   0  0  0  0  0  0  0  0  0  0  0  0
  -29.2450  -20.6320   19.0510 N   0  0  0  0  0  0  0  0  0  0  0  0
  -29.4440  -19.2350   19.1030 N   0  0  0  0  0  0  0  0  0  0  0  0
  -28.0590  -18.2460   17.3090 C   0  0  0  0  0  1  0  0  0  0  0  0
  -29.4730  -18.5220   17.8390 C   0  0  0  0  0  2  0  0  0  0  0  0
  -30.5670  -23.3790   20.2620 C   0  0  0  0  0  1  0  0  0  0  0  0
  -29.1360  -22.9250   20.5760 C   0  0  0  0  0  3  0  0  0  0  0  0
  -28.1180  -24.3550   20.1310 C   0  0  0  0  0  2  0  0  0  0  0  0
  -28.2730  -25.9870   20.3920 O   0  0  0  0  0  0  0  0  0  0  0  0
  -24.6490  -31.9650   23.2610 C   0  0  0  0  0  0  0  0  0  0  0  0
  -27.2500  -27.0730   20.3000 C   0  0  0  0  0  0  0  0  0  0  0  0
  -23.4730  -30.5510   21.6250 C   0  0  0  0  0  3  0  0  0  0  0  0
  -24.9390  -28.9410   20.2230 C   0  0  0  0  0  0  0  0  0  0  0  0
  -26.0380  -30.7720   21.4950 C   0  0  0  0  0  2  0  0  0  0  0  0
  -26.1190  -29.3570   20.8480 C   0  0  0  0  0  0  0  0  0  0  0  0
  -27.2690  -28.4450   20.8600 C   0  0  0  0  0  3  0  0  0  0  0  0
  -26.0380  -26.8060   19.6250 C   0  0  0  0  0  3  0  0  0  0  0  0
  -24.9230  -27.6850   19.5910 C   0  0  0  0  0  3  0  0  0  0  0  0
  -23.7150  -29.8570   20.2550 C   0  0  0  0  0  2  0  0  0  0  0  0
  -24.7410  -31.1240   22.1800 N   0  0  0  0  0  0  0  0  0  0  0  0
  -23.5550  -32.2540   23.7730 O   0  0  0  0  0  0  0  0  0  0  0  0
  -22.7760  -29.5610   22.5940 C   0  0  0  0  0  0  0  0  0  0  0  0
  -21.4480  -29.3880   22.4590 N   0  0  0  0  0  0  0  0  0  0  0  0
  -23.4370  -28.9480   23.4360 O   0  0  0  0  0  0  0  0  0  0  0  0
  -20.9670  -29.9340   21.7580 H   0  0  0  0  0  0  0  0  0  0  0  0
  -18.0650  -28.1720   22.9620 C   0  0  0  0  0  0  0  0  0  0  0  0
  -20.6240  -28.4520   23.2330 C   0  0  0  0  0  3  0  0  0  0  0  0
  -20.7330  -27.0170   22.6670 C   0  0  0  0  0  2  0  0  0  0  0  0
  -19.6350  -26.6830   21.6500 C   0  0  0  0  0  2  0  0  0  0  0  0
  -18.2520  -26.8230   22.2900 C   0  0  0  0  0  2  0  0  0  0  0  0
  -19.1800  -28.9430   23.3900 C   0  0  0  0  0  0  0  0  0  0  0  0
  -18.9500  -30.2040   23.9840 C   0  0  0  0  0  3  0  0  0  0  0  0
  -17.6410  -30.6950   24.1510 C   0  0  0  0  0  3  0  0  0  0  0  0
  -16.5420  -29.9220   23.7360 C   0  0  0  0  0  3  0  0  0  0  0  0
  -16.7550  -28.6620   23.1480 C   0  0  0  0  0  3  0  0  0  0  0  0
  -25.9130  -32.6180   23.8990 C   0  0  0  0  0  3  0  0  0  0  0  0
  -26.4120  -31.8660   25.1950 C   0  0  1  0  0  0  0  0  0  0  0  0
  -25.3000  -31.6240   26.2440 C   0  0  0  0  0  1  0  0  0  0  0  0
  -27.0230  -30.4920   24.8390 C   0  0  0  0  0  1  0  0  0  0  0  0
  -27.5390  -32.6830   25.8740 C   0  0  0  0  0  1  0  0  0  0  0  0
  -25.5860  -34.0190   24.2220 N   0  0  0  0  0  0  0  0  0  0  0  0
  -25.9030  -35.0760   23.4630 C   0  0  0  0  0  0  0  0  0  0  0  0
  -26.5640  -34.9760   22.4260 O   0  0  0  0  0  0  0  0  0  0  0  0
  -24.9970  -34.1680   25.0280 H   0  0  0  0  0  0  0  0  0  0  0  0
  -24.1490  -36.8570   23.1440 C   0  0  0  0  0  1  0  0  0  0  0  0
  -25.4130  -36.4640   23.9270 C   0  0  0  0  0  3  0  0  0  0  0  0
  -27.5530  -37.3850   24.7090 C   0  0  0  0  0  1  0  0  0  0  0  0
  -26.4330  -37.5280   23.7830 N   0  0  0  0  0  0  0  0  0  0  0  0
  -26.0180  -38.4440   23.9260 H   0  0  0  0  0  0  0  0  0  0  0  0
  -29.5970  -16.9200   20.7330 C   0  0  0  0  0  2  0  0  0  0  0  0
  -30.4590  -15.4400   20.3060 C   0  0  0  0  0  0  0  0  0  0  0  0
  -30.4920  -12.9900   19.4030 C   0  0  0  0  0  2  0  0  0  0  0  0
  -29.5710  -12.8140   18.1660 C   0  0  0  0  0  2  0  0  0  0  0  0
  -28.1190  -12.5360   18.5940 C   0  0  0  0  0  2  0  0  0  0  0  0
  -27.6670  -13.4780   19.7360 C   0  0  0  0  0  3  0  0  0  0  0  0
  -28.7120  -13.5890   20.8670 C   0  0  0  0  0  2  0  0  0  0  0  0
  -29.9530  -14.1050   20.2660 N   0  0  0  0  0  0  0  0  0  0  0  0
  -31.6560  -15.4840   19.9750 O   0  0  0  0  0  0  0  0  0  0  0  0
  -25.2890  -14.0250   20.4770 C   0  0  0  0  0  0  0  0  0  0  0  0
  -24.2290  -13.2440   20.8410 C   0  0  0  0  0  0  0  0  0  0  0  0
  -24.7010  -11.8960   20.8140 C   0  0  0  0  0  0  0  0  0  0  0  0
  -26.3370  -13.1550   20.2360 N   0  0  0  0  0  0  0  0  0  0  0  0
  -25.9950  -11.8680   20.5070 N   0  0  0  0  0  0  0  0  0  0  0  0
  -23.9780  -10.6310   21.0010 C   0  0  0  0  0  0  0  0  0  0  0  0
  -24.3920   -9.6760   21.9550 C   0  0  0  0  0  3  0  0  0  0  0  0
  -23.6660   -8.4780   22.1310 C   0  0  0  0  0  3  0  0  0  0  0  0
  -22.5110   -8.2270   21.3520 C   0  0  0  0  0  0  0  0  0  0  0  0
  -22.1160   -9.1710   20.3880 C   0  0  0  0  0  3  0  0  0  0  0  0
  -22.8430  -10.3600   20.2110 C   0  0  0  0  0  3  0  0  0  0  0  0
  -21.7590   -7.0810   21.4360 O   0  0  0  0  0  0  0  0  0  0  0  0
  -21.6670   -6.3620   22.6020 C   0  0  0  0  0  0  0  0  0  0  0  0
  -21.1630   -6.9330   23.7910 C   0  0  0  0  0  3  0  0  0  0  0  0
  -21.0210   -6.1410   24.9470 C   0  0  0  0  0  3  0  0  0  0  0  0
  -21.3720   -4.7790   24.9160 C   0  0  0  0  0  0  0  0  0  0  0  0
  -21.8700   -4.2070   23.7320 C   0  0  0  0  0  3  0  0  0  0  0  0
  -22.0130   -4.9970   22.5770 C   0  0  0  0  0  0  0  0  0  0  0  0
  -22.4730   -4.4350   21.4330 F   0  0  0  0  0  0  0  0  0  0  0  0
  -21.2300   -4.0150   26.0250 F   0  0  0  0  0  0  0  0  0  0  0  0
  -22.8280  -13.7170   21.1020 C   0  0  0  0  0  0  0  0  0  0  0  0
  -22.0970  -13.0200   21.9650 N   0  0  0  0  0  0  0  0  0  0  0  0
  -22.3910  -14.7390   20.5760 O   0  0  0  0  0  0  0  0  0  0  0  0
  -22.4650  -12.1930   22.4130 H   0  0  0  0  0  0  0  0  0  0  0  0
  -21.1570  -13.3180   22.1830 H   0  0  0  0  0  0  0  0  0  0  0  0
  -25.4440  -15.3980   20.3010 N   0  0  0  0  0  0  0  0  0  0  0  0
  -24.6700  -16.0430   20.4100 H   0  0  0  0  0  0  0  0  0  0  0  0
  -26.2860  -15.8440   19.9630 H   0  0  0  0  0  0  0  0  0  0  0  0
  2  9  1  0
  2  1  1  0
  3 52  1  0
  3  1  2  0
  4  5  1  0
  4  2  2  0
  5  3  1  0
  6  7  1  0
  7  5  1  0
  9  8  1  0
 10 11  1  0
 10  9  1  0
 12 23  2  0
 13 11  1  0
 13 18  1  0
 14 22  1  0
 14 24  1  0
 15 21  1  0
 15 17  1  0
 16 22  1  0
 17 18  2  0
 17 16  1  0
 19 13  2  0
 20 19  1  0
 20 15  2  0
 21 14  1  0
 22 12  1  0
 24 26  2  0
 25 24  1  0
 27 25  1  0
 28 37  2  0
 28 33  1  0
 29 25  1  0
 29 33  1  0
 30 29  1  0
 31 32  1  0
 31 30  1  0
 32 28  1  0
 33 34  2  0
 34 35  1  0
 36 35  2  0
 37 36  1  0
 38 12  1  0
 38 43  1  0
 38 39  1  0
 39 42  1  1
 39 40  1  0
 41 39  1  0
 43 46  1  0
 44 48  1  0
 44 43  1  0
 45 44  2  0
 48 47  1  0
 50 51  1  0
 50 48  1  0
 50 49  1  0
 53 52  1  0
 54 59  1  0
 55 56  1  0
 55 54  1  0
 57 56  1  0
 57 64  1  0
 57 58  1  0
 59 53  1  0
 59 58  1  0
 60 53  2  0
 61 62  2  0
 62 81  1  0
 63 62  1  0
 63 66  1  0
 64 61  1  0
 64 65  1  0
 65 63  2  0
 66 67  1  0
 67 68  2  0
 69 72  1  0
 69 68  1  0
 70 69  2  0
 71 70  1  0
 71 66  2  0
 72 73  1  0
 73 74  1  0
 74 75  2  0
 76 75  1  0
 76 80  1  0
 77 76  2  0
 78 73  2  0
 78 77  1  0
 79 78  1  0
 81 82  1  0
 82 85  1  0
 82 84  1  0
 83 81  2  0
 86 87  1  0
 86 61  1  0
 88 86  1  0
M  ISO  4  10 101  11 101  52 100  53 100
M  END
>  <TORSDO>  (68) 
F 20

>  <SCORE>  (68) 
-16.089

>  <name>  (68) 
67

>  <ligand_id>  (68) 
67

>  <original_smiles>  (68) 
[H]c1c([H])c([H])c2c(c1[H])C([H])([H])C([H])([H])C([H])([H])C2([H])N([H])C(=O)C1([H])N(C(=O)C([H])(N([H])C(=O)C([H])(N([H])C([H])([H])[H])C([H])([H])[H])C(C([H])([H])[H])(C([H])([H])[H])C([H])([H])[H])C([H])([H])c2c([H])c(OC([H])([H])C([H])(c3nn(C([H])([H])C([H])([H])[H])c(C([H])([H])C(=O)N4C([H])([H])C([H])([H])C([H])([H])C([H])(n5nc(-c6c([H])c([H])c(Oc7c([H])c([H])c(F)c([H])c7F)c([H])c6[H])c(C(=O)N([H])[H])c5N([H])[H])C4([H])[H])c3[H])C([H])([H])[H])c([H])c([H])c2C1([H])[H]

>  <smiles>  (68) 
[H]c1c([H])c([H])c2c(c1[H])C([H])([H])C([H])([H])C([H])([H])C2([H])N([H])C(=O)C1([H])N(C(=O)C([H])(N([H])C(=O)C([H])(N([H])C([H])([H])[H])C([H])([H])[H])C(C([H])([H])[H])(C([H])([H])[H])C([H])([H])[H])C([H])([H])c2c([H])c(OC([H])([H])C([H])(c3nn(C([H])([H])C([H])([H])[H])c(C([H])([H])C(=O)N4C([H])([H])C([H])([H])C([H])([H])C([H])(n5nc(-c6c([H])c([H])c(Oc7c([H])c([H])c(F)c([H])c7F)c([H])c6[H])c(C(=O)N([H])[H])c5N([H])[H])C4([H])[H])c3[H])C([H])([H])[H])c([H])c([H])c2C1([H])[H]

$$$$
68:0:0
     RDKit          3D

 92100  0  0  1  0  0  0  0  0999 V2000
  -29.1850  -23.4790   20.9860 C   0  0  0  0  0  0  0  0  0  0  0  0
  -28.9350  -21.7030   18.9510 C   0  0  0  0  0  0  0  0  0  0  0  0
  -29.4430  -21.2570   20.2070 C   0  0  0  0  0  0  0  0  0  0  0  0
  -28.7290  -23.9360   19.7150 C   0  0  0  0  0  0  0  0  0  0  0  0
  -29.3760  -24.4370   22.1460 C   0  0  0  0  0  1  0  0  0  0  0  0
  -29.5200  -22.1670   21.2240 N   0  0  0  0  0  0  0  0  0  0  0  0
  -28.5790  -23.0060   18.7250 N   0  0  0  0  0  0  0  0  0  0  0  0
  -27.3730  -20.3400   17.4780 C   0  0  0  0  0  1  0  0  0  0  0  0
  -28.8180  -20.7870   17.7380 C   0  0  0  0  0  2  0  0  0  0  0  0
  -30.1830  -19.8810   20.4230 C   0  0  0  0  0  2  0  0  0  0  0  0
  -29.4470  -18.4690   20.4880 C   0  0  0  0  0  2  0  0  0  0  0  0
  -30.4430  -17.2180   20.5120 C   0  0  0  0  0  2  0  0  0  0  0  0
  -30.6380  -14.6700   20.3420 C   0  0  0  0  0  0  0  0  0  0  0  0
  -30.3690  -12.4350   19.2980 C   0  0  0  0  0  2  0  0  0  0  0  0
  -29.4250  -12.5670   18.0840 C   0  0  0  0  0  2  0  0  0  0  0  0
  -27.9600  -12.3970   18.5280 C   0  0  0  0  0  2  0  0  0  0  0  0
  -27.6060  -13.2720   19.7610 C   0  0  0  0  0  3  0  0  0  0  0  0
  -28.6720  -13.1550   20.8720 C   0  0  0  0  0  2  0  0  0  0  0  0
  -29.9730  -13.4740   20.2700 N   0  0  0  0  0  0  0  0  0  0  0  0
  -31.8150  -14.7620   19.9870 O   0  0  0  0  0  0  0  0  0  0  0  0
  -29.9110  -15.8070   20.5980 N   0  0  0  0  0  0  0  0  0  0  0  0
  -28.9350  -15.6870   20.8180 H   0  0  0  0  0  0  0  0  0  0  0  0
  -25.2190  -13.8570   20.5050 C   0  0  0  0  0  0  0  0  0  0  0  0
  -24.1590  -13.0770   20.8830 C   0  0  0  0  0  0  0  0  0  0  0  0
  -24.6280  -11.7280   20.8480 C   0  0  0  0  0  0  0  0  0  0  0  0
  -26.2640  -12.9810   20.2610 N   0  0  0  0  0  0  0  0  0  0  0  0
  -25.9160  -11.6970   20.5300 N   0  0  0  0  0  0  0  0  0  0  0  0
  -23.9090  -10.4620   21.0420 C   0  0  0  0  0  0  0  0  0  0  0  0
  -24.3550   -9.4940   21.9680 C   0  0  0  0  0  3  0  0  0  0  0  0
  -23.6350   -8.2930   22.1510 C   0  0  0  0  0  3  0  0  0  0  0  0
  -22.4560   -8.0520   21.4070 C   0  0  0  0  0  0  0  0  0  0  0  0
  -22.0290   -9.0090   20.4700 C   0  0  0  0  0  3  0  0  0  0  0  0
  -22.7480  -10.2020   20.2850 C   0  0  0  0  0  3  0  0  0  0  0  0
  -21.7060   -6.9040   21.4990 O   0  0  0  0  0  0  0  0  0  0  0  0
  -21.6750   -6.1560   22.6490 C   0  0  0  0  0  0  0  0  0  0  0  0
  -21.2610   -6.7040   23.8840 C   0  0  0  0  0  3  0  0  0  0  0  0
  -21.1760   -5.8820   25.0250 C   0  0  0  0  0  3  0  0  0  0  0  0
  -21.4950   -4.5140   24.9340 C   0  0  0  0  0  0  0  0  0  0  0  0
  -21.9030   -3.9660   23.7050 C   0  0  0  0  0  3  0  0  0  0  0  0
  -21.9900   -4.7850   22.5650 C   0  0  0  0  0  0  0  0  0  0  0  0
  -22.3620   -4.2480   21.3780 F   0  0  0  0  0  0  0  0  0  0  0  0
  -21.4080   -3.7230   26.0280 F   0  0  0  0  0  0  0  0  0  0  0  0
  -22.7620  -13.5480   21.1640 C   0  0  0  0  0  0  0  0  0  0  0  0
  -22.0430  -12.8460   22.0350 N   0  0  0  0  0  0  0  0  0  0  0  0
  -22.3160  -14.5720   20.6490 O   0  0  0  0  0  0  0  0  0  0  0  0
  -22.4170  -12.0170   22.4720 H   0  0  0  0  0  0  0  0  0  0  0  0
  -21.1060  -13.1420   22.2660 H   0  0  0  0  0  0  0  0  0  0  0  0
  -25.3730  -15.2280   20.3270 N   0  0  0  0  0  0  0  0  0  0  0  0
  -24.5980  -15.8730   20.4390 H   0  0  0  0  0  0  0  0  0  0  0  0
  -26.2130  -15.6750   19.9840 H   0  0  0  0  0  0  0  0  0  0  0  0
  -28.5690  -25.4370   19.2490 C   0  0  0  0  0  2  0  0  0  0  0  0
  -28.3560  -26.5480   20.1910 O   0  0  0  0  0  0  0  0  0  0  0  0
  -24.5990  -31.8910   23.2300 C   0  0  0  0  0  0  0  0  0  0  0  0
  -27.2120  -27.3550   20.1390 C   0  0  0  0  0  0  0  0  0  0  0  0
  -23.3890  -30.4900   21.5950 C   0  0  0  0  0  3  0  0  0  0  0  0
  -24.8340  -28.9450   20.1580 C   0  0  0  0  0  0  0  0  0  0  0  0
  -25.9230  -30.8160   21.3980 C   0  0  0  0  0  2  0  0  0  0  0  0
  -26.0020  -29.4370   20.7530 C   0  0  0  0  0  0  0  0  0  0  0  0
  -27.1880  -28.6480   20.7460 C   0  0  0  0  0  3  0  0  0  0  0  0
  -26.0120  -26.9000   19.5440 C   0  0  0  0  0  3  0  0  0  0  0  0
  -24.8400  -27.6800   19.5490 C   0  0  0  0  0  3  0  0  0  0  0  0
  -23.5940  -29.8140   20.2140 C   0  0  0  0  0  2  0  0  0  0  0  0
  -24.6560  -31.0830   22.1310 N   0  0  0  0  0  0  0  0  0  0  0  0
  -23.5180  -32.1670   23.7710 O   0  0  0  0  0  0  0  0  0  0  0  0
  -22.7350  -29.4720   22.5560 C   0  0  0  0  0  0  0  0  0  0  0  0
  -21.4080  -29.2960   22.4360 N   0  0  0  0  0  0  0  0  0  0  0  0
  -23.4180  -28.8430   23.3690 O   0  0  0  0  0  0  0  0  0  0  0  0
  -20.9150  -29.8580   21.7570 H   0  0  0  0  0  0  0  0  0  0  0  0
  -18.0340  -28.1040   22.9490 C   0  0  0  0  0  0  0  0  0  0  0  0
  -20.5920  -28.3580   23.2080 C   0  0  0  0  0  3  0  0  0  0  0  0
  -20.6900  -26.9280   22.6300 C   0  0  0  0  0  2  0  0  0  0  0  0
  -19.5820  -26.6090   21.6210 C   0  0  0  0  0  2  0  0  0  0  0  0
  -18.2030  -26.7550   22.2710 C   0  0  0  0  0  2  0  0  0  0  0  0
  -19.1550  -28.8640   23.3740 C   0  0  0  0  0  0  0  0  0  0  0  0
  -18.9420  -30.1280   23.9660 C   0  0  0  0  0  3  0  0  0  0  0  0
  -17.6390  -30.6330   24.1360 C   0  0  0  0  0  3  0  0  0  0  0  0
  -16.5310  -29.8700   23.7270 C   0  0  0  0  0  3  0  0  0  0  0  0
  -16.7290  -28.6080   23.1390 C   0  0  0  0  0  3  0  0  0  0  0  0
  -25.8850  -32.5230   23.8460 C   0  0  0  0  0  3  0  0  0  0  0  0
  -25.5770  -33.9210   24.1770 N   0  0  0  0  0  0  0  0  0  0  0  0
  -25.9120  -34.9750   23.4190 C   0  0  0  0  0  0  0  0  0  0  0  0
  -26.5820  -34.8710   22.3870 O   0  0  0  0  0  0  0  0  0  0  0  0
  -24.9780  -34.0750   24.9750 H   0  0  0  0  0  0  0  0  0  0  0  0
  -24.1860  -36.7730   23.0680 C   0  0  0  0  0  1  0  0  0  0  0  0
  -25.4270  -36.3620   23.8790 C   0  0  0  0  0  3  0  0  0  0  0  0
  -27.5610  -37.2430   24.7150 C   0  0  0  0  0  1  0  0  0  0  0  0
  -26.4610  -37.4150   23.7700 N   0  0  0  0  0  0  0  0  0  0  0  0
  -26.0550  -38.3350   23.9200 H   0  0  0  0  0  0  0  0  0  0  0  0
  -26.4060  -31.7510   25.1180 C   0  0  1  0  0  0  0  0  0  0  0  0
  -25.3160  -31.5140   26.1890 C   0  0  0  0  0  1  0  0  0  0  0  0
  -26.9890  -30.3730   24.7220 C   0  0  0  0  0  1  0  0  0  0  0  0
  -27.5570  -32.5480   25.7780 C   0  0  0  0  0  1  0  0  0  0  0  0
  1  6  1  0
  1  5  1  0
  2  3  1  0
  3 10  1  0
  3  6  2  0
  4  1  2  0
  7  2  2  0
  7  4  1  0
  8  9  1  0
  9  2  1  0
 10 11  1  0
 11 12  1  0
 12 21  1  0
 13 21  1  0
 14 19  1  0
 15 16  1  0
 15 14  1  0
 17 16  1  0
 17 26  1  0
 17 18  1  0
 19 13  1  0
 19 18  1  0
 20 13  2  0
 21 22  1  0
 23 24  2  0
 24 43  1  0
 25 24  1  0
 25 28  1  0
 26 23  1  0
 26 27  1  0
 27 25  2  0
 28 29  1  0
 29 30  2  0
 31 34  1  0
 31 30  1  0
 32 31  2  0
 33 32  1  0
 33 28  2  0
 34 35  1  0
 35 36  1  0
 36 37  2  0
 38 37  1  0
 38 42  1  0
 39 38  2  0
 40 35  2  0
 40 39  1  0
 41 40  1  0
 43 44  1  0
 44 47  1  0
 44 46  1  0
 45 43  2  0
 48 49  1  0
 48 23  1  0
 50 48  1  0
 51  4  1  0
 51 52  1  0
 53 64  2  0
 54 52  1  0
 54 59  1  0
 55 63  1  0
 55 65  1  0
 56 62  1  0
 56 58  1  0
 57 63  1  0
 58 57  1  0
 59 58  2  0
 60 61  1  0
 60 54  2  0
 61 56  2  0
 62 55  1  0
 63 53  1  0
 65 67  2  0
 66 65  1  0
 68 66  1  0
 69 78  2  0
 69 74  1  0
 70 66  1  0
 70 74  1  0
 71 70  1  0
 72 73  1  0
 72 71  1  0
 73 69  1  0
 74 75  2  0
 75 76  1  0
 77 76  2  0
 78 77  1  0
 79 53  1  0
 79 80  1  0
 79 89  1  0
 80 83  1  0
 81 85  1  0
 81 80  1  0
 82 81  2  0
 85 84  1  0
 87 85  1  0
 87 88  1  0
 87 86  1  0
 89 92  1  1
 89 90  1  0
 91 89  1  0
M  ISO  4  13 100  21 100  51 101  52 101
M  END
>  <TORSDO>  (69) 
F 21

>  <SCORE>  (69) 
-13.683

>  <name>  (69) 
68

>  <ligand_id>  (69) 
68

>  <original_smiles>  (69) 
[H]c1c([H])c([H])c2c(c1[H])C([H])([H])C([H])([H])C([H])([H])C2([H])N([H])C(=O)C1([H])N(C(=O)C([H])(N([H])C(=O)C([H])(N([H])C([H])([H])[H])C([H])([H])[H])C(C([H])([H])[H])(C([H])([H])[H])C([H])([H])[H])C([H])([H])c2c([H])c(OC([H])([H])c3nc(C([H])([H])C([H])([H])[H])c(C([H])([H])C([H])([H])C([H])([H])N([H])C(=O)N4C([H])([H])C([H])([H])C([H])([H])C([H])(n5nc(-c6c([H])c([H])c(Oc7c([H])c([H])c(F)c([H])c7F)c([H])c6[H])c(C(=O)N([H])[H])c5N([H])[H])C4([H])[H])nc3C([H])([H])[H])c([H])c([H])c2C1([H])[H]

>  <smiles>  (69) 
[H]c1c([H])c([H])c2c(c1[H])C([H])([H])C([H])([H])C([H])([H])C2([H])N([H])C(=O)C1([H])N(C(=O)C([H])(N([H])C(=O)C([H])(N([H])C([H])([H])[H])C([H])([H])[H])C(C([H])([H])[H])(C([H])([H])[H])C([H])([H])[H])C([H])([H])c2c([H])c(OC([H])([H])c3nc(C([H])([H])C([H])([H])[H])c(C([H])([H])C([H])([H])C([H])([H])N([H])C(=O)N4C([H])([H])C([H])([H])C([H])([H])C([H])(n5nc(-c6c([H])c([H])c(Oc7c([H])c([H])c(F)c([H])c7F)c([H])c6[H])c(C(=O)N([H])[H])c5N([H])[H])C4([H])[H])nc3C([H])([H])[H])c([H])c([H])c2C1([H])[H]

$$$$
69:0:0
     RDKit          3D

 91 99  0  0  1  0  0  0  0  0999 V2000
  -30.9490  -21.9050   20.8900 C   0  0  0  0  0  3  0  0  0  0  0  0
  -30.1230  -22.0740   19.7490 C   0  0  0  0  0  0  0  0  0  0  0  0
  -31.0040  -20.5520   21.0880 C   0  0  0  0  0  0  0  0  0  0  0  0
  -31.7660  -19.8050   22.1340 C   0  0  0  0  0  1  0  0  0  0  0  0
  -29.6950  -20.9010   19.2880 N   0  0  0  0  0  0  0  0  0  0  0  0
  -30.2150  -19.9550   20.1120 N   0  0  0  0  0  0  0  0  0  0  0  0
  -29.7110  -23.3530   19.0550 C   0  0  0  0  0  2  0  0  0  0  0  0
  -29.5850  -24.5750   19.9960 C   0  0  0  0  0  2  0  0  0  0  0  0
  -28.3510  -25.4180   19.6390 C   0  0  0  0  0  2  0  0  0  0  0  0
  -28.3750  -26.7370   20.1850 O   0  0  0  0  0  0  0  0  0  0  0  0
  -24.5630  -31.8840   23.2540 C   0  0  0  0  0  0  0  0  0  0  0  0
  -27.1920  -27.4540   20.1570 C   0  0  0  0  0  0  0  0  0  0  0  0
  -23.3500  -30.4900   21.6110 C   0  0  0  0  0  3  0  0  0  0  0  0
  -24.7960  -28.9680   20.1700 C   0  0  0  0  0  0  0  0  0  0  0  0
  -25.8750  -30.8480   21.4090 C   0  0  0  0  0  2  0  0  0  0  0  0
  -25.9570  -29.4820   20.7630 C   0  0  0  0  0  0  0  0  0  0  0  0
  -27.1540  -28.7310   20.7590 C   0  0  0  0  0  3  0  0  0  0  0  0
  -26.0100  -26.9610   19.5480 C   0  0  0  0  0  3  0  0  0  0  0  0
  -24.8200  -27.7070   19.5570 C   0  0  0  0  0  3  0  0  0  0  0  0
  -23.5490  -29.8210   20.2250 C   0  0  0  0  0  2  0  0  0  0  0  0
  -24.6140  -31.0850   22.1510 N   0  0  0  0  0  0  0  0  0  0  0  0
  -23.4840  -32.1580   23.7970 O   0  0  0  0  0  0  0  0  0  0  0  0
  -22.7030  -29.4620   22.5660 C   0  0  0  0  0  0  0  0  0  0  0  0
  -21.3790  -29.2730   22.4260 N   0  0  0  0  0  0  0  0  0  0  0  0
  -23.3860  -28.8420   23.3840 O   0  0  0  0  0  0  0  0  0  0  0  0
  -20.8970  -29.8240   21.7300 H   0  0  0  0  0  0  0  0  0  0  0  0
  -18.0040  -28.0790   22.8990 C   0  0  0  0  0  0  0  0  0  0  0  0
  -20.5580  -28.3370   23.1910 C   0  0  0  0  0  3  0  0  0  0  0  0
  -20.6710  -26.9080   22.6120 C   0  0  0  0  0  2  0  0  0  0  0  0
  -19.5760  -26.5870   21.5910 C   0  0  0  0  0  2  0  0  0  0  0  0
  -18.1890  -26.7300   22.2240 C   0  0  0  0  0  2  0  0  0  0  0  0
  -19.1170  -28.8420   23.3380 C   0  0  0  0  0  0  0  0  0  0  0  0
  -18.8950  -30.1090   23.9220 C   0  0  0  0  0  3  0  0  0  0  0  0
  -17.5870  -30.6070   24.0770 C   0  0  0  0  0  3  0  0  0  0  0  0
  -16.4890  -29.8370   23.6600 C   0  0  0  0  0  3  0  0  0  0  0  0
  -16.6970  -28.5760   23.0740 C   0  0  0  0  0  3  0  0  0  0  0  0
  -25.8540  -32.5080   23.8720 C   0  0  0  0  0  3  0  0  0  0  0  0
  -25.5580  -33.9100   24.1970 N   0  0  0  0  0  0  0  0  0  0  0  0
  -25.8950  -34.9520   23.4270 C   0  0  0  0  0  0  0  0  0  0  0  0
  -26.5660  -34.8380   22.3970 O   0  0  0  0  0  0  0  0  0  0  0  0
  -24.9790  -34.0780   25.0060 H   0  0  0  0  0  0  0  0  0  0  0  0
  -24.1860  -36.7500   23.0380 C   0  0  0  0  0  1  0  0  0  0  0  0
  -25.4140  -36.3460   23.8680 C   0  0  0  0  0  3  0  0  0  0  0  0
  -27.5450  -37.2170   24.7190 C   0  0  0  0  0  1  0  0  0  0  0  0
  -26.4570  -37.3900   23.7600 N   0  0  0  0  0  0  0  0  0  0  0  0
  -26.0570  -38.3150   23.9010 H   0  0  0  0  0  0  0  0  0  0  0  0
  -26.3670  -31.7350   25.1480 C   0  0  1  0  0  0  0  0  0  0  0  0
  -25.2740  -31.4990   26.2160 C   0  0  0  0  0  1  0  0  0  0  0  0
  -26.9430  -30.3560   24.7540 C   0  0  0  0  0  1  0  0  0  0  0  0
  -27.5260  -32.5210   25.8060 C   0  0  0  0  0  1  0  0  0  0  0  0
  -29.9540  -18.5390   19.8020 C   0  0  0  0  0  2  0  0  0  0  0  0
  -29.5280  -17.6690   21.0140 C   0  0  0  0  0  2  0  0  0  0  0  0
  -30.5980  -16.6390   21.4690 C   0  0  0  0  0  2  0  0  0  0  0  0
  -30.6940  -14.3830   20.3980 C   0  0  0  0  0  0  0  0  0  0  0  0
  -30.2960  -12.3000   19.1340 C   0  0  0  0  0  2  0  0  0  0  0  0
  -29.3390  -12.5740   17.9550 C   0  0  0  0  0  2  0  0  0  0  0  0
  -27.8710  -12.4610   18.4130 C   0  0  0  0  0  2  0  0  0  0  0  0
  -27.5790  -13.2670   19.7090 C   0  0  0  0  0  3  0  0  0  0  0  0
  -28.6460  -12.9640   20.7850 C   0  0  0  0  0  2  0  0  0  0  0  0
  -29.9770  -13.2450   20.2130 N   0  0  0  0  0  0  0  0  0  0  0  0
  -31.7380  -14.6300   19.7870 O   0  0  0  0  0  0  0  0  0  0  0  0
  -30.1590  -15.2590   21.2600 N   0  0  0  0  0  0  0  0  0  0  0  0
  -29.3450  -14.9500   21.7740 H   0  0  0  0  0  0  0  0  0  0  0  0
  -25.1910  -13.8870   20.4510 C   0  0  0  0  0  0  0  0  0  0  0  0
  -24.1240  -13.1190   20.8310 C   0  0  0  0  0  0  0  0  0  0  0  0
  -24.5780  -11.7640   20.7920 C   0  0  0  0  0  0  0  0  0  0  0  0
  -26.2300  -13.0020   20.2040 N   0  0  0  0  0  0  0  0  0  0  0  0
  -25.8640  -11.7220   20.4670 N   0  0  0  0  0  0  0  0  0  0  0  0
  -23.8520  -10.5020   20.9910 C   0  0  0  0  0  0  0  0  0  0  0  0
  -24.3020   -9.5290   21.9100 C   0  0  0  0  0  3  0  0  0  0  0  0
  -23.5780   -8.3320   22.0980 C   0  0  0  0  0  3  0  0  0  0  0  0
  -22.3900   -8.0980   21.3680 C   0  0  0  0  0  0  0  0  0  0  0  0
  -21.9540   -9.0620   20.4430 C   0  0  0  0  0  3  0  0  0  0  0  0
  -22.6780  -10.2510   20.2530 C   0  0  0  0  0  3  0  0  0  0  0  0
  -21.6370   -6.9520   21.4640 O   0  0  0  0  0  0  0  0  0  0  0  0
  -21.6200   -6.1970   22.6090 C   0  0  0  0  0  0  0  0  0  0  0  0
  -21.2350   -6.7410   23.8520 C   0  0  0  0  0  3  0  0  0  0  0  0
  -21.1680   -5.9140   24.9910 C   0  0  0  0  0  3  0  0  0  0  0  0
  -21.4690   -4.5430   24.8850 C   0  0  0  0  0  0  0  0  0  0  0  0
  -21.8460   -3.9980   23.6460 C   0  0  0  0  0  3  0  0  0  0  0  0
  -21.9180   -4.8230   22.5100 C   0  0  0  0  0  0  0  0  0  0  0  0
  -22.2620   -4.2890   21.3130 F   0  0  0  0  0  0  0  0  0  0  0  0
  -21.3950   -3.7460   25.9770 F   0  0  0  0  0  0  0  0  0  0  0  0
  -22.7320  -13.6010   21.1250 C   0  0  0  0  0  0  0  0  0  0  0  0
  -22.0150  -12.9130   22.0050 N   0  0  0  0  0  0  0  0  0  0  0  0
  -22.2920  -14.6280   20.6100 O   0  0  0  0  0  0  0  0  0  0  0  0
  -22.3810  -12.0840   22.4490 H   0  0  0  0  0  0  0  0  0  0  0  0
  -21.0850  -13.2260   22.2440 H   0  0  0  0  0  0  0  0  0  0  0  0
  -25.3700  -15.2570   20.2760 N   0  0  0  0  0  0  0  0  0  0  0  0
  -24.6400  -15.9420   20.4330 H   0  0  0  0  0  0  0  0  0  0  0  0
  -26.2440  -15.6750   19.9760 H   0  0  0  0  0  0  0  0  0  0  0  0
  1  3  2  0
  2  1  1  0
  3  4  1  0
  5  2  2  0
  5  6  1  0
  6  3  1  0
  7  2  1  0
  7  8  1  0
  9  8  1  0
  9 10  1  0
 11 22  2  0
 12 10  1  0
 12 17  1  0
 13 21  1  0
 13 23  1  0
 14 20  1  0
 14 16  1  0
 15 21  1  0
 16 15  1  0
 17 16  2  0
 18 19  1  0
 18 12  2  0
 19 14  2  0
 20 13  1  0
 21 11  1  0
 23 25  2  0
 24 23  1  0
 26 24  1  0
 27 36  2  0
 27 32  1  0
 28 24  1  0
 28 32  1  0
 29 28  1  0
 30 31  1  0
 30 29  1  0
 31 27  1  0
 32 33  2  0
 33 34  1  0
 35 34  2  0
 36 35  1  0
 37 11  1  0
 37 38  1  0
 37 47  1  0
 38 41  1  0
 39 43  1  0
 39 38  1  0
 40 39  2  0
 43 42  1  0
 45 43  1  0
 45 46  1  0
 45 44  1  0
 47 50  1  1
 47 48  1  0
 49 47  1  0
 51  6  1  0
 51 52  1  0
 52 53  1  0
 54 62  1  0
 55 60  1  0
 56 57  1  0
 56 55  1  0
 58 57  1  0
 58 67  1  0
 58 59  1  0
 60 54  1  0
 60 59  1  0
 61 54  2  0
 62 53  1  0
 62 63  1  0
 64 65  2  0
 65 84  1  0
 66 65  1  0
 66 69  1  0
 67 64  1  0
 67 68  1  0
 68 66  2  0
 69 70  1  0
 70 71  2  0
 72 75  1  0
 72 71  1  0
 73 72  2  0
 74 73  1  0
 74 69  2  0
 75 76  1  0
 76 77  1  0
 77 78  2  0
 79 78  1  0
 79 83  1  0
 80 79  2  0
 81 76  2  0
 81 80  1  0
 82 81  1  0
 84 85  1  0
 85 88  1  0
 85 87  1  0
 86 84  2  0
 89 90  1  0
 89 64  1  0
 91 89  1  0
M  ISO  4   9 101  10 101  54 100  62 100
M  END
>  <TORSDO>  (70) 
F 22

>  <SCORE>  (70) 
-13.293

>  <name>  (70) 
69

>  <ligand_id>  (70) 
69

>  <original_smiles>  (70) 
[H]c1c([H])c([H])c2c(c1[H])C([H])([H])C([H])([H])C([H])([H])C2([H])N([H])C(=O)C1([H])N(C(=O)C([H])(N([H])C(=O)C([H])(N([H])C([H])([H])[H])C([H])([H])[H])C(C([H])([H])[H])(C([H])([H])[H])C([H])([H])[H])C([H])([H])c2c([H])c(OC([H])([H])C([H])([H])C([H])([H])c3nn(C([H])([H])C([H])([H])C([H])([H])N([H])C(=O)N4C([H])([H])C([H])([H])C([H])([H])C([H])(n5nc(-c6c([H])c([H])c(Oc7c([H])c([H])c(F)c([H])c7F)c([H])c6[H])c(C(=O)N([H])[H])c5N([H])[H])C4([H])[H])c(C([H])([H])[H])c3[H])c([H])c([H])c2C1([H])[H]

>  <smiles>  (70) 
[H]c1c([H])c([H])c2c(c1[H])C([H])([H])C([H])([H])C([H])([H])C2([H])N([H])C(=O)C1([H])N(C(=O)C([H])(N([H])C(=O)C([H])(N([H])C([H])([H])[H])C([H])([H])[H])C(C([H])([H])[H])(C([H])([H])[H])C([H])([H])[H])C([H])([H])c2c([H])c(OC([H])([H])C([H])([H])C([H])([H])c3nn(C([H])([H])C([H])([H])C([H])([H])N([H])C(=O)N4C([H])([H])C([H])([H])C([H])([H])C([H])(n5nc(-c6c([H])c([H])c(Oc7c([H])c([H])c(F)c([H])c7F)c([H])c6[H])c(C(=O)N([H])[H])c5N([H])[H])C4([H])[H])c(C([H])([H])[H])c3[H])c([H])c([H])c2C1([H])[H]

$$$$
70:0:0
     RDKit          3D

 93101  0  0  1  0  0  0  0  0999 V2000
  -29.5400  -21.0810   19.1930 C   0  0  0  0  0  0  0  0  0  0  0  0
  -28.9750  -20.5320   20.3790 C   0  0  0  0  0  0  0  0  0  0  0  0
  -28.1090  -22.6340   20.8840 C   0  0  0  0  0  0  0  0  0  0  0  0
  -28.6360  -23.1750   19.6780 C   0  0  0  0  0  0  0  0  0  0  0  0
  -30.3180  -20.2340   18.2070 C   0  0  0  0  0  1  0  0  0  0  0  0
  -29.3870  -22.3920   18.8580 N   0  0  0  0  0  0  0  0  0  0  0  0
  -28.2970  -21.3350   21.2350 N   0  0  0  0  0  0  0  0  0  0  0  0
  -25.7390  -23.2990   21.4470 C   0  0  0  0  0  1  0  0  0  0  0  0
  -27.2190  -23.4220   21.8320 C   0  0  0  0  0  2  0  0  0  0  0  0
  -28.9730  -19.0290   20.7370 C   0  0  0  0  0  2  0  0  0  0  0  0
  -30.3560  -18.3550   20.9230 C   0  0  0  0  0  2  0  0  0  0  0  0
  -30.3910  -17.0660   21.7950 C   0  0  0  0  0  2  0  0  0  0  0  0
  -30.5510  -14.8970   20.5140 C   0  0  0  0  0  0  0  0  0  0  0  0
  -30.3060  -12.7960   19.2330 C   0  0  0  0  0  2  0  0  0  0  0  0
  -29.3370  -13.0110   18.0530 C   0  0  0  0  0  2  0  0  0  0  0  0
  -27.8730  -12.8110   18.4960 C   0  0  0  0  0  2  0  0  0  0  0  0
  -27.5290  -13.5840   19.7980 C   0  0  0  0  0  3  0  0  0  0  0  0
  -28.6020  -13.3380   20.8800 C   0  0  0  0  0  2  0  0  0  0  0  0
  -29.9050  -13.7170   20.3080 N   0  0  0  0  0  0  0  0  0  0  0  0
  -31.6660  -15.1430   20.0440 O   0  0  0  0  0  0  0  0  0  0  0  0
  -29.8560  -15.8280   21.1980 N   0  0  0  0  0  0  0  0  0  0  0  0
  -28.9230  -15.5590   21.4760 H   0  0  0  0  0  0  0  0  0  0  0  0
  -25.1100  -14.0930   20.5110 C   0  0  0  0  0  0  0  0  0  0  0  0
  -24.0740  -13.2770   20.8810 C   0  0  0  0  0  0  0  0  0  0  0  0
  -24.5900  -11.9450   20.8470 C   0  0  0  0  0  0  0  0  0  0  0  0
  -26.1880  -13.2530   20.2780 N   0  0  0  0  0  0  0  0  0  0  0  0
  -25.8800  -11.9580   20.5370 N   0  0  0  0  0  0  0  0  0  0  0  0
  -23.9160  -10.6540   21.0350 C   0  0  0  0  0  0  0  0  0  0  0  0
  -24.3820   -9.7070   21.9730 C   0  0  0  0  0  3  0  0  0  0  0  0
  -23.7060   -8.4800   22.1470 C   0  0  0  0  0  3  0  0  0  0  0  0
  -22.5480   -8.1930   21.3840 C   0  0  0  0  0  0  0  0  0  0  0  0
  -22.1040   -9.1290   20.4340 C   0  0  0  0  0  3  0  0  0  0  0  0
  -22.7810  -10.3470   20.2580 C   0  0  0  0  0  3  0  0  0  0  0  0
  -21.8420   -7.0170   21.4690 O   0  0  0  0  0  0  0  0  0  0  0  0
  -21.8040   -6.2820   22.6270 C   0  0  0  0  0  0  0  0  0  0  0  0
  -21.3280   -6.8270   23.8390 C   0  0  0  0  0  3  0  0  0  0  0  0
  -21.2390   -6.0150   24.9880 C   0  0  0  0  0  3  0  0  0  0  0  0
  -21.6160   -4.6600   24.9250 C   0  0  0  0  0  0  0  0  0  0  0  0
  -22.0840   -4.1150   23.7170 C   0  0  0  0  0  3  0  0  0  0  0  0
  -22.1740   -4.9230   22.5690 C   0  0  0  0  0  0  0  0  0  0  0  0
  -22.6070   -4.3870   21.4020 F   0  0  0  0  0  0  0  0  0  0  0  0
  -21.5250   -3.8780   26.0260 F   0  0  0  0  0  0  0  0  0  0  0  0
  -22.6590  -13.6980   21.1550 C   0  0  0  0  0  0  0  0  0  0  0  0
  -21.9590  -12.9660   22.0160 N   0  0  0  0  0  0  0  0  0  0  0  0
  -22.1810  -14.7070   20.6410 O   0  0  0  0  0  0  0  0  0  0  0  0
  -22.3590  -12.1500   22.4530 H   0  0  0  0  0  0  0  0  0  0  0  0
  -21.0100  -13.2290   22.2420 H   0  0  0  0  0  0  0  0  0  0  0  0
  -25.2200  -15.4690   20.3350 N   0  0  0  0  0  0  0  0  0  0  0  0
  -24.4280  -16.0910   20.4410 H   0  0  0  0  0  0  0  0  0  0  0  0
  -26.0500  -15.9370   19.9930 H   0  0  0  0  0  0  0  0  0  0  0  0
  -28.2980  -24.5910   19.1630 C   0  0  0  0  0  3  0  0  0  0  0  0
  -28.9290  -25.7890   19.9330 C   0  0  0  0  0  3  0  0  0  0  0  0
  -28.6760  -27.1340   19.4560 O   0  0  0  0  0  0  0  0  0  0  0  0
  -24.5680  -31.7100   23.1520 C   0  0  0  0  0  0  0  0  0  0  0  0
  -27.4400  -27.7320   19.6290 C   0  0  0  0  0  0  0  0  0  0  0  0
  -23.4270  -30.3930   21.3940 C   0  0  0  0  0  3  0  0  0  0  0  0
  -24.9520  -29.0830   19.8230 C   0  0  0  0  0  0  0  0  0  0  0  0
  -25.9250  -30.9170   21.2150 C   0  0  0  0  0  2  0  0  0  0  0  0
  -26.0850  -29.6170   20.4490 C   0  0  0  0  0  0  0  0  0  0  0  0
  -27.3300  -28.9480   20.3490 C   0  0  0  0  0  3  0  0  0  0  0  0
  -26.2880  -27.2220   18.9940 C   0  0  0  0  0  3  0  0  0  0  0  0
  -25.0470  -27.8840   19.0960 C   0  0  0  0  0  3  0  0  0  0  0  0
  -23.6610  -29.8590   19.9560 C   0  0  0  0  0  2  0  0  0  0  0  0
  -24.6580  -31.0200   21.9780 N   0  0  0  0  0  0  0  0  0  0  0  0
  -23.4790  -31.8620   23.7230 O   0  0  0  0  0  0  0  0  0  0  0  0
  -22.8550  -29.2470   22.2600 C   0  0  0  0  0  0  0  0  0  0  0  0
  -21.5390  -29.0030   22.1350 N   0  0  0  0  0  0  0  0  0  0  0  0
  -23.5900  -28.5840   22.9960 O   0  0  0  0  0  0  0  0  0  0  0  0
  -21.0060  -29.6000   21.5170 H   0  0  0  0  0  0  0  0  0  0  0  0
  -18.2490  -27.5680   22.5540 C   0  0  0  0  0  0  0  0  0  0  0  0
  -20.7920  -27.9480   22.8180 C   0  0  0  0  0  3  0  0  0  0  0  0
  -20.9660  -26.5890   22.1000 C   0  0  0  0  0  2  0  0  0  0  0  0
  -19.8650  -26.3040   21.0730 C   0  0  0  0  0  2  0  0  0  0  0  0
  -18.4890  -26.3040   21.7460 C   0  0  0  0  0  2  0  0  0  0  0  0
  -19.3290  -28.3490   23.0420 C   0  0  0  0  0  0  0  0  0  0  0  0
  -19.0520  -29.5350   23.7560 C   0  0  0  0  0  3  0  0  0  0  0  0
  -17.7250  -29.9420   23.9850 C   0  0  0  0  0  3  0  0  0  0  0  0
  -16.6580  -29.1560   23.5160 C   0  0  0  0  0  3  0  0  0  0  0  0
  -16.9200  -27.9710   22.8050 C   0  0  0  0  0  3  0  0  0  0  0  0
  -25.8220  -32.3560   23.8190 C   0  0  0  0  0  3  0  0  0  0  0  0
  -25.4550  -33.7230   24.2120 N   0  0  0  0  0  0  0  0  0  0  0  0
  -25.7500  -34.8230   23.5060 C   0  0  0  0  0  0  0  0  0  0  0  0
  -26.4300  -34.7970   22.4770 O   0  0  0  0  0  0  0  0  0  0  0  0
  -24.8520  -33.8170   25.0160 H   0  0  0  0  0  0  0  0  0  0  0  0
  -23.9390  -36.5470   23.2330 C   0  0  0  0  0  1  0  0  0  0  0  0
  -25.2000  -36.1650   24.0230 C   0  0  0  0  0  3  0  0  0  0  0  0
  -27.2950  -37.1120   24.8900 C   0  0  0  0  0  1  0  0  0  0  0  0
  -26.1840  -37.2680   23.9540 N   0  0  0  0  0  0  0  0  0  0  0  0
  -25.7370  -38.1600   24.1430 H   0  0  0  0  0  0  0  0  0  0  0  0
  -26.3580  -31.5430   25.0610 C   0  0  1  0  0  0  0  0  0  0  0  0
  -25.2690  -31.2180   26.1090 C   0  0  0  0  0  1  0  0  0  0  0  0
  -26.9910  -30.2070   24.6070 C   0  0  0  0  0  1  0  0  0  0  0  0
  -27.4750  -32.3460   25.7700 C   0  0  0  0  0  1  0  0  0  0  0  0
  1  2  1  0
  2 10  1  0
  2  7  2  0
  3  7  1  0
  3  9  1  0
  4  3  2  0
  5  1  1  0
  6  1  2  0
  6  4  1  0
  8  9  1  0
 10 11  1  0
 11 12  1  0
 13 21  1  0
 14 19  1  0
 15 16  1  0
 15 14  1  0
 17 16  1  0
 17 26  1  0
 17 18  1  0
 19 13  1  0
 19 18  1  0
 20 13  2  0
 21 22  1  0
 21 12  1  0
 23 24  2  0
 24 43  1  0
 25 24  1  0
 25 28  1  0
 26 23  1  0
 26 27  1  0
 27 25  2  0
 28 29  1  0
 29 30  2  0
 31 34  1  0
 31 30  1  0
 32 31  2  0
 33 32  1  0
 33 28  2  0
 34 35  1  0
 35 36  1  0
 36 37  2  0
 38 37  1  0
 38 42  1  0
 39 38  2  0
 40 35  2  0
 40 39  1  0
 41 40  1  0
 43 44  1  0
 44 47  1  0
 44 46  1  0
 45 43  2  0
 48 49  1  0
 48 23  1  0
 50 48  1  0
 51  4  1  0
 51 52  2  0
 53 55  1  0
 53 52  1  0
 54 65  2  0
 55 60  1  0
 56 64  1  0
 56 66  1  0
 57 63  1  0
 57 59  1  0
 58 64  1  0
 59 58  1  0
 60 59  2  0
 61 62  1  0
 61 55  2  0
 62 57  2  0
 63 56  1  0
 64 54  1  0
 66 68  2  0
 67 66  1  0
 69 67  1  0
 70 79  2  0
 70 75  1  0
 71 67  1  0
 71 75  1  0
 72 71  1  0
 73 74  1  0
 73 72  1  0
 74 70  1  0
 75 76  2  0
 76 77  1  0
 78 77  2  0
 79 78  1  0
 80 54  1  0
 80 81  1  0
 80 90  1  0
 81 84  1  0
 82 86  1  0
 82 81  1  0
 83 82  2  0
 86 85  1  0
 88 86  1  0
 88 89  1  0
 88 87  1  0
 90 93  1  1
 90 91  1  0
 92 90  1  0
M  ISO  4  13 100  21 100  52 101  53 101
M  END
>  <TORSDO>  (71) 
F 22

>  <SCORE>  (71) 
-12.599

>  <name>  (71) 
70

>  <ligand_id>  (71) 
70

>  <original_smiles>  (71) 
[H]c1c([H])c([H])c2c(c1[H])C([H])([H])C([H])([H])C([H])([H])C2([H])N([H])C(=O)C1([H])N(C(=O)C([H])(N([H])C(=O)C([H])(N([H])C([H])([H])[H])C([H])([H])[H])C(C([H])([H])[H])(C([H])([H])[H])C([H])([H])[H])C([H])([H])c2c([H])c(OC([H])([H])C([H])([H])c3nc(C([H])([H])[H])c(C([H])([H])C([H])([H])C([H])([H])N([H])C(=O)N4C([H])([H])C([H])([H])C([H])([H])C([H])(n5nc(-c6c([H])c([H])c(Oc7c([H])c([H])c(F)c([H])c7F)c([H])c6[H])c(C(=O)N([H])[H])c5N([H])[H])C4([H])[H])nc3C([H])([H])C([H])([H])[H])c([H])c([H])c2C1([H])[H]

>  <smiles>  (71) 
[H]c1c([H])c([H])c2c(c1[H])C([H])([H])C([H])([H])C([H])([H])C2([H])N([H])C(=O)C1([H])N(C(=O)C([H])(N([H])C(=O)C([H])(N([H])C([H])([H])[H])C([H])([H])[H])C(C([H])([H])[H])(C([H])([H])[H])C([H])([H])[H])C([H])([H])c2c([H])c(OC([H])([H])C([H])([H])c3nc(C([H])([H])[H])c(C([H])([H])C([H])([H])C([H])([H])N([H])C(=O)N4C([H])([H])C([H])([H])C([H])([H])C([H])(n5nc(-c6c([H])c([H])c(Oc7c([H])c([H])c(F)c([H])c7F)c([H])c6[H])c(C(=O)N([H])[H])c5N([H])[H])C4([H])[H])nc3C([H])([H])C([H])([H])[H])c([H])c([H])c2C1([H])[H]

$$$$
71:0:0
     RDKit          3D

 97106  0  0  1  0  0  0  0  0999 V2000
  -28.7620  -21.7470   19.1790 C   0  0  0  0  0  3  0  0  0  0  0  0
  -29.2140  -20.4570   19.6520 C   0  0  0  0  0  0  0  0  0  0  0  0
  -29.3130  -22.7030   20.0200 C   0  0  0  0  0  0  0  0  0  0  0  0
  -30.0190  -20.6210   20.6780 N   0  0  0  0  0  0  0  0  0  0  0  0
  -30.0710  -21.9570   20.9240 N   0  0  0  0  0  0  0  0  0  0  0  0
  -33.8160  -20.9850   23.7990 C   0  0  0  0  0  2  0  0  0  0  0  0
  -32.6390  -20.8710   24.7890 C   0  0  0  0  0  2  0  0  0  0  0  0
  -33.5150  -20.4970   22.3690 C   0  0  0  0  0  2  0  0  0  0  0  0
  -31.4480  -21.8220   24.5540 C   0  0  0  0  0  2  0  0  0  0  0  0
  -33.2670  -21.6100   21.3310 C   0  0  0  0  0  2  0  0  0  0  0  0
  -30.6080  -21.4910   23.3040 C   0  0  0  0  0  2  0  0  0  0  0  0
  -32.3110  -22.7500   21.7400 C   0  0  0  0  0  2  0  0  0  0  0  0
  -30.8380  -22.4180   22.0850 C   0  0  0  0  0  3  0  0  0  0  0  0
  -28.7860  -19.0150   19.2900 C   0  0  0  0  0  2  0  0  0  0  0  0
  -29.8630  -17.9260   18.9170 C   0  0  0  0  0  2  0  0  0  0  0  0
  -30.2480  -16.7770   19.9260 C   0  0  0  0  0  2  0  0  0  0  0  0
  -30.5150  -14.2980   19.2110 C   0  0  0  0  0  0  0  0  0  0  0  0
  -30.0450  -12.1120   18.1420 C   0  0  0  0  0  2  0  0  0  0  0  0
  -28.9140  -12.3080   17.1090 C   0  0  0  0  0  2  0  0  0  0  0  0
  -27.5270  -12.1950   17.7770 C   0  0  0  0  0  2  0  0  0  0  0  0
  -27.4150  -13.0350   19.0770 C   0  0  0  0  0  3  0  0  0  0  0  0
  -28.6380  -12.8080   19.9910 C   0  0  0  0  0  2  0  0  0  0  0  0
  -29.8390  -13.1120   19.2020 N   0  0  0  0  0  0  0  0  0  0  0  0
  -31.6280  -14.4260   18.6960 O   0  0  0  0  0  0  0  0  0  0  0  0
  -29.8030  -15.3760   19.6480 N   0  0  0  0  0  0  0  0  0  0  0  0
  -28.8680  -15.1530   19.9550 H   0  0  0  0  0  0  0  0  0  0  0  0
  -25.1800  -13.6930   20.1620 C   0  0  0  0  0  0  0  0  0  0  0  0
  -24.1700  -12.9450   20.7040 C   0  0  0  0  0  0  0  0  0  0  0  0
  -24.5960  -11.5840   20.6160 C   0  0  0  0  0  0  0  0  0  0  0  0
  -26.1570  -12.7890   19.7740 N   0  0  0  0  0  0  0  0  0  0  0  0
  -25.8200  -11.5160   20.1080 N   0  0  0  0  0  0  0  0  0  0  0  0
  -23.8850  -10.3390   20.9320 C   0  0  0  0  0  0  0  0  0  0  0  0
  -24.4110   -9.4000   21.8460 C   0  0  0  0  0  3  0  0  0  0  0  0
  -23.6990   -8.2190   22.1470 C   0  0  0  0  0  3  0  0  0  0  0  0
  -22.4490   -7.9670   21.5350 C   0  0  0  0  0  0  0  0  0  0  0  0
  -21.9410   -8.8940   20.6080 C   0  0  0  0  0  3  0  0  0  0  0  0
  -22.6530  -10.0670   20.3060 C   0  0  0  0  0  3  0  0  0  0  0  0
  -21.7000   -6.8350   21.7460 O   0  0  0  0  0  0  0  0  0  0  0  0
  -21.7210   -6.1730   22.9470 C   0  0  0  0  0  0  0  0  0  0  0  0
  -21.3710   -6.8120   24.1570 C   0  0  0  0  0  3  0  0  0  0  0  0
  -21.3400   -6.0760   25.3580 C   0  0  0  0  0  3  0  0  0  0  0  0
  -21.6480   -4.7030   25.3520 C   0  0  0  0  0  0  0  0  0  0  0  0
  -21.9910   -4.0630   24.1470 C   0  0  0  0  0  3  0  0  0  0  0  0
  -22.0240   -4.7970   22.9490 C   0  0  0  0  0  0  0  0  0  0  0  0
  -22.3350   -4.1710   21.7880 F   0  0  0  0  0  0  0  0  0  0  0  0
  -21.6080   -3.9930   26.5040 F   0  0  0  0  0  0  0  0  0  0  0  0
  -22.8420  -13.4530   21.1860 C   0  0  0  0  0  0  0  0  0  0  0  0
  -22.2550  -12.7900   22.1760 N   0  0  0  0  0  0  0  0  0  0  0  0
  -22.3380  -14.4710   20.7170 O   0  0  0  0  0  0  0  0  0  0  0  0
  -22.6780  -11.9640   22.5730 H   0  0  0  0  0  0  0  0  0  0  0  0
  -21.3720  -13.1110   22.5420 H   0  0  0  0  0  0  0  0  0  0  0  0
  -25.3390  -15.0590   19.9460 N   0  0  0  0  0  0  0  0  0  0  0  0
  -24.6100  -15.7260   20.1700 H   0  0  0  0  0  0  0  0  0  0  0  0
  -26.1210  -15.4800   19.4610 H   0  0  0  0  0  0  0  0  0  0  0  0
  -29.2370  -24.2480   20.1580 C   0  0  0  0  0  3  0  0  0  0  0  0
  -28.7320  -25.1810   19.0000 C   0  0  0  0  0  3  0  0  0  0  0  0
  -28.6590  -26.6170   19.3180 O   0  0  0  0  0  0  0  0  0  0  0  0
  -24.7850  -31.3820   23.0480 C   0  0  0  0  0  0  0  0  0  0  0  0
  -27.4570  -27.3220   19.4190 C   0  0  0  0  0  0  0  0  0  0  0  0
  -23.5690  -30.1080   21.3170 C   0  0  0  0  0  3  0  0  0  0  0  0
  -25.0190  -28.7790   19.6840 C   0  0  0  0  0  0  0  0  0  0  0  0
  -26.0790  -30.5680   21.0690 C   0  0  0  0  0  2  0  0  0  0  0  0
  -26.1880  -29.2710   20.2780 C   0  0  0  0  0  0  0  0  0  0  0  0
  -27.4060  -28.5520   20.1370 C   0  0  0  0  0  3  0  0  0  0  0  0
  -26.2610  -26.8610   18.8280 C   0  0  0  0  0  3  0  0  0  0  0  0
  -25.0550  -27.5800   18.9540 C   0  0  0  0  0  3  0  0  0  0  0  0
  -23.7490  -29.5830   19.8680 C   0  0  0  0  0  2  0  0  0  0  0  0
  -24.8330  -30.6960   21.8700 N   0  0  0  0  0  0  0  0  0  0  0  0
  -23.7150  -31.5560   23.6500 O   0  0  0  0  0  0  0  0  0  0  0  0
  -22.9920  -28.9680   22.1890 C   0  0  0  0  0  0  0  0  0  0  0  0
  -21.6730  -28.7360   22.0800 N   0  0  0  0  0  0  0  0  0  0  0  0
  -23.7260  -28.3000   22.9210 O   0  0  0  0  0  0  0  0  0  0  0  0
  -21.1350  -29.3320   21.4670 H   0  0  0  0  0  0  0  0  0  0  0  0
  -18.3870  -27.2840   22.4920 C   0  0  0  0  0  0  0  0  0  0  0  0
  -20.9260  -27.6850   22.7740 C   0  0  0  0  0  3  0  0  0  0  0  0
  -21.1150  -26.3160   22.0810 C   0  0  0  0  0  2  0  0  0  0  0  0
  -20.0270  -26.0080   21.0480 C   0  0  0  0  0  2  0  0  0  0  0  0
  -18.6440  -26.0090   21.7070 C   0  0  0  0  0  2  0  0  0  0  0  0
  -19.4590  -28.0790   22.9790 C   0  0  0  0  0  0  0  0  0  0  0  0
  -19.1660  -29.2710   23.6750 C   0  0  0  0  0  3  0  0  0  0  0  0
  -17.8340  -29.6750   23.8860 C   0  0  0  0  0  3  0  0  0  0  0  0
  -16.7770  -28.8760   23.4180 C   0  0  0  0  0  3  0  0  0  0  0  0
  -17.0530  -27.6820   22.7290 C   0  0  0  0  0  3  0  0  0  0  0  0
  -26.0680  -32.0020   23.6840 C   0  0  0  0  0  3  0  0  0  0  0  0
  -25.7520  -33.3880   24.0590 N   0  0  0  0  0  0  0  0  0  0  0  0
  -26.1140  -34.4690   23.3550 C   0  0  0  0  0  0  0  0  0  0  0  0
  -26.8150  -34.4020   22.3420 O   0  0  0  0  0  0  0  0  0  0  0  0
  -25.1290  -33.5130   24.8440 H   0  0  0  0  0  0  0  0  0  0  0  0
  -24.4150  -36.2910   23.0040 C   0  0  0  0  0  1  0  0  0  0  0  0
  -25.6140  -35.8380   23.8520 C   0  0  0  0  0  3  0  0  0  0  0  0
  -27.7130  -36.6630   24.8240 C   0  0  0  0  0  1  0  0  0  0  0  0
  -26.6590  -36.8870   23.8390 N   0  0  0  0  0  0  0  0  0  0  0  0
  -26.2520  -37.8020   24.0130 H   0  0  0  0  0  0  0  0  0  0  0  0
  -26.5950  -31.1960   24.9350 C   0  0  1  0  0  0  0  0  0  0  0  0
  -25.5090  -30.9280   26.0040 C   0  0  0  0  0  1  0  0  0  0  0  0
  -27.1720  -29.8290   24.4990 C   0  0  0  0  0  1  0  0  0  0  0  0
  -27.7540  -31.9680   25.6080 C   0  0  0  0  0  1  0  0  0  0  0  0
  1  2  1  0
  1  3  2  0
  2  4  2  0
  3 55  1  0
  3  5  1  0
  4  5  1  0
  5 13  1  0
  6  7  1  0
  8  6  1  0
  9  7  1  0
 10 12  1  0
 10  8  1  0
 11  9  1  0
 12 13  1  0
 13 11  1  0
 14  2  1  0
 15 14  1  0
 15 16  1  0
 17 25  1  0
 18 23  1  0
 19 20  1  0
 19 18  1  0
 21 20  1  0
 21 30  1  0
 21 22  1  0
 23 17  1  0
 23 22  1  0
 24 17  2  0
 25 16  1  0
 25 26  1  0
 27 28  2  0
 28 47  1  0
 29 28  1  0
 29 32  1  0
 30 31  1  0
 30 27  1  0
 31 29  2  0
 32 33  1  0
 33 34  2  0
 35 38  1  0
 35 34  1  0
 36 35  2  0
 37 36  1  0
 37 32  2  0
 38 39  1  0
 39 44  2  0
 39 40  1  0
 40 41  2  0
 42 41  1  0
 42 46  1  0
 43 42  2  0
 44 43  1  0
 45 44  1  0
 47 48  1  0
 48 51  1  0
 48 50  1  0
 49 47  2  0
 52 27  1  0
 52 53  1  0
 54 52  1  0
 56 57  1  0
 56 55  2  0
 57 59  1  0
 58 69  2  0
 59 64  1  0
 60 68  1  0
 60 70  1  0
 61 67  1  0
 61 63  1  0
 62 68  1  0
 63 62  1  0
 64 63  2  0
 65 66  1  0
 65 59  2  0
 66 61  2  0
 67 60  1  0
 68 58  1  0
 70 72  2  0
 71 70  1  0
 73 71  1  0
 74 83  2  0
 74 79  1  0
 75 71  1  0
 75 79  1  0
 76 75  1  0
 77 78  1  0
 77 76  1  0
 78 74  1  0
 79 80  2  0
 80 81  1  0
 82 81  2  0
 83 82  1  0
 84 58  1  0
 84 85  1  0
 84 94  1  0
 85 88  1  0
 86 90  1  0
 86 85  1  0
 87 86  2  0
 90 89  1  0
 92 90  1  0
 92 93  1  0
 92 91  1  0
 94 97  1  1
 94 95  1  0
 96 94  1  0
M  ISO  4  17 100  25 100  56 101  57 101
M  END
>  <TORSDO>  (72) 
F 22

>  <SCORE>  (72) 
-7.826

>  <name>  (72) 
71

>  <ligand_id>  (72) 
71

>  <original_smiles>  (72) 
[H]c1c([H])c([H])c2c(c1[H])C([H])([H])C([H])([H])C([H])([H])C2([H])N([H])C(=O)C1([H])N(C(=O)C([H])(N([H])C(=O)C([H])(N([H])C([H])([H])[H])C([H])([H])[H])C(C([H])([H])[H])(C([H])([H])[H])C([H])([H])[H])C([H])([H])c2c([H])c(OC([H])([H])C([H])([H])c3c([H])c(C([H])([H])C([H])([H])C([H])([H])N([H])C(=O)N4C([H])([H])C([H])([H])C([H])([H])C([H])(n5nc(-c6c([H])c([H])c(Oc7c([H])c([H])c(F)c([H])c7F)c([H])c6[H])c(C(=O)N([H])[H])c5N([H])[H])C4([H])[H])nn3C3([H])C([H])([H])C([H])([H])C([H])([H])C([H])([H])C([H])([H])C([H])([H])C3([H])[H])c([H])c([H])c2C1([H])[H]

>  <smiles>  (72) 
[H]c1c([H])c([H])c2c(c1[H])C([H])([H])C([H])([H])C([H])([H])C2([H])N([H])C(=O)C1([H])N(C(=O)C([H])(N([H])C(=O)C([H])(N([H])C([H])([H])[H])C([H])([H])[H])C(C([H])([H])[H])(C([H])([H])[H])C([H])([H])[H])C([H])([H])c2c([H])c(OC([H])([H])C([H])([H])c3c([H])c(C([H])([H])C([H])([H])C([H])([H])N([H])C(=O)N4C([H])([H])C([H])([H])C([H])([H])C([H])(n5nc(-c6c([H])c([H])c(Oc7c([H])c([H])c(F)c([H])c7F)c([H])c6[H])c(C(=O)N([H])[H])c5N([H])[H])C4([H])[H])nn3C3([H])C([H])([H])C([H])([H])C([H])([H])C([H])([H])C([H])([H])C([H])([H])C3([H])[H])c([H])c([H])c2C1([H])[H]

$$$$
72:0:0
     RDKit          3D

 90 98  0  0  1  0  0  0  0  0999 V2000
  -29.2740  -20.7040   21.3320 C   0  0  0  0  0  3  0  0  0  0  0  0
  -28.9150  -22.1410   21.2980 C   0  0  0  0  0  0  0  0  0  0  0  0
  -29.5040  -19.8230   20.2010 C   0  0  0  0  0  0  0  0  0  0  0  0
  -28.7160  -22.9220   20.0930 C   0  0  0  0  0  0  0  0  0  0  0  0
  -29.3460  -20.6990   19.0430 C   0  0  0  0  0  0  0  0  0  0  0  0
  -28.7440  -22.8570   22.6240 C   0  0  0  0  0  1  0  0  0  0  0  0
  -29.7070  -20.1520   17.6730 C   0  0  0  0  0  1  0  0  0  0  0  0
  -28.9460  -22.0690   19.0070 N   0  0  0  0  0  0  0  0  0  0  0  0
  -30.1840  -18.2150   20.3190 C   0  0  0  0  0  2  0  0  0  0  0  0
  -30.4530  -15.3720   20.1720 C   0  0  0  0  0  0  0  0  0  0  0  0
  -30.4050  -12.9270   19.3560 C   0  0  0  0  0  2  0  0  0  0  0  0
  -29.4690  -12.6780   18.1520 C   0  0  0  0  0  2  0  0  0  0  0  0
  -28.0280  -12.4170   18.6300 C   0  0  0  0  0  2  0  0  0  0  0  0
  -27.5730  -13.4020   19.7360 C   0  0  0  0  0  3  0  0  0  0  0  0
  -28.6450  -13.6040   20.8260 C   0  0  0  0  0  2  0  0  0  0  0  0
  -29.8590  -14.0820   20.1420 N   0  0  0  0  0  0  0  0  0  0  0  0
  -31.6900  -15.3360   20.1190 O   0  0  0  0  0  0  0  0  0  0  0  0
  -29.7230  -16.6610   20.0080 N   0  0  0  0  0  0  0  0  0  0  0  0
  -25.2180  -13.9440   20.5620 C   0  0  0  0  0  0  0  0  0  0  0  0
  -24.1600  -13.1630   20.9210 C   0  0  0  0  0  0  0  0  0  0  0  0
  -24.6340  -11.8170   20.8630 C   0  0  0  0  0  0  0  0  0  0  0  0
  -26.2610  -13.0780   20.2800 N   0  0  0  0  0  0  0  0  0  0  0  0
  -25.9220  -11.7900   20.5350 N   0  0  0  0  0  0  0  0  0  0  0  0
  -23.9150  -10.5530   21.0410 C   0  0  0  0  0  0  0  0  0  0  0  0
  -24.3390   -9.5920   21.9820 C   0  0  0  0  0  3  0  0  0  0  0  0
  -23.6150   -8.3930   22.1530 C   0  0  0  0  0  3  0  0  0  0  0  0
  -22.4510   -8.1530   21.3830 C   0  0  0  0  0  0  0  0  0  0  0  0
  -22.0460   -9.1070   20.4340 C   0  0  0  0  0  3  0  0  0  0  0  0
  -22.7710  -10.2960   20.2620 C   0  0  0  0  0  3  0  0  0  0  0  0
  -21.6980   -7.0070   21.4640 O   0  0  0  0  0  0  0  0  0  0  0  0
  -21.6140   -6.2810   22.6240 C   0  0  0  0  0  0  0  0  0  0  0  0
  -21.0860   -6.8330   23.8120 C   0  0  0  0  0  3  0  0  0  0  0  0
  -20.9530   -6.0300   24.9630 C   0  0  0  0  0  3  0  0  0  0  0  0
  -21.3360   -4.6770   24.9250 C   0  0  0  0  0  0  0  0  0  0  0  0
  -21.8540   -4.1240   23.7410 C   0  0  0  0  0  3  0  0  0  0  0  0
  -21.9890   -4.9230   22.5930 C   0  0  0  0  0  0  0  0  0  0  0  0
  -22.4690   -4.3810   21.4480 F   0  0  0  0  0  0  0  0  0  0  0  0
  -21.2030   -3.9020   26.0280 F   0  0  0  0  0  0  0  0  0  0  0  0
  -22.7650  -13.6360   21.2000 C   0  0  0  0  0  0  0  0  0  0  0  0
  -22.0400  -12.9340   22.0600 N   0  0  0  0  0  0  0  0  0  0  0  0
  -22.3240  -14.6630   20.6860 O   0  0  0  0  0  0  0  0  0  0  0  0
  -22.4140  -12.1080   22.5040 H   0  0  0  0  0  0  0  0  0  0  0  0
  -21.1030  -13.2320   22.2860 H   0  0  0  0  0  0  0  0  0  0  0  0
  -25.3640  -15.3140   20.4300 N   0  0  0  0  0  0  0  0  0  0  0  0
  -24.5940  -15.9610   20.5560 H   0  0  0  0  0  0  0  0  0  0  0  0
  -26.2110  -15.7570   20.1040 H   0  0  0  0  0  0  0  0  0  0  0  0
  -27.5710  -17.3450   18.8250 C   0  0  0  0  0  1  0  0  0  0  0  0
  -28.9780  -16.7290   18.7340 C   0  0  0  0  0  2  0  0  0  0  0  0
  -27.9120  -24.4600   19.9250 C   0  0  0  0  0  2  0  0  0  0  0  0
  -28.2380  -26.0240   20.2390 O   0  0  0  0  0  0  0  0  0  0  0  0
  -24.6400  -31.9000   23.3050 C   0  0  0  0  0  0  0  0  0  0  0  0
  -27.2230  -27.1090   20.1950 C   0  0  0  0  0  0  0  0  0  0  0  0
  -23.4540  -30.5330   21.6420 C   0  0  0  0  0  3  0  0  0  0  0  0
  -24.9060  -28.9580   20.1950 C   0  0  0  0  0  0  0  0  0  0  0  0
  -26.0190  -30.7540   21.5030 C   0  0  0  0  0  2  0  0  0  0  0  0
  -26.0940  -29.3610   20.8190 C   0  0  0  0  0  0  0  0  0  0  0  0
  -27.2480  -28.4590   20.7950 C   0  0  0  0  0  3  0  0  0  0  0  0
  -25.9990  -26.8500   19.5330 C   0  0  0  0  0  3  0  0  0  0  0  0
  -24.8800  -27.7200   19.5350 C   0  0  0  0  0  3  0  0  0  0  0  0
  -23.6830  -29.8730   20.2570 C   0  0  0  0  0  2  0  0  0  0  0  0
  -24.7280  -31.0870   22.2040 N   0  0  0  0  0  0  0  0  0  0  0  0
  -23.5480  -32.1850   23.8240 O   0  0  0  0  0  0  0  0  0  0  0  0
  -22.7540  -29.5220   22.5870 C   0  0  0  0  0  0  0  0  0  0  0  0
  -21.4280  -29.3440   22.4320 N   0  0  0  0  0  0  0  0  0  0  0  0
  -23.4110  -28.8970   23.4220 O   0  0  0  0  0  0  0  0  0  0  0  0
  -20.9510  -29.9010   21.7360 H   0  0  0  0  0  0  0  0  0  0  0  0
  -18.0480  -28.0960   22.8690 C   0  0  0  0  0  0  0  0  0  0  0  0
  -20.6000  -28.3910   23.1800 C   0  0  0  0  0  3  0  0  0  0  0  0
  -20.7280  -26.9640   22.6000 C   0  0  0  0  0  2  0  0  0  0  0  0
  -19.6490  -26.6350   21.5630 C   0  0  0  0  0  2  0  0  0  0  0  0
  -18.2540  -26.7560   22.1830 C   0  0  0  0  0  2  0  0  0  0  0  0
  -19.1490  -28.8710   23.3220 C   0  0  0  0  0  0  0  0  0  0  0  0
  -18.9010  -30.1220   23.9260 C   0  0  0  0  0  3  0  0  0  0  0  0
  -17.5860  -30.6010   24.0770 C   0  0  0  0  0  3  0  0  0  0  0  0
  -16.5000  -29.8250   23.6360 C   0  0  0  0  0  3  0  0  0  0  0  0
  -16.7320  -28.5740   23.0390 C   0  0  0  0  0  3  0  0  0  0  0  0
  -25.9090  -32.5280   23.9560 C   0  0  0  0  0  3  0  0  0  0  0  0
  -26.3850  -31.7630   25.2530 C   0  0  1  0  0  0  0  0  0  0  0  0
  -25.2620  -31.5510   26.2960 C   0  0  0  0  0  1  0  0  0  0  0  0
  -26.9610  -30.3740   24.8950 C   0  0  0  0  0  1  0  0  0  0  0  0
  -27.5290  -32.5520   25.9330 C   0  0  0  0  0  1  0  0  0  0  0  0
  -25.6040  -33.9350   24.2790 N   0  0  0  0  0  0  0  0  0  0  0  0
  -25.9300  -34.9850   23.5160 C   0  0  0  0  0  0  0  0  0  0  0  0
  -26.5850  -34.8740   22.4740 O   0  0  0  0  0  0  0  0  0  0  0  0
  -25.0140  -34.0950   25.0820 H   0  0  0  0  0  0  0  0  0  0  0  0
  -24.2000  -36.7870   23.2040 C   0  0  0  0  0  1  0  0  0  0  0  0
  -25.4650  -36.3810   23.9790 C   0  0  0  0  0  3  0  0  0  0  0  0
  -27.6200  -37.2760   24.7450 C   0  0  0  0  0  1  0  0  0  0  0  0
  -26.4970  -37.4300   23.8230 N   0  0  0  0  0  0  0  0  0  0  0  0
  -26.0980  -38.3550   23.9590 H   0  0  0  0  0  0  0  0  0  0  0  0
  2  1  1  0
  2  6  1  0
  3  9  1  0
  3  1  2  0
  4  2  2  0
  5  3  1  0
  7  5  1  0
  8  5  2  0
  8  4  1  0
 11 16  1  0
 12 13  1  0
 12 11  1  0
 14 13  1  0
 14 22  1  0
 14 15  1  0
 16 10  1  0
 16 15  1  0
 17 10  2  0
 18 10  1  0
 18  9  1  0
 19 20  2  0
 20 39  1  0
 21 20  1  0
 21 24  1  0
 22 23  1  0
 22 19  1  0
 23 21  2  0
 24 25  1  0
 25 26  2  0
 27 30  1  0
 27 26  1  0
 28 27  2  0
 29 28  1  0
 29 24  2  0
 30 31  1  0
 31 32  1  0
 32 33  2  0
 34 33  1  0
 34 38  1  0
 35 34  2  0
 36 31  2  0
 36 35  1  0
 37 36  1  0
 39 40  1  0
 40 43  1  0
 40 42  1  0
 41 39  2  0
 44 45  1  0
 44 19  1  0
 46 44  1  0
 48 47  1  0
 48 18  1  0
 49  4  1  0
 49 50  1  0
 51 62  2  0
 52 50  1  0
 52 57  1  0
 53 61  1  0
 53 63  1  0
 54 60  1  0
 54 56  1  0
 55 61  1  0
 56 55  1  0
 57 56  2  0
 58 59  1  0
 58 52  2  0
 59 54  2  0
 60 53  1  0
 61 51  1  0
 63 65  2  0
 64 63  1  0
 66 64  1  0
 67 76  2  0
 67 72  1  0
 68 64  1  0
 68 72  1  0
 69 68  1  0
 70 71  1  0
 70 69  1  0
 71 67  1  0
 72 73  2  0
 73 74  1  0
 75 74  2  0
 76 75  1  0
 77 51  1  0
 77 82  1  0
 77 78  1  0
 78 81  1  1
 78 79  1  0
 80 78  1  0
 82 85  1  0
 83 87  1  0
 83 82  1  0
 84 83  2  0
 87 86  1  0
 89 90  1  0
 89 87  1  0
 89 88  1  0
M  ISO  4  10 100  18 100  49 101  50 101
M  END
>  <TORSDO>  (73) 
F 19

>  <SCORE>  (73) 
-15.349

>  <name>  (73) 
72

>  <ligand_id>  (73) 
72

>  <original_smiles>  (73) 
[H]c1c([H])c([H])c2c(c1[H])C([H])([H])C([H])([H])C([H])([H])C2([H])N([H])C(=O)C1([H])N(C(=O)C([H])(N([H])C(=O)C([H])(N([H])C([H])([H])[H])C([H])([H])[H])C(C([H])([H])[H])(C([H])([H])[H])C([H])([H])[H])C([H])([H])c2c([H])c(OC([H])([H])c3nc(C([H])([H])[H])c(C([H])([H])N(C(=O)N4C([H])([H])C([H])([H])C([H])([H])C([H])(n5nc(-c6c([H])c([H])c(Oc7c([H])c([H])c(F)c([H])c7F)c([H])c6[H])c(C(=O)N([H])[H])c5N([H])[H])C4([H])[H])C([H])([H])C([H])([H])[H])c([H])c3C([H])([H])[H])c([H])c([H])c2C1([H])[H]

>  <smiles>  (73) 
[H]c1c([H])c([H])c2c(c1[H])C([H])([H])C([H])([H])C([H])([H])C2([H])N([H])C(=O)C1([H])N(C(=O)C([H])(N([H])C(=O)C([H])(N([H])C([H])([H])[H])C([H])([H])[H])C(C([H])([H])[H])(C([H])([H])[H])C([H])([H])[H])C([H])([H])c2c([H])c(OC([H])([H])c3nc(C([H])([H])[H])c(C([H])([H])N(C(=O)N4C([H])([H])C([H])([H])C([H])([H])C([H])(n5nc(-c6c([H])c([H])c(Oc7c([H])c([H])c(F)c([H])c7F)c([H])c6[H])c(C(=O)N([H])[H])c5N([H])[H])C4([H])[H])C([H])([H])C([H])([H])[H])c([H])c3C([H])([H])[H])c([H])c([H])c2C1([H])[H]

$$$$
73:0:0
     RDKit          3D

 91 99  0  0  1  0  0  0  0  0999 V2000
  -28.3930  -21.3390   21.9780 C   0  0  0  0  0  2  0  0  0  0  0  0
  -29.7050  -22.5920   20.7850 C   0  0  0  0  0  0  0  0  0  0  0  0
  -29.9550  -21.2130   20.4380 C   0  0  0  0  0  0  0  0  0  0  0  0
  -28.8010  -22.5860   21.8500 N   0  0  0  0  0  2  0  0  0  0  0  0
  -28.9410  -20.4990   21.1020 N   0  0  0  0  0  0  0  0  0  0  0  0
  -27.4060  -19.0090   19.8510 C   0  0  0  0  0  1  0  0  0  0  0  0
  -28.5060  -19.1190   20.9140 C   0  0  0  0  0  2  0  0  0  0  0  0
  -30.1680  -24.0650   20.4240 C   0  0  0  0  0  3  0  0  0  0  0  0
  -29.0190  -25.1980   20.1790 C   0  0  0  0  0  3  0  0  0  0  0  0
  -29.2190  -26.6990   20.2440 O   0  0  0  0  0  0  0  0  0  0  0  0
  -24.9640  -31.7850   23.2790 C   0  0  0  0  0  0  0  0  0  0  0  0
  -28.0710  -27.5330   20.1780 C   0  0  0  0  0  0  0  0  0  0  0  0
  -23.9700  -30.4010   21.4970 C   0  0  0  0  0  3  0  0  0  0  0  0
  -25.6140  -29.0330   20.0930 C   0  0  0  0  0  0  0  0  0  0  0  0
  -26.4940  -30.8850   21.5050 C   0  0  0  0  0  2  0  0  0  0  0  0
  -26.7120  -29.5480   20.7930 C   0  0  0  0  0  0  0  0  0  0  0  0
  -27.9440  -28.8130   20.8250 C   0  0  0  0  0  3  0  0  0  0  0  0
  -26.9440  -27.0990   19.4410 C   0  0  0  0  0  3  0  0  0  0  0  0
  -25.7370  -27.8180   19.4070 C   0  0  0  0  0  3  0  0  0  0  0  0
  -24.3210  -29.8260   20.1010 C   0  0  0  0  0  2  0  0  0  0  0  0
  -25.1560  -31.0400   22.1520 N   0  0  0  0  0  0  0  0  0  0  0  0
  -23.8320  -31.9580   23.7540 O   0  0  0  0  0  0  0  0  0  0  0  0
  -23.3190  -29.2890   22.3580 C   0  0  0  0  0  0  0  0  0  0  0  0
  -22.0110  -29.0520   22.1590 N   0  0  0  0  0  0  0  0  0  0  0  0
  -23.9930  -28.6490   23.1680 O   0  0  0  0  0  0  0  0  0  0  0  0
  -21.5220  -29.6290   21.4900 H   0  0  0  0  0  0  0  0  0  0  0  0
  -18.6670  -27.7030   22.4880 C   0  0  0  0  0  0  0  0  0  0  0  0
  -21.2110  -28.0250   22.8300 C   0  0  0  0  0  3  0  0  0  0  0  0
  -21.3710  -26.6510   22.1370 C   0  0  0  0  0  2  0  0  0  0  0  0
  -20.2990  -26.3810   21.0770 C   0  0  0  0  0  2  0  0  0  0  0  0
  -18.9020  -26.4240   21.7030 C   0  0  0  0  0  2  0  0  0  0  0  0
  -19.7500  -28.4630   23.0040 C   0  0  0  0  0  0  0  0  0  0  0  0
  -19.4760  -29.6630   23.6950 C   0  0  0  0  0  3  0  0  0  0  0  0
  -18.1510  -30.1010   23.8790 C   0  0  0  0  0  3  0  0  0  0  0  0
  -17.0820  -29.3370   23.3780 C   0  0  0  0  0  3  0  0  0  0  0  0
  -17.3410  -28.1410   22.6860 C   0  0  0  0  0  3  0  0  0  0  0  0
  -26.1550  -32.4690   24.0170 C   0  0  0  0  0  3  0  0  0  0  0  0
  -25.7530  -33.8490   24.3280 N   0  0  0  0  0  0  0  0  0  0  0  0
  -26.0770  -34.9210   23.5920 C   0  0  0  0  0  0  0  0  0  0  0  0
  -26.8140  -34.8550   22.6040 O   0  0  0  0  0  0  0  0  0  0  0  0
  -25.1030  -33.9710   25.0910 H   0  0  0  0  0  0  0  0  0  0  0  0
  -24.2690  -36.6160   23.1500 C   0  0  0  0  0  1  0  0  0  0  0  0
  -25.4920  -36.2810   24.0200 C   0  0  0  0  0  3  0  0  0  0  0  0
  -27.5400  -37.2810   24.9360 C   0  0  0  0  0  1  0  0  0  0  0  0
  -26.4690  -37.3910   23.9490 N   0  0  0  0  0  0  0  0  0  0  0  0
  -26.0050  -38.2850   24.0820 H   0  0  0  0  0  0  0  0  0  0  0  0
  -26.5890  -31.7090   25.3320 C   0  0  1  0  0  0  0  0  0  0  0  0
  -25.4070  -31.3530   26.2650 C   0  0  0  0  0  1  0  0  0  0  0  0
  -27.3290  -30.3950   24.9890 C   0  0  0  0  0  1  0  0  0  0  0  0
  -27.5850  -32.5800   26.1340 C   0  0  0  0  0  1  0  0  0  0  0  0
  -30.8390  -20.3820   19.4440 C   0  0  0  0  0  2  0  0  0  0  0  0
  -31.8670  -19.1720   19.8330 C   0  0  0  0  0  2  0  0  0  0  0  0
  -31.6920  -17.8980   20.8260 C   0  0  0  0  0  2  0  0  0  0  0  0
  -31.9680  -15.3410   20.1440 C   0  0  0  0  0  0  0  0  0  0  0  0
  -31.6440  -13.1040   19.0660 C   0  0  0  0  0  2  0  0  0  0  0  0
  -30.7070  -13.2380   17.8480 C   0  0  0  0  0  2  0  0  0  0  0  0
  -29.2310  -13.1420   18.2830 C   0  0  0  0  0  2  0  0  0  0  0  0
  -28.9060  -14.0350   19.5100 C   0  0  0  0  0  3  0  0  0  0  0  0
  -29.9590  -13.8720   20.6260 C   0  0  0  0  0  2  0  0  0  0  0  0
  -31.2680  -14.1630   20.0290 N   0  0  0  0  0  0  0  0  0  0  0  0
  -33.1710  -15.3780   19.8750 O   0  0  0  0  0  0  0  0  0  0  0  0
  -31.2490  -16.5050   20.3730 N   0  0  0  0  0  0  0  0  0  0  0  0
  -30.2520  -16.3530   20.4190 H   0  0  0  0  0  0  0  0  0  0  0  0
  -26.5620  -14.7500   20.2640 C   0  0  0  0  0  0  0  0  0  0  0  0
  -25.4510  -14.0310   20.6140 C   0  0  0  0  0  0  0  0  0  0  0  0
  -25.8320  -12.6560   20.5420 C   0  0  0  0  0  0  0  0  0  0  0  0
  -27.5490  -13.8150   19.9990 N   0  0  0  0  0  0  0  0  0  0  0  0
  -27.1180  -12.5490   20.2330 N   0  0  0  0  0  0  0  0  0  0  0  0
  -25.0310  -11.4340   20.6920 C   0  0  0  0  0  0  0  0  0  0  0  0
  -25.3880  -10.4240   21.6120 C   0  0  0  0  0  3  0  0  0  0  0  0
  -24.5890   -9.2690   21.7520 C   0  0  0  0  0  3  0  0  0  0  0  0
  -23.4180   -9.1170   20.9720 C   0  0  0  0  0  0  0  0  0  0  0  0
  -23.0810  -10.1140   20.0410 C   0  0  0  0  0  3  0  0  0  0  0  0
  -23.8790  -11.2610   19.8980 C   0  0  0  0  0  3  0  0  0  0  0  0
  -22.5960   -8.0190   21.0240 O   0  0  0  0  0  0  0  0  0  0  0  0
  -22.3560   -7.3530   22.1990 C   0  0  0  0  0  0  0  0  0  0  0  0
  -21.8290   -8.0070   23.3340 C   0  0  0  0  0  3  0  0  0  0  0  0
  -21.5320   -7.2710   24.4980 C   0  0  0  0  0  3  0  0  0  0  0  0
  -21.7540   -5.8810   24.5280 C   0  0  0  0  0  0  0  0  0  0  0  0
  -22.2750   -5.2260   23.3980 C   0  0  0  0  0  3  0  0  0  0  0  0
  -22.5710   -5.9600   22.2360 C   0  0  0  0  0  0  0  0  0  0  0  0
  -23.0520   -5.3200   21.1420 F   0  0  0  0  0  0  0  0  0  0  0  0
  -21.4620   -5.1710   25.6430 F   0  0  0  0  0  0  0  0  0  0  0  0
  -24.0840  -14.5840   20.8980 C   0  0  0  0  0  0  0  0  0  0  0  0
  -23.3230  -13.9220   21.7630 N   0  0  0  0  0  0  0  0  0  0  0  0
  -23.7010  -15.6350   20.3890 O   0  0  0  0  0  0  0  0  0  0  0  0
  -23.6460  -13.0690   22.1970 H   0  0  0  0  0  0  0  0  0  0  0  0
  -22.4030  -14.2690   21.9890 H   0  0  0  0  0  0  0  0  0  0  0  0
  -26.8090  -16.1130   20.1230 N   0  0  0  0  0  0  0  0  0  0  0  0
  -26.0760  -16.8040   20.2400 H   0  0  0  0  0  0  0  0  0  0  0  0
  -27.6630  -16.5050   19.7490 H   0  0  0  0  0  0  0  0  0  0  0  0
  2  4  1  0
  3  2  2  0
  3  5  1  0
  4  1  1  0
  5  1  1  0
  6  7  1  0
  7  5  1  0
  8  2  1  0
  9 10  1  0
  9  8  2  0
 11 22  2  0
 12 10  1  0
 12 17  1  0
 13 21  1  0
 13 23  1  0
 14 20  1  0
 14 16  1  0
 15 21  1  0
 16 17  2  0
 16 15  1  0
 18 12  2  0
 19 18  1  0
 19 14  2  0
 20 13  1  0
 21 11  1  0
 23 25  2  0
 24 23  1  0
 26 24  1  0
 27 36  2  0
 27 32  1  0
 28 24  1  0
 28 32  1  0
 29 28  1  0
 30 31  1  0
 30 29  1  0
 31 27  1  0
 32 33  2  0
 33 34  1  0
 35 34  2  0
 36 35  1  0
 37 11  1  0
 37 38  1  0
 37 47  1  0
 38 41  1  0
 39 43  1  0
 39 38  1  0
 40 39  2  0
 43 42  1  0
 45 43  1  0
 45 46  1  0
 45 44  1  0
 47 50  1  1
 47 48  1  0
 49 47  1  0
 51 52  1  0
 51  3  1  0
 52 53  1  0
 54 62  1  0
 55 60  1  0
 56 57  1  0
 56 55  1  0
 58 57  1  0
 58 67  1  0
 58 59  1  0
 60 54  1  0
 60 59  1  0
 61 54  2  0
 62 63  1  0
 62 53  1  0
 64 65  2  0
 65 84  1  0
 66 65  1  0
 66 69  1  0
 67 68  1  0
 67 64  1  0
 68 66  2  0
 69 70  1  0
 70 71  2  0
 72 75  1  0
 72 71  1  0
 73 72  2  0
 74 73  1  0
 74 69  2  0
 75 76  1  0
 76 81  2  0
 76 77  1  0
 77 78  2  0
 78 79  1  0
 79 83  1  0
 80 79  2  0
 81 80  1  0
 82 81  1  0
 84 85  1  0
 85 88  1  0
 85 87  1  0
 86 84  2  0
 89 90  1  0
 89 64  1  0
 91 89  1  0
M  ISO  4   9 101  10 101  54 100  62 100
M  END
>  <TORSDO>  (74) 
F 22

>  <SCORE>  (74) 
-9.899

>  <name>  (74) 
73

>  <ligand_id>  (74) 
73

>  <original_smiles>  (74) 
[H]c1c([H])c([H])c2c(c1[H])C([H])([H])C([H])([H])C([H])([H])C2([H])N([H])C(=O)C1([H])N(C(=O)C([H])(N([H])C(=O)C([H])(N([H])C([H])([H])[H])C([H])([H])[H])C(C([H])([H])[H])(C([H])([H])[H])C([H])([H])[H])C([H])([H])c2c([H])c(OC([H])([H])C([H])([H])c3nc([H])n(C([H])([H])C([H])([H])[H])c3C([H])([H])C([H])([H])C([H])([H])N([H])C(=O)N3C([H])([H])C([H])([H])C([H])([H])C([H])(n4nc(-c5c([H])c([H])c(Oc6c([H])c([H])c(F)c([H])c6F)c([H])c5[H])c(C(=O)N([H])[H])c4N([H])[H])C3([H])[H])c([H])c([H])c2C1([H])[H]

>  <smiles>  (74) 
[H]c1c([H])c([H])c2c(c1[H])C([H])([H])C([H])([H])C([H])([H])C2([H])N([H])C(=O)C1([H])N(C(=O)C([H])(N([H])C(=O)C([H])(N([H])C([H])([H])[H])C([H])([H])[H])C(C([H])([H])[H])(C([H])([H])[H])C([H])([H])[H])C([H])([H])c2c([H])c(OC([H])([H])C([H])([H])c3nc([H])n(C([H])([H])C([H])([H])[H])c3C([H])([H])C([H])([H])C([H])([H])N([H])C(=O)N3C([H])([H])C([H])([H])C([H])([H])C([H])(n4nc(-c5c([H])c([H])c(Oc6c([H])c([H])c(F)c([H])c6F)c([H])c5[H])c(C(=O)N([H])[H])c4N([H])[H])C3([H])[H])c([H])c([H])c2C1([H])[H]

$$$$
74:0:0
     RDKit          3D

 98106  0  0  1  0  0  0  0  0999 V2000
  -31.9070  -24.4490   20.5010 C   0  0  0  0  0  0  0  0  0  0  0  0
  -31.2240  -23.9430   19.4190 C   0  0  0  0  0  0  0  0  0  0  0  0
  -29.8780  -25.1890   20.6190 C   0  0  0  0  0  0  0  0  0  0  0  0
  -33.3450  -24.2610   20.8860 C   0  0  0  0  0  1  0  0  0  0  0  0
  -28.8330  -24.2140   18.5560 C   0  0  0  0  0  1  0  0  0  0  0  0
  -31.0420  -25.2270   21.2680 N   0  0  0  0  0  0  0  0  0  0  0  0
  -29.9220  -24.4380   19.5020 N   0  0  0  0  0  0  0  0  0  0  0  0
  -31.6900  -23.0220   18.3350 C   0  0  0  0  0  2  0  0  0  0  0  0
  -31.4310  -21.6380   18.7530 N   0  0  0  0  0  4  0  0  0  0  0  0
  -30.6480  -21.6490   19.3870 H   0  0  0  0  0  0  0  0  0  0  0  0
  -32.2330  -21.2940   19.2560 H   0  0  0  0  0  0  0  0  0  0  0  0
  -31.1290  -20.6960   17.6630 C   0  0  0  0  0  2  0  0  0  0  0  0
  -30.8520  -18.3550   16.9190 C   0  0  0  0  0  1  0  0  0  0  0  0
  -32.3470  -18.8660   18.8950 C   0  0  0  0  0  1  0  0  0  0  0  0
  -31.0220  -19.2380   18.1850 C   0  0  1  0  0  0  0  0  0  0  0  0
  -29.7850  -19.1210   19.1530 C   0  0  0  0  0  2  0  0  0  0  0  0
  -29.7740  -18.0150   20.2330 C   0  0  0  0  0  2  0  0  0  0  0  0
  -29.7470  -16.6240   19.6040 C   0  0  0  0  0  2  0  0  0  0  0  0
  -30.5690  -14.4830   20.3840 C   0  0  0  0  0  0  0  0  0  0  0  0
  -30.2820  -12.3170   19.2900 C   0  0  0  0  0  2  0  0  0  0  0  0
  -29.3410  -12.5510   18.0870 C   0  0  0  0  0  2  0  0  0  0  0  0
  -27.8650  -12.4310   18.5130 C   0  0  0  0  0  2  0  0  0  0  0  0
  -27.5290  -13.2520   19.7840 C   0  0  0  0  0  3  0  0  0  0  0  0
  -28.5910  -13.0270   20.8920 C   0  0  0  0  0  2  0  0  0  0  0  0
  -29.9200  -13.2960   20.3220 N   0  0  0  0  0  0  0  0  0  0  0  0
  -31.7220  -14.6610   19.9860 O   0  0  0  0  0  0  0  0  0  0  0  0
  -29.7340  -15.5180   20.5520 N   0  0  0  0  0  0  0  0  0  0  0  0
  -28.8240  -15.2680   20.9170 H   0  0  0  0  0  0  0  0  0  0  0  0
  -25.1230  -13.8330   20.4830 C   0  0  0  0  0  0  0  0  0  0  0  0
  -24.0700  -13.0470   20.8650 C   0  0  0  0  0  0  0  0  0  0  0  0
  -24.5580  -11.7050   20.8620 C   0  0  0  0  0  0  0  0  0  0  0  0
  -26.1830  -12.9650   20.2670 N   0  0  0  0  0  0  0  0  0  0  0  0
  -25.8460  -11.6820   20.5500 N   0  0  0  0  0  0  0  0  0  0  0  0
  -23.8570  -10.4320   21.0710 C   0  0  0  0  0  0  0  0  0  0  0  0
  -24.3130   -9.4820   22.0100 C   0  0  0  0  0  3  0  0  0  0  0  0
  -23.6090   -8.2740   22.2100 C   0  0  0  0  0  3  0  0  0  0  0  0
  -22.4340   -8.0070   21.4680 C   0  0  0  0  0  0  0  0  0  0  0  0
  -21.9950   -8.9460   20.5180 C   0  0  0  0  0  3  0  0  0  0  0  0
  -22.7000  -10.1430   20.3180 C   0  0  0  0  0  3  0  0  0  0  0  0
  -21.6980   -6.8530   21.5770 O   0  0  0  0  0  0  0  0  0  0  0  0
  -21.6860   -6.1140   22.7330 C   0  0  0  0  0  0  0  0  0  0  0  0
  -21.2770   -6.6660   23.9660 C   0  0  0  0  0  3  0  0  0  0  0  0
  -21.2140   -5.8530   25.1150 C   0  0  0  0  0  3  0  0  0  0  0  0
  -21.5500   -4.4880   25.0340 C   0  0  0  0  0  0  0  0  0  0  0  0
  -21.9500   -3.9350   23.8040 C   0  0  0  0  0  3  0  0  0  0  0  0
  -22.0170   -4.7460   22.6570 C   0  0  0  0  0  0  0  0  0  0  0  0
  -22.3840   -4.2020   21.4710 F   0  0  0  0  0  0  0  0  0  0  0  0
  -21.4790   -3.7050   26.1350 F   0  0  0  0  0  0  0  0  0  0  0  0
  -22.6660  -13.5020   21.1340 C   0  0  0  0  0  0  0  0  0  0  0  0
  -21.9540  -12.8020   22.0110 N   0  0  0  0  0  0  0  0  0  0  0  0
  -22.2080  -14.5110   20.5990 O   0  0  0  0  0  0  0  0  0  0  0  0
  -22.3400  -11.9780   22.4530 H   0  0  0  0  0  0  0  0  0  0  0  0
  -21.0150  -13.0920   22.2390 H   0  0  0  0  0  0  0  0  0  0  0  0
  -25.2630  -15.2020   20.2800 N   0  0  0  0  0  0  0  0  0  0  0  0
  -24.4810  -15.8450   20.3630 H   0  0  0  0  0  0  0  0  0  0  0  0
  -26.1010  -15.6510   19.9320 H   0  0  0  0  0  0  0  0  0  0  0  0
  -28.6420  -25.9380   21.0300 C   0  0  0  0  0  2  0  0  0  0  0  0
  -28.4010  -26.8850   19.9990 O   0  0  0  0  0  0  0  0  0  0  0  0
  -24.5790  -31.9210   23.2490 C   0  0  0  0  0  0  0  0  0  0  0  0
  -27.2160  -27.5560   20.1020 C   0  0  0  0  0  0  0  0  0  0  0  0
  -23.3560  -30.5260   21.6100 C   0  0  0  0  0  3  0  0  0  0  0  0
  -24.8010  -29.0030   20.1640 C   0  0  0  0  0  0  0  0  0  0  0  0
  -25.8710  -30.9100   21.3800 C   0  0  0  0  0  2  0  0  0  0  0  0
  -25.9570  -29.5420   20.7390 C   0  0  0  0  0  0  0  0  0  0  0  0
  -27.1690  -28.8240   20.7110 C   0  0  0  0  0  3  0  0  0  0  0  0
  -26.0490  -27.0120   19.5270 C   0  0  0  0  0  3  0  0  0  0  0  0
  -24.8370  -27.7310   19.5620 C   0  0  0  0  0  3  0  0  0  0  0  0
  -23.5500  -29.8520   20.2260 C   0  0  0  0  0  2  0  0  0  0  0  0
  -24.6200  -31.1340   22.1380 N   0  0  0  0  0  0  0  0  0  0  0  0
  -23.5060  -32.1850   23.8080 O   0  0  0  0  0  0  0  0  0  0  0  0
  -22.7240  -29.4960   22.5720 C   0  0  0  0  0  0  0  0  0  0  0  0
  -21.4040  -29.2900   22.4430 N   0  0  0  0  0  0  0  0  0  0  0  0
  -23.4190  -28.8820   23.3870 O   0  0  0  0  0  0  0  0  0  0  0  0
  -20.9050  -29.8360   21.7540 H   0  0  0  0  0  0  0  0  0  0  0  0
  -18.0560  -28.0210   22.9130 C   0  0  0  0  0  0  0  0  0  0  0  0
  -20.6030  -28.3400   23.2140 C   0  0  0  0  0  3  0  0  0  0  0  0
  -20.7460  -26.9070   22.6510 C   0  0  0  0  0  2  0  0  0  0  0  0
  -19.6630  -26.5500   21.6270 C   0  0  0  0  0  2  0  0  0  0  0  0
  -18.2710  -26.6700   22.2540 C   0  0  0  0  0  2  0  0  0  0  0  0
  -19.1510  -28.8130   23.3500 C   0  0  0  0  0  0  0  0  0  0  0  0
  -18.8980  -30.0770   23.9240 C   0  0  0  0  0  3  0  0  0  0  0  0
  -17.5800  -30.5510   24.0680 C   0  0  0  0  0  3  0  0  0  0  0  0
  -16.4990  -29.7560   23.6490 C   0  0  0  0  0  3  0  0  0  0  0  0
  -16.7370  -28.4940   23.0780 C   0  0  0  0  0  3  0  0  0  0  0  0
  -25.8740  -32.5510   23.8550 C   0  0  0  0  0  3  0  0  0  0  0  0
  -25.5730  -33.9500   24.1830 N   0  0  0  0  0  0  0  0  0  0  0  0
  -25.9090  -34.9990   23.4190 C   0  0  0  0  0  0  0  0  0  0  0  0
  -26.5780  -34.8900   22.3870 O   0  0  0  0  0  0  0  0  0  0  0  0
  -24.9800  -34.1090   24.9850 H   0  0  0  0  0  0  0  0  0  0  0  0
  -24.1920  -36.7980   23.0510 C   0  0  0  0  0  1  0  0  0  0  0  0
  -25.4270  -36.3900   23.8710 C   0  0  0  0  0  3  0  0  0  0  0  0
  -27.5620  -37.2620   24.7120 C   0  0  0  0  0  1  0  0  0  0  0  0
  -26.4650  -37.4370   23.7630 N   0  0  0  0  0  0  0  0  0  0  0  0
  -26.0630  -38.3590   23.9100 H   0  0  0  0  0  0  0  0  0  0  0  0
  -26.4070  -31.7800   25.1230 C   0  0  1  0  0  0  0  0  0  0  0  0
  -25.3280  -31.5400   26.2040 C   0  0  0  0  0  1  0  0  0  0  0  0
  -26.9840  -30.4030   24.7210 C   0  0  0  0  0  1  0  0  0  0  0  0
  -27.5660  -32.5720   25.7710 C   0  0  0  0  0  1  0  0  0  0  0  0
  1  4  1  0
  1  6  1  0
  2  7  1  0
  2  1  2  0
  3 57  1  0
  3  6  2  0
  5  7  1  0
  7  3  1  0
  8  9  1  0
  8  2  1  0
  9 11  1  0
  9 10  1  0
 12 15  1  0
 12  9  1  0
 15 13  1  6
 15 14  1  0
 15 16  1  0
 16 17  1  0
 18 17  1  0
 18 27  1  0
 19 27  1  0
 20 25  1  0
 21 22  1  0
 21 20  1  0
 23 22  1  0
 23 32  1  0
 23 24  1  0
 25 19  1  0
 25 24  1  0
 26 19  2  0
 27 28  1  0
 29 30  2  0
 30 49  1  0
 31 30  1  0
 31 34  1  0
 32 29  1  0
 32 33  1  0
 33 31  2  0
 34 35  1  0
 35 36  2  0
 37 40  1  0
 37 36  1  0
 38 37  2  0
 39 38  1  0
 39 34  2  0
 40 41  1  0
 41 42  1  0
 42 43  2  0
 44 43  1  0
 44 48  1  0
 45 44  2  0
 46 41  2  0
 46 45  1  0
 47 46  1  0
 49 50  1  0
 50 53  1  0
 50 52  1  0
 51 49  2  0
 54 55  1  0
 54 29  1  0
 56 54  1  0
 58 60  1  0
 58 57  1  0
 59 70  2  0
 60 65  1  0
 61 69  1  0
 61 71  1  0
 62 68  1  0
 62 64  1  0
 63 69  1  0
 64 63  1  0
 65 64  2  0
 66 67  1  0
 66 60  2  0
 67 62  2  0
 68 61  1  0
 69 59  1  0
 71 73  2  0
 72 71  1  0
 74 72  1  0
 75 84  2  0
 75 80  1  0
 76 72  1  0
 76 80  1  0
 77 76  1  0
 78 79  1  0
 78 77  1  0
 79 75  1  0
 80 81  2  0
 81 82  1  0
 83 82  2  0
 84 83  1  0
 85 59  1  0
 85 86  1  0
 85 95  1  0
 86 89  1  0
 87 91  1  0
 87 86  1  0
 88 87  2  0
 91 90  1  0
 93 91  1  0
 93 94  1  0
 93 92  1  0
 95 98  1  1
 95 96  1  0
 97 95  1  0
M  ISO  4  19 100  27 100  57 101  58 101
M  END
>  <TORSDO>  (75) 
F 24

>  <SCORE>  (75) 
-11.564

>  <name>  (75) 
74

>  <ligand_id>  (75) 
74

>  <original_smiles>  (75) 
[H]c1c([H])c([H])c2c(c1[H])C([H])([H])C([H])([H])C([H])([H])C2([H])N([H])C(=O)C1([H])N(C(=O)C([H])(N([H])C(=O)C([H])(N([H])C([H])([H])[H])C([H])([H])[H])C(C([H])([H])[H])(C([H])([H])[H])C([H])([H])[H])C([H])([H])c2c([H])c(OC([H])([H])c3nc(C([H])([H])[H])c(C([H])([H])[N+]([H])([H])C([H])([H])C(C([H])([H])[H])(C([H])([H])[H])C([H])([H])C([H])([H])C([H])([H])N([H])C(=O)N4C([H])([H])C([H])([H])C([H])([H])C([H])(n5nc(-c6c([H])c([H])c(Oc7c([H])c([H])c(F)c([H])c7F)c([H])c6[H])c(C(=O)N([H])[H])c5N([H])[H])C4([H])[H])n3C([H])([H])[H])c([H])c([H])c2C1([H])[H]

>  <smiles>  (75) 
[H]c1c([H])c([H])c2c(c1[H])C([H])([H])C([H])([H])C([H])([H])C2([H])N([H])C(=O)C1([H])N(C(=O)C([H])(N([H])C(=O)C([H])(N([H])C([H])([H])[H])C([H])([H])[H])C(C([H])([H])[H])(C([H])([H])[H])C([H])([H])[H])C([H])([H])c2c([H])c(OC([H])([H])c3nc(C([H])([H])[H])c(C([H])([H])[N+]([H])([H])C([H])([H])C(C([H])([H])[H])(C([H])([H])[H])C([H])([H])C([H])([H])C([H])([H])N([H])C(=O)N4C([H])([H])C([H])([H])C([H])([H])C([H])(n5nc(-c6c([H])c([H])c(Oc7c([H])c([H])c(F)c([H])c7F)c([H])c6[H])c(C(=O)N([H])[H])c5N([H])[H])C4([H])[H])n3C([H])([H])[H])c([H])c([H])c2C1([H])[H]

$$$$
75:0:0
     RDKit          3D

 92100  0  0  1  0  0  0  0  0999 V2000
  -31.2990  -22.2100   20.8240 C   0  0  0  0  0  1  0  0  0  0  0  0
  -30.0950  -21.2590   20.7130 C   0  0  0  0  0  3  0  0  0  0  0  0
  -31.2080  -17.4850   19.2740 C   0  0  0  0  0  3  0  0  0  0  0  0
  -31.2480  -18.6140   18.4540 C   0  0  0  0  0  3  0  0  0  0  0  0
  -30.8270  -17.6690   20.6110 C   0  0  0  0  0  0  0  0  0  0  0  0
  -30.5090  -19.8940   20.1880 C   0  0  0  0  0  0  0  0  0  0  0  0
  -30.9000  -19.8240   18.9220 N   0  0  0  0  0  0  0  0  0  0  0  0
  -30.4640  -18.8850   21.0500 N   0  0  0  0  0  0  0  0  0  0  0  0
  -30.8290  -16.5660   21.6660 C   0  0  0  0  0  2  0  0  0  0  0  0
  -30.7990  -14.3530   20.5720 C   0  0  0  0  0  0  0  0  0  0  0  0
  -30.4250  -12.2520   19.3460 C   0  0  0  0  0  2  0  0  0  0  0  0
  -29.5070  -12.5060   18.1390 C   0  0  0  0  0  2  0  0  0  0  0  0
  -28.0250  -12.4010   18.5520 C   0  0  0  0  0  2  0  0  0  0  0  0
  -27.6920  -13.2270   19.8240 C   0  0  0  0  0  3  0  0  0  0  0  0
  -28.7280  -12.9580   20.9360 C   0  0  0  0  0  2  0  0  0  0  0  0
  -30.0670  -13.2290   20.3820 N   0  0  0  0  0  0  0  0  0  0  0  0
  -31.9250  -14.5090   20.0980 O   0  0  0  0  0  0  0  0  0  0  0  0
  -30.1940  -15.3200   21.2610 N   0  0  0  0  0  0  0  0  0  0  0  0
  -29.2490  -15.1620   21.5720 H   0  0  0  0  0  0  0  0  0  0  0  0
  -25.2910  -13.8640   20.4940 C   0  0  0  0  0  0  0  0  0  0  0  0
  -24.2110  -13.1050   20.8580 C   0  0  0  0  0  0  0  0  0  0  0  0
  -24.6590  -11.7480   20.8460 C   0  0  0  0  0  0  0  0  0  0  0  0
  -26.3300  -12.9710   20.2860 N   0  0  0  0  0  0  0  0  0  0  0  0
  -25.9520  -11.6940   20.5520 N   0  0  0  0  0  0  0  0  0  0  0  0
  -23.9200  -10.4940   21.0400 C   0  0  0  0  0  0  0  0  0  0  0  0
  -24.3410   -9.5280   21.9810 C   0  0  0  0  0  3  0  0  0  0  0  0
  -23.6070   -8.3380   22.1640 C   0  0  0  0  0  3  0  0  0  0  0  0
  -22.4360   -8.1050   21.4050 C   0  0  0  0  0  0  0  0  0  0  0  0
  -22.0320   -9.0570   20.4550 C   0  0  0  0  0  3  0  0  0  0  0  0
  -22.7680  -10.2420   20.2710 C   0  0  0  0  0  3  0  0  0  0  0  0
  -21.6750   -6.9640   21.4950 O   0  0  0  0  0  0  0  0  0  0  0  0
  -21.6190   -6.2240   22.6490 C   0  0  0  0  0  0  0  0  0  0  0  0
  -21.2080   -6.7850   23.8760 C   0  0  0  0  0  3  0  0  0  0  0  0
  -21.1030   -5.9730   25.0220 C   0  0  0  0  0  3  0  0  0  0  0  0
  -21.3940   -4.5980   24.9410 C   0  0  0  0  0  0  0  0  0  0  0  0
  -21.7960   -4.0340   23.7160 C   0  0  0  0  0  3  0  0  0  0  0  0
  -21.9060   -4.8450   22.5730 C   0  0  0  0  0  0  0  0  0  0  0  0
  -22.2740   -4.2940   21.3910 F   0  0  0  0  0  0  0  0  0  0  0  0
  -21.2840   -3.8140   26.0380 F   0  0  0  0  0  0  0  0  0  0  0  0
  -22.8150  -13.5960   21.1100 C   0  0  0  0  0  0  0  0  0  0  0  0
  -22.0720  -12.9130   21.9740 N   0  0  0  0  0  0  0  0  0  0  0  0
  -22.3920  -14.6190   20.5750 O   0  0  0  0  0  0  0  0  0  0  0  0
  -22.4270  -12.0860   22.4310 H   0  0  0  0  0  0  0  0  0  0  0  0
  -21.1340  -13.2230   22.1820 H   0  0  0  0  0  0  0  0  0  0  0  0
  -25.4710  -15.2310   20.3060 N   0  0  0  0  0  0  0  0  0  0  0  0
  -24.7150  -15.9000   20.4050 H   0  0  0  0  0  0  0  0  0  0  0  0
  -26.3290  -15.6520   19.9750 H   0  0  0  0  0  0  0  0  0  0  0  0
  -28.9010  -21.8190   19.9130 C   0  0  0  0  0  2  0  0  0  0  0  0
  -28.2330  -23.0340   20.5740 C   0  0  0  0  0  2  0  0  0  0  0  0
  -28.6600  -24.3780   19.9670 C   0  0  0  0  0  2  0  0  0  0  0  0
  -28.3200  -25.5420   20.8990 C   0  0  0  0  0  2  0  0  0  0  0  0
  -28.4010  -26.7740   20.1890 O   0  0  0  0  0  0  0  0  0  0  0  0
  -24.5680  -31.8850   23.2380 C   0  0  0  0  0  0  0  0  0  0  0  0
  -27.2270  -27.4800   20.1700 C   0  0  0  0  0  0  0  0  0  0  0  0
  -23.3610  -30.4750   21.5970 C   0  0  0  0  0  3  0  0  0  0  0  0
  -24.8210  -28.9420   20.1750 C   0  0  0  0  0  0  0  0  0  0  0  0
  -25.8810  -30.8560   21.3900 C   0  0  0  0  0  2  0  0  0  0  0  0
  -25.9740  -29.4860   20.7570 C   0  0  0  0  0  0  0  0  0  0  0  0
  -27.1830  -28.7630   20.7490 C   0  0  0  0  0  3  0  0  0  0  0  0
  -26.0610  -26.9340   19.5880 C   0  0  0  0  0  3  0  0  0  0  0  0
  -24.8580  -27.6640   19.5880 C   0  0  0  0  0  3  0  0  0  0  0  0
  -23.5710  -29.7890   20.2200 C   0  0  0  0  0  2  0  0  0  0  0  0
  -24.6220  -31.0830   22.1370 N   0  0  0  0  0  0  0  0  0  0  0  0
  -23.4870  -32.1570   23.7790 O   0  0  0  0  0  0  0  0  0  0  0  0
  -22.7150  -29.4550   22.5610 C   0  0  0  0  0  0  0  0  0  0  0  0
  -21.3910  -29.2730   22.4350 N   0  0  0  0  0  0  0  0  0  0  0  0
  -23.4000  -28.8310   23.3750 O   0  0  0  0  0  0  0  0  0  0  0  0
  -20.9010  -29.8310   21.7510 H   0  0  0  0  0  0  0  0  0  0  0  0
  -18.0170  -28.0830   22.9220 C   0  0  0  0  0  0  0  0  0  0  0  0
  -20.5730  -28.3360   23.2030 C   0  0  0  0  0  3  0  0  0  0  0  0
  -20.6760  -26.9050   22.6270 C   0  0  0  0  0  2  0  0  0  0  0  0
  -19.5770  -26.5840   21.6100 C   0  0  0  0  0  2  0  0  0  0  0  0
  -18.1950  -26.7320   22.2510 C   0  0  0  0  0  2  0  0  0  0  0  0
  -19.1350  -28.8440   23.3550 C   0  0  0  0  0  0  0  0  0  0  0  0
  -18.9180  -30.1110   23.9390 C   0  0  0  0  0  3  0  0  0  0  0  0
  -17.6140  -30.6140   24.1020 C   0  0  0  0  0  3  0  0  0  0  0  0
  -16.5090  -29.8500   23.6870 C   0  0  0  0  0  3  0  0  0  0  0  0
  -16.7120  -28.5870   23.1030 C   0  0  0  0  0  3  0  0  0  0  0  0
  -25.8550  -32.5150   23.8570 C   0  0  0  0  0  3  0  0  0  0  0  0
  -25.5490  -33.9140   24.1810 N   0  0  0  0  0  0  0  0  0  0  0  0
  -25.8900  -34.9640   23.4210 C   0  0  0  0  0  0  0  0  0  0  0  0
  -26.5690  -34.8570   22.3960 O   0  0  0  0  0  0  0  0  0  0  0  0
  -24.9450  -34.0760   24.9740 H   0  0  0  0  0  0  0  0  0  0  0  0
  -24.1740  -36.7630   23.0380 C   0  0  0  0  0  1  0  0  0  0  0  0
  -25.4000  -36.3550   23.8690 C   0  0  0  0  0  3  0  0  0  0  0  0
  -27.5250  -37.2290   24.7320 C   0  0  0  0  0  1  0  0  0  0  0  0
  -26.4380  -37.4040   23.7740 N   0  0  0  0  0  0  0  0  0  0  0  0
  -26.0320  -38.3230   23.9210 H   0  0  0  0  0  0  0  0  0  0  0  0
  -26.3770  -31.7460   25.1310 C   0  0  1  0  0  0  0  0  0  0  0  0
  -25.2870  -31.5080   26.2020 C   0  0  0  0  0  1  0  0  0  0  0  0
  -26.9600  -30.3700   24.7350 C   0  0  0  0  0  1  0  0  0  0  0  0
  -27.5280  -32.5400   25.7920 C   0  0  0  0  0  1  0  0  0  0  0  0
  2  1  1  0
  3  5  1  0
  4  7  1  0
  4  3  2  0
  5  8  2  0
  5  9  1  0
  6  2  1  0
  6  8  1  0
  7  6  2  0
 10 18  1  0
 11 16  1  0
 12 13  1  0
 12 11  1  0
 14 13  1  0
 14 23  1  0
 14 15  1  0
 16 10  1  0
 16 15  1  0
 17 10  2  0
 18 19  1  0
 18  9  1  0
 20 21  2  0
 21 40  1  0
 22 21  1  0
 22 25  1  0
 23 20  1  0
 23 24  1  0
 24 22  2  0
 25 26  1  0
 26 27  2  0
 28 31  1  0
 28 27  1  0
 29 28  2  0
 30 29  1  0
 30 25  2  0
 31 32  1  0
 32 33  1  0
 33 34  2  0
 35 34  1  0
 35 39  1  0
 36 35  2  0
 37 32  2  0
 37 36  1  0
 38 37  1  0
 40 41  1  0
 41 44  1  0
 41 43  1  0
 42 40  2  0
 45 46  1  0
 45 20  1  0
 47 45  1  0
 48 49  1  0
 48  2  1  0
 50 49  1  0
 50 51  1  0
 52 51  1  0
 53 64  2  0
 54 52  1  0
 54 59  1  0
 55 63  1  0
 55 65  1  0
 56 62  1  0
 56 58  1  0
 57 63  1  0
 58 57  1  0
 59 58  2  0
 60 54  2  0
 61 60  1  0
 61 56  2  0
 62 55  1  0
 63 53  1  0
 65 67  2  0
 66 65  1  0
 68 66  1  0
 69 78  2  0
 69 74  1  0
 70 66  1  0
 70 74  1  0
 71 70  1  0
 72 73  1  0
 72 71  1  0
 73 69  1  0
 74 75  2  0
 75 76  1  0
 77 76  2  0
 78 77  1  0
 79 53  1  0
 79 80  1  0
 79 89  1  0
 80 83  1  0
 81 85  1  0
 81 80  1  0
 82 81  2  0
 85 84  1  0
 87 85  1  0
 87 88  1  0
 87 86  1  0
 89 92  1  1
 89 90  1  0
 91 89  1  0
M  ISO  4  10 100  18 100  51 101  52 101
M  END
>  <TORSDO>  (76) 
F 22

>  <SCORE>  (76) 
-13.335

>  <name>  (76) 
75

>  <ligand_id>  (76) 
75

>  <original_smiles>  (76) 
[H]c1nc(C([H])(C([H])([H])[H])C([H])([H])C([H])([H])C([H])([H])C([H])([H])Oc2c([H])c([H])c3c(c2[H])C([H])([H])N(C(=O)C([H])(N([H])C(=O)C([H])(N([H])C([H])([H])[H])C([H])([H])[H])C(C([H])([H])[H])(C([H])([H])[H])C([H])([H])[H])C([H])(C(=O)N([H])C2([H])c4c([H])c([H])c([H])c([H])c4C([H])([H])C([H])([H])C2([H])[H])C3([H])[H])nc(C([H])([H])N([H])C(=O)N2C([H])([H])C([H])([H])C([H])([H])C([H])(n3nc(-c4c([H])c([H])c(Oc5c([H])c([H])c(F)c([H])c5F)c([H])c4[H])c(C(=O)N([H])[H])c3N([H])[H])C2([H])[H])c1[H]

>  <smiles>  (76) 
[H]c1nc(C([H])(C([H])([H])[H])C([H])([H])C([H])([H])C([H])([H])C([H])([H])Oc2c([H])c([H])c3c(c2[H])C([H])([H])N(C(=O)C([H])(N([H])C(=O)C([H])(N([H])C([H])([H])[H])C([H])([H])[H])C(C([H])([H])[H])(C([H])([H])[H])C([H])([H])[H])C([H])(C(=O)N([H])C2([H])c4c([H])c([H])c([H])c([H])c4C([H])([H])C([H])([H])C2([H])[H])C3([H])[H])nc(C([H])([H])N([H])C(=O)N2C([H])([H])C([H])([H])C([H])([H])C([H])(n3nc(-c4c([H])c([H])c(Oc5c([H])c([H])c(F)c([H])c5F)c([H])c4[H])c(C(=O)N([H])[H])c3N([H])[H])C2([H])[H])c1[H]

$$$$
76:0:0
     RDKit          3D

 91 99  0  0  1  0  0  0  0  0999 V2000
  -28.7430  -21.7960   20.6970 C   0  0  0  0  0  3  0  0  0  0  0  0
  -28.6540  -22.7980   19.7360 C   0  0  0  0  0  0  0  0  0  0  0  0
  -29.8640  -21.0830   18.9200 C   0  0  0  0  0  3  0  0  0  0  0  0
  -30.7260  -20.3470   17.9470 C   0  0  0  0  0  1  0  0  0  0  0  0
  -29.5050  -20.7550   20.1770 N   0  0  0  0  0  0  0  0  0  0  0  0
  -29.3530  -22.2910   18.6700 N   0  0  0  0  0  0  0  0  0  0  0  0
  -29.4950  -22.7820   17.7920 H   0  0  0  0  0  0  0  0  0  0  0  0
  -27.9830  -24.1740   19.6270 C   0  0  0  0  0  2  0  0  0  0  0  0
  -28.6080  -25.3190   20.4890 C   0  0  0  0  0  2  0  0  0  0  0  0
  -28.4380  -26.7180   20.1090 O   0  0  0  0  0  0  0  0  0  0  0  0
  -24.5960  -31.9100   23.2300 C   0  0  0  0  0  0  0  0  0  0  0  0
  -27.2330  -27.4000   20.2030 C   0  0  0  0  0  0  0  0  0  0  0  0
  -23.3830  -30.4990   21.5960 C   0  0  0  0  0  3  0  0  0  0  0  0
  -24.8340  -28.9340   20.1930 C   0  0  0  0  0  0  0  0  0  0  0  0
  -25.9130  -30.8490   21.3890 C   0  0  0  0  0  2  0  0  0  0  0  0
  -25.9970  -29.4630   20.7670 C   0  0  0  0  0  0  0  0  0  0  0  0
  -27.1980  -28.7080   20.7600 C   0  0  0  0  0  3  0  0  0  0  0  0
  -26.0450  -26.8890   19.6410 C   0  0  0  0  0  3  0  0  0  0  0  0
  -24.8550  -27.6470   19.6310 C   0  0  0  0  0  3  0  0  0  0  0  0
  -23.5900  -29.7980   20.2250 C   0  0  0  0  0  2  0  0  0  0  0  0
  -24.6500  -31.1020   22.1290 N   0  0  0  0  0  0  0  0  0  0  0  0
  -23.5160  -32.1870   23.7710 O   0  0  0  0  0  0  0  0  0  0  0  0
  -22.7320  -29.4890   22.5660 C   0  0  0  0  0  0  0  0  0  0  0  0
  -21.4070  -29.3090   22.4430 N   0  0  0  0  0  0  0  0  0  0  0  0
  -23.4170  -28.8670   23.3820 O   0  0  0  0  0  0  0  0  0  0  0  0
  -20.9190  -29.8550   21.7470 H   0  0  0  0  0  0  0  0  0  0  0  0
  -18.0290  -28.1360   22.9540 C   0  0  0  0  0  0  0  0  0  0  0  0
  -20.5880  -28.3790   23.2200 C   0  0  0  0  0  3  0  0  0  0  0  0
  -20.6800  -26.9460   22.6460 C   0  0  0  0  0  2  0  0  0  0  0  0
  -19.5750  -26.6300   21.6340 C   0  0  0  0  0  2  0  0  0  0  0  0
  -18.1950  -26.7870   22.2750 C   0  0  0  0  0  2  0  0  0  0  0  0
  -19.1520  -28.8920   23.3810 C   0  0  0  0  0  0  0  0  0  0  0  0
  -18.9410  -30.1580   23.9690 C   0  0  0  0  0  3  0  0  0  0  0  0
  -17.6390  -30.6660   24.1370 C   0  0  0  0  0  3  0  0  0  0  0  0
  -16.5290  -29.9050   23.7270 C   0  0  0  0  0  3  0  0  0  0  0  0
  -16.7260  -28.6420   23.1410 C   0  0  0  0  0  3  0  0  0  0  0  0
  -25.8850  -32.5360   23.8460 C   0  0  0  0  0  3  0  0  0  0  0  0
  -25.5790  -33.9320   24.1860 N   0  0  0  0  0  0  0  0  0  0  0  0
  -25.9040  -34.9890   23.4300 C   0  0  0  0  0  0  0  0  0  0  0  0
  -26.5660  -34.8920   22.3920 O   0  0  0  0  0  0  0  0  0  0  0  0
  -24.9880  -34.0830   24.9920 H   0  0  0  0  0  0  0  0  0  0  0  0
  -24.1670  -36.7760   23.1020 C   0  0  0  0  0  1  0  0  0  0  0  0
  -25.4170  -36.3730   23.8990 C   0  0  0  0  0  3  0  0  0  0  0  0
  -27.5590  -37.2570   24.7070 C   0  0  0  0  0  1  0  0  0  0  0  0
  -26.4440  -37.4300   23.7790 N   0  0  0  0  0  0  0  0  0  0  0  0
  -26.0370  -38.3470   23.9420 H   0  0  0  0  0  0  0  0  0  0  0  0
  -26.4140  -31.7590   25.1120 C   0  0  1  0  0  0  0  0  0  0  0  0
  -25.3260  -31.5120   26.1830 C   0  0  0  0  0  1  0  0  0  0  0  0
  -27.0030  -30.3880   24.7070 C   0  0  0  0  0  1  0  0  0  0  0  0
  -27.5670  -32.5540   25.7720 C   0  0  0  0  0  1  0  0  0  0  0  0
  -30.0170  -19.5370   20.8990 C   0  0  0  0  0  2  0  0  0  0  0  0
  -29.5300  -18.1040   20.4620 C   0  0  0  0  0  2  0  0  0  0  0  0
  -30.3560  -16.9480   21.1330 C   0  0  0  0  0  2  0  0  0  0  0  0
  -30.6280  -14.5130   20.4490 C   0  0  0  0  0  0  0  0  0  0  0  0
  -30.3520  -12.3260   19.3290 C   0  0  0  0  0  2  0  0  0  0  0  0
  -29.3980  -12.5080   18.1300 C   0  0  0  0  0  2  0  0  0  0  0  0
  -27.9280  -12.3780   18.5770 C   0  0  0  0  0  2  0  0  0  0  0  0
  -27.6010  -13.2400   19.8240 C   0  0  0  0  0  3  0  0  0  0  0  0
  -28.6580  -13.0120   20.9260 C   0  0  0  0  0  2  0  0  0  0  0  0
  -29.9690  -13.3280   20.3370 N   0  0  0  0  0  0  0  0  0  0  0  0
  -31.7850  -14.6680   20.0550 O   0  0  0  0  0  0  0  0  0  0  0  0
  -29.8810  -15.5660   20.8670 N   0  0  0  0  0  0  0  0  0  0  0  0
  -28.9220  -15.3580   21.1030 H   0  0  0  0  0  0  0  0  0  0  0  0
  -25.2070  -13.8670   20.5220 C   0  0  0  0  0  0  0  0  0  0  0  0
  -24.1330  -13.0990   20.8930 C   0  0  0  0  0  0  0  0  0  0  0  0
  -24.5900  -11.7470   20.8690 C   0  0  0  0  0  0  0  0  0  0  0  0
  -26.2470  -12.9800   20.3020 N   0  0  0  0  0  0  0  0  0  0  0  0
  -25.8810  -11.7010   20.5680 N   0  0  0  0  0  0  0  0  0  0  0  0
  -23.8590  -10.4870   21.0610 C   0  0  0  0  0  0  0  0  0  0  0  0
  -24.3020   -9.5080   21.9780 C   0  0  0  0  0  3  0  0  0  0  0  0
  -23.5760   -8.3100   22.1550 C   0  0  0  0  0  3  0  0  0  0  0  0
  -22.3900   -8.0840   21.4120 C   0  0  0  0  0  0  0  0  0  0  0  0
  -21.9720   -9.0490   20.4790 C   0  0  0  0  0  3  0  0  0  0  0  0
  -22.6960  -10.2390   20.3040 C   0  0  0  0  0  3  0  0  0  0  0  0
  -21.6320   -6.9410   21.5010 O   0  0  0  0  0  0  0  0  0  0  0  0
  -21.6030   -6.1810   22.6430 C   0  0  0  0  0  0  0  0  0  0  0  0
  -21.2190   -6.7260   23.8890 C   0  0  0  0  0  3  0  0  0  0  0  0
  -21.1480   -5.8970   25.0270 C   0  0  0  0  0  3  0  0  0  0  0  0
  -21.4400   -4.5250   24.9170 C   0  0  0  0  0  0  0  0  0  0  0  0
  -21.8120   -3.9780   23.6750 C   0  0  0  0  0  3  0  0  0  0  0  0
  -21.8950   -4.8070   22.5420 C   0  0  0  0  0  0  0  0  0  0  0  0
  -22.2370   -4.2740   21.3440 F   0  0  0  0  0  0  0  0  0  0  0  0
  -21.3610   -3.7270   26.0050 F   0  0  0  0  0  0  0  0  0  0  0  0
  -22.7390  -13.5800   21.1670 C   0  0  0  0  0  0  0  0  0  0  0  0
  -22.0150  -12.8860   22.0380 N   0  0  0  0  0  0  0  0  0  0  0  0
  -22.3040  -14.6050   20.6430 O   0  0  0  0  0  0  0  0  0  0  0  0
  -22.3840  -12.0540   22.4720 H   0  0  0  0  0  0  0  0  0  0  0  0
  -21.0800  -13.1900   22.2700 H   0  0  0  0  0  0  0  0  0  0  0  0
  -25.3790  -15.2360   20.3360 N   0  0  0  0  0  0  0  0  0  0  0  0
  -24.6160  -15.8960   20.4420 H   0  0  0  0  0  0  0  0  0  0  0  0
  -26.2280  -15.6620   19.9940 H   0  0  0  0  0  0  0  0  0  0  0  0
  2  1  2  0
  3  4  1  0
  3  5  1  0
  5  1  1  0
  5 51  1  0
  6  3  1  0
  6  2  1  0
  7  6  1  0
  8  2  1  0
  8  9  1  0
 10 12  1  0
 10  9  1  0
 11 22  2  0
 12 17  1  0
 13 21  1  0
 13 23  1  0
 14 20  1  0
 14 16  1  0
 15 21  1  0
 16 15  1  0
 17 16  2  0
 18 12  2  0
 19 18  1  0
 19 14  2  0
 20 13  1  0
 21 11  1  0
 23 25  2  0
 24 23  1  0
 26 24  1  0
 27 36  2  0
 27 32  1  0
 28 24  1  0
 28 32  1  0
 29 28  1  0
 30 31  1  0
 30 29  1  0
 31 27  1  0
 32 33  2  0
 33 34  1  0
 35 34  2  0
 36 35  1  0
 37 11  1  0
 37 38  1  0
 37 47  1  0
 38 41  1  0
 39 43  1  0
 39 38  1  0
 40 39  2  0
 43 42  1  0
 45 43  1  0
 45 46  1  0
 45 44  1  0
 47 50  1  1
 47 48  1  0
 49 47  1  0
 52 51  1  0
 52 53  1  0
 54 62  1  0
 55 60  1  0
 56 57  1  0
 56 55  1  0
 58 57  1  0
 58 67  1  0
 58 59  1  0
 60 54  1  0
 60 59  1  0
 61 54  2  0
 62 63  1  0
 62 53  1  0
 64 65  2  0
 65 84  1  0
 66 65  1  0
 66 69  1  0
 67 64  1  0
 67 68  1  0
 68 66  2  0
 69 70  1  0
 70 71  2  0
 72 75  1  0
 72 71  1  0
 73 72  2  0
 74 73  1  0
 74 69  2  0
 75 76  1  0
 76 77  1  0
 77 78  2  0
 79 78  1  0
 79 83  1  0
 80 79  2  0
 81 76  2  0
 81 80  1  0
 82 81  1  0
 84 85  1  0
 85 88  1  0
 85 87  1  0
 86 84  2  0
 89 90  1  0
 89 64  1  0
 91 89  1  0
M  ISO  4   9 101  10 101  54 100  62 100
M  END
>  <TORSDO>  (77) 
F 21

>  <SCORE>  (77) 
-13.495

>  <name>  (77) 
76

>  <ligand_id>  (77) 
76

>  <original_smiles>  (77) 
[H]c1c([H])c([H])c2c(c1[H])C([H])([H])C([H])([H])C([H])([H])C2([H])N([H])C(=O)C1([H])N(C(=O)C([H])(N([H])C(=O)C([H])(N([H])C([H])([H])[H])C([H])([H])[H])C(C([H])([H])[H])(C([H])([H])[H])C([H])([H])[H])C([H])([H])c2c([H])c(OC([H])([H])C([H])([H])c3c([H])n(C([H])([H])C([H])([H])C([H])([H])N([H])C(=O)N4C([H])([H])C([H])([H])C([H])([H])C([H])(n5nc(-c6c([H])c([H])c(Oc7c([H])c([H])c(F)c([H])c7F)c([H])c6[H])c(C(=O)N([H])[H])c5N([H])[H])C4([H])[H])c(C([H])([H])[H])[n+]3[H])c([H])c([H])c2C1([H])[H]

>  <smiles>  (77) 
[H]c1c([H])c([H])c2c(c1[H])C([H])([H])C([H])([H])C([H])([H])C2([H])N([H])C(=O)C1([H])N(C(=O)C([H])(N([H])C(=O)C([H])(N([H])C([H])([H])[H])C([H])([H])[H])C(C([H])([H])[H])(C([H])([H])[H])C([H])([H])[H])C([H])([H])c2c([H])c(OC([H])([H])C([H])([H])c3c([H])n(C([H])([H])C([H])([H])C([H])([H])N([H])C(=O)N4C([H])([H])C([H])([H])C([H])([H])C([H])(n5nc(-c6c([H])c([H])c(Oc7c([H])c([H])c(F)c([H])c7F)c([H])c6[H])c(C(=O)N([H])[H])c5N([H])[H])C4([H])[H])c(C([H])([H])[H])[n+]3[H])c([H])c([H])c2C1([H])[H]

$$$$
77:0:0
     RDKit          3D

 91 99  0  0  1  0  0  0  0  0999 V2000
  -30.3960  -21.8000   20.5810 C   0  0  0  0  0  3  0  0  0  0  0  0
  -30.0940  -20.4610   20.4980 C   0  0  0  0  0  0  0  0  0  0  0  0
  -29.4300  -20.3710   19.2300 C   0  0  0  0  0  0  0  0  0  0  0  0
  -28.8870  -19.1760   18.4960 C   0  0  0  0  0  1  0  0  0  0  0  0
  -29.3450  -21.5520   18.6210 N   0  0  0  0  0  0  0  0  0  0  0  0
  -29.9460  -22.4360   19.4420 N   0  0  0  0  0  0  0  0  0  0  0  0
  -30.4800  -19.4310   21.5660 C   0  0  0  0  0  2  0  0  0  0  0  0
  -29.8440  -18.0070   21.5620 C   0  0  0  0  0  3  0  0  0  0  0  0
  -30.6710  -16.9140   20.8340 C   0  0  0  0  0  3  0  0  0  0  0  0
  -30.7110  -14.4900   20.2930 C   0  0  0  0  0  0  0  0  0  0  0  0
  -30.3130  -12.3720   19.1000 C   0  0  0  0  0  2  0  0  0  0  0  0
  -29.3440  -12.6150   17.9240 C   0  0  0  0  0  2  0  0  0  0  0  0
  -27.8840  -12.4760   18.3900 C   0  0  0  0  0  2  0  0  0  0  0  0
  -27.5890  -13.2930   19.6760 C   0  0  0  0  0  3  0  0  0  0  0  0
  -28.6730  -13.0550   20.7540 C   0  0  0  0  0  2  0  0  0  0  0  0
  -29.9860  -13.3440   20.1570 N   0  0  0  0  0  0  0  0  0  0  0  0
  -31.8150  -14.6380   19.7670 O   0  0  0  0  0  0  0  0  0  0  0  0
  -30.1130  -15.5410   20.8970 N   0  0  0  0  0  0  0  0  0  0  0  0
  -29.2070  -15.4010   21.3150 H   0  0  0  0  0  0  0  0  0  0  0  0
  -25.2090  -13.9060   20.4420 C   0  0  0  0  0  0  0  0  0  0  0  0
  -24.1460  -13.1370   20.8330 C   0  0  0  0  0  0  0  0  0  0  0  0
  -24.6000  -11.7830   20.7860 C   0  0  0  0  0  0  0  0  0  0  0  0
  -26.2450  -13.0200   20.1850 N   0  0  0  0  0  0  0  0  0  0  0  0
  -25.8830  -11.7390   20.4480 N   0  0  0  0  0  0  0  0  0  0  0  0
  -23.8700  -10.5240   20.9910 C   0  0  0  0  0  0  0  0  0  0  0  0
  -24.3180   -9.5520   21.9130 C   0  0  0  0  0  3  0  0  0  0  0  0
  -23.5910   -8.3580   22.1040 C   0  0  0  0  0  3  0  0  0  0  0  0
  -22.4010   -8.1270   21.3740 C   0  0  0  0  0  0  0  0  0  0  0  0
  -21.9720   -9.0870   20.4410 C   0  0  0  0  0  3  0  0  0  0  0  0
  -22.6990  -10.2730   20.2470 C   0  0  0  0  0  3  0  0  0  0  0  0
  -21.6440   -6.9850   21.4730 O   0  0  0  0  0  0  0  0  0  0  0  0
  -21.6160   -6.2410   22.6260 C   0  0  0  0  0  0  0  0  0  0  0  0
  -21.2220   -6.7960   23.8620 C   0  0  0  0  0  3  0  0  0  0  0  0
  -21.1370   -5.9780   25.0070 C   0  0  0  0  0  3  0  0  0  0  0  0
  -21.4400   -4.6050   24.9150 C   0  0  0  0  0  0  0  0  0  0  0  0
  -21.8300   -4.0510   23.6840 C   0  0  0  0  0  3  0  0  0  0  0  0
  -21.9140   -4.8670   22.5420 C   0  0  0  0  0  0  0  0  0  0  0  0
  -22.2690   -4.3220   21.3520 F   0  0  0  0  0  0  0  0  0  0  0  0
  -21.3540   -3.8170   26.0120 F   0  0  0  0  0  0  0  0  0  0  0  0
  -22.7580  -13.6230   21.1370 C   0  0  0  0  0  0  0  0  0  0  0  0
  -22.0440  -12.9310   22.0190 N   0  0  0  0  0  0  0  0  0  0  0  0
  -22.3130  -14.6510   20.6290 O   0  0  0  0  0  0  0  0  0  0  0  0
  -22.4180  -12.1040   22.4590 H   0  0  0  0  0  0  0  0  0  0  0  0
  -21.1130  -13.2390   22.2600 H   0  0  0  0  0  0  0  0  0  0  0  0
  -25.3770  -15.2760   20.2650 N   0  0  0  0  0  0  0  0  0  0  0  0
  -24.6140  -15.9330   20.3870 H   0  0  0  0  0  0  0  0  0  0  0  0
  -26.2190  -15.7090   19.9070 H   0  0  0  0  0  0  0  0  0  0  0  0
  -30.1680  -23.8160   18.9990 C   0  0  0  0  0  2  0  0  0  0  0  0
  -28.9020  -24.7050   18.8820 C   0  0  0  0  0  2  0  0  0  0  0  0
  -28.4020  -25.3050   20.2140 C   0  0  0  0  0  2  0  0  0  0  0  0
  -28.4120  -26.7430   20.1970 O   0  0  0  0  0  0  0  0  0  0  0  0
  -24.5620  -31.8940   23.2460 C   0  0  0  0  0  0  0  0  0  0  0  0
  -27.2140  -27.4310   20.1910 C   0  0  0  0  0  0  0  0  0  0  0  0
  -23.3580  -30.4880   21.6030 C   0  0  0  0  0  3  0  0  0  0  0  0
  -24.8130  -28.9340   20.1920 C   0  0  0  0  0  0  0  0  0  0  0  0
  -25.8830  -30.8400   21.4120 C   0  0  0  0  0  2  0  0  0  0  0  0
  -25.9680  -29.4620   20.7840 C   0  0  0  0  0  0  0  0  0  0  0  0
  -27.1680  -28.7170   20.7810 C   0  0  0  0  0  3  0  0  0  0  0  0
  -26.0430  -26.9180   19.5910 C   0  0  0  0  0  3  0  0  0  0  0  0
  -24.8450  -27.6600   19.5960 C   0  0  0  0  0  3  0  0  0  0  0  0
  -23.5710  -29.7950   20.2280 C   0  0  0  0  0  2  0  0  0  0  0  0
  -24.6190  -31.0900   22.1440 N   0  0  0  0  0  0  0  0  0  0  0  0
  -23.4810  -32.1690   23.7830 O   0  0  0  0  0  0  0  0  0  0  0  0
  -22.7030  -29.4760   22.5690 C   0  0  0  0  0  0  0  0  0  0  0  0
  -21.3770  -29.2960   22.4380 N   0  0  0  0  0  0  0  0  0  0  0  0
  -23.3810  -28.8530   23.3900 O   0  0  0  0  0  0  0  0  0  0  0  0
  -20.8930  -29.8500   21.7460 H   0  0  0  0  0  0  0  0  0  0  0  0
  -18.0000  -28.1120   22.9290 C   0  0  0  0  0  0  0  0  0  0  0  0
  -20.5570  -28.3640   23.2100 C   0  0  0  0  0  3  0  0  0  0  0  0
  -20.6590  -26.9300   22.6380 C   0  0  0  0  0  2  0  0  0  0  0  0
  -19.5590  -26.6080   21.6210 C   0  0  0  0  0  2  0  0  0  0  0  0
  -18.1750  -26.7590   22.2590 C   0  0  0  0  0  2  0  0  0  0  0  0
  -19.1190  -28.8710   23.3600 C   0  0  0  0  0  0  0  0  0  0  0  0
  -18.9020  -30.1380   23.9460 C   0  0  0  0  0  3  0  0  0  0  0  0
  -17.5980  -30.6430   24.1050 C   0  0  0  0  0  3  0  0  0  0  0  0
  -16.4930  -29.8810   23.6880 C   0  0  0  0  0  3  0  0  0  0  0  0
  -16.6950  -28.6170   23.1040 C   0  0  0  0  0  3  0  0  0  0  0  0
  -25.8490  -32.5250   23.8670 C   0  0  0  0  0  3  0  0  0  0  0  0
  -25.5450  -33.9260   24.1840 N   0  0  0  0  0  0  0  0  0  0  0  0
  -25.8880  -34.9720   23.4210 C   0  0  0  0  0  0  0  0  0  0  0  0
  -26.5680  -34.8590   22.3970 O   0  0  0  0  0  0  0  0  0  0  0  0
  -24.9490  -34.0860   24.9830 H   0  0  0  0  0  0  0  0  0  0  0  0
  -24.1740  -36.7720   23.0300 C   0  0  0  0  0  1  0  0  0  0  0  0
  -25.4010  -36.3660   23.8620 C   0  0  0  0  0  3  0  0  0  0  0  0
  -27.5310  -37.2430   24.7140 C   0  0  0  0  0  1  0  0  0  0  0  0
  -26.4410  -37.4140   23.7550 N   0  0  0  0  0  0  0  0  0  0  0  0
  -26.0410  -38.3380   23.8890 H   0  0  0  0  0  0  0  0  0  0  0  0
  -26.3560  -31.7600   25.1500 C   0  0  1  0  0  0  0  0  0  0  0  0
  -25.2580  -31.5370   26.2170 C   0  0  0  0  0  1  0  0  0  0  0  0
  -26.9320  -30.3770   24.7690 C   0  0  0  0  0  1  0  0  0  0  0  0
  -27.5060  -32.5540   25.8140 C   0  0  0  0  0  1  0  0  0  0  0  0
  2  1  2  0
  2  7  1  0
  3  2  1  0
  4  3  1  0
  5  3  2  0
  5  6  1  0
  6  1  1  0
  8  7  1  0
  9 18  1  0
  9  8  2  0
 10 18  1  0
 11 16  1  0
 12 13  1  0
 12 11  1  0
 14 13  1  0
 14 23  1  0
 14 15  1  0
 16 10  1  0
 16 15  1  0
 17 10  2  0
 18 19  1  0
 20 21  2  0
 21 40  1  0
 22 21  1  0
 22 25  1  0
 23 20  1  0
 23 24  1  0
 24 22  2  0
 25 26  1  0
 26 27  2  0
 28 31  1  0
 28 27  1  0
 29 28  2  0
 30 29  1  0
 30 25  2  0
 31 32  1  0
 32 33  1  0
 33 34  2  0
 35 34  1  0
 35 39  1  0
 36 35  2  0
 37 32  2  0
 37 36  1  0
 38 37  1  0
 40 41  1  0
 41 44  1  0
 41 43  1  0
 42 40  2  0
 45 46  1  0
 45 20  1  0
 47 45  1  0
 48  6  1  0
 49 48  1  0
 49 50  1  0
 51 50  1  0
 52 63  2  0
 53 51  1  0
 53 58  1  0
 54 62  1  0
 54 64  1  0
 55 61  1  0
 55 57  1  0
 56 62  1  0
 57 56  1  0
 58 57  2  0
 59 60  1  0
 59 53  2  0
 60 55  2  0
 61 54  1  0
 62 52  1  0
 64 66  2  0
 65 64  1  0
 67 65  1  0
 68 77  2  0
 68 73  1  0
 69 65  1  0
 69 73  1  0
 70 69  1  0
 71 72  1  0
 71 70  1  0
 72 68  1  0
 73 74  2  0
 74 75  1  0
 76 75  2  0
 77 76  1  0
 78 52  1  0
 78 79  1  0
 78 88  1  0
 79 82  1  0
 80 84  1  0
 80 79  1  0
 81 80  2  0
 84 83  1  0
 86 84  1  0
 86 87  1  0
 86 85  1  0
 88 91  1  1
 88 89  1  0
 90 88  1  0
M  ISO  4  10 100  18 100  50 101  51 101
M  END
>  <TORSDO>  (78) 
F 22

>  <SCORE>  (78) 
-12.927

>  <name>  (78) 
77

>  <ligand_id>  (78) 
77

>  <original_smiles>  (78) 
[H]c1c([H])c([H])c2c(c1[H])C([H])([H])C([H])([H])C([H])([H])C2([H])N([H])C(=O)C1([H])N(C(=O)C([H])(N([H])C(=O)C([H])(N([H])C([H])([H])[H])C([H])([H])[H])C(C([H])([H])[H])(C([H])([H])[H])C([H])([H])[H])C([H])([H])c2c([H])c(OC([H])([H])C([H])([H])C([H])([H])n3nc(C([H])([H])[H])c(C([H])([H])C([H])([H])C([H])([H])N([H])C(=O)N4C([H])([H])C([H])([H])C([H])([H])C([H])(n5nc(-c6c([H])c([H])c(Oc7c([H])c([H])c(F)c([H])c7F)c([H])c6[H])c(C(=O)N([H])[H])c5N([H])[H])C4([H])[H])c3[H])c([H])c([H])c2C1([H])[H]

>  <smiles>  (78) 
[H]c1c([H])c([H])c2c(c1[H])C([H])([H])C([H])([H])C([H])([H])C2([H])N([H])C(=O)C1([H])N(C(=O)C([H])(N([H])C(=O)C([H])(N([H])C([H])([H])[H])C([H])([H])[H])C(C([H])([H])[H])(C([H])([H])[H])C([H])([H])[H])C([H])([H])c2c([H])c(OC([H])([H])C([H])([H])C([H])([H])n3nc(C([H])([H])[H])c(C([H])([H])C([H])([H])C([H])([H])N([H])C(=O)N4C([H])([H])C([H])([H])C([H])([H])C([H])(n5nc(-c6c([H])c([H])c(Oc7c([H])c([H])c(F)c([H])c7F)c([H])c6[H])c(C(=O)N([H])[H])c5N([H])[H])C4([H])[H])c3[H])c([H])c([H])c2C1([H])[H]

$$$$
78:0:0
     RDKit          3D

 89 97  0  0  1  0  0  0  0  0999 V2000
  -30.2970  -20.5850   19.2940 C   0  0  0  0  0  3  0  0  0  0  0  0
  -29.8230  -21.7310   20.1150 C   0  0  0  0  0  0  0  0  0  0  0  0
  -30.3610  -19.3460   19.9970 C   0  0  0  0  0  0  0  0  0  0  0  0
  -29.5880  -21.1510   21.3010 N   0  0  0  0  0  0  0  0  0  0  0  0
  -29.8930  -19.7900   21.2360 N   0  0  0  0  0  0  0  0  0  0  0  0
  -31.1710  -18.5500   22.9370 C   0  0  0  0  0  1  0  0  0  0  0  0
  -29.7900  -19.0120   22.4570 C   0  0  0  0  0  2  0  0  0  0  0  0
  -29.8870  -23.3990   19.9190 C   0  0  0  0  0  3  0  0  0  0  0  0
  -28.6840  -24.6080   19.8810 C   0  0  0  0  0  3  0  0  0  0  0  0
  -28.8940  -26.1730   19.9500 O   0  0  0  0  0  0  0  0  0  0  0  0
  -25.0720  -31.5890   23.2530 C   0  0  0  0  0  0  0  0  0  0  0  0
  -27.8110  -27.1380   19.9420 C   0  0  0  0  0  0  0  0  0  0  0  0
  -23.9260  -30.2620   21.5200 C   0  0  0  0  0  3  0  0  0  0  0  0
  -25.4300  -28.8270   20.0050 C   0  0  0  0  0  0  0  0  0  0  0  0
  -26.4720  -30.6160   21.3860 C   0  0  0  0  0  2  0  0  0  0  0  0
  -26.5930  -29.2660   20.6480 C   0  0  0  0  0  0  0  0  0  0  0  0
  -27.7840  -28.4420   20.5970 C   0  0  0  0  0  3  0  0  0  0  0  0
  -26.6150  -26.8080   19.2680 C   0  0  0  0  0  3  0  0  0  0  0  0
  -25.4550  -27.6130   19.3000 C   0  0  0  0  0  3  0  0  0  0  0  0
  -24.1750  -29.6830   20.1020 C   0  0  0  0  0  2  0  0  0  0  0  0
  -25.1760  -30.8420   22.1090 N   0  0  0  0  0  0  0  0  0  0  0  0
  -23.9750  -31.8010   23.7920 O   0  0  0  0  0  0  0  0  0  0  0  0
  -23.2770  -29.1740   22.4130 C   0  0  0  0  0  0  0  0  0  0  0  0
  -21.9700  -28.9210   22.2230 N   0  0  0  0  0  0  0  0  0  0  0  0
  -23.9550  -28.5610   23.2420 O   0  0  0  0  0  0  0  0  0  0  0  0
  -21.4770  -29.4740   21.5360 H   0  0  0  0  0  0  0  0  0  0  0  0
  -18.6650  -27.4600   22.5140 C   0  0  0  0  0  0  0  0  0  0  0  0
  -21.1820  -27.9000   22.9210 C   0  0  0  0  0  3  0  0  0  0  0  0
  -21.4170  -26.4990   22.3080 C   0  0  0  0  0  2  0  0  0  0  0  0
  -20.3940  -26.1330   21.2280 C   0  0  0  0  0  2  0  0  0  0  0  0
  -18.9750  -26.1530   21.8050 C   0  0  0  0  0  2  0  0  0  0  0  0
  -19.7010  -28.2870   23.0240 C   0  0  0  0  0  0  0  0  0  0  0  0
  -19.3590  -29.5060   23.6480 C   0  0  0  0  0  3  0  0  0  0  0  0
  -18.0130  -29.9020   23.7660 C   0  0  0  0  0  3  0  0  0  0  0  0
  -16.9910  -29.0750   23.2710 C   0  0  0  0  0  3  0  0  0  0  0  0
  -17.3180  -27.8540   22.6510 C   0  0  0  0  0  3  0  0  0  0  0  0
  -26.3250  -32.2260   23.9270 C   0  0  0  0  0  3  0  0  0  0  0  0
  -26.8440  -31.4050   25.1710 C   0  0  1  0  0  0  0  0  0  0  0  0
  -25.7420  -31.0780   26.2070 C   0  0  0  0  0  1  0  0  0  0  0  0
  -27.4760  -30.0680   24.7220 C   0  0  0  0  0  1  0  0  0  0  0  0
  -27.9580  -32.1990   25.8930 C   0  0  0  0  0  1  0  0  0  0  0  0
  -25.9680  -33.5950   24.3310 N   0  0  0  0  0  0  0  0  0  0  0  0
  -26.2420  -34.6990   23.6240 C   0  0  0  0  0  0  0  0  0  0  0  0
  -26.8880  -34.6730   22.5730 O   0  0  0  0  0  0  0  0  0  0  0  0
  -25.3860  -33.6850   25.1520 H   0  0  0  0  0  0  0  0  0  0  0  0
  -24.4270  -36.4340   23.4290 C   0  0  0  0  0  1  0  0  0  0  0  0
  -25.7180  -36.0460   24.1650 C   0  0  0  0  0  3  0  0  0  0  0  0
  -27.8440  -36.9920   24.9520 C   0  0  0  0  0  1  0  0  0  0  0  0
  -26.7010  -37.1470   24.0570 N   0  0  0  0  0  0  0  0  0  0  0  0
  -26.2620  -38.0420   24.2570 H   0  0  0  0  0  0  0  0  0  0  0  0
  -31.0090  -17.8570   19.5980 C   0  0  0  0  0  2  0  0  0  0  0  0
  -31.3320  -15.1370   19.7670 C   0  0  0  0  0  0  0  0  0  0  0  0
  -31.1810  -12.7400   18.9270 C   0  0  0  0  0  2  0  0  0  0  0  0
  -30.1610  -12.6140   17.7720 C   0  0  0  0  0  2  0  0  0  0  0  0
  -28.7430  -12.3850   18.3270 C   0  0  0  0  0  2  0  0  0  0  0  0
  -28.4030  -13.3490   19.4930 C   0  0  0  0  0  3  0  0  0  0  0  0
  -29.5410  -13.4460   20.5330 C   0  0  0  0  0  2  0  0  0  0  0  0
  -30.7440  -13.8680   19.8070 N   0  0  0  0  0  0  0  0  0  0  0  0
  -32.5110  -15.1770   19.3980 O   0  0  0  0  0  0  0  0  0  0  0  0
  -30.5850  -16.3530   19.9170 N   0  0  0  0  0  0  0  0  0  0  0  0
  -29.6190  -16.2260   20.1770 H   0  0  0  0  0  0  0  0  0  0  0  0
  -26.1300  -13.9210   20.5130 C   0  0  0  0  0  0  0  0  0  0  0  0
  -25.0870  -13.1440   20.9340 C   0  0  0  0  0  0  0  0  0  0  0  0
  -25.5070  -11.7890   20.7620 C   0  0  0  0  0  0  0  0  0  0  0  0
  -27.1170  -13.0400   20.1050 N   0  0  0  0  0  0  0  0  0  0  0  0
  -26.7590  -11.7480   20.3220 N   0  0  0  0  0  0  0  0  0  0  0  0
  -24.7670  -10.5320   20.9350 C   0  0  0  0  0  0  0  0  0  0  0  0
  -25.1420   -9.5800   21.9090 C   0  0  0  0  0  3  0  0  0  0  0  0
  -24.4000   -8.3900   22.0700 C   0  0  0  0  0  3  0  0  0  0  0  0
  -23.2690   -8.1420   21.2560 C   0  0  0  0  0  0  0  0  0  0  0  0
  -22.9140   -9.0830   20.2720 C   0  0  0  0  0  3  0  0  0  0  0  0
  -23.6560  -10.2640   20.1100 C   0  0  0  0  0  3  0  0  0  0  0  0
  -22.5040   -7.0030   21.3230 O   0  0  0  0  0  0  0  0  0  0  0  0
  -22.2050   -6.4080   22.5220 C   0  0  0  0  0  0  0  0  0  0  0  0
  -21.5180   -7.0970   23.5460 C   0  0  0  0  0  3  0  0  0  0  0  0
  -21.1690   -6.4260   24.7350 C   0  0  0  0  0  3  0  0  0  0  0  0
  -21.4950   -5.0670   24.8980 C   0  0  0  0  0  0  0  0  0  0  0  0
  -22.1730   -4.3770   23.8790 C   0  0  0  0  0  3  0  0  0  0  0  0
  -22.5240   -5.0460   22.6920 C   0  0  0  0  0  0  0  0  0  0  0  0
  -23.1580   -4.3700   21.7040 F   0  0  0  0  0  0  0  0  0  0  0  0
  -21.1530   -4.4200   26.0380 F   0  0  0  0  0  0  0  0  0  0  0  0
  -23.7370  -13.6300   21.3730 C   0  0  0  0  0  0  0  0  0  0  0  0
  -23.0880  -12.9050   22.2770 N   0  0  0  0  0  0  0  0  0  0  0  0
  -23.2720  -14.6880   20.9500 O   0  0  0  0  0  0  0  0  0  0  0  0
  -23.4800  -12.0490   22.6390 H   0  0  0  0  0  0  0  0  0  0  0  0
  -22.1860  -13.2130   22.6110 H   0  0  0  0  0  0  0  0  0  0  0  0
  -26.3140  -15.2960   20.4100 N   0  0  0  0  0  0  0  0  0  0  0  0
  -25.5720  -15.9530   20.6270 H   0  0  0  0  0  0  0  0  0  0  0  0
  -27.1060  -15.7330   19.9590 H   0  0  0  0  0  0  0  0  0  0  0  0
  1  3  2  0
  1  2  1  0
  2  4  2  0
  3  5  1  0
  5  4  1  0
  5  7  1  0
  7  6  1  0
  8  2  1  0
  9  8  2  0
  9 10  1  0
 11 22  2  0
 12 10  1  0
 12 17  1  0
 13 21  1  0
 13 23  1  0
 14 20  1  0
 14 16  1  0
 15 21  1  0
 16 15  1  0
 17 16  2  0
 18 19  1  0
 18 12  2  0
 19 14  2  0
 20 13  1  0
 21 11  1  0
 23 25  2  0
 24 23  1  0
 26 24  1  0
 27 36  2  0
 27 32  1  0
 28 24  1  0
 28 32  1  0
 29 28  1  0
 30 31  1  0
 30 29  1  0
 31 27  1  0
 32 33  2  0
 33 34  1  0
 35 34  2  0
 36 35  1  0
 37 11  1  0
 37 42  1  0
 37 38  1  0
 38 41  1  1
 38 39  1  0
 40 38  1  0
 42 45  1  0
 43 47  1  0
 43 42  1  0
 44 43  2  0
 47 46  1  0
 49 47  1  0
 49 50  1  0
 49 48  1  0
 51 60  1  0
 51  3  1  0
 52 58  1  0
 52 60  1  0
 53 58  1  0
 54 55  1  0
 54 53  1  0
 56 55  1  0
 56 65  1  0
 56 57  1  0
 58 57  1  0
 59 52  2  0
 60 61  1  0
 62 63  2  0
 63 82  1  0
 64 63  1  0
 64 67  1  0
 65 66  1  0
 65 62  1  0
 66 64  2  0
 67 68  1  0
 68 69  2  0
 70 73  1  0
 70 69  1  0
 71 70  2  0
 72 71  1  0
 72 67  2  0
 73 74  1  0
 74 79  2  0
 74 75  1  0
 75 76  2  0
 76 77  1  0
 77 81  1  0
 78 77  2  0
 79 78  1  0
 80 79  1  0
 82 83  1  0
 83 86  1  0
 83 85  1  0
 84 82  2  0
 87 62  1  0
 87 88  1  0
 89 87  1  0
M  ISO  4   9 101  10 101  52 100  60 100
M  END
>  <TORSDO>  (79) 
F 20

>  <SCORE>  (79) 
-10.498

>  <name>  (79) 
78

>  <ligand_id>  (79) 
78

>  <original_smiles>  (79) 
[H]c1c([H])c([H])c2c(c1[H])C([H])([H])C([H])([H])C([H])([H])C2([H])N([H])C(=O)C1([H])N(C(=O)C([H])(N([H])C(=O)C([H])(N([H])C([H])([H])[H])C([H])([H])[H])C(C([H])([H])[H])(C([H])([H])[H])C([H])([H])[H])C([H])([H])c2c([H])c(OC([H])([H])C([H])([H])c3nn(C([H])([H])C([H])([H])[H])c(C([H])([H])N([H])C(=O)N4C([H])([H])C([H])([H])C([H])([H])C([H])(n5nc(-c6c([H])c([H])c(Oc7c([H])c([H])c(F)c([H])c7F)c([H])c6[H])c(C(=O)N([H])[H])c5N([H])[H])C4([H])[H])c3[H])c([H])c([H])c2C1([H])[H]

>  <smiles>  (79) 
[H]c1c([H])c([H])c2c(c1[H])C([H])([H])C([H])([H])C([H])([H])C2([H])N([H])C(=O)C1([H])N(C(=O)C([H])(N([H])C(=O)C([H])(N([H])C([H])([H])[H])C([H])([H])[H])C(C([H])([H])[H])(C([H])([H])[H])C([H])([H])[H])C([H])([H])c2c([H])c(OC([H])([H])C([H])([H])c3nn(C([H])([H])C([H])([H])[H])c(C([H])([H])N([H])C(=O)N4C([H])([H])C([H])([H])C([H])([H])C([H])(n5nc(-c6c([H])c([H])c(Oc7c([H])c([H])c(F)c([H])c7F)c([H])c6[H])c(C(=O)N([H])[H])c5N([H])[H])C4([H])[H])c3[H])c([H])c([H])c2C1([H])[H]

$$$$
79:0:0
     RDKit          3D

 90 98  0  0  1  0  0  0  0  0999 V2000
  -27.2170  -20.8080   19.4230 C   0  0  0  0  0  3  0  0  0  0  0  0
  -27.0690  -22.9900   19.1010 C   0  0  0  0  0  3  0  0  0  0  0  0
  -28.2970  -21.3490   20.0820 C   0  0  0  0  0  0  0  0  0  0  0  0
  -28.2160  -22.8210   19.8420 C   0  0  0  0  0  0  0  0  0  0  0  0
  -25.2350  -21.5810   18.0940 C   0  0  0  0  0  1  0  0  0  0  0  0
  -26.4590  -21.7900   18.8480 N   0  0  0  0  0  0  0  0  0  0  0  0
  -29.2650  -20.3710   20.8520 C   0  0  0  0  0  2  0  0  0  0  0  0
  -29.0510  -18.7770   20.6420 C   0  0  0  0  0  3  0  0  0  0  0  0
  -30.1720  -17.7300   21.1140 C   0  0  0  0  0  3  0  0  0  0  0  0
  -30.6860  -15.1900   20.7330 C   0  0  0  0  0  0  0  0  0  0  0  0
  -30.5410  -13.0630   19.4530 C   0  0  0  0  0  2  0  0  0  0  0  0
  -29.6350  -13.3070   18.2240 C   0  0  0  0  0  2  0  0  0  0  0  0
  -28.1470  -13.1120   18.5860 C   0  0  0  0  0  2  0  0  0  0  0  0
  -27.7490  -13.8410   19.8970 C   0  0  0  0  0  3  0  0  0  0  0  0
  -28.7700  -13.5680   21.0230 C   0  0  0  0  0  2  0  0  0  0  0  0
  -30.0870  -13.9740   20.5210 N   0  0  0  0  0  0  0  0  0  0  0  0
  -31.8770  -15.3650   20.4580 O   0  0  0  0  0  0  0  0  0  0  0  0
  -29.8570  -16.2460   21.0450 N   0  0  0  0  0  0  0  0  0  0  0  0
  -28.8980  -15.9870   21.2260 H   0  0  0  0  0  0  0  0  0  0  0  0
  -25.3050  -14.3690   20.4700 C   0  0  0  0  0  0  0  0  0  0  0  0
  -24.2450  -13.5640   20.7920 C   0  0  0  0  0  0  0  0  0  0  0  0
  -24.7550  -12.2300   20.8140 C   0  0  0  0  0  0  0  0  0  0  0  0
  -26.3870  -13.5200   20.3080 N   0  0  0  0  0  0  0  0  0  0  0  0
  -26.0600  -12.2300   20.5780 N   0  0  0  0  0  0  0  0  0  0  0  0
  -24.0620  -10.9450   20.9860 C   0  0  0  0  0  0  0  0  0  0  0  0
  -24.4700  -10.0120   21.9640 C   0  0  0  0  0  3  0  0  0  0  0  0
  -23.7760   -8.7920   22.1210 C   0  0  0  0  0  3  0  0  0  0  0  0
  -22.6610   -8.4980   21.3010 C   0  0  0  0  0  0  0  0  0  0  0  0
  -22.2750   -9.4210   20.3120 C   0  0  0  0  0  3  0  0  0  0  0  0
  -22.9690  -10.6320   20.1520 C   0  0  0  0  0  3  0  0  0  0  0  0
  -21.9420   -7.3280   21.3660 O   0  0  0  0  0  0  0  0  0  0  0  0
  -21.8500   -6.6050   22.5280 C   0  0  0  0  0  0  0  0  0  0  0  0
  -21.3200   -7.1630   23.7120 C   0  0  0  0  0  3  0  0  0  0  0  0
  -21.1790   -6.3640   24.8640 C   0  0  0  0  0  3  0  0  0  0  0  0
  -21.5550   -5.0080   24.8320 C   0  0  0  0  0  0  0  0  0  0  0  0
  -22.0790   -4.4510   23.6520 C   0  0  0  0  0  3  0  0  0  0  0  0
  -22.2240   -5.2460   22.5030 C   0  0  0  0  0  0  0  0  0  0  0  0
  -22.7080   -4.6990   21.3620 F   0  0  0  0  0  0  0  0  0  0  0  0
  -21.4120   -4.2380   25.9360 F   0  0  0  0  0  0  0  0  0  0  0  0
  -22.8190  -13.9970   20.9680 C   0  0  0  0  0  0  0  0  0  0  0  0
  -22.0680  -13.3040   21.8190 N   0  0  0  0  0  0  0  0  0  0  0  0
  -22.3750  -14.9860   20.3890 O   0  0  0  0  0  0  0  0  0  0  0  0
  -22.4380  -12.5060   22.3130 H   0  0  0  0  0  0  0  0  0  0  0  0
  -21.1080  -13.5760   21.9790 H   0  0  0  0  0  0  0  0  0  0  0  0
  -25.4340  -15.7410   20.2790 N   0  0  0  0  0  0  0  0  0  0  0  0
  -24.6530  -16.3810   20.3740 H   0  0  0  0  0  0  0  0  0  0  0  0
  -26.2750  -16.1950   19.9460 H   0  0  0  0  0  0  0  0  0  0  0  0
  -29.1100  -24.0900   20.1800 C   0  0  0  0  0  2  0  0  0  0  0  0
  -28.3580  -25.4380   20.6710 C   0  0  0  0  0  2  0  0  0  0  0  0
  -28.6790  -26.8240   20.1980 O   0  0  0  0  0  0  0  0  0  0  0  0
  -24.6830  -31.9720   23.3470 C   0  0  0  0  0  0  0  0  0  0  0  0
  -27.5860  -27.7060   20.1350 C   0  0  0  0  0  0  0  0  0  0  0  0
  -23.6060  -30.6210   21.5870 C   0  0  0  0  0  3  0  0  0  0  0  0
  -25.1720  -29.2360   20.1170 C   0  0  0  0  0  0  0  0  0  0  0  0
  -26.1340  -31.0590   21.5180 C   0  0  0  0  0  2  0  0  0  0  0  0
  -26.2970  -29.7270   20.7940 C   0  0  0  0  0  0  0  0  0  0  0  0
  -27.5120  -28.9730   20.7980 C   0  0  0  0  0  3  0  0  0  0  0  0
  -26.4540  -27.3000   19.3980 C   0  0  0  0  0  3  0  0  0  0  0  0
  -25.2550  -28.0310   19.4080 C   0  0  0  0  0  3  0  0  0  0  0  0
  -23.8970  -30.0490   20.1750 C   0  0  0  0  0  2  0  0  0  0  0  0
  -24.8250  -31.2340   22.2070 N   0  0  0  0  0  0  0  0  0  0  0  0
  -23.5690  -32.1690   23.8530 O   0  0  0  0  0  0  0  0  0  0  0  0
  -22.9600  -29.5170   22.4600 C   0  0  0  0  0  0  0  0  0  0  0  0
  -21.6460  -29.2990   22.2810 N   0  0  0  0  0  0  0  0  0  0  0  0
  -23.6410  -28.8670   23.2570 O   0  0  0  0  0  0  0  0  0  0  0  0
  -21.1560  -29.8780   21.6150 H   0  0  0  0  0  0  0  0  0  0  0  0
  -18.2830  -28.0290   22.7050 C   0  0  0  0  0  0  0  0  0  0  0  0
  -20.8440  -28.2840   22.9680 C   0  0  0  0  0  3  0  0  0  0  0  0
  -20.9490  -26.9160   22.2580 C   0  0  0  0  0  2  0  0  0  0  0  0
  -19.8380  -26.6810   21.2300 C   0  0  0  0  0  2  0  0  0  0  0  0
  -18.4630  -26.7520   21.9010 C   0  0  0  0  0  2  0  0  0  0  0  0
  -19.4020  -28.7560   23.1920 C   0  0  0  0  0  0  0  0  0  0  0  0
  -19.1820  -29.9540   23.9060 C   0  0  0  0  0  3  0  0  0  0  0  0
  -17.8760  -30.4270   24.1350 C   0  0  0  0  0  3  0  0  0  0  0  0
  -16.7720  -29.6940   23.6640 C   0  0  0  0  0  3  0  0  0  0  0  0
  -16.9760  -28.4980   22.9540 C   0  0  0  0  0  3  0  0  0  0  0  0
  -25.9130  -32.6250   24.0480 C   0  0  0  0  0  3  0  0  0  0  0  0
  -25.5680  -34.0260   24.3380 N   0  0  0  0  0  0  0  0  0  0  0  0
  -25.9260  -35.0710   23.5810 C   0  0  0  0  0  0  0  0  0  0  0  0
  -26.6550  -34.9600   22.5910 O   0  0  0  0  0  0  0  0  0  0  0  0
  -24.9290  -34.1840   25.1030 H   0  0  0  0  0  0  0  0  0  0  0  0
  -24.1860  -36.8250   23.1110 C   0  0  0  0  0  1  0  0  0  0  0  0
  -25.3950  -36.4610   23.9880 C   0  0  0  0  0  3  0  0  0  0  0  0
  -27.4660  -37.4060   24.9040 C   0  0  0  0  0  1  0  0  0  0  0  0
  -26.4130  -37.5290   23.9000 N   0  0  0  0  0  0  0  0  0  0  0  0
  -25.9860  -38.4440   23.9980 H   0  0  0  0  0  0  0  0  0  0  0  0
  -26.3390  -31.8760   25.3700 C   0  0  1  0  0  0  0  0  0  0  0  0
  -25.1660  -31.6040   26.3400 C   0  0  0  0  0  1  0  0  0  0  0  0
  -27.0000  -30.5170   25.0380 C   0  0  0  0  0  1  0  0  0  0  0  0
  -27.4030  -32.7070   26.1240 C   0  0  0  0  0  1  0  0  0  0  0  0
  1  3  2  0
  2  4  2  0
  3  7  1  0
  4  3  1  0
  4 48  1  0
  5  6  1  0
  6  2  1  0
  6  1  1  0
  8  7  1  0
  8  9  2  0
 10 18  1  0
 11 16  1  0
 12 13  1  0
 12 11  1  0
 14 13  1  0
 14 23  1  0
 14 15  1  0
 16 10  1  0
 16 15  1  0
 17 10  2  0
 18  9  1  0
 18 19  1  0
 20 21  2  0
 21 22  1  0
 21 40  1  0
 22 25  1  0
 23 20  1  0
 23 24  1  0
 24 22  2  0
 25 26  1  0
 26 27  2  0
 28 31  1  0
 28 27  1  0
 29 28  2  0
 30 29  1  0
 30 25  2  0
 31 32  1  0
 32 33  1  0
 33 34  2  0
 35 34  1  0
 35 39  1  0
 36 35  2  0
 37 32  2  0
 37 36  1  0
 38 37  1  0
 40 41  1  0
 41 44  1  0
 41 43  1  0
 42 40  2  0
 45 46  1  0
 45 20  1  0
 47 45  1  0
 48 49  1  0
 50 49  1  0
 51 62  2  0
 52 50  1  0
 52 57  1  0
 53 61  1  0
 53 63  1  0
 54 60  1  0
 54 56  1  0
 55 61  1  0
 56 57  2  0
 56 55  1  0
 58 59  1  0
 58 52  2  0
 59 54  2  0
 60 53  1  0
 61 51  1  0
 63 65  2  0
 64 63  1  0
 66 64  1  0
 67 76  2  0
 67 72  1  0
 68 64  1  0
 68 72  1  0
 69 68  1  0
 70 71  1  0
 70 69  1  0
 71 67  1  0
 72 73  2  0
 73 74  1  0
 75 74  2  0
 76 75  1  0
 77 51  1  0
 77 78  1  0
 77 87  1  0
 78 81  1  0
 79 83  1  0
 79 78  1  0
 80 79  2  0
 83 82  1  0
 85 83  1  0
 85 86  1  0
 85 84  1  0
 87 90  1  1
 87 88  1  0
 89 87  1  0
M  ISO  4  10 100  18 100  49 101  50 101
M  END
>  <TORSDO>  (80) 
F 21

>  <SCORE>  (80) 
-12.934

>  <name>  (80) 
79

>  <ligand_id>  (80) 
79

>  <original_smiles>  (80) 
[H]c1c([H])c([H])c2c(c1[H])C([H])([H])C([H])([H])C([H])([H])C2([H])N([H])C(=O)C1([H])N(C(=O)C([H])(N([H])C(=O)C([H])(N([H])C([H])([H])[H])C([H])([H])[H])C(C([H])([H])[H])(C([H])([H])[H])C([H])([H])[H])C([H])([H])c2c([H])c(OC([H])([H])C([H])([H])c3c(C([H])([H])C([H])([H])C([H])([H])N([H])C(=O)N4C([H])([H])C([H])([H])C([H])([H])C([H])(n5nc(-c6c([H])c([H])c(Oc7c([H])c([H])c(F)c([H])c7F)c([H])c6[H])c(C(=O)N([H])[H])c5N([H])[H])C4([H])[H])c([H])n(C([H])([H])[H])c3[H])c([H])c([H])c2C1([H])[H]

>  <smiles>  (80) 
[H]c1c([H])c([H])c2c(c1[H])C([H])([H])C([H])([H])C([H])([H])C2([H])N([H])C(=O)C1([H])N(C(=O)C([H])(N([H])C(=O)C([H])(N([H])C([H])([H])[H])C([H])([H])[H])C(C([H])([H])[H])(C([H])([H])[H])C([H])([H])[H])C([H])([H])c2c([H])c(OC([H])([H])C([H])([H])c3c(C([H])([H])C([H])([H])C([H])([H])N([H])C(=O)N4C([H])([H])C([H])([H])C([H])([H])C([H])(n5nc(-c6c([H])c([H])c(Oc7c([H])c([H])c(F)c([H])c7F)c([H])c6[H])c(C(=O)N([H])[H])c5N([H])[H])C4([H])[H])c([H])n(C([H])([H])[H])c3[H])c([H])c([H])c2C1([H])[H]

$$$$
80:0:0
     RDKit          3D

 89 97  0  0  1  0  0  0  0  0999 V2000
  -28.6310  -21.4640   20.2350 C   0  0  0  0  0  3  0  0  0  0  0  0
  -29.1890  -17.8120   19.4710 C   0  0  0  0  0  3  0  0  0  0  0  0
  -29.9890  -17.3380   20.5490 C   0  0  0  0  0  0  0  0  0  0  0  0
  -30.1890  -19.5810   21.2520 C   0  0  0  0  0  0  0  0  0  0  0  0
  -29.3060  -20.0400   20.2300 C   0  0  0  0  0  0  0  0  0  0  0  0
  -30.7660  -20.5290   22.2870 C   0  0  0  0  0  1  0  0  0  0  0  0
  -28.8580  -19.1340   19.3120 N   0  0  0  0  0  0  0  0  0  0  0  0
  -30.5180  -18.2600   21.4070 N   0  0  0  0  0  0  0  0  0  0  0  0
  -29.9710  -15.8440   21.0340 C   0  0  0  0  0  2  0  0  0  0  0  0
  -30.7050  -14.6610   20.2810 C   0  0  0  0  0  0  0  0  0  0  0  0
  -30.4650  -12.4660   19.1070 C   0  0  0  0  0  2  0  0  0  0  0  0
  -29.4940  -12.6580   17.9200 C   0  0  0  0  0  2  0  0  0  0  0  0
  -28.0230  -12.5070   18.3690 C   0  0  0  0  0  2  0  0  0  0  0  0
  -27.7110  -13.3150   19.6570 C   0  0  0  0  0  3  0  0  0  0  0  0
  -28.7930  -13.0730   20.7350 C   0  0  0  0  0  2  0  0  0  0  0  0
  -30.0910  -13.4400   20.1500 N   0  0  0  0  0  0  0  0  0  0  0  0
  -31.8180  -14.8570   19.7790 O   0  0  0  0  0  0  0  0  0  0  0  0
  -25.3260  -13.9310   20.4020 C   0  0  0  0  0  0  0  0  0  0  0  0
  -24.2600  -13.1660   20.7860 C   0  0  0  0  0  0  0  0  0  0  0  0
  -24.7130  -11.8110   20.7500 C   0  0  0  0  0  0  0  0  0  0  0  0
  -26.3650  -13.0440   20.1560 N   0  0  0  0  0  0  0  0  0  0  0  0
  -25.9990  -11.7640   20.4230 N   0  0  0  0  0  0  0  0  0  0  0  0
  -23.9820  -10.5550   20.9500 C   0  0  0  0  0  0  0  0  0  0  0  0
  -24.4010   -9.6000   21.9040 C   0  0  0  0  0  3  0  0  0  0  0  0
  -23.6700   -8.4060   22.0900 C   0  0  0  0  0  3  0  0  0  0  0  0
  -22.5080   -8.1580   21.3210 C   0  0  0  0  0  0  0  0  0  0  0  0
  -22.1080   -9.1020   20.3580 C   0  0  0  0  0  3  0  0  0  0  0  0
  -22.8400  -10.2870   20.1700 C   0  0  0  0  0  3  0  0  0  0  0  0
  -21.7480   -7.0180   21.4160 O   0  0  0  0  0  0  0  0  0  0  0  0
  -21.6540   -6.3110   22.5880 C   0  0  0  0  0  0  0  0  0  0  0  0
  -21.1720   -6.9000   23.7770 C   0  0  0  0  0  3  0  0  0  0  0  0
  -21.0230   -6.1180   24.9390 C   0  0  0  0  0  3  0  0  0  0  0  0
  -21.3510   -4.7500   24.9160 C   0  0  0  0  0  0  0  0  0  0  0  0
  -21.8290   -4.1610   23.7330 C   0  0  0  0  0  3  0  0  0  0  0  0
  -21.9780   -4.9390   22.5720 C   0  0  0  0  0  0  0  0  0  0  0  0
  -22.4170   -4.3620   21.4270 F   0  0  0  0  0  0  0  0  0  0  0  0
  -21.2020   -3.9970   26.0320 F   0  0  0  0  0  0  0  0  0  0  0  0
  -22.8680  -13.6520   21.0780 C   0  0  0  0  0  0  0  0  0  0  0  0
  -22.1470  -12.9600   21.9510 N   0  0  0  0  0  0  0  0  0  0  0  0
  -22.4310  -14.6830   20.5660 O   0  0  0  0  0  0  0  0  0  0  0  0
  -22.5150  -12.1280   22.3900 H   0  0  0  0  0  0  0  0  0  0  0  0
  -21.2140  -13.2660   22.1870 H   0  0  0  0  0  0  0  0  0  0  0  0
  -25.4920  -15.3010   20.2190 N   0  0  0  0  0  0  0  0  0  0  0  0
  -24.7190  -15.9480   20.3280 H   0  0  0  0  0  0  0  0  0  0  0  0
  -26.3240  -15.7400   19.8470 H   0  0  0  0  0  0  0  0  0  0  0  0
  -29.4340  -22.7550   19.8070 C   0  0  0  0  0  3  0  0  0  0  0  0
  -28.6510  -24.0970   19.4340 C   0  0  0  0  0  2  0  0  0  0  0  0
  -28.3420  -25.1800   20.5400 C   0  0  0  0  0  2  0  0  0  0  0  0
  -28.3980  -26.5900   20.1320 O   0  0  0  0  0  0  0  0  0  0  0  0
  -24.5930  -31.8690   23.2200 C   0  0  0  0  0  0  0  0  0  0  0  0
  -27.2380  -27.3610   20.1540 C   0  0  0  0  0  0  0  0  0  0  0  0
  -23.3970  -30.4660   21.5730 C   0  0  0  0  0  3  0  0  0  0  0  0
  -24.8540  -28.9210   20.1520 C   0  0  0  0  0  0  0  0  0  0  0  0
  -25.9290  -30.8110   21.3830 C   0  0  0  0  0  2  0  0  0  0  0  0
  -26.0180  -29.4340   20.7410 C   0  0  0  0  0  0  0  0  0  0  0  0
  -27.2150  -28.6660   20.7250 C   0  0  0  0  0  3  0  0  0  0  0  0
  -26.0530  -26.8780   19.5630 C   0  0  0  0  0  3  0  0  0  0  0  0
  -24.8720  -27.6480   19.5550 C   0  0  0  0  0  3  0  0  0  0  0  0
  -23.6120  -29.7880   20.1940 C   0  0  0  0  0  2  0  0  0  0  0  0
  -24.6590  -31.0660   22.1170 N   0  0  0  0  0  0  0  0  0  0  0  0
  -23.5110  -32.1380   23.7570 O   0  0  0  0  0  0  0  0  0  0  0  0
  -22.7410  -29.4470   22.5330 C   0  0  0  0  0  0  0  0  0  0  0  0
  -21.4130  -29.2740   22.4160 N   0  0  0  0  0  0  0  0  0  0  0  0
  -23.4240  -28.8130   23.3420 O   0  0  0  0  0  0  0  0  0  0  0  0
  -20.9220  -29.8420   21.7410 H   0  0  0  0  0  0  0  0  0  0  0  0
  -18.0320  -28.0950   22.9260 C   0  0  0  0  0  0  0  0  0  0  0  0
  -20.5940  -28.3340   23.1840 C   0  0  0  0  0  3  0  0  0  0  0  0
  -20.6810  -26.9070   22.5960 C   0  0  0  0  0  2  0  0  0  0  0  0
  -19.5710  -26.6020   21.5850 C   0  0  0  0  0  2  0  0  0  0  0  0
  -18.1940  -26.7500   22.2390 C   0  0  0  0  0  2  0  0  0  0  0  0
  -19.1580  -28.8460   23.3560 C   0  0  0  0  0  0  0  0  0  0  0  0
  -18.9520  -30.1050   23.9600 C   0  0  0  0  0  3  0  0  0  0  0  0
  -17.6520  -30.6140   24.1390 C   0  0  0  0  0  3  0  0  0  0  0  0
  -16.5400  -29.8590   23.7260 C   0  0  0  0  0  3  0  0  0  0  0  0
  -16.7300  -28.6020   23.1260 C   0  0  0  0  0  3  0  0  0  0  0  0
  -25.8750  -32.5030   23.8460 C   0  0  0  0  0  3  0  0  0  0  0  0
  -25.5610  -33.8990   24.1820 N   0  0  0  0  0  0  0  0  0  0  0  0
  -25.8950  -34.9570   23.4280 C   0  0  0  0  0  0  0  0  0  0  0  0
  -26.5670  -34.8590   22.3980 O   0  0  0  0  0  0  0  0  0  0  0  0
  -24.9620  -34.0500   24.9800 H   0  0  0  0  0  0  0  0  0  0  0  0
  -24.1700  -36.7530   23.0710 C   0  0  0  0  0  1  0  0  0  0  0  0
  -25.4040  -36.3430   23.8910 C   0  0  0  0  0  3  0  0  0  0  0  0
  -27.5340  -37.2220   24.7400 C   0  0  0  0  0  1  0  0  0  0  0  0
  -26.4360  -37.3980   23.7910 N   0  0  0  0  0  0  0  0  0  0  0  0
  -26.0300  -38.3160   23.9460 H   0  0  0  0  0  0  0  0  0  0  0  0
  -26.3920  -31.7300   25.1200 C   0  0  1  0  0  0  0  0  0  0  0  0
  -25.2990  -31.4870   26.1880 C   0  0  0  0  0  1  0  0  0  0  0  0
  -26.9750  -30.3550   24.7180 C   0  0  0  0  0  1  0  0  0  0  0  0
  -27.5450  -32.5230   25.7820 C   0  0  0  0  0  1  0  0  0  0  0  0
  2  3  1  0
  3  9  1  0
  3  8  2  0
  4  8  1  0
  4  6  1  0
  5  1  1  0
  5  4  2  0
  7  2  2  0
  7  5  1  0
 10  9  1  0
 11 16  1  0
 12 13  1  0
 12 11  1  0
 14 13  1  0
 14 21  1  0
 14 15  1  0
 16 10  1  0
 16 15  1  0
 17 10  2  0
 18 19  2  0
 19 38  1  0
 20 19  1  0
 20 23  1  0
 21 18  1  0
 21 22  1  0
 22 20  2  0
 23 24  1  0
 24 25  2  0
 26 29  1  0
 26 25  1  0
 27 26  2  0
 28 27  1  0
 28 23  2  0
 29 30  1  0
 30 31  1  0
 31 32  2  0
 33 32  1  0
 33 37  1  0
 34 33  2  0
 35 30  2  0
 35 34  1  0
 36 35  1  0
 38 39  1  0
 39 42  1  0
 39 41  1  0
 40 38  2  0
 43 44  1  0
 43 18  1  0
 45 43  1  0
 46  1  2  0
 47 46  1  0
 47 48  1  0
 49 51  1  0
 49 48  1  0
 50 61  2  0
 51 56  1  0
 52 60  1  0
 52 62  1  0
 53 59  1  0
 53 55  1  0
 54 60  1  0
 55 54  1  0
 56 55  2  0
 57 51  2  0
 58 57  1  0
 58 53  2  0
 59 52  1  0
 60 50  1  0
 62 64  2  0
 63 62  1  0
 65 63  1  0
 66 75  2  0
 66 71  1  0
 67 63  1  0
 67 71  1  0
 68 67  1  0
 69 70  1  0
 69 68  1  0
 70 66  1  0
 71 72  2  0
 72 73  1  0
 74 73  2  0
 75 74  1  0
 76 50  1  0
 76 77  1  0
 76 86  1  0
 77 80  1  0
 78 82  1  0
 78 77  1  0
 79 78  2  0
 82 81  1  0
 84 82  1  0
 84 85  1  0
 84 83  1  0
 86 89  1  1
 86 87  1  0
 88 86  1  0
M  ISO  4   9 100  10 100  48 101  49 101
M  END
>  <TORSDO>  (81) 
F 21

>  <SCORE>  (81) 
-13.542

>  <name>  (81) 
80

>  <ligand_id>  (81) 
80

>  <original_smiles>  (81) 
[H]c1nc(C([H])([H])C([H])([H])C([H])([H])C([H])([H])Oc2c([H])c([H])c3c(c2[H])C([H])([H])N(C(=O)C([H])(N([H])C(=O)C([H])(N([H])C([H])([H])[H])C([H])([H])[H])C(C([H])([H])[H])(C([H])([H])[H])C([H])([H])[H])C([H])(C(=O)N([H])C2([H])c4c([H])c([H])c([H])c([H])c4C([H])([H])C([H])([H])C2([H])[H])C3([H])[H])c(C([H])([H])[H])nc1C([H])([H])C(=O)N1C([H])([H])C([H])([H])C([H])([H])C([H])(n2nc(-c3c([H])c([H])c(Oc4c([H])c([H])c(F)c([H])c4F)c([H])c3[H])c(C(=O)N([H])[H])c2N([H])[H])C1([H])[H]

>  <smiles>  (81) 
[H]c1nc(C([H])([H])C([H])([H])C([H])([H])C([H])([H])Oc2c([H])c([H])c3c(c2[H])C([H])([H])N(C(=O)C([H])(N([H])C(=O)C([H])(N([H])C([H])([H])[H])C([H])([H])[H])C(C([H])([H])[H])(C([H])([H])[H])C([H])([H])[H])C([H])(C(=O)N([H])C2([H])c4c([H])c([H])c([H])c([H])c4C([H])([H])C([H])([H])C2([H])[H])C3([H])[H])c(C([H])([H])[H])nc1C([H])([H])C(=O)N1C([H])([H])C([H])([H])C([H])([H])C([H])(n2nc(-c3c([H])c([H])c(Oc4c([H])c([H])c(F)c([H])c4F)c([H])c3[H])c(C(=O)N([H])[H])c2N([H])[H])C1([H])[H]

$$$$
81:0:0
     RDKit          3D

 93101  0  0  1  0  0  0  0  0999 V2000
  -31.2640  -22.3790   21.6900 C   0  0  0  0  0  3  0  0  0  0  0  0
  -30.7790  -21.0660   21.7680 C   0  0  0  0  0  3  0  0  0  0  0  0
  -30.5350  -23.3500   20.9760 C   0  0  0  0  0  0  0  0  0  0  0  0
  -29.5680  -20.7410   21.1390 C   0  0  0  0  0  0  0  0  0  0  0  0
  -29.2930  -22.9770   20.3980 C   0  0  0  0  0  0  0  0  0  0  0  0
  -28.8340  -21.6860   20.4760 N   0  0  0  0  0  0  0  0  0  0  0  0
  -31.1190  -24.7600   20.8690 C   0  0  0  0  0  2  0  0  0  0  0  0
  -32.1810  -24.3660   18.5620 C   0  0  0  0  0  1  0  0  0  0  0  0
  -32.3880  -24.8450   20.0040 C   0  0  0  0  0  2  0  0  0  0  0  0
  -29.0590  -19.2830   21.2410 C   0  0  0  0  0  2  0  0  0  0  0  0
  -29.9100  -18.2190   20.4710 C   0  0  0  0  0  3  0  0  0  0  0  0
  -29.6090  -16.6930   20.7690 C   0  0  0  0  0  3  0  0  0  0  0  0
  -30.9130  -14.5970   20.1130 C   0  0  0  0  0  0  0  0  0  0  0  0
  -30.5630  -12.4040   19.0440 C   0  0  0  0  0  2  0  0  0  0  0  0
  -29.5830  -12.5770   17.8640 C   0  0  0  0  0  2  0  0  0  0  0  0
  -28.1230  -12.4720   18.3440 C   0  0  0  0  0  2  0  0  0  0  0  0
  -27.8290  -13.3160   19.6140 C   0  0  0  0  0  3  0  0  0  0  0  0
  -28.9280  -13.1440   20.6860 C   0  0  0  0  0  2  0  0  0  0  0  0
  -30.2170  -13.4260   20.0440 N   0  0  0  0  0  0  0  0  0  0  0  0
  -32.1200  -14.6390   19.8610 O   0  0  0  0  0  0  0  0  0  0  0  0
  -30.3720  -16.2560   18.4480 C   0  0  0  0  0  1  0  0  0  0  0  0
  -30.1750  -15.7060   19.7970 N   0  0  0  0  0  0  0  0  0  0  0  0
  -25.4630  -13.9200   20.4170 C   0  0  0  0  0  0  0  0  0  0  0  0
  -24.4050  -13.1480   20.8130 C   0  0  0  0  0  0  0  0  0  0  0  0
  -24.8600  -11.7950   20.7570 C   0  0  0  0  0  0  0  0  0  0  0  0
  -26.4960  -13.0380   20.1460 N   0  0  0  0  0  0  0  0  0  0  0  0
  -26.1410  -11.7540   20.4130 N   0  0  0  0  0  0  0  0  0  0  0  0
  -24.1350  -10.5340   20.9520 C   0  0  0  0  0  0  0  0  0  0  0  0
  -24.5690   -9.5710   21.8900 C   0  0  0  0  0  3  0  0  0  0  0  0
  -23.8430   -8.3750   22.0760 C   0  0  0  0  0  3  0  0  0  0  0  0
  -22.6690   -8.1320   21.3250 C   0  0  0  0  0  0  0  0  0  0  0  0
  -22.2550   -9.0830   20.3760 C   0  0  0  0  0  3  0  0  0  0  0  0
  -22.9800  -10.2720   20.1880 C   0  0  0  0  0  3  0  0  0  0  0  0
  -21.9150   -6.9880   21.4190 O   0  0  0  0  0  0  0  0  0  0  0  0
  -21.8370   -6.2700   22.5860 C   0  0  0  0  0  0  0  0  0  0  0  0
  -21.3160   -6.8300   23.7730 C   0  0  0  0  0  3  0  0  0  0  0  0
  -21.1960   -6.0360   24.9320 C   0  0  0  0  0  3  0  0  0  0  0  0
  -21.5830   -4.6830   24.9020 C   0  0  0  0  0  0  0  0  0  0  0  0
  -22.0940   -4.1230   23.7190 C   0  0  0  0  0  3  0  0  0  0  0  0
  -22.2190   -4.9140   22.5640 C   0  0  0  0  0  0  0  0  0  0  0  0
  -22.6940   -4.3630   21.4210 F   0  0  0  0  0  0  0  0  0  0  0  0
  -21.4570   -3.9190   26.0120 F   0  0  0  0  0  0  0  0  0  0  0  0
  -23.0170  -13.6260   21.1280 C   0  0  0  0  0  0  0  0  0  0  0  0
  -22.3120  -12.9270   22.0090 N   0  0  0  0  0  0  0  0  0  0  0  0
  -22.5680  -14.6570   20.6280 O   0  0  0  0  0  0  0  0  0  0  0  0
  -22.6870  -12.0940   22.4370 H   0  0  0  0  0  0  0  0  0  0  0  0
  -21.3820  -13.2310   22.2620 H   0  0  0  0  0  0  0  0  0  0  0  0
  -25.6300  -15.2910   20.2430 N   0  0  0  0  0  0  0  0  0  0  0  0
  -24.8710  -15.9510   20.3790 H   0  0  0  0  0  0  0  0  0  0  0  0
  -26.4720  -15.7220   19.8830 H   0  0  0  0  0  0  0  0  0  0  0  0
  -28.4440  -24.0120   19.6150 C   0  0  0  0  0  2  0  0  0  0  0  0
  -27.8840  -25.2190   20.4430 C   0  0  0  0  0  2  0  0  0  0  0  0
  -28.0290  -26.5300   19.8260 O   0  0  0  0  0  0  0  0  0  0  0  0
  -24.4470  -31.7800   23.1060 C   0  0  0  0  0  0  0  0  0  0  0  0
  -26.9090  -27.3380   19.8600 C   0  0  0  0  0  0  0  0  0  0  0  0
  -23.1750  -30.4490   21.4570 C   0  0  0  0  0  3  0  0  0  0  0  0
  -24.5610  -28.9220   19.9520 C   0  0  0  0  0  0  0  0  0  0  0  0
  -25.7050  -30.7530   21.2110 C   0  0  0  0  0  2  0  0  0  0  0  0
  -25.7460  -29.3970   20.5300 C   0  0  0  0  0  0  0  0  0  0  0  0
  -26.9270  -28.6150   20.4780 C   0  0  0  0  0  3  0  0  0  0  0  0
  -25.7120  -26.8890   19.2670 C   0  0  0  0  0  3  0  0  0  0  0  0
  -24.5400  -27.6680   19.3180 C   0  0  0  0  0  3  0  0  0  0  0  0
  -23.3380  -29.8080   20.0530 C   0  0  0  0  0  2  0  0  0  0  0  0
  -24.4620  -31.0070   21.9830 N   0  0  0  0  0  0  0  0  0  0  0  0
  -23.3850  -32.0610   23.6780 O   0  0  0  0  0  0  0  0  0  0  0  0
  -22.5250  -29.4150   22.4030 C   0  0  0  0  0  0  0  0  0  0  0  0
  -21.1980  -29.2470   22.2900 N   0  0  0  0  0  0  0  0  0  0  0  0
  -23.2130  -28.7670   23.1970 O   0  0  0  0  0  0  0  0  0  0  0  0
  -20.7030  -29.8210   21.6200 H   0  0  0  0  0  0  0  0  0  0  0  0
  -17.8190  -28.0750   22.8110 C   0  0  0  0  0  0  0  0  0  0  0  0
  -20.3830  -28.3010   23.0520 C   0  0  0  0  0  3  0  0  0  0  0  0
  -20.4640  -26.8810   22.4420 C   0  0  0  0  0  2  0  0  0  0  0  0
  -19.3440  -26.5930   21.4370 C   0  0  0  0  0  2  0  0  0  0  0  0
  -17.9720  -26.7400   22.1030 C   0  0  0  0  0  2  0  0  0  0  0  0
  -18.9520  -28.8160   23.2420 C   0  0  0  0  0  0  0  0  0  0  0  0
  -18.7570  -30.0680   23.8630 C   0  0  0  0  0  3  0  0  0  0  0  0
  -17.4610  -30.5820   24.0560 C   0  0  0  0  0  3  0  0  0  0  0  0
  -16.3420  -29.8390   23.6410 C   0  0  0  0  0  3  0  0  0  0  0  0
  -16.5230  -28.5870   23.0270 C   0  0  0  0  0  3  0  0  0  0  0  0
  -25.7610  -32.3680   23.7090 C   0  0  0  0  0  3  0  0  0  0  0  0
  -25.4970  -33.7700   24.0610 N   0  0  0  0  0  0  0  0  0  0  0  0
  -25.8640  -34.8230   23.3180 C   0  0  0  0  0  0  0  0  0  0  0  0
  -26.5320  -34.7150   22.2870 O   0  0  0  0  0  0  0  0  0  0  0  0
  -24.9060  -33.9300   24.8630 H   0  0  0  0  0  0  0  0  0  0  0  0
  -24.2200  -36.6920   22.9550 C   0  0  0  0  0  1  0  0  0  0  0  0
  -25.4170  -36.2190   23.7950 C   0  0  0  0  0  3  0  0  0  0  0  0
  -27.5510  -37.0020   24.7210 C   0  0  0  0  0  1  0  0  0  0  0  0
  -26.4930  -37.2330   23.7430 N   0  0  0  0  0  0  0  0  0  0  0  0
  -26.1170  -38.1630   23.8970 H   0  0  0  0  0  0  0  0  0  0  0  0
  -26.2810  -31.5670   24.9650 C   0  0  1  0  0  0  0  0  0  0  0  0
  -25.2020  -31.3440   26.0500 C   0  0  0  0  0  1  0  0  0  0  0  0
  -26.8240  -30.1810   24.5440 C   0  0  0  0  0  1  0  0  0  0  0  0
  -27.4610  -32.3250   25.6180 C   0  0  0  0  0  1  0  0  0  0  0  0
  1  2  1  0
  3  1  2  0
  4 10  1  0
  4  2  2  0
  5  6  2  0
  5  3  1  0
  6  4  1  0
  7  3  1  0
  8  9  1  0
  9  7  1  0
 11 12  2  0
 11 10  1  0
 14 19  1  0
 15 16  1  0
 15 14  1  0
 17 16  1  0
 17 26  1  0
 17 18  1  0
 19 13  1  0
 19 18  1  0
 20 13  2  0
 21 22  1  0
 22 13  1  0
 22 12  1  0
 23 24  2  0
 24 43  1  0
 25 24  1  0
 25 28  1  0
 26 27  1  0
 26 23  1  0
 27 25  2  0
 28 29  1  0
 29 30  2  0
 31 34  1  0
 31 30  1  0
 32 31  2  0
 33 32  1  0
 33 28  2  0
 34 35  1  0
 35 36  1  0
 36 37  2  0
 38 37  1  0
 38 42  1  0
 39 38  2  0
 40 35  2  0
 40 39  1  0
 41 40  1  0
 43 44  1  0
 44 47  1  0
 44 46  1  0
 45 43  2  0
 48 49  1  0
 48 23  1  0
 50 48  1  0
 51  5  1  0
 51 52  1  0
 53 55  1  0
 53 52  1  0
 54 65  2  0
 55 60  1  0
 56 64  1  0
 56 66  1  0
 57 63  1  0
 57 59  1  0
 58 64  1  0
 59 58  1  0
 60 59  2  0
 61 62  1  0
 61 55  2  0
 62 57  2  0
 63 56  1  0
 64 54  1  0
 66 68  2  0
 67 66  1  0
 69 67  1  0
 70 79  2  0
 70 75  1  0
 71 67  1  0
 71 75  1  0
 72 71  1  0
 73 74  1  0
 73 72  1  0
 74 70  1  0
 75 76  2  0
 76 77  1  0
 78 77  2  0
 79 78  1  0
 80 54  1  0
 80 81  1  0
 80 90  1  0
 81 84  1  0
 82 86  1  0
 82 81  1  0
 83 82  2  0
 86 85  1  0
 88 86  1  0
 88 89  1  0
 88 87  1  0
 90 93  1  1
 90 91  1  0
 92 90  1  0
M  ISO  4  13 100  22 100  52 101  53 101
M  END
>  <TORSDO>  (82) 
F 23

>  <SCORE>  (82) 
-12.063

>  <name>  (82) 
81

>  <ligand_id>  (82) 
81

>  <original_smiles>  (82) 
[H]c1c(C([H])([H])C([H])([H])C([H])([H])N(C(=O)N2C([H])([H])C([H])([H])C([H])([H])C([H])(n3nc(-c4c([H])c([H])c(Oc5c([H])c([H])c(F)c([H])c5F)c([H])c4[H])c(C(=O)N([H])[H])c3N([H])[H])C2([H])[H])C([H])([H])[H])nc(C([H])([H])C([H])([H])Oc2c([H])c([H])c3c(c2[H])C([H])([H])N(C(=O)C([H])(N([H])C(=O)C([H])(N([H])C([H])([H])[H])C([H])([H])[H])C(C([H])([H])[H])(C([H])([H])[H])C([H])([H])[H])C([H])(C(=O)N([H])C2([H])c4c([H])c([H])c([H])c([H])c4C([H])([H])C([H])([H])C2([H])[H])C3([H])[H])c(C([H])([H])C([H])([H])C([H])([H])[H])c1[H]

>  <smiles>  (82) 
[H]c1c(C([H])([H])C([H])([H])C([H])([H])N(C(=O)N2C([H])([H])C([H])([H])C([H])([H])C([H])(n3nc(-c4c([H])c([H])c(Oc5c([H])c([H])c(F)c([H])c5F)c([H])c4[H])c(C(=O)N([H])[H])c3N([H])[H])C2([H])[H])C([H])([H])[H])nc(C([H])([H])C([H])([H])Oc2c([H])c([H])c3c(c2[H])C([H])([H])N(C(=O)C([H])(N([H])C(=O)C([H])(N([H])C([H])([H])[H])C([H])([H])[H])C(C([H])([H])[H])(C([H])([H])[H])C([H])([H])[H])C([H])(C(=O)N([H])C2([H])c4c([H])c([H])c([H])c([H])c4C([H])([H])C([H])([H])C2([H])[H])C3([H])[H])c(C([H])([H])C([H])([H])C([H])([H])[H])c1[H]

$$$$
82:0:0
     RDKit          3D

 91 99  0  0  1  0  0  0  0  0999 V2000
  -28.2220  -23.9250   18.6880 C   0  0  0  0  0  3  0  0  0  0  0  0
  -28.3710  -22.7830   17.8840 C   0  0  0  0  0  0  0  0  0  0  0  0
  -28.8280  -21.5660   18.4650 C   0  0  0  0  0  0  0  0  0  0  0  0
  -28.4610  -23.8560   20.0640 C   0  0  0  0  0  0  0  0  0  0  0  0
  -29.0500  -21.4900   19.8700 C   0  0  0  0  0  0  0  0  0  0  0  0
  -28.0280  -22.9110   16.4060 C   0  0  0  0  0  1  0  0  0  0  0  0
  -29.1230  -20.3750   17.5580 C   0  0  0  0  0  1  0  0  0  0  0  0
  -28.8550  -22.6420   20.6310 N   0  0  0  0  0  0  0  0  0  0  0  0
  -29.7090  -20.1880   20.5490 C   0  0  0  0  0  2  0  0  0  0  0  0
  -29.1640  -18.6520   20.4250 C   0  0  0  0  0  3  0  0  0  0  0  0
  -30.1670  -17.4480   20.8700 C   0  0  0  0  0  3  0  0  0  0  0  0
  -30.5780  -14.8540   20.5510 C   0  0  0  0  0  0  0  0  0  0  0  0
  -30.4320  -12.6110   19.4620 C   0  0  0  0  0  2  0  0  0  0  0  0
  -29.4990  -12.7140   18.2360 C   0  0  0  0  0  2  0  0  0  0  0  0
  -28.0300  -12.5090   18.6530 C   0  0  0  0  0  2  0  0  0  0  0  0
  -27.6380  -13.3470   19.8980 C   0  0  0  0  0  3  0  0  0  0  0  0
  -28.6890  -13.2240   21.0220 C   0  0  0  0  0  2  0  0  0  0  0  0
  -29.9780  -13.6200   20.4450 N   0  0  0  0  0  0  0  0  0  0  0  0
  -31.7690  -14.9810   20.2600 O   0  0  0  0  0  0  0  0  0  0  0  0
  -29.7770  -15.9660   20.7810 N   0  0  0  0  0  0  0  0  0  0  0  0
  -28.8110  -15.7570   20.9820 H   0  0  0  0  0  0  0  0  0  0  0  0
  -25.2270  -13.8830   20.5910 C   0  0  0  0  0  0  0  0  0  0  0  0
  -24.1740  -13.0850   20.9430 C   0  0  0  0  0  0  0  0  0  0  0  0
  -24.6680  -11.7440   20.9140 C   0  0  0  0  0  0  0  0  0  0  0  0
  -26.2940  -13.0280   20.3670 N   0  0  0  0  0  0  0  0  0  0  0  0
  -25.9630  -11.7360   20.6260 N   0  0  0  0  0  0  0  0  0  0  0  0
  -23.9670  -10.4660   21.0840 C   0  0  0  0  0  0  0  0  0  0  0  0
  -24.3920   -9.5100   22.0330 C   0  0  0  0  0  3  0  0  0  0  0  0
  -23.6890   -8.2970   22.1900 C   0  0  0  0  0  3  0  0  0  0  0  0
  -22.5470   -8.0310   21.3970 C   0  0  0  0  0  0  0  0  0  0  0  0
  -22.1430   -8.9750   20.4370 C   0  0  0  0  0  3  0  0  0  0  0  0
  -22.8470  -10.1800   20.2780 C   0  0  0  0  0  3  0  0  0  0  0  0
  -21.8160   -6.8690   21.4630 O   0  0  0  0  0  0  0  0  0  0  0  0
  -21.7330   -6.1350   22.6190 C   0  0  0  0  0  0  0  0  0  0  0  0
  -21.2030   -6.6790   23.8100 C   0  0  0  0  0  3  0  0  0  0  0  0
  -21.0700   -5.8690   24.9560 C   0  0  0  0  0  3  0  0  0  0  0  0
  -21.4590   -4.5170   24.9110 C   0  0  0  0  0  0  0  0  0  0  0  0
  -21.9830   -3.9730   23.7260 C   0  0  0  0  0  3  0  0  0  0  0  0
  -22.1170   -4.7800   22.5820 C   0  0  0  0  0  0  0  0  0  0  0  0
  -22.6020   -4.2440   21.4360 F   0  0  0  0  0  0  0  0  0  0  0  0
  -21.3280   -3.7370   26.0100 F   0  0  0  0  0  0  0  0  0  0  0  0
  -22.7620  -13.5290   21.1920 C   0  0  0  0  0  0  0  0  0  0  0  0
  -22.0370  -12.8110   22.0400 N   0  0  0  0  0  0  0  0  0  0  0  0
  -22.3110  -14.5490   20.6700 O   0  0  0  0  0  0  0  0  0  0  0  0
  -22.4170  -11.9850   22.4790 H   0  0  0  0  0  0  0  0  0  0  0  0
  -21.0900  -13.0870   22.2540 H   0  0  0  0  0  0  0  0  0  0  0  0
  -25.3610  -15.2590   20.4190 N   0  0  0  0  0  0  0  0  0  0  0  0
  -24.5690  -15.8850   20.5110 H   0  0  0  0  0  0  0  0  0  0  0  0
  -26.1790  -15.7130   20.0340 H   0  0  0  0  0  0  0  0  0  0  0  0
  -28.1530  -25.1460   20.9370 C   0  0  0  0  0  2  0  0  0  0  0  0
  -28.2940  -26.5270   20.3750 O   0  0  0  0  0  0  0  0  0  0  0  0
  -24.5350  -31.9890   23.3490 C   0  0  0  0  0  0  0  0  0  0  0  0
  -27.1780  -27.3820   20.3670 C   0  0  0  0  0  0  0  0  0  0  0  0
  -23.3530  -30.5820   21.7030 C   0  0  0  0  0  3  0  0  0  0  0  0
  -24.8200  -29.0100   20.3120 C   0  0  0  0  0  0  0  0  0  0  0  0
  -25.8990  -30.8830   21.5620 C   0  0  0  0  0  2  0  0  0  0  0  0
  -25.9840  -29.5000   20.9180 C   0  0  0  0  0  0  0  0  0  0  0  0
  -27.1690  -28.7020   20.9250 C   0  0  0  0  0  3  0  0  0  0  0  0
  -25.9890  -26.9410   19.7500 C   0  0  0  0  0  3  0  0  0  0  0  0
  -24.8250  -27.7360   19.7200 C   0  0  0  0  0  3  0  0  0  0  0  0
  -23.5870  -29.8950   20.3320 C   0  0  0  0  0  2  0  0  0  0  0  0
  -24.6140  -31.1700   22.2600 N   0  0  0  0  0  0  0  0  0  0  0  0
  -23.4440  -32.2770   23.8630 O   0  0  0  0  0  0  0  0  0  0  0  0
  -22.6690  -29.5760   22.6580 C   0  0  0  0  0  0  0  0  0  0  0  0
  -21.3470  -29.3890   22.5010 N   0  0  0  0  0  0  0  0  0  0  0  0
  -23.3310  -28.9640   23.5030 O   0  0  0  0  0  0  0  0  0  0  0  0
  -20.8750  -29.9310   21.7910 H   0  0  0  0  0  0  0  0  0  0  0  0
  -17.9650  -28.1830   22.9420 C   0  0  0  0  0  0  0  0  0  0  0  0
  -20.5150  -28.4590   23.2650 C   0  0  0  0  0  3  0  0  0  0  0  0
  -20.6380  -27.0200   22.7130 C   0  0  0  0  0  2  0  0  0  0  0  0
  -19.5600  -26.6770   21.6790 C   0  0  0  0  0  2  0  0  0  0  0  0
  -18.1630  -26.8260   22.2870 C   0  0  0  0  0  2  0  0  0  0  0  0
  -19.0700  -28.9560   23.3870 C   0  0  0  0  0  0  0  0  0  0  0  0
  -18.8310  -30.2270   23.9570 C   0  0  0  0  0  3  0  0  0  0  0  0
  -17.5210  -30.7220   24.0880 C   0  0  0  0  0  3  0  0  0  0  0  0
  -16.4290  -29.9460   23.6600 C   0  0  0  0  0  3  0  0  0  0  0  0
  -16.6520  -28.6780   23.0940 C   0  0  0  0  0  3  0  0  0  0  0  0
  -25.8110  -32.6230   23.9880 C   0  0  0  0  0  3  0  0  0  0  0  0
  -26.2860  -31.8840   25.3000 C   0  0  1  0  0  0  0  0  0  0  0  0
  -25.1590  -31.6790   26.3400 C   0  0  0  0  0  1  0  0  0  0  0  0
  -26.8750  -30.4920   24.9690 C   0  0  0  0  0  1  0  0  0  0  0  0
  -27.4230  -32.6890   25.9720 C   0  0  0  0  0  1  0  0  0  0  0  0
  -25.5160  -34.0350   24.2700 N   0  0  0  0  0  0  0  0  0  0  0  0
  -25.8790  -35.0600   23.4890 C   0  0  0  0  0  0  0  0  0  0  0  0
  -26.5720  -34.9180   22.4770 O   0  0  0  0  0  0  0  0  0  0  0  0
  -24.9170  -34.2240   25.0620 H   0  0  0  0  0  0  0  0  0  0  0  0
  -24.2000  -36.8720   23.0250 C   0  0  0  0  0  1  0  0  0  0  0  0
  -25.4010  -36.4670   23.8940 C   0  0  0  0  0  3  0  0  0  0  0  0
  -27.5130  -37.3380   24.7920 C   0  0  0  0  0  1  0  0  0  0  0  0
  -26.4560  -37.5000   23.7960 N   0  0  0  0  0  0  0  0  0  0  0  0
  -26.0610  -38.4300   23.9040 H   0  0  0  0  0  0  0  0  0  0  0  0
  1  4  1  0
  2  3  1  0
  2  1  2  0
  3  5  2  0
  4  8  2  0
  4 50  1  0
  5  9  1  0
  5  8  1  0
  6  2  1  0
  7  3  1  0
 10  9  1  0
 10 11  2  0
 12 20  1  0
 13 18  1  0
 14 15  1  0
 14 13  1  0
 16 15  1  0
 16 25  1  0
 16 17  1  0
 18 12  1  0
 18 17  1  0
 19 12  2  0
 20 11  1  0
 20 21  1  0
 22 23  2  0
 23 42  1  0
 24 23  1  0
 24 27  1  0
 25 22  1  0
 25 26  1  0
 26 24  2  0
 27 28  1  0
 28 29  2  0
 30 33  1  0
 30 29  1  0
 31 30  2  0
 32 31  1  0
 32 27  2  0
 33 34  1  0
 34 35  1  0
 35 36  2  0
 37 36  1  0
 37 41  1  0
 38 37  2  0
 39 34  2  0
 39 38  1  0
 40 39  1  0
 42 43  1  0
 43 46  1  0
 43 45  1  0
 44 42  2  0
 47 48  1  0
 47 22  1  0
 49 47  1  0
 51 50  1  0
 52 63  2  0
 53 51  1  0
 53 58  1  0
 54 62  1  0
 54 64  1  0
 55 61  1  0
 55 57  1  0
 56 62  1  0
 57 58  2  0
 57 56  1  0
 59 53  2  0
 60 59  1  0
 60 55  2  0
 61 54  1  0
 62 52  1  0
 64 66  2  0
 65 64  1  0
 67 65  1  0
 68 77  2  0
 68 73  1  0
 69 65  1  0
 69 73  1  0
 70 69  1  0
 71 72  1  0
 71 70  1  0
 72 68  1  0
 73 74  2  0
 74 75  1  0
 76 75  2  0
 77 76  1  0
 78 52  1  0
 78 83  1  0
 78 79  1  0
 79 82  1  1
 79 80  1  0
 81 79  1  0
 83 86  1  0
 84 88  1  0
 84 83  1  0
 85 84  2  0
 88 87  1  0
 90 88  1  0
 90 91  1  0
 90 89  1  0
M  ISO  4  12 100  20 100  50 101  51 101
M  END
>  <TORSDO>  (83) 
F 20

>  <SCORE>  (83) 
-12.845

>  <name>  (83) 
82

>  <ligand_id>  (83) 
82

>  <original_smiles>  (83) 
[H]c1c([H])c([H])c2c(c1[H])C([H])([H])C([H])([H])C([H])([H])C2([H])N([H])C(=O)C1([H])N(C(=O)C([H])(N([H])C(=O)C([H])(N([H])C([H])([H])[H])C([H])([H])[H])C(C([H])([H])[H])(C([H])([H])[H])C([H])([H])[H])C([H])([H])c2c([H])c(OC([H])([H])c3nc(C([H])([H])C([H])([H])C([H])([H])N([H])C(=O)N4C([H])([H])C([H])([H])C([H])([H])C([H])(n5nc(-c6c([H])c([H])c(Oc7c([H])c([H])c(F)c([H])c7F)c([H])c6[H])c(C(=O)N([H])[H])c5N([H])[H])C4([H])[H])c(C([H])([H])[H])c(C([H])([H])[H])c3[H])c([H])c([H])c2C1([H])[H]

>  <smiles>  (83) 
[H]c1c([H])c([H])c2c(c1[H])C([H])([H])C([H])([H])C([H])([H])C2([H])N([H])C(=O)C1([H])N(C(=O)C([H])(N([H])C(=O)C([H])(N([H])C([H])([H])[H])C([H])([H])[H])C(C([H])([H])[H])(C([H])([H])[H])C([H])([H])[H])C([H])([H])c2c([H])c(OC([H])([H])c3nc(C([H])([H])C([H])([H])C([H])([H])N([H])C(=O)N4C([H])([H])C([H])([H])C([H])([H])C([H])(n5nc(-c6c([H])c([H])c(Oc7c([H])c([H])c(F)c([H])c7F)c([H])c6[H])c(C(=O)N([H])[H])c5N([H])[H])C4([H])[H])c(C([H])([H])[H])c(C([H])([H])[H])c3[H])c([H])c([H])c2C1([H])[H]

$$$$
83:0:0
     RDKit          3D

 91 99  0  0  1  0  0  0  0  0999 V2000
  -27.9150  -18.3770   19.1010 C   0  0  0  0  0  3  0  0  0  0  0  0
  -28.9510  -18.8860   19.8420 C   0  0  0  0  0  0  0  0  0  0  0  0
  -27.6290  -20.5740   19.0060 C   0  0  0  0  0  3  0  0  0  0  0  0
  -28.7120  -20.3730   19.8100 N   0  0  0  0  0  0  0  0  0  0  0  0
  -27.1680  -19.3930   18.6110 N   0  0  0  0  0  0  0  0  0  0  0  0
  -26.3810  -19.2680   17.9870 H   0  0  0  0  0  0  0  0  0  0  0  0
  -27.7970  -22.5560   17.3980 C   0  0  0  0  0  1  0  0  0  0  0  0
  -26.9940  -21.8410   18.4990 C   0  0  0  0  0  2  0  0  0  0  0  0
  -30.0180  -17.7690   20.3960 C   0  0  0  0  0  2  0  0  0  0  0  0
  -30.5030  -14.9860   20.2380 C   0  0  0  0  0  0  0  0  0  0  0  0
  -30.3460  -12.6560   19.2330 C   0  0  0  0  0  2  0  0  0  0  0  0
  -29.3710  -12.6350   18.0330 C   0  0  0  0  0  2  0  0  0  0  0  0
  -27.9230  -12.4130   18.5120 C   0  0  0  0  0  2  0  0  0  0  0  0
  -27.5530  -13.3140   19.7170 C   0  0  0  0  0  3  0  0  0  0  0  0
  -28.6450  -13.2970   20.8070 C   0  0  0  0  0  2  0  0  0  0  0  0
  -29.8930  -13.7280   20.1660 N   0  0  0  0  0  0  0  0  0  0  0  0
  -31.7090  -15.0260   19.9750 O   0  0  0  0  0  0  0  0  0  0  0  0
  -29.7340  -16.1870   20.3890 N   0  0  0  0  0  0  0  0  0  0  0  0
  -28.7670  -15.9730   20.5810 H   0  0  0  0  0  0  0  0  0  0  0  0
  -25.1880  -13.8880   20.5130 C   0  0  0  0  0  0  0  0  0  0  0  0
  -24.1260  -13.1110   20.8860 C   0  0  0  0  0  0  0  0  0  0  0  0
  -24.5880  -11.7600   20.8320 C   0  0  0  0  0  0  0  0  0  0  0  0
  -26.2260  -13.0120   20.2440 N   0  0  0  0  0  0  0  0  0  0  0  0
  -25.8760  -11.7260   20.5050 N   0  0  0  0  0  0  0  0  0  0  0  0
  -23.8610  -10.4960   21.0130 C   0  0  0  0  0  0  0  0  0  0  0  0
  -24.2860   -9.5230   21.9460 C   0  0  0  0  0  3  0  0  0  0  0  0
  -23.5550   -8.3280   22.1160 C   0  0  0  0  0  3  0  0  0  0  0  0
  -22.3860   -8.0950   21.3550 C   0  0  0  0  0  0  0  0  0  0  0  0
  -21.9790   -9.0560   20.4120 C   0  0  0  0  0  3  0  0  0  0  0  0
  -22.7100  -10.2440   20.2400 C   0  0  0  0  0  3  0  0  0  0  0  0
  -21.6310   -6.9510   21.4340 O   0  0  0  0  0  0  0  0  0  0  0  0
  -21.5610   -6.2130   22.5890 C   0  0  0  0  0  0  0  0  0  0  0  0
  -21.0950   -6.7680   23.8000 C   0  0  0  0  0  3  0  0  0  0  0  0
  -20.9730   -5.9580   24.9470 C   0  0  0  0  0  3  0  0  0  0  0  0
  -21.3090   -4.5920   24.8830 C   0  0  0  0  0  0  0  0  0  0  0  0
  -21.7670   -4.0340   23.6750 C   0  0  0  0  0  3  0  0  0  0  0  0
  -21.8910   -4.8430   22.5310 C   0  0  0  0  0  0  0  0  0  0  0  0
  -22.3130   -4.2970   21.3660 F   0  0  0  0  0  0  0  0  0  0  0  0
  -21.1860   -3.8100   25.9810 F   0  0  0  0  0  0  0  0  0  0  0  0
  -22.7330  -13.5880   21.1770 C   0  0  0  0  0  0  0  0  0  0  0  0
  -22.0080  -12.8830   22.0360 N   0  0  0  0  0  0  0  0  0  0  0  0
  -22.2970  -14.6240   20.6760 O   0  0  0  0  0  0  0  0  0  0  0  0
  -22.3700  -12.0430   22.4640 H   0  0  0  0  0  0  0  0  0  0  0  0
  -21.0760  -13.1910   22.2740 H   0  0  0  0  0  0  0  0  0  0  0  0
  -25.3480  -15.2620   20.3530 N   0  0  0  0  0  0  0  0  0  0  0  0
  -24.5810  -15.9100   20.4950 H   0  0  0  0  0  0  0  0  0  0  0  0
  -26.1950  -15.7080   20.0360 H   0  0  0  0  0  0  0  0  0  0  0  0
  -29.4110  -21.7510   20.2720 C   0  0  0  0  0  2  0  0  0  0  0  0
  -28.6790  -23.2260   20.7730 C   0  0  0  0  0  2  0  0  0  0  0  0
  -28.6140  -24.7460   20.0100 C   0  0  0  0  0  2  0  0  0  0  0  0
  -28.4330  -26.1790   20.6240 O   0  0  0  0  0  0  0  0  0  0  0  0
  -24.6700  -31.9570   23.2700 C   0  0  0  0  0  0  0  0  0  0  0  0
  -27.3470  -27.1220   20.4700 C   0  0  0  0  0  0  0  0  0  0  0  0
  -23.5210  -30.4950   21.6520 C   0  0  0  0  0  3  0  0  0  0  0  0
  -25.0060  -28.8610   20.3290 C   0  0  0  0  0  0  0  0  0  0  0  0
  -26.0760  -30.7480   21.5570 C   0  0  0  0  0  2  0  0  0  0  0  0
  -26.1670  -29.3310   20.9560 C   0  0  0  0  0  0  0  0  0  0  0  0
  -27.3330  -28.4760   21.0090 C   0  0  0  0  0  3  0  0  0  0  0  0
  -26.1550  -26.7470   19.8110 C   0  0  0  0  0  3  0  0  0  0  0  0
  -25.0120  -27.5800   19.7490 C   0  0  0  0  0  3  0  0  0  0  0  0
  -23.7790  -29.7600   20.3110 C   0  0  0  0  0  2  0  0  0  0  0  0
  -24.7750  -31.0910   22.2150 N   0  0  0  0  0  0  0  0  0  0  0  0
  -23.5670  -32.2620   23.7510 O   0  0  0  0  0  0  0  0  0  0  0  0
  -22.8070  -29.5320   22.6350 C   0  0  0  0  0  0  0  0  0  0  0  0
  -21.4780  -29.3870   22.4900 N   0  0  0  0  0  0  0  0  0  0  0  0
  -23.4500  -28.9190   23.4900 O   0  0  0  0  0  0  0  0  0  0  0  0
  -21.0170  -29.9280   21.7730 H   0  0  0  0  0  0  0  0  0  0  0  0
  -18.0540  -28.3100   23.0050 C   0  0  0  0  0  0  0  0  0  0  0  0
  -20.6200  -28.4870   23.2690 C   0  0  0  0  0  3  0  0  0  0  0  0
  -20.6740  -27.0470   22.7090 C   0  0  0  0  0  2  0  0  0  0  0  0
  -19.5600  -26.7510   21.6980 C   0  0  0  0  0  2  0  0  0  0  0  0
  -18.1850  -26.9500   22.3410 C   0  0  0  0  0  2  0  0  0  0  0  0
  -19.1990  -29.0390   23.4250 C   0  0  0  0  0  0  0  0  0  0  0  0
  -19.0210  -30.3130   24.0080 C   0  0  0  0  0  3  0  0  0  0  0  0
  -17.7340  -30.8580   24.1710 C   0  0  0  0  0  3  0  0  0  0  0  0
  -16.6050  -30.1240   23.7690 C   0  0  0  0  0  3  0  0  0  0  0  0
  -16.7650  -28.8510   23.1930 C   0  0  0  0  0  3  0  0  0  0  0  0
  -25.9300  -32.6160   23.9140 C   0  0  0  0  0  3  0  0  0  0  0  0
  -25.5930  -34.0160   24.2120 N   0  0  0  0  0  0  0  0  0  0  0  0
  -25.9360  -35.0640   23.4500 C   0  0  0  0  0  0  0  0  0  0  0  0
  -26.6260  -34.9540   22.4320 O   0  0  0  0  0  0  0  0  0  0  0  0
  -24.9730  -34.1740   24.9920 H   0  0  0  0  0  0  0  0  0  0  0  0
  -24.2020  -36.8480   23.0410 C   0  0  0  0  0  1  0  0  0  0  0  0
  -25.4310  -36.4570   23.8800 C   0  0  0  0  0  3  0  0  0  0  0  0
  -27.5410  -37.3710   24.7430 C   0  0  0  0  0  1  0  0  0  0  0  0
  -26.4580  -37.5170   23.7740 N   0  0  0  0  0  0  0  0  0  0  0  0
  -26.0410  -38.4340   23.9020 H   0  0  0  0  0  0  0  0  0  0  0  0
  -26.4110  -31.8800   25.2260 C   0  0  1  0  0  0  0  0  0  0  0  0
  -25.2890  -31.6550   26.2640 C   0  0  0  0  0  1  0  0  0  0  0  0
  -27.0250  -30.5020   24.8900 C   0  0  0  0  0  1  0  0  0  0  0  0
  -27.5340  -32.7060   25.9030 C   0  0  0  0  0  1  0  0  0  0  0  0
  1  2  2  0
  2  9  1  0
  3  8  1  0
  3  4  1  0
  4  2  1  0
  4 48  1  0
  5  3  1  0
  5  1  1  0
  6  5  1  0
  7  8  1  0
 10 18  1  0
 11 16  1  0
 12 13  1  0
 12 11  1  0
 14 13  1  0
 14 23  1  0
 14 15  1  0
 16 10  1  0
 16 15  1  0
 17 10  2  0
 18  9  1  0
 18 19  1  0
 20 21  2  0
 21 40  1  0
 22 21  1  0
 22 25  1  0
 23 24  1  0
 23 20  1  0
 24 22  2  0
 25 26  1  0
 26 27  2  0
 28 31  1  0
 28 27  1  0
 29 28  2  0
 30 29  1  0
 30 25  2  0
 31 32  1  0
 32 33  1  0
 33 34  2  0
 35 34  1  0
 35 39  1  0
 36 35  2  0
 37 32  2  0
 37 36  1  0
 38 37  1  0
 40 41  1  0
 41 44  1  0
 41 43  1  0
 42 40  2  0
 45 46  1  0
 45 20  1  0
 47 45  1  0
 48 49  1  0
 50 51  1  0
 50 49  1  0
 52 63  2  0
 53 51  1  0
 53 58  1  0
 54 62  1  0
 54 64  1  0
 55 57  1  0
 56 62  1  0
 57 58  2  0
 57 56  1  0
 59 53  2  0
 60 59  1  0
 60 55  2  0
 61 55  1  0
 61 54  1  0
 62 52  1  0
 64 66  2  0
 65 64  1  0
 67 65  1  0
 68 77  2  0
 68 73  1  0
 69 65  1  0
 69 73  1  0
 70 69  1  0
 71 72  1  0
 71 70  1  0
 72 68  1  0
 73 74  2  0
 74 75  1  0
 76 75  2  0
 77 76  1  0
 78 52  1  0
 78 79  1  0
 78 88  1  0
 79 82  1  0
 80 84  1  0
 80 79  1  0
 81 80  2  0
 84 83  1  0
 86 84  1  0
 86 87  1  0
 86 85  1  0
 88 91  1  1
 88 89  1  0
 90 88  1  0
M  ISO  4  10 100  18 100  50 101  51 101
M  END
>  <TORSDO>  (84) 
F 21

>  <SCORE>  (84) 
-14.366

>  <name>  (84) 
83

>  <ligand_id>  (84) 
83

>  <original_smiles>  (84) 
[H]c1c([H])c([H])c2c(c1[H])C([H])([H])C([H])([H])C([H])([H])C2([H])N([H])C(=O)C1([H])N(C(=O)C([H])(N([H])C(=O)C([H])(N([H])C([H])([H])[H])C([H])([H])[H])C(C([H])([H])[H])(C([H])([H])[H])C([H])([H])[H])C([H])([H])c2c([H])c(OC([H])([H])C([H])([H])C([H])([H])n3c(C([H])([H])N([H])C(=O)N4C([H])([H])C([H])([H])C([H])([H])C([H])(n5nc(-c6c([H])c([H])c(Oc7c([H])c([H])c(F)c([H])c7F)c([H])c6[H])c(C(=O)N([H])[H])c5N([H])[H])C4([H])[H])c([H])[n+]([H])c3C([H])([H])C([H])([H])[H])c([H])c([H])c2C1([H])[H]

>  <smiles>  (84) 
[H]c1c([H])c([H])c2c(c1[H])C([H])([H])C([H])([H])C([H])([H])C2([H])N([H])C(=O)C1([H])N(C(=O)C([H])(N([H])C(=O)C([H])(N([H])C([H])([H])[H])C([H])([H])[H])C(C([H])([H])[H])(C([H])([H])[H])C([H])([H])[H])C([H])([H])c2c([H])c(OC([H])([H])C([H])([H])C([H])([H])n3c(C([H])([H])N([H])C(=O)N4C([H])([H])C([H])([H])C([H])([H])C([H])(n5nc(-c6c([H])c([H])c(Oc7c([H])c([H])c(F)c([H])c7F)c([H])c6[H])c(C(=O)N([H])[H])c5N([H])[H])C4([H])[H])c([H])[n+]([H])c3C([H])([H])C([H])([H])[H])c([H])c([H])c2C1([H])[H]

$$$$
84:0:0
     RDKit          3D

 97105  0  0  1  0  0  0  0  0999 V2000
  -29.7000  -28.3720   12.5050 C   0  0  0  0  0  3  0  0  0  0  0  0
  -30.4930  -27.8070   11.4790 C   0  0  0  0  0  0  0  0  0  0  0  0
  -28.3270  -28.0920   12.6440 C   0  0  0  0  0  0  0  0  0  0  0  0
  -29.7960  -26.8900   10.5580 C   0  0  0  0  0  0  0  0  0  0  0  0
  -27.7640  -27.1460   11.7560 C   0  0  0  0  0  0  0  0  0  0  0  0
  -28.4940  -26.5930   10.7660 N   0  0  0  0  0  0  0  0  0  0  0  0
  -28.2220  -29.8800   14.5410 C   0  0  0  0  0  1  0  0  0  0  0  0
  -27.5110  -28.7580   13.7580 C   0  0  0  0  0  2  0  0  0  0  0  0
  -25.2790  -27.5130   11.3760 C   0  0  0  0  0  1  0  0  0  0  0  0
  -26.3500  -26.5490   11.9130 C   0  0  0  0  0  3  0  0  0  0  0  0
  -26.0260  -26.0460   13.3430 C   0  0  0  0  0  2  0  0  0  0  0  0
  -26.8040  -24.9010   13.6650 O   0  0  0  0  0  0  0  0  0  0  0  0
  -26.7890  -24.3820   12.8600 H   0  0  0  0  0  0  0  0  0  0  0  0
  -31.9900  -28.3260   11.4950 C   0  0  0  0  0  3  0  0  0  0  0  0
  -32.9800  -28.1040   12.7900 C   0  0  0  0  0  3  0  0  0  0  0  0
  -32.6240  -27.2360   14.1130 C   0  0  0  0  0  2  0  0  0  0  0  0
  -33.2340  -27.5690   15.4570 O   0  0  0  0  0  0  0  0  0  0  0  0
  -38.9360  -28.3820   19.8940 C   0  0  0  0  0  0  0  0  0  0  0  0
  -34.6420  -27.6250   15.6130 C   0  0  0  0  0  0  0  0  0  0  0  0
  -39.3160  -28.8080   17.4970 C   0  0  0  0  0  3  0  0  0  0  0  0
  -37.4860  -27.9840   15.9030 C   0  0  0  0  0  0  0  0  0  0  0  0
  -37.5200  -27.1280   18.2420 C   0  0  0  0  0  2  0  0  0  0  0  0
  -36.7440  -27.4530   16.9640 C   0  0  0  0  0  0  0  0  0  0  0  0
  -35.3310  -27.2580   16.8200 C   0  0  0  0  0  3  0  0  0  0  0  0
  -35.4530  -28.1060   14.5580 C   0  0  0  0  0  3  0  0  0  0  0  0
  -36.8420  -28.2940   14.6950 C   0  0  0  0  0  3  0  0  0  0  0  0
  -38.9730  -28.2050   16.1090 C   0  0  0  0  0  2  0  0  0  0  0  0
  -38.5790  -28.1180   18.6030 N   0  0  0  0  0  0  0  0  0  0  0  0
  -39.8730  -29.1500   20.1600 O   0  0  0  0  0  0  0  0  0  0  0  0
  -39.0790  -30.3360   17.4580 C   0  0  0  0  0  0  0  0  0  0  0  0
  -40.1040  -31.0980   17.0370 N   0  0  0  0  0  0  0  0  0  0  0  0
  -37.9860  -30.8110   17.7750 O   0  0  0  0  0  0  0  0  0  0  0  0
  -40.9710  -30.6360   16.8030 H   0  0  0  0  0  0  0  0  0  0  0  0
  -42.2050  -34.0320   16.7470 C   0  0  0  0  0  0  0  0  0  0  0  0
  -40.0860  -32.5540   16.8830 C   0  0  0  0  0  3  0  0  0  0  0  0
  -39.8390  -32.9570   15.4110 C   0  0  0  0  0  2  0  0  0  0  0  0
  -41.1330  -33.1810   14.6220 C   0  0  0  0  0  2  0  0  0  0  0  0
  -41.9740  -34.2850   15.2680 C   0  0  0  0  0  2  0  0  0  0  0  0
  -41.3290  -33.2050   17.5000 C   0  0  0  0  0  0  0  0  0  0  0  0
  -41.6130  -32.9750   18.8640 C   0  0  0  0  0  3  0  0  0  0  0  0
  -42.7400  -33.5610   19.4770 C   0  0  0  0  0  3  0  0  0  0  0  0
  -43.5940  -34.3880   18.7280 C   0  0  0  0  0  3  0  0  0  0  0  0
  -43.3250  -34.6230   17.3670 C   0  0  0  0  0  3  0  0  0  0  0  0
  -38.2040  -27.7110   21.0960 C   0  0  0  0  0  3  0  0  0  0  0  0
  -37.5290  -28.7540   22.0700 C   0  0  1  0  0  0  0  0  0  0  0  0
  -38.5240  -29.7590   22.6950 C   0  0  0  0  0  1  0  0  0  0  0  0
  -36.4400  -29.5730   21.3320 C   0  0  0  0  0  1  0  0  0  0  0  0
  -36.8100  -28.0030   23.2150 C   0  0  0  0  0  1  0  0  0  0  0  0
  -39.1940  -26.8950   21.8160 N   0  0  0  0  0  0  0  0  0  0  0  0
  -38.9870  -25.6380   22.2330 C   0  0  0  0  0  0  0  0  0  0  0  0
  -37.9040  -25.0630   22.1060 O   0  0  0  0  0  0  0  0  0  0  0  0
  -40.1220  -27.2830   21.9030 H   0  0  0  0  0  0  0  0  0  0  0  0
  -40.7370  -23.8510   21.9330 C   0  0  0  0  0  1  0  0  0  0  0  0
  -40.1680  -24.9030   22.8990 C   0  0  0  0  0  3  0  0  0  0  0  0
  -39.6440  -25.2060   25.2800 C   0  0  0  0  0  1  0  0  0  0  0  0
  -39.8120  -24.2580   24.1810 N   0  0  0  0  0  0  0  0  0  0  0  0
  -40.5230  -23.5830   24.4530 H   0  0  0  0  0  0  0  0  0  0  0  0
  -30.2120  -26.2650    9.1590 C   0  0  0  0  0  2  0  0  0  0  0  0
  -30.8710  -24.7680    9.0780 C   0  0  0  0  0  2  0  0  0  0  0  0
  -33.2140  -24.5630   10.3210 C   0  0  0  0  0  0  0  0  0  0  0  0
  -35.2850  -23.6320   11.3800 C   0  0  0  0  0  2  0  0  0  0  0  0
  -35.3490  -22.1100   11.1300 C   0  0  0  0  0  2  0  0  0  0  0  0
  -34.5590  -21.3420   12.2100 C   0  0  0  0  0  2  0  0  0  0  0  0
  -33.1510  -21.9460   12.4640 C   0  0  0  0  0  3  0  0  0  0  0  0
  -33.2150  -23.4800   12.6190 C   0  0  0  0  0  2  0  0  0  0  0  0
  -33.8540  -24.0140   11.4090 N   0  0  0  0  0  0  0  0  0  0  0  0
  -33.8570  -25.1970    9.4810 O   0  0  0  0  0  0  0  0  0  0  0  0
  -31.8850  -24.2300   10.1010 N   0  0  0  0  0  0  0  0  0  0  0  0
  -31.4940  -23.6420   10.8220 H   0  0  0  0  0  0  0  0  0  0  0  0
  -31.1290  -21.2510   13.8840 C   0  0  0  0  0  0  0  0  0  0  0  0
  -31.0140  -20.4620   14.9950 C   0  0  0  0  0  0  0  0  0  0  0  0
  -32.3430  -20.0680   15.3380 C   0  0  0  0  0  0  0  0  0  0  0  0
  -32.4820  -21.3070   13.5940 N   0  0  0  0  0  0  0  0  0  0  0  0
  -33.2200  -20.6370   14.5180 N   0  0  0  0  0  0  0  0  0  0  0  0
  -32.8280  -19.1370   16.3650 C   0  0  0  0  0  0  0  0  0  0  0  0
  -32.8570  -19.4920   17.7320 C   0  0  0  0  0  3  0  0  0  0  0  0
  -33.3070  -18.5690   18.7010 C   0  0  0  0  0  3  0  0  0  0  0  0
  -33.7300  -17.2780   18.3080 C   0  0  0  0  0  0  0  0  0  0  0  0
  -33.7210  -16.9390   16.9450 C   0  0  0  0  0  3  0  0  0  0  0  0
  -33.2790  -17.8590   15.9820 C   0  0  0  0  0  3  0  0  0  0  0  0
  -34.2060  -16.3260   19.1760 O   0  0  0  0  0  0  0  0  0  0  0  0
  -33.4730  -15.2100   19.4950 C   0  0  0  0  0  0  0  0  0  0  0  0
  -33.8800  -13.9160   19.1050 C   0  0  0  0  0  3  0  0  0  0  0  0
  -33.1330  -12.7910   19.5130 C   0  0  0  0  0  3  0  0  0  0  0  0
  -31.9890  -12.9580   20.3160 C   0  0  0  0  0  0  0  0  0  0  0  0
  -31.5860  -14.2460   20.7090 C   0  0  0  0  0  3  0  0  0  0  0  0
  -32.3290  -15.3690   20.3020 C   0  0  0  0  0  0  0  0  0  0  0  0
  -31.9480  -16.6080   20.7010 F   0  0  0  0  0  0  0  0  0  0  0  0
  -31.2760  -11.8780   20.7150 F   0  0  0  0  0  0  0  0  0  0  0  0
  -29.7370  -20.0220   15.6480 C   0  0  0  0  0  0  0  0  0  0  0  0
  -29.6140  -20.2260   16.9560 N   0  0  0  0  0  0  0  0  0  0  0  0
  -28.8160  -19.5410   14.9900 O   0  0  0  0  0  0  0  0  0  0  0  0
  -30.3650  -20.6360   17.4920 H   0  0  0  0  0  0  0  0  0  0  0  0
  -28.7580  -19.9680   17.4280 H   0  0  0  0  0  0  0  0  0  0  0  0
  -30.1930  -21.9000   13.0860 N   0  0  0  0  0  0  0  0  0  0  0  0
  -29.2080  -21.8980   13.3260 H   0  0  0  0  0  0  0  0  0  0  0  0
  -30.4260  -22.5830   12.3810 H   0  0  0  0  0  0  0  0  0  0  0  0
  1  3  1  0
  2 14  1  0
  2  1  2  0
  3  8  1  0
  4  6  2  0
  4  2  1  0
  5 10  1  0
  5  3  2  0
  6  5  1  0
  8  7  1  0
 10  9  1  0
 10 11  1  0
 11 12  1  0
 13 12  1  0
 14 15  2  0
 15 16  1  0
 16 17  1  0
 17 19  1  0
 18 29  2  0
 19 24  1  0
 20 30  1  0
 20 28  1  0
 21 27  1  0
 21 23  1  0
 22 28  1  0
 23 22  1  0
 24 23  2  0
 25 26  1  0
 25 19  2  0
 26 21  2  0
 27 20  1  0
 28 18  1  0
 30 32  2  0
 31 30  1  0
 33 31  1  0
 34 43  2  0
 34 39  1  0
 35 31  1  0
 35 39  1  0
 36 35  1  0
 37 38  1  0
 37 36  1  0
 38 34  1  0
 39 40  2  0
 40 41  1  0
 42 41  2  0
 43 42  1  0
 44 18  1  0
 44 49  1  0
 44 45  1  0
 45 46  1  1
 45 48  1  0
 47 45  1  0
 49 52  1  0
 49 50  1  0
 50 54  1  0
 51 50  2  0
 54 53  1  0
 54 56  1  0
 56 57  1  0
 56 55  1  0
 58  4  1  0
 59 58  1  0
 59 68  1  0
 60 66  1  0
 61 66  1  0
 62 61  1  0
 62 63  1  0
 64 63  1  0
 64 65  1  0
 64 73  1  0
 66 65  1  0
 67 60  2  0
 68 60  1  0
 68 69  1  0
 70 71  2  0
 71 72  1  0
 71 90  1  0
 72 75  1  0
 73 70  1  0
 73 74  1  0
 74 72  2  0
 75 76  1  0
 76 77  2  0
 78 77  1  0
 78 81  1  0
 79 78  2  0
 80 75  2  0
 80 79  1  0
 81 82  1  0
 82 87  1  0
 83 82  2  0
 83 84  1  0
 84 85  2  0
 85 86  1  0
 85 89  1  0
 87 88  1  0
 87 86  2  0
 90 91  1  0
 91 94  1  0
 91 93  1  0
 92 90  2  0
 95 96  1  0
 95 70  1  0
 97 95  1  0
M  ISO  4  16 101  17 101  60 100  68 100
M  END
>  <TORSDO>  (85) 
F 25

>  <SCORE>  (85) 
-2.478

>  <name>  (85) 
84

>  <ligand_id>  (85) 
84

>  <original_smiles>  (85) 
[H]OC([H])([H])C([H])(c1nc(C([H])([H])C([H])([H])N([H])C(=O)N2C([H])([H])C([H])([H])C([H])([H])C([H])(n3nc(-c4c([H])c([H])c(Oc5c([H])c([H])c(F)c([H])c5F)c([H])c4[H])c(C(=O)N([H])[H])c3N([H])[H])C2([H])[H])c(C([H])([H])C([H])([H])C([H])([H])Oc2c([H])c([H])c3c(c2[H])C([H])([H])N(C(=O)C([H])(N([H])C(=O)C([H])(N([H])C([H])([H])[H])C([H])([H])[H])C(C([H])([H])[H])(C([H])([H])[H])C([H])([H])[H])C([H])(C(=O)N([H])C2([H])c4c([H])c([H])c([H])c([H])c4C([H])([H])C([H])([H])C2([H])[H])C3([H])[H])c([H])c1C([H])([H])C([H])([H])[H])C([H])([H])[H]

>  <smiles>  (85) 
[H]OC([H])([H])C([H])(c1nc(C([H])([H])C([H])([H])N([H])C(=O)N2C([H])([H])C([H])([H])C([H])([H])C([H])(n3nc(-c4c([H])c([H])c(Oc5c([H])c([H])c(F)c([H])c5F)c([H])c4[H])c(C(=O)N([H])[H])c3N([H])[H])C2([H])[H])c(C([H])([H])C([H])([H])C([H])([H])Oc2c([H])c([H])c3c(c2[H])C([H])([H])N(C(=O)C([H])(N([H])C(=O)C([H])(N([H])C([H])([H])[H])C([H])([H])[H])C(C([H])([H])[H])(C([H])([H])[H])C([H])([H])[H])C([H])(C(=O)N([H])C2([H])c4c([H])c([H])c([H])c([H])c4C([H])([H])C([H])([H])C2([H])[H])C3([H])[H])c([H])c1C([H])([H])C([H])([H])[H])C([H])([H])[H]

$$$$
85:0:0
     RDKit          3D

 99105  0  0  1  0  0  0  0  0999 V2000
  -20.2770  -27.4450   21.3920 C   0  0  0  0  0  2  0  0  0  0  0  0
  -22.2440  -26.6770   18.9950 C   0  0  0  0  0  0  0  0  0  0  0  0
  -21.3810  -25.4130   19.5400 C   0  0  0  0  0  0  0  0  0  0  0  0
  -22.2470  -28.1600   19.6300 C   0  0  0  0  0  0  0  0  0  0  0  0
  -20.4090  -25.6150   20.7710 N   0  0  0  0  0  1  0  0  0  0  0  0
  -21.1980  -28.5020   20.7100 N   0  0  0  0  0  0  0  0  0  0  0  0
  -20.3250  -23.0900   19.3440 C   0  0  0  0  0  1  0  0  0  0  0  0
  -21.5310  -23.9910   19.0210 C   0  0  0  0  0  2  0  0  0  0  0  0
  -23.3950  -26.3500   18.0160 C   0  0  0  0  0  2  0  0  0  0  0  0
  -23.3450  -26.9660   16.5860 C   0  0  0  0  0  2  0  0  0  0  0  0
  -24.6910  -26.9670   15.9380 N   0  0  0  0  0  4  0  0  0  0  0  0
  -25.0680  -26.0340   15.9930 H   0  0  0  0  0  0  0  0  0  0  0  0
  -25.3020  -27.5720   16.4640 H   0  0  0  0  0  0  0  0  0  0  0  0
  -24.7360  -27.3940   14.5120 C   0  0  0  0  0  2  0  0  0  0  0  0
  -26.1760  -27.4260   13.9040 C   0  0  0  0  0  2  0  0  0  0  0  0
  -26.6170  -28.7860   13.3010 C   0  0  0  0  0  2  0  0  0  0  0  0
  -27.9440  -28.7400   12.4940 C   0  0  0  0  0  2  0  0  0  0  0  0
  -28.2940  -30.0970   11.8290 C   0  0  0  0  0  2  0  0  0  0  0  0
  -29.5980  -30.1430   10.9860 C   0  0  0  0  0  2  0  0  0  0  0  0
  -29.8690  -29.7390    8.4990 C   0  0  0  0  0  0  0  0  0  0  0  0
  -29.2420  -29.3080    6.1500 C   0  0  0  0  0  2  0  0  0  0  0  0
  -27.7360  -29.6090    5.9810 C   0  0  0  0  0  2  0  0  0  0  0  0
  -26.8670  -28.4030    6.3960 C   0  0  0  0  0  2  0  0  0  0  0  0
  -27.2900  -27.8050    7.7660 C   0  0  0  0  0  3  0  0  0  0  0  0
  -28.8140  -27.5750    7.7960 C   0  0  0  0  0  2  0  0  0  0  0  0
  -29.4590  -28.8730    7.5370 N   0  0  0  0  0  0  0  0  0  0  0  0
  -30.3960  -30.8290    8.2470 O   0  0  0  0  0  0  0  0  0  0  0  0
  -29.5200  -29.3630    9.7470 N   0  0  0  0  0  0  0  0  0  0  0  0
  -29.0940  -28.4510    9.8200 H   0  0  0  0  0  0  0  0  0  0  0  0
  -25.6840  -26.3090    9.1140 C   0  0  0  0  0  0  0  0  0  0  0  0
  -25.2290  -25.0370    8.8990 C   0  0  0  0  0  0  0  0  0  0  0  0
  -25.8620  -24.5890    7.7000 C   0  0  0  0  0  0  0  0  0  0  0  0
  -26.5570  -26.5800    8.0720 N   0  0  0  0  0  0  0  0  0  0  0  0
  -26.7000  -25.5120    7.2480 N   0  0  0  0  0  0  0  0  0  0  0  0
  -25.6800  -23.3570    6.9240 C   0  0  0  0  0  0  0  0  0  0  0  0
  -26.7710  -22.5260    6.5930 C   0  0  0  0  0  3  0  0  0  0  0  0
  -26.5670  -21.3380    5.8580 C   0  0  0  0  0  3  0  0  0  0  0  0
  -25.2630  -20.9710    5.4500 C   0  0  0  0  0  0  0  0  0  0  0  0
  -24.1830  -21.8160    5.7630 C   0  0  0  0  0  3  0  0  0  0  0  0
  -24.3880  -22.9990    6.4900 C   0  0  0  0  0  3  0  0  0  0  0  0
  -24.9720  -19.8490    4.7130 O   0  0  0  0  0  0  0  0  0  0  0  0
  -25.7390  -18.7150    4.7970 C   0  0  0  0  0  0  0  0  0  0  0  0
  -25.9480  -18.0450    6.0210 C   0  0  0  0  0  3  0  0  0  0  0  0
  -26.6850  -16.8440    6.0500 C   0  0  0  0  0  3  0  0  0  0  0  0
  -27.2040  -16.3080    4.8560 C   0  0  0  0  0  0  0  0  0  0  0  0
  -26.9910  -16.9710    3.6350 C   0  0  0  0  0  3  0  0  0  0  0  0
  -26.2580  -18.1700    3.6050 C   0  0  0  0  0  0  0  0  0  0  0  0
  -26.0380  -18.7940    2.4220 F   0  0  0  0  0  0  0  0  0  0  0  0
  -27.9040  -15.1500    4.8810 F   0  0  0  0  0  0  0  0  0  0  0  0
  -24.1940  -24.3070    9.7050 C   0  0  0  0  0  0  0  0  0  0  0  0
  -24.3100  -22.9870    9.7990 N   0  0  0  0  0  0  0  0  0  0  0  0
  -23.3020  -24.9110   10.2990 O   0  0  0  0  0  0  0  0  0  0  0  0
  -25.0560  -22.4950    9.3300 H   0  0  0  0  0  0  0  0  0  0  0  0
  -23.6430  -22.4610   10.3470 H   0  0  0  0  0  0  0  0  0  0  0  0
  -25.4140  -27.2600   10.0950 N   0  0  0  0  0  0  0  0  0  0  0  0
  -24.7500  -27.0830   10.8390 H   0  0  0  0  0  0  0  0  0  0  0  0
  -25.7880  -28.2000   10.1090 H   0  0  0  0  0  0  0  0  0  0  0  0
  -23.5780  -29.2800   19.2890 C   0  0  0  0  0  2  0  0  0  0  0  0
  -25.1080  -29.6930   19.8860 O   0  0  0  0  0  0  0  0  0  0  0  0
  -23.8000  -28.4550   25.9000 C   0  0  0  0  0  0  0  0  0  0  0  0
  -25.4360  -30.8110   20.6650 C   0  0  0  0  0  3  0  0  0  0  0  0
  -22.3250  -29.2930   24.1400 C   0  0  0  0  0  3  0  0  0  0  0  0
  -23.3490  -30.8210   22.3510 C   0  0  0  0  0  0  0  0  0  0  0  0
  -24.6620  -30.2770   24.4070 C   0  0  0  0  0  2  0  0  0  0  0  0
  -24.6050  -30.5830   22.9200 C   0  0  0  0  0  0  0  0  0  0  0  0
  -25.7230  -30.5960   22.0520 C   0  0  0  0  0  3  0  0  0  0  0  0
  -24.4340  -31.6970   20.3700 C   0  0  0  0  0  2  0  0  0  0  0  0
  -23.2620  -31.4500   21.1000 C   0  0  0  0  0  3  0  0  0  0  0  0
  -22.1260  -30.4740   23.1500 C   0  0  0  0  0  2  0  0  0  0  0  0
  -23.6110  -29.3500   24.8840 N   0  0  0  0  0  0  0  0  0  0  0  0
  -22.9040  -27.6710   26.2530 O   0  0  0  0  0  0  0  0  0  0  0  0
  -22.2770  -27.9270   23.4660 C   0  0  0  0  0  0  0  0  0  0  0  0
  -21.1000  -27.3380   23.3150 N   0  0  0  0  0  0  0  0  0  0  0  0
  -23.3320  -27.3430   23.2110 O   0  0  0  0  0  0  0  0  0  0  0  0
  -20.2650  -27.7680   23.6890 H   0  0  0  0  0  0  0  0  0  0  0  0
  -18.1990  -26.3160   21.0860 C   0  0  0  0  0  0  0  0  0  0  0  0
  -20.9700  -26.1400   22.4950 C   0  0  2  0  0  0  0  0  0  0  0  0
  -22.2140  -26.4830   21.1260 C   0  0  0  0  0  1  0  0  0  0  0  0
  -20.2800  -27.5090   18.6130 C   0  0  0  0  0 15  0  0  0  0  0  0
  -18.4720  -27.0270   19.3890 C   0  0  0  0  0  1  0  0  0  0  0  0
  -19.2060  -26.0150   22.2900 C   0  0  0  0  0  0  0  0  0  0  0  0
  -18.6570  -25.6370   23.5390 C   0  0  0  0  0  3  0  0  0  0  0  0
  -17.3000  -25.3800   23.7400 C   0  0  0  0  0  3  0  0  0  0  0  0
  -16.4210  -25.4590   22.6530 C   0  0  0  0  0  3  0  0  0  0  0  0
  -16.8610  -25.9070   21.3820 C   0  0  0  0  0  3  0  0  0  0  0  0
  -25.1380  -28.3890   26.6710 C   0  0  0  0  0  3  0  0  0  0  0  0
  -24.7780  -28.0880   28.0590 N   0  0  0  0  0  0  0  0  0  0  0  0
  -24.7480  -28.9970   29.0370 C   0  0  0  0  0  0  0  0  0  0  0  0
  -25.1280  -30.1600   28.8800 O   0  0  0  0  0  0  0  0  0  0  0  0
  -24.4040  -27.1680   28.2430 H   0  0  0  0  0  0  0  0  0  0  0  0
  -22.8150  -29.1090   30.6410 C   0  0  0  0  0  1  0  0  0  0  0  0
  -24.2240  -28.5400   30.4080 C   0  0  0  0  0  3  0  0  0  0  0  0
  -26.3860  -28.2110   31.5220 C   0  0  0  0  0  1  0  0  0  0  0  0
  -25.1110  -28.9240   31.5270 N   0  0  0  0  0  0  0  0  0  0  0  0
  -24.6560  -28.7530   32.4210 H   0  0  0  0  0  0  0  0  0  0  0  0
  -26.1450  -27.3120   26.1100 C   0  0  1  0  0  0  0  0  0  0  0  0
  -25.5220  -25.9100   25.9180 C   0  0  0  0  0  1  0  0  0  0  0  0
  -26.7320  -27.7550   24.7500 C   0  0  0  0  0  1  0  0  0  0  0  0
  -27.3380  -27.1830   27.0840 C   0  0  0  0  0  1  0  0  0  0  0  0
  1 77  1  0
  2  3  2  0
  2  4  1  0
  3  5  1  0
  4  6  2  0
  6  1  1  0
  8  7  1  0
  8  3  1  0
  9  2  1  0
 10  9  1  0
 11 12  1  0
 11 13  1  0
 11 10  1  0
 14 11  1  0
 15 14  1  0
 16 15  1  0
 17 16  1  0
 18 17  1  0
 19 18  1  0
 20 28  1  0
 21 26  1  0
 22 21  1  0
 22 23  1  0
 24 23  1  0
 24 25  1  0
 24 33  1  0
 26 25  1  0
 26 20  1  0
 27 20  2  0
 28 29  1  0
 28 19  1  0
 30 55  1  0
 31 30  2  0
 31 50  1  0
 32 31  1  0
 33 30  1  0
 34 32  2  0
 34 33  1  0
 35 32  1  0
 36 35  1  0
 37 36  2  0
 38 39  2  0
 38 37  1  0
 39 40  1  0
 40 35  2  0
 41 42  1  0
 41 38  1  0
 42 43  1  0
 43 44  2  0
 45 49  1  0
 45 44  1  0
 46 45  2  0
 47 46  1  0
 47 42  2  0
 48 47  1  0
 50 51  1  0
 50 52  2  0
 51 54  1  0
 53 51  1  0
 55 57  1  0
 55 56  1  0
 58  4  1  0
 58 59  1  0
 59 61  1  0
 60 71  2  0
 61 67  1  0
 61 66  1  0
 62 69  1  0
 62 70  1  0
 63 65  1  0
 63 69  1  0
 64 70  1  0
 65 64  1  0
 66 65  2  0
 67 68  1  0
 68 63  2  0
 70 60  1  0
 72 62  1  0
 73 72  1  0
 73 75  1  0
 74 72  2  0
 76 85  2  0
 76 81  1  0
 77 78  1  6
 77 73  1  0
 80 76  1  0
 81 77  1  0
 81 82  2  0
 82 83  1  0
 84 83  2  0
 85 84  1  0
 86 60  1  0
 86 87  1  0
 87 90  1  0
 87 88  1  0
 88 92  1  0
 89 88  2  0
 92 91  1  0
 92 94  1  0
 93 94  1  0
 94 95  1  0
 96 86  1  0
 96 99  1  1
 97 96  1  0
 98 96  1  0
M  ISO  4  20 100  28 100  58 101  59 101
M  END
>  <TORSDO>  (86) 
F 27

>  <SCORE>  (86) 
-1.990

>  <name>  (86) 
85

>  <ligand_id>  (86) 
85

>  <original_smiles>  (86) 
[H]c1nc(C([H])([H])Oc2c([H])c([H])c3c(c2[H])C([H])([H])N(C(=O)C([H])(N([H])C(=O)C([H])(N([H])C([H])([H])[H])C([H])([H])[H])C(C([H])([H])[H])(C([H])([H])[H])C([H])([H])[H])C([H])(C(=O)N([H])C2([H])c4c([H])c([H])c([H])c([H])c4C([H])([H])C([H])([H])C2([H])[H])C3([H])[H])c(C([H])([H])C([H])([H])[N+]([H])([H])C([H])([H])C([H])([H])C([H])([H])C([H])([H])C([H])([H])C([H])([H])N([H])C(=O)N2C([H])([H])C([H])([H])C([H])([H])C([H])(n3nc(-c4c([H])c([H])c(Oc5c([H])c([H])c(F)c([H])c5F)c([H])c4[H])c(C(=O)N([H])[H])c3N([H])[H])C2([H])[H])c(C([H])([H])C([H])([H])[H])n1

>  <smiles>  (86) 
[H]c1nc(C([H])([H])Oc2c([H])c([H])c3c(c2[H])C([H])([H])N(C(=O)C([H])(N([H])C(=O)C([H])(N([H])C([H])([H])[H])C([H])([H])[H])C(C([H])([H])[H])(C([H])([H])[H])C([H])([H])[H])C([H])(C(=O)N([H])C2([H])c4c([H])c([H])c([H])c([H])c4C([H])([H])C([H])([H])C2([H])[H])C3([H])[H])c(C([H])([H])C([H])([H])[N+]([H])([H])C([H])([H])C([H])([H])C([H])([H])C([H])([H])C([H])([H])C([H])([H])N([H])C(=O)N2C([H])([H])C([H])([H])C([H])([H])C([H])(n3nc(-c4c([H])c([H])c(Oc5c([H])c([H])c(F)c([H])c5F)c([H])c4[H])c(C(=O)N([H])[H])c3N([H])[H])C2([H])[H])c(C([H])([H])C([H])([H])[H])n1

$$$$
86:0:0
     RDKit          3D

 95103  0  0  1  0  0  0  0  0999 V2000
  -28.4600  -21.9270   18.5430 C   0  0  0  0  0  3  0  0  0  0  0  0
  -28.8940  -21.7840   19.8340 C   0  0  0  0  0  0  0  0  0  0  0  0
  -29.3030  -20.3920   19.8970 C   0  0  0  0  0  0  0  0  0  0  0  0
  -29.2120  -19.8200   18.7020 N   0  0  0  0  0  0  0  0  0  0  0  0
  -28.6700  -20.7410   17.8820 N   0  0  0  0  0  0  0  0  0  0  0  0
  -28.9590  -22.8860   20.8940 C   0  0  0  0  0  2  0  0  0  0  0  0
  -28.0820  -24.1760   20.6720 C   0  0  0  0  0  2  0  0  0  0  0  0
  -28.5720  -25.2500   19.6480 C   0  0  0  0  0  2  0  0  0  0  0  0
  -28.4530  -26.6310   20.0760 O   0  0  0  0  0  0  0  0  0  0  0  0
  -24.5120  -31.7110   23.1600 C   0  0  0  0  0  0  0  0  0  0  0  0
  -27.2540  -27.3280   20.0370 C   0  0  0  0  0  0  0  0  0  0  0  0
  -23.3480  -30.3290   21.4730 C   0  0  0  0  0  3  0  0  0  0  0  0
  -24.8400  -28.8290   20.0390 C   0  0  0  0  0  0  0  0  0  0  0  0
  -25.8740  -30.7120   21.3200 C   0  0  0  0  0  2  0  0  0  0  0  0
  -25.9830  -29.3510   20.6550 C   0  0  0  0  0  0  0  0  0  0  0  0
  -27.1890  -28.6080   20.6480 C   0  0  0  0  0  3  0  0  0  0  0  0
  -26.0860  -26.8240   19.4210 C   0  0  0  0  0  3  0  0  0  0  0  0
  -24.8880  -27.5680   19.4200 C   0  0  0  0  0  3  0  0  0  0  0  0
  -23.5860  -29.6770   20.0830 C   0  0  0  0  0  2  0  0  0  0  0  0
  -24.5960  -30.9330   22.0430 N   0  0  0  0  0  0  0  0  0  0  0  0
  -23.4190  -31.9610   23.6880 O   0  0  0  0  0  0  0  0  0  0  0  0
  -22.6920  -29.2840   22.4040 C   0  0  0  0  0  0  0  0  0  0  0  0
  -21.3750  -29.0770   22.2390 N   0  0  0  0  0  0  0  0  0  0  0  0
  -23.3660  -28.6640   23.2300 O   0  0  0  0  0  0  0  0  0  0  0  0
  -20.8910  -29.6310   21.5460 H   0  0  0  0  0  0  0  0  0  0  0  0
  -18.0190  -27.7920   22.6160 C   0  0  0  0  0  0  0  0  0  0  0  0
  -20.5590  -28.1120   22.9760 C   0  0  0  0  0  3  0  0  0  0  0  0
  -20.7180  -26.6900   22.3900 C   0  0  0  0  0  2  0  0  0  0  0  0
  -19.6580  -26.3500   21.3370 C   0  0  0  0  0  2  0  0  0  0  0  0
  -18.2520  -26.4550   21.9360 C   0  0  0  0  0  2  0  0  0  0  0  0
  -19.1030  -28.5780   23.0900 C   0  0  0  0  0  0  0  0  0  0  0  0
  -18.8340  -29.8300   23.6850 C   0  0  0  0  0  3  0  0  0  0  0  0
  -17.5130  -30.2970   23.8130 C   0  0  0  0  0  3  0  0  0  0  0  0
  -16.4410  -29.5090   23.3560 C   0  0  0  0  0  3  0  0  0  0  0  0
  -16.6960  -28.2600   22.7630 C   0  0  0  0  0  3  0  0  0  0  0  0
  -25.7800  -32.3450   23.8130 C   0  0  0  0  0  3  0  0  0  0  0  0
  -25.4600  -33.7430   24.1340 N   0  0  0  0  0  0  0  0  0  0  0  0
  -25.8390  -34.7970   23.4010 C   0  0  0  0  0  0  0  0  0  0  0  0
  -26.5630  -34.6970   22.4060 O   0  0  0  0  0  0  0  0  0  0  0  0
  -24.8180  -33.8950   24.8980 H   0  0  0  0  0  0  0  0  0  0  0  0
  -24.1500  -36.6100   22.9580 C   0  0  0  0  0  1  0  0  0  0  0  0
  -25.3360  -36.1860   23.8400 C   0  0  0  0  0  3  0  0  0  0  0  0
  -27.4240  -37.0410   24.8090 C   0  0  0  0  0  1  0  0  0  0  0  0
  -26.3820  -37.2310   23.8030 N   0  0  0  0  0  0  0  0  0  0  0  0
  -25.9750  -38.1530   23.9400 H   0  0  0  0  0  0  0  0  0  0  0  0
  -26.2660  -31.5750   25.1020 C   0  0  1  0  0  0  0  0  0  0  0  0
  -25.1480  -31.3450   26.1460 C   0  0  0  0  0  1  0  0  0  0  0  0
  -26.8510  -30.1930   24.7230 C   0  0  0  0  0  1  0  0  0  0  0  0
  -27.4040  -32.3670   25.7890 C   0  0  0  0  0  1  0  0  0  0  0  0
  -29.9480  -19.5490   21.0050 C   0  0  0  0  0  2  0  0  0  0  0  0
  -29.4410  -18.0640   21.1220 C   0  0  0  0  0  3  0  0  0  0  0  0
  -30.4180  -17.0790   21.8440 C   0  0  0  0  0  3  0  0  0  0  0  0
  -30.8630  -14.6010   21.4360 C   0  0  0  0  0  0  0  0  0  0  0  0
  -30.7840  -12.3650   20.3850 C   0  0  0  0  0  2  0  0  0  0  0  0
  -29.9750  -12.4600   19.0740 C   0  0  0  0  0  2  0  0  0  0  0  0
  -28.4680  -12.2840   19.3490 C   0  0  0  0  0  2  0  0  0  0  0  0
  -27.9630  -13.1700   20.5180 C   0  0  0  0  0  3  0  0  0  0  0  0
  -28.8950  -13.0520   21.7450 C   0  0  0  0  0  2  0  0  0  0  0  0
  -30.2570  -13.3880   21.3040 N   0  0  0  0  0  0  0  0  0  0  0  0
  -32.0470  -14.7840   21.1380 O   0  0  0  0  0  0  0  0  0  0  0  0
  -30.0510  -15.6420   21.7470 N   0  0  0  0  0  0  0  0  0  0  0  0
  -29.0890  -15.4030   21.9380 H   0  0  0  0  0  0  0  0  0  0  0  0
  -25.5150  -13.7400   21.0600 C   0  0  0  0  0  0  0  0  0  0  0  0
  -24.4180  -12.9500   21.2790 C   0  0  0  0  0  0  0  0  0  0  0  0
  -24.8810  -11.6010   21.1950 C   0  0  0  0  0  0  0  0  0  0  0  0
  -26.5750  -12.8710   20.8590 N   0  0  0  0  0  0  0  0  0  0  0  0
  -26.1930  -11.5760   20.9990 N   0  0  0  0  0  0  0  0  0  0  0  0
  -24.1400  -10.3340   21.2330 C   0  0  0  0  0  0  0  0  0  0  0  0
  -24.4990   -9.2960   22.1210 C   0  0  0  0  0  3  0  0  0  0  0  0
  -23.7620   -8.0930   22.1510 C   0  0  0  0  0  3  0  0  0  0  0  0
  -22.6510   -7.9190   21.2910 C   0  0  0  0  0  0  0  0  0  0  0  0
  -22.3130   -8.9470   20.3930 C   0  0  0  0  0  3  0  0  0  0  0  0
  -23.0520  -10.1410   20.3600 C   0  0  0  0  0  3  0  0  0  0  0  0
  -21.8920   -6.7760   21.2330 O   0  0  0  0  0  0  0  0  0  0  0  0
  -21.7270   -5.9640   22.3270 C   0  0  0  0  0  0  0  0  0  0  0  0
  -21.1690   -6.4440   23.5320 C   0  0  0  0  0  3  0  0  0  0  0  0
  -20.9540   -5.5590   24.6080 C   0  0  0  0  0  3  0  0  0  0  0  0
  -21.2850   -4.1980   24.4790 C   0  0  0  0  0  0  0  0  0  0  0  0
  -21.8360   -3.7180   23.2770 C   0  0  0  0  0  3  0  0  0  0  0  0
  -22.0530   -4.5990   22.2030 C   0  0  0  0  0  0  0  0  0  0  0  0
  -22.5640   -4.1280   21.0400 F   0  0  0  0  0  0  0  0  0  0  0  0
  -21.0720   -3.3460   25.5090 F   0  0  0  0  0  0  0  0  0  0  0  0
  -23.0030  -13.4160   21.4590 C   0  0  0  0  0  0  0  0  0  0  0  0
  -22.2060  -12.6740   22.2210 N   0  0  0  0  0  0  0  0  0  0  0  0
  -22.6070  -14.4700   20.9630 O   0  0  0  0  0  0  0  0  0  0  0  0
  -22.5370  -11.8200   22.6450 H   0  0  0  0  0  0  0  0  0  0  0  0
  -21.2520  -12.9650   22.3830 H   0  0  0  0  0  0  0  0  0  0  0  0
  -25.6930  -15.1190   20.9930 N   0  0  0  0  0  0  0  0  0  0  0  0
  -24.9170  -15.7660   21.0770 H   0  0  0  0  0  0  0  0  0  0  0  0
  -26.5650  -15.5760   20.7580 H   0  0  0  0  0  0  0  0  0  0  0  0
  -28.4560  -20.4340   16.4730 C   0  0  0  0  0  2  0  0  0  0  0  0
  -27.9890  -17.9690   16.9560 C   0  0  0  0  0  1  0  0  0  0  0  0
  -26.0710  -19.5460   16.5950 C   0  0  0  0  0  1  0  0  0  0  0  0
  -27.5610  -18.9210   14.6810 C   0  0  0  0  0  1  0  0  0  0  0  0
  -27.5230  -19.2240   16.1910 C   0  0  1  0  0  0  0  0  0  0  0  0
  1  2  2  0
  2  3  1  0
  2  6  1  0
  3 50  1  0
  4  3  2  0
  5  1  1  0
  5  4  1  0
  7  6  1  0
  8  9  1  0
  8  7  1  0
 10 21  2  0
 11  9  1  0
 11 16  1  0
 12 20  1  0
 12 22  1  0
 13 19  1  0
 13 15  1  0
 14 20  1  0
 15 14  1  0
 16 15  2  0
 17 11  2  0
 18 17  1  0
 18 13  2  0
 19 12  1  0
 20 10  1  0
 22 24  2  0
 23 22  1  0
 25 23  1  0
 26 35  2  0
 26 31  1  0
 27 23  1  0
 27 31  1  0
 28 27  1  0
 29 30  1  0
 29 28  1  0
 30 26  1  0
 31 32  2  0
 32 33  1  0
 34 33  2  0
 35 34  1  0
 36 10  1  0
 36 37  1  0
 36 46  1  0
 37 40  1  0
 38 42  1  0
 38 37  1  0
 39 38  2  0
 42 41  1  0
 44 42  1  0
 44 45  1  0
 44 43  1  0
 46 49  1  1
 46 47  1  0
 48 46  1  0
 50 51  1  0
 51 52  2  0
 53 61  1  0
 54 59  1  0
 55 56  1  0
 55 54  1  0
 57 56  1  0
 57 66  1  0
 57 58  1  0
 59 53  1  0
 59 58  1  0
 60 53  2  0
 61 52  1  0
 61 62  1  0
 63 64  2  0
 64 83  1  0
 65 68  1  0
 65 64  1  0
 66 67  1  0
 66 63  1  0
 67 65  2  0
 68 69  1  0
 69 70  2  0
 71 70  1  0
 72 71  2  0
 73 72  1  0
 73 68  2  0
 74 71  1  0
 74 75  1  0
 75 76  1  0
 76 77  2  0
 78 77  1  0
 78 82  1  0
 79 78  2  0
 80 75  2  0
 80 79  1  0
 81 80  1  0
 83 84  1  0
 84 87  1  0
 84 86  1  0
 85 83  2  0
 88 63  1  0
 88 89  1  0
 90 88  1  0
 91  5  1  0
 95 94  1  6
 95 91  1  0
 95 93  1  0
 95 92  1  0
M  ISO  4   8 101   9 101  53 100  61 100
M  END
>  <TORSDO>  (87) 
F 24

>  <SCORE>  (87) 
-9.135

>  <name>  (87) 
86

>  <ligand_id>  (87) 
86

>  <original_smiles>  (87) 
[H]c1c([H])c([H])c2c(c1[H])C([H])([H])C([H])([H])C([H])([H])C2([H])N([H])C(=O)C1([H])N(C(=O)C([H])(N([H])C(=O)C([H])(N([H])C([H])([H])[H])C([H])([H])[H])C(C([H])([H])[H])(C([H])([H])[H])C([H])([H])[H])C([H])([H])c2c([H])c(OC([H])([H])C([H])([H])C([H])([H])c3c(C([H])([H])C([H])([H])C([H])([H])N([H])C(=O)N4C([H])([H])C([H])([H])C([H])([H])C([H])(n5nc(-c6c([H])c([H])c(Oc7c([H])c([H])c(F)c([H])c7F)c([H])c6[H])c(C(=O)N([H])[H])c5N([H])[H])C4([H])[H])nn(C([H])([H])C(C([H])([H])[H])(C([H])([H])[H])C([H])([H])[H])c3[H])c([H])c([H])c2C1([H])[H]

>  <smiles>  (87) 
[H]c1c([H])c([H])c2c(c1[H])C([H])([H])C([H])([H])C([H])([H])C2([H])N([H])C(=O)C1([H])N(C(=O)C([H])(N([H])C(=O)C([H])(N([H])C([H])([H])[H])C([H])([H])[H])C(C([H])([H])[H])(C([H])([H])[H])C([H])([H])[H])C([H])([H])c2c([H])c(OC([H])([H])C([H])([H])C([H])([H])c3c(C([H])([H])C([H])([H])C([H])([H])N([H])C(=O)N4C([H])([H])C([H])([H])C([H])([H])C([H])(n5nc(-c6c([H])c([H])c(Oc7c([H])c([H])c(F)c([H])c7F)c([H])c6[H])c(C(=O)N([H])[H])c5N([H])[H])C4([H])[H])nn(C([H])([H])C(C([H])([H])[H])(C([H])([H])[H])C([H])([H])[H])c3[H])c([H])c([H])c2C1([H])[H]

$$$$
87:0:0
     RDKit          3D

 91 99  0  0  1  0  0  0  0  0999 V2000
  -30.6630  -21.6170   20.3540 C   0  0  0  0  0  3  0  0  0  0  0  0
  -30.2790  -23.8010   20.3960 C   0  0  0  0  0  3  0  0  0  0  0  0
  -29.2970  -21.7210   20.3790 C   0  0  0  0  0  0  0  0  0  0  0  0
  -29.0270  -23.2420   20.3960 C   0  0  0  0  0  0  0  0  0  0  0  0
  -31.2660  -22.8500   20.3530 N   0  0  0  0  0  0  0  0  0  0  0  0
  -33.0830  -23.4810   18.8150 C   0  0  0  0  0  1  0  0  0  0  0  0
  -33.5340  -21.9380   20.7830 C   0  0  0  0  0  1  0  0  0  0  0  0
  -32.6970  -23.1150   20.2570 C   0  0  0  0  0  3  0  0  0  0  0  0
  -28.5530  -20.2570   20.3010 C   0  0  0  0  0  2  0  0  0  0  0  0
  -29.1860  -18.7660   20.8360 C   0  0  0  0  0  2  0  0  0  0  0  0
  -29.7370  -17.4340   19.9460 C   0  0  0  0  0  2  0  0  0  0  0  0
  -30.3240  -14.7310   20.0240 C   0  0  0  0  0  0  0  0  0  0  0  0
  -30.1130  -12.4400   18.9670 C   0  0  0  0  0  2  0  0  0  0  0  0
  -29.0820  -12.5010   17.8150 C   0  0  0  0  0  2  0  0  0  0  0  0
  -27.6590  -12.2580   18.3490 C   0  0  0  0  0  2  0  0  0  0  0  0
  -27.3600  -13.0880   19.6250 C   0  0  0  0  0  3  0  0  0  0  0  0
  -28.5090  -13.0230   20.6570 C   0  0  0  0  0  2  0  0  0  0  0  0
  -29.7300  -13.4710   19.9760 N   0  0  0  0  0  0  0  0  0  0  0  0
  -31.4810  -14.8230   19.5980 O   0  0  0  0  0  0  0  0  0  0  0  0
  -29.5700  -15.9010   20.3310 N   0  0  0  0  0  0  0  0  0  0  0  0
  -28.6580  -15.6760   20.7000 H   0  0  0  0  0  0  0  0  0  0  0  0
  -25.0410  -13.6020   20.5740 C   0  0  0  0  0  0  0  0  0  0  0  0
  -24.0160  -12.7990   20.9960 C   0  0  0  0  0  0  0  0  0  0  0  0
  -24.4890  -11.4570   20.8680 C   0  0  0  0  0  0  0  0  0  0  0  0
  -26.0690  -12.7490   20.2130 N   0  0  0  0  0  0  0  0  0  0  0  0
  -25.7520  -11.4490   20.4540 N   0  0  0  0  0  0  0  0  0  0  0  0
  -23.7870  -10.1800   21.0590 C   0  0  0  0  0  0  0  0  0  0  0  0
  -24.2590   -9.2090   21.9690 C   0  0  0  0  0  3  0  0  0  0  0  0
  -23.5560   -7.9980   22.1520 C   0  0  0  0  0  3  0  0  0  0  0  0
  -22.3670   -7.7490   21.4270 C   0  0  0  0  0  0  0  0  0  0  0  0
  -21.9140   -8.7100   20.5050 C   0  0  0  0  0  3  0  0  0  0  0  0
  -22.6170   -9.9120   20.3200 C   0  0  0  0  0  3  0  0  0  0  0  0
  -21.6330   -6.5930   21.5220 O   0  0  0  0  0  0  0  0  0  0  0  0
  -21.5880   -5.8590   22.6810 C   0  0  0  0  0  0  0  0  0  0  0  0
  -21.0890   -6.4000   23.8860 C   0  0  0  0  0  3  0  0  0  0  0  0
  -20.9990   -5.5900   25.0360 C   0  0  0  0  0  3  0  0  0  0  0  0
  -21.3940   -4.2390   24.9800 C   0  0  0  0  0  0  0  0  0  0  0  0
  -21.8850   -3.6980   23.7780 C   0  0  0  0  0  3  0  0  0  0  0  0
  -21.9780   -4.5060   22.6320 C   0  0  0  0  0  0  0  0  0  0  0  0
  -22.4330   -3.9720   21.4720 F   0  0  0  0  0  0  0  0  0  0  0  0
  -21.2970   -3.4600   26.0830 F   0  0  0  0  0  0  0  0  0  0  0  0
  -22.6430  -13.2480   21.3960 C   0  0  0  0  0  0  0  0  0  0  0  0
  -21.9830  -12.5060   22.2770 N   0  0  0  0  0  0  0  0  0  0  0  0
  -22.1640  -14.2950   20.9600 O   0  0  0  0  0  0  0  0  0  0  0  0
  -22.3820  -11.6590   22.6520 H   0  0  0  0  0  0  0  0  0  0  0  0
  -21.0620  -12.7890   22.5810 H   0  0  0  0  0  0  0  0  0  0  0  0
  -25.1740  -14.9820   20.4440 N   0  0  0  0  0  0  0  0  0  0  0  0
  -24.4010  -15.6090   20.6360 H   0  0  0  0  0  0  0  0  0  0  0  0
  -25.9690  -15.4500   20.0270 H   0  0  0  0  0  0  0  0  0  0  0  0
  -27.8190  -24.3640   20.3900 C   0  0  0  0  0  2  0  0  0  0  0  0
  -28.1080  -25.9020   20.4730 O   0  0  0  0  0  0  0  0  0  0  0  0
  -24.6590  -31.7630   23.3410 C   0  0  0  0  0  0  0  0  0  0  0  0
  -27.0780  -26.9100   20.3900 C   0  0  0  0  0  0  0  0  0  0  0  0
  -23.4130  -30.3800   21.7260 C   0  0  0  0  0  3  0  0  0  0  0  0
  -24.8050  -28.7300   20.3290 C   0  0  0  0  0  0  0  0  0  0  0  0
  -25.9730  -30.5540   21.5560 C   0  0  0  0  0  2  0  0  0  0  0  0
  -25.9990  -29.1480   20.9290 C   0  0  0  0  0  0  0  0  0  0  0  0
  -27.1370  -28.2560   20.9400 C   0  0  0  0  0  3  0  0  0  0  0  0
  -25.8580  -26.5900   19.7570 C   0  0  0  0  0  3  0  0  0  0  0  0
  -24.7470  -27.4620   19.7290 C   0  0  0  0  0  3  0  0  0  0  0  0
  -23.6100  -29.6720   20.3580 C   0  0  0  0  0  2  0  0  0  0  0  0
  -24.7030  -30.9210   22.2620 N   0  0  0  0  0  0  0  0  0  0  0  0
  -23.5830  -32.0950   23.8610 O   0  0  0  0  0  0  0  0  0  0  0  0
  -22.6990  -29.4150   22.7050 C   0  0  0  0  0  0  0  0  0  0  0  0
  -21.3820  -29.2140   22.5190 N   0  0  0  0  0  0  0  0  0  0  0  0
  -23.3360  -28.8470   23.5970 O   0  0  0  0  0  0  0  0  0  0  0  0
  -20.9250  -29.7290   21.7800 H   0  0  0  0  0  0  0  0  0  0  0  0
  -18.0210  -27.9070   22.8440 C   0  0  0  0  0  0  0  0  0  0  0  0
  -20.5360  -28.3020   23.2950 C   0  0  0  0  0  3  0  0  0  0  0  0
  -20.7390  -26.8360   22.8480 C   0  0  0  0  0  2  0  0  0  0  0  0
  -19.7400  -26.3860   21.7790 C   0  0  0  0  0  2  0  0  0  0  0  0
  -18.3050  -26.5180   22.2950 C   0  0  0  0  0  2  0  0  0  0  0  0
  -19.0690  -28.7500   23.2980 C   0  0  0  0  0  0  0  0  0  0  0  0
  -18.7520  -30.0430   23.7690 C   0  0  0  0  0  3  0  0  0  0  0  0
  -17.4190  -30.4940   23.7900 C   0  0  0  0  0  3  0  0  0  0  0  0
  -16.3840  -29.6500   23.3510 C   0  0  0  0  0  3  0  0  0  0  0  0
  -16.6850  -28.3580   22.8840 C   0  0  0  0  0  3  0  0  0  0  0  0
  -25.9570  -32.3630   23.9620 C   0  0  0  0  0  3  0  0  0  0  0  0
  -25.6990  -33.7810   24.2580 N   0  0  0  0  0  0  0  0  0  0  0  0
  -26.0250  -34.8030   23.4560 C   0  0  0  0  0  0  0  0  0  0  0  0
  -26.6430  -34.6500   22.3990 O   0  0  0  0  0  0  0  0  0  0  0  0
  -25.1450  -33.9750   25.0790 H   0  0  0  0  0  0  0  0  0  0  0  0
  -24.3090  -36.6240   23.1630 C   0  0  0  0  0  1  0  0  0  0  0  0
  -25.6000  -36.2210   23.8930 C   0  0  0  0  0  3  0  0  0  0  0  0
  -27.8010  -37.1040   24.5340 C   0  0  0  0  0  1  0  0  0  0  0  0
  -26.6400  -37.2450   23.6590 N   0  0  0  0  0  0  0  0  0  0  0  0
  -26.2600  -38.1800   23.7840 H   0  0  0  0  0  0  0  0  0  0  0  0
  -26.4280  -31.6080   25.2660 C   0  0  1  0  0  0  0  0  0  0  0  0
  -25.3120  -31.4340   26.3240 C   0  0  0  0  0  1  0  0  0  0  0  0
  -26.9690  -30.2010   24.9200 C   0  0  0  0  0  1  0  0  0  0  0  0
  -27.5950  -32.3800   25.9260 C   0  0  0  0  0  1  0  0  0  0  0  0
  1  3  2  0
  2  4  2  0
  3  4  1  0
  5  1  1  0
  5  2  1  0
  6  8  1  0
  8  5  1  0
  8  7  1  0
  9  3  1  0
  9 10  1  0
 11 20  1  0
 11 10  1  0
 12 20  1  0
 13 18  1  0
 14 15  1  0
 14 13  1  0
 16 15  1  0
 16 25  1  0
 16 17  1  0
 18 12  1  0
 18 17  1  0
 19 12  2  0
 20 21  1  0
 22 23  2  0
 23 42  1  0
 24 23  1  0
 24 27  1  0
 25 26  1  0
 25 22  1  0
 26 24  2  0
 27 28  1  0
 28 29  2  0
 30 33  1  0
 30 29  1  0
 31 30  2  0
 32 31  1  0
 32 27  2  0
 33 34  1  0
 34 35  1  0
 35 36  2  0
 37 36  1  0
 37 41  1  0
 38 37  2  0
 39 34  2  0
 39 38  1  0
 40 39  1  0
 42 43  1  0
 43 46  1  0
 43 45  1  0
 44 42  2  0
 47 22  1  0
 47 48  1  0
 49 47  1  0
 50  4  1  0
 50 51  1  0
 52 63  2  0
 53 51  1  0
 53 58  1  0
 54 62  1  0
 54 64  1  0
 55 61  1  0
 55 57  1  0
 56 62  1  0
 57 58  2  0
 57 56  1  0
 59 53  2  0
 60 59  1  0
 60 55  2  0
 61 54  1  0
 62 52  1  0
 64 66  2  0
 65 64  1  0
 67 65  1  0
 68 77  2  0
 68 73  1  0
 69 65  1  0
 69 73  1  0
 70 69  1  0
 71 72  1  0
 71 70  1  0
 72 68  1  0
 73 74  2  0
 74 75  1  0
 76 75  2  0
 77 76  1  0
 78 52  1  0
 78 79  1  0
 78 88  1  0
 79 82  1  0
 80 84  1  0
 80 79  1  0
 81 80  2  0
 84 83  1  0
 86 87  1  0
 86 84  1  0
 86 85  1  0
 88 91  1  1
 88 89  1  0
 90 88  1  0
M  ISO  4  12 100  20 100  50 101  51 101
M  END
>  <TORSDO>  (88) 
F 21

>  <SCORE>  (88) 
-12.999

>  <name>  (88) 
87

>  <ligand_id>  (88) 
87

>  <original_smiles>  (88) 
[H]c1c([H])c([H])c2c(c1[H])C([H])([H])C([H])([H])C([H])([H])C2([H])N([H])C(=O)C1([H])N(C(=O)C([H])(N([H])C(=O)C([H])(N([H])C([H])([H])[H])C([H])([H])[H])C(C([H])([H])[H])(C([H])([H])[H])C([H])([H])[H])C([H])([H])c2c([H])c(OC([H])([H])c3c(C([H])([H])C([H])([H])C([H])([H])N([H])C(=O)N4C([H])([H])C([H])([H])C([H])([H])C([H])(n5nc(-c6c([H])c([H])c(Oc7c([H])c([H])c(F)c([H])c7F)c([H])c6[H])c(C(=O)N([H])[H])c5N([H])[H])C4([H])[H])c([H])n(C([H])(C([H])([H])[H])C([H])([H])[H])c3[H])c([H])c([H])c2C1([H])[H]

>  <smiles>  (88) 
[H]c1c([H])c([H])c2c(c1[H])C([H])([H])C([H])([H])C([H])([H])C2([H])N([H])C(=O)C1([H])N(C(=O)C([H])(N([H])C(=O)C([H])(N([H])C([H])([H])[H])C([H])([H])[H])C(C([H])([H])[H])(C([H])([H])[H])C([H])([H])[H])C([H])([H])c2c([H])c(OC([H])([H])c3c(C([H])([H])C([H])([H])C([H])([H])N([H])C(=O)N4C([H])([H])C([H])([H])C([H])([H])C([H])(n5nc(-c6c([H])c([H])c(Oc7c([H])c([H])c(F)c([H])c7F)c([H])c6[H])c(C(=O)N([H])[H])c5N([H])[H])C4([H])[H])c([H])n(C([H])(C([H])([H])[H])C([H])([H])[H])c3[H])c([H])c([H])c2C1([H])[H]

$$$$
88:0:0
     RDKit          3D

 91 99  0  0  1  0  0  0  0  0999 V2000
  -28.7630  -22.3340   21.8790 C   0  0  0  0  0  3  0  0  0  0  0  0
  -29.0070  -20.9450   21.8380 C   0  0  0  0  0  3  0  0  0  0  0  0
  -28.4960  -22.3600   19.4720 C   0  0  0  0  0  3  0  0  0  0  0  0
  -28.4820  -23.0580   20.7010 C   0  0  0  0  0  0  0  0  0  0  0  0
  -28.9730  -20.2310   20.6200 C   0  0  0  0  0  0  0  0  0  0  0  0
  -28.7420  -20.9610   19.4240 C   0  0  0  0  0  0  0  0  0  0  0  0
  -28.7120  -20.2560   18.0780 C   0  0  0  0  0  1  0  0  0  0  0  0
  -28.0950  -24.5470   20.8110 C   0  0  0  0  0  2  0  0  0  0  0  0
  -28.6680  -25.5150   19.7440 C   0  0  0  0  0  2  0  0  0  0  0  0
  -28.5740  -26.9030   20.1340 O   0  0  0  0  0  0  0  0  0  0  0  0
  -24.6500  -31.9490   23.2690 C   0  0  0  0  0  0  0  0  0  0  0  0
  -27.3640  -27.5740   20.1300 C   0  0  0  0  0  0  0  0  0  0  0  0
  -23.4620  -30.5450   21.6140 C   0  0  0  0  0  3  0  0  0  0  0  0
  -24.9380  -29.0440   20.1700 C   0  0  0  0  0  0  0  0  0  0  0  0
  -25.9810  -30.9460   21.4120 C   0  0  0  0  0  2  0  0  0  0  0  0
  -26.0880  -29.5810   20.7600 C   0  0  0  0  0  0  0  0  0  0  0  0
  -27.3000  -28.8530   20.7350 C   0  0  0  0  0  3  0  0  0  0  0  0
  -26.1930  -27.0520   19.5360 C   0  0  0  0  0  3  0  0  0  0  0  0
  -24.9860  -27.7790   19.5570 C   0  0  0  0  0  3  0  0  0  0  0  0
  -23.6790  -29.8820   20.2280 C   0  0  0  0  0  2  0  0  0  0  0  0
  -24.7160  -31.1620   22.1580 N   0  0  0  0  0  0  0  0  0  0  0  0
  -23.5650  -32.1980   23.8130 O   0  0  0  0  0  0  0  0  0  0  0  0
  -22.8290  -29.5050   22.5650 C   0  0  0  0  0  0  0  0  0  0  0  0
  -21.5090  -29.2980   22.4330 N   0  0  0  0  0  0  0  0  0  0  0  0
  -23.5220  -28.8860   23.3780 O   0  0  0  0  0  0  0  0  0  0  0  0
  -21.0080  -29.8530   21.7520 H   0  0  0  0  0  0  0  0  0  0  0  0
  -18.1540  -28.0480   22.9210 C   0  0  0  0  0  0  0  0  0  0  0  0
  -20.7080  -28.3370   23.1910 C   0  0  0  0  0  3  0  0  0  0  0  0
  -20.8300  -26.9170   22.5910 C   0  0  0  0  0  2  0  0  0  0  0  0
  -19.7280  -26.5940   21.5750 C   0  0  0  0  0  2  0  0  0  0  0  0
  -18.3470  -26.7110   22.2250 C   0  0  0  0  0  2  0  0  0  0  0  0
  -19.2630  -28.8180   23.3610 C   0  0  0  0  0  0  0  0  0  0  0  0
  -19.0300  -30.0700   23.9690 C   0  0  0  0  0  3  0  0  0  0  0  0
  -17.7200  -30.5520   24.1450 C   0  0  0  0  0  3  0  0  0  0  0  0
  -16.6240  -29.7780   23.7250 C   0  0  0  0  0  3  0  0  0  0  0  0
  -16.8420  -28.5280   23.1180 C   0  0  0  0  0  3  0  0  0  0  0  0
  -25.9260  -32.5920   23.8950 C   0  0  0  0  0  3  0  0  0  0  0  0
  -25.6080  -33.9920   24.2100 N   0  0  0  0  0  0  0  0  0  0  0  0
  -25.9540  -35.0400   23.4520 C   0  0  0  0  0  0  0  0  0  0  0  0
  -26.6440  -34.9320   22.4340 O   0  0  0  0  0  0  0  0  0  0  0  0
  -25.0020  -34.1520   25.0020 H   0  0  0  0  0  0  0  0  0  0  0  0
  -24.2370  -36.8320   23.0420 C   0  0  0  0  0  1  0  0  0  0  0  0
  -25.4530  -36.4290   23.8910 C   0  0  0  0  0  3  0  0  0  0  0  0
  -27.5590  -37.3190   24.7860 C   0  0  0  0  0  1  0  0  0  0  0  0
  -26.4880  -37.4820   23.8070 N   0  0  0  0  0  0  0  0  0  0  0  0
  -26.0750  -38.4020   23.9380 H   0  0  0  0  0  0  0  0  0  0  0  0
  -26.4410  -31.8350   25.1800 C   0  0  1  0  0  0  0  0  0  0  0  0
  -25.3370  -31.5740   26.2320 C   0  0  0  0  0  1  0  0  0  0  0  0
  -27.0590  -30.4700   24.7940 C   0  0  0  0  0  1  0  0  0  0  0  0
  -27.5650  -32.6540   25.8590 C   0  0  0  0  0  1  0  0  0  0  0  0
  -29.1090  -18.6960   20.6600 C   0  0  0  0  0  2  0  0  0  0  0  0
  -30.5500  -18.1510   20.4950 C   0  0  0  0  0  2  0  0  0  0  0  0
  -30.9270  -16.9310   21.3860 C   0  0  0  0  0  2  0  0  0  0  0  0
  -30.9970  -14.6380   20.3500 C   0  0  0  0  0  0  0  0  0  0  0  0
  -30.7080  -12.4420   19.2510 C   0  0  0  0  0  2  0  0  0  0  0  0
  -29.7690  -12.5820   18.0360 C   0  0  0  0  0  2  0  0  0  0  0  0
  -28.2930  -12.4560   18.4640 C   0  0  0  0  0  2  0  0  0  0  0  0
  -27.9460  -13.3470   19.6870 C   0  0  0  0  0  3  0  0  0  0  0  0
  -28.9940  -13.1720   20.8080 C   0  0  0  0  0  2  0  0  0  0  0  0
  -30.3190  -13.4630   20.2370 N   0  0  0  0  0  0  0  0  0  0  0  0
  -32.1070  -14.8190   19.8420 O   0  0  0  0  0  0  0  0  0  0  0  0
  -30.3520  -15.6310   20.9950 N   0  0  0  0  0  0  0  0  0  0  0  0
  -29.4330  -15.4090   21.3460 H   0  0  0  0  0  0  0  0  0  0  0  0
  -25.5580  -13.9880   20.3970 C   0  0  0  0  0  0  0  0  0  0  0  0
  -24.4800  -13.2310   20.7690 C   0  0  0  0  0  0  0  0  0  0  0  0
  -24.9230  -11.8740   20.7400 C   0  0  0  0  0  0  0  0  0  0  0  0
  -26.5900  -13.0930   20.1670 N   0  0  0  0  0  0  0  0  0  0  0  0
  -26.2110  -11.8160   20.4300 N   0  0  0  0  0  0  0  0  0  0  0  0
  -24.1790  -10.6210   20.9330 C   0  0  0  0  0  0  0  0  0  0  0  0
  -24.5650   -9.6770   21.9100 C   0  0  0  0  0  3  0  0  0  0  0  0
  -23.8240   -8.4880   22.0880 C   0  0  0  0  0  3  0  0  0  0  0  0
  -22.6830   -8.2370   21.2890 C   0  0  0  0  0  0  0  0  0  0  0  0
  -22.3180   -9.1700   20.3030 C   0  0  0  0  0  3  0  0  0  0  0  0
  -23.0600  -10.3480   20.1220 C   0  0  0  0  0  3  0  0  0  0  0  0
  -21.9180   -7.0990   21.3750 O   0  0  0  0  0  0  0  0  0  0  0  0
  -21.7700   -6.4180   22.5570 C   0  0  0  0  0  0  0  0  0  0  0  0
  -21.2160   -7.0270   23.7040 C   0  0  0  0  0  3  0  0  0  0  0  0
  -21.0180   -6.2700   24.8770 C   0  0  0  0  0  3  0  0  0  0  0  0
  -21.3660   -4.9060   24.9030 C   0  0  0  0  0  0  0  0  0  0  0  0
  -21.9120   -4.2970   23.7600 C   0  0  0  0  0  3  0  0  0  0  0  0
  -22.1120   -5.0500   22.5890 C   0  0  0  0  0  0  0  0  0  0  0  0
  -22.6200   -4.4530   21.4840 F   0  0  0  0  0  0  0  0  0  0  0  0
  -21.1680   -4.1770   26.0260 F   0  0  0  0  0  0  0  0  0  0  0  0
  -23.0890  -13.7280   21.0420 C   0  0  0  0  0  0  0  0  0  0  0  0
  -22.3560  -13.0470   21.9170 N   0  0  0  0  0  0  0  0  0  0  0  0
  -22.6600  -14.7540   20.5150 O   0  0  0  0  0  0  0  0  0  0  0  0
  -22.7150  -12.2170   22.3640 H   0  0  0  0  0  0  0  0  0  0  0  0
  -21.4230  -13.3620   22.1430 H   0  0  0  0  0  0  0  0  0  0  0  0
  -25.7410  -15.3560   20.2150 N   0  0  0  0  0  0  0  0  0  0  0  0
  -24.9850  -16.0230   20.3200 H   0  0  0  0  0  0  0  0  0  0  0  0
  -26.5980  -15.7780   19.8780 H   0  0  0  0  0  0  0  0  0  0  0  0
  2  1  1  0
  3  4  1  0
  4  8  1  0
  4  1  2  0
  5 51  1  0
  5  2  2  0
  6  3  2  0
  6  5  1  0
  7  6  1  0
  9 10  1  0
  9  8  1  0
 11 22  2  0
 12 10  1  0
 12 17  1  0
 13 21  1  0
 13 23  1  0
 14 20  1  0
 14 16  1  0
 15 21  1  0
 16 15  1  0
 17 16  2  0
 18 19  1  0
 18 12  2  0
 19 14  2  0
 20 13  1  0
 21 11  1  0
 23 25  2  0
 24 23  1  0
 26 24  1  0
 27 36  2  0
 27 32  1  0
 28 24  1  0
 28 32  1  0
 29 28  1  0
 30 31  1  0
 30 29  1  0
 31 27  1  0
 32 33  2  0
 33 34  1  0
 35 34  2  0
 36 35  1  0
 37 11  1  0
 37 38  1  0
 37 47  1  0
 38 41  1  0
 39 43  1  0
 39 38  1  0
 40 39  2  0
 43 42  1  0
 45 43  1  0
 45 46  1  0
 45 44  1  0
 47 50  1  1
 47 48  1  0
 49 47  1  0
 52 51  1  0
 52 53  1  0
 54 62  1  0
 55 60  1  0
 56 57  1  0
 56 55  1  0
 58 57  1  0
 58 67  1  0
 58 59  1  0
 60 54  1  0
 60 59  1  0
 61 54  2  0
 62 63  1  0
 62 53  1  0
 64 65  2  0
 65 84  1  0
 66 65  1  0
 66 69  1  0
 67 64  1  0
 67 68  1  0
 68 66  2  0
 69 70  1  0
 70 71  2  0
 72 75  1  0
 72 71  1  0
 73 72  2  0
 74 73  1  0
 74 69  2  0
 75 76  1  0
 76 81  2  0
 76 77  1  0
 77 78  2  0
 78 79  1  0
 79 83  1  0
 80 79  2  0
 81 80  1  0
 82 81  1  0
 84 85  1  0
 85 88  1  0
 85 87  1  0
 86 84  2  0
 89 90  1  0
 89 64  1  0
 91 89  1  0
M  ISO  4   9 101  10 101  54 100  62 100
M  END
>  <TORSDO>  (89) 
F 21

>  <SCORE>  (89) 
-13.254

>  <name>  (89) 
88

>  <ligand_id>  (89) 
88

>  <original_smiles>  (89) 
[H]c1c([H])c([H])c2c(c1[H])C([H])([H])C([H])([H])C([H])([H])C2([H])N([H])C(=O)C1([H])N(C(=O)C([H])(N([H])C(=O)C([H])(N([H])C([H])([H])[H])C([H])([H])[H])C(C([H])([H])[H])(C([H])([H])[H])C([H])([H])[H])C([H])([H])c2c([H])c(OC([H])([H])C([H])([H])c3c([H])c([H])c(C([H])([H])C([H])([H])C([H])([H])N([H])C(=O)N4C([H])([H])C([H])([H])C([H])([H])C([H])(n5nc(-c6c([H])c([H])c(Oc7c([H])c([H])c(F)c([H])c7F)c([H])c6[H])c(C(=O)N([H])[H])c5N([H])[H])C4([H])[H])c(C([H])([H])[H])c3[H])c([H])c([H])c2C1([H])[H]

>  <smiles>  (89) 
[H]c1c([H])c([H])c2c(c1[H])C([H])([H])C([H])([H])C([H])([H])C2([H])N([H])C(=O)C1([H])N(C(=O)C([H])(N([H])C(=O)C([H])(N([H])C([H])([H])[H])C([H])([H])[H])C(C([H])([H])[H])(C([H])([H])[H])C([H])([H])[H])C([H])([H])c2c([H])c(OC([H])([H])C([H])([H])c3c([H])c([H])c(C([H])([H])C([H])([H])C([H])([H])N([H])C(=O)N4C([H])([H])C([H])([H])C([H])([H])C([H])(n5nc(-c6c([H])c([H])c(Oc7c([H])c([H])c(F)c([H])c7F)c([H])c6[H])c(C(=O)N([H])[H])c5N([H])[H])C4([H])[H])c(C([H])([H])[H])c3[H])c([H])c([H])c2C1([H])[H]

$$$$
89:0:0
     RDKit          3D

 85 93  0  0  1  0  0  0  0  0999 V2000
  -29.0120  -22.7840   20.5440 C   0  0  0  0  0  3  0  0  0  0  0  0
  -29.3510  -19.8670   21.0110 C   0  0  0  0  0  3  0  0  0  0  0  0
  -29.4910  -18.6130   20.2710 C   0  0  0  0  0  0  0  0  0  0  0  0
  -29.2380  -19.1970   18.9970 N   0  0  0  0  0  0  0  0  0  0  0  0
  -29.0440  -20.5430   18.9790 N   0  0  0  0  0  0  0  0  0  0  0  0
  -29.0380  -21.1110   20.2350 N   0  0  0  0  0  0  0  0  0  0  0  0
  -29.5420  -16.8780   20.6560 C   0  0  0  0  0  2  0  0  0  0  0  0
  -30.4010  -15.3860   20.2250 C   0  0  0  0  0  0  0  0  0  0  0  0
  -30.4220  -12.9300   19.3220 C   0  0  0  0  0  2  0  0  0  0  0  0
  -29.4790  -12.7430   18.1020 C   0  0  0  0  0  2  0  0  0  0  0  0
  -28.0350  -12.4620   18.5570 C   0  0  0  0  0  2  0  0  0  0  0  0
  -27.6030  -13.4050   19.7050 C   0  0  0  0  0  3  0  0  0  0  0  0
  -28.6670  -13.5250   20.8150 C   0  0  0  0  0  2  0  0  0  0  0  0
  -29.8950  -14.0480   20.1920 N   0  0  0  0  0  0  0  0  0  0  0  0
  -31.5950  -15.4210   19.8820 O   0  0  0  0  0  0  0  0  0  0  0  0
  -25.2410  -13.9540   20.4980 C   0  0  0  0  0  0  0  0  0  0  0  0
  -24.1870  -13.1730   20.8780 C   0  0  0  0  0  0  0  0  0  0  0  0
  -24.6550  -11.8230   20.8310 C   0  0  0  0  0  0  0  0  0  0  0  0
  -26.2820  -13.0820   20.2300 N   0  0  0  0  0  0  0  0  0  0  0  0
  -25.9420  -11.7930   20.5000 N   0  0  0  0  0  0  0  0  0  0  0  0
  -23.9310  -10.5590   21.0250 C   0  0  0  0  0  0  0  0  0  0  0  0
  -24.3710   -9.5890   21.9520 C   0  0  0  0  0  3  0  0  0  0  0  0
  -23.6450   -8.3930   22.1350 C   0  0  0  0  0  3  0  0  0  0  0  0
  -22.4650   -8.1570   21.3910 C   0  0  0  0  0  0  0  0  0  0  0  0
  -22.0440   -9.1160   20.4520 C   0  0  0  0  0  3  0  0  0  0  0  0
  -22.7710  -10.3030   20.2670 C   0  0  0  0  0  3  0  0  0  0  0  0
  -21.7100   -7.0120   21.4820 O   0  0  0  0  0  0  0  0  0  0  0  0
  -21.6660   -6.2700   22.6350 C   0  0  0  0  0  0  0  0  0  0  0  0
  -21.2300   -6.8200   23.8600 C   0  0  0  0  0  3  0  0  0  0  0  0
  -21.1340   -6.0030   25.0040 C   0  0  0  0  0  3  0  0  0  0  0  0
  -21.4640   -4.6380   24.9250 C   0  0  0  0  0  0  0  0  0  0  0  0
  -21.8940   -4.0860   23.7050 C   0  0  0  0  0  3  0  0  0  0  0  0
  -21.9910   -4.9000   22.5630 C   0  0  0  0  0  0  0  0  0  0  0  0
  -22.3850   -4.3590   21.3850 F   0  0  0  0  0  0  0  0  0  0  0  0
  -21.3650   -3.8510   26.0220 F   0  0  0  0  0  0  0  0  0  0  0  0
  -22.7920  -13.6470   21.1690 C   0  0  0  0  0  0  0  0  0  0  0  0
  -22.0780  -12.9480   22.0420 N   0  0  0  0  0  0  0  0  0  0  0  0
  -22.3480  -14.6730   20.6560 O   0  0  0  0  0  0  0  0  0  0  0  0
  -22.4520  -12.1190   22.4790 H   0  0  0  0  0  0  0  0  0  0  0  0
  -21.1430  -13.2470   22.2800 H   0  0  0  0  0  0  0  0  0  0  0  0
  -25.3980  -15.3260   20.3270 N   0  0  0  0  0  0  0  0  0  0  0  0
  -24.6290  -15.9750   20.4550 H   0  0  0  0  0  0  0  0  0  0  0  0
  -26.2340  -15.7700   19.9700 H   0  0  0  0  0  0  0  0  0  0  0  0
  -28.0430  -24.2400   20.0470 C   0  0  0  0  0  3  0  0  0  0  0  0
  -28.2000  -25.8790   20.3010 O   0  0  0  0  0  0  0  0  0  0  0  0
  -24.6200  -31.8710   23.2250 C   0  0  0  0  0  0  0  0  0  0  0  0
  -27.1810  -26.9760   20.2180 C   0  0  0  0  0  0  0  0  0  0  0  0
  -23.4260  -30.4680   21.5930 C   0  0  0  0  0  3  0  0  0  0  0  0
  -24.8750  -28.8580   20.1700 C   0  0  0  0  0  0  0  0  0  0  0  0
  -25.9910  -30.6800   21.4410 C   0  0  0  0  0  2  0  0  0  0  0  0
  -26.0630  -29.2670   20.7880 C   0  0  0  0  0  0  0  0  0  0  0  0
  -27.2080  -28.3470   20.7850 C   0  0  0  0  0  3  0  0  0  0  0  0
  -25.9630  -26.7220   19.5490 C   0  0  0  0  0  3  0  0  0  0  0  0
  -24.8510  -27.6080   19.5290 C   0  0  0  0  0  3  0  0  0  0  0  0
  -23.6540  -29.7780   20.2190 C   0  0  0  0  0  2  0  0  0  0  0  0
  -24.7010  -31.0340   22.1390 N   0  0  0  0  0  0  0  0  0  0  0  0
  -23.5310  -32.1610   23.7480 O   0  0  0  0  0  0  0  0  0  0  0  0
  -22.7340  -29.4750   22.5640 C   0  0  0  0  0  0  0  0  0  0  0  0
  -21.4040  -29.3080   22.4430 N   0  0  0  0  0  0  0  0  0  0  0  0
  -23.4020  -28.8560   23.3960 O   0  0  0  0  0  0  0  0  0  0  0  0
  -20.9170  -29.8580   21.7490 H   0  0  0  0  0  0  0  0  0  0  0  0
  -18.0260  -28.0870   22.9630 C   0  0  0  0  0  0  0  0  0  0  0  0
  -20.5860  -28.3690   23.2200 C   0  0  0  0  0  3  0  0  0  0  0  0
  -20.6930  -26.9350   22.6510 C   0  0  0  0  0  2  0  0  0  0  0  0
  -19.5910  -26.6030   21.6400 C   0  0  0  0  0  2  0  0  0  0  0  0
  -18.2100  -26.7390   22.2870 C   0  0  0  0  0  2  0  0  0  0  0  0
  -19.1410  -28.8600   23.3860 C   0  0  0  0  0  0  0  0  0  0  0  0
  -18.9130  -30.1190   23.9820 C   0  0  0  0  0  3  0  0  0  0  0  0
  -17.6030  -30.6080   24.1540 C   0  0  0  0  0  3  0  0  0  0  0  0
  -16.5040  -29.8330   23.7440 C   0  0  0  0  0  3  0  0  0  0  0  0
  -16.7160  -28.5750   23.1550 C   0  0  0  0  0  3  0  0  0  0  0  0
  -25.8900  -32.5190   23.8530 C   0  0  0  0  0  3  0  0  0  0  0  0
  -26.3980  -31.7620   25.1430 C   0  0  1  0  0  0  0  0  0  0  0  0
  -25.2980  -31.5350   26.2070 C   0  0  0  0  0  1  0  0  0  0  0  0
  -26.9860  -30.3800   24.7770 C   0  0  0  0  0  1  0  0  0  0  0  0
  -27.5450  -32.5640   25.8050 C   0  0  0  0  0  1  0  0  0  0  0  0
  -25.5700  -33.9200   24.1850 N   0  0  0  0  0  0  0  0  0  0  0  0
  -25.8950  -34.9810   23.4330 C   0  0  0  0  0  0  0  0  0  0  0  0
  -26.5590  -34.8840   22.3980 O   0  0  0  0  0  0  0  0  0  0  0  0
  -24.9780  -34.0670   24.9890 H   0  0  0  0  0  0  0  0  0  0  0  0
  -24.1610  -36.7790   23.1100 C   0  0  0  0  0  1  0  0  0  0  0  0
  -25.4130  -36.3690   23.9040 C   0  0  0  0  0  3  0  0  0  0  0  0
  -27.5520  -37.2610   24.7190 C   0  0  0  0  0  1  0  0  0  0  0  0
  -26.4420  -37.4250   23.7830 N   0  0  0  0  0  0  0  0  0  0  0  0
  -26.0340  -38.3440   23.9330 H   0  0  0  0  0  0  0  0  0  0  0  0
  3  7  1  0
  3  2  2  0
  4  3  1  0
  5  4  2  0
  5  6  1  0
  6  1  1  0
  6  2  1  0
  8  7  1  0
  9 14  1  0
 10 11  1  0
 10  9  1  0
 12 11  1  0
 12 19  1  0
 12 13  1  0
 14  8  1  0
 14 13  1  0
 15  8  2  0
 16 17  2  0
 17 36  1  0
 18 17  1  0
 18 21  1  0
 19 16  1  0
 19 20  1  0
 20 18  2  0
 21 22  1  0
 22 23  2  0
 24 27  1  0
 24 23  1  0
 25 24  2  0
 26 25  1  0
 26 21  2  0
 27 28  1  0
 28 29  1  0
 29 30  2  0
 31 30  1  0
 31 35  1  0
 32 31  2  0
 33 28  2  0
 33 32  1  0
 34 33  1  0
 36 37  1  0
 37 40  1  0
 37 39  1  0
 38 36  2  0
 41 42  1  0
 41 16  1  0
 43 41  1  0
 44 45  1  0
 44  1  2  0
 46 57  2  0
 47 45  1  0
 47 52  1  0
 48 56  1  0
 48 58  1  0
 49 55  1  0
 49 51  1  0
 50 56  1  0
 51 50  1  0
 52 51  2  0
 53 47  2  0
 54 53  1  0
 54 49  2  0
 55 48  1  0
 56 46  1  0
 58 60  2  0
 59 58  1  0
 61 59  1  0
 62 71  2  0
 62 67  1  0
 63 59  1  0
 63 67  1  0
 64 63  1  0
 65 66  1  0
 65 64  1  0
 66 62  1  0
 67 68  2  0
 68 69  1  0
 70 69  2  0
 71 70  1  0
 72 46  1  0
 72 77  1  0
 72 73  1  0
 73 76  1  1
 73 74  1  0
 75 73  1  0
 77 80  1  0
 78 82  1  0
 78 77  1  0
 79 78  2  0
 82 81  1  0
 84 82  1  0
 84 85  1  0
 84 83  1  0
M  ISO  4   7 100   8 100  44 101  45 101
M  END
>  <TORSDO>  (90) 
F 19

>  <SCORE>  (90) 
-16.505

>  <name>  (90) 
89

>  <ligand_id>  (90) 
89

>  <original_smiles>  (90) 
[H]c1c([H])c([H])c2c(c1[H])C([H])([H])C([H])([H])C([H])([H])C2([H])N([H])C(=O)C1([H])N(C(=O)C([H])(N([H])C(=O)C([H])(N([H])C([H])([H])[H])C([H])([H])[H])C(C([H])([H])[H])(C([H])([H])[H])C([H])([H])[H])C([H])([H])c2c([H])c(OC([H])([H])C([H])([H])n3nnc(C([H])([H])C(=O)N4C([H])([H])C([H])([H])C([H])([H])C([H])(n5nc(-c6c([H])c([H])c(Oc7c([H])c([H])c(F)c([H])c7F)c([H])c6[H])c(C(=O)N([H])[H])c5N([H])[H])C4([H])[H])c3[H])c([H])c([H])c2C1([H])[H]

>  <smiles>  (90) 
[H]c1c([H])c([H])c2c(c1[H])C([H])([H])C([H])([H])C([H])([H])C2([H])N([H])C(=O)C1([H])N(C(=O)C([H])(N([H])C(=O)C([H])(N([H])C([H])([H])[H])C([H])([H])[H])C(C([H])([H])[H])(C([H])([H])[H])C([H])([H])[H])C([H])([H])c2c([H])c(OC([H])([H])C([H])([H])n3nnc(C([H])([H])C(=O)N4C([H])([H])C([H])([H])C([H])([H])C([H])(n5nc(-c6c([H])c([H])c(Oc7c([H])c([H])c(F)c([H])c7F)c([H])c6[H])c(C(=O)N([H])[H])c5N([H])[H])C4([H])[H])c3[H])c([H])c([H])c2C1([H])[H]

$$$$
90:0:0
     RDKit          3D

 85 92  0  0  1  0  0  0  0  0999 V2000
  -28.0980  -23.9260   19.9150 C   0  0  0  0  0  3  0  0  0  0  0  0
  -27.6420  -24.6750   17.4260 C   0  0  0  0  0  1  0  0  0  0  0  0
  -28.5370  -23.9410   18.4300 C   0  0  0  0  0  2  0  0  0  0  0  0
  -28.1530  -25.6290   20.3180 O   0  0  0  0  0  0  0  0  0  0  0  0
  -24.6350  -31.8560   23.2620 C   0  0  0  0  0  0  0  0  0  0  0  0
  -27.1650  -26.8200   20.2460 C   0  0  0  0  0  0  0  0  0  0  0  0
  -23.4420  -30.4590   21.6300 C   0  0  0  0  0  3  0  0  0  0  0  0
  -24.8850  -28.8260   20.2080 C   0  0  0  0  0  0  0  0  0  0  0  0
  -26.0200  -30.6190   21.4910 C   0  0  0  0  0  2  0  0  0  0  0  0
  -26.0850  -29.1920   20.8300 C   0  0  0  0  0  0  0  0  0  0  0  0
  -27.2100  -28.2170   20.8150 C   0  0  0  0  0  3  0  0  0  0  0  0
  -25.9160  -26.6470   19.5990 C   0  0  0  0  0  3  0  0  0  0  0  0
  -24.8370  -27.5770   19.5690 C   0  0  0  0  0  3  0  0  0  0  0  0
  -23.6750  -29.7700   20.2560 C   0  0  0  0  0  2  0  0  0  0  0  0
  -24.7230  -31.0090   22.1800 N   0  0  0  0  0  0  0  0  0  0  0  0
  -23.5440  -32.1530   23.7790 O   0  0  0  0  0  0  0  0  0  0  0  0
  -22.7340  -29.4750   22.6010 C   0  0  0  0  0  0  0  0  0  0  0  0
  -21.4050  -29.3060   22.4700 N   0  0  0  0  0  0  0  0  0  0  0  0
  -23.3940  -28.8630   23.4450 O   0  0  0  0  0  0  0  0  0  0  0  0
  -20.9220  -29.8510   21.7700 H   0  0  0  0  0  0  0  0  0  0  0  0
  -18.0290  -28.0570   22.9640 C   0  0  0  0  0  0  0  0  0  0  0  0
  -20.5840  -28.3670   23.2430 C   0  0  0  0  0  3  0  0  0  0  0  0
  -20.7090  -26.9290   22.6850 C   0  0  0  0  0  2  0  0  0  0  0  0
  -19.6210  -26.5800   21.6650 C   0  0  0  0  0  2  0  0  0  0  0  0
  -18.2320  -26.7070   22.2960 C   0  0  0  0  0  2  0  0  0  0  0  0
  -19.1310  -28.8420   23.3940 C   0  0  0  0  0  0  0  0  0  0  0  0
  -18.8840  -30.1020   23.9820 C   0  0  0  0  0  3  0  0  0  0  0  0
  -17.5680  -30.5770   24.1420 C   0  0  0  0  0  3  0  0  0  0  0  0
  -16.4810  -29.7900   23.7240 C   0  0  0  0  0  3  0  0  0  0  0  0
  -16.7120  -28.5310   23.1420 C   0  0  0  0  0  3  0  0  0  0  0  0
  -25.9010  -32.5060   23.8990 C   0  0  0  0  0  3  0  0  0  0  0  0
  -26.3830  -31.7650   25.2090 C   0  0  1  0  0  0  0  0  0  0  0  0
  -25.2680  -31.5710   26.2620 C   0  0  0  0  0  1  0  0  0  0  0  0
  -26.9570  -30.3700   24.8760 C   0  0  0  0  0  1  0  0  0  0  0  0
  -27.5300  -32.5660   25.8680 C   0  0  0  0  0  1  0  0  0  0  0  0
  -25.5870  -33.9150   24.2080 N   0  0  0  0  0  0  0  0  0  0  0  0
  -25.9250  -34.9650   23.4480 C   0  0  0  0  0  0  0  0  0  0  0  0
  -26.5920  -34.8500   22.4160 O   0  0  0  0  0  0  0  0  0  0  0  0
  -24.9940  -34.0780   25.0080 H   0  0  0  0  0  0  0  0  0  0  0  0
  -24.2080  -36.7770   23.0990 C   0  0  0  0  0  1  0  0  0  0  0  0
  -25.4540  -36.3640   23.9000 C   0  0  0  0  0  3  0  0  0  0  0  0
  -27.5970  -37.2500   24.7110 C   0  0  0  0  0  1  0  0  0  0  0  0
  -26.4930  -37.4100   23.7690 N   0  0  0  0  0  0  0  0  0  0  0  0
  -26.0930  -38.3350   23.9030 H   0  0  0  0  0  0  0  0  0  0  0  0
  -28.8810  -22.2500   20.4450 C   0  0  0  0  0  2  0  0  0  0  0  0
  -28.7600  -20.3630   20.0790 C   0  0  0  0  0  3  0  0  0  0  0  0
  -29.7270  -18.7310   20.3850 C   0  0  0  0  0  3  0  0  0  0  0  0
  -30.2650  -15.6350   20.1960 C   0  0  0  0  0  0  0  0  0  0  0  0
  -30.3370  -13.1170   19.3440 C   0  0  0  0  0  2  0  0  0  0  0  0
  -29.4380  -12.7560   18.1300 C   0  0  0  0  0  2  0  0  0  0  0  0
  -28.0100  -12.4170   18.5830 C   0  0  0  0  0  2  0  0  0  0  0  0
  -27.5120  -13.4020   19.6670 C   0  0  0  0  0  3  0  0  0  0  0  0
  -28.5500  -13.6800   20.7770 C   0  0  0  0  0  2  0  0  0  0  0  0
  -29.7260  -14.2860   20.1150 N   0  0  0  0  0  0  0  0  0  0  0  0
  -31.4990  -15.5810   20.0470 O   0  0  0  0  0  0  0  0  0  0  0  0
  -29.5110  -16.9850   20.2530 N   0  0  0  0  0  0  0  0  0  0  0  0
  -28.5220  -16.7740   20.2670 H   0  0  0  0  0  0  0  0  0  0  0  0
  -25.1430  -13.9160   20.4290 C   0  0  0  0  0  0  0  0  0  0  0  0
  -24.0920  -13.1260   20.7980 C   0  0  0  0  0  0  0  0  0  0  0  0
  -24.5770  -11.7820   20.7720 C   0  0  0  0  0  0  0  0  0  0  0  0
  -26.1970  -13.0550   20.1880 N   0  0  0  0  0  0  0  0  0  0  0  0
  -25.8710  -11.7640   20.4630 N   0  0  0  0  0  0  0  0  0  0  0  0
  -23.8630  -10.5120   20.9640 C   0  0  0  0  0  0  0  0  0  0  0  0
  -24.2870   -9.5590   21.9160 C   0  0  0  0  0  3  0  0  0  0  0  0
  -23.5680   -8.3580   22.0970 C   0  0  0  0  0  3  0  0  0  0  0  0
  -22.4090   -8.1000   21.3260 C   0  0  0  0  0  0  0  0  0  0  0  0
  -22.0030   -9.0420   20.3640 C   0  0  0  0  0  3  0  0  0  0  0  0
  -22.7230  -10.2350   20.1820 C   0  0  0  0  0  3  0  0  0  0  0  0
  -21.6630   -6.9500   21.4160 O   0  0  0  0  0  0  0  0  0  0  0  0
  -21.5880   -6.2310   22.5820 C   0  0  0  0  0  0  0  0  0  0  0  0
  -21.0840   -6.7940   23.7740 C   0  0  0  0  0  3  0  0  0  0  0  0
  -20.9590   -5.9980   24.9310 C   0  0  0  0  0  3  0  0  0  0  0  0
  -21.3280   -4.6400   24.8950 C   0  0  0  0  0  0  0  0  0  0  0  0
  -21.8230   -4.0760   23.7070 C   0  0  0  0  0  3  0  0  0  0  0  0
  -21.9500   -4.8680   22.5530 C   0  0  0  0  0  0  0  0  0  0  0  0
  -22.4090   -4.3140   21.4050 F   0  0  0  0  0  0  0  0  0  0  0  0
  -21.2000   -3.8740   26.0040 F   0  0  0  0  0  0  0  0  0  0  0  0
  -22.6880  -13.5880   21.0570 C   0  0  0  0  0  0  0  0  0  0  0  0
  -21.9640  -12.8910   21.9230 N   0  0  0  0  0  0  0  0  0  0  0  0
  -22.2440  -14.6060   20.5250 O   0  0  0  0  0  0  0  0  0  0  0  0
  -22.3370  -12.0680   22.3730 H   0  0  0  0  0  0  0  0  0  0  0  0
  -21.0220  -13.1830   22.1410 H   0  0  0  0  0  0  0  0  0  0  0  0
  -25.2870  -15.2880   20.2450 N   0  0  0  0  0  0  0  0  0  0  0  0
  -24.5070  -15.9280   20.3460 H   0  0  0  0  0  0  0  0  0  0  0  0
  -26.1190  -15.7330   19.8820 H   0  0  0  0  0  0  0  0  0  0  0  0
  1  3  1  0
  1  4  1  0
  1 45  1  0
  2  3  1  0
  5 16  2  0
  6  4  1  0
  6 11  1  0
  7 15  1  0
  7 17  1  0
  8 14  1  0
  8 10  1  0
  9 15  1  0
 10  9  1  0
 11 10  2  0
 12  6  2  0
 13 12  1  0
 13  8  2  0
 14  7  1  0
 15  5  1  0
 17 19  2  0
 18 17  1  0
 20 18  1  0
 21 30  2  0
 21 26  1  0
 22 18  1  0
 22 26  1  0
 23 22  1  0
 24 25  1  0
 24 23  1  0
 25 21  1  0
 26 27  2  0
 27 28  1  0
 29 28  2  0
 30 29  1  0
 31  5  1  0
 31 36  1  0
 31 32  1  0
 32 35  1  1
 32 33  1  0
 34 32  1  0
 36 39  1  0
 37 41  1  0
 37 36  1  0
 38 37  2  0
 41 40  1  0
 43 41  1  0
 43 44  1  0
 43 42  1  0
 46 47  2  0
 46 45  1  0
 48 56  1  0
 49 54  1  0
 50 51  1  0
 50 49  1  0
 52 51  1  0
 52 61  1  0
 52 53  1  0
 54 48  1  0
 54 53  1  0
 55 48  2  0
 56 57  1  0
 56 47  1  0
 58 59  2  0
 59 78  1  0
 60 59  1  0
 60 63  1  0
 61 58  1  0
 61 62  1  0
 62 60  2  0
 63 64  1  0
 64 65  2  0
 66 69  1  0
 66 65  1  0
 67 66  2  0
 68 67  1  0
 68 63  2  0
 69 70  1  0
 70 71  1  0
 71 72  2  0
 73 72  1  0
 73 77  1  0
 74 73  2  0
 75 70  2  0
 75 74  1  0
 76 75  1  0
 78 79  1  0
 79 82  1  0
 79 81  1  0
 80 78  2  0
 83 84  1  0
 83 58  1  0
 85 83  1  0
M  ISO  4   1 101   4 101  48 100  56 100
M  END
>  <TORSDO>  (91) 
F 20

>  <SCORE>  (91) 
-15.941

>  <name>  (91) 
90

>  <ligand_id>  (91) 
90

>  <original_smiles>  (91) 
[H]c1c([H])c([H])c2c(c1[H])C([H])([H])C([H])([H])C([H])([H])C2([H])N([H])C(=O)C1([H])N(C(=O)C([H])(N([H])C(=O)C([H])(N([H])C([H])([H])[H])C([H])([H])[H])C(C([H])([H])[H])(C([H])([H])[H])C([H])([H])[H])C([H])([H])c2c([H])c(OC([H])(C([H])([H])C([H])([H])[H])C([H])([H])C([H])([H])C([H])([H])N([H])C(=O)N3C([H])([H])C([H])([H])C([H])([H])C([H])(n4nc(-c5c([H])c([H])c(Oc6c([H])c([H])c(F)c([H])c6F)c([H])c5[H])c(C(=O)N([H])[H])c4N([H])[H])C3([H])[H])c([H])c([H])c2C1([H])[H]

>  <smiles>  (91) 
[H]c1c([H])c([H])c2c(c1[H])C([H])([H])C([H])([H])C([H])([H])C2([H])N([H])C(=O)C1([H])N(C(=O)C([H])(N([H])C(=O)C([H])(N([H])C([H])([H])[H])C([H])([H])[H])C(C([H])([H])[H])(C([H])([H])[H])C([H])([H])[H])C([H])([H])c2c([H])c(OC([H])(C([H])([H])C([H])([H])[H])C([H])([H])C([H])([H])C([H])([H])N([H])C(=O)N3C([H])([H])C([H])([H])C([H])([H])C([H])(n4nc(-c5c([H])c([H])c(Oc6c([H])c([H])c(F)c([H])c6F)c([H])c5[H])c(C(=O)N([H])[H])c4N([H])[H])C3([H])[H])c([H])c([H])c2C1([H])[H]

$$$$
91:0:0
     RDKit          3D

 91 99  0  0  1  0  0  0  0  0999 V2000
  -29.3320  -23.4490   21.5890 C   0  0  0  0  0  3  0  0  0  0  0  0
  -29.8670  -22.1570   21.8790 C   0  0  0  0  0  0  0  0  0  0  0  0
  -29.8150  -21.1130   20.9030 C   0  0  0  0  0  0  0  0  0  0  0  0
  -28.7640  -23.7260   20.3260 C   0  0  0  0  0  0  0  0  0  0  0  0
  -29.2640  -21.4980   19.6540 C   0  0  0  0  0  0  0  0  0  0  0  0
  -30.5140  -21.9290   23.2360 C   0  0  0  0  0  1  0  0  0  0  0  0
  -29.2230  -20.5110   18.5050 C   0  0  0  0  0  1  0  0  0  0  0  0
  -28.7600  -22.7390   19.3870 N   0  0  0  0  0  0  0  0  0  0  0  0
  -30.4950  -19.6980   21.1230 C   0  0  0  0  0  2  0  0  0  0  0  0
  -29.7080  -18.3100   20.9940 C   0  0  0  0  0  3  0  0  0  0  0  0
  -30.5340  -17.0240   21.4080 C   0  0  0  0  0  3  0  0  0  0  0  0
  -30.6460  -14.6200   20.4950 C   0  0  0  0  0  0  0  0  0  0  0  0
  -30.3860  -12.4030   19.3780 C   0  0  0  0  0  2  0  0  0  0  0  0
  -29.4520  -12.5310   18.1520 C   0  0  0  0  0  2  0  0  0  0  0  0
  -27.9860  -12.3700   18.5890 C   0  0  0  0  0  2  0  0  0  0  0  0
  -27.6310  -13.2540   19.8130 C   0  0  0  0  0  3  0  0  0  0  0  0
  -28.6760  -13.0990   20.9420 C   0  0  0  0  0  2  0  0  0  0  0  0
  -29.9860  -13.4270   20.3670 N   0  0  0  0  0  0  0  0  0  0  0  0
  -31.7740  -14.7740   20.0240 O   0  0  0  0  0  0  0  0  0  0  0  0
  -29.9720  -15.6680   21.0650 N   0  0  0  0  0  0  0  0  0  0  0  0
  -29.0300  -15.4710   21.3790 H   0  0  0  0  0  0  0  0  0  0  0  0
  -25.2400  -13.8800   20.4980 C   0  0  0  0  0  0  0  0  0  0  0  0
  -24.1620  -13.1210   20.8560 C   0  0  0  0  0  0  0  0  0  0  0  0
  -24.6110  -11.7640   20.8380 C   0  0  0  0  0  0  0  0  0  0  0  0
  -26.2780  -12.9890   20.2850 N   0  0  0  0  0  0  0  0  0  0  0  0
  -25.9050  -11.7100   20.5470 N   0  0  0  0  0  0  0  0  0  0  0  0
  -23.8730  -10.5100   21.0290 C   0  0  0  0  0  0  0  0  0  0  0  0
  -24.2910   -9.5420   21.9680 C   0  0  0  0  0  3  0  0  0  0  0  0
  -23.5540   -8.3520   22.1490 C   0  0  0  0  0  3  0  0  0  0  0  0
  -22.3830   -8.1200   21.3880 C   0  0  0  0  0  0  0  0  0  0  0  0
  -21.9840   -9.0760   20.4360 C   0  0  0  0  0  3  0  0  0  0  0  0
  -22.7220  -10.2570   20.2550 C   0  0  0  0  0  3  0  0  0  0  0  0
  -21.6190   -6.9830   21.4740 O   0  0  0  0  0  0  0  0  0  0  0  0
  -21.5570   -6.2450   22.6300 C   0  0  0  0  0  0  0  0  0  0  0  0
  -21.1270   -6.8070   23.8510 C   0  0  0  0  0  3  0  0  0  0  0  0
  -21.0150   -5.9950   24.9980 C   0  0  0  0  0  3  0  0  0  0  0  0
  -21.3200   -4.6230   24.9220 C   0  0  0  0  0  0  0  0  0  0  0  0
  -21.7430   -4.0610   23.7050 C   0  0  0  0  0  3  0  0  0  0  0  0
  -21.8570   -4.8690   22.5620 C   0  0  0  0  0  0  0  0  0  0  0  0
  -22.2460   -4.3200   21.3860 F   0  0  0  0  0  0  0  0  0  0  0  0
  -21.2020   -3.8420   26.0200 F   0  0  0  0  0  0  0  0  0  0  0  0
  -22.7670  -13.6100   21.1130 C   0  0  0  0  0  0  0  0  0  0  0  0
  -22.0320  -12.9250   21.9790 N   0  0  0  0  0  0  0  0  0  0  0  0
  -22.3410  -14.6360   20.5820 O   0  0  0  0  0  0  0  0  0  0  0  0
  -22.3940  -12.0920   22.4190 H   0  0  0  0  0  0  0  0  0  0  0  0
  -21.0990  -13.2360   22.2090 H   0  0  0  0  0  0  0  0  0  0  0  0
  -25.4280  -15.2490   20.3160 N   0  0  0  0  0  0  0  0  0  0  0  0
  -24.6730  -15.9180   20.4140 H   0  0  0  0  0  0  0  0  0  0  0  0
  -26.2980  -15.6750   20.0240 H   0  0  0  0  0  0  0  0  0  0  0  0
  -27.8710  -24.9850   20.0160 C   0  0  0  0  0  2  0  0  0  0  0  0
  -28.2590  -26.4030   20.2610 O   0  0  0  0  0  0  0  0  0  0  0  0
  -24.6280  -31.9110   23.2490 C   0  0  0  0  0  0  0  0  0  0  0  0
  -27.1920  -27.3240   20.1790 C   0  0  0  0  0  0  0  0  0  0  0  0
  -23.4160  -30.5260   21.6060 C   0  0  0  0  0  3  0  0  0  0  0  0
  -24.8590  -28.9900   20.1630 C   0  0  0  0  0  0  0  0  0  0  0  0
  -25.9650  -30.8150   21.4370 C   0  0  0  0  0  2  0  0  0  0  0  0
  -26.0310  -29.4430   20.7790 C   0  0  0  0  0  0  0  0  0  0  0  0
  -27.2030  -28.6210   20.7850 C   0  0  0  0  0  3  0  0  0  0  0  0
  -25.9990  -26.9560   19.5100 C   0  0  0  0  0  3  0  0  0  0  0  0
  -24.8510  -27.7570   19.5070 C   0  0  0  0  0  3  0  0  0  0  0  0
  -23.6290  -29.8700   20.2190 C   0  0  0  0  0  2  0  0  0  0  0  0
  -24.6890  -31.1030   22.1510 N   0  0  0  0  0  0  0  0  0  0  0  0
  -23.5460  -32.1960   23.7830 O   0  0  0  0  0  0  0  0  0  0  0  0
  -22.7510  -29.5050   22.5610 C   0  0  0  0  0  0  0  0  0  0  0  0
  -21.4230  -29.3370   22.4390 N   0  0  0  0  0  0  0  0  0  0  0  0
  -23.4290  -28.8690   23.3740 O   0  0  0  0  0  0  0  0  0  0  0  0
  -20.9360  -29.9060   21.7600 H   0  0  0  0  0  0  0  0  0  0  0  0
  -18.0380  -28.1630   22.9450 C   0  0  0  0  0  0  0  0  0  0  0  0
  -20.6000  -28.4030   23.2110 C   0  0  0  0  0  3  0  0  0  0  0  0
  -20.6910  -26.9720   22.6350 C   0  0  0  0  0  2  0  0  0  0  0  0
  -19.5850  -26.6570   21.6230 C   0  0  0  0  0  2  0  0  0  0  0  0
  -18.2030  -26.8140   22.2660 C   0  0  0  0  0  2  0  0  0  0  0  0
  -19.1620  -28.9170   23.3720 C   0  0  0  0  0  0  0  0  0  0  0  0
  -18.9540  -30.1810   23.9660 C   0  0  0  0  0  3  0  0  0  0  0  0
  -17.6530  -30.6900   24.1400 C   0  0  0  0  0  3  0  0  0  0  0  0
  -16.5430  -29.9330   23.7290 C   0  0  0  0  0  3  0  0  0  0  0  0
  -16.7360  -28.6720   23.1350 C   0  0  0  0  0  3  0  0  0  0  0  0
  -25.9150  -32.5390   23.8700 C   0  0  0  0  0  3  0  0  0  0  0  0
  -26.4330  -31.7610   25.1400 C   0  0  1  0  0  0  0  0  0  0  0  0
  -25.3420  -31.5200   26.2080 C   0  0  0  0  0  1  0  0  0  0  0  0
  -27.0170  -30.3840   24.7410 C   0  0  0  0  0  1  0  0  0  0  0  0
  -27.5840  -32.5550   25.8020 C   0  0  0  0  0  1  0  0  0  0  0  0
  -25.6110  -33.9360   24.2060 N   0  0  0  0  0  0  0  0  0  0  0  0
  -25.9220  -34.9900   23.4420 C   0  0  0  0  0  0  0  0  0  0  0  0
  -26.5650  -34.8910   22.3940 O   0  0  0  0  0  0  0  0  0  0  0  0
  -25.0460  -34.0920   25.0290 H   0  0  0  0  0  0  0  0  0  0  0  0
  -24.1740  -36.7750   23.1430 C   0  0  0  0  0  1  0  0  0  0  0  0
  -25.4420  -36.3770   23.9160 C   0  0  0  0  0  3  0  0  0  0  0  0
  -27.5980  -37.2720   24.6780 C   0  0  0  0  0  1  0  0  0  0  0  0
  -26.4650  -37.4340   23.7700 N   0  0  0  0  0  0  0  0  0  0  0  0
  -26.0590  -38.3510   23.9320 H   0  0  0  0  0  0  0  0  0  0  0  0
  1  2  1  0
  2  6  1  0
  3  9  1  0
  3  2  2  0
  4  1  2  0
  5  3  1  0
  7  5  1  0
  8  5  2  0
  8  4  1  0
 10  9  1  0
 10 11  2  0
 12 20  1  0
 13 18  1  0
 14 15  1  0
 14 13  1  0
 16 15  1  0
 16 25  1  0
 16 17  1  0
 18 12  1  0
 18 17  1  0
 19 12  2  0
 20 21  1  0
 20 11  1  0
 22 23  2  0
 23 42  1  0
 24 23  1  0
 24 27  1  0
 25 22  1  0
 25 26  1  0
 26 24  2  0
 27 28  1  0
 28 29  2  0
 30 33  1  0
 30 29  1  0
 31 30  2  0
 32 31  1  0
 32 27  2  0
 33 34  1  0
 34 35  1  0
 35 36  2  0
 37 36  1  0
 37 41  1  0
 38 37  2  0
 39 34  2  0
 39 38  1  0
 40 39  1  0
 42 43  1  0
 43 46  1  0
 43 45  1  0
 44 42  2  0
 47 48  1  0
 47 22  1  0
 49 47  1  0
 50 51  1  0
 50  4  1  0
 52 63  2  0
 53 51  1  0
 53 58  1  0
 54 62  1  0
 54 64  1  0
 55 61  1  0
 55 57  1  0
 56 62  1  0
 57 58  2  0
 57 56  1  0
 59 53  2  0
 60 59  1  0
 60 55  2  0
 61 54  1  0
 62 52  1  0
 64 66  2  0
 65 64  1  0
 67 65  1  0
 68 77  2  0
 68 73  1  0
 69 65  1  0
 69 73  1  0
 70 69  1  0
 71 72  1  0
 71 70  1  0
 72 68  1  0
 73 74  2  0
 74 75  1  0
 76 75  2  0
 77 76  1  0
 78 52  1  0
 78 83  1  0
 78 79  1  0
 79 82  1  1
 79 80  1  0
 81 79  1  0
 83 86  1  0
 84 88  1  0
 84 83  1  0
 85 84  2  0
 88 87  1  0
 90 88  1  0
 90 91  1  0
 90 89  1  0
M  ISO  4  12 100  20 100  50 101  51 101
M  END
>  <TORSDO>  (92) 
F 20

>  <SCORE>  (92) 
-14.098

>  <name>  (92) 
91

>  <ligand_id>  (92) 
91

>  <original_smiles>  (92) 
[H]c1c([H])c([H])c2c(c1[H])C([H])([H])C([H])([H])C([H])([H])C2([H])N([H])C(=O)C1([H])N(C(=O)C([H])(N([H])C(=O)C([H])(N([H])C([H])([H])[H])C([H])([H])[H])C(C([H])([H])[H])(C([H])([H])[H])C([H])([H])[H])C([H])([H])c2c([H])c(OC([H])([H])c3nc(C([H])([H])[H])c(C([H])([H])C([H])([H])C([H])([H])N([H])C(=O)N4C([H])([H])C([H])([H])C([H])([H])C([H])(n5nc(-c6c([H])c([H])c(Oc7c([H])c([H])c(F)c([H])c7F)c([H])c6[H])c(C(=O)N([H])[H])c5N([H])[H])C4([H])[H])c(C([H])([H])[H])c3[H])c([H])c([H])c2C1([H])[H]

>  <smiles>  (92) 
[H]c1c([H])c([H])c2c(c1[H])C([H])([H])C([H])([H])C([H])([H])C2([H])N([H])C(=O)C1([H])N(C(=O)C([H])(N([H])C(=O)C([H])(N([H])C([H])([H])[H])C([H])([H])[H])C(C([H])([H])[H])(C([H])([H])[H])C([H])([H])[H])C([H])([H])c2c([H])c(OC([H])([H])c3nc(C([H])([H])[H])c(C([H])([H])C([H])([H])C([H])([H])N([H])C(=O)N4C([H])([H])C([H])([H])C([H])([H])C([H])(n5nc(-c6c([H])c([H])c(Oc7c([H])c([H])c(F)c([H])c7F)c([H])c6[H])c(C(=O)N([H])[H])c5N([H])[H])C4([H])[H])c(C([H])([H])[H])c3[H])c([H])c([H])c2C1([H])[H]

$$$$
92:0:0
     RDKit          3D

 91 99  0  0  1  0  0  0  0  0999 V2000
  -30.7810  -21.3480   20.6020 C   0  0  0  0  0  3  0  0  0  0  0  0
  -29.9270  -19.3720   20.3070 C   0  0  0  0  0  0  0  0  0  0  0  0
  -29.0750  -20.3170   19.7550 C   0  0  0  0  0  0  0  0  0  0  0  0
  -27.8050  -20.1050   18.9860 C   0  0  0  0  0  1  0  0  0  0  0  0
  -31.0230  -20.0540   20.8440 N   0  0  0  0  0  0  0  0  0  0  0  0
  -29.6470  -21.5910   19.9250 N   0  0  0  0  0  0  0  0  0  0  0  0
  -29.7630  -22.9900   17.9110 C   0  0  0  0  0  1  0  0  0  0  0  0
  -29.1650  -22.8580   19.3230 C   0  0  0  0  0  3  0  0  0  0  0  0
  -29.3440  -24.1870   20.1400 C   0  0  0  0  0  2  0  0  0  0  0  0
  -28.2150  -25.2150   19.7970 C   0  0  0  0  0  2  0  0  0  0  0  0
  -28.3560  -26.6040   20.1990 O   0  0  0  0  0  0  0  0  0  0  0  0
  -24.6050  -31.8980   23.2440 C   0  0  0  0  0  0  0  0  0  0  0  0
  -27.2050  -27.3920   20.1560 C   0  0  0  0  0  0  0  0  0  0  0  0
  -23.3840  -30.5000   21.6110 C   0  0  0  0  0  3  0  0  0  0  0  0
  -24.8230  -28.9560   20.1760 C   0  0  0  0  0  0  0  0  0  0  0  0
  -25.9180  -30.8290   21.4100 C   0  0  0  0  0  2  0  0  0  0  0  0
  -25.9910  -29.4540   20.7670 C   0  0  0  0  0  0  0  0  0  0  0  0
  -27.1810  -28.6790   20.7570 C   0  0  0  0  0  3  0  0  0  0  0  0
  -26.0110  -26.9380   19.5370 C   0  0  0  0  0  3  0  0  0  0  0  0
  -24.8310  -27.6990   19.5560 C   0  0  0  0  0  3  0  0  0  0  0  0
  -23.5870  -29.8250   20.2290 C   0  0  0  0  0  2  0  0  0  0  0  0
  -24.6540  -31.0910   22.1450 N   0  0  0  0  0  0  0  0  0  0  0  0
  -23.5260  -32.1770   23.7870 O   0  0  0  0  0  0  0  0  0  0  0  0
  -22.7310  -29.4820   22.5730 C   0  0  0  0  0  0  0  0  0  0  0  0
  -21.4050  -29.3050   22.4520 N   0  0  0  0  0  0  0  0  0  0  0  0
  -23.4140  -28.8550   23.3880 O   0  0  0  0  0  0  0  0  0  0  0  0
  -20.9140  -29.8650   21.7690 H   0  0  0  0  0  0  0  0  0  0  0  0
  -18.0290  -28.1190   22.9650 C   0  0  0  0  0  0  0  0  0  0  0  0
  -20.5870  -28.3730   23.2290 C   0  0  0  0  0  3  0  0  0  0  0  0
  -20.6850  -26.9390   22.6590 C   0  0  0  0  0  2  0  0  0  0  0  0
  -19.5800  -26.6140   21.6470 C   0  0  0  0  0  2  0  0  0  0  0  0
  -18.2000  -26.7660   22.2950 C   0  0  0  0  0  2  0  0  0  0  0  0
  -19.1500  -28.8790   23.3900 C   0  0  0  0  0  0  0  0  0  0  0  0
  -18.9370  -30.1480   23.9760 C   0  0  0  0  0  3  0  0  0  0  0  0
  -17.6340  -30.6520   24.1420 C   0  0  0  0  0  3  0  0  0  0  0  0
  -16.5270  -29.8880   23.7350 C   0  0  0  0  0  3  0  0  0  0  0  0
  -16.7250  -28.6240   23.1510 C   0  0  0  0  0  3  0  0  0  0  0  0
  -25.8940  -32.5250   23.8560 C   0  0  0  0  0  3  0  0  0  0  0  0
  -25.5890  -33.9210   24.1940 N   0  0  0  0  0  0  0  0  0  0  0  0
  -25.9130  -34.9760   23.4340 C   0  0  0  0  0  0  0  0  0  0  0  0
  -26.5710  -34.8770   22.3950 O   0  0  0  0  0  0  0  0  0  0  0  0
  -24.9970  -34.0730   24.9980 H   0  0  0  0  0  0  0  0  0  0  0  0
  -24.1760  -36.7690   23.1080 C   0  0  0  0  0  1  0  0  0  0  0  0
  -25.4290  -36.3640   23.9010 C   0  0  0  0  0  3  0  0  0  0  0  0
  -27.5780  -37.2470   24.6970 C   0  0  0  0  0  1  0  0  0  0  0  0
  -26.4580  -37.4190   23.7750 N   0  0  0  0  0  0  0  0  0  0  0  0
  -26.0540  -38.3370   23.9370 H   0  0  0  0  0  0  0  0  0  0  0  0
  -26.4220  -31.7460   25.1230 C   0  0  1  0  0  0  0  0  0  0  0  0
  -25.3410  -31.5040   26.2020 C   0  0  0  0  0  1  0  0  0  0  0  0
  -26.9980  -30.3700   24.7170 C   0  0  0  0  0  1  0  0  0  0  0  0
  -27.5830  -32.5340   25.7770 C   0  0  0  0  0  1  0  0  0  0  0  0
  -29.8490  -17.8460   20.1620 C   0  0  0  0  0  2  0  0  0  0  0  0
  -30.3890  -16.9380   21.3080 C   0  0  0  0  0  2  0  0  0  0  0  0
  -30.6600  -14.5190   20.5220 C   0  0  0  0  0  0  0  0  0  0  0  0
  -30.3500  -12.3610   19.3460 C   0  0  0  0  0  2  0  0  0  0  0  0
  -29.4060  -12.5670   18.1440 C   0  0  0  0  0  2  0  0  0  0  0  0
  -27.9330  -12.4220   18.5750 C   0  0  0  0  0  2  0  0  0  0  0  0
  -27.5980  -13.2550   19.8400 C   0  0  0  0  0  3  0  0  0  0  0  0
  -28.6560  -13.0330   20.9450 C   0  0  0  0  0  2  0  0  0  0  0  0
  -29.9810  -13.3420   20.3800 N   0  0  0  0  0  0  0  0  0  0  0  0
  -31.7650  -14.7150   20.0110 O   0  0  0  0  0  0  0  0  0  0  0  0
  -29.9970  -15.5110   21.1570 N   0  0  0  0  0  0  0  0  0  0  0  0
  -29.1040  -15.2490   21.5470 H   0  0  0  0  0  0  0  0  0  0  0  0
  -25.2000  -13.8670   20.5520 C   0  0  0  0  0  0  0  0  0  0  0  0
  -24.1290  -13.0990   20.9220 C   0  0  0  0  0  0  0  0  0  0  0  0
  -24.5860  -11.7460   20.8900 C   0  0  0  0  0  0  0  0  0  0  0  0
  -26.2430  -12.9830   20.3200 N   0  0  0  0  0  0  0  0  0  0  0  0
  -25.8760  -11.7010   20.5790 N   0  0  0  0  0  0  0  0  0  0  0  0
  -23.8560  -10.4860   21.0830 C   0  0  0  0  0  0  0  0  0  0  0  0
  -24.2990   -9.5060   21.9970 C   0  0  0  0  0  3  0  0  0  0  0  0
  -23.5700   -8.3110   22.1780 C   0  0  0  0  0  3  0  0  0  0  0  0
  -22.3810   -8.0880   21.4450 C   0  0  0  0  0  0  0  0  0  0  0  0
  -21.9540   -9.0570   20.5190 C   0  0  0  0  0  3  0  0  0  0  0  0
  -22.6850  -10.2430   20.3360 C   0  0  0  0  0  3  0  0  0  0  0  0
  -21.6190   -6.9480   21.5360 O   0  0  0  0  0  0  0  0  0  0  0  0
  -21.6040   -6.1830   22.6760 C   0  0  0  0  0  0  0  0  0  0  0  0
  -21.2400   -6.7200   23.9300 C   0  0  0  0  0  3  0  0  0  0  0  0
  -21.1690   -5.8810   25.0610 C   0  0  0  0  0  3  0  0  0  0  0  0
  -21.4540   -4.5090   24.9390 C   0  0  0  0  0  0  0  0  0  0  0  0
  -21.8120   -3.9710   23.6910 C   0  0  0  0  0  3  0  0  0  0  0  0
  -21.8840   -4.8060   22.5620 C   0  0  0  0  0  0  0  0  0  0  0  0
  -22.2090   -4.2790   21.3570 F   0  0  0  0  0  0  0  0  0  0  0  0
  -21.3790   -3.7020   26.0230 F   0  0  0  0  0  0  0  0  0  0  0  0
  -22.7340  -13.5810   21.1980 C   0  0  0  0  0  0  0  0  0  0  0  0
  -22.0070  -12.8900   22.0680 N   0  0  0  0  0  0  0  0  0  0  0  0
  -22.2980  -14.6070   20.6760 O   0  0  0  0  0  0  0  0  0  0  0  0
  -22.3690  -12.0600   22.5160 H   0  0  0  0  0  0  0  0  0  0  0  0
  -21.0700  -13.1960   22.2930 H   0  0  0  0  0  0  0  0  0  0  0  0
  -25.3670  -15.2380   20.3740 N   0  0  0  0  0  0  0  0  0  0  0  0
  -24.5980  -15.8910   20.4810 H   0  0  0  0  0  0  0  0  0  0  0  0
  -26.2180  -15.6810   20.0540 H   0  0  0  0  0  0  0  0  0  0  0  0
  1  5  2  0
  2  5  1  0
  3  6  1  0
  3  2  2  0
  4  3  1  0
  6  1  1  0
  8  7  1  0
  8  6  1  0
  8  9  1  0
 10  9  1  0
 10 11  1  0
 12 23  2  0
 13 11  1  0
 13 18  1  0
 14 22  1  0
 14 24  1  0
 15 21  1  0
 15 17  1  0
 16 22  1  0
 17 16  1  0
 18 17  2  0
 19 20  1  0
 19 13  2  0
 20 15  2  0
 21 14  1  0
 22 12  1  0
 24 26  2  0
 25 24  1  0
 27 25  1  0
 28 37  2  0
 28 33  1  0
 29 25  1  0
 29 33  1  0
 30 29  1  0
 31 32  1  0
 31 30  1  0
 32 28  1  0
 33 34  2  0
 34 35  1  0
 36 35  2  0
 37 36  1  0
 38 12  1  0
 38 39  1  0
 38 48  1  0
 39 42  1  0
 40 44  1  0
 40 39  1  0
 41 40  2  0
 44 43  1  0
 46 44  1  0
 46 47  1  0
 46 45  1  0
 48 51  1  1
 48 49  1  0
 50 48  1  0
 52  2  1  0
 52 53  1  0
 54 62  1  0
 55 60  1  0
 56 57  1  0
 56 55  1  0
 58 57  1  0
 58 67  1  0
 58 59  1  0
 60 54  1  0
 60 59  1  0
 61 54  2  0
 62 53  1  0
 62 63  1  0
 64 65  2  0
 65 84  1  0
 66 65  1  0
 66 69  1  0
 67 64  1  0
 67 68  1  0
 68 66  2  0
 69 70  1  0
 70 71  2  0
 72 75  1  0
 72 71  1  0
 73 72  2  0
 74 73  1  0
 74 69  2  0
 75 76  1  0
 76 77  1  0
 77 78  2  0
 79 78  1  0
 79 83  1  0
 80 79  2  0
 81 76  2  0
 81 80  1  0
 82 81  1  0
 84 85  1  0
 85 88  1  0
 85 87  1  0
 86 84  2  0
 89 90  1  0
 89 64  1  0
 91 89  1  0
M  ISO  4  10 101  11 101  54 100  62 100
M  END
>  <TORSDO>  (93) 
F 21

>  <SCORE>  (93) 
-13.595

>  <name>  (93) 
92

>  <ligand_id>  (93) 
92

>  <original_smiles>  (93) 
[H]c1c([H])c([H])c2c(c1[H])C([H])([H])C([H])([H])C([H])([H])C2([H])N([H])C(=O)C1([H])N(C(=O)C([H])(N([H])C(=O)C([H])(N([H])C([H])([H])[H])C([H])([H])[H])C(C([H])([H])[H])(C([H])([H])[H])C([H])([H])[H])C([H])([H])c2c([H])c(OC([H])([H])C([H])([H])C([H])(n3c([H])nc(C([H])([H])C([H])([H])N([H])C(=O)N4C([H])([H])C([H])([H])C([H])([H])C([H])(n5nc(-c6c([H])c([H])c(Oc7c([H])c([H])c(F)c([H])c7F)c([H])c6[H])c(C(=O)N([H])[H])c5N([H])[H])C4([H])[H])c3C([H])([H])[H])C([H])([H])[H])c([H])c([H])c2C1([H])[H]

>  <smiles>  (93) 
[H]c1c([H])c([H])c2c(c1[H])C([H])([H])C([H])([H])C([H])([H])C2([H])N([H])C(=O)C1([H])N(C(=O)C([H])(N([H])C(=O)C([H])(N([H])C([H])([H])[H])C([H])([H])[H])C(C([H])([H])[H])(C([H])([H])[H])C([H])([H])[H])C([H])([H])c2c([H])c(OC([H])([H])C([H])([H])C([H])(n3c([H])nc(C([H])([H])C([H])([H])N([H])C(=O)N4C([H])([H])C([H])([H])C([H])([H])C([H])(n5nc(-c6c([H])c([H])c(Oc7c([H])c([H])c(F)c([H])c7F)c([H])c6[H])c(C(=O)N([H])[H])c5N([H])[H])C4([H])[H])c3C([H])([H])[H])C([H])([H])[H])c([H])c([H])c2C1([H])[H]

$$$$
93:0:0
     RDKit          3D

 91 99  0  0  1  0  0  0  0  0999 V2000
  -29.2550  -20.7350   19.0710 C   0  0  0  0  0  0  0  0  0  0  0  0
  -29.0420  -22.3730   20.8180 C   0  0  0  0  0  0  0  0  0  0  0  0
  -28.0070  -20.8020   19.5520 N   0  0  0  0  0  0  0  0  0  0  0  0
  -27.8790  -21.7650   20.5450 N   0  0  0  0  0  0  0  0  0  0  0  0
  -30.3630  -21.9250   19.7510 S   0  0  0  0  0  0  0  0  0  0  0  0
  -29.7210  -19.6610   18.1420 C   0  0  0  0  0  2  0  0  0  0  0  0
  -30.7750  -18.7450   18.8120 C   0  0  0  0  0  2  0  0  0  0  0  0
  -30.3700  -17.2770   19.0520 C   0  0  0  0  0  2  0  0  0  0  0  0
  -30.1000  -16.9130   20.5360 C   0  0  0  0  0  2  0  0  0  0  0  0
  -30.6170  -14.4560   20.4660 C   0  0  0  0  0  0  0  0  0  0  0  0
  -30.3540  -12.3040   19.3200 C   0  0  0  0  0  2  0  0  0  0  0  0
  -29.4110  -12.5310   18.1180 C   0  0  0  0  0  2  0  0  0  0  0  0
  -27.9330  -12.4000   18.5380 C   0  0  0  0  0  2  0  0  0  0  0  0
  -27.6060  -13.2230   19.8090 C   0  0  0  0  0  3  0  0  0  0  0  0
  -28.6480  -12.9730   20.9210 C   0  0  0  0  0  2  0  0  0  0  0  0
  -29.9770  -13.2670   20.3620 N   0  0  0  0  0  0  0  0  0  0  0  0
  -31.7930  -14.6220   20.1310 O   0  0  0  0  0  0  0  0  0  0  0  0
  -29.7950  -15.4910   20.7050 N   0  0  0  0  0  0  0  0  0  0  0  0
  -28.8290  -15.2580   20.8850 H   0  0  0  0  0  0  0  0  0  0  0  0
  -25.2070  -13.8740   20.4700 C   0  0  0  0  0  0  0  0  0  0  0  0
  -24.1260  -13.1190   20.8300 C   0  0  0  0  0  0  0  0  0  0  0  0
  -24.5740  -11.7630   20.8260 C   0  0  0  0  0  0  0  0  0  0  0  0
  -26.2460  -12.9800   20.2740 N   0  0  0  0  0  0  0  0  0  0  0  0
  -25.8670  -11.7040   20.5420 N   0  0  0  0  0  0  0  0  0  0  0  0
  -23.8370  -10.5110   21.0190 C   0  0  0  0  0  0  0  0  0  0  0  0
  -24.2620   -9.5520   21.9640 C   0  0  0  0  0  3  0  0  0  0  0  0
  -23.5320   -8.3590   22.1500 C   0  0  0  0  0  3  0  0  0  0  0  0
  -22.3610   -8.1200   21.3910 C   0  0  0  0  0  0  0  0  0  0  0  0
  -21.9560   -9.0710   20.4370 C   0  0  0  0  0  3  0  0  0  0  0  0
  -22.6840  -10.2560   20.2510 C   0  0  0  0  0  3  0  0  0  0  0  0
  -21.5970   -6.9830   21.4850 O   0  0  0  0  0  0  0  0  0  0  0  0
  -21.5490   -6.2400   22.6390 C   0  0  0  0  0  0  0  0  0  0  0  0
  -21.1490   -6.8010   23.8710 C   0  0  0  0  0  3  0  0  0  0  0  0
  -21.0520   -5.9900   25.0170 C   0  0  0  0  0  3  0  0  0  0  0  0
  -21.3380   -4.6140   24.9310 C   0  0  0  0  0  0  0  0  0  0  0  0
  -21.7280   -4.0510   23.7040 C   0  0  0  0  0  3  0  0  0  0  0  0
  -21.8300   -4.8610   22.5590 C   0  0  0  0  0  0  0  0  0  0  0  0
  -22.1880   -4.3110   21.3730 F   0  0  0  0  0  0  0  0  0  0  0  0
  -21.2350   -3.8300   26.0280 F   0  0  0  0  0  0  0  0  0  0  0  0
  -22.7290  -13.6100   21.0780 C   0  0  0  0  0  0  0  0  0  0  0  0
  -21.9890  -12.9270   21.9410 N   0  0  0  0  0  0  0  0  0  0  0  0
  -22.3080  -14.6360   20.5420 O   0  0  0  0  0  0  0  0  0  0  0  0
  -22.3520  -12.0990   22.3890 H   0  0  0  0  0  0  0  0  0  0  0  0
  -21.0520  -13.2340   22.1650 H   0  0  0  0  0  0  0  0  0  0  0  0
  -25.3900  -15.2440   20.2730 N   0  0  0  0  0  0  0  0  0  0  0  0
  -24.6390  -15.9130   20.3950 H   0  0  0  0  0  0  0  0  0  0  0  0
  -26.2450  -15.6660   19.9360 H   0  0  0  0  0  0  0  0  0  0  0  0
  -29.2000  -23.3610   21.9350 C   0  0  0  0  0  2  0  0  0  0  0  0
  -29.3510  -24.8270   21.4820 C   0  0  0  0  0  2  0  0  0  0  0  0
  -28.3450  -25.2810   20.4110 C   0  0  0  0  0  2  0  0  0  0  0  0
  -28.4380  -26.7000   20.2300 O   0  0  0  0  0  0  0  0  0  0  0  0
  -24.6060  -31.8650   23.2510 C   0  0  0  0  0  0  0  0  0  0  0  0
  -27.2550  -27.4080   20.2020 C   0  0  0  0  0  0  0  0  0  0  0  0
  -23.4040  -30.4560   21.6100 C   0  0  0  0  0  3  0  0  0  0  0  0
  -24.8540  -28.9070   20.2000 C   0  0  0  0  0  0  0  0  0  0  0  0
  -25.9320  -30.8020   21.4310 C   0  0  0  0  0  2  0  0  0  0  0  0
  -26.0130  -29.4390   20.7810 C   0  0  0  0  0  0  0  0  0  0  0  0
  -27.2130  -28.6970   20.7790 C   0  0  0  0  0  3  0  0  0  0  0  0
  -26.0830  -26.8930   19.6060 C   0  0  0  0  0  3  0  0  0  0  0  0
  -24.8820  -27.6290   19.6140 C   0  0  0  0  0  3  0  0  0  0  0  0
  -23.6170  -29.7730   20.2360 C   0  0  0  0  0  2  0  0  0  0  0  0
  -24.6650  -31.0560   22.1550 N   0  0  0  0  0  0  0  0  0  0  0  0
  -23.5220  -32.1450   23.7820 O   0  0  0  0  0  0  0  0  0  0  0  0
  -22.7470  -29.4400   22.5720 C   0  0  0  0  0  0  0  0  0  0  0  0
  -21.4230  -29.2630   22.4440 N   0  0  0  0  0  0  0  0  0  0  0  0
  -23.4260  -28.8140   23.3910 O   0  0  0  0  0  0  0  0  0  0  0  0
  -20.9300  -29.8090   21.7520 H   0  0  0  0  0  0  0  0  0  0  0  0
  -18.0480  -28.0870   22.9550 C   0  0  0  0  0  0  0  0  0  0  0  0
  -20.6060  -28.3320   23.2200 C   0  0  0  0  0  3  0  0  0  0  0  0
  -20.7020  -26.9010   22.6400 C   0  0  0  0  0  2  0  0  0  0  0  0
  -19.5960  -26.5830   21.6300 C   0  0  0  0  0  2  0  0  0  0  0  0
  -18.2170  -26.7370   22.2790 C   0  0  0  0  0  2  0  0  0  0  0  0
  -19.1720  -28.8430   23.3820 C   0  0  0  0  0  0  0  0  0  0  0  0
  -18.9610  -30.1060   23.9710 C   0  0  0  0  0  3  0  0  0  0  0  0
  -17.6590  -30.6150   24.1400 C   0  0  0  0  0  3  0  0  0  0  0  0
  -16.5500  -29.8550   23.7300 C   0  0  0  0  0  3  0  0  0  0  0  0
  -16.7460  -28.5930   23.1420 C   0  0  0  0  0  3  0  0  0  0  0  0
  -25.8940  -32.4940   23.8710 C   0  0  0  0  0  3  0  0  0  0  0  0
  -25.5890  -33.8930   24.1980 N   0  0  0  0  0  0  0  0  0  0  0  0
  -25.9200  -34.9410   23.4340 C   0  0  0  0  0  0  0  0  0  0  0  0
  -26.5880  -34.8340   22.4030 O   0  0  0  0  0  0  0  0  0  0  0  0
  -25.0020  -34.0540   25.0030 H   0  0  0  0  0  0  0  0  0  0  0  0
  -24.1880  -36.7230   23.0730 C   0  0  0  0  0  1  0  0  0  0  0  0
  -25.4310  -36.3290   23.8860 C   0  0  0  0  0  3  0  0  0  0  0  0
  -27.5650  -37.2200   24.7090 C   0  0  0  0  0  1  0  0  0  0  0  0
  -26.4610  -37.3840   23.7670 N   0  0  0  0  0  0  0  0  0  0  0  0
  -26.0530  -38.3030   23.9140 H   0  0  0  0  0  0  0  0  0  0  0  0
  -26.4100  -31.7230   25.1480 C   0  0  1  0  0  0  0  0  0  0  0  0
  -25.3130  -31.4870   26.2120 C   0  0  0  0  0  1  0  0  0  0  0  0
  -26.9960  -30.3430   24.7640 C   0  0  0  0  0  1  0  0  0  0  0  0
  -27.5630  -32.5150   25.8070 C   0  0  0  0  0  1  0  0  0  0  0  0
  1  3  2  0
  1  5  1  0
  2 48  1  0
  3  4  1  0
  4  2  2  0
  5  2  1  0
  6  7  1  0
  6  1  1  0
  7  8  1  0
  8  9  1  0
  9 18  1  0
 10 18  1  0
 11 16  1  0
 12 13  1  0
 12 11  1  0
 14 13  1  0
 14 23  1  0
 14 15  1  0
 16 10  1  0
 16 15  1  0
 17 10  2  0
 18 19  1  0
 20 21  2  0
 21 40  1  0
 22 21  1  0
 22 25  1  0
 23 20  1  0
 23 24  1  0
 24 22  2  0
 25 26  1  0
 26 27  2  0
 28 31  1  0
 28 27  1  0
 29 28  2  0
 30 29  1  0
 30 25  2  0
 31 32  1  0
 32 33  1  0
 33 34  2  0
 35 34  1  0
 35 39  1  0
 36 35  2  0
 37 32  2  0
 37 36  1  0
 38 37  1  0
 40 41  1  0
 41 44  1  0
 41 43  1  0
 42 40  2  0
 45 46  1  0
 45 20  1  0
 47 45  1  0
 49 48  1  0
 50 49  1  0
 51 50  1  0
 52 63  2  0
 53 51  1  0
 53 58  1  0
 54 62  1  0
 54 64  1  0
 55 61  1  0
 55 57  1  0
 56 62  1  0
 57 56  1  0
 58 57  2  0
 59 60  1  0
 59 53  2  0
 60 55  2  0
 61 54  1  0
 62 52  1  0
 64 66  2  0
 65 64  1  0
 67 65  1  0
 68 77  2  0
 68 73  1  0
 69 65  1  0
 69 73  1  0
 70 69  1  0
 71 72  1  0
 71 70  1  0
 72 68  1  0
 73 74  2  0
 74 75  1  0
 76 75  2  0
 77 76  1  0
 78 52  1  0
 78 79  1  0
 78 88  1  0
 79 82  1  0
 80 84  1  0
 80 79  1  0
 81 80  2  0
 84 83  1  0
 86 84  1  0
 86 87  1  0
 86 85  1  0
 88 91  1  1
 88 89  1  0
 90 88  1  0
M  ISO  4  10 100  18 100  50 101  51 101
M  END
>  <TORSDO>  (94) 
F 23

>  <SCORE>  (94) 
-12.791

>  <name>  (94) 
93

>  <ligand_id>  (94) 
93

>  <original_smiles>  (94) 
[H]c1c([H])c([H])c2c(c1[H])C([H])([H])C([H])([H])C([H])([H])C2([H])N([H])C(=O)C1([H])N(C(=O)C([H])(N([H])C(=O)C([H])(N([H])C([H])([H])[H])C([H])([H])[H])C(C([H])([H])[H])(C([H])([H])[H])C([H])([H])[H])C([H])([H])c2c([H])c(OC([H])([H])C([H])([H])C([H])([H])c3nnc(C([H])([H])C([H])([H])C([H])([H])C([H])([H])N([H])C(=O)N4C([H])([H])C([H])([H])C([H])([H])C([H])(n5nc(-c6c([H])c([H])c(Oc7c([H])c([H])c(F)c([H])c7F)c([H])c6[H])c(C(=O)N([H])[H])c5N([H])[H])C4([H])[H])s3)c([H])c([H])c2C1([H])[H]

>  <smiles>  (94) 
[H]c1c([H])c([H])c2c(c1[H])C([H])([H])C([H])([H])C([H])([H])C2([H])N([H])C(=O)C1([H])N(C(=O)C([H])(N([H])C(=O)C([H])(N([H])C([H])([H])[H])C([H])([H])[H])C(C([H])([H])[H])(C([H])([H])[H])C([H])([H])[H])C([H])([H])c2c([H])c(OC([H])([H])C([H])([H])C([H])([H])c3nnc(C([H])([H])C([H])([H])C([H])([H])C([H])([H])N([H])C(=O)N4C([H])([H])C([H])([H])C([H])([H])C([H])(n5nc(-c6c([H])c([H])c(Oc7c([H])c([H])c(F)c([H])c7F)c([H])c6[H])c(C(=O)N([H])[H])c5N([H])[H])C4([H])[H])s3)c([H])c([H])c2C1([H])[H]

$$$$
94:0:0
     RDKit          3D

 92100  0  0  1  0  0  0  0  0999 V2000
  -29.2130  -22.1670   19.2870 C   0  0  0  0  0  0  0  0  0  0  0  0
  -28.6670  -21.2800   20.2750 C   0  0  0  0  0  0  0  0  0  0  0  0
  -27.6880  -23.1850   21.2600 C   0  0  0  0  0  0  0  0  0  0  0  0
  -28.2100  -24.0770   20.2660 C   0  0  0  0  0  0  0  0  0  0  0  0
  -30.0460  -21.6250   18.1450 C   0  0  0  0  0  1  0  0  0  0  0  0
  -28.9990  -23.5350   19.2860 N   0  0  0  0  0  0  0  0  0  0  0  0
  -27.9200  -21.8370   21.2620 N   0  0  0  0  0  0  0  0  0  0  0  0
  -25.3290  -23.9160   21.8520 C   0  0  0  0  0  1  0  0  0  0  0  0
  -26.7510  -23.6470   22.3700 C   0  0  0  0  0  2  0  0  0  0  0  0
  -28.6560  -19.6910   20.2420 C   0  0  0  0  0  2  0  0  0  0  0  0
  -29.9800  -18.8000   20.2810 C   0  0  0  0  0  2  0  0  0  0  0  0
  -30.0830  -17.4750   21.1910 C   0  0  0  0  0  2  0  0  0  0  0  0
  -30.5210  -15.0160   20.4090 C   0  0  0  0  0  0  0  0  0  0  0  0
  -30.4010  -12.7480   19.3650 C   0  0  0  0  0  2  0  0  0  0  0  0
  -29.4670  -12.7930   18.1370 C   0  0  0  0  0  2  0  0  0  0  0  0
  -27.9980  -12.5790   18.5560 C   0  0  0  0  0  2  0  0  0  0  0  0
  -27.5870  -13.4610   19.7650 C   0  0  0  0  0  3  0  0  0  0  0  0
  -28.6400  -13.3930   20.8940 C   0  0  0  0  0  2  0  0  0  0  0  0
  -29.9300  -13.7810   20.3100 N   0  0  0  0  0  0  0  0  0  0  0  0
  -31.7010  -15.1780   20.0870 O   0  0  0  0  0  0  0  0  0  0  0  0
  -29.7120  -16.0850   20.7160 N   0  0  0  0  0  0  0  0  0  0  0  0
  -28.7450  -15.8340   20.8660 H   0  0  0  0  0  0  0  0  0  0  0  0
  -25.1760  -13.9920   20.4690 C   0  0  0  0  0  0  0  0  0  0  0  0
  -24.1300  -13.1900   20.8340 C   0  0  0  0  0  0  0  0  0  0  0  0
  -24.6330  -11.8530   20.8170 C   0  0  0  0  0  0  0  0  0  0  0  0
  -26.2470  -13.1430   20.2470 N   0  0  0  0  0  0  0  0  0  0  0  0
  -25.9260  -11.8500   20.5190 N   0  0  0  0  0  0  0  0  0  0  0  0
  -23.9420  -10.5700   21.0090 C   0  0  0  0  0  0  0  0  0  0  0  0
  -24.3870   -9.6260   21.9590 C   0  0  0  0  0  3  0  0  0  0  0  0
  -23.6940   -8.4090   22.1380 C   0  0  0  0  0  3  0  0  0  0  0  0
  -22.5420   -8.1290   21.3650 C   0  0  0  0  0  0  0  0  0  0  0  0
  -22.1160   -9.0630   20.4050 C   0  0  0  0  0  3  0  0  0  0  0  0
  -22.8110  -10.2710   20.2240 C   0  0  0  0  0  3  0  0  0  0  0  0
  -21.8200   -6.9630   21.4540 O   0  0  0  0  0  0  0  0  0  0  0  0
  -21.7680   -6.2340   22.6150 C   0  0  0  0  0  0  0  0  0  0  0  0
  -21.2750   -6.7840   23.8190 C   0  0  0  0  0  3  0  0  0  0  0  0
  -21.1750   -5.9790   24.9710 C   0  0  0  0  0  3  0  0  0  0  0  0
  -21.5550   -4.6240   24.9200 C   0  0  0  0  0  0  0  0  0  0  0  0
  -22.0420   -4.0750   23.7210 C   0  0  0  0  0  3  0  0  0  0  0  0
  -22.1450   -4.8760   22.5710 C   0  0  0  0  0  0  0  0  0  0  0  0
  -22.5920   -4.3350   21.4120 F   0  0  0  0  0  0  0  0  0  0  0  0
  -21.4520   -3.8480   26.0240 F   0  0  0  0  0  0  0  0  0  0  0  0
  -22.7170  -13.6280   21.0900 C   0  0  0  0  0  0  0  0  0  0  0  0
  -22.0010  -12.9160   21.9530 N   0  0  0  0  0  0  0  0  0  0  0  0
  -22.2540  -14.6360   20.5580 O   0  0  0  0  0  0  0  0  0  0  0  0
  -22.3870  -12.0970   22.4020 H   0  0  0  0  0  0  0  0  0  0  0  0
  -21.0520  -13.1890   22.1650 H   0  0  0  0  0  0  0  0  0  0  0  0
  -25.3010  -15.3670   20.2800 N   0  0  0  0  0  0  0  0  0  0  0  0
  -24.5050  -15.9910   20.3630 H   0  0  0  0  0  0  0  0  0  0  0  0
  -26.1280  -15.8270   19.9250 H   0  0  0  0  0  0  0  0  0  0  0  0
  -27.8580  -25.6270   20.3450 C   0  0  0  0  0  2  0  0  0  0  0  0
  -27.7150  -26.5370   19.1890 O   0  0  0  0  0  0  0  0  0  0  0  0
  -24.5020  -31.8020   22.9660 C   0  0  0  0  0  0  0  0  0  0  0  0
  -26.6700  -27.4580   19.3270 C   0  0  0  0  0  0  0  0  0  0  0  0
  -23.1050  -30.5680   21.3450 C   0  0  0  0  0  3  0  0  0  0  0  0
  -24.3680  -29.1080   19.6660 C   0  0  0  0  0  0  0  0  0  0  0  0
  -25.6190  -30.8550   20.9330 C   0  0  0  0  0  2  0  0  0  0  0  0
  -25.6030  -29.5290   20.1800 C   0  0  0  0  0  0  0  0  0  0  0  0
  -26.7600  -28.7110   20.0080 C   0  0  0  0  0  3  0  0  0  0  0  0
  -25.4180  -27.0870   18.8000 C   0  0  0  0  0  3  0  0  0  0  0  0
  -24.2760  -27.8910   18.9720 C   0  0  0  0  0  3  0  0  0  0  0  0
  -23.1660  -30.0020   19.9010 C   0  0  0  0  0  2  0  0  0  0  0  0
  -24.4340  -31.0880   21.8050 N   0  0  0  0  0  0  0  0  0  0  0  0
  -23.4820  -32.0560   23.6260 O   0  0  0  0  0  0  0  0  0  0  0  0
  -22.5120  -29.4880   22.2830 C   0  0  0  0  0  0  0  0  0  0  0  0
  -21.1770  -29.3360   22.2600 N   0  0  0  0  0  0  0  0  0  0  0  0
  -23.2490  -28.7930   22.9860 O   0  0  0  0  0  0  0  0  0  0  0  0
  -20.6410  -29.9400   21.6550 H   0  0  0  0  0  0  0  0  0  0  0  0
  -17.8300  -28.1790   23.0000 C   0  0  0  0  0  0  0  0  0  0  0  0
  -20.4110  -28.3540   23.0310 C   0  0  0  0  0  3  0  0  0  0  0  0
  -20.4120  -26.9770   22.3270 C   0  0  0  0  0  2  0  0  0  0  0  0
  -19.2040  -26.7690   21.4100 C   0  0  0  0  0  2  0  0  0  0  0  0
  -17.8960  -26.8910   22.1990 C   0  0  0  0  0  2  0  0  0  0  0  0
  -19.0100  -28.8750   23.3770 C   0  0  0  0  0  0  0  0  0  0  0  0
  -18.8920  -30.0890   24.0880 C   0  0  0  0  0  3  0  0  0  0  0  0
  -17.6260  -30.6030   24.4280 C   0  0  0  0  0  3  0  0  0  0  0  0
  -16.4630  -29.9000   24.0690 C   0  0  0  0  0  3  0  0  0  0  0  0
  -16.5650  -28.6900   23.3600 C   0  0  0  0  0  3  0  0  0  0  0  0
  -25.8570  -32.3550   23.5070 C   0  0  0  0  0  3  0  0  0  0  0  0
  -25.6130  -33.7090   24.0240 N   0  0  0  0  0  0  0  0  0  0  0  0
  -25.9190  -34.8380   23.3710 C   0  0  0  0  0  0  0  0  0  0  0  0
  -26.5140  -34.8480   22.2900 O   0  0  0  0  0  0  0  0  0  0  0  0
  -25.0950  -33.7810   24.8860 H   0  0  0  0  0  0  0  0  0  0  0  0
  -24.2420  -36.7090   23.3260 C   0  0  0  0  0  1  0  0  0  0  0  0
  -25.5010  -36.1700   24.0240 C   0  0  0  0  0  3  0  0  0  0  0  0
  -27.6950  -36.8750   24.8650 C   0  0  0  0  0  1  0  0  0  0  0  0
  -26.5630  -37.1990   24.0000 N   0  0  0  0  0  0  0  0  0  0  0  0
  -26.1950  -38.1020   24.2850 H   0  0  0  0  0  0  0  0  0  0  0  0
  -26.4980  -31.4440   24.6220 C   0  0  1  0  0  0  0  0  0  0  0  0
  -25.5280  -31.0920   25.7730 C   0  0  0  0  0  1  0  0  0  0  0  0
  -27.0120  -30.1170   24.0150 C   0  0  0  0  0  1  0  0  0  0  0  0
  -27.7320  -32.1480   25.2330 C   0  0  0  0  0  1  0  0  0  0  0  0
  1  2  1  0
  2  7  2  0
  3  7  1  0
  3  9  1  0
  4 51  1  0
  4  3  2  0
  5  1  1  0
  6  1  2  0
  6  4  1  0
  8  9  1  0
 10  2  1  0
 10 11  1  0
 11 12  1  0
 13 21  1  0
 14 19  1  0
 15 16  1  0
 15 14  1  0
 17 16  1  0
 17 26  1  0
 17 18  1  0
 19 13  1  0
 19 18  1  0
 20 13  2  0
 21 22  1  0
 21 12  1  0
 23 24  2  0
 24 43  1  0
 25 24  1  0
 25 28  1  0
 26 23  1  0
 26 27  1  0
 27 25  2  0
 28 29  1  0
 29 30  2  0
 31 34  1  0
 31 30  1  0
 32 31  2  0
 33 32  1  0
 33 28  2  0
 34 35  1  0
 35 36  1  0
 36 37  2  0
 38 37  1  0
 38 42  1  0
 39 38  2  0
 40 35  2  0
 40 39  1  0
 41 40  1  0
 43 44  1  0
 44 47  1  0
 44 46  1  0
 45 43  2  0
 48 49  1  0
 48 23  1  0
 50 48  1  0
 52 54  1  0
 52 51  1  0
 53 64  2  0
 54 59  1  0
 55 63  1  0
 55 65  1  0
 56 62  1  0
 56 58  1  0
 57 63  1  0
 58 57  1  0
 59 58  2  0
 60 61  1  0
 60 54  2  0
 61 56  2  0
 62 55  1  0
 63 53  1  0
 65 67  2  0
 66 65  1  0
 68 66  1  0
 69 78  2  0
 69 74  1  0
 70 66  1  0
 70 74  1  0
 71 70  1  0
 72 73  1  0
 72 71  1  0
 73 69  1  0
 74 75  2  0
 75 76  1  0
 77 76  2  0
 78 77  1  0
 79 53  1  0
 79 80  1  0
 79 89  1  0
 80 83  1  0
 81 80  1  0
 81 85  1  0
 82 81  2  0
 85 84  1  0
 87 85  1  0
 87 88  1  0
 87 86  1  0
 89 92  1  1
 89 90  1  0
 91 89  1  0
M  ISO  4  13 100  21 100  51 101  52 101
M  END
>  <TORSDO>  (95) 
F 21

>  <SCORE>  (95) 
-12.536

>  <name>  (95) 
94

>  <ligand_id>  (95) 
94

>  <original_smiles>  (95) 
[H]c1c([H])c([H])c2c(c1[H])C([H])([H])C([H])([H])C([H])([H])C2([H])N([H])C(=O)C1([H])N(C(=O)C([H])(N([H])C(=O)C([H])(N([H])C([H])([H])[H])C([H])([H])[H])C(C([H])([H])[H])(C([H])([H])[H])C([H])([H])[H])C([H])([H])c2c([H])c(OC([H])([H])c3nc(C([H])([H])[H])c(C([H])([H])C([H])([H])C([H])([H])N([H])C(=O)N4C([H])([H])C([H])([H])C([H])([H])C([H])(n5nc(-c6c([H])c([H])c(Oc7c([H])c([H])c(F)c([H])c7F)c([H])c6[H])c(C(=O)N([H])[H])c5N([H])[H])C4([H])[H])nc3C([H])([H])C([H])([H])[H])c([H])c([H])c2C1([H])[H]

>  <smiles>  (95) 
[H]c1c([H])c([H])c2c(c1[H])C([H])([H])C([H])([H])C([H])([H])C2([H])N([H])C(=O)C1([H])N(C(=O)C([H])(N([H])C(=O)C([H])(N([H])C([H])([H])[H])C([H])([H])[H])C(C([H])([H])[H])(C([H])([H])[H])C([H])([H])[H])C([H])([H])c2c([H])c(OC([H])([H])c3nc(C([H])([H])[H])c(C([H])([H])C([H])([H])C([H])([H])N([H])C(=O)N4C([H])([H])C([H])([H])C([H])([H])C([H])(n5nc(-c6c([H])c([H])c(Oc7c([H])c([H])c(F)c([H])c7F)c([H])c6[H])c(C(=O)N([H])[H])c5N([H])[H])C4([H])[H])nc3C([H])([H])C([H])([H])[H])c([H])c([H])c2C1([H])[H]

$$$$
