0:0:0
     RDKit          3D

 90 98  0  0  1  0  0  0  0  0999 V2000
  -30.5100  -21.4120   19.5450 C   0  0  0  0  0  3  0  0  0  0  0  0
  -29.6430  -20.8760   20.5360 C   0  0  0  0  0  0  0  0  0  0  0  0
  -30.0100  -22.6490   19.2380 C   0  0  0  0  0  0  0  0  0  0  0  0
  -30.5100  -23.6570   18.2540 C   0  0  0  0  0  1  0  0  0  0  0  0
  -28.6580  -21.7540   20.8060 N   0  0  0  0  0  0  0  0  0  0  0  0
  -28.8890  -22.8610   20.0240 N   0  0  0  0  0  0  0  0  0  0  0  0
  -29.8370  -19.5580   21.3080 C   0  0  0  0  0  2  0  0  0  0  0  0
  -29.6300  -18.1890   20.5540 C   0  0  0  0  0  2  0  0  0  0  0  0
  -30.3100  -16.9630   21.2780 C   0  0  0  0  0  2  0  0  0  0  0  0
  -30.6140  -14.5470   20.4480 C   0  0  0  0  0  0  0  0  0  0  0  0
  -30.3490  -12.3610   19.3060 C   0  0  0  0  0  2  0  0  0  0  0  0
  -29.3960  -12.5330   18.1040 C   0  0  0  0  0  2  0  0  0  0  0  0
  -27.9260  -12.3880   18.5460 C   0  0  0  0  0  2  0  0  0  0  0  0
  -27.5910  -13.2380   19.8020 C   0  0  0  0  0  3  0  0  0  0  0  0
  -28.6500  -13.0360   20.9070 C   0  0  0  0  0  2  0  0  0  0  0  0
  -29.9610  -13.3560   20.3230 N   0  0  0  0  0  0  0  0  0  0  0  0
  -31.7700  -14.7080   20.0480 O   0  0  0  0  0  0  0  0  0  0  0  0
  -29.8670  -15.5890   20.9030 N   0  0  0  0  0  0  0  0  0  0  0  0
  -28.9130  -15.3560   21.1370 H   0  0  0  0  0  0  0  0  0  0  0  0
  -25.2000  -13.8570   20.5140 C   0  0  0  0  0  0  0  0  0  0  0  0
  -24.1300  -13.0930   20.8880 C   0  0  0  0  0  0  0  0  0  0  0  0
  -24.5840  -11.7390   20.8630 C   0  0  0  0  0  0  0  0  0  0  0  0
  -26.2400  -12.9700   20.2850 N   0  0  0  0  0  0  0  0  0  0  0  0
  -25.8740  -11.6910   20.5540 N   0  0  0  0  0  0  0  0  0  0  0  0
  -23.8510  -10.4820   21.0610 C   0  0  0  0  0  0  0  0  0  0  0  0
  -24.2920   -9.5080   21.9820 C   0  0  0  0  0  3  0  0  0  0  0  0
  -23.5600   -8.3150   22.1660 C   0  0  0  0  0  3  0  0  0  0  0  0
  -22.3730   -8.0900   21.4300 C   0  0  0  0  0  0  0  0  0  0  0  0
  -21.9510   -9.0540   20.4980 C   0  0  0  0  0  3  0  0  0  0  0  0
  -22.6820  -10.2390   20.3120 C   0  0  0  0  0  3  0  0  0  0  0  0
  -21.6100   -6.9510   21.5250 O   0  0  0  0  0  0  0  0  0  0  0  0
  -21.5910   -6.1930   22.6690 C   0  0  0  0  0  0  0  0  0  0  0  0
  -21.2220   -6.7360   23.9180 C   0  0  0  0  0  3  0  0  0  0  0  0
  -21.1470   -5.9040   25.0530 C   0  0  0  0  0  3  0  0  0  0  0  0
  -21.4320   -4.5300   24.9390 C   0  0  0  0  0  0  0  0  0  0  0  0
  -21.7950   -3.9870   23.6940 C   0  0  0  0  0  3  0  0  0  0  0  0
  -21.8720   -4.8160   22.5620 C   0  0  0  0  0  0  0  0  0  0  0  0
  -22.2020   -4.2830   21.3610 F   0  0  0  0  0  0  0  0  0  0  0  0
  -21.3530   -3.7290   26.0270 F   0  0  0  0  0  0  0  0  0  0  0  0
  -22.7360  -13.5810   21.1620 C   0  0  0  0  0  0  0  0  0  0  0  0
  -22.0070  -12.8940   22.0340 N   0  0  0  0  0  0  0  0  0  0  0  0
  -22.3030  -14.6060   20.6360 O   0  0  0  0  0  0  0  0  0  0  0  0
  -22.3690  -12.0660   22.4840 H   0  0  0  0  0  0  0  0  0  0  0  0
  -21.0710  -13.2030   22.2580 H   0  0  0  0  0  0  0  0  0  0  0  0
  -25.3700  -15.2270   20.3290 N   0  0  0  0  0  0  0  0  0  0  0  0
  -24.5950  -15.8740   20.4310 H   0  0  0  0  0  0  0  0  0  0  0  0
  -26.2090  -15.6650   19.9730 H   0  0  0  0  0  0  0  0  0  0  0  0
  -27.9730  -24.0370   20.0010 C   0  0  0  0  0  2  0  0  0  0  0  0
  -28.4420  -25.3120   20.7920 C   0  0  0  0  0  2  0  0  0  0  0  0
  -28.4000  -26.6160   20.1370 O   0  0  0  0  0  0  0  0  0  0  0  0
  -24.6030  -31.8720   23.2370 C   0  0  0  0  0  0  0  0  0  0  0  0
  -27.2320  -27.3640   20.1910 C   0  0  0  0  0  0  0  0  0  0  0  0
  -23.3970  -30.4630   21.6030 C   0  0  0  0  0  3  0  0  0  0  0  0
  -24.8470  -28.9080   20.1900 C   0  0  0  0  0  0  0  0  0  0  0  0
  -25.9260  -30.8080   21.4030 C   0  0  0  0  0  2  0  0  0  0  0  0
  -26.0100  -29.4290   20.7700 C   0  0  0  0  0  0  0  0  0  0  0  0
  -27.2080  -28.6680   20.7570 C   0  0  0  0  0  3  0  0  0  0  0  0
  -26.0480  -26.8660   19.6120 C   0  0  0  0  0  3  0  0  0  0  0  0
  -24.8630  -27.6290   19.6060 C   0  0  0  0  0  3  0  0  0  0  0  0
  -23.6080  -29.7760   20.2270 C   0  0  0  0  0  2  0  0  0  0  0  0
  -24.6600  -31.0640   22.1390 N   0  0  0  0  0  0  0  0  0  0  0  0
  -23.5210  -32.1470   23.7750 O   0  0  0  0  0  0  0  0  0  0  0  0
  -22.7410  -29.4480   22.5680 C   0  0  0  0  0  0  0  0  0  0  0  0
  -21.4160  -29.2700   22.4440 N   0  0  0  0  0  0  0  0  0  0  0  0
  -23.4230  -28.8240   23.3850 O   0  0  0  0  0  0  0  0  0  0  0  0
  -20.9240  -29.8270   21.7590 H   0  0  0  0  0  0  0  0  0  0  0  0
  -18.0400  -28.0760   22.9480 C   0  0  0  0  0  0  0  0  0  0  0  0
  -20.5980  -28.3340   23.2180 C   0  0  0  0  0  3  0  0  0  0  0  0
  -20.6990  -26.9020   22.6470 C   0  0  0  0  0  2  0  0  0  0  0  0
  -19.5970  -26.5740   21.6350 C   0  0  0  0  0  2  0  0  0  0  0  0
  -18.2170  -26.7240   22.2780 C   0  0  0  0  0  2  0  0  0  0  0  0
  -19.1600  -28.8390   23.3750 C   0  0  0  0  0  0  0  0  0  0  0  0
  -18.9420  -30.1050   23.9610 C   0  0  0  0  0  3  0  0  0  0  0  0
  -17.6370  -30.6080   24.1240 C   0  0  0  0  0  3  0  0  0  0  0  0
  -16.5330  -29.8420   23.7140 C   0  0  0  0  0  3  0  0  0  0  0  0
  -16.7350  -28.5780   23.1310 C   0  0  0  0  0  3  0  0  0  0  0  0
  -25.8890  -32.5050   23.8550 C   0  0  0  0  0  3  0  0  0  0  0  0
  -25.5780  -33.9030   24.1860 N   0  0  0  0  0  0  0  0  0  0  0  0
  -25.9030  -34.9540   23.4240 C   0  0  0  0  0  0  0  0  0  0  0  0
  -26.5680  -34.8510   22.3880 O   0  0  0  0  0  0  0  0  0  0  0  0
  -24.9870  -34.0570   24.9900 H   0  0  0  0  0  0  0  0  0  0  0  0
  -24.1650  -36.7410   23.0830 C   0  0  0  0  0  1  0  0  0  0  0  0
  -25.4160  -36.3420   23.8830 C   0  0  0  0  0  3  0  0  0  0  0  0
  -27.5550  -37.2350   24.6930 C   0  0  0  0  0  1  0  0  0  0  0  0
  -26.4430  -37.3980   23.7600 N   0  0  0  0  0  0  0  0  0  0  0  0
  -26.0340  -38.3160   23.9140 H   0  0  0  0  0  0  0  0  0  0  0  0
  -26.4130  -31.7330   25.1290 C   0  0  1  0  0  0  0  0  0  0  0  0
  -25.3260  -31.4960   26.2030 C   0  0  0  0  0  1  0  0  0  0  0  0
  -26.9950  -30.3560   24.7320 C   0  0  0  0  0  1  0  0  0  0  0  0
  -27.5650  -32.5290   25.7860 C   0  0  0  0  0  1  0  0  0  0  0  0
  1  2  1  0
  2  5  2  0
  2  7  1  0
  3  1  2  0
  3  6  1  0
  4  3  1  0
  6  5  1  0
  8  9  1  0
  8  7  1  0
 10 18  1  0
 11 16  1  0
 12 13  1  0
 12 11  1  0
 14 13  1  0
 14 23  1  0
 14 15  1  0
 16 10  1  0
 16 15  1  0
 17 10  2  0
 18 19  1  0
 18  9  1  0
 20 21  2  0
 21 40  1  0
 22 21  1  0
 22 25  1  0
 23 20  1  0
 23 24  1  0
 24 22  2  0
 25 26  1  0
 26 27  2  0
 28 31  1  0
 28 27  1  0
 29 28  2  0
 30 29  1  0
 30 25  2  0
 31 32  1  0
 32 33  1  0
 33 34  2  0
 35 34  1  0
 35 39  1  0
 36 35  2  0
 37 32  2  0
 37 36  1  0
 38 37  1  0
 40 41  1  0
 41 44  1  0
 41 43  1  0
 42 40  2  0
 45 46  1  0
 45 20  1  0
 47 45  1  0
 48  6  1  0
 48 49  1  0
 50 52  1  0
 50 49  1  0
 51 62  2  0
 52 57  1  0
 53 61  1  0
 53 63  1  0
 54 60  1  0
 54 56  1  0
 55 61  1  0
 56 55  1  0
 57 56  2  0
 58 52  2  0
 59 58  1  0
 59 54  2  0
 60 53  1  0
 61 51  1  0
 63 65  2  0
 64 63  1  0
 66 64  1  0
 67 76  2  0
 67 72  1  0
 68 64  1  0
 68 72  1  0
 69 68  1  0
 70 71  1  0
 70 69  1  0
 71 67  1  0
 72 73  2  0
 73 74  1  0
 75 74  2  0
 76 75  1  0
 77 51  1  0
 77 78  1  0
 77 87  1  0
 78 81  1  0
 79 83  1  0
 79 78  1  0
 80 79  2  0
 83 82  1  0
 85 83  1  0
 85 86  1  0
 85 84  1  0
 87 90  1  1
 87 88  1  0
 89 87  1  0
M  ISO  4  10 100  18 100  49 101  50 101
M  END
>  <TORSDO>  (1) 
F 21

>  <SCORE>  (1) 
-13.330

>  <name>  (1) 
0

>  <ligand_id>  (1) 
0

>  <original_smiles>  (1) 
[H]c1c([H])c([H])c2c(c1[H])C([H])([H])C([H])([H])C([H])([H])C2([H])N([H])C(=O)C1([H])N(C(=O)C([H])(N([H])C(=O)C([H])(N([H])C([H])([H])[H])C([H])([H])[H])C(C([H])([H])[H])(C([H])([H])[H])C([H])([H])[H])C([H])([H])c2c([H])c(OC([H])([H])C([H])([H])n3nc(C([H])([H])C([H])([H])C([H])([H])N([H])C(=O)N4C([H])([H])C([H])([H])C([H])([H])C([H])(n5nc(-c6c([H])c([H])c(Oc7c([H])c([H])c(F)c([H])c7F)c([H])c6[H])c(C(=O)N([H])[H])c5N([H])[H])C4([H])[H])c([H])c3C([H])([H])[H])c([H])c([H])c2C1([H])[H]

>  <smiles>  (1) 
[H]c1c([H])c([H])c2c(c1[H])C([H])([H])C([H])([H])C([H])([H])C2([H])N([H])C(=O)C1([H])N(C(=O)C([H])(N([H])C(=O)C([H])(N([H])C([H])([H])[H])C([H])([H])[H])C(C([H])([H])[H])(C([H])([H])[H])C([H])([H])[H])C([H])([H])c2c([H])c(OC([H])([H])C([H])([H])n3nc(C([H])([H])C([H])([H])C([H])([H])N([H])C(=O)N4C([H])([H])C([H])([H])C([H])([H])C([H])(n5nc(-c6c([H])c([H])c(Oc7c([H])c([H])c(F)c([H])c7F)c([H])c6[H])c(C(=O)N([H])[H])c5N([H])[H])C4([H])[H])c([H])c3C([H])([H])[H])c([H])c([H])c2C1([H])[H]

$$$$
1:0:0
     RDKit          3D

 97105  0  0  1  0  0  0  0  0999 V2000
  -30.7950  -23.2870   21.3890 C   0  0  0  0  0  0  0  0  0  0  0  0
  -30.7190  -22.4040   20.2800 C   0  0  0  0  0  0  0  0  0  0  0  0
  -28.9430  -23.6180   19.4350 C   0  0  0  0  0  0  0  0  0  0  0  0
  -28.9990  -24.5020   20.5470 C   0  0  0  0  0  0  0  0  0  0  0  0
  -31.8070  -23.1100   22.5060 C   0  0  0  0  0  1  0  0  0  0  0  0
  -29.9440  -24.3390   21.5130 N   0  0  0  0  0  0  0  0  0  0  0  0
  -29.8210  -22.6010   19.2910 N   0  0  0  0  0  0  0  0  0  0  0  0
  -31.5750  -21.1560   20.1060 C   0  0  0  0  0  2  0  0  0  0  0  0
  -30.7410  -19.8810   20.3910 C   0  0  0  0  0  2  0  0  0  0  0  0
  -32.3700  -18.4310   19.1720 C   0  0  0  0  0  1  0  0  0  0  0  0
  -31.4780  -18.5850   20.3480 N   0  0  2  0  0  4  0  0  0  0  0  0
  -32.0710  -18.5710   21.1670 H   0  0  0  0  0  0  0  0  0  0  0  0
  -30.5510  -17.4260   20.4800 C   0  0  0  0  0  2  0  0  0  0  0  0
  -31.1320  -16.2850   21.3380 C   0  0  0  0  0  2  0  0  0  0  0  0
  -30.2920  -14.9890   21.2550 C   0  0  0  0  0  2  0  0  0  0  0  0
  -30.5910  -14.0890   20.0410 C   0  0  0  0  0  0  0  0  0  0  0  0
  -30.1750  -11.9780   18.8190 C   0  0  0  0  0  2  0  0  0  0  0  0
  -29.1180  -12.1460   17.7130 C   0  0  0  0  0  2  0  0  0  0  0  0
  -27.6990  -11.9710   18.2850 C   0  0  0  0  0  2  0  0  0  0  0  0
  -27.4630  -12.8330   19.5540 C   0  0  0  0  0  3  0  0  0  0  0  0
  -28.6120  -12.6360   20.5690 C   0  0  0  0  0  2  0  0  0  0  0  0
  -29.8810  -12.9430   19.8870 N   0  0  0  0  0  0  0  0  0  0  0  0
  -31.5020  -14.4120   19.2690 O   0  0  0  0  0  0  0  0  0  0  0  0
  -25.1570  -13.4370   20.5330 C   0  0  0  0  0  0  0  0  0  0  0  0
  -24.1140  -12.6610   20.9620 C   0  0  0  0  0  0  0  0  0  0  0  0
  -24.5390  -11.3070   20.8020 C   0  0  0  0  0  0  0  0  0  0  0  0
  -26.1570  -12.5540   20.1490 N   0  0  0  0  0  0  0  0  0  0  0  0
  -25.7900  -11.2650   20.3610 N   0  0  0  0  0  0  0  0  0  0  0  0
  -23.8090  -10.0450   20.9870 C   0  0  0  0  0  0  0  0  0  0  0  0
  -24.2040   -9.1010   21.9610 C   0  0  0  0  0  3  0  0  0  0  0  0
  -23.4780   -7.9030   22.1330 C   0  0  0  0  0  3  0  0  0  0  0  0
  -22.3420   -7.6420   21.3310 C   0  0  0  0  0  0  0  0  0  0  0  0
  -21.9660   -8.5740   20.3470 C   0  0  0  0  0  3  0  0  0  0  0  0
  -22.6930   -9.7650   20.1750 C   0  0  0  0  0  3  0  0  0  0  0  0
  -21.5870   -6.4970   21.4110 O   0  0  0  0  0  0  0  0  0  0  0  0
  -21.3770   -5.8570   22.6070 C   0  0  0  0  0  0  0  0  0  0  0  0
  -20.7090   -6.4820   23.6820 C   0  0  0  0  0  3  0  0  0  0  0  0
  -20.4560   -5.7630   24.8670 C   0  0  0  0  0  3  0  0  0  0  0  0
  -20.8600   -4.4180   24.9750 C   0  0  0  0  0  0  0  0  0  0  0  0
  -21.5190   -3.7930   23.9030 C   0  0  0  0  0  3  0  0  0  0  0  0
  -21.7750   -4.5100   22.7210 C   0  0  0  0  0  0  0  0  0  0  0  0
  -22.3910   -3.8950   21.6830 F   0  0  0  0  0  0  0  0  0  0  0  0
  -20.6110   -3.7230   26.1100 F   0  0  0  0  0  0  0  0  0  0  0  0
  -22.7610  -13.1400   21.4080 C   0  0  0  0  0  0  0  0  0  0  0  0
  -22.1120  -12.3970   22.2970 N   0  0  0  0  0  0  0  0  0  0  0  0
  -22.2950  -14.2060   21.0040 O   0  0  0  0  0  0  0  0  0  0  0  0
  -22.5000  -11.5310   22.6430 H   0  0  0  0  0  0  0  0  0  0  0  0
  -21.2100  -12.6960   22.6380 H   0  0  0  0  0  0  0  0  0  0  0  0
  -25.3360  -14.8130   20.4150 N   0  0  0  0  0  0  0  0  0  0  0  0
  -24.6120  -15.4860   20.6390 H   0  0  0  0  0  0  0  0  0  0  0  0
  -26.1730  -15.2420   20.0390 H   0  0  0  0  0  0  0  0  0  0  0  0
  -27.9520  -25.5950   20.7860 C   0  0  0  0  0  2  0  0  0  0  0  0
  -27.9190  -26.6060   19.7730 O   0  0  0  0  0  0  0  0  0  0  0  0
  -24.5110  -31.6840   23.4120 C   0  0  0  0  0  0  0  0  0  0  0  0
  -26.8150  -27.4180   19.8720 C   0  0  0  0  0  0  0  0  0  0  0  0
  -23.1830  -30.5180   21.6780 C   0  0  0  0  0  3  0  0  0  0  0  0
  -24.5110  -29.0380   20.0790 C   0  0  0  0  0  0  0  0  0  0  0  0
  -25.7200  -30.7480   21.4460 C   0  0  0  0  0  2  0  0  0  0  0  0
  -25.7090  -29.4400   20.6850 C   0  0  0  0  0  0  0  0  0  0  0  0
  -26.8650  -28.6340   20.5860 C   0  0  0  0  0  3  0  0  0  0  0  0
  -25.6050  -27.0280   19.2580 C   0  0  0  0  0  3  0  0  0  0  0  0
  -24.4520  -27.8290   19.3640 C   0  0  0  0  0  3  0  0  0  0  0  0
  -23.3210  -29.9580   20.2360 C   0  0  0  0  0  2  0  0  0  0  0  0
  -24.4910  -30.9910   22.2380 N   0  0  0  0  0  0  0  0  0  0  0  0
  -23.4610  -31.9690   24.0030 O   0  0  0  0  0  0  0  0  0  0  0  0
  -22.4900  -29.4540   22.5560 C   0  0  0  0  0  0  0  0  0  0  0  0
  -21.1590  -29.3380   22.4160 N   0  0  0  0  0  0  0  0  0  0  0  0
  -23.1460  -28.7380   23.3180 O   0  0  0  0  0  0  0  0  0  0  0  0
  -20.6940  -29.9680   21.7760 H   0  0  0  0  0  0  0  0  0  0  0  0
  -17.7440  -28.2130   22.7690 C   0  0  0  0  0  0  0  0  0  0  0  0
  -20.3000  -28.3790   23.1120 C   0  0  0  0  0  3  0  0  0  0  0  0
  -20.3750  -26.9820   22.4550 C   0  0  0  0  0  2  0  0  0  0  0  0
  -19.2910  -26.7530   21.3980 C   0  0  0  0  0  2  0  0  0  0  0  0
  -17.8980  -26.9040   22.0170 C   0  0  0  0  0  2  0  0  0  0  0  0
  -18.8730  -28.9160   23.2690 C   0  0  0  0  0  0  0  0  0  0  0  0
  -18.6760  -30.1490   23.9280 C   0  0  0  0  0  3  0  0  0  0  0  0
  -17.3820  -30.6760   24.0940 C   0  0  0  0  0  3  0  0  0  0  0  0
  -16.2670  -29.9700   23.6120 C   0  0  0  0  0  3  0  0  0  0  0  0
  -16.4490  -28.7390   22.9550 C   0  0  0  0  0  3  0  0  0  0  0  0
  -25.8500  -32.1700   24.0510 C   0  0  0  0  0  3  0  0  0  0  0  0
  -26.3090  -31.2900   25.2770 C   0  0  1  0  0  0  0  0  0  0  0  0
  -25.2030  -31.0700   26.3340 C   0  0  0  0  0  1  0  0  0  0  0  0
  -26.7870  -29.8980   24.7990 C   0  0  0  0  0  1  0  0  0  0  0  0
  -27.5150  -31.9570   25.9790 C   0  0  0  0  0  1  0  0  0  0  0  0
  -25.6630  -33.5690   24.4560 N   0  0  0  0  0  0  0  0  0  0  0  0
  -26.0910  -34.6270   23.7530 C   0  0  0  0  0  0  0  0  0  0  0  0
  -26.7570  -34.5210   22.7200 O   0  0  0  0  0  0  0  0  0  0  0  0
  -25.0790  -33.7320   25.2620 H   0  0  0  0  0  0  0  0  0  0  0  0
  -24.5380  -36.5850   23.4760 C   0  0  0  0  0  1  0  0  0  0  0  0
  -25.7220  -36.0260   24.2810 C   0  0  0  0  0  3  0  0  0  0  0  0
  -27.9000  -36.6770   25.2090 C   0  0  0  0  0  1  0  0  0  0  0  0
  -26.8490  -36.9850   24.2440 N   0  0  0  0  0  0  0  0  0  0  0  0
  -26.5220  -37.9310   24.4220 H   0  0  0  0  0  0  0  0  0  0  0  0
  -27.8840  -23.6900   18.3490 C   0  0  0  0  0  2  0  0  0  0  0  0
  -26.8950  -22.5100   18.3900 C   0  0  0  0  0  2  0  0  0  0  0  0
  -26.0520  -22.5590   19.5320 O   0  0  0  0  0  0  0  0  0  0  0  0
  -26.5430  -22.2180   20.2730 H   0  0  0  0  0  0  0  0  0  0  0  0
  1  6  1  0
  1  5  1  0
  2  1  2  0
  3  4  1  0
  4 52  1  0
  4  6  2  0
  7  3  2  0
  7  2  1  0
  8  2  1  0
  8  9  1  0
 10 11  1  0
 11  9  1  0
 11 13  1  0
 11 12  1  1
 13 14  1  0
 15 14  1  0
 16 15  1  0
 17 22  1  0
 18 19  1  0
 18 17  1  0
 20 19  1  0
 20 27  1  0
 20 21  1  0
 22 16  1  0
 22 21  1  0
 23 16  2  0
 24 25  2  0
 25 44  1  0
 26 25  1  0
 26 29  1  0
 27 28  1  0
 27 24  1  0
 28 26  2  0
 29 30  1  0
 30 31  2  0
 32 35  1  0
 32 31  1  0
 33 32  2  0
 34 33  1  0
 34 29  2  0
 35 36  1  0
 36 41  2  0
 36 37  1  0
 37 38  2  0
 38 39  1  0
 39 43  1  0
 40 39  2  0
 41 40  1  0
 42 41  1  0
 44 45  1  0
 45 48  1  0
 45 47  1  0
 46 44  2  0
 49 24  1  0
 49 50  1  0
 51 49  1  0
 53 55  1  0
 53 52  1  0
 54 65  2  0
 55 60  1  0
 56 64  1  0
 56 66  1  0
 57 63  1  0
 57 59  1  0
 58 64  1  0
 59 58  1  0
 60 59  2  0
 61 62  1  0
 61 55  2  0
 62 57  2  0
 63 56  1  0
 64 54  1  0
 66 68  2  0
 67 66  1  0
 69 67  1  0
 70 79  2  0
 70 75  1  0
 71 67  1  0
 71 75  1  0
 72 71  1  0
 73 74  1  0
 73 72  1  0
 74 70  1  0
 75 76  2  0
 76 77  1  0
 78 77  2  0
 79 78  1  0
 80 54  1  0
 80 85  1  0
 80 81  1  0
 81 84  1  1
 81 82  1  0
 83 81  1  0
 85 88  1  0
 86 90  1  0
 86 85  1  0
 87 86  2  0
 90 89  1  0
 92 90  1  0
 92 93  1  0
 92 91  1  0
 94 95  1  0
 94  3  1  0
 95 96  1  0
 96 97  1  0
M  ISO  4  15 100  16 100  52 101  53 101
M  END
>  <TORSDO>  (2) 
F 26

>  <SCORE>  (2) 
-9.282

>  <name>  (2) 
1

>  <ligand_id>  (2) 
1

>  <original_smiles>  (2) 
[H]OC([H])([H])C([H])([H])c1nc(C([H])([H])C([H])([H])[N+]([H])(C([H])([H])[H])C([H])([H])C([H])([H])C([H])([H])C(=O)N2C([H])([H])C([H])([H])C([H])([H])C([H])(n3nc(-c4c([H])c([H])c(Oc5c([H])c([H])c(F)c([H])c5F)c([H])c4[H])c(C(=O)N([H])[H])c3N([H])[H])C2([H])[H])c(C([H])([H])[H])nc1C([H])([H])Oc1c([H])c([H])c2c(c1[H])C([H])([H])N(C(=O)C([H])(N([H])C(=O)C([H])(N([H])C([H])([H])[H])C([H])([H])[H])C(C([H])([H])[H])(C([H])([H])[H])C([H])([H])[H])C([H])(C(=O)N([H])C1([H])c3c([H])c([H])c([H])c([H])c3C([H])([H])C([H])([H])C1([H])[H])C2([H])[H]

>  <smiles>  (2) 
[H]OC([H])([H])C([H])([H])c1nc(C([H])([H])C([H])([H])[N+]([H])(C([H])([H])[H])C([H])([H])C([H])([H])C([H])([H])C(=O)N2C([H])([H])C([H])([H])C([H])([H])C([H])(n3nc(-c4c([H])c([H])c(Oc5c([H])c([H])c(F)c([H])c5F)c([H])c4[H])c(C(=O)N([H])[H])c3N([H])[H])C2([H])[H])c(C([H])([H])[H])nc1C([H])([H])Oc1c([H])c([H])c2c(c1[H])C([H])([H])N(C(=O)C([H])(N([H])C(=O)C([H])(N([H])C([H])([H])[H])C([H])([H])[H])C(C([H])([H])[H])(C([H])([H])[H])C([H])([H])[H])C([H])(C(=O)N([H])C1([H])c3c([H])c([H])c([H])c([H])c3C([H])([H])C([H])([H])C1([H])[H])C2([H])[H]

$$$$
2:0:0
     RDKit          3D

 89 97  0  0  1  0  0  0  0  0999 V2000
  -29.6580  -21.4940   19.0560 C   0  0  0  0  0  3  0  0  0  0  0  0
  -29.5470  -20.7660   20.2790 C   0  0  0  0  0  0  0  0  0  0  0  0
  -29.2660  -21.6900   21.3340 C   0  0  0  0  0  0  0  0  0  0  0  0
  -29.0980  -23.6470   19.9510 C   0  0  0  0  0  0  0  0  0  0  0  0
  -29.0820  -21.1880   22.7530 C   0  0  0  0  0  1  0  0  0  0  0  0
  -29.4300  -22.8540   18.9060 N   0  0  0  0  0  0  0  0  0  0  0  0
  -29.0490  -23.0480   21.1630 N   0  0  0  0  0  0  0  0  0  0  0  0
  -29.4190  -19.1290   20.3970 C   0  0  0  0  0  3  0  0  0  0  0  0
  -30.5760  -17.9810   20.7080 C   0  0  0  0  0  3  0  0  0  0  0  0
  -31.0140  -15.2860   20.6500 C   0  0  0  0  0  0  0  0  0  0  0  0
  -30.9430  -12.9220   19.7690 C   0  0  0  0  0  2  0  0  0  0  0  0
  -30.0840  -12.8510   18.4850 C   0  0  0  0  0  2  0  0  0  0  0  0
  -28.5970  -12.6510   18.8340 C   0  0  0  0  0  2  0  0  0  0  0  0
  -28.1170  -13.6060   19.9580 C   0  0  0  0  0  3  0  0  0  0  0  0
  -29.1040  -13.6490   21.1450 C   0  0  0  0  0  2  0  0  0  0  0  0
  -30.4150  -14.0330   20.6040 N   0  0  0  0  0  0  0  0  0  0  0  0
  -32.2250  -15.3620   20.4310 O   0  0  0  0  0  0  0  0  0  0  0  0
  -30.2250  -16.4520   20.7370 N   0  0  0  0  0  0  0  0  0  0  0  0
  -29.2440  -16.2580   20.8630 H   0  0  0  0  0  0  0  0  0  0  0  0
  -25.6990  -14.1880   20.5680 C   0  0  0  0  0  0  0  0  0  0  0  0
  -24.6160  -13.4140   20.8810 C   0  0  0  0  0  0  0  0  0  0  0  0
  -25.0810  -12.0620   20.8740 C   0  0  0  0  0  0  0  0  0  0  0  0
  -26.7540  -13.3090   20.3840 N   0  0  0  0  0  0  0  0  0  0  0  0
  -26.3870  -12.0250   20.6330 N   0  0  0  0  0  0  0  0  0  0  0  0
  -24.3440  -10.8000   21.0230 C   0  0  0  0  0  0  0  0  0  0  0  0
  -24.7060   -9.8430   21.9960 C   0  0  0  0  0  3  0  0  0  0  0  0
  -23.9680   -8.6470   22.1330 C   0  0  0  0  0  3  0  0  0  0  0  0
  -22.8550   -8.4000   21.2950 C   0  0  0  0  0  0  0  0  0  0  0  0
  -22.5130   -9.3460   20.3130 C   0  0  0  0  0  3  0  0  0  0  0  0
  -23.2520  -10.5330   20.1740 C   0  0  0  0  0  3  0  0  0  0  0  0
  -22.0960   -7.2540   21.3380 O   0  0  0  0  0  0  0  0  0  0  0  0
  -21.9270   -6.5480   22.5020 C   0  0  0  0  0  0  0  0  0  0  0  0
  -21.3430   -7.1300   23.6480 C   0  0  0  0  0  3  0  0  0  0  0  0
  -21.1230   -6.3480   24.8000 C   0  0  0  0  0  3  0  0  0  0  0  0
  -21.4770   -4.9850   24.8050 C   0  0  0  0  0  0  0  0  0  0  0  0
  -22.0520   -4.4030   23.6620 C   0  0  0  0  0  3  0  0  0  0  0  0
  -22.2750   -5.1820   22.5140 C   0  0  0  0  0  0  0  0  0  0  0  0
  -22.8100   -4.6110   21.4080 F   0  0  0  0  0  0  0  0  0  0  0  0
  -21.2580   -4.2330   25.9090 F   0  0  0  0  0  0  0  0  0  0  0  0
  -23.2060  -13.8910   21.0750 C   0  0  0  0  0  0  0  0  0  0  0  0
  -22.4320  -13.1990   21.9030 N   0  0  0  0  0  0  0  0  0  0  0  0
  -22.7980  -14.9130   20.5250 O   0  0  0  0  0  0  0  0  0  0  0  0
  -22.7750  -12.3720   22.3690 H   0  0  0  0  0  0  0  0  0  0  0  0
  -21.4830  -13.5000   22.0740 H   0  0  0  0  0  0  0  0  0  0  0  0
  -25.8690  -15.5590   20.4010 N   0  0  0  0  0  0  0  0  0  0  0  0
  -25.0900  -16.2060   20.4650 H   0  0  0  0  0  0  0  0  0  0  0  0
  -26.7200  -15.9990   20.0770 H   0  0  0  0  0  0  0  0  0  0  0  0
  -28.2600  -25.0440   19.6990 C   0  0  0  0  0  2  0  0  0  0  0  0
  -28.6320  -26.5260   19.9530 O   0  0  0  0  0  0  0  0  0  0  0  0
  -24.8810  -31.8280   23.4110 C   0  0  0  0  0  0  0  0  0  0  0  0
  -27.5740  -27.5070   19.9500 C   0  0  0  0  0  0  0  0  0  0  0  0
  -23.7210  -30.5830   21.6310 C   0  0  0  0  0  3  0  0  0  0  0  0
  -25.2110  -29.1960   20.0680 C   0  0  0  0  0  0  0  0  0  0  0  0
  -26.2710  -30.9140   21.5200 C   0  0  0  0  0  2  0  0  0  0  0  0
  -26.3760  -29.5980   20.7340 C   0  0  0  0  0  0  0  0  0  0  0  0
  -27.5580  -28.7690   20.6660 C   0  0  0  0  0  3  0  0  0  0  0  0
  -26.3830  -27.2230   19.2390 C   0  0  0  0  0  3  0  0  0  0  0  0
  -25.2270  -28.0240   19.3060 C   0  0  0  0  0  3  0  0  0  0  0  0
  -23.9640  -30.0560   20.1930 C   0  0  0  0  0  2  0  0  0  0  0  0
  -24.9760  -31.1230   22.2440 N   0  0  0  0  0  0  0  0  0  0  0  0
  -23.7860  -32.0390   23.9540 O   0  0  0  0  0  0  0  0  0  0  0  0
  -23.0550  -29.4700   22.4790 C   0  0  0  0  0  0  0  0  0  0  0  0
  -21.7400  -29.2630   22.2960 N   0  0  0  0  0  0  0  0  0  0  0  0
  -23.7260  -28.7990   23.2670 O   0  0  0  0  0  0  0  0  0  0  0  0
  -21.2530  -29.8580   21.6400 H   0  0  0  0  0  0  0  0  0  0  0  0
  -18.3990  -27.8870   22.5650 C   0  0  0  0  0  0  0  0  0  0  0  0
  -20.9310  -28.2360   22.9580 C   0  0  0  0  0  3  0  0  0  0  0  0
  -21.1190  -26.8570   22.2860 C   0  0  0  0  0  2  0  0  0  0  0  0
  -20.0740  -26.5650   21.2040 C   0  0  0  0  0  2  0  0  0  0  0  0
  -18.6620  -26.6010   21.7970 C   0  0  0  0  0  2  0  0  0  0  0  0
  -19.4650  -28.6620   23.0970 C   0  0  0  0  0  0  0  0  0  0  0  0
  -19.1640  -29.8630   23.7750 C   0  0  0  0  0  3  0  0  0  0  0  0
  -17.8310  -30.2920   23.9220 C   0  0  0  0  0  3  0  0  0  0  0  0
  -16.7810  -29.5140   23.4060 C   0  0  0  0  0  3  0  0  0  0  0  0
  -17.0650  -28.3130   22.7340 C   0  0  0  0  0  3  0  0  0  0  0  0
  -26.1430  -32.4220   24.1080 C   0  0  0  0  0  3  0  0  0  0  0  0
  -26.6290  -31.5660   25.3410 C   0  0  1  0  0  0  0  0  0  0  0  0
  -25.5110  -31.2550   26.3630 C   0  0  0  0  0  1  0  0  0  0  0  0
  -27.2260  -30.2180   24.8740 C   0  0  0  0  0  1  0  0  0  0  0  0
  -27.7610  -32.3140   26.0840 C   0  0  0  0  0  1  0  0  0  0  0  0
  -25.8150  -33.7920   24.5320 N   0  0  0  0  0  0  0  0  0  0  0  0
  -26.1310  -34.9000   23.8480 C   0  0  0  0  0  0  0  0  0  0  0  0
  -26.7950  -34.8750   22.8080 O   0  0  0  0  0  0  0  0  0  0  0  0
  -25.2230  -33.8830   25.3450 H   0  0  0  0  0  0  0  0  0  0  0  0
  -24.3720  -36.6890   23.6420 C   0  0  0  0  0  1  0  0  0  0  0  0
  -25.6320  -36.2490   24.4030 C   0  0  0  0  0  3  0  0  0  0  0  0
  -27.7640  -37.1170   25.2610 C   0  0  0  0  0  1  0  0  0  0  0  0
  -26.6480  -37.3230   24.3420 N   0  0  0  0  0  0  0  0  0  0  0  0
  -26.2300  -38.2260   24.5490 H   0  0  0  0  0  0  0  0  0  0  0  0
  1  2  2  0
  2  8  1  0
  2  3  1  0
  3  5  1  0
  4  7  1  0
  6  1  1  0
  6  4  2  0
  7  3  2  0
  8  9  2  0
  9 18  1  0
 10 18  1  0
 11 16  1  0
 12 13  1  0
 12 11  1  0
 14 13  1  0
 14 23  1  0
 14 15  1  0
 16 10  1  0
 16 15  1  0
 17 10  2  0
 18 19  1  0
 20 21  2  0
 21 40  1  0
 22 21  1  0
 22 25  1  0
 23 20  1  0
 23 24  1  0
 24 22  2  0
 25 26  1  0
 26 27  2  0
 28 31  1  0
 28 27  1  0
 29 28  2  0
 30 29  1  0
 30 25  2  0
 31 32  1  0
 32 37  2  0
 32 33  1  0
 33 34  2  0
 34 35  1  0
 35 39  1  0
 36 35  2  0
 37 36  1  0
 38 37  1  0
 40 41  1  0
 41 44  1  0
 41 43  1  0
 42 40  2  0
 45 46  1  0
 45 20  1  0
 47 45  1  0
 48  4  1  0
 48 49  1  0
 50 61  2  0
 51 49  1  0
 51 56  1  0
 52 60  1  0
 52 62  1  0
 53 59  1  0
 53 55  1  0
 54 60  1  0
 55 54  1  0
 56 55  2  0
 57 58  1  0
 57 51  2  0
 58 53  2  0
 59 52  1  0
 60 50  1  0
 62 64  2  0
 63 62  1  0
 65 63  1  0
 66 75  2  0
 66 71  1  0
 67 63  1  0
 67 71  1  0
 68 67  1  0
 69 70  1  0
 69 68  1  0
 70 66  1  0
 71 72  2  0
 72 73  1  0
 74 73  2  0
 75 74  1  0
 76 50  1  0
 76 81  1  0
 76 77  1  0
 77 80  1  1
 77 78  1  0
 79 77  1  0
 81 84  1  0
 82 86  1  0
 82 81  1  0
 83 82  2  0
 86 85  1  0
 88 86  1  0
 88 89  1  0
 88 87  1  0
M  ISO  4  10 100  18 100  48 101  49 101
M  END
>  <TORSDO>  (3) 
F 19

>  <SCORE>  (3) 
-12.609

>  <name>  (3) 
2

>  <ligand_id>  (3) 
2

>  <original_smiles>  (3) 
[H]c1nc(C([H])([H])Oc2c([H])c([H])c3c(c2[H])C([H])([H])N(C(=O)C([H])(N([H])C(=O)C([H])(N([H])C([H])([H])[H])C([H])([H])[H])C(C([H])([H])[H])(C([H])([H])[H])C([H])([H])[H])C([H])(C(=O)N([H])C2([H])c4c([H])c([H])c([H])c([H])c4C([H])([H])C([H])([H])C2([H])[H])C3([H])[H])nc(C([H])([H])[H])c1C([H])([H])C([H])([H])N([H])C(=O)N1C([H])([H])C([H])([H])C([H])([H])C([H])(n2nc(-c3c([H])c([H])c(Oc4c([H])c([H])c(F)c([H])c4F)c([H])c3[H])c(C(=O)N([H])[H])c2N([H])[H])C1([H])[H]

>  <smiles>  (3) 
[H]c1nc(C([H])([H])Oc2c([H])c([H])c3c(c2[H])C([H])([H])N(C(=O)C([H])(N([H])C(=O)C([H])(N([H])C([H])([H])[H])C([H])([H])[H])C(C([H])([H])[H])(C([H])([H])[H])C([H])([H])[H])C([H])(C(=O)N([H])C2([H])c4c([H])c([H])c([H])c([H])c4C([H])([H])C([H])([H])C2([H])[H])C3([H])[H])nc(C([H])([H])[H])c1C([H])([H])C([H])([H])N([H])C(=O)N1C([H])([H])C([H])([H])C([H])([H])C([H])(n2nc(-c3c([H])c([H])c(Oc4c([H])c([H])c(F)c([H])c4F)c([H])c3[H])c(C(=O)N([H])[H])c2N([H])[H])C1([H])[H]

$$$$
3:0:0
     RDKit          3D

 94102  0  0  1  0  0  0  0  0999 V2000
  -30.6740  -23.4390   21.3640 C   0  0  0  0  0  3  0  0  0  0  0  0
  -30.6500  -22.2280   22.0700 C   0  0  0  0  0  0  0  0  0  0  0  0
  -29.8230  -23.5590   20.2540 C   0  0  0  0  0  0  0  0  0  0  0  0
  -29.0190  -21.4380   20.6690 C   0  0  0  0  0  0  0  0  0  0  0  0
  -29.8010  -21.2490   21.7270 N   0  0  0  0  0  0  0  0  0  0  0  0
  -29.0060  -22.5340   19.9070 N   0  0  0  0  0  0  0  0  0  0  0  0
  -31.7200  -21.8680   23.0900 C   0  0  0  0  0  2  0  0  0  0  0  0
  -32.3730  -21.1050   25.4290 C   0  0  0  0  0  1  0  0  0  0  0  0
  -31.2130  -21.5170   24.5010 C   0  0  0  0  0  2  0  0  0  0  0  0
  -29.9740  -24.7190   19.2680 C   0  0  0  0  0  2  0  0  0  0  0  0
  -28.7750  -25.6800   19.0890 C   0  0  0  0  0  2  0  0  0  0  0  0
  -28.6690  -26.8170   19.9780 O   0  0  0  0  0  0  0  0  0  0  0  0
  -24.6360  -31.8180   23.1450 C   0  0  0  0  0  0  0  0  0  0  0  0
  -27.4700  -27.5250   19.9700 C   0  0  0  0  0  0  0  0  0  0  0  0
  -23.5050  -30.4340   21.4420 C   0  0  0  0  0  3  0  0  0  0  0  0
  -25.0320  -28.9890   20.0000 C   0  0  0  0  0  0  0  0  0  0  0  0
  -26.0310  -30.8570   21.3150 C   0  0  0  0  0  2  0  0  0  0  0  0
  -26.1670  -29.5100   20.6320 C   0  0  0  0  0  0  0  0  0  0  0  0
  -27.3850  -28.7830   20.6190 C   0  0  0  0  0  3  0  0  0  0  0  0
  -26.3010  -27.0280   19.3400 C   0  0  0  0  0  3  0  0  0  0  0  0
  -25.0930  -27.7460   19.3580 C   0  0  0  0  0  3  0  0  0  0  0  0
  -23.7660  -29.8150   20.0450 C   0  0  0  0  0  2  0  0  0  0  0  0
  -24.7390  -31.0510   22.0240 N   0  0  0  0  0  0  0  0  0  0  0  0
  -23.5360  -32.0420   23.6700 O   0  0  0  0  0  0  0  0  0  0  0  0
  -22.8660  -29.3600   22.3530 C   0  0  0  0  0  0  0  0  0  0  0  0
  -21.5450  -29.1660   22.2170 N   0  0  0  0  0  0  0  0  0  0  0  0
  -23.5570  -28.7120   23.1440 O   0  0  0  0  0  0  0  0  0  0  0  0
  -21.0480  -29.7450   21.5550 H   0  0  0  0  0  0  0  0  0  0  0  0
  -18.1810  -27.9320   22.6900 C   0  0  0  0  0  0  0  0  0  0  0  0
  -20.7400  -28.1870   22.9480 C   0  0  0  0  0  3  0  0  0  0  0  0
  -20.8420  -26.7870   22.3010 C   0  0  0  0  0  2  0  0  0  0  0  0
  -19.7300  -26.5110   21.2830 C   0  0  0  0  0  2  0  0  0  0  0  0
  -18.3560  -26.6190   21.9480 C   0  0  0  0  0  2  0  0  0  0  0  0
  -19.3010  -28.6760   23.1490 C   0  0  0  0  0  0  0  0  0  0  0  0
  -19.0850  -29.9060   23.8040 C   0  0  0  0  0  3  0  0  0  0  0  0
  -17.7810  -30.3940   24.0090 C   0  0  0  0  0  3  0  0  0  0  0  0
  -16.6750  -29.6490   23.5640 C   0  0  0  0  0  3  0  0  0  0  0  0
  -16.8760  -28.4190   22.9120 C   0  0  0  0  0  3  0  0  0  0  0  0
  -25.8880  -32.4670   23.8090 C   0  0  0  0  0  3  0  0  0  0  0  0
  -25.5370  -33.8570   24.1370 N   0  0  0  0  0  0  0  0  0  0  0  0
  -25.8710  -34.9210   23.3950 C   0  0  0  0  0  0  0  0  0  0  0  0
  -26.5760  -34.8400   22.3860 O   0  0  0  0  0  0  0  0  0  0  0  0
  -24.9080  -33.9910   24.9150 H   0  0  0  0  0  0  0  0  0  0  0  0
  -24.1190  -36.6830   22.9950 C   0  0  0  0  0  1  0  0  0  0  0  0
  -25.3380  -36.2950   23.8470 C   0  0  0  0  0  3  0  0  0  0  0  0
  -27.4310  -37.2080   24.7530 C   0  0  0  0  0  1  0  0  0  0  0  0
  -26.3510  -37.3730   23.7850 N   0  0  0  0  0  0  0  0  0  0  0  0
  -25.9190  -38.2790   23.9440 H   0  0  0  0  0  0  0  0  0  0  0  0
  -26.3830  -31.6960   25.0920 C   0  0  1  0  0  0  0  0  0  0  0  0
  -25.2660  -31.4270   26.1250 C   0  0  0  0  0  1  0  0  0  0  0  0
  -27.0050  -30.3320   24.7070 C   0  0  0  0  0  1  0  0  0  0  0  0
  -27.4980  -32.5080   25.7930 C   0  0  0  0  0  1  0  0  0  0  0  0
  -28.2480  -20.2030   20.2040 C   0  0  0  0  0  2  0  0  0  0  0  0
  -29.1900  -19.1570   19.5580 C   0  0  0  0  0  2  0  0  0  0  0  0
  -28.9440  -17.6850   19.9640 C   0  0  0  0  0  2  0  0  0  0  0  0
  -30.2640  -16.9450   20.2770 C   0  0  0  0  0  2  0  0  0  0  0  0
  -30.7470  -14.5100   20.1950 C   0  0  0  0  0  0  0  0  0  0  0  0
  -30.4720  -12.2300   19.3210 C   0  0  0  0  0  2  0  0  0  0  0  0
  -29.5310  -12.3140   18.1030 C   0  0  0  0  0  2  0  0  0  0  0  0
  -28.0550  -12.2250   18.5420 C   0  0  0  0  0  2  0  0  0  0  0  0
  -27.7160  -13.1850   19.7180 C   0  0  0  0  0  3  0  0  0  0  0  0
  -28.7790  -13.0760   20.8380 C   0  0  0  0  0  2  0  0  0  0  0  0
  -30.1020  -13.3180   20.2340 N   0  0  0  0  0  0  0  0  0  0  0  0
  -31.8360  -14.6750   19.6330 O   0  0  0  0  0  0  0  0  0  0  0  0
  -30.0380  -15.5480   20.6570 N   0  0  0  0  0  0  0  0  0  0  0  0
  -29.2040  -15.3240   21.1840 H   0  0  0  0  0  0  0  0  0  0  0  0
  -25.3590  -13.8610   20.5120 C   0  0  0  0  0  0  0  0  0  0  0  0
  -24.2770  -13.1190   20.8970 C   0  0  0  0  0  0  0  0  0  0  0  0
  -24.6850  -11.7530   20.8170 C   0  0  0  0  0  0  0  0  0  0  0  0
  -26.3660  -12.9500   20.2290 N   0  0  0  0  0  0  0  0  0  0  0  0
  -25.9610  -11.6760   20.4610 N   0  0  0  0  0  0  0  0  0  0  0  0
  -23.9160  -10.5160   21.0040 C   0  0  0  0  0  0  0  0  0  0  0  0
  -24.3350   -9.5110   21.9040 C   0  0  0  0  0  3  0  0  0  0  0  0
  -23.5700   -8.3390   22.0790 C   0  0  0  0  0  3  0  0  0  0  0  0
  -22.3690   -8.1600   21.3500 C   0  0  0  0  0  0  0  0  0  0  0  0
  -21.9670   -9.1520   20.4380 C   0  0  0  0  0  3  0  0  0  0  0  0
  -22.7340  -10.3160   20.2630 C   0  0  0  0  0  3  0  0  0  0  0  0
  -21.5760   -7.0430   21.4380 O   0  0  0  0  0  0  0  0  0  0  0  0
  -21.5300   -6.2790   22.5780 C   0  0  0  0  0  0  0  0  0  0  0  0
  -21.1580   -6.8240   23.8260 C   0  0  0  0  0  3  0  0  0  0  0  0
  -21.0540   -5.9870   24.9560 C   0  0  0  0  0  3  0  0  0  0  0  0
  -21.3120   -4.6070   24.8410 C   0  0  0  0  0  0  0  0  0  0  0  0
  -21.6750   -4.0630   23.5950 C   0  0  0  0  0  3  0  0  0  0  0  0
  -21.7800   -4.8960   22.4680 C   0  0  0  0  0  0  0  0  0  0  0  0
  -22.1100   -4.3630   21.2650 F   0  0  0  0  0  0  0  0  0  0  0  0
  -21.2070   -3.8000   25.9230 F   0  0  0  0  0  0  0  0  0  0  0  0
  -22.9100  -13.6380   21.2410 C   0  0  0  0  0  0  0  0  0  0  0  0
  -22.1950  -12.9470   22.1220 N   0  0  0  0  0  0  0  0  0  0  0  0
  -22.4890  -14.6900   20.7620 O   0  0  0  0  0  0  0  0  0  0  0  0
  -22.5540  -12.0970   22.5270 H   0  0  0  0  0  0  0  0  0  0  0  0
  -21.2760  -13.2720   22.3900 H   0  0  0  0  0  0  0  0  0  0  0  0
  -25.5670  -15.2300   20.3660 N   0  0  0  0  0  0  0  0  0  0  0  0
  -24.8230  -15.9020   20.5180 H   0  0  0  0  0  0  0  0  0  0  0  0
  -26.4270  -15.6520   20.0430 H   0  0  0  0  0  0  0  0  0  0  0  0
  1  2  2  0
  2  7  1  0
  3  1  1  0
  4  5  2  0
  5  2  1  0
  6  3  2  0
  6  4  1  0
  7  9  1  0
  9  8  1  0
 10  3  1  0
 11 10  1  0
 11 12  1  0
 13 24  2  0
 14 12  1  0
 14 19  1  0
 15 23  1  0
 15 25  1  0
 16 22  1  0
 16 18  1  0
 17 23  1  0
 18 17  1  0
 19 18  2  0
 20 21  1  0
 20 14  2  0
 21 16  2  0
 22 15  1  0
 23 13  1  0
 25 27  2  0
 26 25  1  0
 28 26  1  0
 29 38  2  0
 29 34  1  0
 30 26  1  0
 30 34  1  0
 31 30  1  0
 32 33  1  0
 32 31  1  0
 33 29  1  0
 34 35  2  0
 35 36  1  0
 37 36  2  0
 38 37  1  0
 39 13  1  0
 39 40  1  0
 39 49  1  0
 40 43  1  0
 41 45  1  0
 41 40  1  0
 42 41  2  0
 45 44  1  0
 47 45  1  0
 47 48  1  0
 47 46  1  0
 49 52  1  1
 49 50  1  0
 51 49  1  0
 53  4  1  0
 54 55  1  0
 54 53  1  0
 55 56  1  0
 56 65  1  0
 57 63  1  0
 57 65  1  0
 58 63  1  0
 59 60  1  0
 59 58  1  0
 61 60  1  0
 61 70  1  0
 61 62  1  0
 63 62  1  0
 64 57  2  0
 65 66  1  0
 67 68  2  0
 68 87  1  0
 69 68  1  0
 69 72  1  0
 70 71  1  0
 70 67  1  0
 71 69  2  0
 72 73  1  0
 73 74  2  0
 75 78  1  0
 75 74  1  0
 76 75  2  0
 77 76  1  0
 77 72  2  0
 78 79  1  0
 79 80  1  0
 80 81  2  0
 82 81  1  0
 82 86  1  0
 83 82  2  0
 84 79  2  0
 84 83  1  0
 85 84  1  0
 87 88  1  0
 88 91  1  0
 88 90  1  0
 89 87  2  0
 92 67  1  0
 92 93  1  0
 94 92  1  0
M  ISO  4  11 101  12 101  57 100  65 100
M  END
>  <TORSDO>  (4) 
F 24

>  <SCORE>  (4) 
-10.930

>  <name>  (4) 
3

>  <ligand_id>  (4) 
3

>  <original_smiles>  (4) 
[H]c1c(C([H])([H])C([H])([H])Oc2c([H])c([H])c3c(c2[H])C([H])([H])N(C(=O)C([H])(N([H])C(=O)C([H])(N([H])C([H])([H])[H])C([H])([H])[H])C(C([H])([H])[H])(C([H])([H])[H])C([H])([H])[H])C([H])(C(=O)N([H])C2([H])c4c([H])c([H])c([H])c([H])c4C([H])([H])C([H])([H])C2([H])[H])C3([H])[H])nc(C([H])([H])C([H])([H])C([H])([H])C([H])([H])N([H])C(=O)N2C([H])([H])C([H])([H])C([H])([H])C([H])(n3nc(-c4c([H])c([H])c(Oc5c([H])c([H])c(F)c([H])c5F)c([H])c4[H])c(C(=O)N([H])[H])c3N([H])[H])C2([H])[H])nc1C([H])([H])C([H])([H])C([H])([H])[H]

>  <smiles>  (4) 
[H]c1c(C([H])([H])C([H])([H])Oc2c([H])c([H])c3c(c2[H])C([H])([H])N(C(=O)C([H])(N([H])C(=O)C([H])(N([H])C([H])([H])[H])C([H])([H])[H])C(C([H])([H])[H])(C([H])([H])[H])C([H])([H])[H])C([H])(C(=O)N([H])C2([H])c4c([H])c([H])c([H])c([H])c4C([H])([H])C([H])([H])C2([H])[H])C3([H])[H])nc(C([H])([H])C([H])([H])C([H])([H])C([H])([H])N([H])C(=O)N2C([H])([H])C([H])([H])C([H])([H])C([H])(n3nc(-c4c([H])c([H])c(Oc5c([H])c([H])c(F)c([H])c5F)c([H])c4[H])c(C(=O)N([H])[H])c3N([H])[H])C2([H])[H])nc1C([H])([H])C([H])([H])C([H])([H])[H]

$$$$
4:0:0
     RDKit          3D

 93101  0  0  1  0  0  0  0  0999 V2000
  -29.7450  -24.5190   21.0840 C   0  0  0  0  0  3  0  0  0  0  0  0
  -29.4410  -23.4520   18.9390 C   0  0  0  0  0  3  0  0  0  0  0  0
  -29.4150  -24.6270   19.7190 C   0  0  0  0  0  0  0  0  0  0  0  0
  -30.0840  -23.2550   21.6050 C   0  0  0  0  0  0  0  0  0  0  0  0
  -29.7660  -22.2220   19.5480 C   0  0  0  0  0  0  0  0  0  0  0  0
  -30.4120  -23.0790   23.0720 C   0  0  0  0  0  1  0  0  0  0  0  0
  -30.1070  -22.1330   20.8540 N   0  0  0  0  0  0  0  0  0  0  0  0
  -29.0630  -25.9740   19.0960 C   0  0  0  0  0  2  0  0  0  0  0  0
  -28.6820  -26.9560   20.0710 O   0  0  0  0  0  0  0  0  0  0  0  0
  -24.5600  -31.7880   23.2400 C   0  0  0  0  0  0  0  0  0  0  0  0
  -27.4620  -27.6030   20.0190 C   0  0  0  0  0  0  0  0  0  0  0  0
  -23.4660  -30.4670   21.4570 C   0  0  0  0  0  3  0  0  0  0  0  0
  -25.0210  -29.0510   20.0150 C   0  0  0  0  0  0  0  0  0  0  0  0
  -25.9900  -30.8860   21.4070 C   0  0  0  0  0  2  0  0  0  0  0  0
  -26.1340  -29.5590   20.6940 C   0  0  0  0  0  0  0  0  0  0  0  0
  -27.3490  -28.8390   20.6980 C   0  0  0  0  0  3  0  0  0  0  0  0
  -26.3150  -27.0990   19.3550 C   0  0  0  0  0  3  0  0  0  0  0  0
  -25.1090  -27.8210   19.3450 C   0  0  0  0  0  3  0  0  0  0  0  0
  -23.7580  -29.8790   20.0510 C   0  0  0  0  0  2  0  0  0  0  0  0
  -24.6870  -31.0600   22.0950 N   0  0  0  0  0  0  0  0  0  0  0  0
  -23.4490  -32.0020   23.7450 O   0  0  0  0  0  0  0  0  0  0  0  0
  -22.7950  -29.3730   22.3210 C   0  0  0  0  0  0  0  0  0  0  0  0
  -21.4660  -29.2260   22.1810 N   0  0  0  0  0  0  0  0  0  0  0  0
  -23.4670  -28.6630   23.0730 O   0  0  0  0  0  0  0  0  0  0  0  0
  -20.9870  -29.8550   21.5520 H   0  0  0  0  0  0  0  0  0  0  0  0
  -18.0560  -28.1420   22.6610 C   0  0  0  0  0  0  0  0  0  0  0  0
  -20.6320  -28.2370   22.8630 C   0  0  0  0  0  3  0  0  0  0  0  0
  -20.6390  -26.8860   22.1100 C   0  0  0  0  0  2  0  0  0  0  0  0
  -19.4880  -26.7480   21.1090 C   0  0  0  0  0  2  0  0  0  0  0  0
  -18.1370  -26.8800   21.8190 C   0  0  0  0  0  2  0  0  0  0  0  0
  -19.2270  -28.7880   23.1380 C   0  0  0  0  0  0  0  0  0  0  0  0
  -19.0950  -29.9790   23.8840 C   0  0  0  0  0  3  0  0  0  0  0  0
  -17.8250  -30.5190   24.1590 C   0  0  0  0  0  3  0  0  0  0  0  0
  -16.6680  -29.8620   23.7030 C   0  0  0  0  0  3  0  0  0  0  0  0
  -16.7850  -28.6770   22.9580 C   0  0  0  0  0  3  0  0  0  0  0  0
  -25.8000  -32.4050   23.9590 C   0  0  0  0  0  3  0  0  0  0  0  0
  -25.4710  -33.7950   24.3000 N   0  0  0  0  0  0  0  0  0  0  0  0
  -25.8560  -34.8650   23.5900 C   0  0  0  0  0  0  0  0  0  0  0  0
  -26.5970  -34.7830   22.6070 O   0  0  0  0  0  0  0  0  0  0  0  0
  -24.8220  -33.9320   25.0610 H   0  0  0  0  0  0  0  0  0  0  0  0
  -24.1700  -36.6760   23.1360 C   0  0  0  0  0  1  0  0  0  0  0  0
  -25.3340  -36.2420   24.0420 C   0  0  0  0  0  3  0  0  0  0  0  0
  -27.3780  -37.0990   25.0960 C   0  0  0  0  0  1  0  0  0  0  0  0
  -26.3760  -37.2920   24.0510 N   0  0  0  0  0  0  0  0  0  0  0  0
  -25.9610  -38.2110   24.1770 H   0  0  0  0  0  0  0  0  0  0  0  0
  -26.2370  -31.6040   25.2460 C   0  0  1  0  0  0  0  0  0  0  0  0
  -25.0770  -31.3300   26.2300 C   0  0  0  0  0  1  0  0  0  0  0  0
  -26.8590  -30.2440   24.8530 C   0  0  0  0  0  1  0  0  0  0  0  0
  -27.3310  -32.3870   26.0070 C   0  0  0  0  0  1  0  0  0  0  0  0
  -29.7920  -20.9300   18.7370 C   0  0  0  0  0  2  0  0  0  0  0  0
  -29.3200  -19.6670   19.4950 C   0  0  0  0  0  2  0  0  0  0  0  0
  -30.2970  -19.0680   20.5410 C   0  0  0  0  0  2  0  0  0  0  0  0
  -32.2020  -18.1440   19.2530 C   0  0  0  0  0  1  0  0  0  0  0  0
  -30.9950  -17.8370   20.0570 N   0  0  1  0  0  4  0  0  0  0  0  0
  -30.3470  -17.3950   19.4270 H   0  0  0  0  0  0  0  0  0  0  0  0
  -31.2770  -16.8170   21.1140 C   0  0  0  0  0  2  0  0  0  0  0  0
  -30.4270  -15.5260   20.9820 C   0  0  0  0  0  2  0  0  0  0  0  0
  -30.9250  -14.4430   19.9950 C   0  0  0  0  0  0  0  0  0  0  0  0
  -30.6190  -12.2100   18.9640 C   0  0  0  0  0  2  0  0  0  0  0  0
  -29.6050  -12.2470   17.8070 C   0  0  0  0  0  2  0  0  0  0  0  0
  -28.1600  -12.1150   18.3260 C   0  0  0  0  0  2  0  0  0  0  0  0
  -27.8580  -13.0800   19.5040 C   0  0  0  0  0  3  0  0  0  0  0  0
  -28.9650  -12.9870   20.5760 C   0  0  0  0  0  2  0  0  0  0  0  0
  -30.2560  -13.2630   19.9250 N   0  0  0  0  0  0  0  0  0  0  0  0
  -31.9130  -14.6740   19.2920 O   0  0  0  0  0  0  0  0  0  0  0  0
  -25.5380  -13.7460   20.4010 C   0  0  0  0  0  0  0  0  0  0  0  0
  -24.4710  -12.9980   20.8270 C   0  0  0  0  0  0  0  0  0  0  0  0
  -24.8790  -11.6340   20.7180 C   0  0  0  0  0  0  0  0  0  0  0  0
  -26.5310  -12.8380   20.0670 N   0  0  0  0  0  0  0  0  0  0  0  0
  -26.1400  -11.5600   20.3100 N   0  0  0  0  0  0  0  0  0  0  0  0
  -24.1240  -10.3900   20.9230 C   0  0  0  0  0  0  0  0  0  0  0  0
  -24.5030   -9.4500   21.9060 C   0  0  0  0  0  3  0  0  0  0  0  0
  -23.7500   -8.2710   22.0960 C   0  0  0  0  0  3  0  0  0  0  0  0
  -22.6050   -8.0240   21.3030 C   0  0  0  0  0  0  0  0  0  0  0  0
  -22.2450   -8.9540   20.3120 C   0  0  0  0  0  3  0  0  0  0  0  0
  -22.9980  -10.1250   20.1200 C   0  0  0  0  0  3  0  0  0  0  0  0
  -21.8280   -6.8950   21.4000 O   0  0  0  0  0  0  0  0  0  0  0  0
  -21.6390   -6.2520   22.5970 C   0  0  0  0  0  0  0  0  0  0  0  0
  -21.0160   -6.8880   23.6930 C   0  0  0  0  0  3  0  0  0  0  0  0
  -20.7770   -6.1680   24.8820 C   0  0  0  0  0  3  0  0  0  0  0  0
  -21.1520   -4.8150   24.9730 C   0  0  0  0  0  0  0  0  0  0  0  0
  -21.7660   -4.1790   23.8790 C   0  0  0  0  0  3  0  0  0  0  0  0
  -22.0060   -4.8960   22.6950 C   0  0  0  0  0  0  0  0  0  0  0  0
  -22.5800   -4.2710   21.6370 F   0  0  0  0  0  0  0  0  0  0  0  0
  -20.9160   -4.1210   26.1120 F   0  0  0  0  0  0  0  0  0  0  0  0
  -23.1170  -13.5140   21.2230 C   0  0  0  0  0  0  0  0  0  0  0  0
  -22.4210  -12.8000   22.1020 N   0  0  0  0  0  0  0  0  0  0  0  0
  -22.6860  -14.5800   20.7870 O   0  0  0  0  0  0  0  0  0  0  0  0
  -22.7830  -11.9370   22.4800 H   0  0  0  0  0  0  0  0  0  0  0  0
  -21.5120  -13.1250   22.4030 H   0  0  0  0  0  0  0  0  0  0  0  0
  -25.7380  -15.1150   20.2530 N   0  0  0  0  0  0  0  0  0  0  0  0
  -25.0080  -15.7930   20.4380 H   0  0  0  0  0  0  0  0  0  0  0  0
  -26.5730  -15.5290   19.8580 H   0  0  0  0  0  0  0  0  0  0  0  0
  1  4  1  0
  2  5  2  0
  2  3  1  0
  3  1  2  0
  4  6  1  0
  5  7  1  0
  7  4  2  0
  8  3  1  0
  8  9  1  0
 10 21  2  0
 11  9  1  0
 11 16  1  0
 12 20  1  0
 12 22  1  0
 13 19  1  0
 13 15  1  0
 14 20  1  0
 15 16  2  0
 15 14  1  0
 17 11  2  0
 18 17  1  0
 18 13  2  0
 19 12  1  0
 20 10  1  0
 22 24  2  0
 23 22  1  0
 25 23  1  0
 26 35  2  0
 26 31  1  0
 27 23  1  0
 27 31  1  0
 28 27  1  0
 29 30  1  0
 29 28  1  0
 30 26  1  0
 31 32  2  0
 32 33  1  0
 34 33  2  0
 35 34  1  0
 36 10  1  0
 36 37  1  0
 36 46  1  0
 37 40  1  0
 38 42  1  0
 38 37  1  0
 39 38  2  0
 42 41  1  0
 42 44  1  0
 44 45  1  0
 44 43  1  0
 46 49  1  1
 46 47  1  0
 48 46  1  0
 50 51  1  0
 50  5  1  0
 51 52  1  0
 53 54  1  0
 54 52  1  0
 54 56  1  0
 54 55  1  6
 57 56  1  0
 58 57  1  0
 59 64  1  0
 60 61  1  0
 60 59  1  0
 62 61  1  0
 62 69  1  0
 62 63  1  0
 64 58  1  0
 64 63  1  0
 65 58  2  0
 66 67  2  0
 67 86  1  0
 68 67  1  0
 68 71  1  0
 69 70  1  0
 69 66  1  0
 70 68  2  0
 71 72  1  0
 72 73  2  0
 74 77  1  0
 74 73  1  0
 75 74  2  0
 76 75  1  0
 76 71  2  0
 77 78  1  0
 78 83  2  0
 78 79  1  0
 79 80  2  0
 80 81  1  0
 81 85  1  0
 82 81  2  0
 83 82  1  0
 84 83  1  0
 86 87  1  0
 87 90  1  0
 87 89  1  0
 88 86  2  0
 91 66  1  0
 91 92  1  0
 93 91  1  0
M  ISO  4   8 101   9 101  57 100  58 100
M  END
>  <TORSDO>  (5) 
F 23

>  <SCORE>  (5) 
-12.260

>  <name>  (5) 
4

>  <ligand_id>  (5) 
4

>  <original_smiles>  (5) 
[H]c1c([H])c([H])c2c(c1[H])C([H])([H])C([H])([H])C([H])([H])C2([H])N([H])C(=O)C1([H])N(C(=O)C([H])(N([H])C(=O)C([H])(N([H])C([H])([H])[H])C([H])([H])[H])C(C([H])([H])[H])(C([H])([H])[H])C([H])([H])[H])C([H])([H])c2c([H])c(OC([H])([H])c3c([H])c(C([H])([H])[H])nc(C([H])([H])C([H])([H])C([H])([H])[N+]([H])(C([H])([H])[H])C([H])([H])C([H])([H])C(=O)N4C([H])([H])C([H])([H])C([H])([H])C([H])(n5nc(-c6c([H])c([H])c(Oc7c([H])c([H])c(F)c([H])c7F)c([H])c6[H])c(C(=O)N([H])[H])c5N([H])[H])C4([H])[H])c3[H])c([H])c([H])c2C1([H])[H]

>  <smiles>  (5) 
[H]c1c([H])c([H])c2c(c1[H])C([H])([H])C([H])([H])C([H])([H])C2([H])N([H])C(=O)C1([H])N(C(=O)C([H])(N([H])C(=O)C([H])(N([H])C([H])([H])[H])C([H])([H])[H])C(C([H])([H])[H])(C([H])([H])[H])C([H])([H])[H])C([H])([H])c2c([H])c(OC([H])([H])c3c([H])c(C([H])([H])[H])nc(C([H])([H])C([H])([H])C([H])([H])[N+]([H])(C([H])([H])[H])C([H])([H])C([H])([H])C(=O)N4C([H])([H])C([H])([H])C([H])([H])C([H])(n5nc(-c6c([H])c([H])c(Oc7c([H])c([H])c(F)c([H])c7F)c([H])c6[H])c(C(=O)N([H])[H])c5N([H])[H])C4([H])[H])c3[H])c([H])c([H])c2C1([H])[H]

$$$$
5:0:0
     RDKit          3D

 98106  0  0  1  0  0  0  0  0999 V2000
  -28.6460  -17.3400   20.1260 C   0  0  0  0  0  2  0  0  0  0  0  0
  -28.4370  -13.3150   21.7900 C   0  0  0  0  0  3  0  0  0  0  0  0
  -29.7110  -15.0440   19.1250 C   0  0  0  0  0  3  0  0  0  0  0  0
  -29.4390  -12.3730   20.8500 C   0  0  0  0  0  3  0  0  0  0  0  0
  -28.1490  -14.8540   21.3920 C   0  0  0  0  0  0  0  0  0  0  0  0
  -30.2280  -13.5260   19.1840 C   0  0  0  0  0  2  0  0  0  0  0  0
  -28.7390  -15.6870   20.1500 C   0  0  0  0  0  0  0  0  0  0  0  0
  -29.4250  -10.9590   21.5190 C   0  0  0  0  0  2  0  0  0  0  0  0
  -27.3230  -15.6270   22.4130 C   0  0  0  0  0  1  0  0  0  0  0  0
  -31.1840  -13.4150   17.9060 C   0  0  0  0  0  2  0  0  0  0  0  0
  -32.2240  -12.2700   17.7430 C   0  0  0  0  0  2  0  0  0  0  0  0
  -32.5130  -11.8090   20.2060 C   0  0  0  0  0  0  0  0  0  0  0  0
  -30.9570  -10.1530   19.0770 C   0  0  0  0  0  2  0  0  0  0  0  0
  -29.5410  -10.4790   17.9220 C   0  0  0  0  0  3  0  0  0  0  0  0
  -28.0340  -11.5150   18.1780 C   0  0  0  0  0  3  0  0  0  0  0  0
  -27.7880  -12.6150   19.7170 C   0  0  0  0  0  2  0  0  0  0  0  0
  -30.4840  -12.1080   21.4040 C   0  0  0  0  0  3  0  0  0  0  0  0
  -31.4440  -11.0500   20.4540 N   0  0  0  0  0  0  0  0  0  0  0  0
  -33.1010  -12.4830   21.0030 O   0  0  0  0  0  0  0  0  0  0  0  0
  -32.9760  -11.8820   18.9470 N   0  0  0  0  0  0  0  0  0  0  0  0
  -33.9390  -12.1830   18.9020 H   0  0  0  0  0  0  0  0  0  0  0  0
  -25.5130  -13.1050   20.3150 C   0  0  0  0  0  0  0  0  0  0  0  0
  -24.4430  -12.3740   20.6770 C   0  0  0  0  0  0  0  0  0  0  0  0
  -24.8550  -11.0110   20.8070 C   0  0  0  0  0  0  0  0  0  0  0  0
  -26.4730  -12.1910   20.1350 N   0  0  0  0  0  0  0  0  0  0  0  0
  -26.1310  -10.9160   20.5200 N   0  0  0  0  0  0  0  0  0  0  0  0
  -24.0670   -9.7960   21.0140 C   0  0  0  0  0  0  0  0  0  0  0  0
  -24.4070   -8.7900   21.9480 C   0  0  0  0  0  3  0  0  0  0  0  0
  -23.5610   -7.6710   22.1190 C   0  0  0  0  0  3  0  0  0  0  0  0
  -22.3770   -7.5560   21.3540 C   0  0  0  0  0  0  0  0  0  0  0  0
  -22.0770   -8.5350   20.3980 C   0  0  0  0  0  3  0  0  0  0  0  0
  -22.9120   -9.6430   20.2240 C   0  0  0  0  0  3  0  0  0  0  0  0
  -21.4900   -6.5160   21.4380 O   0  0  0  0  0  0  0  0  0  0  0  0
  -21.3350   -5.7980   22.5920 C   0  0  0  0  0  0  0  0  0  0  0  0
  -20.7640   -6.3630   23.7540 C   0  0  0  0  0  3  0  0  0  0  0  0
  -20.5660   -5.5660   24.9010 C   0  0  0  0  0  3  0  0  0  0  0  0
  -20.9210   -4.2020   24.8780 C   0  0  0  0  0  0  0  0  0  0  0  0
  -21.4810   -3.6400   23.7180 C   0  0  0  0  0  3  0  0  0  0  0  0
  -21.6840   -4.4360   22.5790 C   0  0  0  0  0  0  0  0  0  0  0  0
  -22.2090   -3.8880   21.4580 F   0  0  0  0  0  0  0  0  0  0  0  0
  -20.7210   -3.4300   25.9720 F   0  0  0  0  0  0  0  0  0  0  0  0
  -23.0890  -12.9510   20.7270 C   0  0  0  0  0  0  0  0  0  0  0  0
  -22.2410  -12.4250   21.5970 N   0  0  0  0  0  0  0  0  0  0  0  0
  -22.7990  -13.9170   20.0220 O   0  0  0  0  0  0  0  0  0  0  0  0
  -22.5050  -11.6560   22.1900 H   0  0  0  0  0  0  0  0  0  0  0  0
  -21.3150  -12.8220   21.6990 H   0  0  0  0  0  0  0  0  0  0  0  0
  -25.7550  -14.4510   20.0500 N   0  0  0  0  0  0  0  0  0  0  0  0
  -25.0610  -15.1540   20.2680 H   0  0  0  0  0  0  0  0  0  0  0  0
  -26.7140  -14.7790   20.0760 H   0  0  0  0  0  0  0  0  0  0  0  0
  -28.7580  -18.0260   17.5100 C   0  0  0  0  0  1  0  0  0  0  0  0
  -28.2600  -18.4450   18.9120 C   0  0  0  0  0  3  0  0  0  0  0  0
  -29.7840  -20.3610   19.6070 C   0  0  0  0  0  1  0  0  0  0  0  0
  -28.4220  -20.0130   19.1560 N   0  0  1  0  0  4  0  0  0  0  0  0
  -27.8800  -20.1260   20.0000 H   0  0  0  0  0  0  0  0  0  0  0  0
  -27.7730  -21.1420   18.2540 C   0  0  0  0  0  2  0  0  0  0  0  0
  -27.7910  -22.7900   18.6350 C   0  0  0  0  0  3  0  0  0  0  0  0
  -27.3450  -24.0060   17.5660 C   0  0  0  0  0  3  0  0  0  0  0  0
  -27.5930  -25.5370   17.5980 O   0  0  0  0  0  0  0  0  0  0  0  0
  -25.1170  -30.4850   22.3760 C   0  0  0  0  0  0  0  0  0  0  0  0
  -26.6370  -26.5460   17.9220 C   0  0  0  0  0  0  0  0  0  0  0  0
  -23.5170  -29.5490   20.7600 C   0  0  0  0  0  3  0  0  0  0  0  0
  -24.5200  -28.3250   18.7390 C   0  0  0  0  0  0  0  0  0  0  0  0
  -25.9960  -29.7780   20.1230 C   0  0  0  0  0  2  0  0  0  0  0  0
  -25.8260  -28.5800   19.1740 C   0  0  0  0  0  0  0  0  0  0  0  0
  -26.8870  -27.7060   18.7530 C   0  0  0  0  0  3  0  0  0  0  0  0
  -25.3170  -26.3910   17.4730 C   0  0  0  0  0  3  0  0  0  0  0  0
  -24.2760  -27.2490   17.8710 C   0  0  0  0  0  3  0  0  0  0  0  0
  -23.4010  -29.2160   19.2480 C   0  0  0  0  0  2  0  0  0  0  0  0
  -24.9110  -29.9450   21.1390 N   0  0  0  0  0  0  0  0  0  0  0  0
  -24.1800  -30.6620   23.1740 O   0  0  0  0  0  0  0  0  0  0  0  0
  -22.9700  -28.3550   21.5850 C   0  0  0  0  0  0  0  0  0  0  0  0
  -21.6390  -28.1740   21.5880 N   0  0  0  0  0  0  0  0  0  0  0  0
  -23.7450  -27.6030   22.1840 O   0  0  0  0  0  0  0  0  0  0  0  0
  -21.0650  -28.8360   21.0870 H   0  0  0  0  0  0  0  0  0  0  0  0
  -18.3920  -26.6480   22.0470 C   0  0  0  0  0  0  0  0  0  0  0  0
  -20.9290  -27.0850   22.2700 C   0  0  0  0  0  3  0  0  0  0  0  0
  -21.1220  -25.7460   21.5220 C   0  0  0  0  0  2  0  0  0  0  0  0
  -20.0080  -25.4540   20.5120 C   0  0  0  0  0  2  0  0  0  0  0  0
  -18.6460  -25.4070   21.2080 C   0  0  0  0  0  2  0  0  0  0  0  0
  -19.4630  -27.4450   22.5320 C   0  0  0  0  0  0  0  0  0  0  0  0
  -19.1640  -28.6060   23.2770 C   0  0  0  0  0  3  0  0  0  0  0  0
  -17.8300  -28.9700   23.5420 C   0  0  0  0  0  3  0  0  0  0  0  0
  -16.7750  -28.1710   23.0690 C   0  0  0  0  0  3  0  0  0  0  0  0
  -17.0570  -27.0110   22.3250 C   0  0  0  0  0  3  0  0  0  0  0  0
  -26.5400  -30.9190   22.8440 C   0  0  0  0  0  3  0  0  0  0  0  0
  -26.3940  -32.1680   23.6090 N   0  0  0  0  0  0  0  0  0  0  0  0
  -26.8600  -33.3600   23.2150 C   0  0  0  0  0  0  0  0  0  0  0  0
  -27.5230  -33.5110   22.1870 O   0  0  0  0  0  0  0  0  0  0  0  0
  -25.8120  -32.1310   24.4320 H   0  0  0  0  0  0  0  0  0  0  0  0
  -25.4990  -35.4690   23.4130 C   0  0  0  0  0  1  0  0  0  0  0  0
  -26.5390  -34.5770   24.1070 C   0  0  0  0  0  3  0  0  0  0  0  0
  -28.6400  -34.7080   25.3730 C   0  0  0  0  0  1  0  0  0  0  0  0
  -27.7310  -35.3850   24.4510 N   0  0  0  0  0  0  0  0  0  0  0  0
  -27.4520  -36.2660   24.8740 H   0  0  0  0  0  0  0  0  0  0  0  0
  -27.2670  -29.8240   23.7170 C   0  0  1  0  0  0  0  0  0  0  0  0
  -26.4130  -29.3060   24.8980 C   0  0  0  0  0  1  0  0  0  0  0  0
  -27.6650  -28.6050   22.8530 C   0  0  0  0  0  1  0  0  0  0  0  0
  -28.5810  -30.4030   24.2930 C   0  0  0  0  0  1  0  0  0  0  0  0
  1  7  1  0
  3  6  1  0
  3  7  2  0
  4 17  1  0
  4  8  1  0
  4  2  1  0
  5  2  2  0
  5  9  1  0
  7  5  1  0
 10  6  1  0
 11 10  1  0
 11 20  1  0
 12 18  1  0
 12 19  2  0
 13 18  1  0
 14 15  2  0
 14 13  1  0
 15 16  1  0
 16 25  1  0
 17  8  1  0
 18 17  1  0
 20 12  1  0
 21 20  1  0
 22 23  2  0
 23 42  1  0
 23 24  1  0
 24 27  1  0
 25 22  1  0
 25 26  1  0
 26 24  2  0
 27 28  1  0
 28 29  2  0
 30 33  1  0
 30 29  1  0
 31 30  2  0
 32 31  1  0
 32 27  2  0
 33 34  1  0
 34 35  1  0
 35 36  2  0
 37 36  1  0
 37 41  1  0
 38 37  2  0
 39 34  2  0
 39 38  1  0
 40 39  1  0
 42 43  1  0
 43 46  1  0
 43 45  1  0
 44 42  2  0
 47 49  1  0
 47 48  1  0
 47 22  1  0
 51 50  1  0
 51 53  1  0
 51  1  1  0
 53 52  1  0
 53 54  1  1
 55 56  1  0
 55 53  1  0
 57 58  1  0
 57 56  2  0
 58 60  1  0
 59 70  2  0
 60 65  1  0
 61 69  1  0
 61 71  1  0
 62 64  1  0
 62 68  1  0
 63 69  1  0
 64 63  1  0
 65 64  2  0
 66 67  1  0
 66 60  2  0
 67 62  2  0
 68 61  1  0
 69 59  1  0
 71 72  1  0
 71 73  2  0
 74 72  1  0
 75 84  2  0
 75 80  1  0
 76 72  1  0
 76 80  1  0
 77 76  1  0
 78 79  1  0
 78 77  1  0
 79 75  1  0
 80 81  2  0
 81 82  1  0
 83 82  2  0
 84 83  1  0
 85 59  1  0
 85 86  1  0
 85 95  1  0
 86 89  1  0
 87 86  1  0
 87 91  1  0
 88 87  2  0
 91 90  1  0
 91 93  1  0
 93 94  1  0
 93 92  1  0
 95 98  1  1
 95 96  1  0
 97 95  1  0
M  ISO  4  12 100  20 100  57 101  58 101
M  END
>  <TORSDO>  (6) 
F 24

>  <SCORE>  (6) 
-3.295

>  <name>  (6) 
5

>  <ligand_id>  (6) 
5

>  <original_smiles>  (6) 
[H]c1c([H])c([H])c2c(c1[H])C([H])([H])C([H])([H])C([H])([H])C2([H])N([H])C(=O)C1([H])N(C(=O)C([H])(N([H])C(=O)C([H])(N([H])C([H])([H])[H])C([H])([H])[H])C(C([H])([H])[H])(C([H])([H])[H])C([H])([H])[H])C([H])([H])c2c([H])c(OC([H])([H])C([H])([H])C([H])([H])[N+]([H])(C([H])([H])[H])C([H])(C([H])([H])[H])C([H])([H])c3c([H])c(C([H])([H])C([H])([H])N([H])C(=O)N4C([H])([H])C([H])([H])C([H])([H])C([H])(n5nc(-c6c([H])c([H])c(Oc7c([H])c([H])c(F)c([H])c7F)c([H])c6[H])c(C(=O)N([H])[H])c5N([H])[H])C4([H])[H])c(C([H])([H])[H])c([H])c3C([H])([H])[H])c([H])c([H])c2C1([H])[H]

>  <smiles>  (6) 
[H]c1c([H])c([H])c2c(c1[H])C([H])([H])C([H])([H])C([H])([H])C2([H])N([H])C(=O)C1([H])N(C(=O)C([H])(N([H])C(=O)C([H])(N([H])C([H])([H])[H])C([H])([H])[H])C(C([H])([H])[H])(C([H])([H])[H])C([H])([H])[H])C([H])([H])c2c([H])c(OC([H])([H])C([H])([H])C([H])([H])[N+]([H])(C([H])([H])[H])C([H])(C([H])([H])[H])C([H])([H])c3c([H])c(C([H])([H])C([H])([H])N([H])C(=O)N4C([H])([H])C([H])([H])C([H])([H])C([H])(n5nc(-c6c([H])c([H])c(Oc7c([H])c([H])c(F)c([H])c7F)c([H])c6[H])c(C(=O)N([H])[H])c5N([H])[H])C4([H])[H])c(C([H])([H])[H])c([H])c3C([H])([H])[H])c([H])c([H])c2C1([H])[H]

$$$$
6:0:0
     RDKit          3D

 90 98  0  0  1  0  0  0  0  0999 V2000
  -30.8110  -21.4030   19.9030 C   0  0  0  0  0  2  0  0  0  0  0  0
  -31.0100  -20.0600   19.1590 C   0  0  0  0  0  2  0  0  0  0  0  0
  -30.9350  -18.8300   20.0240 C   0  0  0  0  0  0  0  0  0  0  0  0
  -30.0090  -17.8200   20.0330 C   0  0  0  0  0  0  0  0  0  0  0  0
  -28.7350  -17.6290   19.2740 C   0  0  0  0  0  1  0  0  0  0  0  0
  -31.9480  -18.5050   20.9260 N   0  0  0  0  0  0  0  0  0  0  0  0
  -31.6940  -17.3530   21.4670 N   0  0  0  0  0  0  0  0  0  0  0  0
  -30.5400  -16.8950   20.9230 N   0  0  0  0  0  0  0  0  0  0  0  0
  -30.0410  -15.5720   21.2970 C   0  0  0  0  0  2  0  0  0  0  0  0
  -30.6450  -14.4370   20.4350 C   0  0  0  0  0  0  0  0  0  0  0  0
  -30.2910  -12.3340   19.1830 C   0  0  0  0  0  2  0  0  0  0  0  0
  -29.3140  -12.5810   18.0190 C   0  0  0  0  0  2  0  0  0  0  0  0
  -27.8540  -12.4390   18.4890 C   0  0  0  0  0  2  0  0  0  0  0  0
  -27.5630  -13.2430   19.7830 C   0  0  0  0  0  3  0  0  0  0  0  0
  -28.6450  -12.9690   20.8520 C   0  0  0  0  0  2  0  0  0  0  0  0
  -29.9560  -13.2790   20.2610 N   0  0  0  0  0  0  0  0  0  0  0  0
  -31.7250  -14.6360   19.8670 O   0  0  0  0  0  0  0  0  0  0  0  0
  -25.1770  -13.8500   20.5380 C   0  0  0  0  0  0  0  0  0  0  0  0
  -24.1160  -13.0780   20.9240 C   0  0  0  0  0  0  0  0  0  0  0  0
  -24.5770  -11.7250   20.8810 C   0  0  0  0  0  0  0  0  0  0  0  0
  -26.2190  -12.9710   20.2870 N   0  0  0  0  0  0  0  0  0  0  0  0
  -25.8600  -11.6870   20.5480 N   0  0  0  0  0  0  0  0  0  0  0  0
  -23.8550  -10.4620   21.0790 C   0  0  0  0  0  0  0  0  0  0  0  0
  -24.3180   -9.4780   21.9810 C   0  0  0  0  0  3  0  0  0  0  0  0
  -23.5940   -8.2810   22.1660 C   0  0  0  0  0  3  0  0  0  0  0  0
  -22.3940   -8.0600   21.4500 C   0  0  0  0  0  0  0  0  0  0  0  0
  -21.9510   -9.0310   20.5350 C   0  0  0  0  0  3  0  0  0  0  0  0
  -22.6770  -10.2200   20.3470 C   0  0  0  0  0  3  0  0  0  0  0  0
  -21.6380   -6.9170   21.5500 O   0  0  0  0  0  0  0  0  0  0  0  0
  -21.6460   -6.1450   22.6840 C   0  0  0  0  0  0  0  0  0  0  0  0
  -21.3070   -6.6750   23.9480 C   0  0  0  0  0  3  0  0  0  0  0  0
  -21.2630   -5.8310   25.0760 C   0  0  0  0  0  3  0  0  0  0  0  0
  -21.5460   -4.4590   24.9400 C   0  0  0  0  0  0  0  0  0  0  0  0
  -21.8790   -3.9280   23.6810 C   0  0  0  0  0  3  0  0  0  0  0  0
  -21.9250   -4.7700   22.5560 C   0  0  0  0  0  0  0  0  0  0  0  0
  -22.2260   -4.2500   21.3410 F   0  0  0  0  0  0  0  0  0  0  0  0
  -21.4940   -3.6470   26.0210 F   0  0  0  0  0  0  0  0  0  0  0  0
  -22.7230  -13.5530   21.2270 C   0  0  0  0  0  0  0  0  0  0  0  0
  -22.0110  -12.8510   22.1010 N   0  0  0  0  0  0  0  0  0  0  0  0
  -22.2750  -14.5820   20.7210 O   0  0  0  0  0  0  0  0  0  0  0  0
  -22.3850  -12.0140   22.5240 H   0  0  0  0  0  0  0  0  0  0  0  0
  -21.0810  -13.1530   22.3530 H   0  0  0  0  0  0  0  0  0  0  0  0
  -25.3380  -15.2200   20.3600 N   0  0  0  0  0  0  0  0  0  0  0  0
  -24.5700  -15.8740   20.4740 H   0  0  0  0  0  0  0  0  0  0  0  0
  -26.1810  -15.6560   20.0130 H   0  0  0  0  0  0  0  0  0  0  0  0
  -29.5600  -22.1820   19.4430 C   0  0  0  0  0  2  0  0  0  0  0  0
  -29.5820  -23.6800   19.8230 C   0  0  0  0  0  2  0  0  0  0  0  0
  -28.4960  -24.4920   19.0820 C   0  0  0  0  0  2  0  0  0  0  0  0
  -28.7630  -26.0120   18.9790 C   0  0  0  0  0  2  0  0  0  0  0  0
  -28.4290  -26.7640   20.1490 O   0  0  0  0  0  0  0  0  0  0  0  0
  -24.5910  -31.9000   23.2430 C   0  0  0  0  0  0  0  0  0  0  0  0
  -27.2380  -27.4630   20.1490 C   0  0  0  0  0  0  0  0  0  0  0  0
  -23.3790  -30.4960   21.6060 C   0  0  0  0  0  3  0  0  0  0  0  0
  -24.8300  -28.9540   20.1800 C   0  0  0  0  0  0  0  0  0  0  0  0
  -25.9020  -30.8500   21.4050 C   0  0  0  0  0  2  0  0  0  0  0  0
  -25.9850  -29.4760   20.7730 C   0  0  0  0  0  0  0  0  0  0  0  0
  -27.1850  -28.7310   20.7710 C   0  0  0  0  0  3  0  0  0  0  0  0
  -26.0610  -26.9470   19.5590 C   0  0  0  0  0  3  0  0  0  0  0  0
  -24.8610  -27.6840   19.5750 C   0  0  0  0  0  3  0  0  0  0  0  0
  -23.5840  -29.8100   20.2280 C   0  0  0  0  0  2  0  0  0  0  0  0
  -24.6420  -31.0980   22.1420 N   0  0  0  0  0  0  0  0  0  0  0  0
  -23.5120  -32.1760   23.7850 O   0  0  0  0  0  0  0  0  0  0  0  0
  -22.7310  -29.4780   22.5710 C   0  0  0  0  0  0  0  0  0  0  0  0
  -21.4060  -29.2940   22.4440 N   0  0  0  0  0  0  0  0  0  0  0  0
  -23.4160  -28.8560   23.3880 O   0  0  0  0  0  0  0  0  0  0  0  0
  -20.9160  -29.8460   21.7550 H   0  0  0  0  0  0  0  0  0  0  0  0
  -18.0370  -28.0890   22.9390 C   0  0  0  0  0  0  0  0  0  0  0  0
  -20.5920  -28.3570   23.2190 C   0  0  0  0  0  3  0  0  0  0  0  0
  -20.7020  -26.9240   22.6490 C   0  0  0  0  0  2  0  0  0  0  0  0
  -19.6030  -26.5920   21.6330 C   0  0  0  0  0  2  0  0  0  0  0  0
  -18.2190  -26.7360   22.2720 C   0  0  0  0  0  2  0  0  0  0  0  0
  -19.1520  -28.8570   23.3680 C   0  0  0  0  0  0  0  0  0  0  0  0
  -18.9280  -30.1240   23.9500 C   0  0  0  0  0  3  0  0  0  0  0  0
  -17.6210  -30.6230   24.1070 C   0  0  0  0  0  3  0  0  0  0  0  0
  -16.5200  -29.8530   23.6930 C   0  0  0  0  0  3  0  0  0  0  0  0
  -16.7290  -28.5880   23.1150 C   0  0  0  0  0  3  0  0  0  0  0  0
  -25.8810  -32.5310   23.8580 C   0  0  0  0  0  3  0  0  0  0  0  0
  -25.5730  -33.9270   24.1910 N   0  0  0  0  0  0  0  0  0  0  0  0
  -25.9020  -34.9800   23.4310 C   0  0  0  0  0  0  0  0  0  0  0  0
  -26.5690  -34.8790   22.3970 O   0  0  0  0  0  0  0  0  0  0  0  0
  -24.9760  -34.0800   24.9900 H   0  0  0  0  0  0  0  0  0  0  0  0
  -24.1660  -36.7670   23.0880 C   0  0  0  0  0  1  0  0  0  0  0  0
  -25.4140  -36.3680   23.8910 C   0  0  0  0  0  3  0  0  0  0  0  0
  -27.5560  -37.2530   24.7020 C   0  0  0  0  0  1  0  0  0  0  0  0
  -26.4430  -37.4240   23.7720 N   0  0  0  0  0  0  0  0  0  0  0  0
  -26.0350  -38.3420   23.9310 H   0  0  0  0  0  0  0  0  0  0  0  0
  -26.4060  -31.7560   25.1290 C   0  0  1  0  0  0  0  0  0  0  0  0
  -25.3190  -31.5120   26.2020 C   0  0  0  0  0  1  0  0  0  0  0  0
  -26.9900  -30.3810   24.7270 C   0  0  0  0  0  1  0  0  0  0  0  0
  -27.5590  -32.5500   25.7870 C   0  0  0  0  0  1  0  0  0  0  0  0
  2  1  1  0
  2  3  1  0
  3  4  2  0
  3  6  1  0
  4  8  1  0
  5  4  1  0
  6  7  2  0
  8  9  1  0
  8  7  1  0
 10  9  1  0
 11 16  1  0
 12 13  1  0
 12 11  1  0
 14 13  1  0
 14 21  1  0
 14 15  1  0
 16 10  1  0
 16 15  1  0
 17 10  2  0
 18 19  2  0
 19 38  1  0
 20 19  1  0
 20 23  1  0
 21 18  1  0
 21 22  1  0
 22 20  2  0
 23 24  1  0
 24 25  2  0
 26 29  1  0
 26 25  1  0
 27 26  2  0
 28 27  1  0
 28 23  2  0
 29 30  1  0
 30 31  1  0
 31 32  2  0
 33 32  1  0
 33 37  1  0
 34 33  2  0
 35 30  2  0
 35 34  1  0
 36 35  1  0
 38 39  1  0
 39 42  1  0
 39 41  1  0
 40 38  2  0
 43 44  1  0
 43 18  1  0
 45 43  1  0
 46 47  1  0
 46  1  1  0
 48 47  1  0
 49 48  1  0
 49 50  1  0
 51 62  2  0
 52 50  1  0
 52 57  1  0
 53 61  1  0
 53 63  1  0
 54 60  1  0
 54 56  1  0
 55 61  1  0
 56 55  1  0
 57 56  2  0
 58 59  1  0
 58 52  2  0
 59 54  2  0
 60 53  1  0
 61 51  1  0
 63 65  2  0
 64 63  1  0
 66 64  1  0
 67 76  2  0
 67 72  1  0
 68 64  1  0
 68 72  1  0
 69 68  1  0
 70 71  1  0
 70 69  1  0
 71 67  1  0
 72 73  2  0
 73 74  1  0
 75 74  2  0
 76 75  1  0
 77 51  1  0
 77 78  1  0
 77 87  1  0
 78 81  1  0
 79 83  1  0
 79 78  1  0
 80 79  2  0
 83 82  1  0
 85 83  1  0
 85 86  1  0
 85 84  1  0
 87 90  1  1
 87 88  1  0
 89 87  1  0
M  ISO  4   9 100  10 100  49 101  50 101
M  END
>  <TORSDO>  (7) 
F 23

>  <SCORE>  (7) 
-12.818

>  <name>  (7) 
6

>  <ligand_id>  (7) 
6

>  <original_smiles>  (7) 
[H]c1c([H])c([H])c2c(c1[H])C([H])([H])C([H])([H])C([H])([H])C2([H])N([H])C(=O)C1([H])N(C(=O)C([H])(N([H])C(=O)C([H])(N([H])C([H])([H])[H])C([H])([H])[H])C(C([H])([H])[H])(C([H])([H])[H])C([H])([H])[H])C([H])([H])c2c([H])c(OC([H])([H])C([H])([H])C([H])([H])C([H])([H])C([H])([H])C([H])([H])c3nnn(C([H])([H])C(=O)N4C([H])([H])C([H])([H])C([H])([H])C([H])(n5nc(-c6c([H])c([H])c(Oc7c([H])c([H])c(F)c([H])c7F)c([H])c6[H])c(C(=O)N([H])[H])c5N([H])[H])C4([H])[H])c3C([H])([H])[H])c([H])c([H])c2C1([H])[H]

>  <smiles>  (7) 
[H]c1c([H])c([H])c2c(c1[H])C([H])([H])C([H])([H])C([H])([H])C2([H])N([H])C(=O)C1([H])N(C(=O)C([H])(N([H])C(=O)C([H])(N([H])C([H])([H])[H])C([H])([H])[H])C(C([H])([H])[H])(C([H])([H])[H])C([H])([H])[H])C([H])([H])c2c([H])c(OC([H])([H])C([H])([H])C([H])([H])C([H])([H])C([H])([H])C([H])([H])c3nnn(C([H])([H])C(=O)N4C([H])([H])C([H])([H])C([H])([H])C([H])(n5nc(-c6c([H])c([H])c(Oc7c([H])c([H])c(F)c([H])c7F)c([H])c6[H])c(C(=O)N([H])[H])c5N([H])[H])C4([H])[H])c3C([H])([H])[H])c([H])c([H])c2C1([H])[H]

$$$$
7:0:0
     RDKit          3D

 99108  0  0  1  0  0  0  0  0999 V2000
  -27.0030  -22.1770   20.7030 C   0  0  0  0  0  3  0  0  0  0  0  0
  -28.4140  -22.2000   20.5990 C   0  0  0  0  0  0  0  0  0  0  0  0
  -26.5700  -22.8700   19.6130 C   0  0  0  0  0  0  0  0  0  0  0  0
  -28.8300  -22.9880   19.6130 N   0  0  0  0  0  0  0  0  0  0  0  0
  -27.6940  -23.4040   18.9980 N   0  0  0  0  0  0  0  0  0  0  0  0
  -24.2060  -21.9650   19.6630 C   0  0  0  0  0  1  0  0  0  0  0  0
  -25.1730  -23.0070   19.0950 C   0  0  0  0  0  2  0  0  0  0  0  0
  -29.3680  -21.3080   21.3480 C   0  0  0  0  0  2  0  0  0  0  0  0
  -29.3230  -19.8730   19.2280 C   0  0  0  0  0  3  0  0  0  0  0  0
  -30.4900  -17.7670   19.0710 C   0  0  0  0  0  3  0  0  0  0  0  0
  -29.7090  -18.7610   18.4650 C   0  0  0  0  0  0  0  0  0  0  0  0
  -29.7050  -20.0130   20.5890 C   0  0  0  0  0  0  0  0  0  0  0  0
  -30.8570  -17.8530   20.4340 C   0  0  0  0  0  0  0  0  0  0  0  0
  -30.4190  -18.9550   21.2250 C   0  0  0  0  0  0  0  0  0  0  0  0
  -29.3520  -18.6750   16.9880 C   0  0  0  0  0  1  0  0  0  0  0  0
  -30.1090  -17.7570   23.4710 C   0  0  0  0  0  1  0  0  0  0  0  0
  -30.6800  -18.9830   22.7420 C   0  0  0  0  0  2  0  0  0  0  0  0
  -31.7680  -16.7710   21.0050 C   0  0  0  0  0  2  0  0  0  0  0  0
  -32.9260  -14.9860   19.4460 C   0  0  0  0  0  0  0  0  0  0  0  0
  -32.3260  -12.7590   18.6020 C   0  0  0  0  0  2  0  0  0  0  0  0
  -31.2850  -12.8700   17.4700 C   0  0  0  0  0  2  0  0  0  0  0  0
  -29.8540  -12.8780   18.0480 C   0  0  0  0  0  2  0  0  0  0  0  0
  -29.6950  -13.8790   19.2240 C   0  0  0  0  0  3  0  0  0  0  0  0
  -30.8430  -13.6910   20.2390 C   0  0  0  0  0  2  0  0  0  0  0  0
  -32.1170  -13.8880   19.5320 N   0  0  0  0  0  0  0  0  0  0  0  0
  -33.9270  -14.9930   18.7320 O   0  0  0  0  0  0  0  0  0  0  0  0
  -32.6100  -16.1840   19.9660 N   0  0  0  0  0  0  0  0  0  0  0  0
  -33.2490  -16.8770   19.6060 H   0  0  0  0  0  0  0  0  0  0  0  0
  -27.5640  -14.7500   20.3710 C   0  0  0  0  0  0  0  0  0  0  0  0
  -26.4290  -14.1170   20.7900 C   0  0  0  0  0  0  0  0  0  0  0  0
  -26.6220  -12.7300   20.5060 C   0  0  0  0  0  0  0  0  0  0  0  0
  -28.3880  -13.7600   19.8620 N   0  0  0  0  0  0  0  0  0  0  0  0
  -27.8300  -12.5300   19.9950 N   0  0  0  0  0  0  0  0  0  0  0  0
  -25.7080  -11.5920   20.6350 C   0  0  0  0  0  0  0  0  0  0  0  0
  -25.9630  -10.5400   21.5430 C   0  0  0  0  0  3  0  0  0  0  0  0
  -25.0590   -9.4630   21.6630 C   0  0  0  0  0  3  0  0  0  0  0  0
  -23.8860   -9.4310   20.8710 C   0  0  0  0  0  0  0  0  0  0  0  0
  -23.6500  -10.4670   19.9500 C   0  0  0  0  0  3  0  0  0  0  0  0
  -24.5530  -11.5360   19.8300 C   0  0  0  0  0  3  0  0  0  0  0  0
  -22.9660   -8.4100   20.8980 O   0  0  0  0  0  0  0  0  0  0  0  0
  -22.4620   -7.9260   22.0770 C   0  0  0  0  0  0  0  0  0  0  0  0
  -21.8970   -8.7780   23.0510 C   0  0  0  0  0  3  0  0  0  0  0  0
  -21.3250   -8.2340   24.2180 C   0  0  0  0  0  3  0  0  0  0  0  0
  -21.3100   -6.8390   24.4130 C   0  0  0  0  0  0  0  0  0  0  0  0
  -21.8680   -5.9890   23.4420 C   0  0  0  0  0  3  0  0  0  0  0  0
  -22.4400   -6.5300   22.2780 C   0  0  0  0  0  0  0  0  0  0  0  0
  -22.9560   -5.7050   21.3350 F   0  0  0  0  0  0  0  0  0  0  0  0
  -20.7550   -6.3150   25.5310 F   0  0  0  0  0  0  0  0  0  0  0  0
  -25.1940  -14.7650   21.3470 C   0  0  0  0  0  0  0  0  0  0  0  0
  -24.5190  -14.1010   22.2750 N   0  0  0  0  0  0  0  0  0  0  0  0
  -24.8530  -15.8940   20.9930 O   0  0  0  0  0  0  0  0  0  0  0  0
  -24.8180  -13.1840   22.5750 H   0  0  0  0  0  0  0  0  0  0  0  0
  -23.7000  -14.5160   22.6950 H   0  0  0  0  0  0  0  0  0  0  0  0
  -27.9530  -16.0870   20.3690 N   0  0  0  0  0  0  0  0  0  0  0  0
  -27.3510  -16.8240   20.7160 H   0  0  0  0  0  0  0  0  0  0  0  0
  -28.8640  -16.4270   20.0880 H   0  0  0  0  0  0  0  0  0  0  0  0
  -27.7920  -24.2520   17.8160 C   0  0  0  0  0  2  0  0  0  0  0  0
  -28.4500  -25.6220   18.1360 C   0  0  0  0  0  2  0  0  0  0  0  0
  -27.9250  -26.7340   17.4070 O   0  0  0  0  0  0  0  0  0  0  0  0
  -25.5050  -29.7010   23.4090 C   0  0  0  0  0  0  0  0  0  0  0  0
  -26.8930  -27.3580   18.0590 C   0  0  0  0  0  0  0  0  0  0  0  0
  -23.8100  -29.2320   21.6680 C   0  0  0  0  0  3  0  0  0  0  0  0
  -24.7360  -28.5870   19.3910 C   0  0  0  0  0  0  0  0  0  0  0  0
  -26.2460  -29.7040   21.0350 C   0  0  0  0  0  2  0  0  0  0  0  0
  -26.0460  -28.7990   19.8370 C   0  0  0  0  0  0  0  0  0  0  0  0
  -27.1320  -28.1740   19.1850 C   0  0  0  0  0  3  0  0  0  0  0  0
  -25.5710  -27.1700   17.6110 C   0  0  0  0  0  3  0  0  0  0  0  0
  -24.4900  -27.7540   18.2860 C   0  0  0  0  0  3  0  0  0  0  0  0
  -23.6270  -29.2950   20.1320 C   0  0  0  0  0  2  0  0  0  0  0  0
  -25.2200  -29.5210   22.0880 N   0  0  0  0  0  0  0  0  0  0  0  0
  -24.6120  -29.6700   24.2670 O   0  0  0  0  0  0  0  0  0  0  0  0
  -23.2940  -27.8690   22.1730 C   0  0  0  0  0  0  0  0  0  0  0  0
  -22.0070  -27.5780   21.9140 N   0  0  0  0  0  0  0  0  0  0  0  0
  -24.0480  -27.0920   22.7620 O   0  0  0  0  0  0  0  0  0  0  0  0
  -21.4510  -28.2610   21.4220 H   0  0  0  0  0  0  0  0  0  0  0  0
  -19.0320  -25.6280   21.2570 C   0  0  0  0  0  0  0  0  0  0  0  0
  -21.3210  -26.3280   22.2470 C   0  0  0  0  0  3  0  0  0  0  0  0
  -21.9170  -25.1550   21.4410 C   0  0  0  0  0  2  0  0  0  0  0  0
  -21.1690  -24.8940   20.1290 C   0  0  0  0  0  2  0  0  0  0  0  0
  -19.6970  -24.5680   20.3980 C   0  0  0  0  0  2  0  0  0  0  0  0
  -19.7990  -26.4710   22.1080 C   0  0  0  0  0  0  0  0  0  0  0  0
  -19.1400  -27.4800   22.8410 C   0  0  0  0  0  3  0  0  0  0  0  0
  -17.7500  -27.6650   22.7240 C   0  0  0  0  0  3  0  0  0  0  0  0
  -16.9980  -26.8190   21.8910 C   0  0  0  0  0  3  0  0  0  0  0  0
  -17.6350  -25.7960   21.1680 C   0  0  0  0  0  3  0  0  0  0  0  0
  -26.9620  -29.9770   23.9000 C   0  0  0  0  0  3  0  0  0  0  0  0
  -26.9130  -31.1390   24.7940 N   0  0  0  0  0  0  0  0  0  0  0  0
  -27.3290  -32.3710   24.4640 C   0  0  0  0  0  0  0  0  0  0  0  0
  -27.8690  -32.6320   23.3850 O   0  0  0  0  0  0  0  0  0  0  0  0
  -26.4170  -31.0160   25.6640 H   0  0  0  0  0  0  0  0  0  0  0  0
  -25.9050  -34.3490   25.0740 C   0  0  0  0  0  1  0  0  0  0  0  0
  -27.1110  -33.4940   25.4940 C   0  0  0  0  0  3  0  0  0  0  0  0
  -29.4120  -33.6700   26.3290 C   0  0  0  0  0  1  0  0  0  0  0  0
  -28.2960  -34.3590   25.6810 N   0  0  0  0  0  0  0  0  0  0  0  0
  -28.0630  -35.1770   26.2370 H   0  0  0  0  0  0  0  0  0  0  0  0
  -27.6190  -28.7370   24.6170 C   0  0  1  0  0  0  0  0  0  0  0  0
  -26.7420  -28.1450   25.7440 C   0  0  0  0  0  1  0  0  0  0  0  0
  -27.9090  -27.6120   23.5960 C   0  0  0  0  0  1  0  0  0  0  0  0
  -28.9820  -29.1460   25.2210 C   0  0  0  0  0  1  0  0  0  0  0  0
  2  1  1  0
  2  8  1  0
  3  1  2  0
  4  2  2  0
  5  3  1  0
  5  4  1  0
  7  3  1  0
  7  6  1  0
  9 12  1  0
 10 13  2  0
 11 10  1  0
 11  9  2  0
 12 14  2  0
 12  8  1  0
 13 18  1  0
 13 14  1  0
 14 17  1  0
 15 11  1  0
 17 16  1  0
 19 25  1  0
 19 27  1  0
 20 25  1  0
 21 22  1  0
 21 20  1  0
 23 22  1  0
 23 32  1  0
 23 24  1  0
 25 24  1  0
 26 19  2  0
 27 18  1  0
 28 27  1  0
 29 30  2  0
 30 49  1  0
 31 34  1  0
 31 30  1  0
 32 33  1  0
 32 29  1  0
 33 31  2  0
 34 35  1  0
 35 36  2  0
 37 40  1  0
 37 36  1  0
 38 37  2  0
 39 38  1  0
 39 34  2  0
 40 41  1  0
 41 46  2  0
 41 42  1  0
 42 43  2  0
 43 44  1  0
 44 48  1  0
 45 44  2  0
 46 45  1  0
 47 46  1  0
 49 50  1  0
 50 52  1  0
 50 53  1  0
 51 49  2  0
 54 29  1  0
 54 55  1  0
 56 54  1  0
 57 58  1  0
 57  5  1  0
 59 61  1  0
 59 58  1  0
 60 71  2  0
 61 66  1  0
 62 70  1  0
 62 72  1  0
 63 65  1  0
 63 69  1  0
 64 70  1  0
 65 64  1  0
 66 65  2  0
 67 61  2  0
 67 68  1  0
 68 63  2  0
 69 62  1  0
 70 60  1  0
 72 74  2  0
 73 72  1  0
 75 73  1  0
 76 81  1  0
 77 73  1  0
 78 77  1  0
 79 80  1  0
 79 78  1  0
 80 76  1  0
 81 77  1  0
 81 82  2  0
 83 82  1  0
 84 83  2  0
 85 76  2  0
 85 84  1  0
 86 60  1  0
 86 96  1  0
 86 87  1  0
 87 90  1  0
 88 87  1  0
 88 92  1  0
 89 88  2  0
 92 91  1  0
 92 94  1  0
 94 95  1  0
 94 93  1  0
 96 99  1  1
 96 97  1  0
 98 96  1  0
M  ISO  4  19 100  27 100  58 101  59 101
M  END
>  <TORSDO>  (8) 
F 23

>  <SCORE>  (8) 
-5.714

>  <name>  (8) 
7

>  <ligand_id>  (8) 
7

>  <original_smiles>  (8) 
[H]c1c([H])c([H])c2c(c1[H])C([H])([H])C([H])([H])C([H])([H])C2([H])N([H])C(=O)C1([H])N(C(=O)C([H])(N([H])C(=O)C([H])(N([H])C([H])([H])[H])C([H])([H])[H])C(C([H])([H])[H])(C([H])([H])[H])C([H])([H])[H])C([H])([H])c2c([H])c(OC([H])([H])C([H])([H])n3nc(C([H])([H])c4c([H])c(C([H])([H])[H])c([H])c(C([H])([H])N([H])C(=O)N5C([H])([H])C([H])([H])C([H])([H])C([H])(n6nc(-c7c([H])c([H])c(Oc8c([H])c([H])c(F)c([H])c8F)c([H])c7[H])c(C(=O)N([H])[H])c6N([H])[H])C5([H])[H])c4C([H])([H])C([H])([H])[H])c([H])c3C([H])([H])C([H])([H])[H])c([H])c([H])c2C1([H])[H]

>  <smiles>  (8) 
[H]c1c([H])c([H])c2c(c1[H])C([H])([H])C([H])([H])C([H])([H])C2([H])N([H])C(=O)C1([H])N(C(=O)C([H])(N([H])C(=O)C([H])(N([H])C([H])([H])[H])C([H])([H])[H])C(C([H])([H])[H])(C([H])([H])[H])C([H])([H])[H])C([H])([H])c2c([H])c(OC([H])([H])C([H])([H])n3nc(C([H])([H])c4c([H])c(C([H])([H])[H])c([H])c(C([H])([H])N([H])C(=O)N5C([H])([H])C([H])([H])C([H])([H])C([H])(n6nc(-c7c([H])c([H])c(Oc8c([H])c([H])c(F)c([H])c8F)c([H])c7[H])c(C(=O)N([H])[H])c6N([H])[H])C5([H])[H])c4C([H])([H])C([H])([H])[H])c([H])c3C([H])([H])C([H])([H])[H])c([H])c([H])c2C1([H])[H]

$$$$
8:0:0
     RDKit          3D

 96104  0  0  1  0  0  0  0  0999 V2000
  -28.7520  -23.0250   19.7470 C   0  0  0  0  0  0  0  0  0  0  0  0
  -28.3110  -21.6920   19.4250 C   0  0  0  0  0  0  0  0  0  0  0  0
  -29.9960  -23.1610   20.4600 C   0  0  0  0  0  0  0  0  0  0  0  0
  -29.1800  -20.5880   19.6510 C   0  0  0  0  0  0  0  0  0  0  0  0
  -30.7210  -21.9630   20.7250 C   0  0  0  0  0  0  0  0  0  0  0  0
  -26.9060  -21.4530   18.8590 C   0  0  0  0  0  1  0  0  0  0  0  0
  -30.3580  -20.7550   20.2610 N   0  0  0  0  0  0  0  0  0  0  0  0
  -31.8850  -25.0460   20.6600 C   0  0  0  0  0  1  0  0  0  0  0  0
  -30.0950  -24.7360   22.4750 C   0  0  0  0  0  1  0  0  0  0  0  0
  -30.4690  -24.5350   21.0000 C   0  0  0  0  0  3  0  0  0  0  0  0
  -33.2390  -21.5770   20.8050 C   0  0  0  0  0  1  0  0  0  0  0  0
  -31.9590  -21.8550   21.6060 C   0  0  0  0  0  2  0  0  0  0  0  0
  -27.7920  -24.2040   19.3710 C   0  0  0  0  0  2  0  0  0  0  0  0
  -28.2810  -25.6170   18.9080 C   0  0  0  0  0  2  0  0  0  0  0  0
  -28.1880  -26.6850   19.8820 O   0  0  0  0  0  0  0  0  0  0  0  0
  -24.5130  -31.8830   23.1640 C   0  0  0  0  0  0  0  0  0  0  0  0
  -27.0180  -27.4130   19.9610 C   0  0  0  0  0  0  0  0  0  0  0  0
  -23.2600  -30.5140   21.5370 C   0  0  0  0  0  3  0  0  0  0  0  0
  -24.6550  -28.9690   20.0720 C   0  0  0  0  0  0  0  0  0  0  0  0
  -25.7950  -30.8160   21.3090 C   0  0  0  0  0  2  0  0  0  0  0  0
  -25.8370  -29.4530   20.6480 C   0  0  0  0  0  0  0  0  0  0  0  0
  -27.0190  -28.6770   20.6000 C   0  0  0  0  0  3  0  0  0  0  0  0
  -25.8060  -26.9380   19.4110 C   0  0  0  0  0  3  0  0  0  0  0  0
  -24.6360  -27.7080   19.4600 C   0  0  0  0  0  3  0  0  0  0  0  0
  -23.4280  -29.8470   20.1500 C   0  0  0  0  0  2  0  0  0  0  0  0
  -24.5420  -31.0880   22.0580 N   0  0  0  0  0  0  0  0  0  0  0  0
  -23.4440  -32.1730   23.7180 O   0  0  0  0  0  0  0  0  0  0  0  0
  -22.6070  -29.4930   22.4960 C   0  0  0  0  0  0  0  0  0  0  0  0
  -21.2840  -29.3040   22.3570 N   0  0  0  0  0  0  0  0  0  0  0  0
  -23.2870  -28.8730   23.3180 O   0  0  0  0  0  0  0  0  0  0  0  0
  -20.7960  -29.8570   21.6660 H   0  0  0  0  0  0  0  0  0  0  0  0
  -17.9150  -28.0810   22.8130 C   0  0  0  0  0  0  0  0  0  0  0  0
  -20.4660  -28.3680   23.1260 C   0  0  0  0  0  3  0  0  0  0  0  0
  -20.5900  -26.9310   22.5690 C   0  0  0  0  0  2  0  0  0  0  0  0
  -19.5090  -26.5850   21.5410 C   0  0  0  0  0  2  0  0  0  0  0  0
  -18.1140  -26.7250   22.1580 C   0  0  0  0  0  2  0  0  0  0  0  0
  -19.0190  -28.8590   23.2520 C   0  0  0  0  0  0  0  0  0  0  0  0
  -18.7800  -30.1300   23.8180 C   0  0  0  0  0  3  0  0  0  0  0  0
  -17.4680  -30.6230   23.9530 C   0  0  0  0  0  3  0  0  0  0  0  0
  -16.3780  -29.8420   23.5320 C   0  0  0  0  0  3  0  0  0  0  0  0
  -16.6030  -28.5730   22.9680 C   0  0  0  0  0  3  0  0  0  0  0  0
  -25.8180  -32.4870   23.7710 C   0  0  0  0  0  3  0  0  0  0  0  0
  -25.5350  -33.8850   24.1200 N   0  0  0  0  0  0  0  0  0  0  0  0
  -25.8660  -34.9400   23.3630 C   0  0  0  0  0  0  0  0  0  0  0  0
  -26.5150  -34.8370   22.3190 O   0  0  0  0  0  0  0  0  0  0  0  0
  -24.9540  -34.0410   24.9310 H   0  0  0  0  0  0  0  0  0  0  0  0
  -24.1520  -36.7520   23.0590 C   0  0  0  0  0  1  0  0  0  0  0  0
  -25.4060  -36.3310   23.8420 C   0  0  0  0  0  3  0  0  0  0  0  0
  -27.5670  -37.1830   24.6350 C   0  0  0  0  0  1  0  0  0  0  0  0
  -26.4490  -37.3720   23.7130 N   0  0  0  0  0  0  0  0  0  0  0  0
  -26.0600  -38.2980   23.8740 H   0  0  0  0  0  0  0  0  0  0  0  0
  -26.3430  -31.6910   25.0280 C   0  0  1  0  0  0  0  0  0  0  0  0
  -25.2610  -31.4530   26.1070 C   0  0  0  0  0  1  0  0  0  0  0  0
  -26.9020  -30.3120   24.6090 C   0  0  0  0  0  1  0  0  0  0  0  0
  -27.5140  -32.4640   25.6780 C   0  0  0  0  0  1  0  0  0  0  0  0
  -28.9740  -19.1550   19.1110 C   0  0  0  0  0  2  0  0  0  0  0  0
  -29.2310  -17.9780   20.1090 C   0  0  0  0  0  2  0  0  0  0  0  0
  -29.4340  -16.6240   19.3770 C   0  0  0  0  0  2  0  0  0  0  0  0
  -30.4480  -14.4290   20.0060 C   0  0  0  0  0  0  0  0  0  0  0  0
  -30.1780  -12.2410   18.9380 C   0  0  0  0  0  2  0  0  0  0  0  0
  -29.1490  -12.4510   17.8020 C   0  0  0  0  0  2  0  0  0  0  0  0
  -27.7110  -12.2800   18.3340 C   0  0  0  0  0  2  0  0  0  0  0  0
  -27.4500  -13.0900   19.6300 C   0  0  0  0  0  3  0  0  0  0  0  0
  -28.5840  -12.8650   20.6560 C   0  0  0  0  0  2  0  0  0  0  0  0
  -29.8620  -13.2030   20.0010 N   0  0  0  0  0  0  0  0  0  0  0  0
  -31.5680  -14.6450   19.5290 O   0  0  0  0  0  0  0  0  0  0  0  0
  -29.5830  -15.4390   20.2480 N   0  0  0  0  0  0  0  0  0  0  0  0
  -28.7340  -15.1490   20.7140 H   0  0  0  0  0  0  0  0  0  0  0  0
  -25.1050  -13.6600   20.5160 C   0  0  0  0  0  0  0  0  0  0  0  0
  -24.0790  -12.8700   20.9510 C   0  0  0  0  0  0  0  0  0  0  0  0
  -24.5540  -11.5240   20.8650 C   0  0  0  0  0  0  0  0  0  0  0  0
  -26.1400  -12.7950   20.1970 N   0  0  0  0  0  0  0  0  0  0  0  0
  -25.8170  -11.5060   20.4650 N   0  0  0  0  0  0  0  0  0  0  0  0
  -23.8630  -10.2530   21.0930 C   0  0  0  0  0  0  0  0  0  0  0  0
  -24.3430   -9.3080   22.0260 C   0  0  0  0  0  3  0  0  0  0  0  0
  -23.6530   -8.0940   22.2320 C   0  0  0  0  0  3  0  0  0  0  0  0
  -22.4680   -7.8210   21.5100 C   0  0  0  0  0  0  0  0  0  0  0  0
  -22.0130   -8.7520   20.5580 C   0  0  0  0  0  3  0  0  0  0  0  0
  -22.7030   -9.9570   20.3500 C   0  0  0  0  0  3  0  0  0  0  0  0
  -21.7430   -6.6590   21.6270 O   0  0  0  0  0  0  0  0  0  0  0  0
  -21.7040   -5.9540   22.8020 C   0  0  0  0  0  0  0  0  0  0  0  0
  -21.2140   -6.5270   23.9970 C   0  0  0  0  0  3  0  0  0  0  0  0
  -21.1240   -5.7450   25.1660 C   0  0  0  0  0  3  0  0  0  0  0  0
  -21.5130   -4.3910   25.1390 C   0  0  0  0  0  0  0  0  0  0  0  0
  -21.9940   -3.8180   23.9480 C   0  0  0  0  0  3  0  0  0  0  0  0
  -22.0880   -4.5980   22.7830 C   0  0  0  0  0  0  0  0  0  0  0  0
  -22.5340   -4.0350   21.6330 F   0  0  0  0  0  0  0  0  0  0  0  0
  -21.4190   -3.6380   26.2610 F   0  0  0  0  0  0  0  0  0  0  0  0
  -22.7010  -13.3200   21.3380 C   0  0  0  0  0  0  0  0  0  0  0  0
  -22.0520  -12.5970   22.2390 N   0  0  0  0  0  0  0  0  0  0  0  0
  -22.2150  -14.3510   20.8730 O   0  0  0  0  0  0  0  0  0  0  0  0
  -22.4700  -11.7630   22.6270 H   0  0  0  0  0  0  0  0  0  0  0  0
  -21.1280  -12.8690   22.5440 H   0  0  0  0  0  0  0  0  0  0  0  0
  -25.2390  -15.0390   20.3530 N   0  0  0  0  0  0  0  0  0  0  0  0
  -24.4620  -15.6700   20.5160 H   0  0  0  0  0  0  0  0  0  0  0  0
  -26.0470  -15.4980   19.9560 H   0  0  0  0  0  0  0  0  0  0  0  0
  1  3  1  0
  2  4  1  0
  2  1  2  0
  3  5  2  0
  3 10  1  0
  4  7  2  0
  5 12  1  0
  6  2  1  0
  7  5  1  0
  8 10  1  0
 10  9  1  0
 11 12  1  0
 13  1  1  0
 14 13  1  0
 14 15  1  0
 15 17  1  0
 16 27  2  0
 17 22  1  0
 18 26  1  0
 18 28  1  0
 19 25  1  0
 19 21  1  0
 20 26  1  0
 21 20  1  0
 22 21  2  0
 23 24  1  0
 23 17  2  0
 24 19  2  0
 25 18  1  0
 26 16  1  0
 28 30  2  0
 29 28  1  0
 31 29  1  0
 32 41  2  0
 32 37  1  0
 33 29  1  0
 33 37  1  0
 34 33  1  0
 35 36  1  0
 35 34  1  0
 36 32  1  0
 37 38  2  0
 38 39  1  0
 40 39  2  0
 41 40  1  0
 42 16  1  0
 42 43  1  0
 42 52  1  0
 43 46  1  0
 44 48  1  0
 44 43  1  0
 45 44  2  0
 48 47  1  0
 50 48  1  0
 50 51  1  0
 50 49  1  0
 52 55  1  1
 52 53  1  0
 54 52  1  0
 56  4  1  0
 56 57  1  0
 58 57  1  0
 58 67  1  0
 59 67  1  0
 60 65  1  0
 61 62  1  0
 61 60  1  0
 63 62  1  0
 63 72  1  0
 63 64  1  0
 65 59  1  0
 65 64  1  0
 66 59  2  0
 67 68  1  0
 69 70  2  0
 70 89  1  0
 71 70  1  0
 71 74  1  0
 72 73  1  0
 72 69  1  0
 73 71  2  0
 74 75  1  0
 75 76  2  0
 77 80  1  0
 77 76  1  0
 78 77  2  0
 79 78  1  0
 79 74  2  0
 80 81  1  0
 81 82  1  0
 82 83  2  0
 84 83  1  0
 84 88  1  0
 85 84  2  0
 86 81  2  0
 86 85  1  0
 87 86  1  0
 89 90  1  0
 90 93  1  0
 90 92  1  0
 91 89  2  0
 94 95  1  0
 94 69  1  0
 96 94  1  0
M  ISO  4  14 101  15 101  59 100  67 100
M  END
>  <TORSDO>  (9) 
F 23

>  <SCORE>  (9) 
-12.427

>  <name>  (9) 
8

>  <ligand_id>  (9) 
8

>  <original_smiles>  (9) 
[H]c1c([H])c([H])c2c(c1[H])C([H])([H])C([H])([H])C([H])([H])C2([H])N([H])C(=O)C1([H])N(C(=O)C([H])(N([H])C(=O)C([H])(N([H])C([H])([H])[H])C([H])([H])[H])C(C([H])([H])[H])(C([H])([H])[H])C([H])([H])[H])C([H])([H])c2c([H])c(OC([H])([H])C([H])([H])c3c(C([H])([H])[H])c(C([H])([H])C([H])([H])C([H])([H])N([H])C(=O)N4C([H])([H])C([H])([H])C([H])([H])C([H])(n5nc(-c6c([H])c([H])c(Oc7c([H])c([H])c(F)c([H])c7F)c([H])c6[H])c(C(=O)N([H])[H])c5N([H])[H])C4([H])[H])nc(C([H])([H])C([H])([H])[H])c3C([H])(C([H])([H])[H])C([H])([H])[H])c([H])c([H])c2C1([H])[H]

>  <smiles>  (9) 
[H]c1c([H])c([H])c2c(c1[H])C([H])([H])C([H])([H])C([H])([H])C2([H])N([H])C(=O)C1([H])N(C(=O)C([H])(N([H])C(=O)C([H])(N([H])C([H])([H])[H])C([H])([H])[H])C(C([H])([H])[H])(C([H])([H])[H])C([H])([H])[H])C([H])([H])c2c([H])c(OC([H])([H])C([H])([H])c3c(C([H])([H])[H])c(C([H])([H])C([H])([H])C([H])([H])N([H])C(=O)N4C([H])([H])C([H])([H])C([H])([H])C([H])(n5nc(-c6c([H])c([H])c(Oc7c([H])c([H])c(F)c([H])c7F)c([H])c6[H])c(C(=O)N([H])[H])c5N([H])[H])C4([H])[H])nc(C([H])([H])C([H])([H])[H])c3C([H])(C([H])([H])[H])C([H])([H])[H])c([H])c([H])c2C1([H])[H]

$$$$
9:0:0
     RDKit          3D

 91 99  0  0  1  0  0  0  0  0999 V2000
  -30.7460  -20.4510   19.2060 C   0  0  0  0  0  0  0  0  0  0  0  0
  -30.1510  -22.7100   19.1440 C   0  0  0  0  0  0  0  0  0  0  0  0
  -29.6020  -20.1110   19.9950 C   0  0  0  0  0  0  0  0  0  0  0  0
  -28.9910  -22.4800   19.9170 C   0  0  0  0  0  0  0  0  0  0  0  0
  -31.7580  -19.4630   18.6570 C   0  0  0  0  0  1  0  0  0  0  0  0
  -30.4790  -24.0710   18.5590 C   0  0  0  0  0  1  0  0  0  0  0  0
  -31.0090  -21.7230   18.8150 N   0  0  0  0  0  0  0  0  0  0  0  0
  -28.7380  -21.1650   20.3380 N   0  0  0  0  0  0  0  0  0  0  0  0
  -29.2110  -18.5950   20.4010 C   0  0  0  0  0  3  0  0  0  0  0  0
  -30.2420  -17.3250   20.3400 C   0  0  0  0  0  3  0  0  0  0  0  0
  -30.5740  -14.7340   20.3750 C   0  0  0  0  0  0  0  0  0  0  0  0
  -30.3480  -12.4730   19.3360 C   0  0  0  0  0  2  0  0  0  0  0  0
  -29.4120  -12.5950   18.1140 C   0  0  0  0  0  2  0  0  0  0  0  0
  -27.9440  -12.4360   18.5580 C   0  0  0  0  0  2  0  0  0  0  0  0
  -27.5840  -13.2920   19.8000 C   0  0  0  0  0  3  0  0  0  0  0  0
  -28.6500  -13.1680   20.9120 C   0  0  0  0  0  2  0  0  0  0  0  0
  -29.9410  -13.5150   20.3090 N   0  0  0  0  0  0  0  0  0  0  0  0
  -31.7550  -14.8300   20.0320 O   0  0  0  0  0  0  0  0  0  0  0  0
  -29.8150  -15.8760   20.5980 N   0  0  0  0  0  0  0  0  0  0  0  0
  -28.8580  -15.7230   20.8790 H   0  0  0  0  0  0  0  0  0  0  0  0
  -25.1960  -13.8710   20.5250 C   0  0  0  0  0  0  0  0  0  0  0  0
  -24.1300  -13.0940   20.8930 C   0  0  0  0  0  0  0  0  0  0  0  0
  -24.5950  -11.7430   20.8600 C   0  0  0  0  0  0  0  0  0  0  0  0
  -26.2410  -12.9930   20.2910 N   0  0  0  0  0  0  0  0  0  0  0  0
  -25.8860  -11.7080   20.5510 N   0  0  0  0  0  0  0  0  0  0  0  0
  -23.8680  -10.4790   21.0490 C   0  0  0  0  0  0  0  0  0  0  0  0
  -24.3060   -9.5090   21.9750 C   0  0  0  0  0  3  0  0  0  0  0  0
  -23.5820   -8.3110   22.1570 C   0  0  0  0  0  3  0  0  0  0  0  0
  -22.4030   -8.0740   21.4080 C   0  0  0  0  0  0  0  0  0  0  0  0
  -21.9810   -9.0340   20.4720 C   0  0  0  0  0  3  0  0  0  0  0  0
  -22.7070  -10.2240   20.2900 C   0  0  0  0  0  3  0  0  0  0  0  0
  -21.6480   -6.9310   21.4980 O   0  0  0  0  0  0  0  0  0  0  0  0
  -21.6110   -6.1800   22.6460 C   0  0  0  0  0  0  0  0  0  0  0  0
  -21.2060   -6.7290   23.8830 C   0  0  0  0  0  3  0  0  0  0  0  0
  -21.1240   -5.9070   25.0250 C   0  0  0  0  0  3  0  0  0  0  0  0
  -21.4270   -4.5350   24.9280 C   0  0  0  0  0  0  0  0  0  0  0  0
  -21.8220   -3.9850   23.6970 C   0  0  0  0  0  3  0  0  0  0  0  0
  -21.9110   -4.8050   22.5580 C   0  0  0  0  0  0  0  0  0  0  0  0
  -22.2730   -4.2680   21.3690 F   0  0  0  0  0  0  0  0  0  0  0  0
  -21.3380   -3.7410   26.0220 F   0  0  0  0  0  0  0  0  0  0  0  0
  -22.7330  -13.5690   21.1660 C   0  0  0  0  0  0  0  0  0  0  0  0
  -22.0090  -12.8700   22.0340 N   0  0  0  0  0  0  0  0  0  0  0  0
  -22.2940  -14.5940   20.6450 O   0  0  0  0  0  0  0  0  0  0  0  0
  -22.3790  -12.0390   22.4720 H   0  0  0  0  0  0  0  0  0  0  0  0
  -21.0700  -13.1670   22.2630 H   0  0  0  0  0  0  0  0  0  0  0  0
  -25.3620  -15.2400   20.3430 N   0  0  0  0  0  0  0  0  0  0  0  0
  -24.5970  -15.9010   20.4340 H   0  0  0  0  0  0  0  0  0  0  0  0
  -26.2050  -15.6620   19.9740 H   0  0  0  0  0  0  0  0  0  0  0  0
  -27.9410  -23.6710   20.1010 C   0  0  0  0  0  2  0  0  0  0  0  0
  -28.3040  -25.0710   20.8360 C   0  0  0  0  0  2  0  0  0  0  0  0
  -28.3620  -26.4280   20.2000 O   0  0  0  0  0  0  0  0  0  0  0  0
  -24.6250  -31.8730   23.2510 C   0  0  0  0  0  0  0  0  0  0  0  0
  -27.2450  -27.2840   20.2210 C   0  0  0  0  0  0  0  0  0  0  0  0
  -23.4290  -30.4690   21.6100 C   0  0  0  0  0  3  0  0  0  0  0  0
  -24.8850  -28.9090   20.1980 C   0  0  0  0  0  0  0  0  0  0  0  0
  -25.9710  -30.7870   21.4300 C   0  0  0  0  0  2  0  0  0  0  0  0
  -26.0560  -29.4020   20.7880 C   0  0  0  0  0  0  0  0  0  0  0  0
  -27.2440  -28.6050   20.7750 C   0  0  0  0  0  3  0  0  0  0  0  0
  -26.0520  -26.8420   19.6160 C   0  0  0  0  0  3  0  0  0  0  0  0
  -24.8880  -27.6370   19.6000 C   0  0  0  0  0  3  0  0  0  0  0  0
  -23.6480  -29.7860   20.2350 C   0  0  0  0  0  2  0  0  0  0  0  0
  -24.6940  -31.0630   22.1550 N   0  0  0  0  0  0  0  0  0  0  0  0
  -23.5380  -32.1520   23.7820 O   0  0  0  0  0  0  0  0  0  0  0  0
  -22.7640  -29.4560   22.5720 C   0  0  0  0  0  0  0  0  0  0  0  0
  -21.4370  -29.2780   22.4410 N   0  0  0  0  0  0  0  0  0  0  0  0
  -23.4380  -28.8330   23.3960 O   0  0  0  0  0  0  0  0  0  0  0  0
  -20.9520  -29.8270   21.7430 H   0  0  0  0  0  0  0  0  0  0  0  0
  -18.0600  -28.0750   22.9310 C   0  0  0  0  0  0  0  0  0  0  0  0
  -20.6170  -28.3420   23.2110 C   0  0  0  0  0  3  0  0  0  0  0  0
  -20.7250  -26.9090   22.6420 C   0  0  0  0  0  2  0  0  0  0  0  0
  -19.6300  -26.5800   21.6240 C   0  0  0  0  0  2  0  0  0  0  0  0
  -18.2440  -26.7230   22.2600 C   0  0  0  0  0  2  0  0  0  0  0  0
  -19.1750  -28.8410   23.3620 C   0  0  0  0  0  0  0  0  0  0  0  0
  -18.9500  -30.1040   23.9510 C   0  0  0  0  0  3  0  0  0  0  0  0
  -17.6430  -30.6030   24.1130 C   0  0  0  0  0  3  0  0  0  0  0  0
  -16.5430  -29.8340   23.6960 C   0  0  0  0  0  3  0  0  0  0  0  0
  -16.7520  -28.5720   23.1110 C   0  0  0  0  0  3  0  0  0  0  0  0
  -25.9020  -32.5100   23.8800 C   0  0  0  0  0  3  0  0  0  0  0  0
  -26.4150  -31.7440   25.1630 C   0  0  1  0  0  0  0  0  0  0  0  0
  -25.3200  -31.5090   26.2280 C   0  0  0  0  0  1  0  0  0  0  0  0
  -26.9980  -30.3610   24.7830 C   0  0  0  0  0  1  0  0  0  0  0  0
  -27.5650  -32.5410   25.8240 C   0  0  0  0  0  1  0  0  0  0  0  0
  -25.5890  -33.9100   24.2040 N   0  0  0  0  0  0  0  0  0  0  0  0
  -25.9230  -34.9620   23.4430 C   0  0  0  0  0  0  0  0  0  0  0  0
  -26.5960  -34.8560   22.4150 O   0  0  0  0  0  0  0  0  0  0  0  0
  -24.9880  -34.0690   24.9990 H   0  0  0  0  0  0  0  0  0  0  0  0
  -24.1930  -36.7550   23.0820 C   0  0  0  0  0  1  0  0  0  0  0  0
  -25.4330  -36.3520   23.8940 C   0  0  0  0  0  3  0  0  0  0  0  0
  -27.5680  -37.2420   24.7200 C   0  0  0  0  0  1  0  0  0  0  0  0
  -26.4660  -37.4050   23.7780 N   0  0  0  0  0  0  0  0  0  0  0  0
  -26.0600  -38.3260   23.9220 H   0  0  0  0  0  0  0  0  0  0  0  0
  1  3  1  0
  2  4  2  0
  3  8  2  0
  3  9  1  0
  4 49  1  0
  4  8  1  0
  5  1  1  0
  6  2  1  0
  7  2  1  0
  7  1  2  0
 10  9  2  0
 10 19  1  0
 11 19  1  0
 12 17  1  0
 13 14  1  0
 13 12  1  0
 15 14  1  0
 15 24  1  0
 15 16  1  0
 17 11  1  0
 17 16  1  0
 18 11  2  0
 19 20  1  0
 21 22  2  0
 22 41  1  0
 23 22  1  0
 23 26  1  0
 24 21  1  0
 24 25  1  0
 25 23  2  0
 26 27  1  0
 27 28  2  0
 29 32  1  0
 29 28  1  0
 30 29  2  0
 31 30  1  0
 31 26  2  0
 32 33  1  0
 33 34  1  0
 34 35  2  0
 36 35  1  0
 36 40  1  0
 37 36  2  0
 38 33  2  0
 38 37  1  0
 39 38  1  0
 41 42  1  0
 42 45  1  0
 42 44  1  0
 43 41  2  0
 46 47  1  0
 46 21  1  0
 48 46  1  0
 49 50  1  0
 51 53  1  0
 51 50  1  0
 52 63  2  0
 53 58  1  0
 54 62  1  0
 54 64  1  0
 55 61  1  0
 55 57  1  0
 56 62  1  0
 57 56  1  0
 58 57  2  0
 59 53  2  0
 60 59  1  0
 60 55  2  0
 61 54  1  0
 62 52  1  0
 64 66  2  0
 65 64  1  0
 67 65  1  0
 68 77  2  0
 68 73  1  0
 69 65  1  0
 69 73  1  0
 70 69  1  0
 71 72  1  0
 71 70  1  0
 72 68  1  0
 73 74  2  0
 74 75  1  0
 76 75  2  0
 77 76  1  0
 78 52  1  0
 78 83  1  0
 78 79  1  0
 79 82  1  1
 79 80  1  0
 81 79  1  0
 83 86  1  0
 84 88  1  0
 84 83  1  0
 85 84  2  0
 88 87  1  0
 90 88  1  0
 90 91  1  0
 90 89  1  0
M  ISO  4  11 100  19 100  50 101  51 101
M  END
>  <TORSDO>  (10) 
F 20

>  <SCORE>  (10) 
-13.808

>  <name>  (10) 
9

>  <ligand_id>  (10) 
9

>  <original_smiles>  (10) 
[H]c1c([H])c([H])c2c(c1[H])C([H])([H])C([H])([H])C([H])([H])C2([H])N([H])C(=O)C1([H])N(C(=O)C([H])(N([H])C(=O)C([H])(N([H])C([H])([H])[H])C([H])([H])[H])C(C([H])([H])[H])(C([H])([H])[H])C([H])([H])[H])C([H])([H])c2c([H])c(OC([H])([H])C([H])([H])c3nc(C([H])([H])C([H])([H])N([H])C(=O)N4C([H])([H])C([H])([H])C([H])([H])C([H])(n5nc(-c6c([H])c([H])c(Oc7c([H])c([H])c(F)c([H])c7F)c([H])c6[H])c(C(=O)N([H])[H])c5N([H])[H])C4([H])[H])c(C([H])([H])[H])nc3C([H])([H])[H])c([H])c([H])c2C1([H])[H]

>  <smiles>  (10) 
[H]c1c([H])c([H])c2c(c1[H])C([H])([H])C([H])([H])C([H])([H])C2([H])N([H])C(=O)C1([H])N(C(=O)C([H])(N([H])C(=O)C([H])(N([H])C([H])([H])[H])C([H])([H])[H])C(C([H])([H])[H])(C([H])([H])[H])C([H])([H])[H])C([H])([H])c2c([H])c(OC([H])([H])C([H])([H])c3nc(C([H])([H])C([H])([H])N([H])C(=O)N4C([H])([H])C([H])([H])C([H])([H])C([H])(n5nc(-c6c([H])c([H])c(Oc7c([H])c([H])c(F)c([H])c7F)c([H])c6[H])c(C(=O)N([H])[H])c5N([H])[H])C4([H])[H])c(C([H])([H])[H])nc3C([H])([H])[H])c([H])c([H])c2C1([H])[H]

$$$$
10:0:0
     RDKit          3D

 93101  0  0  1  0  0  0  0  0999 V2000
  -30.8410  -23.2760   18.3450 C   0  0  0  0  0  3  0  0  0  0  0  0
  -30.7780  -24.6440   18.8750 C   0  0  0  0  0  0  0  0  0  0  0  0
  -29.7850  -22.4690   18.7720 C   0  0  0  0  0  0  0  0  0  0  0  0
  -29.6550  -24.6090   19.6680 C   0  0  0  0  0  0  0  0  0  0  0  0
  -29.0460  -25.7250   20.4770 C   0  0  0  0  0  1  0  0  0  0  0  0
  -29.0940  -23.3160   19.6520 N   0  0  0  0  0  0  0  0  0  0  0  0
  -28.4180  -22.3010   21.8120 C   0  0  0  0  0  1  0  0  0  0  0  0
  -27.9470  -22.9070   20.4780 C   0  0  0  0  0  2  0  0  0  0  0  0
  -29.2150  -20.9980   18.5630 C   0  0  0  0  0  2  0  0  0  0  0  0
  -29.9390  -19.5670   18.6940 C   0  0  0  0  0  2  0  0  0  0  0  0
  -32.0170  -18.4500   17.4580 C   0  0  0  0  0  0  0  0  0  0  0  0
  -34.3110  -17.4670   17.4490 C   0  0  0  0  0  2  0  0  0  0  0  0
  -34.8910  -17.5430   18.8800 C   0  0  0  0  0  2  0  0  0  0  0  0
  -35.5750  -18.9030   19.1290 C   0  0  0  0  0  2  0  0  0  0  0  0
  -34.7010  -20.1020   18.6720 C   0  0  0  0  0  3  0  0  0  0  0  0
  -34.1160  -19.8700   17.2590 C   0  0  0  0  0  2  0  0  0  0  0  0
  -33.3740  -18.6010   17.2890 N   0  0  0  0  0  0  0  0  0  0  0  0
  -31.4850  -17.3520   17.2830 O   0  0  0  0  0  0  0  0  0  0  0  0
  -31.3220  -19.4960   18.0380 N   0  0  0  0  0  0  0  0  0  0  0  0
  -31.8700  -20.3360   18.1270 H   0  0  0  0  0  0  0  0  0  0  0  0
  -35.5210  -22.2290   19.8570 C   0  0  0  0  0  0  0  0  0  0  0  0
  -36.3730  -23.2290   19.4670 C   0  0  0  0  0  0  0  0  0  0  0  0
  -36.7650  -22.9140   18.1300 C   0  0  0  0  0  0  0  0  0  0  0  0
  -35.4240  -21.3680   18.7740 N   0  0  0  0  0  0  0  0  0  0  0  0
  -36.1340  -21.8240   17.7100 N   0  0  0  0  0  0  0  0  0  0  0  0
  -37.7470  -23.5600   17.2480 C   0  0  0  0  0  0  0  0  0  0  0  0
  -37.3520  -24.4710   16.2430 C   0  0  0  0  0  3  0  0  0  0  0  0
  -38.3180  -25.0910   15.4200 C   0  0  0  0  0  3  0  0  0  0  0  0
  -39.6920  -24.8080   15.6010 C   0  0  0  0  0  0  0  0  0  0  0  0
  -40.0790  -23.8840   16.5880 C   0  0  0  0  0  3  0  0  0  0  0  0
  -39.1170  -23.2630   17.4020 C   0  0  0  0  0  3  0  0  0  0  0  0
  -40.6970  -25.3450   14.8320 O   0  0  0  0  0  0  0  0  0  0  0  0
  -41.2080  -26.5930   15.0830 C   0  0  0  0  0  0  0  0  0  0  0  0
  -42.3080  -26.7890   15.9480 C   0  0  0  0  0  3  0  0  0  0  0  0
  -42.8440  -28.0790   16.1230 C   0  0  0  0  0  3  0  0  0  0  0  0
  -42.2920  -29.1720   15.4300 C   0  0  0  0  0  0  0  0  0  0  0  0
  -41.2000  -28.9800   14.5650 C   0  0  0  0  0  3  0  0  0  0  0  0
  -40.6620  -27.6920   14.3910 C   0  0  0  0  0  0  0  0  0  0  0  0
  -39.6240  -27.5090   13.5400 F   0  0  0  0  0  0  0  0  0  0  0  0
  -42.8120  -30.4120   15.5930 F   0  0  0  0  0  0  0  0  0  0  0  0
  -36.8750  -24.3550   20.3230 C   0  0  0  0  0  0  0  0  0  0  0  0
  -37.0980  -25.5260   19.7340 N   0  0  0  0  0  0  0  0  0  0  0  0
  -37.0260  -24.2160   21.5360 O   0  0  0  0  0  0  0  0  0  0  0  0
  -36.9600  -25.6490   18.7420 H   0  0  0  0  0  0  0  0  0  0  0  0
  -37.4120  -26.3110   20.2860 H   0  0  0  0  0  0  0  0  0  0  0  0
  -34.8440  -21.9700   21.0450 N   0  0  0  0  0  0  0  0  0  0  0  0
  -34.9730  -22.5550   21.8650 H   0  0  0  0  0  0  0  0  0  0  0  0
  -34.3340  -21.1220   21.2440 H   0  0  0  0  0  0  0  0  0  0  0  0
  -31.7250  -25.9130   18.5740 C   0  0  0  0  0  3  0  0  0  0  0  0
  -30.3720  -26.3830   16.4140 C   0  0  0  0  0  1  0  0  0  0  0  0
  -30.9470  -26.9400   17.7260 C   0  0  0  0  0  2  0  0  0  0  0  0
  -32.4150  -26.7340   19.7910 C   0  0  0  0  0  2  0  0  0  0  0  0
  -33.4410  -27.8160   19.5840 O   0  0  0  0  0  0  0  0  0  0  0  0
  -40.1530  -29.8980   21.3820 C   0  0  0  0  0  0  0  0  0  0  0  0
  -34.4420  -27.9690   20.5650 C   0  0  0  0  0  0  0  0  0  0  0  0
  -39.0180  -28.3310   22.9160 C   0  0  0  0  0  3  0  0  0  0  0  0
  -36.4980  -28.0530   22.5620 C   0  0  0  0  0  0  0  0  0  0  0  0
  -37.6530  -29.9990   21.5190 C   0  0  0  0  0  2  0  0  0  0  0  0
  -36.5060  -28.9910   21.5220 C   0  0  0  0  0  0  0  0  0  0  0  0
  -35.4810  -28.9580   20.5270 C   0  0  0  0  0  3  0  0  0  0  0  0
  -34.4430  -27.0930   21.6720 C   0  0  0  0  0  3  0  0  0  0  0  0
  -35.4600  -27.1140   22.6460 C   0  0  0  0  0  3  0  0  0  0  0  0
  -37.6310  -28.0960   23.5710 C   0  0  0  0  0  2  0  0  0  0  0  0
  -38.9780  -29.4270   21.8930 N   0  0  0  0  0  0  0  0  0  0  0  0
  -41.2450  -29.4550   21.7670 O   0  0  0  0  0  0  0  0  0  0  0  0
  -39.5380  -26.9870   22.3500 C   0  0  0  0  0  0  0  0  0  0  0  0
  -40.1520  -26.1610   23.2150 N   0  0  0  0  0  0  0  0  0  0  0  0
  -39.3630  -26.6960   21.1640 O   0  0  0  0  0  0  0  0  0  0  0  0
  -40.2660  -26.4720   24.1690 H   0  0  0  0  0  0  0  0  0  0  0  0
  -42.6770  -23.7430   24.1380 C   0  0  0  0  0  0  0  0  0  0  0  0
  -40.6830  -24.8340   22.9040 C   0  0  0  0  0  3  0  0  0  0  0  0
  -39.8170  -23.7190   23.5360 C   0  0  0  0  0  2  0  0  0  0  0  0
  -40.3160  -23.2790   24.9170 C   0  0  0  0  0  2  0  0  0  0  0  0
  -41.7520  -22.7550   24.8290 C   0  0  0  0  0  2  0  0  0  0  0  0
  -42.1740  -24.7280   23.2460 C   0  0  0  0  0  0  0  0  0  0  0  0
  -43.0760  -25.6440   22.6610 C   0  0  0  0  0  3  0  0  0  0  0  0
  -44.4520  -25.5820   22.9500 C   0  0  0  0  0  3  0  0  0  0  0  0
  -44.9450  -24.5980   23.8240 C   0  0  0  0  0  3  0  0  0  0  0  0
  -44.0590  -23.6780   24.4140 C   0  0  0  0  0  3  0  0  0  0  0  0
  -40.1830  -31.0280   20.3080 C   0  0  0  0  0  3  0  0  0  0  0  0
  -40.9520  -32.1510   20.8660 N   0  0  0  0  0  0  0  0  0  0  0  0
  -40.4220  -33.1740   21.5500 C   0  0  0  0  0  0  0  0  0  0  0  0
  -39.2080  -33.3080   21.7200 O   0  0  0  0  0  0  0  0  0  0  0  0
  -41.9570  -32.0810   20.8050 H   0  0  0  0  0  0  0  0  0  0  0  0
  -41.4530  -34.0510   23.6700 C   0  0  0  0  0  1  0  0  0  0  0  0
  -41.3960  -34.2120   22.1420 C   0  0  0  0  0  3  0  0  0  0  0  0
  -41.2920  -35.9360   20.3990 C   0  0  0  0  0  1  0  0  0  0  0  0
  -41.0470  -35.6080   21.8010 N   0  0  0  0  0  0  0  0  0  0  0  0
  -41.5720  -36.2620   22.3770 H   0  0  0  0  0  0  0  0  0  0  0  0
  -40.7980  -30.5610   18.9340 C   0  0  1  0  0  0  0  0  0  0  0  0
  -42.3410  -30.4550   18.9460 C   0  0  0  0  0  1  0  0  0  0  0  0
  -40.2340  -29.1820   18.5230 C   0  0  0  0  0  1  0  0  0  0  0  0
  -40.3990  -31.5520   17.8150 C   0  0  0  0  0  1  0  0  0  0  0  0
  1  3  2  0
  1  2  1  0
  2  4  2  0
  3  6  1  0
  4  5  1  0
  6  4  1  0
  6  8  1  0
  8  7  1  0
  9 10  1  0
  9  3  1  0
 11 19  1  0
 12 13  1  0
 13 14  1  0
 15 16  1  0
 15 24  1  0
 15 14  1  0
 16 17  1  0
 17 12  1  0
 17 11  1  0
 18 11  2  0
 19 20  1  0
 19 10  1  0
 21 46  1  0
 22 21  2  0
 22 41  1  0
 23 22  1  0
 24 21  1  0
 25 23  2  0
 25 24  1  0
 26 31  1  0
 26 23  1  0
 27 26  2  0
 28 29  2  0
 28 27  1  0
 29 30  1  0
 30 31  2  0
 32 33  1  0
 32 29  1  0
 33 34  1  0
 34 35  2  0
 36 40  1  0
 36 35  1  0
 37 36  2  0
 38 37  1  0
 38 33  2  0
 39 38  1  0
 41 43  2  0
 42 45  1  0
 42 41  1  0
 44 42  1  0
 46 48  1  0
 46 47  1  0
 49 51  1  0
 49  2  1  0
 49 52  1  0
 50 51  1  0
 53 52  1  0
 53 55  1  0
 54 65  2  0
 54 64  1  0
 55 61  1  0
 56 66  1  0
 56 63  1  0
 57 62  1  0
 57 63  1  0
 58 59  1  0
 58 64  1  0
 59 57  2  0
 60 55  2  0
 60 59  1  0
 61 62  2  0
 64 56  1  0
 66 67  1  0
 67 69  1  0
 68 66  2  0
 70 79  1  0
 70 74  1  0
 71 67  1  0
 71 75  1  0
 71 72  1  0
 72 73  1  0
 74 73  1  0
 75 70  2  0
 76 77  2  0
 76 75  1  0
 77 78  1  0
 78 79  2  0
 80 81  1  0
 80 54  1  0
 81 82  1  0
 82 83  2  0
 82 86  1  0
 84 81  1  0
 86 85  1  0
 87 88  1  0
 88 86  1  0
 88 89  1  0
 90 91  1  1
 90 80  1  0
 92 90  1  0
 93 90  1  0
M  ISO  4  11 100  19 100  52 101  53 101
M  END
>  <TORSDO>  (11) 
F 22

>  <SCORE>  (11) 
-2.600

>  <name>  (11) 
10

>  <ligand_id>  (11) 
10

>  <original_smiles>  (11) 
[H]c1c([H])c([H])c2c(c1[H])C([H])([H])C([H])([H])C([H])([H])C2([H])N([H])C(=O)C1([H])N(C(=O)C([H])(N([H])C(=O)C([H])(N([H])C([H])([H])[H])C([H])([H])[H])C(C([H])([H])[H])(C([H])([H])[H])C([H])([H])[H])C([H])([H])c2c([H])c(OC([H])([H])C([H])(c3c([H])c(C([H])([H])C([H])([H])N([H])C(=O)N4C([H])([H])C([H])([H])C([H])([H])C([H])(n5nc(-c6c([H])c([H])c(Oc7c([H])c([H])c(F)c([H])c7F)c([H])c6[H])c(C(=O)N([H])[H])c5N([H])[H])C4([H])[H])n(C([H])([H])C([H])([H])[H])c3C([H])([H])[H])C([H])([H])C([H])([H])[H])c([H])c([H])c2C1([H])[H]

>  <smiles>  (11) 
[H]c1c([H])c([H])c2c(c1[H])C([H])([H])C([H])([H])C([H])([H])C2([H])N([H])C(=O)C1([H])N(C(=O)C([H])(N([H])C(=O)C([H])(N([H])C([H])([H])[H])C([H])([H])[H])C(C([H])([H])[H])(C([H])([H])[H])C([H])([H])[H])C([H])([H])c2c([H])c(OC([H])([H])C([H])(c3c([H])c(C([H])([H])C([H])([H])N([H])C(=O)N4C([H])([H])C([H])([H])C([H])([H])C([H])(n5nc(-c6c([H])c([H])c(Oc7c([H])c([H])c(F)c([H])c7F)c([H])c6[H])c(C(=O)N([H])[H])c5N([H])[H])C4([H])[H])n(C([H])([H])C([H])([H])[H])c3C([H])([H])[H])C([H])([H])C([H])([H])[H])c([H])c([H])c2C1([H])[H]

$$$$
11:0:0
     RDKit          3D

 92100  0  0  1  0  0  0  0  0999 V2000
  -30.0970  -20.5290   19.7410 C   0  0  0  0  0  3  0  0  0  0  0  0
  -28.1870  -19.0570   19.7820 C   0  0  0  0  0  3  0  0  0  0  0  0
  -29.5810  -19.2070   19.8430 C   0  0  0  0  0  0  0  0  0  0  0  0
  -29.2160  -21.6270   19.5020 C   0  0  0  0  0  0  0  0  0  0  0  0
  -27.8420  -21.3190   19.3570 C   0  0  0  0  0  0  0  0  0  0  0  0
  -26.8160  -22.3330   18.8920 C   0  0  0  0  0  1  0  0  0  0  0  0
  -27.3440  -20.0800   19.5410 N   0  0  0  0  0  0  0  0  0  0  0  0
  -30.4670  -17.9430   19.8590 C   0  0  0  0  0  2  0  0  0  0  0  0
  -30.3750  -17.0290   21.1240 C   0  0  0  0  0  2  0  0  0  0  0  0
  -30.7360  -14.6280   20.2940 C   0  0  0  0  0  0  0  0  0  0  0  0
  -30.4220  -12.4930   19.0830 C   0  0  0  0  0  2  0  0  0  0  0  0
  -29.4240  -12.7120   17.9250 C   0  0  0  0  0  2  0  0  0  0  0  0
  -27.9700  -12.5460   18.4110 C   0  0  0  0  0  2  0  0  0  0  0  0
  -27.6810  -13.3480   19.7090 C   0  0  0  0  0  3  0  0  0  0  0  0
  -28.7840  -13.1000   20.7630 C   0  0  0  0  0  2  0  0  0  0  0  0
  -30.0790  -13.4440   20.1500 N   0  0  0  0  0  0  0  0  0  0  0  0
  -31.8520  -14.8400   19.8150 O   0  0  0  0  0  0  0  0  0  0  0  0
  -30.0130  -15.6160   20.8640 N   0  0  0  0  0  0  0  0  0  0  0  0
  -29.0980  -15.3350   21.1840 H   0  0  0  0  0  0  0  0  0  0  0  0
  -25.3130  -13.9330   20.5280 C   0  0  0  0  0  0  0  0  0  0  0  0
  -24.2620  -13.1490   20.9210 C   0  0  0  0  0  0  0  0  0  0  0  0
  -24.7230  -11.7990   20.8390 C   0  0  0  0  0  0  0  0  0  0  0  0
  -26.3480  -13.0590   20.2360 N   0  0  0  0  0  0  0  0  0  0  0  0
  -26.0000  -11.7700   20.4800 N   0  0  0  0  0  0  0  0  0  0  0  0
  -24.0060  -10.5320   21.0250 C   0  0  0  0  0  0  0  0  0  0  0  0
  -24.4490   -9.5610   21.9510 C   0  0  0  0  0  3  0  0  0  0  0  0
  -23.7320   -8.3580   22.1240 C   0  0  0  0  0  3  0  0  0  0  0  0
  -22.5580   -8.1160   21.3740 C   0  0  0  0  0  0  0  0  0  0  0  0
  -22.1350   -9.0750   20.4350 C   0  0  0  0  0  3  0  0  0  0  0  0
  -22.8520  -10.2690   20.2600 C   0  0  0  0  0  3  0  0  0  0  0  0
  -21.8110   -6.9660   21.4570 O   0  0  0  0  0  0  0  0  0  0  0  0
  -21.7460   -6.2340   22.6170 C   0  0  0  0  0  0  0  0  0  0  0  0
  -21.2410   -6.7810   23.8150 C   0  0  0  0  0  3  0  0  0  0  0  0
  -21.1260   -5.9730   24.9650 C   0  0  0  0  0  3  0  0  0  0  0  0
  -21.5050   -4.6190   24.9140 C   0  0  0  0  0  0  0  0  0  0  0  0
  -22.0020   -4.0710   23.7200 C   0  0  0  0  0  3  0  0  0  0  0  0
  -22.1190   -4.8760   22.5730 C   0  0  0  0  0  0  0  0  0  0  0  0
  -22.5800   -4.3370   21.4180 F   0  0  0  0  0  0  0  0  0  0  0  0
  -21.3870   -3.8400   26.0160 F   0  0  0  0  0  0  0  0  0  0  0  0
  -22.8760  -13.6150   21.2610 C   0  0  0  0  0  0  0  0  0  0  0  0
  -22.1850  -12.8950   22.1370 N   0  0  0  0  0  0  0  0  0  0  0  0
  -22.4160  -14.6520   20.7850 O   0  0  0  0  0  0  0  0  0  0  0  0
  -22.5710  -12.0550   22.5450 H   0  0  0  0  0  0  0  0  0  0  0  0
  -21.2550  -13.1870   22.4080 H   0  0  0  0  0  0  0  0  0  0  0  0
  -25.4700  -15.3080   20.3770 N   0  0  0  0  0  0  0  0  0  0  0  0
  -24.7020  -15.9560   20.5100 H   0  0  0  0  0  0  0  0  0  0  0  0
  -26.3040  -15.7510   20.0130 H   0  0  0  0  0  0  0  0  0  0  0  0
  -29.7770  -23.0520   19.2250 C   0  0  0  0  0  2  0  0  0  0  0  0
  -29.1960  -23.7820   21.6530 C   0  0  0  0  0  1  0  0  0  0  0  0
  -29.4980  -24.2500   20.2190 C   0  0  0  0  0  3  0  0  0  0  0  0
  -28.4270  -25.2770   19.7180 C   0  0  0  0  0  2  0  0  0  0  0  0
  -28.4650  -26.6170   20.2780 O   0  0  0  0  0  0  0  0  0  0  0  0
  -24.5510  -31.8340   23.2580 C   0  0  0  0  0  0  0  0  0  0  0  0
  -27.3030  -27.3870   20.2100 C   0  0  0  0  0  0  0  0  0  0  0  0
  -23.4060  -30.4550   21.5600 C   0  0  0  0  0  3  0  0  0  0  0  0
  -24.9100  -28.9350   20.1630 C   0  0  0  0  0  0  0  0  0  0  0  0
  -25.9460  -30.7900   21.4710 C   0  0  0  0  0  2  0  0  0  0  0  0
  -26.0500  -29.4290   20.8090 C   0  0  0  0  0  0  0  0  0  0  0  0
  -27.2460  -28.6630   20.8320 C   0  0  0  0  0  3  0  0  0  0  0  0
  -26.1410  -26.9360   19.5360 C   0  0  0  0  0  3  0  0  0  0  0  0
  -24.9540  -27.6900   19.5220 C   0  0  0  0  0  3  0  0  0  0  0  0
  -23.6670  -29.8010   20.1780 C   0  0  0  0  0  2  0  0  0  0  0  0
  -24.6510  -31.0420   22.1540 N   0  0  0  0  0  0  0  0  0  0  0  0
  -23.4500  -32.1040   23.7590 O   0  0  0  0  0  0  0  0  0  0  0  0
  -22.7180  -29.4200   22.4800 C   0  0  0  0  0  0  0  0  0  0  0  0
  -21.3960  -29.2490   22.3100 N   0  0  0  0  0  0  0  0  0  0  0  0
  -23.3700  -28.7800   23.3090 O   0  0  0  0  0  0  0  0  0  0  0  0
  -20.9310  -29.8140   21.6130 H   0  0  0  0  0  0  0  0  0  0  0  0
  -17.9970  -28.0940   22.7090 C   0  0  0  0  0  0  0  0  0  0  0  0
  -20.5510  -28.3060   23.0420 C   0  0  0  0  0  3  0  0  0  0  0  0
  -20.6470  -26.8870   22.4350 C   0  0  0  0  0  2  0  0  0  0  0  0
  -19.5610  -26.6050   21.3890 C   0  0  0  0  0  2  0  0  0  0  0  0
  -18.1690  -26.7570   22.0050 C   0  0  0  0  0  2  0  0  0  0  0  0
  -19.1170  -28.8270   23.1810 C   0  0  0  0  0  0  0  0  0  0  0  0
  -18.9030  -30.0810   23.7960 C   0  0  0  0  0  3  0  0  0  0  0  0
  -17.6030  -30.5970   23.9480 C   0  0  0  0  0  3  0  0  0  0  0  0
  -16.4960  -29.8580   23.4940 C   0  0  0  0  0  3  0  0  0  0  0  0
  -16.6940  -28.6100   22.8790 C   0  0  0  0  0  3  0  0  0  0  0  0
  -25.8130  -32.4570   23.9310 C   0  0  0  0  0  3  0  0  0  0  0  0
  -25.5080  -33.8630   24.2300 N   0  0  0  0  0  0  0  0  0  0  0  0
  -25.8670  -34.9000   23.4630 C   0  0  0  0  0  0  0  0  0  0  0  0
  -26.5640  -34.7750   22.4520 O   0  0  0  0  0  0  0  0  0  0  0  0
  -24.8940  -34.0360   25.0130 H   0  0  0  0  0  0  0  0  0  0  0  0
  -24.1670  -36.7000   23.0230 C   0  0  0  0  0  1  0  0  0  0  0  0
  -25.3760  -36.2980   23.8830 C   0  0  0  0  0  3  0  0  0  0  0  0
  -27.4790  -37.1900   24.7860 C   0  0  0  0  0  1  0  0  0  0  0  0
  -26.4220  -37.3420   23.7890 N   0  0  0  0  0  0  0  0  0  0  0  0
  -26.0160  -38.2690   23.8970 H   0  0  0  0  0  0  0  0  0  0  0  0
  -26.2630  -31.6950   25.2380 C   0  0  1  0  0  0  0  0  0  0  0  0
  -25.1180  -31.4720   26.2530 C   0  0  0  0  0  1  0  0  0  0  0  0
  -26.8540  -30.3110   24.8900 C   0  0  0  0  0  1  0  0  0  0  0  0
  -27.3870  -32.4870   25.9480 C   0  0  0  0  0  1  0  0  0  0  0  0
  1  3  1  0
  2  3  2  0
  3  8  1  0
  4  1  2  0
  5  4  1  0
  5  7  2  0
  6  5  1  0
  7  2  1  0
  8  9  1  0
 10 18  1  0
 11 16  1  0
 12 13  1  0
 12 11  1  0
 14 13  1  0
 14 23  1  0
 14 15  1  0
 16 10  1  0
 16 15  1  0
 17 10  2  0
 18  9  1  0
 18 19  1  0
 20 21  2  0
 21 40  1  0
 22 21  1  0
 22 25  1  0
 23 24  1  0
 23 20  1  0
 24 22  2  0
 25 26  1  0
 26 27  2  0
 28 31  1  0
 28 27  1  0
 29 28  2  0
 30 29  1  0
 30 25  2  0
 31 32  1  0
 32 33  1  0
 33 34  2  0
 35 34  1  0
 35 39  1  0
 36 35  2  0
 37 32  2  0
 37 36  1  0
 38 37  1  0
 40 41  1  0
 41 44  1  0
 41 43  1  0
 42 40  2  0
 45 46  1  0
 45 20  1  0
 47 45  1  0
 48  4  1  0
 48 50  1  0
 50 49  1  0
 51 50  1  0
 51 52  1  0
 53 64  2  0
 54 52  1  0
 54 59  1  0
 55 63  1  0
 55 65  1  0
 56 62  1  0
 56 58  1  0
 57 63  1  0
 58 59  2  0
 58 57  1  0
 60 54  2  0
 61 60  1  0
 61 56  2  0
 62 55  1  0
 63 53  1  0
 65 67  2  0
 66 65  1  0
 68 66  1  0
 69 78  2  0
 69 74  1  0
 70 66  1  0
 70 74  1  0
 71 70  1  0
 72 73  1  0
 72 71  1  0
 73 69  1  0
 74 75  2  0
 75 76  1  0
 77 76  2  0
 78 77  1  0
 79 53  1  0
 79 80  1  0
 79 89  1  0
 80 83  1  0
 81 85  1  0
 81 80  1  0
 82 81  2  0
 85 84  1  0
 87 85  1  0
 87 88  1  0
 87 86  1  0
 89 92  1  1
 89 90  1  0
 91 89  1  0
M  ISO  4  10 100  18 100  51 101  52 101
M  END
>  <TORSDO>  (12) 
F 21

>  <SCORE>  (12) 
-13.517

>  <name>  (12) 
11

>  <ligand_id>  (12) 
11

>  <original_smiles>  (12) 
[H]c1nc(C([H])([H])[H])c(C([H])([H])C([H])(C([H])([H])[H])C([H])([H])Oc2c([H])c([H])c3c(c2[H])C([H])([H])N(C(=O)C([H])(N([H])C(=O)C([H])(N([H])C([H])([H])[H])C([H])([H])[H])C(C([H])([H])[H])(C([H])([H])[H])C([H])([H])[H])C([H])(C(=O)N([H])C2([H])c4c([H])c([H])c([H])c([H])c4C([H])([H])C([H])([H])C2([H])[H])C3([H])[H])c([H])c1C([H])([H])C([H])([H])N([H])C(=O)N1C([H])([H])C([H])([H])C([H])([H])C([H])(n2nc(-c3c([H])c([H])c(Oc4c([H])c([H])c(F)c([H])c4F)c([H])c3[H])c(C(=O)N([H])[H])c2N([H])[H])C1([H])[H]

>  <smiles>  (12) 
[H]c1nc(C([H])([H])[H])c(C([H])([H])C([H])(C([H])([H])[H])C([H])([H])Oc2c([H])c([H])c3c(c2[H])C([H])([H])N(C(=O)C([H])(N([H])C(=O)C([H])(N([H])C([H])([H])[H])C([H])([H])[H])C(C([H])([H])[H])(C([H])([H])[H])C([H])([H])[H])C([H])(C(=O)N([H])C2([H])c4c([H])c([H])c([H])c([H])c4C([H])([H])C([H])([H])C2([H])[H])C3([H])[H])c([H])c1C([H])([H])C([H])([H])N([H])C(=O)N1C([H])([H])C([H])([H])C([H])([H])C([H])(n2nc(-c3c([H])c([H])c(Oc4c([H])c([H])c(F)c([H])c4F)c([H])c3[H])c(C(=O)N([H])[H])c2N([H])[H])C1([H])[H]

$$$$
12:0:0
     RDKit          3D

 90 98  0  0  1  0  0  0  0  0999 V2000
  -29.0310  -22.6360   19.1730 C   0  0  0  0  0  0  0  0  0  0  0  0
  -28.7840  -23.8630   19.8980 C   0  0  0  0  0  0  0  0  0  0  0  0
  -29.3480  -21.5940   20.0350 C   0  0  0  0  0  0  0  0  0  0  0  0
  -29.4040  -21.6390   22.5850 C   0  0  0  0  0  1  0  0  0  0  0  0
  -28.8620  -23.5600   21.1950 N   0  0  0  0  0  0  0  0  0  0  0  0
  -29.1970  -22.2200   21.2720 N   0  0  0  0  0  0  0  0  0  0  0  0
  -29.0360  -22.5160   17.4480 Cl  0  0  0  0  0  0  0  0  0  0  0  0
  -28.5270  -25.3100   19.3010 C   0  0  0  0  0  2  0  0  0  0  0  0
  -28.3750  -26.5420   20.1240 O   0  0  0  0  0  0  0  0  0  0  0  0
  -24.6040  -31.8820   23.1770 C   0  0  0  0  0  0  0  0  0  0  0  0
  -27.2440  -27.3820   20.0460 C   0  0  0  0  0  0  0  0  0  0  0  0
  -23.4050  -30.4990   21.5180 C   0  0  0  0  0  3  0  0  0  0  0  0
  -24.8660  -28.9860   20.0630 C   0  0  0  0  0  0  0  0  0  0  0  0
  -25.9380  -30.8500   21.3220 C   0  0  0  0  0  2  0  0  0  0  0  0
  -26.0320  -29.4780   20.6620 C   0  0  0  0  0  0  0  0  0  0  0  0
  -27.2190  -28.6820   20.6480 C   0  0  0  0  0  3  0  0  0  0  0  0
  -26.0460  -26.9480   19.4350 C   0  0  0  0  0  3  0  0  0  0  0  0
  -24.8750  -27.7290   19.4440 C   0  0  0  0  0  3  0  0  0  0  0  0
  -23.6220  -29.8520   20.1250 C   0  0  0  0  0  2  0  0  0  0  0  0
  -24.6690  -31.0930   22.0650 N   0  0  0  0  0  0  0  0  0  0  0  0
  -23.5210  -32.1410   23.7220 O   0  0  0  0  0  0  0  0  0  0  0  0
  -22.7580  -29.4620   22.4670 C   0  0  0  0  0  0  0  0  0  0  0  0
  -21.4390  -29.2520   22.3230 N   0  0  0  0  0  0  0  0  0  0  0  0
  -23.4420  -28.8500   23.2880 O   0  0  0  0  0  0  0  0  0  0  0  0
  -20.9430  -29.8000   21.6350 H   0  0  0  0  0  0  0  0  0  0  0  0
  -18.0950  -27.9400   22.7430 C   0  0  0  0  0  0  0  0  0  0  0  0
  -20.6340  -28.2920   23.0830 C   0  0  0  0  0  3  0  0  0  0  0  0
  -20.8040  -26.8600   22.5240 C   0  0  0  0  0  2  0  0  0  0  0  0
  -19.7430  -26.4900   21.4830 C   0  0  0  0  0  2  0  0  0  0  0  0
  -18.3390  -26.5930   22.0860 C   0  0  0  0  0  2  0  0  0  0  0  0
  -19.1730  -28.7460   23.1980 C   0  0  0  0  0  0  0  0  0  0  0  0
  -18.8930  -30.0050   23.7720 C   0  0  0  0  0  3  0  0  0  0  0  0
  -17.5680  -30.4600   23.9000 C   0  0  0  0  0  3  0  0  0  0  0  0
  -16.5030  -29.6520   23.4630 C   0  0  0  0  0  3  0  0  0  0  0  0
  -16.7670  -28.3950   22.8890 C   0  0  0  0  0  3  0  0  0  0  0  0
  -25.8810  -32.5180   23.8020 C   0  0  0  0  0  3  0  0  0  0  0  0
  -26.4090  -31.7380   25.0670 C   0  0  1  0  0  0  0  0  0  0  0  0
  -25.3240  -31.4760   26.1360 C   0  0  0  0  0  1  0  0  0  0  0  0
  -26.9980  -30.3690   24.6550 C   0  0  0  0  0  1  0  0  0  0  0  0
  -27.5580  -32.5290   25.7350 C   0  0  0  0  0  1  0  0  0  0  0  0
  -25.5660  -33.9120   24.1490 N   0  0  0  0  0  0  0  0  0  0  0  0
  -25.8920  -34.9760   23.4010 C   0  0  0  0  0  0  0  0  0  0  0  0
  -26.5610  -34.8880   22.3680 O   0  0  0  0  0  0  0  0  0  0  0  0
  -24.9750  -34.0560   24.9540 H   0  0  0  0  0  0  0  0  0  0  0  0
  -24.1590  -36.7690   23.0620 C   0  0  0  0  0  1  0  0  0  0  0  0
  -25.3960  -36.3560   23.8760 C   0  0  0  0  0  3  0  0  0  0  0  0
  -27.5180  -37.2410   24.7360 C   0  0  0  0  0  1  0  0  0  0  0  0
  -26.4240  -37.4150   23.7850 N   0  0  0  0  0  0  0  0  0  0  0  0
  -26.0130  -38.3300   23.9410 H   0  0  0  0  0  0  0  0  0  0  0  0
  -29.9230  -20.1470   19.7370 C   0  0  0  0  0  2  0  0  0  0  0  0
  -29.5610  -18.7530   20.4760 C   0  0  0  0  0  3  0  0  0  0  0  0
  -30.3960  -17.4340   20.0160 C   0  0  0  0  0  3  0  0  0  0  0  0
  -30.7670  -14.8520   20.2520 C   0  0  0  0  0  0  0  0  0  0  0  0
  -30.5080  -12.5990   19.2170 C   0  0  0  0  0  2  0  0  0  0  0  0
  -29.5650  -12.6980   17.9990 C   0  0  0  0  0  2  0  0  0  0  0  0
  -28.0940  -12.5590   18.4340 C   0  0  0  0  0  2  0  0  0  0  0  0
  -27.7460  -13.4220   19.6720 C   0  0  0  0  0  3  0  0  0  0  0  0
  -28.8100  -13.3150   20.7890 C   0  0  0  0  0  2  0  0  0  0  0  0
  -30.1100  -13.6420   20.1920 N   0  0  0  0  0  0  0  0  0  0  0  0
  -31.9460  -14.9260   19.8910 O   0  0  0  0  0  0  0  0  0  0  0  0
  -30.0340  -16.0130   20.4630 N   0  0  0  0  0  0  0  0  0  0  0  0
  -29.0920  -15.8760   20.7930 H   0  0  0  0  0  0  0  0  0  0  0  0
  -25.3580  -14.0250   20.3860 C   0  0  0  0  0  0  0  0  0  0  0  0
  -24.2930  -13.2560   20.7710 C   0  0  0  0  0  0  0  0  0  0  0  0
  -24.7540  -11.9060   20.7570 C   0  0  0  0  0  0  0  0  0  0  0  0
  -26.4010  -13.1420   20.1640 N   0  0  0  0  0  0  0  0  0  0  0  0
  -26.0450  -11.8600   20.4490 N   0  0  0  0  0  0  0  0  0  0  0  0
  -24.0250  -10.6480   20.9620 C   0  0  0  0  0  0  0  0  0  0  0  0
  -24.4550   -9.6880   21.9040 C   0  0  0  0  0  3  0  0  0  0  0  0
  -23.7240   -8.4950   22.0960 C   0  0  0  0  0  3  0  0  0  0  0  0
  -22.5510   -8.2530   21.3420 C   0  0  0  0  0  0  0  0  0  0  0  0
  -22.1460   -9.1990   20.3820 C   0  0  0  0  0  3  0  0  0  0  0  0
  -22.8780  -10.3820   20.1900 C   0  0  0  0  0  3  0  0  0  0  0  0
  -21.7930   -7.1110   21.4410 O   0  0  0  0  0  0  0  0  0  0  0  0
  -21.7340   -6.3840   22.6030 C   0  0  0  0  0  0  0  0  0  0  0  0
  -21.2860   -6.9510   23.8170 C   0  0  0  0  0  3  0  0  0  0  0  0
  -21.1750   -6.1500   24.9700 C   0  0  0  0  0  3  0  0  0  0  0  0
  -21.5040   -4.7830   24.9140 C   0  0  0  0  0  0  0  0  0  0  0  0
  -21.9440   -4.2150   23.7060 C   0  0  0  0  0  3  0  0  0  0  0  0
  -22.0570   -5.0120   22.5540 C   0  0  0  0  0  0  0  0  0  0  0  0
  -22.4610   -4.4560   21.3880 F   0  0  0  0  0  0  0  0  0  0  0  0
  -21.3920   -4.0100   26.0190 F   0  0  0  0  0  0  0  0  0  0  0  0
  -22.8980  -13.7390   21.0380 C   0  0  0  0  0  0  0  0  0  0  0  0
  -22.1690  -13.0550   21.9120 N   0  0  0  0  0  0  0  0  0  0  0  0
  -22.4630  -14.7600   20.5080 O   0  0  0  0  0  0  0  0  0  0  0  0
  -22.5360  -12.2320   22.3670 H   0  0  0  0  0  0  0  0  0  0  0  0
  -21.2290  -13.3580   22.1280 H   0  0  0  0  0  0  0  0  0  0  0  0
  -25.5220  -15.3930   20.1860 N   0  0  0  0  0  0  0  0  0  0  0  0
  -24.7470  -16.0440   20.2690 H   0  0  0  0  0  0  0  0  0  0  0  0
  -26.3470  -15.8210   19.7940 H   0  0  0  0  0  0  0  0  0  0  0  0
  1  2  1  0
  1  3  2  0
  2  5  2  0
  3  6  1  0
  5  6  1  0
  6  4  1  0
  7  1  1  0
  8  2  1  0
  8  9  1  0
 10 21  2  0
 11  9  1  0
 11 16  1  0
 12 20  1  0
 12 22  1  0
 13 19  1  0
 13 15  1  0
 14 20  1  0
 15 14  1  0
 16 15  2  0
 17 18  1  0
 17 11  2  0
 18 13  2  0
 19 12  1  0
 20 10  1  0
 22 24  2  0
 23 22  1  0
 25 23  1  0
 26 35  2  0
 26 31  1  0
 27 23  1  0
 27 31  1  0
 28 27  1  0
 29 30  1  0
 29 28  1  0
 30 26  1  0
 31 32  2  0
 32 33  1  0
 34 33  2  0
 35 34  1  0
 36 10  1  0
 36 41  1  0
 36 37  1  0
 37 40  1  1
 37 38  1  0
 39 37  1  0
 41 44  1  0
 42 46  1  0
 42 41  1  0
 43 42  2  0
 46 45  1  0
 48 46  1  0
 48 49  1  0
 48 47  1  0
 50  3  1  0
 50 51  1  0
 52 61  1  0
 52 51  2  0
 53 61  1  0
 54 59  1  0
 55 56  1  0
 55 54  1  0
 57 56  1  0
 57 66  1  0
 57 58  1  0
 59 53  1  0
 59 58  1  0
 60 53  2  0
 61 62  1  0
 63 64  2  0
 64 83  1  0
 65 64  1  0
 65 68  1  0
 66 63  1  0
 66 67  1  0
 67 65  2  0
 68 69  1  0
 69 70  2  0
 71 74  1  0
 71 70  1  0
 72 71  2  0
 73 72  1  0
 73 68  2  0
 74 75  1  0
 75 76  1  0
 76 77  2  0
 78 77  1  0
 78 82  1  0
 79 78  2  0
 80 75  2  0
 80 79  1  0
 81 80  1  0
 83 84  1  0
 84 87  1  0
 84 86  1  0
 85 83  2  0
 88 89  1  0
 88 63  1  0
 90 88  1  0
M  ISO  4   8 101   9 101  53 100  61 100
M  END
>  <TORSDO>  (13) 
F 20

>  <SCORE>  (13) 
-13.739

>  <name>  (13) 
12

>  <ligand_id>  (13) 
12

>  <original_smiles>  (13) 
[H]c1c([H])c([H])c2c(c1[H])C([H])([H])C([H])([H])C([H])([H])C2([H])N([H])C(=O)C1([H])N(C(=O)C([H])(N([H])C(=O)C([H])(N([H])C([H])([H])[H])C([H])([H])[H])C(C([H])([H])[H])(C([H])([H])[H])C([H])([H])[H])C([H])([H])c2c([H])c(OC([H])([H])c3nn(C([H])([H])[H])c(C([H])([H])C([H])([H])C([H])([H])N([H])C(=O)N4C([H])([H])C([H])([H])C([H])([H])C([H])(n5nc(-c6c([H])c([H])c(Oc7c([H])c([H])c(F)c([H])c7F)c([H])c6[H])c(C(=O)N([H])[H])c5N([H])[H])C4([H])[H])c3Cl)c([H])c([H])c2C1([H])[H]

>  <smiles>  (13) 
[H]c1c([H])c([H])c2c(c1[H])C([H])([H])C([H])([H])C([H])([H])C2([H])N([H])C(=O)C1([H])N(C(=O)C([H])(N([H])C(=O)C([H])(N([H])C([H])([H])[H])C([H])([H])[H])C(C([H])([H])[H])(C([H])([H])[H])C([H])([H])[H])C([H])([H])c2c([H])c(OC([H])([H])c3nn(C([H])([H])[H])c(C([H])([H])C([H])([H])C([H])([H])N([H])C(=O)N4C([H])([H])C([H])([H])C([H])([H])C([H])(n5nc(-c6c([H])c([H])c(Oc7c([H])c([H])c(F)c([H])c7F)c([H])c6[H])c(C(=O)N([H])[H])c5N([H])[H])C4([H])[H])c3Cl)c([H])c([H])c2C1([H])[H]

$$$$
13:0:0
     RDKit          3D

 93101  0  0  1  0  0  0  0  0999 V2000
  -27.2110  -22.4510   18.5420 C   0  0  0  0  0  3  0  0  0  0  0  0
  -28.2460  -23.0360   19.2300 C   0  0  0  0  0  0  0  0  0  0  0  0
  -27.9990  -24.4660   19.0560 C   0  0  0  0  0  0  0  0  0  0  0  0
  -25.3910  -23.3010   16.9930 C   0  0  0  0  0  1  0  0  0  0  0  0
  -26.9810  -24.6510   18.2180 N   0  0  0  0  0  0  0  0  0  0  0  0
  -26.4930  -23.4380   17.9230 N   0  0  0  0  0  0  0  0  0  0  0  0
  -29.3960  -22.2420   19.8840 C   0  0  0  0  0  2  0  0  0  0  0  0
  -29.0240  -20.8410   20.2960 N   0  0  0  0  0  4  0  0  0  0  0  0
  -28.1980  -20.5800   19.7860 H   0  0  0  0  0  0  0  0  0  0  0  0
  -28.7740  -20.8760   21.2710 H   0  0  0  0  0  0  0  0  0  0  0  0
  -30.0430  -19.7510   20.0950 C   0  0  0  0  0  2  0  0  0  0  0  0
  -29.5480  -18.2930   20.4520 C   0  0  0  0  0  3  0  0  0  0  0  0
  -30.6090  -17.1420   20.2880 C   0  0  0  0  0  3  0  0  0  0  0  0
  -30.8470  -14.6330   20.1990 C   0  0  0  0  0  0  0  0  0  0  0  0
  -30.5120  -12.4540   19.0970 C   0  0  0  0  0  2  0  0  0  0  0  0
  -29.5340  -12.6430   17.9200 C   0  0  0  0  0  2  0  0  0  0  0  0
  -28.0770  -12.4910   18.3970 C   0  0  0  0  0  2  0  0  0  0  0  0
  -27.7710  -13.3350   19.6640 C   0  0  0  0  0  3  0  0  0  0  0  0
  -28.8650  -13.1580   20.7420 C   0  0  0  0  0  2  0  0  0  0  0  0
  -30.1640  -13.4560   20.1200 N   0  0  0  0  0  0  0  0  0  0  0  0
  -32.0040  -14.7450   19.7890 O   0  0  0  0  0  0  0  0  0  0  0  0
  -30.1320  -15.7430   20.5150 N   0  0  0  0  0  0  0  0  0  0  0  0
  -29.1770  -15.6060   20.8140 H   0  0  0  0  0  0  0  0  0  0  0  0
  -25.4070  -13.9310   20.4820 C   0  0  0  0  0  0  0  0  0  0  0  0
  -24.3500  -13.1530   20.8720 C   0  0  0  0  0  0  0  0  0  0  0  0
  -24.8020  -11.8000   20.7910 C   0  0  0  0  0  0  0  0  0  0  0  0
  -26.4380  -13.0500   20.1900 N   0  0  0  0  0  0  0  0  0  0  0  0
  -26.0810  -11.7640   20.4380 N   0  0  0  0  0  0  0  0  0  0  0  0
  -24.0770  -10.5370   20.9740 C   0  0  0  0  0  0  0  0  0  0  0  0
  -24.4810   -9.5840   21.9340 C   0  0  0  0  0  3  0  0  0  0  0  0
  -23.7560   -8.3850   22.1060 C   0  0  0  0  0  3  0  0  0  0  0  0
  -22.6110   -8.1300   21.3140 C   0  0  0  0  0  0  0  0  0  0  0  0
  -22.2250   -9.0710   20.3440 C   0  0  0  0  0  3  0  0  0  0  0  0
  -22.9500  -10.2610   20.1710 C   0  0  0  0  0  3  0  0  0  0  0  0
  -21.8600   -6.9820   21.3930 O   0  0  0  0  0  0  0  0  0  0  0  0
  -21.7210   -6.2920   22.5700 C   0  0  0  0  0  0  0  0  0  0  0  0
  -21.1040   -6.8680   23.7020 C   0  0  0  0  0  3  0  0  0  0  0  0
  -20.9190   -6.1010   24.8690 C   0  0  0  0  0  3  0  0  0  0  0  0
  -21.3380   -4.7570   24.9030 C   0  0  0  0  0  0  0  0  0  0  0  0
  -21.9480   -4.1800   23.7750 C   0  0  0  0  0  3  0  0  0  0  0  0
  -22.1340   -4.9460   22.6100 C   0  0  0  0  0  0  0  0  0  0  0  0
  -22.7030   -4.3790   21.5190 F   0  0  0  0  0  0  0  0  0  0  0  0
  -21.1530   -4.0180   26.0210 F   0  0  0  0  0  0  0  0  0  0  0  0
  -22.9650  -13.6290   21.2020 C   0  0  0  0  0  0  0  0  0  0  0  0
  -22.2590  -12.9120   22.0690 N   0  0  0  0  0  0  0  0  0  0  0  0
  -22.5180  -14.6720   20.7260 O   0  0  0  0  0  0  0  0  0  0  0  0
  -22.6350  -12.0710   22.4780 H   0  0  0  0  0  0  0  0  0  0  0  0
  -21.3290  -13.2130   22.3310 H   0  0  0  0  0  0  0  0  0  0  0  0
  -25.5710  -15.3040   20.3310 N   0  0  0  0  0  0  0  0  0  0  0  0
  -24.8040  -15.9530   20.4690 H   0  0  0  0  0  0  0  0  0  0  0  0
  -26.4020  -15.7470   19.9610 H   0  0  0  0  0  0  0  0  0  0  0  0
  -28.7980  -25.7480   19.4030 C   0  0  0  0  0  2  0  0  0  0  0  0
  -28.3490  -26.7090   20.4120 O   0  0  0  0  0  0  0  0  0  0  0  0
  -24.6760  -32.0330   23.4610 C   0  0  0  0  0  0  0  0  0  0  0  0
  -27.2180  -27.5190   20.3170 C   0  0  0  0  0  0  0  0  0  0  0  0
  -23.4310  -30.6520   21.8360 C   0  0  0  0  0  3  0  0  0  0  0  0
  -24.8460  -29.1060   20.3780 C   0  0  0  0  0  0  0  0  0  0  0  0
  -25.9670  -30.9650   21.6100 C   0  0  0  0  0  2  0  0  0  0  0  0
  -26.0270  -29.5980   20.9490 C   0  0  0  0  0  0  0  0  0  0  0  0
  -27.2100  -28.8100   20.9180 C   0  0  0  0  0  3  0  0  0  0  0  0
  -26.0040  -27.0540   19.7720 C   0  0  0  0  0  3  0  0  0  0  0  0
  -24.8330  -27.8320   19.7920 C   0  0  0  0  0  3  0  0  0  0  0  0
  -23.6130  -29.9800   20.4510 C   0  0  0  0  0  2  0  0  0  0  0  0
  -24.7100  -31.2320   22.3590 N   0  0  0  0  0  0  0  0  0  0  0  0
  -23.6050  -32.3160   24.0180 O   0  0  0  0  0  0  0  0  0  0  0  0
  -22.7810  -29.6340   22.8020 C   0  0  0  0  0  0  0  0  0  0  0  0
  -21.4810  -29.3610   22.6040 N   0  0  0  0  0  0  0  0  0  0  0  0
  -23.4480  -29.0890   23.6860 O   0  0  0  0  0  0  0  0  0  0  0  0
  -20.9990  -29.8500   21.8630 H   0  0  0  0  0  0  0  0  0  0  0  0
  -18.1870  -27.9010   22.8920 C   0  0  0  0  0  0  0  0  0  0  0  0
  -20.6760  -28.4100   23.3720 C   0  0  0  0  0  3  0  0  0  0  0  0
  -20.9550  -26.9580   22.9220 C   0  0  0  0  0  2  0  0  0  0  0  0
  -19.9880  -26.4660   21.8410 C   0  0  0  0  0  2  0  0  0  0  0  0
  -18.5420  -26.5300   22.3420 C   0  0  0  0  0  2  0  0  0  0  0  0
  -19.1920  -28.7900   23.3610 C   0  0  0  0  0  0  0  0  0  0  0  0
  -18.8110  -30.0670   23.8270 C   0  0  0  0  0  3  0  0  0  0  0  0
  -17.4600  -30.4590   23.8330 C   0  0  0  0  0  3  0  0  0  0  0  0
  -16.4680  -29.5690   23.3840 C   0  0  0  0  0  3  0  0  0  0  0  0
  -16.8330  -28.2920   22.9200 C   0  0  0  0  0  3  0  0  0  0  0  0
  -25.9770  -32.6510   24.0620 C   0  0  0  0  0  3  0  0  0  0  0  0
  -25.6910  -34.0560   24.3850 N   0  0  0  0  0  0  0  0  0  0  0  0
  -26.0190  -35.0960   23.6090 C   0  0  0  0  0  0  0  0  0  0  0  0
  -26.6670  -34.9770   22.5640 O   0  0  0  0  0  0  0  0  0  0  0  0
  -25.1180  -34.2250   25.1970 H   0  0  0  0  0  0  0  0  0  0  0  0
  -24.3130  -36.9100   23.2620 C   0  0  0  0  0  1  0  0  0  0  0  0
  -25.5550  -36.4930   24.0640 C   0  0  0  0  0  3  0  0  0  0  0  0
  -27.6980  -37.3620   24.8880 C   0  0  0  0  0  1  0  0  0  0  0  0
  -26.6010  -37.5320   23.9390 N   0  0  0  0  0  0  0  0  0  0  0  0
  -26.2050  -38.4580   24.0770 H   0  0  0  0  0  0  0  0  0  0  0  0
  -26.5010  -31.8830   25.3380 C   0  0  1  0  0  0  0  0  0  0  0  0
  -25.4100  -31.6430   26.4070 C   0  0  0  0  0  1  0  0  0  0  0  0
  -27.0910  -30.5080   24.9490 C   0  0  0  0  0  1  0  0  0  0  0  0
  -27.6460  -32.6850   25.9990 C   0  0  0  0  0  1  0  0  0  0  0  0
  1  2  2  0
  2  7  1  0
  3  2  1  0
  3 52  1  0
  4  6  1  0
  5  3  2  0
  6  5  1  0
  6  1  1  0
  7  8  1  0
  8 10  1  0
  9  8  1  0
 11  8  1  0
 11 12  1  0
 13 12  2  0
 13 22  1  0
 14 22  1  0
 15 20  1  0
 16 17  1  0
 16 15  1  0
 18 17  1  0
 18 27  1  0
 18 19  1  0
 20 14  1  0
 20 19  1  0
 21 14  2  0
 22 23  1  0
 24 25  2  0
 25 44  1  0
 26 25  1  0
 26 29  1  0
 27 28  1  0
 27 24  1  0
 28 26  2  0
 29 30  1  0
 30 31  2  0
 32 35  1  0
 32 31  1  0
 33 32  2  0
 34 33  1  0
 34 29  2  0
 35 36  1  0
 36 41  2  0
 36 37  1  0
 37 38  2  0
 38 39  1  0
 39 43  1  0
 40 39  2  0
 41 40  1  0
 42 41  1  0
 44 45  1  0
 45 48  1  0
 45 47  1  0
 46 44  2  0
 49 50  1  0
 49 24  1  0
 51 49  1  0
 52 53  1  0
 54 65  2  0
 55 53  1  0
 55 60  1  0
 56 64  1  0
 56 66  1  0
 57 63  1  0
 57 59  1  0
 58 64  1  0
 59 58  1  0
 60 59  2  0
 61 62  1  0
 61 55  2  0
 62 57  2  0
 63 56  1  0
 64 54  1  0
 66 68  2  0
 67 66  1  0
 69 67  1  0
 70 79  2  0
 70 75  1  0
 71 67  1  0
 72 71  1  0
 73 74  1  0
 73 72  1  0
 74 70  1  0
 75 71  1  0
 75 76  2  0
 76 77  1  0
 78 77  2  0
 79 78  1  0
 80 54  1  0
 80 81  1  0
 80 90  1  0
 81 84  1  0
 82 86  1  0
 82 81  1  0
 83 82  2  0
 86 85  1  0
 88 86  1  0
 88 89  1  0
 88 87  1  0
 90 93  1  1
 90 91  1  0
 92 90  1  0
M  ISO  4  14 100  22 100  52 101  53 101
M  END
>  <TORSDO>  (14) 
F 22

>  <SCORE>  (14) 
-12.526

>  <name>  (14) 
13

>  <ligand_id>  (14) 
13

>  <original_smiles>  (14) 
[H]c1c([H])c([H])c2c(c1[H])C([H])([H])C([H])([H])C([H])([H])C2([H])N([H])C(=O)C1([H])N(C(=O)C([H])(N([H])C(=O)C([H])(N([H])C([H])([H])[H])C([H])([H])[H])C(C([H])([H])[H])(C([H])([H])[H])C([H])([H])[H])C([H])([H])c2c([H])c(OC([H])([H])c3nn(C([H])([H])[H])c([H])c3C([H])([H])[N+]([H])([H])C([H])([H])C([H])([H])C([H])([H])N([H])C(=O)N3C([H])([H])C([H])([H])C([H])([H])C([H])(n4nc(-c5c([H])c([H])c(Oc6c([H])c([H])c(F)c([H])c6F)c([H])c5[H])c(C(=O)N([H])[H])c4N([H])[H])C3([H])[H])c([H])c([H])c2C1([H])[H]

>  <smiles>  (14) 
[H]c1c([H])c([H])c2c(c1[H])C([H])([H])C([H])([H])C([H])([H])C2([H])N([H])C(=O)C1([H])N(C(=O)C([H])(N([H])C(=O)C([H])(N([H])C([H])([H])[H])C([H])([H])[H])C(C([H])([H])[H])(C([H])([H])[H])C([H])([H])[H])C([H])([H])c2c([H])c(OC([H])([H])c3nn(C([H])([H])[H])c([H])c3C([H])([H])[N+]([H])([H])C([H])([H])C([H])([H])C([H])([H])N([H])C(=O)N3C([H])([H])C([H])([H])C([H])([H])C([H])(n4nc(-c5c([H])c([H])c(Oc6c([H])c([H])c(F)c([H])c6F)c([H])c5[H])c(C(=O)N([H])[H])c4N([H])[H])C3([H])[H])c([H])c([H])c2C1([H])[H]

$$$$
14:0:0
     RDKit          3D

 89 97  0  0  1  0  0  0  0  0999 V2000
  -27.7460  -24.0960   21.1860 C   0  0  0  0  0  3  0  0  0  0  0  0
  -27.5280  -22.8600   21.8330 C   0  0  0  0  0  0  0  0  0  0  0  0
  -28.5680  -23.8530   20.1180 C   0  0  0  0  0  0  0  0  0  0  0  0
  -26.6840  -22.5800   23.0420 C   0  0  0  0  0  1  0  0  0  0  0  0
  -28.1710  -21.8730   21.2500 N   0  0  0  0  0  0  0  0  0  0  0  0
  -28.8400  -22.3610   20.1750 N   0  0  0  0  0  0  0  0  0  0  0  0
  -28.8930  -25.1400   19.1710 C   0  0  0  0  0  2  0  0  0  0  0  0
  -28.7840  -26.6080   19.7340 O   0  0  0  0  0  0  0  0  0  0  0  0
  -24.8210  -31.7430   23.2320 C   0  0  0  0  0  0  0  0  0  0  0  0
  -27.6580  -27.5170   19.7230 C   0  0  0  0  0  0  0  0  0  0  0  0
  -23.7020  -30.4730   21.4390 C   0  0  0  0  0  3  0  0  0  0  0  0
  -25.2360  -29.1380   19.8580 C   0  0  0  0  0  0  0  0  0  0  0  0
  -26.2380  -30.8860   21.3260 C   0  0  0  0  0  2  0  0  0  0  0  0
  -26.3860  -29.5770   20.5250 C   0  0  0  0  0  0  0  0  0  0  0  0
  -27.5920  -28.7810   20.4440 C   0  0  0  0  0  3  0  0  0  0  0  0
  -26.4760  -27.1840   19.0270 C   0  0  0  0  0  3  0  0  0  0  0  0
  -25.2950  -27.9600   19.0950 C   0  0  0  0  0  3  0  0  0  0  0  0
  -23.9620  -29.9610   19.9960 C   0  0  0  0  0  2  0  0  0  0  0  0
  -24.9390  -31.0520   22.0560 N   0  0  0  0  0  0  0  0  0  0  0  0
  -23.7190  -31.9100   23.7780 O   0  0  0  0  0  0  0  0  0  0  0  0
  -23.0750  -29.3340   22.2820 C   0  0  0  0  0  0  0  0  0  0  0  0
  -21.7610  -29.0990   22.1160 N   0  0  0  0  0  0  0  0  0  0  0  0
  -23.7740  -28.6680   23.0480 O   0  0  0  0  0  0  0  0  0  0  0  0
  -21.2510  -29.6930   21.4780 H   0  0  0  0  0  0  0  0  0  0  0  0
  -18.4530  -27.6600   22.4430 C   0  0  0  0  0  0  0  0  0  0  0  0
  -20.9910  -28.0400   22.7710 C   0  0  0  0  0  3  0  0  0  0  0  0
  -21.1810  -26.6850   22.0500 C   0  0  0  0  0  2  0  0  0  0  0  0
  -20.1080  -26.4100   20.9930 C   0  0  0  0  0  2  0  0  0  0  0  0
  -18.7150  -26.4040   21.6290 C   0  0  0  0  0  2  0  0  0  0  0  0
  -19.5210  -28.4360   22.9670 C   0  0  0  0  0  0  0  0  0  0  0  0
  -19.2230  -29.6110   23.6890 C   0  0  0  0  0  3  0  0  0  0  0  0
  -17.8880  -30.0120   23.8930 C   0  0  0  0  0  3  0  0  0  0  0  0
  -16.8360  -29.2330   23.3840 C   0  0  0  0  0  3  0  0  0  0  0  0
  -17.1180  -28.0580   22.6650 C   0  0  0  0  0  3  0  0  0  0  0  0
  -26.0600  -32.3760   23.9360 C   0  0  0  0  0  3  0  0  0  0  0  0
  -26.5810  -31.5210   25.1580 C   0  0  1  0  0  0  0  0  0  0  0  0
  -25.4760  -31.1470   26.1730 C   0  0  0  0  0  1  0  0  0  0  0  0
  -27.2360  -30.2080   24.6730 C   0  0  0  0  0  1  0  0  0  0  0  0
  -27.6780  -32.3060   25.9150 C   0  0  0  0  0  1  0  0  0  0  0  0
  -25.6830  -33.7270   24.3810 N   0  0  0  0  0  0  0  0  0  0  0  0
  -25.9990  -34.8600   23.7380 C   0  0  0  0  0  0  0  0  0  0  0  0
  -26.7020  -34.8770   22.7250 O   0  0  0  0  0  0  0  0  0  0  0  0
  -25.0570  -33.7840   25.1700 H   0  0  0  0  0  0  0  0  0  0  0  0
  -24.2150  -36.6220   23.5030 C   0  0  0  0  0  1  0  0  0  0  0  0
  -25.4490  -36.1830   24.3090 C   0  0  0  0  0  3  0  0  0  0  0  0
  -27.5190  -37.0660   25.2930 C   0  0  0  0  0  1  0  0  0  0  0  0
  -26.4440  -37.2760   24.3260 N   0  0  0  0  0  0  0  0  0  0  0  0
  -25.9990  -38.1660   24.5360 H   0  0  0  0  0  0  0  0  0  0  0  0
  -29.6360  -21.1690   19.4900 C   0  0  0  0  0  3  0  0  0  0  0  0
  -29.4380  -19.5220   19.9530 C   0  0  0  0  0  3  0  0  0  0  0  0
  -30.3750  -18.1620   19.5200 C   0  0  0  0  0  2  0  0  0  0  0  0
  -30.9190  -15.4480   19.8230 C   0  0  0  0  0  0  0  0  0  0  0  0
  -30.8390  -13.0380   19.0230 C   0  0  0  0  0  2  0  0  0  0  0  0
  -29.8840  -12.9040   17.8120 C   0  0  0  0  0  2  0  0  0  0  0  0
  -28.4360  -12.6810   18.2850 C   0  0  0  0  0  2  0  0  0  0  0  0
  -28.0300  -13.6540   19.4240 C   0  0  0  0  0  3  0  0  0  0  0  0
  -29.1070  -13.7550   20.5240 C   0  0  0  0  0  2  0  0  0  0  0  0
  -30.3530  -14.1710   19.8680 N   0  0  0  0  0  0  0  0  0  0  0  0
  -32.1070  -15.5130   19.4890 O   0  0  0  0  0  0  0  0  0  0  0  0
  -30.1270  -16.6380   19.9350 N   0  0  0  0  0  0  0  0  0  0  0  0
  -29.1790  -16.4470   20.2220 H   0  0  0  0  0  0  0  0  0  0  0  0
  -25.6830  -14.2250   20.2620 C   0  0  0  0  0  0  0  0  0  0  0  0
  -24.6310  -13.4480   20.6570 C   0  0  0  0  0  0  0  0  0  0  0  0
  -25.0870  -12.0950   20.5840 C   0  0  0  0  0  0  0  0  0  0  0  0
  -26.7120  -13.3490   19.9670 N   0  0  0  0  0  0  0  0  0  0  0  0
  -26.3670  -12.0600   20.2260 N   0  0  0  0  0  0  0  0  0  0  0  0
  -24.3610  -10.8330   20.7760 C   0  0  0  0  0  0  0  0  0  0  0  0
  -24.7050   -9.9310   21.8070 C   0  0  0  0  0  3  0  0  0  0  0  0
  -23.9780   -8.7350   21.9840 C   0  0  0  0  0  3  0  0  0  0  0  0
  -22.8930   -8.4300   21.1300 C   0  0  0  0  0  0  0  0  0  0  0  0
  -22.5670   -9.3200   20.0910 C   0  0  0  0  0  3  0  0  0  0  0  0
  -23.2960  -10.5080   19.9120 C   0  0  0  0  0  3  0  0  0  0  0  0
  -22.1450   -7.2800   21.2110 O   0  0  0  0  0  0  0  0  0  0  0  0
  -21.8350   -6.7080   22.4180 C   0  0  0  0  0  0  0  0  0  0  0  0
  -21.0990   -7.3990   23.4040 C   0  0  0  0  0  3  0  0  0  0  0  0
  -20.7420   -6.7490   24.6020 C   0  0  0  0  0  3  0  0  0  0  0  0
  -21.1100   -5.4060   24.8120 C   0  0  0  0  0  0  0  0  0  0  0  0
  -21.8380   -4.7140   23.8280 C   0  0  0  0  0  3  0  0  0  0  0  0
  -22.1970   -5.3630   22.6330 C   0  0  0  0  0  0  0  0  0  0  0  0
  -22.8800   -4.6830   21.6790 F   0  0  0  0  0  0  0  0  0  0  0  0
  -20.7620   -4.7780   25.9590 F   0  0  0  0  0  0  0  0  0  0  0  0
  -23.2470  -13.9250   20.9850 C   0  0  0  0  0  0  0  0  0  0  0  0
  -22.5530  -13.2320   21.8800 N   0  0  0  0  0  0  0  0  0  0  0  0
  -22.7900  -14.9530   20.4830 O   0  0  0  0  0  0  0  0  0  0  0  0
  -22.9350  -12.4020   22.3090 H   0  0  0  0  0  0  0  0  0  0  0  0
  -21.6260  -13.5380   22.1430 H   0  0  0  0  0  0  0  0  0  0  0  0
  -25.8440  -15.5990   20.1030 N   0  0  0  0  0  0  0  0  0  0  0  0
  -25.0780  -16.2470   20.2460 H   0  0  0  0  0  0  0  0  0  0  0  0
  -26.6700  -16.0440   19.7240 H   0  0  0  0  0  0  0  0  0  0  0  0
  1  2  1  0
  2  4  1  0
  3  6  1  0
  3  1  2  0
  5  2  2  0
  6  5  1  0
  7  8  1  0
  7  3  1  0
  9 20  2  0
 10  8  1  0
 10 15  1  0
 11 19  1  0
 11 21  1  0
 12 18  1  0
 12 14  1  0
 13 19  1  0
 14 13  1  0
 15 14  2  0
 16 17  1  0
 16 10  2  0
 17 12  2  0
 18 11  1  0
 19  9  1  0
 21 23  2  0
 22 21  1  0
 24 22  1  0
 25 34  2  0
 25 30  1  0
 26 22  1  0
 26 30  1  0
 27 26  1  0
 28 29  1  0
 28 27  1  0
 29 25  1  0
 30 31  2  0
 31 32  1  0
 33 32  2  0
 34 33  1  0
 35  9  1  0
 35 40  1  0
 35 36  1  0
 36 39  1  1
 36 37  1  0
 38 36  1  0
 40 43  1  0
 41 45  1  0
 41 40  1  0
 42 41  2  0
 45 44  1  0
 45 47  1  0
 47 48  1  0
 47 46  1  0
 49 50  2  0
 49  6  1  0
 51 60  1  0
 51 50  1  0
 52 58  1  0
 52 60  1  0
 53 58  1  0
 54 55  1  0
 54 53  1  0
 56 55  1  0
 56 65  1  0
 56 57  1  0
 58 57  1  0
 59 52  2  0
 60 61  1  0
 62 63  2  0
 63 82  1  0
 64 63  1  0
 64 67  1  0
 65 66  1  0
 65 62  1  0
 66 64  2  0
 67 68  1  0
 68 69  2  0
 70 73  1  0
 70 69  1  0
 71 70  2  0
 72 71  1  0
 72 67  2  0
 73 74  1  0
 74 79  2  0
 74 75  1  0
 75 76  2  0
 76 77  1  0
 77 81  1  0
 78 77  2  0
 79 78  1  0
 80 79  1  0
 82 83  1  0
 83 86  1  0
 83 85  1  0
 84 82  2  0
 87 88  1  0
 87 62  1  0
 89 87  1  0
M  ISO  4   7 101   8 101  52 100  60 100
M  END
>  <TORSDO>  (15) 
F 20

>  <SCORE>  (15) 
-9.750

>  <name>  (15) 
14

>  <ligand_id>  (15) 
14

>  <original_smiles>  (15) 
[H]c1c([H])c([H])c2c(c1[H])C([H])([H])C([H])([H])C([H])([H])C2([H])N([H])C(=O)C1([H])N(C(=O)C([H])(N([H])C(=O)C([H])(N([H])C([H])([H])[H])C([H])([H])[H])C(C([H])([H])[H])(C([H])([H])[H])C([H])([H])[H])C([H])([H])c2c([H])c(OC([H])([H])c3c([H])c(C([H])([H])[H])nn3C([H])([H])C([H])([H])C([H])([H])N([H])C(=O)N3C([H])([H])C([H])([H])C([H])([H])C([H])(n4nc(-c5c([H])c([H])c(Oc6c([H])c([H])c(F)c([H])c6F)c([H])c5[H])c(C(=O)N([H])[H])c4N([H])[H])C3([H])[H])c([H])c([H])c2C1([H])[H]

>  <smiles>  (15) 
[H]c1c([H])c([H])c2c(c1[H])C([H])([H])C([H])([H])C([H])([H])C2([H])N([H])C(=O)C1([H])N(C(=O)C([H])(N([H])C(=O)C([H])(N([H])C([H])([H])[H])C([H])([H])[H])C(C([H])([H])[H])(C([H])([H])[H])C([H])([H])[H])C([H])([H])c2c([H])c(OC([H])([H])c3c([H])c(C([H])([H])[H])nn3C([H])([H])C([H])([H])C([H])([H])N([H])C(=O)N3C([H])([H])C([H])([H])C([H])([H])C([H])(n4nc(-c5c([H])c([H])c(Oc6c([H])c([H])c(F)c([H])c6F)c([H])c5[H])c(C(=O)N([H])[H])c4N([H])[H])C3([H])[H])c([H])c([H])c2C1([H])[H]

$$$$
15:0:0
     RDKit          3D

 93101  0  0  1  0  0  0  0  0999 V2000
  -29.9100  -19.6900   18.0470 C   0  0  0  0  0  3  0  0  0  0  0  0
  -29.8760  -20.6380   16.9960 C   0  0  0  0  0  0  0  0  0  0  0  0
  -29.3340  -20.2320   19.1620 C   0  0  0  0  0  0  0  0  0  0  0  0
  -29.2820  -21.7660   17.4970 C   0  0  0  0  0  0  0  0  0  0  0  0
  -28.9060  -22.9880   16.7130 C   0  0  0  0  0  1  0  0  0  0  0  0
  -29.0300  -21.5880   18.8690 N   0  0  0  0  0  0  0  0  0  0  0  0
  -29.3480  -19.5860   14.7600 C   0  0  0  0  0  1  0  0  0  0  0  0
  -30.3510  -20.4060   15.5810 C   0  0  0  0  0  2  0  0  0  0  0  0
  -29.0470  -19.5030   20.4690 C   0  0  0  0  0  2  0  0  0  0  0  0
  -28.8750  -17.9340   20.3920 C   0  0  0  0  0  2  0  0  0  0  0  0
  -30.0950  -17.0190   20.7530 C   0  0  0  0  0  2  0  0  0  0  0  0
  -30.5420  -14.5280   20.3640 C   0  0  0  0  0  0  0  0  0  0  0  0
  -30.2750  -12.3590   19.2080 C   0  0  0  0  0  2  0  0  0  0  0  0
  -29.3070  -12.5670   18.0240 C   0  0  0  0  0  2  0  0  0  0  0  0
  -27.8450  -12.3980   18.4810 C   0  0  0  0  0  2  0  0  0  0  0  0
  -27.5220  -13.2050   19.7670 C   0  0  0  0  0  3  0  0  0  0  0  0
  -28.6030  -12.9930   20.8500 C   0  0  0  0  0  2  0  0  0  0  0  0
  -29.9050  -13.3280   20.2540 N   0  0  0  0  0  0  0  0  0  0  0  0
  -31.6840  -14.7110   19.9350 O   0  0  0  0  0  0  0  0  0  0  0  0
  -29.7730  -15.5640   20.7850 N   0  0  0  0  0  0  0  0  0  0  0  0
  -28.8550  -15.3110   21.1140 H   0  0  0  0  0  0  0  0  0  0  0  0
  -25.1350  -13.7730   20.5340 C   0  0  0  0  0  0  0  0  0  0  0  0
  -24.0860  -12.9840   20.9180 C   0  0  0  0  0  0  0  0  0  0  0  0
  -24.5630  -11.6390   20.8640 C   0  0  0  0  0  0  0  0  0  0  0  0
  -26.1850  -12.9070   20.2710 N   0  0  0  0  0  0  0  0  0  0  0  0
  -25.8470  -11.6200   20.5280 N   0  0  0  0  0  0  0  0  0  0  0  0
  -23.8590  -10.3660   21.0550 C   0  0  0  0  0  0  0  0  0  0  0  0
  -24.3080   -9.4050   21.9890 C   0  0  0  0  0  3  0  0  0  0  0  0
  -23.6020   -8.1960   22.1680 C   0  0  0  0  0  3  0  0  0  0  0  0
  -22.4320   -7.9380   21.4150 C   0  0  0  0  0  0  0  0  0  0  0  0
  -22.0010   -8.8880   20.4720 C   0  0  0  0  0  3  0  0  0  0  0  0
  -22.7080  -10.0890   20.2890 C   0  0  0  0  0  3  0  0  0  0  0  0
  -21.6960   -6.7820   21.5050 O   0  0  0  0  0  0  0  0  0  0  0  0
  -21.6570   -6.0420   22.6590 C   0  0  0  0  0  0  0  0  0  0  0  0
  -21.1810   -6.5800   23.8760 C   0  0  0  0  0  3  0  0  0  0  0  0
  -21.0930   -5.7620   25.0200 C   0  0  0  0  0  3  0  0  0  0  0  0
  -21.4690   -4.4080   24.9500 C   0  0  0  0  0  0  0  0  0  0  0  0
  -21.9380   -3.8680   23.7390 C   0  0  0  0  0  3  0  0  0  0  0  0
  -22.0280   -4.6840   22.5960 C   0  0  0  0  0  0  0  0  0  0  0  0
  -22.4610   -4.1530   21.4260 F   0  0  0  0  0  0  0  0  0  0  0  0
  -21.3780   -3.6210   26.0470 F   0  0  0  0  0  0  0  0  0  0  0  0
  -22.6880  -13.4380   21.2270 C   0  0  0  0  0  0  0  0  0  0  0  0
  -21.9890  -12.7150   22.0930 N   0  0  0  0  0  0  0  0  0  0  0  0
  -22.2250  -14.4660   20.7320 O   0  0  0  0  0  0  0  0  0  0  0  0
  -22.3790  -11.8820   22.5100 H   0  0  0  0  0  0  0  0  0  0  0  0
  -21.0510  -12.9930   22.3460 H   0  0  0  0  0  0  0  0  0  0  0  0
  -25.2760  -15.1490   20.3690 N   0  0  0  0  0  0  0  0  0  0  0  0
  -24.4960  -15.7850   20.4990 H   0  0  0  0  0  0  0  0  0  0  0  0
  -26.1040  -15.6070   20.0130 H   0  0  0  0  0  0  0  0  0  0  0  0
  -28.4280  -22.5910   19.8060 C   0  0  0  0  0  2  0  0  0  0  0  0
  -28.7420  -24.1250   19.5750 C   0  0  0  0  0  3  0  0  0  0  0  0
  -28.2400  -25.1420   20.6480 C   0  0  0  0  0  3  0  0  0  0  0  0
  -28.4080  -26.5530   20.2920 O   0  0  0  0  0  0  0  0  0  0  0  0
  -24.5740  -31.8640   23.2090 C   0  0  0  0  0  0  0  0  0  0  0  0
  -27.2660  -27.3430   20.2380 C   0  0  0  0  0  0  0  0  0  0  0  0
  -23.4120  -30.4650   21.5370 C   0  0  0  0  0  3  0  0  0  0  0  0
  -24.8970  -28.9110   20.1540 C   0  0  0  0  0  0  0  0  0  0  0  0
  -25.9490  -30.7940   21.4170 C   0  0  0  0  0  2  0  0  0  0  0  0
  -26.0440  -29.4170   20.7790 C   0  0  0  0  0  0  0  0  0  0  0  0
  -27.2370  -28.6450   20.8070 C   0  0  0  0  0  3  0  0  0  0  0  0
  -26.1010  -26.8660   19.6010 C   0  0  0  0  0  3  0  0  0  0  0  0
  -24.9260  -27.6410   19.5540 C   0  0  0  0  0  3  0  0  0  0  0  0
  -23.6570  -29.7790   20.1670 C   0  0  0  0  0  2  0  0  0  0  0  0
  -24.6620  -31.0590   22.1120 N   0  0  0  0  0  0  0  0  0  0  0  0
  -23.4760  -32.1470   23.7110 O   0  0  0  0  0  0  0  0  0  0  0  0
  -22.7220  -29.4530   22.4820 C   0  0  0  0  0  0  0  0  0  0  0  0
  -21.3970  -29.2950   22.3250 N   0  0  0  0  0  0  0  0  0  0  0  0
  -23.3770  -28.8150   23.3110 O   0  0  0  0  0  0  0  0  0  0  0  0
  -20.9360  -29.8620   21.6270 H   0  0  0  0  0  0  0  0  0  0  0  0
  -17.9840  -28.1830   22.7820 C   0  0  0  0  0  0  0  0  0  0  0  0
  -20.5470  -28.3670   23.0710 C   0  0  0  0  0  3  0  0  0  0  0  0
  -20.6140  -26.9470   22.4660 C   0  0  0  0  0  2  0  0  0  0  0  0
  -19.5080  -26.6730   21.4410 C   0  0  0  0  0  2  0  0  0  0  0  0
  -18.1260  -26.8420   22.0800 C   0  0  0  0  0  2  0  0  0  0  0  0
  -19.1210  -28.9060   23.2330 C   0  0  0  0  0  0  0  0  0  0  0  0
  -18.9330  -30.1610   23.8500 C   0  0  0  0  0  3  0  0  0  0  0  0
  -17.6420  -30.6970   24.0140 C   0  0  0  0  0  3  0  0  0  0  0  0
  -16.5200  -29.9690   23.5820 C   0  0  0  0  0  3  0  0  0  0  0  0
  -16.6910  -28.7140   22.9730 C   0  0  0  0  0  3  0  0  0  0  0  0
  -25.8410  -32.4890   23.8700 C   0  0  0  0  0  3  0  0  0  0  0  0
  -25.5280  -33.8900   24.1800 N   0  0  0  0  0  0  0  0  0  0  0  0
  -25.8880  -34.9360   23.4230 C   0  0  0  0  0  0  0  0  0  0  0  0
  -26.5840  -34.8220   22.4110 O   0  0  0  0  0  0  0  0  0  0  0  0
  -24.9040  -34.0520   24.9570 H   0  0  0  0  0  0  0  0  0  0  0  0
  -24.1830  -36.7390   23.0180 C   0  0  0  0  0  1  0  0  0  0  0  0
  -25.4010  -36.3300   23.8600 C   0  0  0  0  0  3  0  0  0  0  0  0
  -27.5140  -37.2120   24.7470 C   0  0  0  0  0  1  0  0  0  0  0  0
  -26.4440  -37.3730   23.7670 N   0  0  0  0  0  0  0  0  0  0  0  0
  -26.0390  -38.2980   23.8860 H   0  0  0  0  0  0  0  0  0  0  0  0
  -26.3070  -31.7220   25.1670 C   0  0  1  0  0  0  0  0  0  0  0  0
  -25.1740  -31.4920   26.1960 C   0  0  0  0  0  1  0  0  0  0  0  0
  -26.8980  -30.3410   24.8010 C   0  0  0  0  0  1  0  0  0  0  0  0
  -27.4410  -32.5140   25.8610 C   0  0  0  0  0  1  0  0  0  0  0  0
  1  3  2  0
  2  4  2  0
  2  1  1  0
  3  9  1  0
  4  6  1  0
  5  4  1  0
  6  3  1  0
  6 50  1  0
  7  8  1  0
  8  2  1  0
 10  9  1  0
 10 11  1  0
 11 20  1  0
 12 20  1  0
 13 18  1  0
 14 15  1  0
 14 13  1  0
 16 15  1  0
 16 25  1  0
 16 17  1  0
 18 12  1  0
 18 17  1  0
 19 12  2  0
 20 21  1  0
 22 23  2  0
 23 42  1  0
 24 23  1  0
 24 27  1  0
 25 26  1  0
 25 22  1  0
 26 24  2  0
 27 28  1  0
 28 29  2  0
 30 33  1  0
 30 29  1  0
 31 30  2  0
 32 31  1  0
 32 27  2  0
 33 34  1  0
 34 35  1  0
 35 36  2  0
 37 36  1  0
 37 41  1  0
 38 37  2  0
 39 34  2  0
 39 38  1  0
 40 39  1  0
 42 43  1  0
 43 46  1  0
 43 45  1  0
 44 42  2  0
 47 48  1  0
 47 22  1  0
 49 47  1  0
 51 50  1  0
 51 52  2  0
 53 52  1  0
 54 65  2  0
 55 53  1  0
 55 60  1  0
 56 64  1  0
 56 66  1  0
 57 63  1  0
 57 59  1  0
 58 64  1  0
 59 60  2  0
 59 58  1  0
 61 55  2  0
 62 61  1  0
 62 57  2  0
 63 56  1  0
 64 54  1  0
 66 68  2  0
 67 66  1  0
 69 67  1  0
 70 79  2  0
 70 75  1  0
 71 67  1  0
 71 75  1  0
 72 71  1  0
 73 74  1  0
 73 72  1  0
 74 70  1  0
 75 76  2  0
 76 77  1  0
 78 77  2  0
 79 78  1  0
 80 54  1  0
 80 81  1  0
 80 90  1  0
 81 84  1  0
 82 86  1  0
 82 81  1  0
 83 82  2  0
 86 85  1  0
 88 86  1  0
 88 89  1  0
 88 87  1  0
 90 93  1  1
 90 91  1  0
 92 90  1  0
M  ISO  4  12 100  20 100  52 101  53 101
M  END
>  <TORSDO>  (16) 
F 23

>  <SCORE>  (16) 
-12.706

>  <name>  (16) 
15

>  <ligand_id>  (16) 
15

>  <original_smiles>  (16) 
[H]c1c([H])c([H])c2c(c1[H])C([H])([H])C([H])([H])C([H])([H])C2([H])N([H])C(=O)C1([H])N(C(=O)C([H])(N([H])C(=O)C([H])(N([H])C([H])([H])[H])C([H])([H])[H])C(C([H])([H])[H])(C([H])([H])[H])C([H])([H])[H])C([H])([H])c2c([H])c(OC([H])([H])C([H])([H])C([H])([H])n3c(C([H])([H])[H])c(C([H])([H])C([H])([H])[H])c([H])c3C([H])([H])C([H])([H])C([H])([H])N([H])C(=O)N3C([H])([H])C([H])([H])C([H])([H])C([H])(n4nc(-c5c([H])c([H])c(Oc6c([H])c([H])c(F)c([H])c6F)c([H])c5[H])c(C(=O)N([H])[H])c4N([H])[H])C3([H])[H])c([H])c([H])c2C1([H])[H]

>  <smiles>  (16) 
[H]c1c([H])c([H])c2c(c1[H])C([H])([H])C([H])([H])C([H])([H])C2([H])N([H])C(=O)C1([H])N(C(=O)C([H])(N([H])C(=O)C([H])(N([H])C([H])([H])[H])C([H])([H])[H])C(C([H])([H])[H])(C([H])([H])[H])C([H])([H])[H])C([H])([H])c2c([H])c(OC([H])([H])C([H])([H])C([H])([H])n3c(C([H])([H])[H])c(C([H])([H])C([H])([H])[H])c([H])c3C([H])([H])C([H])([H])C([H])([H])N([H])C(=O)N3C([H])([H])C([H])([H])C([H])([H])C([H])(n4nc(-c5c([H])c([H])c(Oc6c([H])c([H])c(F)c([H])c6F)c([H])c5[H])c(C(=O)N([H])[H])c4N([H])[H])C3([H])[H])c([H])c([H])c2C1([H])[H]

$$$$
16:0:0
     RDKit          3D

 98108  0  0  1  0  0  0  0  0999 V2000
  -30.7780  -20.6400   18.1590 C   0  0  0  0  0  3  0  0  0  0  0  0
  -30.6330  -20.3460   19.4960 C   0  0  0  0  0  0  0  0  0  0  0  0
  -30.2630  -22.6180   19.1180 C   0  0  0  0  0  3  0  0  0  0  0  0
  -30.2540  -21.6020   20.0500 N   0  0  0  0  0  0  0  0  0  0  0  0
  -30.5530  -21.9870   17.9710 N   0  0  0  0  0  0  0  0  0  0  0  0
  -30.6530  -22.4530   17.0770 H   0  0  0  0  0  0  0  0  0  0  0  0
  -29.9510  -21.9200   21.4660 C   0  0  0  0  0  3  0  0  0  0  0  0
  -30.3700  -19.4670   21.9790 C   0  0  0  0  0  0  0  0  0  0  0  0
  -30.6640  -18.4100   22.8630 C   0  0  0  0  0  3  0  0  0  0  0  0
  -30.6520  -19.9720   24.7290 C   0  0  0  0  0  3  0  0  0  0  0  0
  -30.2260  -20.7890   22.4580 C   0  0  0  0  0  0  0  0  0  0  0  0
  -30.8130  -18.6630   24.2390 C   0  0  0  0  0  0  0  0  0  0  0  0
  -30.3570  -21.0340   23.8500 C   0  0  0  0  0  0  0  0  0  0  0  0
  -31.1940  -17.3730   25.3210 Cl  0  0  0  0  0  0  0  0  0  0  0  0
  -30.2020  -22.6250   24.5100 Cl  0  0  0  0  0  0  0  0  0  0  0  0
  -30.8020  -18.9630   20.2480 C   0  0  0  0  0  0  0  0  0  0  0  0
  -31.4750  -17.6810   19.5450 C   0  0  0  0  0  2  0  0  0  0  0  0
  -31.8450  -15.1080   19.8860 C   0  0  0  0  0  0  0  0  0  0  0  0
  -31.5130  -12.7960   19.0210 C   0  0  0  0  0  2  0  0  0  0  0  0
  -30.5610  -12.8490   17.8060 C   0  0  0  0  0  2  0  0  0  0  0  0
  -29.0920  -12.7760   18.2630 C   0  0  0  0  0  2  0  0  0  0  0  0
  -28.7810  -13.7470   19.4320 C   0  0  0  0  0  3  0  0  0  0  0  0
  -29.8510  -13.6720   20.5450 C   0  0  0  0  0  2  0  0  0  0  0  0
  -31.1580  -13.9170   19.9190 N   0  0  0  0  0  0  0  0  0  0  0  0
  -33.0140  -15.1430   19.4960 O   0  0  0  0  0  0  0  0  0  0  0  0
  -31.1330  -16.2810   20.0570 N   0  0  0  0  0  0  0  0  0  0  0  0
  -30.1900  -16.1530   20.3870 H   0  0  0  0  0  0  0  0  0  0  0  0
  -26.4770  -14.5000   20.2770 C   0  0  0  0  0  0  0  0  0  0  0  0
  -25.3610  -13.8000   20.6430 C   0  0  0  0  0  0  0  0  0  0  0  0
  -25.7020  -12.4180   20.5210 C   0  0  0  0  0  0  0  0  0  0  0  0
  -27.4330  -13.5500   19.9550 N   0  0  0  0  0  0  0  0  0  0  0  0
  -26.9740  -12.2890   20.1630 N   0  0  0  0  0  0  0  0  0  0  0  0
  -24.8740  -11.2130   20.6660 C   0  0  0  0  0  0  0  0  0  0  0  0
  -25.1960  -10.2030   21.5990 C   0  0  0  0  0  3  0  0  0  0  0  0
  -24.3720   -9.0630   21.7320 C   0  0  0  0  0  3  0  0  0  0  0  0
  -23.2140   -8.9270   20.9310 C   0  0  0  0  0  0  0  0  0  0  0  0
  -22.9120   -9.9240   19.9860 C   0  0  0  0  0  3  0  0  0  0  0  0
  -23.7350  -11.0540   19.8510 C   0  0  0  0  0  3  0  0  0  0  0  0
  -22.3690   -7.8430   20.9750 O   0  0  0  0  0  0  0  0  0  0  0  0
  -22.0990   -7.1880   22.1490 C   0  0  0  0  0  0  0  0  0  0  0  0
  -21.5000   -7.8440   23.2480 C   0  0  0  0  0  3  0  0  0  0  0  0
  -21.1750   -7.1160   24.4090 C   0  0  0  0  0  3  0  0  0  0  0  0
  -21.4380   -5.7360   24.4740 C   0  0  0  0  0  0  0  0  0  0  0  0
  -22.0290   -5.0800   23.3800 C   0  0  0  0  0  3  0  0  0  0  0  0
  -22.3550   -5.8040   22.2190 C   0  0  0  0  0  0  0  0  0  0  0  0
  -22.9040   -5.1630   21.1600 F   0  0  0  0  0  0  0  0  0  0  0  0
  -21.1190   -5.0350   25.5880 F   0  0  0  0  0  0  0  0  0  0  0  0
  -24.0200  -14.3780   20.9920 C   0  0  0  0  0  0  0  0  0  0  0  0
  -23.2690  -13.7060   21.8560 N   0  0  0  0  0  0  0  0  0  0  0  0
  -23.6500  -15.4580   20.5310 O   0  0  0  0  0  0  0  0  0  0  0  0
  -23.5810  -12.8300   22.2490 H   0  0  0  0  0  0  0  0  0  0  0  0
  -22.3690  -14.0720   22.1310 H   0  0  0  0  0  0  0  0  0  0  0  0
  -26.7550  -15.8600   20.1620 N   0  0  0  0  0  0  0  0  0  0  0  0
  -26.0490  -16.5630   20.3440 H   0  0  0  0  0  0  0  0  0  0  0  0
  -27.6190  -16.2440   19.8080 H   0  0  0  0  0  0  0  0  0  0  0  0
  -30.2010  -24.1980   19.2760 C   0  0  0  0  0  3  0  0  0  0  0  0
  -28.9400  -25.1120   18.8520 C   0  0  0  0  0  3  0  0  0  0  0  0
  -28.9530  -26.5940   19.1140 O   0  0  0  0  0  0  0  0  0  0  0  0
  -24.7720  -31.0920   22.9640 C   0  0  0  0  0  0  0  0  0  0  0  0
  -27.7440  -27.3220   19.2040 C   0  0  0  0  0  0  0  0  0  0  0  0
  -23.6570  -29.7670   21.2070 C   0  0  0  0  0  3  0  0  0  0  0  0
  -25.2000  -28.6250   19.5130 C   0  0  0  0  0  0  0  0  0  0  0  0
  -26.1220  -30.4370   20.9550 C   0  0  0  0  0  2  0  0  0  0  0  0
  -26.3360  -29.1750   20.1210 C   0  0  0  0  0  0  0  0  0  0  0  0
  -27.6060  -28.5360   19.9590 C   0  0  0  0  0  3  0  0  0  0  0  0
  -26.5750  -26.8420   18.5710 C   0  0  0  0  0  3  0  0  0  0  0  0
  -25.3220  -27.4670   18.7310 C   0  0  0  0  0  3  0  0  0  0  0  0
  -23.8670  -29.3140   19.7390 C   0  0  0  0  0  2  0  0  0  0  0  0
  -24.8710  -30.4450   21.7650 N   0  0  0  0  0  0  0  0  0  0  0  0
  -23.6990  -31.1510   23.5800 O   0  0  0  0  0  0  0  0  0  0  0  0
  -23.1880  -28.5550   22.0480 C   0  0  0  0  0  0  0  0  0  0  0  0
  -21.9300  -28.1260   21.8490 N   0  0  0  0  0  0  0  0  0  0  0  0
  -23.9580  -28.0080   22.8410 O   0  0  0  0  0  0  0  0  0  0  0  0
  -21.3580  -28.6300   21.1870 H   0  0  0  0  0  0  0  0  0  0  0  0
  -18.9010  -26.1530   22.0070 C   0  0  0  0  0  0  0  0  0  0  0  0
  -21.3010  -26.9790   22.5070 C   0  0  0  0  0  3  0  0  0  0  0  0
  -21.7800  -25.6500   21.8780 C   0  0  0  0  0  2  0  0  0  0  0  0
  -20.8600  -25.1470   20.7610 C   0  0  0  0  0  2  0  0  0  0  0  0
  -19.4390  -24.9270   21.2900 C   0  0  0  0  0  2  0  0  0  0  0  0
  -19.7750  -27.1240   22.5650 C   0  0  0  0  0  0  0  0  0  0  0  0
  -19.2210  -28.2610   23.1920 C   0  0  0  0  0  3  0  0  0  0  0  0
  -17.8260  -28.4360   23.2700 C   0  0  0  0  0  3  0  0  0  0  0  0
  -16.9670  -27.4630   22.7310 C   0  0  0  0  0  3  0  0  0  0  0  0
  -17.5030  -26.3240   22.1050 C   0  0  0  0  0  3  0  0  0  0  0  0
  -26.0000  -31.8090   23.6070 C   0  0  0  0  0  3  0  0  0  0  0  0
  -25.5610  -33.1480   24.0260 N   0  0  0  0  0  0  0  0  0  0  0  0
  -25.8230  -34.2800   23.3600 C   0  0  0  0  0  0  0  0  0  0  0  0
  -26.5240  -34.3100   22.3450 O   0  0  0  0  0  0  0  0  0  0  0  0
  -24.9310  -33.1900   24.8140 H   0  0  0  0  0  0  0  0  0  0  0  0
  -23.9790  -35.9670   23.0640 C   0  0  0  0  0  1  0  0  0  0  0  0
  -25.2080  -35.5850   23.9040 C   0  0  0  0  0  3  0  0  0  0  0  0
  -27.2140  -36.5550   24.9320 C   0  0  0  0  0  1  0  0  0  0  0  0
  -26.1600  -36.7160   23.9350 N   0  0  0  0  0  0  0  0  0  0  0  0
  -25.6760  -37.5900   24.1230 H   0  0  0  0  0  0  0  0  0  0  0  0
  -26.6110  -31.0170   24.8280 C   0  0  1  0  0  0  0  0  0  0  0  0
  -25.5670  -30.6220   25.8970 C   0  0  0  0  0  1  0  0  0  0  0  0
  -27.3080  -29.7230   24.3500 C   0  0  0  0  0  1  0  0  0  0  0  0
  -27.7010  -31.8750   25.5130 C   0  0  0  0  0  1  0  0  0  0  0  0
  1  2  2  0
  2  4  1  0
  2 16  1  0
  3 56  1  0
  3  4  1  0
  4  7  1  0
  5  1  1  0
  5  3  1  0
  6  5  1  0
  7 11  2  0
  8 11  1  0
  8  9  1  0
  9 12  2  0
 11 13  1  0
 12 10  1  0
 12 14  1  0
 13 15  1  0
 13 10  2  0
 16  8  2  0
 17 26  1  0
 17 16  1  0
 18 24  1  0
 18 26  1  0
 19 24  1  0
 20 21  1  0
 20 19  1  0
 22 21  1  0
 22 31  1  0
 22 23  1  0
 24 23  1  0
 25 18  2  0
 26 27  1  0
 28 29  2  0
 29 48  1  0
 30 29  1  0
 30 33  1  0
 31 32  1  0
 31 28  1  0
 32 30  2  0
 33 34  1  0
 34 35  2  0
 36 39  1  0
 36 35  1  0
 37 36  2  0
 38 37  1  0
 38 33  2  0
 39 40  1  0
 40 45  2  0
 40 41  1  0
 41 42  2  0
 42 43  1  0
 43 47  1  0
 44 43  2  0
 45 44  1  0
 46 45  1  0
 48 49  1  0
 49 52  1  0
 49 51  1  0
 50 48  2  0
 53 28  1  0
 53 54  1  0
 55 53  1  0
 57 58  1  0
 57 56  2  0
 58 60  1  0
 59 70  2  0
 60 65  1  0
 61 69  1  0
 61 71  1  0
 62 68  1  0
 62 64  1  0
 63 69  1  0
 64 63  1  0
 65 64  2  0
 66 67  1  0
 66 60  2  0
 67 62  2  0
 68 61  1  0
 69 59  1  0
 71 73  2  0
 72 71  1  0
 74 72  1  0
 75 84  2  0
 75 80  1  0
 76 72  1  0
 76 80  1  0
 77 76  1  0
 78 79  1  0
 78 77  1  0
 79 75  1  0
 80 81  2  0
 81 82  1  0
 83 82  2  0
 84 83  1  0
 85 59  1  0
 85 86  1  0
 85 95  1  0
 86 89  1  0
 87 91  1  0
 87 86  1  0
 88 87  2  0
 91 90  1  0
 91 93  1  0
 93 94  1  0
 93 92  1  0
 95 98  1  1
 95 96  1  0
 97 95  1  0
M  ISO  4  18 100  26 100  57 101  58 101
M  END
>  <TORSDO>  (17) 
F 22

>  <SCORE>  (17) 
-5.168

>  <name>  (17) 
16

>  <ligand_id>  (17) 
16

>  <original_smiles>  (17) 
[H]c1c([H])c([H])c2c(c1[H])C([H])([H])C([H])([H])C([H])([H])C2([H])N([H])C(=O)C1([H])N(C(=O)C([H])(N([H])C(=O)C([H])(N([H])C([H])([H])[H])C([H])([H])[H])C(C([H])([H])[H])(C([H])([H])[H])C([H])([H])[H])C([H])([H])c2c([H])c(OC([H])([H])C([H])([H])c3n(C([H])([H])c4c([H])c([H])c(Cl)c([H])c4Cl)c(C([H])([H])C([H])([H])N([H])C(=O)N4C([H])([H])C([H])([H])C([H])([H])C([H])(n5nc(-c6c([H])c([H])c(Oc7c([H])c([H])c(F)c([H])c7F)c([H])c6[H])c(C(=O)N([H])[H])c5N([H])[H])C4([H])[H])c([H])[n+]3[H])c([H])c([H])c2C1([H])[H]

>  <smiles>  (17) 
[H]c1c([H])c([H])c2c(c1[H])C([H])([H])C([H])([H])C([H])([H])C2([H])N([H])C(=O)C1([H])N(C(=O)C([H])(N([H])C(=O)C([H])(N([H])C([H])([H])[H])C([H])([H])[H])C(C([H])([H])[H])(C([H])([H])[H])C([H])([H])[H])C([H])([H])c2c([H])c(OC([H])([H])C([H])([H])c3n(C([H])([H])c4c([H])c([H])c(Cl)c([H])c4Cl)c(C([H])([H])C([H])([H])N([H])C(=O)N4C([H])([H])C([H])([H])C([H])([H])C([H])(n5nc(-c6c([H])c([H])c(Oc7c([H])c([H])c(F)c([H])c7F)c([H])c6[H])c(C(=O)N([H])[H])c5N([H])[H])C4([H])[H])c([H])[n+]3[H])c([H])c([H])c2C1([H])[H]

$$$$
17:0:0
     RDKit          3D

 92100  0  0  1  0  0  0  0  0999 V2000
  -31.7510  -21.3560   17.8070 C   0  0  0  0  0  3  0  0  0  0  0  0
  -30.0060  -19.8450   19.2400 C   0  0  0  0  0  0  0  0  0  0  0  0
  -30.7800  -19.3340   18.1690 C   0  0  0  0  0  0  0  0  0  0  0  0
  -29.9930  -21.3190   19.3180 C   0  0  0  0  0  0  0  0  0  0  0  0
  -31.6960  -20.0700   17.5220 N   0  0  0  0  0  0  0  0  0  0  0  0
  -30.8930  -22.0080   18.5830 N   0  0  0  0  0  0  0  0  0  0  0  0
  -29.7510  -18.2060   16.1830 C   0  0  0  0  0  1  0  0  0  0  0  0
  -30.5100  -17.9910   17.5000 C   0  0  0  0  0  2  0  0  0  0  0  0
  -29.3020  -18.7550   20.1440 C   0  0  0  0  0  2  0  0  0  0  0  0
  -30.2230  -17.5060   20.6900 C   0  0  0  0  0  2  0  0  0  0  0  0
  -30.5780  -14.9190   20.3880 C   0  0  0  0  0  0  0  0  0  0  0  0
  -30.4240  -12.6450   19.3540 C   0  0  0  0  0  2  0  0  0  0  0  0
  -29.4900  -12.6550   18.1240 C   0  0  0  0  0  2  0  0  0  0  0  0
  -28.0330  -12.4350   18.5640 C   0  0  0  0  0  2  0  0  0  0  0  0
  -27.6220  -13.3730   19.7230 C   0  0  0  0  0  3  0  0  0  0  0  0
  -28.6620  -13.3540   20.8590 C   0  0  0  0  0  2  0  0  0  0  0  0
  -29.9540  -13.7030   20.2750 N   0  0  0  0  0  0  0  0  0  0  0  0
  -31.7760  -15.0220   20.1290 O   0  0  0  0  0  0  0  0  0  0  0  0
  -29.7880  -16.0490   20.5880 N   0  0  0  0  0  0  0  0  0  0  0  0
  -28.7950  -15.8840   20.6630 H   0  0  0  0  0  0  0  0  0  0  0  0
  -25.2330  -13.9410   20.4600 C   0  0  0  0  0  0  0  0  0  0  0  0
  -24.1820  -13.1550   20.8350 C   0  0  0  0  0  0  0  0  0  0  0  0
  -24.6670  -11.8080   20.8190 C   0  0  0  0  0  0  0  0  0  0  0  0
  -26.2870  -13.0740   20.2240 N   0  0  0  0  0  0  0  0  0  0  0  0
  -25.9580  -11.7920   20.5150 N   0  0  0  0  0  0  0  0  0  0  0  0
  -23.9670  -10.5350   21.0070 C   0  0  0  0  0  0  0  0  0  0  0  0
  -24.4080   -9.5880   21.9560 C   0  0  0  0  0  3  0  0  0  0  0  0
  -23.7080   -8.3760   22.1360 C   0  0  0  0  0  3  0  0  0  0  0  0
  -22.5530   -8.1020   21.3650 C   0  0  0  0  0  0  0  0  0  0  0  0
  -22.1340   -9.0380   20.4000 C   0  0  0  0  0  3  0  0  0  0  0  0
  -22.8340  -10.2410   20.2180 C   0  0  0  0  0  3  0  0  0  0  0  0
  -21.8240   -6.9420   21.4520 O   0  0  0  0  0  0  0  0  0  0  0  0
  -21.7650   -6.2130   22.6140 C   0  0  0  0  0  0  0  0  0  0  0  0
  -21.2860   -6.7700   23.8210 C   0  0  0  0  0  3  0  0  0  0  0  0
  -21.1790   -5.9660   24.9740 C   0  0  0  0  0  3  0  0  0  0  0  0
  -21.5400   -4.6070   24.9180 C   0  0  0  0  0  0  0  0  0  0  0  0
  -22.0090   -4.0480   23.7170 C   0  0  0  0  0  3  0  0  0  0  0  0
  -22.1180   -4.8490   22.5670 C   0  0  0  0  0  0  0  0  0  0  0  0
  -22.5540   -4.3030   21.4050 F   0  0  0  0  0  0  0  0  0  0  0  0
  -21.4280   -3.8320   26.0220 F   0  0  0  0  0  0  0  0  0  0  0  0
  -22.7730  -13.6020   21.0940 C   0  0  0  0  0  0  0  0  0  0  0  0
  -22.0520  -12.8930   21.9510 N   0  0  0  0  0  0  0  0  0  0  0  0
  -22.3190  -14.6160   20.5570 O   0  0  0  0  0  0  0  0  0  0  0  0
  -22.4340  -12.0770   22.4110 H   0  0  0  0  0  0  0  0  0  0  0  0
  -21.1020  -13.1670   22.1600 H   0  0  0  0  0  0  0  0  0  0  0  0
  -25.3780  -15.3140   20.2780 N   0  0  0  0  0  0  0  0  0  0  0  0
  -24.6040  -15.9570   20.3920 H   0  0  0  0  0  0  0  0  0  0  0  0
  -26.2160  -15.7610   19.9350 H   0  0  0  0  0  0  0  0  0  0  0  0
  -28.9260  -22.3120   19.9470 C   0  0  0  0  0  2  0  0  0  0  0  0
  -29.2780  -23.8890   20.2400 C   0  0  0  0  0  3  0  0  0  0  0  0
  -28.3230  -25.1000   19.7140 C   0  0  0  0  0  3  0  0  0  0  0  0
  -28.4030  -26.5320   20.1980 O   0  0  0  0  0  0  0  0  0  0  0  0
  -24.6240  -31.9680   23.2840 C   0  0  0  0  0  0  0  0  0  0  0  0
  -27.2750  -27.4010   20.1600 C   0  0  0  0  0  0  0  0  0  0  0  0
  -23.4320  -30.5690   21.6360 C   0  0  0  0  0  3  0  0  0  0  0  0
  -24.8890  -29.0310   20.1990 C   0  0  0  0  0  0  0  0  0  0  0  0
  -25.9740  -30.8780   21.4640 C   0  0  0  0  0  2  0  0  0  0  0  0
  -26.0590  -29.5010   20.8100 C   0  0  0  0  0  0  0  0  0  0  0  0
  -27.2450  -28.6940   20.7890 C   0  0  0  0  0  3  0  0  0  0  0  0
  -26.0770  -27.0130   19.5090 C   0  0  0  0  0  3  0  0  0  0  0  0
  -24.9050  -27.7930   19.5450 C   0  0  0  0  0  3  0  0  0  0  0  0
  -23.6500  -29.9050   20.2500 C   0  0  0  0  0  2  0  0  0  0  0  0
  -24.6960  -31.1590   22.1830 N   0  0  0  0  0  0  0  0  0  0  0  0
  -23.5360  -32.2370   23.8160 O   0  0  0  0  0  0  0  0  0  0  0  0
  -22.7720  -29.5470   22.5900 C   0  0  0  0  0  0  0  0  0  0  0  0
  -21.4480  -29.3520   22.4550 N   0  0  0  0  0  0  0  0  0  0  0  0
  -23.4500  -28.9270   23.4140 O   0  0  0  0  0  0  0  0  0  0  0  0
  -20.9580  -29.8970   21.7590 H   0  0  0  0  0  0  0  0  0  0  0  0
  -18.0860  -28.0890   22.9160 C   0  0  0  0  0  0  0  0  0  0  0  0
  -20.6350  -28.4040   23.2190 C   0  0  0  0  0  3  0  0  0  0  0  0
  -20.7730  -26.9690   22.6590 C   0  0  0  0  0  2  0  0  0  0  0  0
  -19.6950  -26.6190   21.6300 C   0  0  0  0  0  2  0  0  0  0  0  0
  -18.3000  -26.7400   22.2500 C   0  0  0  0  0  2  0  0  0  0  0  0
  -19.1830  -28.8790   23.3560 C   0  0  0  0  0  0  0  0  0  0  0  0
  -18.9290  -30.1390   23.9360 C   0  0  0  0  0  3  0  0  0  0  0  0
  -17.6110  -30.6130   24.0820 C   0  0  0  0  0  3  0  0  0  0  0  0
  -16.5290  -29.8220   23.6580 C   0  0  0  0  0  3  0  0  0  0  0  0
  -16.7680  -28.5620   23.0810 C   0  0  0  0  0  3  0  0  0  0  0  0
  -25.8990  -32.6110   23.9090 C   0  0  0  0  0  3  0  0  0  0  0  0
  -25.5880  -34.0140   24.2230 N   0  0  0  0  0  0  0  0  0  0  0  0
  -25.9180  -35.0590   23.4540 C   0  0  0  0  0  0  0  0  0  0  0  0
  -26.5850  -34.9460   22.4230 O   0  0  0  0  0  0  0  0  0  0  0  0
  -24.9990  -34.1730   25.0280 H   0  0  0  0  0  0  0  0  0  0  0  0
  -24.1860  -36.8460   23.0910 C   0  0  0  0  0  1  0  0  0  0  0  0
  -25.4320  -36.4550   23.9010 C   0  0  0  0  0  3  0  0  0  0  0  0
  -27.5690  -37.3490   24.7100 C   0  0  0  0  0  1  0  0  0  0  0  0
  -26.4630  -37.5070   23.7710 N   0  0  0  0  0  0  0  0  0  0  0  0
  -26.0570  -38.4280   23.9140 H   0  0  0  0  0  0  0  0  0  0  0  0
  -26.4060  -31.8560   25.1990 C   0  0  1  0  0  0  0  0  0  0  0  0
  -25.3080  -31.6310   26.2650 C   0  0  0  0  0  1  0  0  0  0  0  0
  -26.9930  -30.4750   24.8280 C   0  0  0  0  0  1  0  0  0  0  0  0
  -27.5540  -32.6580   25.8560 C   0  0  0  0  0  1  0  0  0  0  0  0
  1  6  1  0
  2  4  1  0
  2  9  1  0
  3  2  2  0
  4 49  1  0
  5  1  2  0
  5  3  1  0
  6  4  2  0
  7  8  1  0
  8  3  1  0
  9 10  1  0
 11 19  1  0
 12 17  1  0
 13 14  1  0
 13 12  1  0
 15 14  1  0
 15 24  1  0
 15 16  1  0
 17 11  1  0
 17 16  1  0
 18 11  2  0
 19 20  1  0
 19 10  1  0
 21 22  2  0
 22 41  1  0
 23 22  1  0
 23 26  1  0
 24 21  1  0
 24 25  1  0
 25 23  2  0
 26 27  1  0
 27 28  2  0
 29 32  1  0
 29 28  1  0
 30 29  2  0
 31 30  1  0
 31 26  2  0
 32 33  1  0
 33 34  1  0
 34 35  2  0
 36 35  1  0
 36 40  1  0
 37 36  2  0
 38 33  2  0
 38 37  1  0
 39 38  1  0
 41 42  1  0
 42 45  1  0
 42 44  1  0
 43 41  2  0
 46 47  1  0
 46 21  1  0
 48 46  1  0
 49 50  1  0
 51 52  1  0
 51 50  2  0
 53 64  2  0
 54 52  1  0
 54 59  1  0
 55 63  1  0
 55 65  1  0
 56 62  1  0
 56 58  1  0
 57 63  1  0
 58 57  1  0
 59 58  2  0
 60 61  1  0
 60 54  2  0
 61 56  2  0
 62 55  1  0
 63 53  1  0
 65 67  2  0
 66 65  1  0
 68 66  1  0
 69 78  2  0
 69 74  1  0
 70 66  1  0
 70 74  1  0
 71 70  1  0
 72 73  1  0
 72 71  1  0
 73 69  1  0
 74 75  2  0
 75 76  1  0
 77 76  2  0
 78 77  1  0
 79 53  1  0
 79 80  1  0
 79 89  1  0
 80 83  1  0
 81 85  1  0
 81 80  1  0
 82 81  2  0
 85 84  1  0
 87 85  1  0
 87 88  1  0
 87 86  1  0
 89 92  1  1
 89 90  1  0
 91 89  1  0
M  ISO  4  11 100  19 100  51 101  52 101
M  END
>  <TORSDO>  (18) 
F 22

>  <SCORE>  (18) 
-12.836

>  <name>  (18) 
17

>  <ligand_id>  (18) 
17

>  <original_smiles>  (18) 
[H]c1nc(C([H])([H])C([H])([H])[H])c(C([H])([H])C([H])([H])N([H])C(=O)N2C([H])([H])C([H])([H])C([H])([H])C([H])(n3nc(-c4c([H])c([H])c(Oc5c([H])c([H])c(F)c([H])c5F)c([H])c4[H])c(C(=O)N([H])[H])c3N([H])[H])C2([H])[H])c(C([H])([H])C([H])([H])C([H])([H])Oc2c([H])c([H])c3c(c2[H])C([H])([H])N(C(=O)C([H])(N([H])C(=O)C([H])(N([H])C([H])([H])[H])C([H])([H])[H])C(C([H])([H])[H])(C([H])([H])[H])C([H])([H])[H])C([H])(C(=O)N([H])C2([H])c4c([H])c([H])c([H])c([H])c4C([H])([H])C([H])([H])C2([H])[H])C3([H])[H])n1

>  <smiles>  (18) 
[H]c1nc(C([H])([H])C([H])([H])[H])c(C([H])([H])C([H])([H])N([H])C(=O)N2C([H])([H])C([H])([H])C([H])([H])C([H])(n3nc(-c4c([H])c([H])c(Oc5c([H])c([H])c(F)c([H])c5F)c([H])c4[H])c(C(=O)N([H])[H])c3N([H])[H])C2([H])[H])c(C([H])([H])C([H])([H])C([H])([H])Oc2c([H])c([H])c3c(c2[H])C([H])([H])N(C(=O)C([H])(N([H])C(=O)C([H])(N([H])C([H])([H])[H])C([H])([H])[H])C(C([H])([H])[H])(C([H])([H])[H])C([H])([H])[H])C([H])(C(=O)N([H])C2([H])c4c([H])c([H])c([H])c([H])c4C([H])([H])C([H])([H])C2([H])[H])C3([H])[H])n1

$$$$
18:0:0
     RDKit          3D

 87 94  0  0  1  0  0  0  0  0999 V2000
  -30.2210  -22.5340   19.5230 C   0  0  0  0  0  1  0  0  0  0  0  0
  -29.3820  -22.3840   21.8590 C   0  0  0  0  0  1  0  0  0  0  0  0
  -28.9730  -22.2820   20.3830 C   0  0  1  0  0  0  0  0  0  0  0  0
  -27.9800  -23.9180   20.1460 C   0  0  0  0  0  2  0  0  0  0  0  0
  -28.1550  -25.6480   20.3190 O   0  0  0  0  0  0  0  0  0  0  0  0
  -24.6490  -31.8980   23.2330 C   0  0  0  0  0  0  0  0  0  0  0  0
  -27.1730  -26.8400   20.2540 C   0  0  0  0  0  0  0  0  0  0  0  0
  -23.4570  -30.4960   21.6020 C   0  0  0  0  0  3  0  0  0  0  0  0
  -24.9020  -28.8480   20.1940 C   0  0  0  0  0  0  0  0  0  0  0  0
  -26.0340  -30.6450   21.4750 C   0  0  0  0  0  2  0  0  0  0  0  0
  -26.0970  -29.2140   20.8230 C   0  0  0  0  0  0  0  0  0  0  0  0
  -27.2190  -28.2380   20.8190 C   0  0  0  0  0  3  0  0  0  0  0  0
  -25.9440  -26.6710   19.5720 C   0  0  0  0  0  3  0  0  0  0  0  0
  -24.8610  -27.6010   19.5450 C   0  0  0  0  0  3  0  0  0  0  0  0
  -23.6930  -29.7940   20.2340 C   0  0  0  0  0  2  0  0  0  0  0  0
  -24.7360  -31.0460   22.1560 N   0  0  0  0  0  0  0  0  0  0  0  0
  -23.5570  -32.2010   23.7440 O   0  0  0  0  0  0  0  0  0  0  0  0
  -22.7430  -29.5210   22.5780 C   0  0  0  0  0  0  0  0  0  0  0  0
  -21.4110  -29.3650   22.4500 N   0  0  0  0  0  0  0  0  0  0  0  0
  -23.3990  -28.9030   23.4190 O   0  0  0  0  0  0  0  0  0  0  0  0
  -20.9330  -29.9110   21.7470 H   0  0  0  0  0  0  0  0  0  0  0  0
  -18.0230  -28.1580   22.9620 C   0  0  0  0  0  0  0  0  0  0  0  0
  -20.5820  -28.4330   23.2260 C   0  0  0  0  0  3  0  0  0  0  0  0
  -20.6860  -26.9970   22.6630 C   0  0  0  0  0  2  0  0  0  0  0  0
  -19.5870  -26.6660   21.6480 C   0  0  0  0  0  2  0  0  0  0  0  0
  -18.2040  -26.8080   22.2890 C   0  0  0  0  0  2  0  0  0  0  0  0
  -19.1380  -28.9280   23.3870 C   0  0  0  0  0  0  0  0  0  0  0  0
  -18.9110  -30.1880   23.9820 C   0  0  0  0  0  3  0  0  0  0  0  0
  -17.6020  -30.6790   24.1520 C   0  0  0  0  0  3  0  0  0  0  0  0
  -16.5020  -29.9070   23.7400 C   0  0  0  0  0  3  0  0  0  0  0  0
  -16.7140  -28.6490   23.1510 C   0  0  0  0  0  3  0  0  0  0  0  0
  -25.9140  -32.5480   23.8710 C   0  0  0  0  0  3  0  0  0  0  0  0
  -26.3990  -31.8030   25.1770 C   0  0  1  0  0  0  0  0  0  0  0  0
  -25.2850  -31.6010   26.2310 C   0  0  0  0  0  1  0  0  0  0  0  0
  -26.9770  -30.4090   24.8400 C   0  0  0  0  0  1  0  0  0  0  0  0
  -27.5470  -32.6010   25.8390 C   0  0  0  0  0  1  0  0  0  0  0  0
  -25.6010  -33.9550   24.1860 N   0  0  0  0  0  0  0  0  0  0  0  0
  -25.9170  -35.0080   23.4200 C   0  0  0  0  0  0  0  0  0  0  0  0
  -26.5620  -34.8960   22.3740 O   0  0  0  0  0  0  0  0  0  0  0  0
  -25.0230  -34.1150   24.9990 H   0  0  0  0  0  0  0  0  0  0  0  0
  -24.1730  -36.8020   23.1190 C   0  0  0  0  0  1  0  0  0  0  0  0
  -25.4490  -36.4040   23.8810 C   0  0  0  0  0  3  0  0  0  0  0  0
  -27.6090  -37.3140   24.6180 C   0  0  0  0  0  1  0  0  0  0  0  0
  -26.4740  -37.4590   23.7110 N   0  0  0  0  0  0  0  0  0  0  0  0
  -26.0700  -38.3800   23.8530 H   0  0  0  0  0  0  0  0  0  0  0  0
  -28.7130  -20.3790   20.1840 C   0  0  0  0  0  3  0  0  0  0  0  0
  -27.0560  -19.0500   18.6950 C   0  0  0  0  0  1  0  0  0  0  0  0
  -28.0060  -20.2520   18.8200 C   0  0  0  0  0  2  0  0  0  0  0  0
  -29.7530  -18.7660   20.3580 C   0  0  0  0  0  2  0  0  0  0  0  0
  -30.3130  -15.6690   20.2380 C   0  0  0  0  0  0  0  0  0  0  0  0
  -30.4040  -13.1510   19.3900 C   0  0  0  0  0  2  0  0  0  0  0  0
  -29.5040  -12.7860   18.1780 C   0  0  0  0  0  2  0  0  0  0  0  0
  -28.0790  -12.4360   18.6320 C   0  0  0  0  0  2  0  0  0  0  0  0
  -27.5800  -13.4100   19.7260 C   0  0  0  0  0  3  0  0  0  0  0  0
  -28.6210  -13.6960   20.8330 C   0  0  0  0  0  2  0  0  0  0  0  0
  -29.7890  -14.3130   20.1680 N   0  0  0  0  0  0  0  0  0  0  0  0
  -31.5450  -15.6270   20.0660 O   0  0  0  0  0  0  0  0  0  0  0  0
  -29.5470  -17.0110   20.3110 N   0  0  0  0  0  0  0  0  0  0  0  0
  -28.5630  -16.7930   20.3820 H   0  0  0  0  0  0  0  0  0  0  0  0
  -25.2170  -13.9070   20.5120 C   0  0  0  0  0  0  0  0  0  0  0  0
  -24.1710  -13.1090   20.8800 C   0  0  0  0  0  0  0  0  0  0  0  0
  -24.6600  -11.7680   20.8330 C   0  0  0  0  0  0  0  0  0  0  0  0
  -26.2720  -13.0530   20.2520 N   0  0  0  0  0  0  0  0  0  0  0  0
  -25.9520  -11.7580   20.5130 N   0  0  0  0  0  0  0  0  0  0  0  0
  -23.9510  -10.4940   21.0150 C   0  0  0  0  0  0  0  0  0  0  0  0
  -24.3800   -9.5380   21.9630 C   0  0  0  0  0  3  0  0  0  0  0  0
  -23.6670   -8.3310   22.1360 C   0  0  0  0  0  3  0  0  0  0  0  0
  -22.5110   -8.0720   21.3610 C   0  0  0  0  0  0  0  0  0  0  0  0
  -22.1010   -9.0170   20.4040 C   0  0  0  0  0  3  0  0  0  0  0  0
  -22.8140  -10.2150   20.2290 C   0  0  0  0  0  3  0  0  0  0  0  0
  -21.7700   -6.9170   21.4410 O   0  0  0  0  0  0  0  0  0  0  0  0
  -21.6850   -6.1960   22.6060 C   0  0  0  0  0  0  0  0  0  0  0  0
  -21.1590   -6.7540   23.7910 C   0  0  0  0  0  3  0  0  0  0  0  0
  -21.0260   -5.9580   24.9450 C   0  0  0  0  0  3  0  0  0  0  0  0
  -21.4070   -4.6030   24.9150 C   0  0  0  0  0  0  0  0  0  0  0  0
  -21.9240   -4.0430   23.7340 C   0  0  0  0  0  3  0  0  0  0  0  0
  -22.0600   -4.8380   22.5810 C   0  0  0  0  0  0  0  0  0  0  0  0
  -22.5400   -4.2880   21.4400 F   0  0  0  0  0  0  0  0  0  0  0  0
  -21.2720   -3.8360   26.0220 F   0  0  0  0  0  0  0  0  0  0  0  0
  -22.7690  -13.5650   21.1560 C   0  0  0  0  0  0  0  0  0  0  0  0
  -22.0570  -12.8560   22.0250 N   0  0  0  0  0  0  0  0  0  0  0  0
  -22.3150  -14.5830   20.6370 O   0  0  0  0  0  0  0  0  0  0  0  0
  -22.4410  -12.0330   22.4660 H   0  0  0  0  0  0  0  0  0  0  0  0
  -21.1160  -13.1420   22.2530 H   0  0  0  0  0  0  0  0  0  0  0  0
  -25.3560  -15.2820   20.3440 N   0  0  0  0  0  0  0  0  0  0  0  0
  -24.5750  -15.9190   20.4540 H   0  0  0  0  0  0  0  0  0  0  0  0
  -26.1830  -15.7320   19.9760 H   0  0  0  0  0  0  0  0  0  0  0  0
  3  1  1  6
  3  2  1  0
  4  5  1  0
  4  3  1  0
  6 17  2  0
  7  5  1  0
  7 12  1  0
  8 16  1  0
  8 18  1  0
  9 15  1  0
  9 11  1  0
 10 16  1  0
 11 10  1  0
 12 11  2  0
 13  7  2  0
 14 13  1  0
 14  9  2  0
 15  8  1  0
 16  6  1  0
 18 20  2  0
 19 18  1  0
 21 19  1  0
 22 31  2  0
 22 27  1  0
 23 19  1  0
 23 27  1  0
 24 23  1  0
 25 26  1  0
 25 24  1  0
 26 22  1  0
 27 28  2  0
 28 29  1  0
 30 29  2  0
 31 30  1  0
 32  6  1  0
 32 37  1  0
 32 33  1  0
 33 36  1  1
 33 34  1  0
 35 33  1  0
 37 40  1  0
 38 42  1  0
 38 37  1  0
 39 38  2  0
 42 41  1  0
 44 45  1  0
 44 42  1  0
 44 43  1  0
 46 48  1  0
 46 49  1  0
 46  3  1  0
 47 48  1  0
 50 58  1  0
 51 56  1  0
 52 53  1  0
 52 51  1  0
 54 53  1  0
 54 63  1  0
 54 55  1  0
 56 50  1  0
 56 55  1  0
 57 50  2  0
 58 49  1  0
 58 59  1  0
 60 61  2  0
 61 80  1  0
 62 61  1  0
 62 65  1  0
 63 60  1  0
 63 64  1  0
 64 62  2  0
 65 66  1  0
 66 67  2  0
 68 71  1  0
 68 67  1  0
 69 68  2  0
 70 69  1  0
 70 65  2  0
 71 72  1  0
 72 73  1  0
 73 74  2  0
 75 74  1  0
 75 79  1  0
 76 75  2  0
 77 72  2  0
 77 76  1  0
 78 77  1  0
 80 81  1  0
 81 84  1  0
 81 83  1  0
 82 80  2  0
 85 86  1  0
 85 60  1  0
 87 85  1  0
M  ISO  4   4 101   5 101  50 100  58 100
M  END
>  <TORSDO>  (19) 
F 20

>  <SCORE>  (19) 
-16.329

>  <name>  (19) 
18

>  <ligand_id>  (19) 
18

>  <original_smiles>  (19) 
[H]c1c([H])c([H])c2c(c1[H])C([H])([H])C([H])([H])C([H])([H])C2([H])N([H])C(=O)C1([H])N(C(=O)C([H])(N([H])C(=O)C([H])(N([H])C([H])([H])[H])C([H])([H])[H])C(C([H])([H])[H])(C([H])([H])[H])C([H])([H])[H])C([H])([H])c2c([H])c(OC([H])([H])C(C([H])([H])[H])(C([H])([H])[H])C([H])(C([H])([H])N([H])C(=O)N3C([H])([H])C([H])([H])C([H])([H])C([H])(n4nc(-c5c([H])c([H])c(Oc6c([H])c([H])c(F)c([H])c6F)c([H])c5[H])c(C(=O)N([H])[H])c4N([H])[H])C3([H])[H])C([H])([H])C([H])([H])[H])c([H])c([H])c2C1([H])[H]

>  <smiles>  (19) 
[H]c1c([H])c([H])c2c(c1[H])C([H])([H])C([H])([H])C([H])([H])C2([H])N([H])C(=O)C1([H])N(C(=O)C([H])(N([H])C(=O)C([H])(N([H])C([H])([H])[H])C([H])([H])[H])C(C([H])([H])[H])(C([H])([H])[H])C([H])([H])[H])C([H])([H])c2c([H])c(OC([H])([H])C(C([H])([H])[H])(C([H])([H])[H])C([H])(C([H])([H])N([H])C(=O)N3C([H])([H])C([H])([H])C([H])([H])C([H])(n4nc(-c5c([H])c([H])c(Oc6c([H])c([H])c(F)c([H])c6F)c([H])c5[H])c(C(=O)N([H])[H])c4N([H])[H])C3([H])[H])C([H])([H])C([H])([H])[H])c([H])c([H])c2C1([H])[H]

$$$$
19:0:0
     RDKit          3D

 90 98  0  0  1  0  0  0  0  0999 V2000
  -28.5670  -23.1890   21.3540 C   0  0  0  0  0  3  0  0  0  0  0  0
  -29.2890  -22.5970   19.4160 C   0  0  0  0  0  3  0  0  0  0  0  0
  -28.7960  -23.7380   20.0520 C   0  0  0  0  0  0  0  0  0  0  0  0
  -28.9140  -21.8890   21.4790 N   0  0  0  0  0  0  0  0  0  0  0  0
  -29.3560  -21.4670   20.2640 N   0  0  0  0  0  0  0  0  0  0  0  0
  -28.5390  -25.1830   19.4230 C   0  0  0  0  0  2  0  0  0  0  0  0
  -28.3770  -26.4360   20.2360 O   0  0  0  0  0  0  0  0  0  0  0  0
  -24.6530  -31.8930   23.2330 C   0  0  0  0  0  0  0  0  0  0  0  0
  -27.2580  -27.3050   20.1480 C   0  0  0  0  0  0  0  0  0  0  0  0
  -23.4460  -30.5030   21.5900 C   0  0  0  0  0  3  0  0  0  0  0  0
  -24.8950  -28.9550   20.1500 C   0  0  0  0  0  0  0  0  0  0  0  0
  -25.9870  -30.8100   21.4030 C   0  0  0  0  0  2  0  0  0  0  0  0
  -26.0660  -29.4290   20.7510 C   0  0  0  0  0  0  0  0  0  0  0  0
  -27.2440  -28.6130   20.7470 C   0  0  0  0  0  3  0  0  0  0  0  0
  -26.0530  -26.8960   19.5320 C   0  0  0  0  0  3  0  0  0  0  0  0
  -24.8940  -27.6970   19.5320 C   0  0  0  0  0  3  0  0  0  0  0  0
  -23.6600  -29.8340   20.2050 C   0  0  0  0  0  2  0  0  0  0  0  0
  -24.7150  -31.0880   22.1320 N   0  0  0  0  0  0  0  0  0  0  0  0
  -23.5690  -32.1660   23.7720 O   0  0  0  0  0  0  0  0  0  0  0  0
  -22.7840  -29.4840   22.5490 C   0  0  0  0  0  0  0  0  0  0  0  0
  -21.4580  -29.3050   22.4230 N   0  0  0  0  0  0  0  0  0  0  0  0
  -23.4650  -28.8560   23.3640 O   0  0  0  0  0  0  0  0  0  0  0  0
  -20.9650  -29.8660   21.7430 H   0  0  0  0  0  0  0  0  0  0  0  0
  -18.0890  -28.0820   22.9230 C   0  0  0  0  0  0  0  0  0  0  0  0
  -20.6460  -28.3620   23.1930 C   0  0  0  0  0  3  0  0  0  0  0  0
  -20.7580  -26.9300   22.6190 C   0  0  0  0  0  2  0  0  0  0  0  0
  -19.6600  -26.6010   21.6030 C   0  0  0  0  0  2  0  0  0  0  0  0
  -18.2750  -26.7360   22.2450 C   0  0  0  0  0  2  0  0  0  0  0  0
  -19.2030  -28.8530   23.3530 C   0  0  0  0  0  0  0  0  0  0  0  0
  -18.9740  -30.1130   23.9470 C   0  0  0  0  0  3  0  0  0  0  0  0
  -17.6660  -30.6060   24.1100 C   0  0  0  0  0  3  0  0  0  0  0  0
  -16.5670  -29.8340   23.6920 C   0  0  0  0  0  3  0  0  0  0  0  0
  -16.7810  -28.5730   23.1070 C   0  0  0  0  0  3  0  0  0  0  0  0
  -25.9350  -32.5270   23.8560 C   0  0  0  0  0  3  0  0  0  0  0  0
  -26.4500  -31.7570   25.1350 C   0  0  1  0  0  0  0  0  0  0  0  0
  -25.3580  -31.5230   26.2020 C   0  0  0  0  0  1  0  0  0  0  0  0
  -27.0320  -30.3780   24.7450 C   0  0  0  0  0  1  0  0  0  0  0  0
  -27.6020  -32.5500   25.7960 C   0  0  0  0  0  1  0  0  0  0  0  0
  -25.6270  -33.9260   24.1840 N   0  0  0  0  0  0  0  0  0  0  0  0
  -25.9540  -34.9790   23.4210 C   0  0  0  0  0  0  0  0  0  0  0  0
  -26.6170  -34.8720   22.3850 O   0  0  0  0  0  0  0  0  0  0  0  0
  -25.0400  -34.0830   24.9910 H   0  0  0  0  0  0  0  0  0  0  0  0
  -24.2200  -36.7710   23.0800 C   0  0  0  0  0  1  0  0  0  0  0  0
  -25.4700  -36.3690   23.8800 C   0  0  0  0  0  3  0  0  0  0  0  0
  -27.6110  -37.2620   24.6860 C   0  0  0  0  0  1  0  0  0  0  0  0
  -26.5000  -37.4220   23.7510 N   0  0  0  0  0  0  0  0  0  0  0  0
  -26.0940  -38.3420   23.8970 H   0  0  0  0  0  0  0  0  0  0  0  0
  -30.0540  -20.1170   20.0300 C   0  0  0  0  0  2  0  0  0  0  0  0
  -29.2910  -18.5420   21.9800 C   0  0  0  0  0  1  0  0  0  0  0  0
  -29.5080  -18.6440   20.4650 C   0  0  1  0  0  0  0  0  0  0  0  0
  -28.3100  -18.4910   19.8950 F   0  0  0  0  0  0  0  0  0  0  0  0
  -30.3960  -17.3780   19.9610 C   0  0  0  0  0  2  0  0  0  0  0  0
  -30.7230  -14.7910   19.9690 C   0  0  0  0  0  0  0  0  0  0  0  0
  -30.4570  -12.5400   18.9380 C   0  0  0  0  0  2  0  0  0  0  0  0
  -29.4480  -12.6240   17.7710 C   0  0  0  0  0  2  0  0  0  0  0  0
  -28.0050  -12.4490   18.2780 C   0  0  0  0  0  2  0  0  0  0  0  0
  -27.6990  -13.3170   19.5290 C   0  0  0  0  0  3  0  0  0  0  0  0
  -28.8190  -13.2180   20.5860 C   0  0  0  0  0  2  0  0  0  0  0  0
  -30.0820  -13.5750   19.9270 N   0  0  0  0  0  0  0  0  0  0  0  0
  -31.8820  -14.8950   19.5570 O   0  0  0  0  0  0  0  0  0  0  0  0
  -29.9890  -15.9290   20.2470 N   0  0  0  0  0  0  0  0  0  0  0  0
  -29.0330  -15.7810   20.5320 H   0  0  0  0  0  0  0  0  0  0  0  0
  -25.3540  -13.8810   20.4070 C   0  0  0  0  0  0  0  0  0  0  0  0
  -24.3150  -13.0940   20.8240 C   0  0  0  0  0  0  0  0  0  0  0  0
  -24.7810  -11.7460   20.7390 C   0  0  0  0  0  0  0  0  0  0  0  0
  -26.3860  -13.0120   20.0920 N   0  0  0  0  0  0  0  0  0  0  0  0
  -26.0520  -11.7210   20.3560 N   0  0  0  0  0  0  0  0  0  0  0  0
  -24.0720  -10.4750   20.9430 C   0  0  0  0  0  0  0  0  0  0  0  0
  -24.5140   -9.5260   21.8910 C   0  0  0  0  0  3  0  0  0  0  0  0
  -23.8050   -8.3200   22.0830 C   0  0  0  0  0  3  0  0  0  0  0  0
  -22.6380   -8.0560   21.3270 C   0  0  0  0  0  0  0  0  0  0  0  0
  -22.2160   -8.9940   20.3680 C   0  0  0  0  0  3  0  0  0  0  0  0
  -22.9270  -10.1890   20.1740 C   0  0  0  0  0  3  0  0  0  0  0  0
  -21.8990   -6.9030   21.4290 O   0  0  0  0  0  0  0  0  0  0  0  0
  -21.7890   -6.2190   22.6130 C   0  0  0  0  0  0  0  0  0  0  0  0
  -21.2730   -6.8260   23.7790 C   0  0  0  0  0  3  0  0  0  0  0  0
  -21.1120   -6.0670   24.9560 C   0  0  0  0  0  3  0  0  0  0  0  0
  -21.4560   -4.7020   24.9670 C   0  0  0  0  0  0  0  0  0  0  0  0
  -21.9630   -4.0940   23.8050 C   0  0  0  0  0  3  0  0  0  0  0  0
  -22.1260   -4.8500   22.6320 C   0  0  0  0  0  0  0  0  0  0  0  0
  -22.5950   -4.2550   21.5080 F   0  0  0  0  0  0  0  0  0  0  0  0
  -21.2930   -3.9700   26.0940 F   0  0  0  0  0  0  0  0  0  0  0  0
  -22.9330  -13.5570   21.1840 C   0  0  0  0  0  0  0  0  0  0  0  0
  -22.2590  -12.8440   22.0800 N   0  0  0  0  0  0  0  0  0  0  0  0
  -22.4590  -14.5880   20.7070 O   0  0  0  0  0  0  0  0  0  0  0  0
  -22.6510  -12.0100   22.4920 H   0  0  0  0  0  0  0  0  0  0  0  0
  -21.3340  -13.1390   22.3610 H   0  0  0  0  0  0  0  0  0  0  0  0
  -25.4990  -15.2550   20.2430 N   0  0  0  0  0  0  0  0  0  0  0  0
  -24.7270  -15.8930   20.3950 H   0  0  0  0  0  0  0  0  0  0  0  0
  -26.3230  -15.7140   19.8760 H   0  0  0  0  0  0  0  0  0  0  0  0
  1  4  2  0
  2  3  2  0
  2  5  1  0
  3  1  1  0
  5  4  1  0
  6  3  1  0
  6  7  1  0
  8 19  2  0
  9  7  1  0
  9 14  1  0
 10 18  1  0
 10 20  1  0
 11 17  1  0
 11 13  1  0
 12 18  1  0
 13 12  1  0
 14 13  2  0
 15  9  2  0
 16 15  1  0
 16 11  2  0
 17 10  1  0
 18  8  1  0
 20 22  2  0
 21 20  1  0
 23 21  1  0
 24 33  2  0
 24 29  1  0
 25 21  1  0
 25 29  1  0
 26 25  1  0
 27 28  1  0
 27 26  1  0
 28 24  1  0
 29 30  2  0
 30 31  1  0
 32 31  2  0
 33 32  1  0
 34  8  1  0
 34 39  1  0
 34 35  1  0
 35 38  1  1
 35 36  1  0
 37 35  1  0
 39 42  1  0
 40 44  1  0
 40 39  1  0
 41 40  2  0
 44 43  1  0
 46 44  1  0
 46 47  1  0
 46 45  1  0
 48  5  1  0
 48 50  1  0
 50 49  1  1
 51 50  1  0
 52 61  1  0
 52 50  1  0
 53 61  1  0
 54 59  1  0
 55 56  1  0
 55 54  1  0
 57 56  1  0
 57 66  1  0
 57 58  1  0
 59 53  1  0
 59 58  1  0
 60 53  2  0
 61 62  1  0
 63 64  2  0
 64 83  1  0
 65 64  1  0
 65 68  1  0
 66 67  1  0
 66 63  1  0
 67 65  2  0
 68 69  1  0
 69 70  2  0
 71 74  1  0
 71 70  1  0
 72 71  2  0
 73 72  1  0
 73 68  2  0
 74 75  1  0
 75 80  2  0
 75 76  1  0
 76 77  2  0
 77 78  1  0
 78 82  1  0
 79 78  2  0
 80 79  1  0
 81 80  1  0
 83 84  1  0
 84 87  1  0
 84 86  1  0
 85 83  2  0
 88 89  1  0
 88 63  1  0
 90 88  1  0
M  ISO  4   6 101   7 101  53 100  61 100
M  END
>  <TORSDO>  (20) 
F 20

>  <SCORE>  (20) 
-12.508

>  <name>  (20) 
19

>  <ligand_id>  (20) 
19

>  <original_smiles>  (20) 
[H]c1nn(C([H])([H])C(F)(C([H])([H])[H])C([H])([H])N([H])C(=O)N2C([H])([H])C([H])([H])C([H])([H])C([H])(n3nc(-c4c([H])c([H])c(Oc5c([H])c([H])c(F)c([H])c5F)c([H])c4[H])c(C(=O)N([H])[H])c3N([H])[H])C2([H])[H])c([H])c1C([H])([H])Oc1c([H])c([H])c2c(c1[H])C([H])([H])N(C(=O)C([H])(N([H])C(=O)C([H])(N([H])C([H])([H])[H])C([H])([H])[H])C(C([H])([H])[H])(C([H])([H])[H])C([H])([H])[H])C([H])(C(=O)N([H])C1([H])c3c([H])c([H])c([H])c([H])c3C([H])([H])C([H])([H])C1([H])[H])C2([H])[H]

>  <smiles>  (20) 
[H]c1nn(C([H])([H])C(F)(C([H])([H])[H])C([H])([H])N([H])C(=O)N2C([H])([H])C([H])([H])C([H])([H])C([H])(n3nc(-c4c([H])c([H])c(Oc5c([H])c([H])c(F)c([H])c5F)c([H])c4[H])c(C(=O)N([H])[H])c3N([H])[H])C2([H])[H])c([H])c1C([H])([H])Oc1c([H])c([H])c2c(c1[H])C([H])([H])N(C(=O)C([H])(N([H])C(=O)C([H])(N([H])C([H])([H])[H])C([H])([H])[H])C(C([H])([H])[H])(C([H])([H])[H])C([H])([H])[H])C([H])(C(=O)N([H])C1([H])c3c([H])c([H])c([H])c([H])c3C([H])([H])C([H])([H])C1([H])[H])C2([H])[H]

$$$$
20:0:0
     RDKit          3D

 92100  0  0  1  0  0  0  0  0999 V2000
  -29.0010  -20.5620   20.9960 C   0  0  0  0  0  3  0  0  0  0  0  0
  -29.5270  -19.5200   20.2880 C   0  0  0  0  0  0  0  0  0  0  0  0
  -30.0100  -20.0640   19.0570 C   0  0  0  0  0  0  0  0  0  0  0  0
  -29.7180  -21.4050   19.0450 C   0  0  0  0  0  0  0  0  0  0  0  0
  -30.6650  -19.2900   17.9380 C   0  0  0  0  0  1  0  0  0  0  0  0
  -29.9450  -22.4190   17.9610 C   0  0  0  0  0  1  0  0  0  0  0  0
  -29.0810  -21.7130   20.2440 N   0  0  0  0  0  0  0  0  0  0  0  0
  -29.5330  -18.0770   20.7400 C   0  0  0  0  0  2  0  0  0  0  0  0
  -30.9310  -17.5880   21.1570 C   0  0  0  0  0  2  0  0  0  0  0  0
  -30.9480  -16.3110   22.0240 C   0  0  0  0  0  2  0  0  0  0  0  0
  -30.7480  -14.3720   20.4580 C   0  0  0  0  0  0  0  0  0  0  0  0
  -30.3610  -12.3250   19.1360 C   0  0  0  0  0  2  0  0  0  0  0  0
  -29.4000  -12.5750   17.9590 C   0  0  0  0  0  2  0  0  0  0  0  0
  -27.9310  -12.4540   18.4090 C   0  0  0  0  0  2  0  0  0  0  0  0
  -27.6290  -13.2540   19.7030 C   0  0  0  0  0  3  0  0  0  0  0  0
  -28.6860  -12.9560   20.7850 C   0  0  0  0  0  2  0  0  0  0  0  0
  -30.0170  -13.2540   20.2230 N   0  0  0  0  0  0  0  0  0  0  0  0
  -31.7910  -14.6430   19.8560 O   0  0  0  0  0  0  0  0  0  0  0  0
  -30.2680  -15.1620   21.4270 N   0  0  0  0  0  0  0  0  0  0  0  0
  -29.4070  -14.8600   21.8610 H   0  0  0  0  0  0  0  0  0  0  0  0
  -25.2370  -13.8880   20.4080 C   0  0  0  0  0  0  0  0  0  0  0  0
  -24.1640  -13.1270   20.7900 C   0  0  0  0  0  0  0  0  0  0  0  0
  -24.6160  -11.7720   20.7690 C   0  0  0  0  0  0  0  0  0  0  0  0
  -26.2740  -12.9960   20.1840 N   0  0  0  0  0  0  0  0  0  0  0  0
  -25.9040  -11.7200   20.4560 N   0  0  0  0  0  0  0  0  0  0  0  0
  -23.8810  -10.5160   20.9730 C   0  0  0  0  0  0  0  0  0  0  0  0
  -24.3190   -9.5520   21.9070 C   0  0  0  0  0  3  0  0  0  0  0  0
  -23.5890   -8.3590   22.1000 C   0  0  0  0  0  3  0  0  0  0  0  0
  -22.4060   -8.1220   21.3610 C   0  0  0  0  0  0  0  0  0  0  0  0
  -21.9880   -9.0760   20.4160 C   0  0  0  0  0  3  0  0  0  0  0  0
  -22.7180  -10.2600   20.2210 C   0  0  0  0  0  3  0  0  0  0  0  0
  -21.6470   -6.9810   21.4620 O   0  0  0  0  0  0  0  0  0  0  0  0
  -21.6110   -6.2400   22.6160 C   0  0  0  0  0  0  0  0  0  0  0  0
  -21.2210   -6.8020   23.8520 C   0  0  0  0  0  3  0  0  0  0  0  0
  -21.1310   -5.9890   24.9980 C   0  0  0  0  0  3  0  0  0  0  0  0
  -21.4240   -4.6150   24.9120 C   0  0  0  0  0  0  0  0  0  0  0  0
  -21.8100   -4.0520   23.6830 C   0  0  0  0  0  3  0  0  0  0  0  0
  -21.9020   -4.8630   22.5380 C   0  0  0  0  0  0  0  0  0  0  0  0
  -22.2510   -4.3120   21.3510 F   0  0  0  0  0  0  0  0  0  0  0  0
  -21.3310   -3.8300   26.0120 F   0  0  0  0  0  0  0  0  0  0  0  0
  -22.7730  -13.6150   21.0690 C   0  0  0  0  0  0  0  0  0  0  0  0
  -22.0450  -12.9310   21.9440 N   0  0  0  0  0  0  0  0  0  0  0  0
  -22.3380  -14.6360   20.5390 O   0  0  0  0  0  0  0  0  0  0  0  0
  -22.4080  -12.1030   22.3940 H   0  0  0  0  0  0  0  0  0  0  0  0
  -21.1090  -13.2380   22.1660 H   0  0  0  0  0  0  0  0  0  0  0  0
  -25.4140  -15.2550   20.2120 N   0  0  0  0  0  0  0  0  0  0  0  0
  -24.6590  -15.9250   20.3150 H   0  0  0  0  0  0  0  0  0  0  0  0
  -26.2670  -15.6720   19.8620 H   0  0  0  0  0  0  0  0  0  0  0  0
  -28.3920  -22.9360   20.6300 C   0  0  0  0  0  2  0  0  0  0  0  0
  -29.1390  -24.2910   20.5440 C   0  0  0  0  0  2  0  0  0  0  0  0
  -28.0730  -25.3060   20.1170 C   0  0  0  0  0  2  0  0  0  0  0  0
  -28.3400  -26.7080   20.2170 O   0  0  0  0  0  0  0  0  0  0  0  0
  -24.5840  -31.9340   23.2390 C   0  0  0  0  0  0  0  0  0  0  0  0
  -27.1890  -27.4750   20.1610 C   0  0  0  0  0  0  0  0  0  0  0  0
  -23.3640  -30.5420   21.6010 C   0  0  0  0  0  3  0  0  0  0  0  0
  -24.8060  -29.0060   20.1740 C   0  0  0  0  0  0  0  0  0  0  0  0
  -25.8960  -30.8840   21.4000 C   0  0  0  0  0  2  0  0  0  0  0  0
  -25.9690  -29.5130   20.7610 C   0  0  0  0  0  0  0  0  0  0  0  0
  -27.1640  -28.7560   20.7560 C   0  0  0  0  0  3  0  0  0  0  0  0
  -25.9980  -26.9990   19.5490 C   0  0  0  0  0  3  0  0  0  0  0  0
  -24.8130  -27.7450   19.5650 C   0  0  0  0  0  3  0  0  0  0  0  0
  -23.5660  -29.8670   20.2200 C   0  0  0  0  0  2  0  0  0  0  0  0
  -24.6320  -31.1340   22.1370 N   0  0  0  0  0  0  0  0  0  0  0  0
  -23.5060  -32.2090   23.7820 O   0  0  0  0  0  0  0  0  0  0  0  0
  -22.7090  -29.5200   22.5580 C   0  0  0  0  0  0  0  0  0  0  0  0
  -21.3830  -29.3450   22.4340 N   0  0  0  0  0  0  0  0  0  0  0  0
  -23.3920  -28.8870   23.3700 O   0  0  0  0  0  0  0  0  0  0  0  0
  -20.8910  -29.9120   21.7570 H   0  0  0  0  0  0  0  0  0  0  0  0
  -18.0010  -28.1890   22.9440 C   0  0  0  0  0  0  0  0  0  0  0  0
  -20.5620  -28.4150   23.2080 C   0  0  0  0  0  3  0  0  0  0  0  0
  -20.6460  -26.9820   22.6320 C   0  0  0  0  0  2  0  0  0  0  0  0
  -19.5370  -26.6730   21.6230 C   0  0  0  0  0  2  0  0  0  0  0  0
  -18.1590  -26.8370   22.2700 C   0  0  0  0  0  2  0  0  0  0  0  0
  -19.1300  -28.9360   23.3700 C   0  0  0  0  0  0  0  0  0  0  0  0
  -18.9290  -30.2050   23.9570 C   0  0  0  0  0  3  0  0  0  0  0  0
  -17.6310  -30.7220   24.1290 C   0  0  0  0  0  3  0  0  0  0  0  0
  -16.5160  -29.9690   23.7190 C   0  0  0  0  0  3  0  0  0  0  0  0
  -16.7020  -28.7060   23.1300 C   0  0  0  0  0  3  0  0  0  0  0  0
  -25.8760  -32.5580   23.8540 C   0  0  0  0  0  3  0  0  0  0  0  0
  -25.5740  -33.9560   24.1850 N   0  0  0  0  0  0  0  0  0  0  0  0
  -25.9060  -35.0070   23.4220 C   0  0  0  0  0  0  0  0  0  0  0  0
  -26.5730  -34.9000   22.3890 O   0  0  0  0  0  0  0  0  0  0  0  0
  -24.9840  -34.1130   24.9900 H   0  0  0  0  0  0  0  0  0  0  0  0
  -24.1850  -36.8080   23.0670 C   0  0  0  0  0  1  0  0  0  0  0  0
  -25.4230  -36.3970   23.8810 C   0  0  0  0  0  3  0  0  0  0  0  0
  -27.5640  -37.2710   24.7090 C   0  0  0  0  0  1  0  0  0  0  0  0
  -26.4590  -37.4470   23.7700 N   0  0  0  0  0  0  0  0  0  0  0  0
  -26.0560  -38.3670   23.9270 H   0  0  0  0  0  0  0  0  0  0  0  0
  -26.3940  -31.7800   25.1250 C   0  0  1  0  0  0  0  0  0  0  0  0
  -25.3070  -31.5480   26.1990 C   0  0  0  0  0  1  0  0  0  0  0  0
  -26.9670  -30.4000   24.7260 C   0  0  0  0  0  1  0  0  0  0  0  0
  -27.5470  -32.5680   25.7870 C   0  0  0  0  0  1  0  0  0  0  0  0
  2  8  1  0
  2  1  2  0
  3  2  1  0
  4  3  2  0
  4  7  1  0
  5  3  1  0
  6  4  1  0
  7 49  1  0
  7  1  1  0
  8  9  1  0
  9 10  1  0
 11 19  1  0
 12 17  1  0
 13 14  1  0
 13 12  1  0
 15 14  1  0
 15 24  1  0
 15 16  1  0
 17 11  1  0
 17 16  1  0
 18 11  2  0
 19 20  1  0
 19 10  1  0
 21 22  2  0
 22 41  1  0
 23 22  1  0
 23 26  1  0
 24 21  1  0
 24 25  1  0
 25 23  2  0
 26 27  1  0
 27 28  2  0
 29 32  1  0
 29 28  1  0
 30 29  2  0
 31 30  1  0
 31 26  2  0
 32 33  1  0
 33 34  1  0
 34 35  2  0
 36 35  1  0
 36 40  1  0
 37 36  2  0
 38 33  2  0
 38 37  1  0
 39 38  1  0
 41 42  1  0
 42 45  1  0
 42 44  1  0
 43 41  2  0
 46 47  1  0
 46 21  1  0
 48 46  1  0
 50 49  1  0
 51 52  1  0
 51 50  1  0
 53 64  2  0
 54 52  1  0
 54 59  1  0
 55 63  1  0
 55 65  1  0
 56 62  1  0
 56 58  1  0
 57 63  1  0
 58 57  1  0
 59 58  2  0
 60 61  1  0
 60 54  2  0
 61 56  2  0
 62 55  1  0
 63 53  1  0
 65 67  2  0
 66 65  1  0
 68 66  1  0
 69 78  2  0
 69 74  1  0
 70 66  1  0
 70 74  1  0
 71 70  1  0
 72 73  1  0
 72 71  1  0
 73 69  1  0
 74 75  2  0
 75 76  1  0
 77 76  2  0
 78 77  1  0
 79 53  1  0
 79 80  1  0
 79 89  1  0
 80 83  1  0
 81 85  1  0
 81 80  1  0
 82 81  2  0
 85 84  1  0
 87 85  1  0
 87 88  1  0
 87 86  1  0
 89 92  1  1
 89 90  1  0
 91 89  1  0
M  ISO  4  11 100  19 100  51 101  52 101
M  END
>  <TORSDO>  (21) 
F 22

>  <SCORE>  (21) 
-13.297

>  <name>  (21) 
20

>  <ligand_id>  (21) 
20

>  <original_smiles>  (21) 
[H]c1c([H])c([H])c2c(c1[H])C([H])([H])C([H])([H])C([H])([H])C2([H])N([H])C(=O)C1([H])N(C(=O)C([H])(N([H])C(=O)C([H])(N([H])C([H])([H])[H])C([H])([H])[H])C(C([H])([H])[H])(C([H])([H])[H])C([H])([H])[H])C([H])([H])c2c([H])c(OC([H])([H])C([H])([H])C([H])([H])n3c([H])c(C([H])([H])C([H])([H])C([H])([H])N([H])C(=O)N4C([H])([H])C([H])([H])C([H])([H])C([H])(n5nc(-c6c([H])c([H])c(Oc7c([H])c([H])c(F)c([H])c7F)c([H])c6[H])c(C(=O)N([H])[H])c5N([H])[H])C4([H])[H])c(C([H])([H])[H])c3C([H])([H])[H])c([H])c([H])c2C1([H])[H]

>  <smiles>  (21) 
[H]c1c([H])c([H])c2c(c1[H])C([H])([H])C([H])([H])C([H])([H])C2([H])N([H])C(=O)C1([H])N(C(=O)C([H])(N([H])C(=O)C([H])(N([H])C([H])([H])[H])C([H])([H])[H])C(C([H])([H])[H])(C([H])([H])[H])C([H])([H])[H])C([H])([H])c2c([H])c(OC([H])([H])C([H])([H])C([H])([H])n3c([H])c(C([H])([H])C([H])([H])C([H])([H])N([H])C(=O)N4C([H])([H])C([H])([H])C([H])([H])C([H])(n5nc(-c6c([H])c([H])c(Oc7c([H])c([H])c(F)c([H])c7F)c([H])c6[H])c(C(=O)N([H])[H])c5N([H])[H])C4([H])[H])c(C([H])([H])[H])c3C([H])([H])[H])c([H])c([H])c2C1([H])[H]

$$$$
21:0:0
     RDKit          3D

 92100  0  0  1  0  0  0  0  0999 V2000
  -29.0700  -20.0230   21.1500 C   0  0  0  0  0  0  0  0  0  0  0  0
  -28.3130  -21.0400   20.5960 C   0  0  0  0  0  0  0  0  0  0  0  0
  -29.5320  -21.8400   22.2310 C   0  0  0  0  0  0  0  0  0  0  0  0
  -27.3120  -21.0090   19.4820 C   0  0  0  0  0  1  0  0  0  0  0  0
  -30.1270  -22.7980   23.2080 C   0  0  0  0  0  1  0  0  0  0  0  0
  -29.8340  -20.5470   22.1880 N   0  0  0  0  0  0  0  0  0  0  0  0
  -28.6090  -22.2010   21.3190 N   0  0  0  0  0  0  0  0  0  0  0  0
  -29.1250  -18.5430   20.8490 C   0  0  0  0  0  2  0  0  0  0  0  0
  -30.5230  -18.0710   20.3850 C   0  0  0  0  0  2  0  0  0  0  0  0
  -31.1270  -16.8940   21.1880 C   0  0  0  0  0  2  0  0  0  0  0  0
  -31.0860  -14.6120   20.1610 C   0  0  0  0  0  0  0  0  0  0  0  0
  -30.6920  -12.4500   19.0440 C   0  0  0  0  0  2  0  0  0  0  0  0
  -29.7210  -12.6480   17.8640 C   0  0  0  0  0  2  0  0  0  0  0  0
  -28.2590  -12.5440   18.3380 C   0  0  0  0  0  2  0  0  0  0  0  0
  -27.9750  -13.4250   19.5830 C   0  0  0  0  0  3  0  0  0  0  0  0
  -29.0510  -13.2110   20.6710 C   0  0  0  0  0  2  0  0  0  0  0  0
  -30.3700  -13.4640   20.0600 N   0  0  0  0  0  0  0  0  0  0  0  0
  -32.1560  -14.7940   19.5730 O   0  0  0  0  0  0  0  0  0  0  0  0
  -30.5280  -15.5830   20.9020 N   0  0  0  0  0  0  0  0  0  0  0  0
  -29.6500  -15.3560   21.3490 H   0  0  0  0  0  0  0  0  0  0  0  0
  -25.6280  -14.1090   20.3920 C   0  0  0  0  0  0  0  0  0  0  0  0
  -24.5470  -13.3680   20.7900 C   0  0  0  0  0  0  0  0  0  0  0  0
  -24.9600  -12.0020   20.7250 C   0  0  0  0  0  0  0  0  0  0  0  0
  -26.6310  -13.1950   20.1070 N   0  0  0  0  0  0  0  0  0  0  0  0
  -26.2340  -11.9220   20.3640 N   0  0  0  0  0  0  0  0  0  0  0  0
  -24.2000  -10.7620   20.9230 C   0  0  0  0  0  0  0  0  0  0  0  0
  -24.6060   -9.7890   21.8640 C   0  0  0  0  0  3  0  0  0  0  0  0
  -23.8470   -8.6120   22.0490 C   0  0  0  0  0  3  0  0  0  0  0  0
  -22.6690   -8.4020   21.2940 C   0  0  0  0  0  0  0  0  0  0  0  0
  -22.2820   -9.3630   20.3440 C   0  0  0  0  0  3  0  0  0  0  0  0
  -23.0400  -10.5310   20.1570 C   0  0  0  0  0  3  0  0  0  0  0  0
  -21.8830   -7.2780   21.3880 O   0  0  0  0  0  0  0  0  0  0  0  0
  -21.7750   -6.5730   22.5600 C   0  0  0  0  0  0  0  0  0  0  0  0
  -21.2960   -7.1690   23.7460 C   0  0  0  0  0  3  0  0  0  0  0  0
  -21.1330   -6.3910   24.9100 C   0  0  0  0  0  3  0  0  0  0  0  0
  -21.4380   -5.0160   24.8860 C   0  0  0  0  0  0  0  0  0  0  0  0
  -21.9100   -4.4190   23.7040 C   0  0  0  0  0  3  0  0  0  0  0  0
  -22.0740   -5.1960   22.5430 C   0  0  0  0  0  0  0  0  0  0  0  0
  -22.5070   -4.6110   21.4010 F   0  0  0  0  0  0  0  0  0  0  0  0
  -21.2740   -4.2670   26.0010 F   0  0  0  0  0  0  0  0  0  0  0  0
  -23.1780  -13.8890   21.1240 C   0  0  0  0  0  0  0  0  0  0  0  0
  -22.4680  -13.2140   22.0210 N   0  0  0  0  0  0  0  0  0  0  0  0
  -22.7510  -14.9310   20.6280 O   0  0  0  0  0  0  0  0  0  0  0  0
  -22.8250  -12.3710   22.4440 H   0  0  0  0  0  0  0  0  0  0  0  0
  -21.5530  -13.5470   22.2880 H   0  0  0  0  0  0  0  0  0  0  0  0
  -25.8350  -15.4750   20.2280 N   0  0  0  0  0  0  0  0  0  0  0  0
  -25.1020  -16.1570   20.3900 H   0  0  0  0  0  0  0  0  0  0  0  0
  -26.6830  -15.8870   19.8590 H   0  0  0  0  0  0  0  0  0  0  0  0
  -28.0060  -23.5270   21.1750 C   0  0  0  0  0  2  0  0  0  0  0  0
  -28.8530  -24.5380   20.3640 C   0  0  0  0  0  2  0  0  0  0  0  0
  -28.8360  -25.9610   20.9660 C   0  0  0  0  0  2  0  0  0  0  0  0
  -28.8200  -26.9880   19.9670 O   0  0  0  0  0  0  0  0  0  0  0  0
  -24.6550  -31.7650   23.1620 C   0  0  0  0  0  0  0  0  0  0  0  0
  -27.6310  -27.6690   19.9380 C   0  0  0  0  0  0  0  0  0  0  0  0
  -23.5700  -30.3730   21.4290 C   0  0  0  0  0  3  0  0  0  0  0  0
  -25.1450  -29.0000   19.9640 C   0  0  0  0  0  0  0  0  0  0  0  0
  -26.0690  -30.9000   21.3050 C   0  0  0  0  0  2  0  0  0  0  0  0
  -26.2540  -29.5740   20.6000 C   0  0  0  0  0  0  0  0  0  0  0  0
  -27.5030  -28.9160   20.5860 C   0  0  0  0  0  3  0  0  0  0  0  0
  -26.5110  -27.0970   19.3010 C   0  0  0  0  0  3  0  0  0  0  0  0
  -25.2670  -27.7590   19.3110 C   0  0  0  0  0  3  0  0  0  0  0  0
  -23.8470  -29.7730   20.0240 C   0  0  0  0  0  2  0  0  0  0  0  0
  -24.7800  -31.0240   22.0250 N   0  0  0  0  0  0  0  0  0  0  0  0
  -23.5490  -31.9450   23.6920 O   0  0  0  0  0  0  0  0  0  0  0  0
  -22.9630  -29.2680   22.3260 C   0  0  0  0  0  0  0  0  0  0  0  0
  -21.6470  -29.0380   22.1800 N   0  0  0  0  0  0  0  0  0  0  0  0
  -23.6720  -28.6250   23.1040 O   0  0  0  0  0  0  0  0  0  0  0  0
  -21.1370  -29.6000   21.5150 H   0  0  0  0  0  0  0  0  0  0  0  0
  -18.3190  -27.7130   22.6310 C   0  0  0  0  0  0  0  0  0  0  0  0
  -20.8700  -28.0270   22.8950 C   0  0  0  0  0  3  0  0  0  0  0  0
  -21.0060  -26.6400   22.2260 C   0  0  0  0  0  2  0  0  0  0  0  0
  -19.9060  -26.3600   21.1990 C   0  0  0  0  0  2  0  0  0  0  0  0
  -18.5300  -26.4150   21.8690 C   0  0  0  0  0  2  0  0  0  0  0  0
  -19.4190  -28.4780   23.0980 C   0  0  0  0  0  0  0  0  0  0  0  0
  -19.1710  -29.6940   23.7720 C   0  0  0  0  0  3  0  0  0  0  0  0
  -17.8560  -30.1410   23.9870 C   0  0  0  0  0  3  0  0  0  0  0  0
  -16.7690  -29.3710   23.5420 C   0  0  0  0  0  3  0  0  0  0  0  0
  -17.0010  -28.1580   22.8680 C   0  0  0  0  0  3  0  0  0  0  0  0
  -25.8890  -32.4400   23.8390 C   0  0  0  0  0  3  0  0  0  0  0  0
  -25.5130  -33.8210   24.1670 N   0  0  0  0  0  0  0  0  0  0  0  0
  -25.8340  -34.8920   23.4270 C   0  0  0  0  0  0  0  0  0  0  0  0
  -26.5480  -34.8230   22.4230 O   0  0  0  0  0  0  0  0  0  0  0  0
  -24.8830  -33.9450   24.9460 H   0  0  0  0  0  0  0  0  0  0  0  0
  -24.0450  -36.6100   23.0210 C   0  0  0  0  0  1  0  0  0  0  0  0
  -25.2730  -36.2540   23.8740 C   0  0  0  0  0  3  0  0  0  0  0  0
  -27.3350  -37.2280   24.7840 C   0  0  0  0  0  1  0  0  0  0  0  0
  -26.2620  -37.3500   23.8000 N   0  0  0  0  0  0  0  0  0  0  0  0
  -25.8120  -38.2510   23.9320 H   0  0  0  0  0  0  0  0  0  0  0  0
  -26.3880  -31.6750   25.1270 C   0  0  1  0  0  0  0  0  0  0  0  0
  -25.2660  -31.3810   26.1480 C   0  0  0  0  0  1  0  0  0  0  0  0
  -27.0410  -30.3270   24.7420 C   0  0  0  0  0  1  0  0  0  0  0  0
  -27.4800  -32.5060   25.8410 C   0  0  0  0  0  1  0  0  0  0  0  0
  1  6  1  0
  2  1  2  0
  2  7  1  0
  3  5  1  0
  4  2  1  0
  6  3  2  0
  7  3  1  0
  8  1  1  0
  9  8  1  0
  9 10  1  0
 11 19  1  0
 12 17  1  0
 13 14  1  0
 13 12  1  0
 15 14  1  0
 15 24  1  0
 15 16  1  0
 17 11  1  0
 17 16  1  0
 18 11  2  0
 19 10  1  0
 19 20  1  0
 21 22  2  0
 22 41  1  0
 23 22  1  0
 23 26  1  0
 24 25  1  0
 24 21  1  0
 25 23  2  0
 26 27  1  0
 27 28  2  0
 29 32  1  0
 29 28  1  0
 30 29  2  0
 31 30  1  0
 31 26  2  0
 32 33  1  0
 33 34  1  0
 34 35  2  0
 36 35  1  0
 36 40  1  0
 37 36  2  0
 38 33  2  0
 38 37  1  0
 39 38  1  0
 41 42  1  0
 42 45  1  0
 42 44  1  0
 43 41  2  0
 46 47  1  0
 46 21  1  0
 48 46  1  0
 49  7  1  0
 50 51  1  0
 50 49  1  0
 52 51  1  0
 53 64  2  0
 54 52  1  0
 54 59  1  0
 55 63  1  0
 55 65  1  0
 56 62  1  0
 56 58  1  0
 57 63  1  0
 58 57  1  0
 59 58  2  0
 60 61  1  0
 60 54  2  0
 61 56  2  0
 62 55  1  0
 63 53  1  0
 65 67  2  0
 66 65  1  0
 68 66  1  0
 69 78  2  0
 69 74  1  0
 70 66  1  0
 70 74  1  0
 71 70  1  0
 72 73  1  0
 72 71  1  0
 73 69  1  0
 74 75  2  0
 75 76  1  0
 77 76  2  0
 78 77  1  0
 79 53  1  0
 79 80  1  0
 79 89  1  0
 80 83  1  0
 81 85  1  0
 81 80  1  0
 82 81  2  0
 85 84  1  0
 87 85  1  0
 87 88  1  0
 87 86  1  0
 89 92  1  1
 89 90  1  0
 91 89  1  0
M  ISO  4  11 100  19 100  51 101  52 101
M  END
>  <TORSDO>  (22) 
F 22

>  <SCORE>  (22) 
-12.374

>  <name>  (22) 
21

>  <ligand_id>  (22) 
21

>  <original_smiles>  (22) 
[H]c1c([H])c([H])c2c(c1[H])C([H])([H])C([H])([H])C([H])([H])C2([H])N([H])C(=O)C1([H])N(C(=O)C([H])(N([H])C(=O)C([H])(N([H])C([H])([H])[H])C([H])([H])[H])C(C([H])([H])[H])(C([H])([H])[H])C([H])([H])[H])C([H])([H])c2c([H])c(OC([H])([H])C([H])([H])C([H])([H])n3c(C([H])([H])[H])nc(C([H])([H])C([H])([H])C([H])([H])N([H])C(=O)N4C([H])([H])C([H])([H])C([H])([H])C([H])(n5nc(-c6c([H])c([H])c(Oc7c([H])c([H])c(F)c([H])c7F)c([H])c6[H])c(C(=O)N([H])[H])c5N([H])[H])C4([H])[H])c3C([H])([H])[H])c([H])c([H])c2C1([H])[H]

>  <smiles>  (22) 
[H]c1c([H])c([H])c2c(c1[H])C([H])([H])C([H])([H])C([H])([H])C2([H])N([H])C(=O)C1([H])N(C(=O)C([H])(N([H])C(=O)C([H])(N([H])C([H])([H])[H])C([H])([H])[H])C(C([H])([H])[H])(C([H])([H])[H])C([H])([H])[H])C([H])([H])c2c([H])c(OC([H])([H])C([H])([H])C([H])([H])n3c(C([H])([H])[H])nc(C([H])([H])C([H])([H])C([H])([H])N([H])C(=O)N4C([H])([H])C([H])([H])C([H])([H])C([H])(n5nc(-c6c([H])c([H])c(Oc7c([H])c([H])c(F)c([H])c7F)c([H])c6[H])c(C(=O)N([H])[H])c5N([H])[H])C4([H])[H])c3C([H])([H])[H])c([H])c([H])c2C1([H])[H]

$$$$
22:0:0
     RDKit          3D

 93 89  0  0  1  0  0  0  0  0999 V2000
  -26.5490  -12.5490   21.9330 C   0  0  0  0  0 15  0  0  0  0  0  0
  -25.7650  -11.8290   19.8200 C   0  0  0  0  0  1  0  0  0  0  0  0
  -26.1770  -14.7400   22.3980 C   0  0  0  0  0  1  0  0  0  0  0  0
  -24.5790  -13.3190   18.6560 C   0  0  0  0  0  1  0  0  0  0  0  0
  -25.0180  -16.1610   21.1070 C   0  0  0  0  0 15  0  0  0  0  0  0
  -25.9690  -10.4180   19.2670 C   0  0  0  0  0  1  0  0  0  0  0  0
  -24.0290  -13.0080   17.2880 C   0  0  0  0  0  1  0  0  0  0  0  0
  -24.1630  -15.3190   19.3190 N   0  0  0  0  0 15  0  0  0  0  0  0
  -27.2100  -15.3970   23.3150 C   0  0  0  0  0  2  0  0  0  0  0  0
  -28.3430  -16.1850   22.5390 C   0  0  0  0  0  2  0  0  0  0  0  0
  -29.8760  -15.8560   22.7300 C   0  0  0  0  0  2  0  0  0  0  0  0
  -30.8210  -14.3050   20.8550 C   0  0  0  0  0  0  0  0  0  0  0  0
  -30.6620  -12.3480   19.2580 C   0  0  0  0  0  2  0  0  0  0  0  0
  -29.6980  -12.6010   18.0630 C   0  0  0  0  0  2  0  0  0  0  0  0
  -28.2260  -12.5410   18.4680 C   0  0  0  0  0  2  0  0  0  0  0  0
  -28.0740  -13.3660   19.7480 C   0  0  0  0  0  3  0  0  0  0  0  0
  -28.9650  -12.7510   20.8430 C   0  0  0  0  0  2  0  0  0  0  0  0
  -30.2990  -13.1180   20.4530 N   0  0  0  0  0  0  0  0  0  0  0  0
  -31.6480  -14.9330   20.1880 O   0  0  0  0  0  0  0  0  0  0  0  0
  -30.3850  -14.6270   22.0990 N   0  0  0  0  0  0  0  0  0  0  0  0
  -30.0660  -13.8000   22.5870 H   0  0  0  0  0  0  0  0  0  0  0  0
  -25.9080  -14.3160   20.1850 C   0  0  0  0  0  0  0  0  0  0  0  0
  -24.2870  -13.7320   21.0580 C   0  0  0  0  0  0  0  0  0  0  0  0
  -24.2010  -12.4370   21.5070 C   0  0  0  0  0  2  0  0  0  0  0  0
  -26.6950  -13.8270   20.1360 N   0  0  0  0  0  2  0  0  0  0  0  0
  -24.9660  -13.5940   20.8600 N   0  0  0  0  0  2  0  0  0  0  0  0
  -23.7300  -10.8900   21.2690 C   0  0  0  0  0  3  0  0  0  0  0  0
  -24.2530   -9.7830   22.0370 C   0  0  0  0  0  3  0  0  0  0  0  0
  -23.6540   -8.4790   22.0900 C   0  0  0  0  0  3  0  0  0  0  0  0
  -22.4860   -8.1790   21.3490 C   0  0  0  0  0  0  0  0  0  0  0  0
  -22.0500   -9.1910   20.4650 C   0  0  0  0  0  3  0  0  0  0  0  0
  -22.6580  -10.4850   20.4170 C   0  0  0  0  0  3  0  0  0  0  0  0
  -21.7880   -6.9720   21.3940 O   0  0  0  0  0  0  0  0  0  0  0  0
  -21.7500   -6.1370   22.5000 C   0  0  0  0  0  0  0  0  0  0  0  0
  -21.4510   -6.6080   23.8020 C   0  0  0  0  0  3  0  0  0  0  0  0
  -21.3860   -5.7130   24.8930 C   0  0  0  0  0  3  0  0  0  0  0  0
  -21.6030   -4.3360   24.6960 C   0  0  0  0  0  0  0  0  0  0  0  0
  -21.8690   -3.8530   23.4040 C   0  0  0  0  0  3  0  0  0  0  0  0
  -21.9340   -4.7440   22.3150 C   0  0  0  0  0  0  0  0  0  0  0  0
  -22.1720   -4.2500   21.0770 F   0  0  0  0  0  0  0  0  0  0  0  0
  -21.5530   -3.4790   25.7460 F   0  0  0  0  0  0  0  0  0  0  0  0
  -22.6460  -14.0540   21.2720 C   0  0  0  0  0  0  0  0  0  0  0  0
  -21.9040  -13.2650   22.0880 N   0  0  0  0  0  0  0  0  0  0  0  0
  -22.0160  -14.9230   20.6990 O   0  0  0  0  0  0  0  0  0  0  0  0
  -22.3150  -12.5220   22.6310 H   0  0  0  0  0  0  0  0  0  0  0  0
  -20.9150  -13.4480   22.1860 H   0  0  0  0  0  0  0  0  0  0  0  0
  -26.5620  -15.3550   19.3800 N   0  0  0  0  0  4  0  0  0  0  0  0
  -25.5920  -15.6180   19.1250 H   0  0  0  0  0  0  0  0  0  0  0  0
  -26.9290  -16.1050   19.9400 H   0  0  0  0  0  0  0  0  0  0  0  0
  -25.2010  -18.3000   21.1600 C   0  0  0  0  0 15  0  0  0  0  0  0
  -26.1780  -20.3200   20.7960 C   0  0  0  0  0 15  0  0  0  0  0  0
  -26.2340  -22.5990   20.8650 C   0  0  0  0  0 15  0  0  0  0  0  0
  -27.0260  -24.4560   20.5870 O   0  0  0  0  0  1  0  0  0  0  0  0
  -24.7210  -31.7520   23.1360 C   0  0  0  0  0  0  0  0  0  0  0  0
  -26.6030  -26.0640   20.4260 C   0  0  0  0  0  0  0  0  0  0  0  0
  -23.5320  -30.3830   21.5050 C   0  0  0  0  0  3  0  0  0  0  0  0
  -24.8840  -28.6350   20.1080 C   0  0  0  0  0  0  0  0  0  0  0  0
  -26.1090  -30.2490   21.5030 C   0  0  0  0  0  2  0  0  0  0  0  0
  -26.0440  -28.7670   20.8670 C   0  0  0  0  0  0  0  0  0  0  0  0
  -26.9170  -27.5120   20.9780 C   0  0  0  0  0  3  0  0  0  0  0  0
  -25.6080  -26.3250   19.4600 C   0  0  0  0  0  3  0  0  0  0  0  0
  -24.7670  -27.4680   19.3440 C   0  0  0  0  0  3  0  0  0  0  0  0
  -23.7850  -29.7120   20.1230 C   0  0  0  0  0  2  0  0  0  0  0  0
  -24.8250  -30.8510   22.0910 N   0  0  0  0  0  0  0  0  0  0  0  0
  -23.6180  -32.0930   23.6050 O   0  0  0  0  0  0  0  0  0  0  0  0
  -22.7790  -29.4130   22.4570 C   0  0  0  0  0  0  0  0  0  0  0  0
  -21.4420  -29.3000   22.3300 N   0  0  0  0  0  0  0  0  0  0  0  0
  -23.4130  -28.7710   23.2990 O   0  0  0  0  0  0  0  0  0  0  0  0
  -20.9760  -29.8700   21.6390 H   0  0  0  0  0  0  0  0  0  0  0  0
  -18.0350  -28.1460   22.8430 C   0  0  0  0  0  0  0  0  0  0  0  0
  -20.5970  -28.3800   23.1050 C   0  0  0  0  0  3  0  0  0  0  0  0
  -20.6780  -26.9420   22.5390 C   0  0  0  0  0  2  0  0  0  0  0  0
  -19.5770  -26.6340   21.5210 C   0  0  0  0  0  2  0  0  0  0  0  0
  -18.1960  -26.7980   22.1610 C   0  0  0  0  0  2  0  0  0  0  0  0
  -19.1610  -28.8980   23.2710 C   0  0  0  0  0  0  0  0  0  0  0  0
  -18.9510  -30.1550   23.8780 C   0  0  0  0  0  3  0  0  0  0  0  0
  -17.6490  -30.6610   24.0560 C   0  0  0  0  0  3  0  0  0  0  0  0
  -16.5390  -29.9070   23.6380 C   0  0  0  0  0  3  0  0  0  0  0  0
  -16.7320  -28.6520   23.0350 C   0  0  0  0  0  3  0  0  0  0  0  0
  -25.9640  -32.4190   23.7960 C   0  0  0  0  0  3  0  0  0  0  0  0
  -25.6090  -33.8090   24.1760 N   0  0  0  0  0  0  0  0  0  0  0  0
  -25.9190  -34.9160   23.4870 C   0  0  0  0  0  0  0  0  0  0  0  0
  -26.5860  -34.8820   22.4500 O   0  0  0  0  0  0  0  0  0  0  0  0
  -25.0060  -33.9080   24.9800 H   0  0  0  0  0  0  0  0  0  0  0  0
  -24.1470  -36.7050   23.2640 C   0  0  0  0  0  1  0  0  0  0  0  0
  -25.4140  -36.2760   24.0250 C   0  0  0  0  0  3  0  0  0  0  0  0
  -27.5580  -37.1640   24.8430 C   0  0  0  0  0  1  0  0  0  0  0  0
  -26.4220  -37.3610   23.9480 N   0  0  0  0  0  0  0  0  0  0  0  0
  -26.0000  -38.2580   24.1690 H   0  0  0  0  0  0  0  0  0  0  0  0
  -26.4680  -31.6490   25.0820 C   0  0  1  0  0  0  0  0  0  0  0  0
  -25.3560  -31.3960   26.1310 C   0  0  0  0  0  1  0  0  0  0  0  0
  -27.0710  -30.2770   24.7190 C   0  0  0  0  0  1  0  0  0  0  0  0
  -27.6080  -32.4510   25.7560 C   0  0  0  0  0  1  0  0  0  0  0  0
  3  9  1  0
  6  2  1  0
  7  4  1  0
 10 11  1  0
 10  9  1  0
 12 20  1  0
 13 18  1  0
 14 15  1  0
 14 13  1  0
 15 16  1  0
 16 25  1  0
 16 17  1  0
 18 17  1  0
 18 12  1  0
 19 12  2  0
 20 21  1  0
 20 11  1  0
 22 26  1  0
 23 42  1  0
 23 24  2  0
 25 22  1  0
 26 23  1  0
 27 28  1  0
 28 29  2  0
 30 33  1  0
 30 29  1  0
 31 30  2  0
 32 31  1  0
 32 27  2  0
 33 34  1  0
 34 35  1  0
 35 36  2  0
 37 36  1  0
 37 41  1  0
 38 37  2  0
 39 34  2  0
 39 38  1  0
 40 39  1  0
 42 43  1  0
 43 46  1  0
 43 45  1  0
 44 42  2  0
 47 49  1  0
 47 22  2  0
 48 47  1  0
 54 65  2  0
 55 53  1  0
 55 60  1  0
 56 64  1  0
 56 66  1  0
 57 63  1  0
 57 59  1  0
 58 64  1  0
 59 60  2  0
 59 58  1  0
 61 55  2  0
 62 61  1  0
 62 57  2  0
 63 56  1  0
 64 54  1  0
 66 68  2  0
 67 66  1  0
 69 67  1  0
 70 79  2  0
 70 75  1  0
 71 67  1  0
 71 75  1  0
 72 71  1  0
 73 74  1  0
 73 72  1  0
 74 70  1  0
 75 76  2  0
 76 77  1  0
 78 77  2  0
 79 78  1  0
 80 54  1  0
 80 81  1  0
 80 90  1  0
 81 84  1  0
 82 86  1  0
 82 81  1  0
 83 82  2  0
 86 85  1  0
 88 86  1  0
 88 89  1  0
 88 87  1  0
 90 93  1  1
 90 91  1  0
 92 90  1  0
M  ISO  4  12 100  20 100  52 101  53 101
M  END
>  <TORSDO>  (23) 
F 22

>  <SCORE>  (23) 
21.227

>  <name>  (23) 
22

>  <ligand_id>  (23) 
22

>  <original_smiles>  (23) 
[H]c1c([H])c([H])c2c(c1[H])C([H])([H])C([H])([H])C([H])([H])C2([H])N([H])C(=O)C1([H])N(C(=O)C([H])(N([H])C(=O)C([H])(N([H])C([H])([H])[H])C([H])([H])[H])C(C([H])([H])[H])(C([H])([H])[H])C([H])([H])[H])C([H])([H])c2c([H])c(OC([H])([H])C([H])([H])C([H])([H])c3nc(C([H])([H])[H])c(C([H])([H])[H])c([H])c3C([H])([H])C([H])([H])C([H])([H])N([H])C(=O)N3C([H])([H])C([H])([H])C([H])([H])C([H])(n4nc(-c5c([H])c([H])c(Oc6c([H])c([H])c(F)c([H])c6F)c([H])c5[H])c(C(=O)N([H])[H])c4N([H])[H])C3([H])[H])c([H])c([H])c2C1([H])[H]

>  <smiles>  (23) 
[H]c1c([H])c([H])c2c(c1[H])C([H])([H])C([H])([H])C([H])([H])C2([H])N([H])C(=O)C1([H])N(C(=O)C([H])(N([H])C(=O)C([H])(N([H])C([H])([H])[H])C([H])([H])[H])C(C([H])([H])[H])(C([H])([H])[H])C([H])([H])[H])C([H])([H])c2c([H])c(OC([H])([H])C([H])([H])C([H])([H])c3nc(C([H])([H])[H])c(C([H])([H])[H])c([H])c3C([H])([H])C([H])([H])C([H])([H])N([H])C(=O)N3C([H])([H])C([H])([H])C([H])([H])C([H])(n4nc(-c5c([H])c([H])c(Oc6c([H])c([H])c(F)c([H])c6F)c([H])c5[H])c(C(=O)N([H])[H])c4N([H])[H])C3([H])[H])c([H])c([H])c2C1([H])[H]

$$$$
23:0:0
     RDKit          3D

 90 98  0  0  1  0  0  0  0  0999 V2000
  -28.3500  -21.1000   20.7540 C   0  0  0  0  0  3  0  0  0  0  0  0
  -29.2140  -20.0640   20.3900 C   0  0  0  0  0  0  0  0  0  0  0  0
  -30.2730  -20.8440   19.8080 C   0  0  0  0  0  0  0  0  0  0  0  0
  -30.0460  -22.1730   19.8230 N   0  0  0  0  0  0  0  0  0  0  0  0
  -28.8390  -22.3810   20.4040 N   0  0  0  0  0  0  0  0  0  0  0  0
  -31.5160  -20.3100   17.6810 C   0  0  0  0  0  1  0  0  0  0  0  0
  -31.5710  -20.3710   19.2110 C   0  0  0  0  0  2  0  0  0  0  0  0
  -29.0080  -18.4850   20.6000 C   0  0  0  0  0  3  0  0  0  0  0  0
  -30.1360  -17.3600   20.3120 C   0  0  0  0  0  3  0  0  0  0  0  0
  -30.5680  -14.7580   20.3420 C   0  0  0  0  0  0  0  0  0  0  0  0
  -30.3680  -12.4880   19.3310 C   0  0  0  0  0  2  0  0  0  0  0  0
  -29.4220  -12.5710   18.1140 C   0  0  0  0  0  2  0  0  0  0  0  0
  -27.9540  -12.3990   18.5480 C   0  0  0  0  0  2  0  0  0  0  0  0
  -27.5880  -13.2760   19.7740 C   0  0  0  0  0  3  0  0  0  0  0  0
  -28.6520  -13.1770   20.8890 C   0  0  0  0  0  2  0  0  0  0  0  0
  -29.9450  -13.5320   20.2910 N   0  0  0  0  0  0  0  0  0  0  0  0
  -31.7500  -14.8660   20.0040 O   0  0  0  0  0  0  0  0  0  0  0  0
  -29.7890  -15.8860   20.5480 N   0  0  0  0  0  0  0  0  0  0  0  0
  -28.8300  -15.6950   20.7950 H   0  0  0  0  0  0  0  0  0  0  0  0
  -25.2030  -13.8700   20.5070 C   0  0  0  0  0  0  0  0  0  0  0  0
  -24.1380  -13.0980   20.8810 C   0  0  0  0  0  0  0  0  0  0  0  0
  -24.5990  -11.7460   20.8500 C   0  0  0  0  0  0  0  0  0  0  0  0
  -26.2450  -12.9900   20.2680 N   0  0  0  0  0  0  0  0  0  0  0  0
  -25.8890  -11.7070   20.5380 N   0  0  0  0  0  0  0  0  0  0  0  0
  -23.8720  -10.4850   21.0430 C   0  0  0  0  0  0  0  0  0  0  0  0
  -24.3130   -9.5160   21.9710 C   0  0  0  0  0  3  0  0  0  0  0  0
  -23.5890   -8.3180   22.1530 C   0  0  0  0  0  3  0  0  0  0  0  0
  -22.4090   -8.0820   21.4080 C   0  0  0  0  0  0  0  0  0  0  0  0
  -21.9880   -9.0400   20.4700 C   0  0  0  0  0  3  0  0  0  0  0  0
  -22.7110  -10.2310   20.2860 C   0  0  0  0  0  3  0  0  0  0  0  0
  -21.6530   -6.9380   21.5000 O   0  0  0  0  0  0  0  0  0  0  0  0
  -21.6220   -6.1870   22.6470 C   0  0  0  0  0  0  0  0  0  0  0  0
  -21.2190   -6.7340   23.8850 C   0  0  0  0  0  3  0  0  0  0  0  0
  -21.1340   -5.9090   25.0240 C   0  0  0  0  0  3  0  0  0  0  0  0
  -21.4410   -4.5380   24.9260 C   0  0  0  0  0  0  0  0  0  0  0  0
  -21.8360   -3.9910   23.6930 C   0  0  0  0  0  3  0  0  0  0  0  0
  -21.9230   -4.8130   22.5560 C   0  0  0  0  0  0  0  0  0  0  0  0
  -22.2840   -4.2770   21.3650 F   0  0  0  0  0  0  0  0  0  0  0  0
  -21.3530   -3.7450   26.0180 F   0  0  0  0  0  0  0  0  0  0  0  0
  -22.7420  -13.5760   21.1560 C   0  0  0  0  0  0  0  0  0  0  0  0
  -22.0130  -12.8820   22.0240 N   0  0  0  0  0  0  0  0  0  0  0  0
  -22.3020  -14.6010   20.6340 O   0  0  0  0  0  0  0  0  0  0  0  0
  -22.3780  -12.0530   22.4700 H   0  0  0  0  0  0  0  0  0  0  0  0
  -21.0750  -13.1860   22.2450 H   0  0  0  0  0  0  0  0  0  0  0  0
  -25.3690  -15.2400   20.3230 N   0  0  0  0  0  0  0  0  0  0  0  0
  -24.6010  -15.8960   20.4240 H   0  0  0  0  0  0  0  0  0  0  0  0
  -26.2060  -15.6690   19.9510 H   0  0  0  0  0  0  0  0  0  0  0  0
  -28.3330  -23.7830   20.7690 C   0  0  0  0  0  3  0  0  0  0  0  0
  -28.4630  -25.0510   19.7740 C   0  0  0  0  0  3  0  0  0  0  0  0
  -28.3710  -26.4690   20.2700 O   0  0  0  0  0  0  0  0  0  0  0  0
  -24.6110  -31.8910   23.2380 C   0  0  0  0  0  0  0  0  0  0  0  0
  -27.2280  -27.2960   20.1960 C   0  0  0  0  0  0  0  0  0  0  0  0
  -23.4100  -30.4870   21.5990 C   0  0  0  0  0  3  0  0  0  0  0  0
  -24.8610  -28.9270   20.1770 C   0  0  0  0  0  0  0  0  0  0  0  0
  -25.9500  -30.7990   21.4190 C   0  0  0  0  0  2  0  0  0  0  0  0
  -26.0300  -29.4150   20.7730 C   0  0  0  0  0  0  0  0  0  0  0  0
  -27.2110  -28.6130   20.7690 C   0  0  0  0  0  3  0  0  0  0  0  0
  -26.0320  -26.8640   19.5820 C   0  0  0  0  0  3  0  0  0  0  0  0
  -24.8680  -27.6590   19.5720 C   0  0  0  0  0  3  0  0  0  0  0  0
  -23.6240  -29.8040   20.2220 C   0  0  0  0  0  2  0  0  0  0  0  0
  -24.6760  -31.0790   22.1410 N   0  0  0  0  0  0  0  0  0  0  0  0
  -23.5280  -32.1710   23.7700 O   0  0  0  0  0  0  0  0  0  0  0  0
  -22.7460  -29.4750   22.5650 C   0  0  0  0  0  0  0  0  0  0  0  0
  -21.4200  -29.2990   22.4370 N   0  0  0  0  0  0  0  0  0  0  0  0
  -23.4240  -28.8530   23.3860 O   0  0  0  0  0  0  0  0  0  0  0  0
  -20.9340  -29.8550   21.7470 H   0  0  0  0  0  0  0  0  0  0  0  0
  -18.0430  -28.0960   22.9320 C   0  0  0  0  0  0  0  0  0  0  0  0
  -20.5990  -28.3630   23.2080 C   0  0  0  0  0  3  0  0  0  0  0  0
  -20.7050  -26.9290   22.6410 C   0  0  0  0  0  2  0  0  0  0  0  0
  -19.6080  -26.5990   21.6240 C   0  0  0  0  0  2  0  0  0  0  0  0
  -18.2240  -26.7440   22.2630 C   0  0  0  0  0  2  0  0  0  0  0  0
  -19.1580  -28.8630   23.3610 C   0  0  0  0  0  0  0  0  0  0  0  0
  -18.9350  -30.1280   23.9480 C   0  0  0  0  0  3  0  0  0  0  0  0
  -17.6290  -30.6270   24.1080 C   0  0  0  0  0  3  0  0  0  0  0  0
  -16.5260  -29.8580   23.6940 C   0  0  0  0  0  3  0  0  0  0  0  0
  -16.7350  -28.5940   23.1120 C   0  0  0  0  0  3  0  0  0  0  0  0
  -25.8930  -32.5250   23.8610 C   0  0  0  0  0  3  0  0  0  0  0  0
  -25.5810  -33.9250   24.1900 N   0  0  0  0  0  0  0  0  0  0  0  0
  -25.9110  -34.9780   23.4320 C   0  0  0  0  0  0  0  0  0  0  0  0
  -26.5790  -34.8750   22.4000 O   0  0  0  0  0  0  0  0  0  0  0  0
  -24.9850  -34.0780   24.9910 H   0  0  0  0  0  0  0  0  0  0  0  0
  -24.1810  -36.7720   23.0840 C   0  0  0  0  0  1  0  0  0  0  0  0
  -25.4250  -36.3670   23.8920 C   0  0  0  0  0  3  0  0  0  0  0  0
  -27.5610  -37.2550   24.7130 C   0  0  0  0  0  1  0  0  0  0  0  0
  -26.4560  -37.4210   23.7730 N   0  0  0  0  0  0  0  0  0  0  0  0
  -26.0500  -38.3410   23.9200 H   0  0  0  0  0  0  0  0  0  0  0  0
  -26.4070  -31.7580   25.1410 C   0  0  1  0  0  0  0  0  0  0  0  0
  -25.3130  -31.5250   26.2090 C   0  0  0  0  0  1  0  0  0  0  0  0
  -26.9910  -30.3780   24.7550 C   0  0  0  0  0  1  0  0  0  0  0  0
  -27.5570  -32.5540   25.8020 C   0  0  0  0  0  1  0  0  0  0  0  0
  2  8  1  0
  2  1  2  0
  3  4  2  0
  3  2  1  0
  4  5  1  0
  5  1  1  0
  5 48  1  0
  6  7  1  0
  7  3  1  0
  9 18  1  0
  9  8  2  0
 10 18  1  0
 11 16  1  0
 12 13  1  0
 12 11  1  0
 14 13  1  0
 14 23  1  0
 14 15  1  0
 16 10  1  0
 16 15  1  0
 17 10  2  0
 18 19  1  0
 20 21  2  0
 21 40  1  0
 22 21  1  0
 22 25  1  0
 23 20  1  0
 23 24  1  0
 24 22  2  0
 25 26  1  0
 26 27  2  0
 28 31  1  0
 28 27  1  0
 29 28  2  0
 30 29  1  0
 30 25  2  0
 31 32  1  0
 32 33  1  0
 33 34  2  0
 35 34  1  0
 35 39  1  0
 36 35  2  0
 37 32  2  0
 37 36  1  0
 38 37  1  0
 40 41  1  0
 41 44  1  0
 41 43  1  0
 42 40  2  0
 45 46  1  0
 45 20  1  0
 47 45  1  0
 49 50  1  0
 49 48  2  0
 51 62  2  0
 52 50  1  0
 52 57  1  0
 53 61  1  0
 53 63  1  0
 54 60  1  0
 54 56  1  0
 55 61  1  0
 56 55  1  0
 57 56  2  0
 58 52  2  0
 59 58  1  0
 59 54  2  0
 60 53  1  0
 61 51  1  0
 63 65  2  0
 64 63  1  0
 66 64  1  0
 67 76  2  0
 67 72  1  0
 68 64  1  0
 68 72  1  0
 69 68  1  0
 70 71  1  0
 70 69  1  0
 71 67  1  0
 72 73  2  0
 73 74  1  0
 75 74  2  0
 76 75  1  0
 77 51  1  0
 77 78  1  0
 77 87  1  0
 78 81  1  0
 79 83  1  0
 79 78  1  0
 80 79  2  0
 83 82  1  0
 85 83  1  0
 85 86  1  0
 85 84  1  0
 87 90  1  1
 87 88  1  0
 89 87  1  0
M  ISO  4  10 100  18 100  49 101  50 101
M  END
>  <TORSDO>  (24) 
F 21

>  <SCORE>  (24) 
-13.508

>  <name>  (24) 
23

>  <ligand_id>  (24) 
23

>  <original_smiles>  (24) 
[H]c1c([H])c([H])c2c(c1[H])C([H])([H])C([H])([H])C([H])([H])C2([H])N([H])C(=O)C1([H])N(C(=O)C([H])(N([H])C(=O)C([H])(N([H])C([H])([H])[H])C([H])([H])[H])C(C([H])([H])[H])(C([H])([H])[H])C([H])([H])[H])C([H])([H])c2c([H])c(OC([H])([H])C([H])([H])n3nc(C([H])([H])C([H])([H])[H])c(C([H])([H])C([H])([H])N([H])C(=O)N4C([H])([H])C([H])([H])C([H])([H])C([H])(n5nc(-c6c([H])c([H])c(Oc7c([H])c([H])c(F)c([H])c7F)c([H])c6[H])c(C(=O)N([H])[H])c5N([H])[H])C4([H])[H])c3[H])c([H])c([H])c2C1([H])[H]

>  <smiles>  (24) 
[H]c1c([H])c([H])c2c(c1[H])C([H])([H])C([H])([H])C([H])([H])C2([H])N([H])C(=O)C1([H])N(C(=O)C([H])(N([H])C(=O)C([H])(N([H])C([H])([H])[H])C([H])([H])[H])C(C([H])([H])[H])(C([H])([H])[H])C([H])([H])[H])C([H])([H])c2c([H])c(OC([H])([H])C([H])([H])n3nc(C([H])([H])C([H])([H])[H])c(C([H])([H])C([H])([H])N([H])C(=O)N4C([H])([H])C([H])([H])C([H])([H])C([H])(n5nc(-c6c([H])c([H])c(Oc7c([H])c([H])c(F)c([H])c7F)c([H])c6[H])c(C(=O)N([H])[H])c5N([H])[H])C4([H])[H])c3[H])c([H])c([H])c2C1([H])[H]

$$$$
24:0:0
     RDKit          3D

 90 98  0  0  1  0  0  0  0  0999 V2000
  -29.4110  -19.2030   20.8810 C   0  0  0  0  0  3  0  0  0  0  0  0
  -29.2260  -20.4930   20.2640 C   0  0  0  0  0  0  0  0  0  0  0  0
  -30.1020  -18.4300   19.9680 C   0  0  0  0  0  0  0  0  0  0  0  0
  -30.8770  -18.9900   17.5630 C   0  0  0  0  0  1  0  0  0  0  0  0
  -29.7140  -20.4850   19.0360 N   0  0  0  0  0  0  0  0  0  0  0  0
  -30.2460  -19.2540   18.8510 N   0  0  0  0  0  0  0  0  0  0  0  0
  -28.5420  -21.7770   20.7630 C   0  0  0  0  0  2  0  0  0  0  0  0
  -29.4770  -22.9620   21.1990 C   0  0  0  0  0  2  0  0  0  0  0  0
  -29.4460  -24.3140   20.4030 C   0  0  0  0  0  2  0  0  0  0  0  0
  -28.1990  -25.2190   20.6170 C   0  0  0  0  0  2  0  0  0  0  0  0
  -28.3810  -26.6090   20.2220 O   0  0  0  0  0  0  0  0  0  0  0  0
  -24.6030  -31.9010   23.2430 C   0  0  0  0  0  0  0  0  0  0  0  0
  -27.2360  -27.3930   20.2010 C   0  0  0  0  0  0  0  0  0  0  0  0
  -23.4040  -30.4950   21.6070 C   0  0  0  0  0  3  0  0  0  0  0  0
  -24.8570  -28.9510   20.1860 C   0  0  0  0  0  0  0  0  0  0  0  0
  -25.9370  -30.8310   21.4210 C   0  0  0  0  0  2  0  0  0  0  0  0
  -26.0180  -29.4540   20.7860 C   0  0  0  0  0  0  0  0  0  0  0  0
  -27.2120  -28.6860   20.7870 C   0  0  0  0  0  3  0  0  0  0  0  0
  -26.0590  -26.9260   19.5710 C   0  0  0  0  0  3  0  0  0  0  0  0
  -24.8780  -27.6900   19.5670 C   0  0  0  0  0  3  0  0  0  0  0  0
  -23.6210  -29.8190   20.2260 C   0  0  0  0  0  2  0  0  0  0  0  0
  -24.6680  -31.0900   22.1510 N   0  0  0  0  0  0  0  0  0  0  0  0
  -23.5190  -32.1790   23.7750 O   0  0  0  0  0  0  0  0  0  0  0  0
  -22.7520  -29.4700   22.5650 C   0  0  0  0  0  0  0  0  0  0  0  0
  -21.4260  -29.2910   22.4400 N   0  0  0  0  0  0  0  0  0  0  0  0
  -23.4350  -28.8430   23.3800 O   0  0  0  0  0  0  0  0  0  0  0  0
  -20.9380  -29.8520   21.7550 H   0  0  0  0  0  0  0  0  0  0  0  0
  -18.0440  -28.1140   22.9490 C   0  0  0  0  0  0  0  0  0  0  0  0
  -20.6050  -28.3550   23.2100 C   0  0  0  0  0  3  0  0  0  0  0  0
  -20.6920  -26.9250   22.6260 C   0  0  0  0  0  2  0  0  0  0  0  0
  -19.5800  -26.6140   21.6200 C   0  0  0  0  0  2  0  0  0  0  0  0
  -18.2060  -26.7660   22.2740 C   0  0  0  0  0  2  0  0  0  0  0  0
  -19.1680  -28.8690   23.3790 C   0  0  0  0  0  0  0  0  0  0  0  0
  -18.9550  -30.1330   23.9710 C   0  0  0  0  0  3  0  0  0  0  0  0
  -17.6490  -30.6370   24.1390 C   0  0  0  0  0  3  0  0  0  0  0  0
  -16.5410  -29.8780   23.7230 C   0  0  0  0  0  3  0  0  0  0  0  0
  -16.7390  -28.6160   23.1340 C   0  0  0  0  0  3  0  0  0  0  0  0
  -25.8860  -32.5380   23.8630 C   0  0  0  0  0  3  0  0  0  0  0  0
  -25.5740  -33.9370   24.1840 N   0  0  0  0  0  0  0  0  0  0  0  0
  -25.9080  -34.9860   23.4200 C   0  0  0  0  0  0  0  0  0  0  0  0
  -26.5800  -34.8760   22.3920 O   0  0  0  0  0  0  0  0  0  0  0  0
  -24.9790  -34.0960   24.9830 H   0  0  0  0  0  0  0  0  0  0  0  0
  -24.1800  -36.7740   23.0460 C   0  0  0  0  0  1  0  0  0  0  0  0
  -25.4160  -36.3740   23.8670 C   0  0  0  0  0  3  0  0  0  0  0  0
  -27.5460  -37.2640   24.7070 C   0  0  0  0  0  1  0  0  0  0  0  0
  -26.4500  -37.4270   23.7590 N   0  0  0  0  0  0  0  0  0  0  0  0
  -26.0410  -38.3480   23.9020 H   0  0  0  0  0  0  0  0  0  0  0  0
  -26.4020  -31.7700   25.1420 C   0  0  1  0  0  0  0  0  0  0  0  0
  -25.3080  -31.5300   26.2100 C   0  0  0  0  0  1  0  0  0  0  0  0
  -26.9870  -30.3930   24.7500 C   0  0  0  0  0  1  0  0  0  0  0  0
  -27.5480  -32.5710   25.8010 C   0  0  0  0  0  1  0  0  0  0  0  0
  -30.7890  -17.0560   20.0440 C   0  0  0  0  0  2  0  0  0  0  0  0
  -30.6980  -14.5980   20.3420 C   0  0  0  0  0  0  0  0  0  0  0  0
  -30.3510  -12.3870   19.3260 C   0  0  0  0  0  2  0  0  0  0  0  0
  -29.4230  -12.5150   18.1030 C   0  0  0  0  0  2  0  0  0  0  0  0
  -27.9560  -12.3760   18.5420 C   0  0  0  0  0  2  0  0  0  0  0  0
  -27.5960  -13.2720   19.7530 C   0  0  0  0  0  3  0  0  0  0  0  0
  -28.6550  -13.1870   20.8740 C   0  0  0  0  0  2  0  0  0  0  0  0
  -29.9700  -13.4460   20.2760 N   0  0  0  0  0  0  0  0  0  0  0  0
  -31.9040  -14.5980   20.0940 O   0  0  0  0  0  0  0  0  0  0  0  0
  -30.0500  -15.7970   20.3880 N   0  0  0  0  0  0  0  0  0  0  0  0
  -29.0470  -15.8370   20.5020 H   0  0  0  0  0  0  0  0  0  0  0  0
  -25.2130  -13.8710   20.4840 C   0  0  0  0  0  0  0  0  0  0  0  0
  -24.1430  -13.1000   20.8500 C   0  0  0  0  0  0  0  0  0  0  0  0
  -24.6060  -11.7500   20.8290 C   0  0  0  0  0  0  0  0  0  0  0  0
  -26.2550  -12.9890   20.2510 N   0  0  0  0  0  0  0  0  0  0  0  0
  -25.8970  -11.7070   20.5280 N   0  0  0  0  0  0  0  0  0  0  0  0
  -23.8800  -10.4900   21.0240 C   0  0  0  0  0  0  0  0  0  0  0  0
  -24.3120   -9.5240   21.9610 C   0  0  0  0  0  3  0  0  0  0  0  0
  -23.5850   -8.3280   22.1410 C   0  0  0  0  0  3  0  0  0  0  0  0
  -22.4140   -8.0880   21.3840 C   0  0  0  0  0  0  0  0  0  0  0  0
  -22.0040   -9.0400   20.4340 C   0  0  0  0  0  3  0  0  0  0  0  0
  -22.7300  -10.2280   20.2520 C   0  0  0  0  0  3  0  0  0  0  0  0
  -21.6570   -6.9450   21.4730 O   0  0  0  0  0  0  0  0  0  0  0  0
  -21.6130   -6.1990   22.6260 C   0  0  0  0  0  0  0  0  0  0  0  0
  -21.1950   -6.7550   23.8530 C   0  0  0  0  0  3  0  0  0  0  0  0
  -21.0930   -5.9390   24.9980 C   0  0  0  0  0  3  0  0  0  0  0  0
  -21.4030   -4.5680   24.9170 C   0  0  0  0  0  0  0  0  0  0  0  0
  -21.8110   -4.0120   23.6920 C   0  0  0  0  0  3  0  0  0  0  0  0
  -21.9130   -4.8260   22.5490 C   0  0  0  0  0  0  0  0  0  0  0  0
  -22.2850   -4.2770   21.3680 F   0  0  0  0  0  0  0  0  0  0  0  0
  -21.3040   -3.7830   26.0150 F   0  0  0  0  0  0  0  0  0  0  0  0
  -22.7450  -13.5780   21.1090 C   0  0  0  0  0  0  0  0  0  0  0  0
  -22.0110  -12.8840   21.9750 N   0  0  0  0  0  0  0  0  0  0  0  0
  -22.3110  -14.5990   20.5770 O   0  0  0  0  0  0  0  0  0  0  0  0
  -22.3710  -12.0560   22.4240 H   0  0  0  0  0  0  0  0  0  0  0  0
  -21.0740  -13.1920   22.1920 H   0  0  0  0  0  0  0  0  0  0  0  0
  -25.3840  -15.2420   20.3010 N   0  0  0  0  0  0  0  0  0  0  0  0
  -24.6260  -15.9070   20.4030 H   0  0  0  0  0  0  0  0  0  0  0  0
  -26.2370  -15.6760   19.9680 H   0  0  0  0  0  0  0  0  0  0  0  0
  2  7  1  0
  2  1  1  0
  3 52  1  0
  3  1  2  0
  4  6  1  0
  5  2  2  0
  6  5  1  0
  6  3  1  0
  7  8  1  0
  9 10  1  0
  9  8  1  0
 11 10  1  0
 12 23  2  0
 13 11  1  0
 13 18  1  0
 14 22  1  0
 14 24  1  0
 15 21  1  0
 15 17  1  0
 16 22  1  0
 17 18  2  0
 17 16  1  0
 19 13  2  0
 20 19  1  0
 20 15  2  0
 21 14  1  0
 22 12  1  0
 24 26  2  0
 25 24  1  0
 27 25  1  0
 28 37  2  0
 28 33  1  0
 29 25  1  0
 29 33  1  0
 30 29  1  0
 31 32  1  0
 31 30  1  0
 32 28  1  0
 33 34  2  0
 34 35  1  0
 36 35  2  0
 37 36  1  0
 38 12  1  0
 38 39  1  0
 38 48  1  0
 39 42  1  0
 40 44  1  0
 40 39  1  0
 41 40  2  0
 44 43  1  0
 46 44  1  0
 46 47  1  0
 46 45  1  0
 48 51  1  1
 48 49  1  0
 50 48  1  0
 52 61  1  0
 53 61  1  0
 54 59  1  0
 55 56  1  0
 55 54  1  0
 57 56  1  0
 57 66  1  0
 57 58  1  0
 59 53  1  0
 59 58  1  0
 60 53  2  0
 61 62  1  0
 63 64  2  0
 64 83  1  0
 65 64  1  0
 65 68  1  0
 66 63  1  0
 66 67  1  0
 67 65  2  0
 68 69  1  0
 69 70  2  0
 71 74  1  0
 71 70  1  0
 72 71  2  0
 73 72  1  0
 73 68  2  0
 74 75  1  0
 75 76  1  0
 76 77  2  0
 78 77  1  0
 78 82  1  0
 79 78  2  0
 80 75  2  0
 80 79  1  0
 81 80  1  0
 83 84  1  0
 84 87  1  0
 84 86  1  0
 85 83  2  0
 88 89  1  0
 88 63  1  0
 90 88  1  0
M  ISO  4  10 101  11 101  53 100  61 100
M  END
>  <TORSDO>  (25) 
F 21

>  <SCORE>  (25) 
-13.405

>  <name>  (25) 
24

>  <ligand_id>  (25) 
24

>  <original_smiles>  (25) 
[H]c1c([H])c([H])c2c(c1[H])C([H])([H])C([H])([H])C([H])([H])C2([H])N([H])C(=O)C1([H])N(C(=O)C([H])(N([H])C(=O)C([H])(N([H])C([H])([H])[H])C([H])([H])[H])C(C([H])([H])[H])(C([H])([H])[H])C([H])([H])[H])C([H])([H])c2c([H])c(OC([H])([H])C([H])([H])C([H])([H])C([H])([H])c3nn(C([H])([H])[H])c(C([H])([H])N([H])C(=O)N4C([H])([H])C([H])([H])C([H])([H])C([H])(n5nc(-c6c([H])c([H])c(Oc7c([H])c([H])c(F)c([H])c7F)c([H])c6[H])c(C(=O)N([H])[H])c5N([H])[H])C4([H])[H])c3[H])c([H])c([H])c2C1([H])[H]

>  <smiles>  (25) 
[H]c1c([H])c([H])c2c(c1[H])C([H])([H])C([H])([H])C([H])([H])C2([H])N([H])C(=O)C1([H])N(C(=O)C([H])(N([H])C(=O)C([H])(N([H])C([H])([H])[H])C([H])([H])[H])C(C([H])([H])[H])(C([H])([H])[H])C([H])([H])[H])C([H])([H])c2c([H])c(OC([H])([H])C([H])([H])C([H])([H])C([H])([H])c3nn(C([H])([H])[H])c(C([H])([H])N([H])C(=O)N4C([H])([H])C([H])([H])C([H])([H])C([H])(n5nc(-c6c([H])c([H])c(Oc7c([H])c([H])c(F)c([H])c7F)c([H])c6[H])c(C(=O)N([H])[H])c5N([H])[H])C4([H])[H])c3[H])c([H])c([H])c2C1([H])[H]

$$$$
25:0:0
     RDKit          3D

 91 99  0  0  1  0  0  0  0  0999 V2000
  -28.4310  -19.9320   20.4350 C   0  0  0  0  0  3  0  0  0  0  0  0
  -29.6490  -19.2360   20.2310 C   0  0  0  0  0  0  0  0  0  0  0  0
  -30.7270  -21.2720   19.9520 C   0  0  0  0  0  0  0  0  0  0  0  0
  -29.4890  -21.9640   20.0840 C   0  0  0  0  0  0  0  0  0  0  0  0
  -32.0300  -21.9990   19.6860 C   0  0  0  0  0  1  0  0  0  0  0  0
  -28.3480  -21.2850   20.3630 N   0  0  0  0  0  0  0  0  0  0  0  0
  -30.8070  -19.9130   20.0180 N   0  0  0  0  0  0  0  0  0  0  0  0
  -29.6620  -17.7080   20.0810 C   0  0  0  0  0  2  0  0  0  0  0  0
  -30.3230  -16.8900   21.2200 C   0  0  0  0  0  2  0  0  0  0  0  0
  -30.6750  -14.4800   20.5130 C   0  0  0  0  0  0  0  0  0  0  0  0
  -30.3710  -12.3430   19.3140 C   0  0  0  0  0  2  0  0  0  0  0  0
  -29.4290  -12.5680   18.1140 C   0  0  0  0  0  2  0  0  0  0  0  0
  -27.9530  -12.4290   18.5370 C   0  0  0  0  0  2  0  0  0  0  0  0
  -27.6200  -13.2490   19.8120 C   0  0  0  0  0  3  0  0  0  0  0  0
  -28.6710  -12.9990   20.9170 C   0  0  0  0  0  2  0  0  0  0  0  0
  -30.0020  -13.3070   20.3630 N   0  0  0  0  0  0  0  0  0  0  0  0
  -31.7800  -14.6950   20.0080 O   0  0  0  0  0  0  0  0  0  0  0  0
  -29.9890  -15.4540   21.1370 N   0  0  0  0  0  0  0  0  0  0  0  0
  -29.0950  -15.1760   21.5170 H   0  0  0  0  0  0  0  0  0  0  0  0
  -25.2170  -13.8640   20.5050 C   0  0  0  0  0  0  0  0  0  0  0  0
  -24.1460  -13.0950   20.8740 C   0  0  0  0  0  0  0  0  0  0  0  0
  -24.6050  -11.7430   20.8500 C   0  0  0  0  0  0  0  0  0  0  0  0
  -26.2620  -12.9800   20.2840 N   0  0  0  0  0  0  0  0  0  0  0  0
  -25.8960  -11.6990   20.5470 N   0  0  0  0  0  0  0  0  0  0  0  0
  -23.8760  -10.4820   21.0420 C   0  0  0  0  0  0  0  0  0  0  0  0
  -24.3110   -9.5130   21.9720 C   0  0  0  0  0  3  0  0  0  0  0  0
  -23.5860   -8.3160   22.1520 C   0  0  0  0  0  3  0  0  0  0  0  0
  -22.4080   -8.0810   21.4020 C   0  0  0  0  0  0  0  0  0  0  0  0
  -21.9910   -9.0410   20.4610 C   0  0  0  0  0  3  0  0  0  0  0  0
  -22.7190  -10.2280   20.2790 C   0  0  0  0  0  3  0  0  0  0  0  0
  -21.6510   -6.9380   21.4910 O   0  0  0  0  0  0  0  0  0  0  0  0
  -21.6140   -6.1870   22.6390 C   0  0  0  0  0  0  0  0  0  0  0  0
  -21.2130   -6.7380   23.8760 C   0  0  0  0  0  3  0  0  0  0  0  0
  -21.1210   -5.9140   25.0170 C   0  0  0  0  0  3  0  0  0  0  0  0
  -21.4220   -4.5430   24.9200 C   0  0  0  0  0  0  0  0  0  0  0  0
  -21.8170   -3.9910   23.6870 C   0  0  0  0  0  3  0  0  0  0  0  0
  -21.9090   -4.8120   22.5500 C   0  0  0  0  0  0  0  0  0  0  0  0
  -22.2690   -4.2730   21.3610 F   0  0  0  0  0  0  0  0  0  0  0  0
  -21.3270   -3.7490   26.0120 F   0  0  0  0  0  0  0  0  0  0  0  0
  -22.7480  -13.5760   21.1400 C   0  0  0  0  0  0  0  0  0  0  0  0
  -22.0160  -12.8840   22.0070 N   0  0  0  0  0  0  0  0  0  0  0  0
  -22.3140  -14.6000   20.6170 O   0  0  0  0  0  0  0  0  0  0  0  0
  -22.3790  -12.0550   22.4530 H   0  0  0  0  0  0  0  0  0  0  0  0
  -21.0790  -13.1890   22.2280 H   0  0  0  0  0  0  0  0  0  0  0  0
  -25.3870  -15.2330   20.3200 N   0  0  0  0  0  0  0  0  0  0  0  0
  -24.6250  -15.8930   20.4160 H   0  0  0  0  0  0  0  0  0  0  0  0
  -26.2410  -15.6620   19.9840 H   0  0  0  0  0  0  0  0  0  0  0  0
  -29.3170  -23.4700   19.8060 C   0  0  0  0  0  2  0  0  0  0  0  0
  -29.2900  -24.3920   21.0520 C   0  0  0  0  0  2  0  0  0  0  0  0
  -28.1700  -25.4670   21.0680 C   0  0  0  0  0  2  0  0  0  0  0  0
  -28.3660  -26.6380   20.2470 O   0  0  0  0  0  0  0  0  0  0  0  0
  -24.5770  -31.8920   23.2280 C   0  0  0  0  0  0  0  0  0  0  0  0
  -27.2340  -27.4270   20.1920 C   0  0  0  0  0  0  0  0  0  0  0  0
  -23.3770  -30.4780   21.5910 C   0  0  0  0  0  3  0  0  0  0  0  0
  -24.8410  -28.9390   20.1740 C   0  0  0  0  0  0  0  0  0  0  0  0
  -25.9040  -30.8400   21.3980 C   0  0  0  0  0  2  0  0  0  0  0  0
  -25.9970  -29.4670   20.7630 C   0  0  0  0  0  0  0  0  0  0  0  0
  -27.2000  -28.7190   20.7670 C   0  0  0  0  0  3  0  0  0  0  0  0
  -26.0660  -26.9230   19.5800 C   0  0  0  0  0  3  0  0  0  0  0  0
  -24.8710  -27.6670   19.5750 C   0  0  0  0  0  3  0  0  0  0  0  0
  -23.5920  -29.7920   20.2160 C   0  0  0  0  0  2  0  0  0  0  0  0
  -24.6380  -31.0860   22.1300 N   0  0  0  0  0  0  0  0  0  0  0  0
  -23.4940  -32.1650   23.7650 O   0  0  0  0  0  0  0  0  0  0  0  0
  -22.7260  -29.4610   22.5570 C   0  0  0  0  0  0  0  0  0  0  0  0
  -21.4010  -29.2810   22.4330 N   0  0  0  0  0  0  0  0  0  0  0  0
  -23.4110  -28.8380   23.3720 O   0  0  0  0  0  0  0  0  0  0  0  0
  -20.9110  -29.8360   21.7460 H   0  0  0  0  0  0  0  0  0  0  0  0
  -18.0240  -28.1000   22.9500 C   0  0  0  0  0  0  0  0  0  0  0  0
  -20.5840  -28.3480   23.2100 C   0  0  0  0  0  3  0  0  0  0  0  0
  -20.6780  -26.9150   22.6340 C   0  0  0  0  0  2  0  0  0  0  0  0
  -19.5700  -26.5970   21.6250 C   0  0  0  0  0  2  0  0  0  0  0  0
  -18.1920  -26.7500   22.2750 C   0  0  0  0  0  2  0  0  0  0  0  0
  -19.1480  -28.8580   23.3740 C   0  0  0  0  0  0  0  0  0  0  0  0
  -18.9390  -30.1230   23.9640 C   0  0  0  0  0  3  0  0  0  0  0  0
  -17.6370  -30.6330   24.1340 C   0  0  0  0  0  3  0  0  0  0  0  0
  -16.5270  -29.8720   23.7250 C   0  0  0  0  0  3  0  0  0  0  0  0
  -16.7220  -28.6080   23.1400 C   0  0  0  0  0  3  0  0  0  0  0  0
  -25.8610  -32.5300   23.8460 C   0  0  0  0  0  3  0  0  0  0  0  0
  -25.5460  -33.9270   24.1750 N   0  0  0  0  0  0  0  0  0  0  0  0
  -25.8780  -34.9790   23.4160 C   0  0  0  0  0  0  0  0  0  0  0  0
  -26.5500  -34.8770   22.3860 O   0  0  0  0  0  0  0  0  0  0  0  0
  -24.9500  -34.0790   24.9760 H   0  0  0  0  0  0  0  0  0  0  0  0
  -24.1460  -36.7650   23.0490 C   0  0  0  0  0  1  0  0  0  0  0  0
  -25.3830  -36.3660   23.8690 C   0  0  0  0  0  3  0  0  0  0  0  0
  -27.5100  -37.2550   24.7110 C   0  0  0  0  0  1  0  0  0  0  0  0
  -26.4130  -37.4210   23.7620 N   0  0  0  0  0  0  0  0  0  0  0  0
  -26.0040  -38.3410   23.9060 H   0  0  0  0  0  0  0  0  0  0  0  0
  -26.3850  -31.7610   25.1210 C   0  0  1  0  0  0  0  0  0  0  0  0
  -25.2960  -31.5190   26.1910 C   0  0  0  0  0  1  0  0  0  0  0  0
  -26.9730  -30.3860   24.7240 C   0  0  0  0  0  1  0  0  0  0  0  0
  -27.5340  -32.5600   25.7790 C   0  0  0  0  0  1  0  0  0  0  0  0
  2  1  2  0
  3  7  2  0
  3  4  1  0
  4  6  2  0
  5  3  1  0
  6  1  1  0
  7  2  1  0
  8  2  1  0
  8  9  1  0
 10 18  1  0
 11 16  1  0
 12 13  1  0
 12 11  1  0
 14 13  1  0
 14 23  1  0
 14 15  1  0
 16 10  1  0
 16 15  1  0
 17 10  2  0
 18  9  1  0
 18 19  1  0
 20 21  2  0
 21 40  1  0
 22 21  1  0
 22 25  1  0
 23 20  1  0
 23 24  1  0
 24 22  2  0
 25 26  1  0
 26 27  2  0
 28 31  1  0
 28 27  1  0
 29 28  2  0
 30 29  1  0
 30 25  2  0
 31 32  1  0
 32 33  1  0
 33 34  2  0
 35 34  1  0
 35 39  1  0
 36 35  2  0
 37 32  2  0
 37 36  1  0
 38 37  1  0
 40 41  1  0
 41 44  1  0
 41 43  1  0
 42 40  2  0
 45 46  1  0
 45 20  1  0
 47 45  1  0
 48  4  1  0
 48 49  1  0
 49 50  1  0
 51 50  1  0
 52 63  2  0
 53 51  1  0
 53 58  1  0
 54 62  1  0
 54 64  1  0
 55 61  1  0
 55 57  1  0
 56 62  1  0
 57 58  2  0
 57 56  1  0
 59 53  2  0
 60 59  1  0
 60 55  2  0
 61 54  1  0
 62 52  1  0
 64 66  2  0
 65 64  1  0
 67 65  1  0
 68 77  2  0
 68 73  1  0
 69 65  1  0
 69 73  1  0
 70 69  1  0
 71 72  1  0
 71 70  1  0
 72 68  1  0
 73 74  2  0
 74 75  1  0
 76 75  2  0
 77 76  1  0
 78 52  1  0
 78 79  1  0
 78 88  1  0
 79 82  1  0
 80 84  1  0
 80 79  1  0
 81 80  2  0
 84 83  1  0
 86 84  1  0
 86 87  1  0
 86 85  1  0
 88 91  1  1
 88 89  1  0
 90 88  1  0
M  ISO  4  10 100  18 100  50 101  51 101
M  END
>  <TORSDO>  (26) 
F 21

>  <SCORE>  (26) 
-13.683

>  <name>  (26) 
25

>  <ligand_id>  (26) 
25

>  <original_smiles>  (26) 
[H]c1nc(C([H])([H])C([H])([H])C([H])([H])Oc2c([H])c([H])c3c(c2[H])C([H])([H])N(C(=O)C([H])(N([H])C(=O)C([H])(N([H])C([H])([H])[H])C([H])([H])[H])C(C([H])([H])[H])(C([H])([H])[H])C([H])([H])[H])C([H])(C(=O)N([H])C2([H])c4c([H])c([H])c([H])c([H])c4C([H])([H])C([H])([H])C2([H])[H])C3([H])[H])c(C([H])([H])[H])nc1C([H])([H])C([H])([H])N([H])C(=O)N1C([H])([H])C([H])([H])C([H])([H])C([H])(n2nc(-c3c([H])c([H])c(Oc4c([H])c([H])c(F)c([H])c4F)c([H])c3[H])c(C(=O)N([H])[H])c2N([H])[H])C1([H])[H]

>  <smiles>  (26) 
[H]c1nc(C([H])([H])C([H])([H])C([H])([H])Oc2c([H])c([H])c3c(c2[H])C([H])([H])N(C(=O)C([H])(N([H])C(=O)C([H])(N([H])C([H])([H])[H])C([H])([H])[H])C(C([H])([H])[H])(C([H])([H])[H])C([H])([H])[H])C([H])(C(=O)N([H])C2([H])c4c([H])c([H])c([H])c([H])c4C([H])([H])C([H])([H])C2([H])[H])C3([H])[H])c(C([H])([H])[H])nc1C([H])([H])C([H])([H])N([H])C(=O)N1C([H])([H])C([H])([H])C([H])([H])C([H])(n2nc(-c3c([H])c([H])c(Oc4c([H])c([H])c(F)c([H])c4F)c([H])c3[H])c(C(=O)N([H])[H])c2N([H])[H])C1([H])[H]

$$$$
26:0:0
     RDKit          3D

 91 99  0  0  1  0  0  0  0  0999 V2000
  -29.4360  -21.2480   20.8690 C   0  0  0  0  0  3  0  0  0  0  0  0
  -28.3240  -22.1270   20.8770 C   0  0  0  0  0  0  0  0  0  0  0  0
  -29.0830  -20.2630   19.9950 C   0  0  0  0  0  0  0  0  0  0  0  0
  -26.9990  -19.8670   18.5640 C   0  0  0  0  0  1  0  0  0  0  0  0
  -27.3450  -21.7050   20.0910 N   0  0  0  0  0  0  0  0  0  0  0  0
  -27.8140  -20.5630   19.5390 N   0  0  0  0  0  0  0  0  0  0  0  0
  -28.2250  -23.4510   21.5710 C   0  0  0  0  0  2  0  0  0  0  0  0
  -28.3670  -24.5750   20.5420 C   0  0  0  0  0  2  0  0  0  0  0  0
  -28.6170  -25.9520   21.1550 C   0  0  0  0  0  2  0  0  0  0  0  0
  -28.5060  -26.9110   20.1120 O   0  0  0  0  0  0  0  0  0  0  0  0
  -24.5740  -31.8940   23.2720 C   0  0  0  0  0  0  0  0  0  0  0  0
  -27.3210  -27.5960   20.1280 C   0  0  0  0  0  0  0  0  0  0  0  0
  -23.4050  -30.5180   21.5760 C   0  0  0  0  0  3  0  0  0  0  0  0
  -24.8990  -29.0290   20.1440 C   0  0  0  0  0  0  0  0  0  0  0  0
  -25.9230  -30.9190   21.4240 C   0  0  0  0  0  2  0  0  0  0  0  0
  -26.0350  -29.5640   20.7630 C   0  0  0  0  0  0  0  0  0  0  0  0
  -27.2500  -28.8510   20.7620 C   0  0  0  0  0  3  0  0  0  0  0  0
  -26.1770  -27.0600   19.5030 C   0  0  0  0  0  3  0  0  0  0  0  0
  -24.9610  -27.7700   19.5160 C   0  0  0  0  0  3  0  0  0  0  0  0
  -23.6430  -29.8680   20.1860 C   0  0  0  0  0  2  0  0  0  0  0  0
  -24.6510  -31.1230   22.1510 N   0  0  0  0  0  0  0  0  0  0  0  0
  -23.4820  -32.1430   23.8010 O   0  0  0  0  0  0  0  0  0  0  0  0
  -22.7510  -29.4710   22.5030 C   0  0  0  0  0  0  0  0  0  0  0  0
  -21.4260  -29.3000   22.3680 N   0  0  0  0  0  0  0  0  0  0  0  0
  -23.4310  -28.8160   23.2970 O   0  0  0  0  0  0  0  0  0  0  0  0
  -20.9380  -29.8830   21.7020 H   0  0  0  0  0  0  0  0  0  0  0  0
  -18.0420  -28.1420   22.8570 C   0  0  0  0  0  0  0  0  0  0  0  0
  -20.6060  -28.3400   23.1030 C   0  0  0  0  0  3  0  0  0  0  0  0
  -20.6740  -26.9370   22.4570 C   0  0  0  0  0  2  0  0  0  0  0  0
  -19.5500  -26.6800   21.4480 C   0  0  0  0  0  2  0  0  0  0  0  0
  -18.1840  -26.8190   22.1240 C   0  0  0  0  0  2  0  0  0  0  0  0
  -19.1800  -28.8630   23.3060 C   0  0  0  0  0  0  0  0  0  0  0  0
  -18.9940  -30.1020   23.9540 C   0  0  0  0  0  3  0  0  0  0  0  0
  -17.7030  -30.6230   24.1580 C   0  0  0  0  0  3  0  0  0  0  0  0
  -16.5780  -29.8990   23.7250 C   0  0  0  0  0  3  0  0  0  0  0  0
  -16.7490  -28.6600   23.0820 C   0  0  0  0  0  3  0  0  0  0  0  0
  -25.8470  -32.5180   23.9260 C   0  0  0  0  0  3  0  0  0  0  0  0
  -25.5440  -33.9220   24.2290 N   0  0  0  0  0  0  0  0  0  0  0  0
  -25.9050  -34.9590   23.4600 C   0  0  0  0  0  0  0  0  0  0  0  0
  -26.6020  -34.8330   22.4490 O   0  0  0  0  0  0  0  0  0  0  0  0
  -24.9330  -34.0950   25.0120 H   0  0  0  0  0  0  0  0  0  0  0  0
  -24.1990  -36.7540   23.0350 C   0  0  0  0  0  1  0  0  0  0  0  0
  -25.4180  -36.3580   23.8810 C   0  0  0  0  0  3  0  0  0  0  0  0
  -27.5380  -37.2450   24.7450 C   0  0  0  0  0  1  0  0  0  0  0  0
  -26.4610  -37.4010   23.7720 N   0  0  0  0  0  0  0  0  0  0  0  0
  -26.0570  -38.3260   23.8910 H   0  0  0  0  0  0  0  0  0  0  0  0
  -26.3190  -31.7550   25.2240 C   0  0  1  0  0  0  0  0  0  0  0  0
  -25.1920  -31.5330   26.2590 C   0  0  0  0  0  1  0  0  0  0  0  0
  -26.9050  -30.3700   24.8590 C   0  0  0  0  0  1  0  0  0  0  0  0
  -27.4540  -32.5470   25.9160 C   0  0  0  0  0  1  0  0  0  0  0  0
  -29.8810  -19.0860   19.5550 C   0  0  0  0  0  2  0  0  0  0  0  0
  -29.6340  -17.8240   20.3920 C   0  0  0  0  0  2  0  0  0  0  0  0
  -30.8100  -16.8550   20.2450 C   0  0  0  0  0  2  0  0  0  0  0  0
  -31.1930  -14.4600   20.3030 C   0  0  0  0  0  0  0  0  0  0  0  0
  -30.7880  -12.3340   19.1670 C   0  0  0  0  0  2  0  0  0  0  0  0
  -29.8560  -12.6160   17.9710 C   0  0  0  0  0  2  0  0  0  0  0  0
  -28.3770  -12.5550   18.4030 C   0  0  0  0  0  2  0  0  0  0  0  0
  -28.0850  -13.3910   19.6780 C   0  0  0  0  0  3  0  0  0  0  0  0
  -29.1310  -13.0970   20.7790 C   0  0  0  0  0  2  0  0  0  0  0  0
  -30.4710  -13.3170   20.2090 N   0  0  0  0  0  0  0  0  0  0  0  0
  -32.3220  -14.6050   19.8300 O   0  0  0  0  0  0  0  0  0  0  0  0
  -30.4920  -15.5170   20.7180 N   0  0  0  0  0  0  0  0  0  0  0  0
  -29.5700  -15.3460   21.0900 H   0  0  0  0  0  0  0  0  0  0  0  0
  -25.7080  -14.0990   20.3800 C   0  0  0  0  0  0  0  0  0  0  0  0
  -24.6110  -13.3700   20.7530 C   0  0  0  0  0  0  0  0  0  0  0  0
  -25.0190  -12.0020   20.7250 C   0  0  0  0  0  0  0  0  0  0  0  0
  -26.7190  -13.1760   20.1530 N   0  0  0  0  0  0  0  0  0  0  0  0
  -26.3050  -11.9090   20.4120 N   0  0  0  0  0  0  0  0  0  0  0  0
  -24.2450  -10.7670   20.9150 C   0  0  0  0  0  0  0  0  0  0  0  0
  -24.6300   -9.7940   21.8620 C   0  0  0  0  0  3  0  0  0  0  0  0
  -23.8580   -8.6250   22.0420 C   0  0  0  0  0  3  0  0  0  0  0  0
  -22.6890   -8.4230   21.2710 C   0  0  0  0  0  0  0  0  0  0  0  0
  -22.3230   -9.3850   20.3130 C   0  0  0  0  0  3  0  0  0  0  0  0
  -23.0950  -10.5440   20.1320 C   0  0  0  0  0  3  0  0  0  0  0  0
  -21.8930   -7.3050   21.3580 O   0  0  0  0  0  0  0  0  0  0  0  0
  -21.7910   -6.5840   22.5190 C   0  0  0  0  0  0  0  0  0  0  0  0
  -21.3420   -7.1680   23.7240 C   0  0  0  0  0  3  0  0  0  0  0  0
  -21.1840   -6.3750   24.8770 C   0  0  0  0  0  3  0  0  0  0  0  0
  -21.4660   -4.9970   24.8290 C   0  0  0  0  0  0  0  0  0  0  0  0
  -21.9100   -4.4100   23.6290 C   0  0  0  0  0  3  0  0  0  0  0  0
  -22.0690   -5.2020   22.4780 C   0  0  0  0  0  0  0  0  0  0  0  0
  -22.4750   -4.6280   21.3200 F   0  0  0  0  0  0  0  0  0  0  0  0
  -21.3080   -4.2330   25.9340 F   0  0  0  0  0  0  0  0  0  0  0  0
  -23.2330  -13.9020   21.0290 C   0  0  0  0  0  0  0  0  0  0  0  0
  -22.4860  -13.2370   21.9020 N   0  0  0  0  0  0  0  0  0  0  0  0
  -22.8300  -14.9410   20.5080 O   0  0  0  0  0  0  0  0  0  0  0  0
  -22.8240  -12.3960   22.3480 H   0  0  0  0  0  0  0  0  0  0  0  0
  -21.5610  -13.5740   22.1290 H   0  0  0  0  0  0  0  0  0  0  0  0
  -25.9240  -15.4630   20.1960 N   0  0  0  0  0  0  0  0  0  0  0  0
  -25.1810  -16.1440   20.2930 H   0  0  0  0  0  0  0  0  0  0  0  0
  -26.7810  -15.8620   19.8340 H   0  0  0  0  0  0  0  0  0  0  0  0
  1  2  1  0
  2  7  1  0
  3  1  2  0
  4  6  1  0
  5  2  2  0
  6  3  1  0
  6  5  1  0
  8  9  1  0
  8  7  1  0
 10 12  1  0
 10  9  1  0
 11 22  2  0
 12 17  1  0
 13 21  1  0
 13 23  1  0
 14 20  1  0
 14 16  1  0
 15 21  1  0
 16 15  1  0
 17 16  2  0
 18 19  1  0
 18 12  2  0
 19 14  2  0
 20 13  1  0
 21 11  1  0
 23 25  2  0
 24 23  1  0
 26 24  1  0
 27 36  2  0
 27 32  1  0
 28 24  1  0
 28 32  1  0
 29 28  1  0
 30 31  1  0
 30 29  1  0
 31 27  1  0
 32 33  2  0
 33 34  1  0
 35 34  2  0
 36 35  1  0
 37 11  1  0
 37 38  1  0
 37 47  1  0
 38 41  1  0
 39 43  1  0
 39 38  1  0
 40 39  2  0
 43 42  1  0
 45 43  1  0
 45 46  1  0
 45 44  1  0
 47 50  1  1
 47 48  1  0
 49 47  1  0
 51  3  1  0
 51 52  1  0
 53 52  1  0
 53 62  1  0
 54 62  1  0
 55 60  1  0
 56 57  1  0
 56 55  1  0
 58 57  1  0
 58 67  1  0
 58 59  1  0
 60 54  1  0
 60 59  1  0
 61 54  2  0
 62 63  1  0
 64 65  2  0
 65 84  1  0
 66 65  1  0
 66 69  1  0
 67 64  1  0
 67 68  1  0
 68 66  2  0
 69 70  1  0
 70 71  2  0
 72 75  1  0
 72 71  1  0
 73 72  2  0
 74 73  1  0
 74 69  2  0
 75 76  1  0
 76 77  1  0
 77 78  2  0
 79 78  1  0
 79 83  1  0
 80 79  2  0
 81 76  2  0
 81 80  1  0
 82 81  1  0
 84 85  1  0
 85 88  1  0
 85 87  1  0
 86 84  2  0
 89 90  1  0
 89 64  1  0
 91 89  1  0
M  ISO  4   9 101  10 101  54 100  62 100
M  END
>  <TORSDO>  (27) 
F 22

>  <SCORE>  (27) 
-12.983

>  <name>  (27) 
26

>  <ligand_id>  (27) 
26

>  <original_smiles>  (27) 
[H]c1c([H])c([H])c2c(c1[H])C([H])([H])C([H])([H])C([H])([H])C2([H])N([H])C(=O)C1([H])N(C(=O)C([H])(N([H])C(=O)C([H])(N([H])C([H])([H])[H])C([H])([H])[H])C(C([H])([H])[H])(C([H])([H])[H])C([H])([H])[H])C([H])([H])c2c([H])c(OC([H])([H])C([H])([H])C([H])([H])c3nn(C([H])([H])[H])c(C([H])([H])C([H])([H])C([H])([H])N([H])C(=O)N4C([H])([H])C([H])([H])C([H])([H])C([H])(n5nc(-c6c([H])c([H])c(Oc7c([H])c([H])c(F)c([H])c7F)c([H])c6[H])c(C(=O)N([H])[H])c5N([H])[H])C4([H])[H])c3[H])c([H])c([H])c2C1([H])[H]

>  <smiles>  (27) 
[H]c1c([H])c([H])c2c(c1[H])C([H])([H])C([H])([H])C([H])([H])C2([H])N([H])C(=O)C1([H])N(C(=O)C([H])(N([H])C(=O)C([H])(N([H])C([H])([H])[H])C([H])([H])[H])C(C([H])([H])[H])(C([H])([H])[H])C([H])([H])[H])C([H])([H])c2c([H])c(OC([H])([H])C([H])([H])C([H])([H])c3nn(C([H])([H])[H])c(C([H])([H])C([H])([H])C([H])([H])N([H])C(=O)N4C([H])([H])C([H])([H])C([H])([H])C([H])(n5nc(-c6c([H])c([H])c(Oc7c([H])c([H])c(F)c([H])c7F)c([H])c6[H])c(C(=O)N([H])[H])c5N([H])[H])C4([H])[H])c3[H])c([H])c([H])c2C1([H])[H]

$$$$
27:0:0
     RDKit          3D

 91 99  0  0  1  0  0  0  0  0999 V2000
  -29.4360  -22.6400   21.4530 C   0  0  0  0  0  3  0  0  0  0  0  0
  -29.4020  -21.2300   21.4850 C   0  0  0  0  0  0  0  0  0  0  0  0
  -29.5860  -23.2800   20.2040 C   0  0  0  0  0  0  0  0  0  0  0  0
  -29.5200  -20.5360   20.2540 C   0  0  0  0  0  0  0  0  0  0  0  0
  -29.2500  -20.5070   22.8140 C   0  0  0  0  0  1  0  0  0  0  0  0
  -29.6810  -22.5600   19.0550 N   0  0  0  0  0  0  0  0  0  0  0  0
  -29.6520  -21.2160   19.0820 N   0  0  0  0  0  0  0  0  0  0  0  0
  -29.7060  -24.8080   20.1170 C   0  0  0  0  0  2  0  0  0  0  0  0
  -28.3930  -25.5460   19.7720 C   0  0  0  0  0  2  0  0  0  0  0  0
  -28.5150  -26.9840   19.8720 O   0  0  0  0  0  0  0  0  0  0  0  0
  -24.7760  -31.9970   23.3170 C   0  0  0  0  0  0  0  0  0  0  0  0
  -27.3380  -27.7150   19.9280 C   0  0  0  0  0  0  0  0  0  0  0  0
  -23.5200  -30.6560   21.6640 C   0  0  0  0  0  3  0  0  0  0  0  0
  -24.9310  -29.2070   20.1090 C   0  0  0  0  0  0  0  0  0  0  0  0
  -26.0350  -31.0510   21.3810 C   0  0  0  0  0  2  0  0  0  0  0  0
  -26.1090  -29.7120   20.6730 C   0  0  0  0  0  0  0  0  0  0  0  0
  -27.3150  -28.9740   20.5790 C   0  0  0  0  0  3  0  0  0  0  0  0
  -26.1350  -27.2340   19.3560 C   0  0  0  0  0  3  0  0  0  0  0  0
  -24.9390  -27.9690   19.4490 C   0  0  0  0  0  3  0  0  0  0  0  0
  -23.6810  -30.0460   20.2470 C   0  0  0  0  0  2  0  0  0  0  0  0
  -24.7980  -31.2470   22.1790 N   0  0  0  0  0  0  0  0  0  0  0  0
  -23.7150  -32.2290   23.9120 O   0  0  0  0  0  0  0  0  0  0  0  0
  -22.9220  -29.5810   22.6010 C   0  0  0  0  0  0  0  0  0  0  0  0
  -21.6070  -29.3390   22.4720 N   0  0  0  0  0  0  0  0  0  0  0  0
  -23.6360  -28.9700   23.4000 O   0  0  0  0  0  0  0  0  0  0  0  0
  -21.0900  -29.8880   21.7990 H   0  0  0  0  0  0  0  0  0  0  0  0
  -18.3070  -27.9270   22.8940 C   0  0  0  0  0  0  0  0  0  0  0  0
  -20.8370  -28.3470   23.2210 C   0  0  0  0  0  3  0  0  0  0  0  0
  -21.0440  -26.9280   22.6400 C   0  0  0  0  0  2  0  0  0  0  0  0
  -19.9850  -26.5420   21.6030 C   0  0  0  0  0  2  0  0  0  0  0  0
  -18.5840  -26.5940   22.2190 C   0  0  0  0  0  2  0  0  0  0  0  0
  -19.3660  -28.7560   23.3510 C   0  0  0  0  0  0  0  0  0  0  0  0
  -19.0550  -30.0010   23.9400 C   0  0  0  0  0  3  0  0  0  0  0  0
  -17.7190  -30.4160   24.0820 C   0  0  0  0  0  3  0  0  0  0  0  0
  -16.6740  -29.5850   23.6420 C   0  0  0  0  0  3  0  0  0  0  0  0
  -16.9690  -28.3420   23.0540 C   0  0  0  0  0  3  0  0  0  0  0  0
  -26.0780  -32.6180   23.9130 C   0  0  0  0  0  3  0  0  0  0  0  0
  -25.7760  -34.0080   24.2820 N   0  0  0  0  0  0  0  0  0  0  0  0
  -26.1100  -35.0770   23.5470 C   0  0  0  0  0  0  0  0  0  0  0  0
  -26.7740  -34.9990   22.5100 O   0  0  0  0  0  0  0  0  0  0  0  0
  -25.1860  -34.1430   25.0880 H   0  0  0  0  0  0  0  0  0  0  0  0
  -24.4030  -36.8970   23.2290 C   0  0  0  0  0  1  0  0  0  0  0  0
  -25.6300  -36.4550   24.0430 C   0  0  0  0  0  3  0  0  0  0  0  0
  -27.7590  -37.2960   24.9320 C   0  0  0  0  0  1  0  0  0  0  0  0
  -26.6750  -37.5010   23.9750 N   0  0  0  0  0  0  0  0  0  0  0  0
  -26.2760  -38.4210   24.1410 H   0  0  0  0  0  0  0  0  0  0  0  0
  -26.6360  -31.8190   25.1540 C   0  0  1  0  0  0  0  0  0  0  0  0
  -25.5680  -31.5200   26.2330 C   0  0  0  0  0  1  0  0  0  0  0  0
  -27.2430  -30.4690   24.7060 C   0  0  0  0  0  1  0  0  0  0  0  0
  -27.7800  -32.6180   25.8210 C   0  0  0  0  0  1  0  0  0  0  0  0
  -29.4970  -18.9990   20.1670 C   0  0  0  0  0  2  0  0  0  0  0  0
  -30.8970  -18.3300   20.1950 C   0  0  0  0  0  2  0  0  0  0  0  0
  -31.0900  -17.1400   21.1810 C   0  0  0  0  0  2  0  0  0  0  0  0
  -31.1800  -14.8380   20.1630 C   0  0  0  0  0  0  0  0  0  0  0  0
  -30.8610  -12.6450   19.0700 C   0  0  0  0  0  2  0  0  0  0  0  0
  -29.8830  -12.7920   17.8860 C   0  0  0  0  0  2  0  0  0  0  0  0
  -28.4230  -12.6620   18.3630 C   0  0  0  0  0  2  0  0  0  0  0  0
  -28.1150  -13.5490   19.5990 C   0  0  0  0  0  3  0  0  0  0  0  0
  -29.1980  -13.3680   20.6850 C   0  0  0  0  0  2  0  0  0  0  0  0
  -30.5030  -13.6610   20.0710 N   0  0  0  0  0  0  0  0  0  0  0  0
  -32.2900  -15.0160   19.6520 O   0  0  0  0  0  0  0  0  0  0  0  0
  -30.5230  -15.8420   20.7740 N   0  0  0  0  0  0  0  0  0  0  0  0
  -29.5980  -15.6200   21.1120 H   0  0  0  0  0  0  0  0  0  0  0  0
  -25.7640  -14.1980   20.4170 C   0  0  0  0  0  0  0  0  0  0  0  0
  -24.6910  -13.4410   20.8030 C   0  0  0  0  0  0  0  0  0  0  0  0
  -25.1140  -12.0800   20.7140 C   0  0  0  0  0  0  0  0  0  0  0  0
  -26.7760  -13.2960   20.1210 N   0  0  0  0  0  0  0  0  0  0  0  0
  -26.3900  -12.0170   20.3570 N   0  0  0  0  0  0  0  0  0  0  0  0
  -24.3630  -10.8320   20.8940 C   0  0  0  0  0  0  0  0  0  0  0  0
  -24.7400   -9.8750   21.8620 C   0  0  0  0  0  3  0  0  0  0  0  0
  -23.9930   -8.6890   22.0270 C   0  0  0  0  0  3  0  0  0  0  0  0
  -22.8520   -8.4520   21.2230 C   0  0  0  0  0  0  0  0  0  0  0  0
  -22.4940   -9.3960   20.2450 C   0  0  0  0  0  3  0  0  0  0  0  0
  -23.2430  -10.5730   20.0780 C   0  0  0  0  0  3  0  0  0  0  0  0
  -22.0800   -7.3190   21.2970 O   0  0  0  0  0  0  0  0  0  0  0  0
  -21.8790   -6.6600   22.4830 C   0  0  0  0  0  0  0  0  0  0  0  0
  -21.2630   -7.2860   23.5880 C   0  0  0  0  0  3  0  0  0  0  0  0
  -21.0130   -6.5510   24.7640 C   0  0  0  0  0  3  0  0  0  0  0  0
  -21.3700   -5.1910   24.8350 C   0  0  0  0  0  0  0  0  0  0  0  0
  -21.9780   -4.5650   23.7330 C   0  0  0  0  0  3  0  0  0  0  0  0
  -22.2300   -5.2970   22.5600 C   0  0  0  0  0  0  0  0  0  0  0  0
  -22.7970   -4.6820   21.4940 F   0  0  0  0  0  0  0  0  0  0  0  0
  -21.1220   -4.4820   25.9610 F   0  0  0  0  0  0  0  0  0  0  0  0
  -23.3170  -13.9440   21.1420 C   0  0  0  0  0  0  0  0  0  0  0  0
  -22.6050  -13.2400   22.0160 N   0  0  0  0  0  0  0  0  0  0  0  0
  -22.8850  -14.9950   20.6700 O   0  0  0  0  0  0  0  0  0  0  0  0
  -22.9670  -12.3890   22.4200 H   0  0  0  0  0  0  0  0  0  0  0  0
  -21.6830  -13.5560   22.2850 H   0  0  0  0  0  0  0  0  0  0  0  0
  -25.9600  -15.5680   20.2740 N   0  0  0  0  0  0  0  0  0  0  0  0
  -25.2170  -16.2410   20.4300 H   0  0  0  0  0  0  0  0  0  0  0  0
  -26.8080  -15.9890   19.9170 H   0  0  0  0  0  0  0  0  0  0  0  0
  1  2  1  0
  2  5  1  0
  3  1  2  0
  4  2  2  0
  6  7  2  0
  6  3  1  0
  7  4  1  0
  8  3  1  0
  9 10  1  0
  9  8  1  0
 10 12  1  0
 11 22  2  0
 12 17  1  0
 13 21  1  0
 13 23  1  0
 14 20  1  0
 14 16  1  0
 15 21  1  0
 16 15  1  0
 17 16  2  0
 18 19  1  0
 18 12  2  0
 19 14  2  0
 20 13  1  0
 21 11  1  0
 23 25  2  0
 24 23  1  0
 26 24  1  0
 27 36  2  0
 27 32  1  0
 28 24  1  0
 28 32  1  0
 29 28  1  0
 30 31  1  0
 30 29  1  0
 31 27  1  0
 32 33  2  0
 33 34  1  0
 35 34  2  0
 36 35  1  0
 37 11  1  0
 37 38  1  0
 37 47  1  0
 38 41  1  0
 39 43  1  0
 39 38  1  0
 40 39  2  0
 43 42  1  0
 45 43  1  0
 45 46  1  0
 45 44  1  0
 47 50  1  1
 47 48  1  0
 49 47  1  0
 51 52  1  0
 51  4  1  0
 52 53  1  0
 54 62  1  0
 55 60  1  0
 56 57  1  0
 56 55  1  0
 58 57  1  0
 58 67  1  0
 58 59  1  0
 60 54  1  0
 60 59  1  0
 61 54  2  0
 62 63  1  0
 62 53  1  0
 64 65  2  0
 65 84  1  0
 66 65  1  0
 66 69  1  0
 67 68  1  0
 67 64  1  0
 68 66  2  0
 69 70  1  0
 70 71  2  0
 72 75  1  0
 72 71  1  0
 73 72  2  0
 74 73  1  0
 74 69  2  0
 75 76  1  0
 76 81  2  0
 76 77  1  0
 77 78  2  0
 78 79  1  0
 79 83  1  0
 80 79  2  0
 81 80  1  0
 82 81  1  0
 84 85  1  0
 85 88  1  0
 85 87  1  0
 86 84  2  0
 89 64  1  0
 89 90  1  0
 91 89  1  0
M  ISO  4   9 101  10 101  54 100  62 100
M  END
>  <TORSDO>  (28) 
F 21

>  <SCORE>  (28) 
-11.558

>  <name>  (28) 
27

>  <ligand_id>  (28) 
27

>  <original_smiles>  (28) 
[H]c1c([H])c([H])c2c(c1[H])C([H])([H])C([H])([H])C([H])([H])C2([H])N([H])C(=O)C1([H])N(C(=O)C([H])(N([H])C(=O)C([H])(N([H])C([H])([H])[H])C([H])([H])[H])C(C([H])([H])[H])(C([H])([H])[H])C([H])([H])[H])C([H])([H])c2c([H])c(OC([H])([H])C([H])([H])c3nnc(C([H])([H])C([H])([H])C([H])([H])N([H])C(=O)N4C([H])([H])C([H])([H])C([H])([H])C([H])(n5nc(-c6c([H])c([H])c(Oc7c([H])c([H])c(F)c([H])c7F)c([H])c6[H])c(C(=O)N([H])[H])c5N([H])[H])C4([H])[H])c(C([H])([H])[H])c3[H])c([H])c([H])c2C1([H])[H]

>  <smiles>  (28) 
[H]c1c([H])c([H])c2c(c1[H])C([H])([H])C([H])([H])C([H])([H])C2([H])N([H])C(=O)C1([H])N(C(=O)C([H])(N([H])C(=O)C([H])(N([H])C([H])([H])[H])C([H])([H])[H])C(C([H])([H])[H])(C([H])([H])[H])C([H])([H])[H])C([H])([H])c2c([H])c(OC([H])([H])C([H])([H])c3nnc(C([H])([H])C([H])([H])C([H])([H])N([H])C(=O)N4C([H])([H])C([H])([H])C([H])([H])C([H])(n5nc(-c6c([H])c([H])c(Oc7c([H])c([H])c(F)c([H])c7F)c([H])c6[H])c(C(=O)N([H])[H])c5N([H])[H])C4([H])[H])c(C([H])([H])[H])c3[H])c([H])c([H])c2C1([H])[H]

$$$$
28:0:0
     RDKit          3D

 95103  0  0  1  0  0  0  0  0999 V2000
  -28.7250  -22.8460   22.5660 C   0  0  0  0  0  3  0  0  0  0  0  0
  -29.7090  -24.6720   23.8020 C   0  0  0  0  0  3  0  0  0  0  0  0
  -28.8120  -24.2280   22.8160 C   0  0  0  0  0  0  0  0  0  0  0  0
  -29.5720  -21.9590   23.2620 C   0  0  0  0  0  0  0  0  0  0  0  0
  -30.4490  -22.5100   24.2300 C   0  0  0  0  0  0  0  0  0  0  0  0
  -31.3850  -21.6520   25.0620 C   0  0  0  0  0  1  0  0  0  0  0  0
  -30.5090  -23.8340   24.4910 N   0  0  0  0  0  0  0  0  0  0  0  0
  -27.9670  -25.2080   22.0100 C   0  0  0  0  0  2  0  0  0  0  0  0
  -28.7930  -26.3080   21.3090 C   0  0  0  0  0  2  0  0  0  0  0  0
  -28.1730  -26.7160   20.0970 O   0  0  0  0  0  0  0  0  0  0  0  0
  -24.4100  -31.8930   23.2860 C   0  0  0  0  0  0  0  0  0  0  0  0
  -27.0350  -27.4770   20.1850 C   0  0  0  0  0  0  0  0  0  0  0  0
  -23.2060  -30.5380   21.6000 C   0  0  0  0  0  3  0  0  0  0  0  0
  -24.6590  -28.9940   20.1830 C   0  0  0  0  0  0  0  0  0  0  0  0
  -25.7380  -30.8590   21.4530 C   0  0  0  0  0  2  0  0  0  0  0  0
  -25.8100  -29.4930   20.8080 C   0  0  0  0  0  0  0  0  0  0  0  0
  -27.0020  -28.7380   20.8190 C   0  0  0  0  0  3  0  0  0  0  0  0
  -25.8760  -26.9880   19.5540 C   0  0  0  0  0  3  0  0  0  0  0  0
  -24.6830  -27.7350   19.5590 C   0  0  0  0  0  3  0  0  0  0  0  0
  -23.4290  -29.8720   20.2160 C   0  0  0  0  0  2  0  0  0  0  0  0
  -24.4680  -31.1100   22.1720 N   0  0  0  0  0  0  0  0  0  0  0  0
  -23.3240  -32.1770   23.8110 O   0  0  0  0  0  0  0  0  0  0  0  0
  -22.5220  -29.5130   22.5320 C   0  0  0  0  0  0  0  0  0  0  0  0
  -21.1920  -29.3790   22.3970 N   0  0  0  0  0  0  0  0  0  0  0  0
  -23.1830  -28.8460   23.3320 O   0  0  0  0  0  0  0  0  0  0  0  0
  -20.7220  -29.9680   21.7240 H   0  0  0  0  0  0  0  0  0  0  0  0
  -17.7720  -28.3330   22.8970 C   0  0  0  0  0  0  0  0  0  0  0  0
  -20.3420  -28.4490   23.1380 C   0  0  0  0  0  3  0  0  0  0  0  0
  -20.3640  -27.0430   22.4970 C   0  0  0  0  0  2  0  0  0  0  0  0
  -19.2320  -26.8210   21.4890 C   0  0  0  0  0  2  0  0  0  0  0  0
  -17.8700  -27.0080   22.1610 C   0  0  0  0  0  2  0  0  0  0  0  0
  -18.9330  -29.0180   23.3410 C   0  0  0  0  0  0  0  0  0  0  0  0
  -18.7890  -30.2650   23.9880 C   0  0  0  0  0  3  0  0  0  0  0  0
  -17.5150  -30.8240   24.1960 C   0  0  0  0  0  3  0  0  0  0  0  0
  -16.3670  -30.1350   23.7690 C   0  0  0  0  0  3  0  0  0  0  0  0
  -16.4970  -28.8910   23.1250 C   0  0  0  0  0  3  0  0  0  0  0  0
  -25.6970  -32.4860   23.9390 C   0  0  0  0  0  3  0  0  0  0  0  0
  -25.4350  -33.9030   24.2230 N   0  0  0  0  0  0  0  0  0  0  0  0
  -25.8410  -34.9200   23.4500 C   0  0  0  0  0  0  0  0  0  0  0  0
  -26.5470  -34.7620   22.4490 O   0  0  0  0  0  0  0  0  0  0  0  0
  -24.8150  -34.1040   24.9930 H   0  0  0  0  0  0  0  0  0  0  0  0
  -24.1930  -36.7620   22.9890 C   0  0  0  0  0  1  0  0  0  0  0  0
  -25.3930  -36.3380   23.8510 C   0  0  0  0  0  3  0  0  0  0  0  0
  -27.5310  -37.1690   24.7260 C   0  0  0  0  0  1  0  0  0  0  0  0
  -26.4680  -37.3470   23.7400 N   0  0  0  0  0  0  0  0  0  0  0  0
  -26.0930  -38.2860   23.8440 H   0  0  0  0  0  0  0  0  0  0  0  0
  -26.1400  -31.7240   25.2470 C   0  0  1  0  0  0  0  0  0  0  0  0
  -24.9950  -31.5280   26.2680 C   0  0  0  0  0  1  0  0  0  0  0  0
  -26.7100  -30.3290   24.9000 C   0  0  0  0  0  1  0  0  0  0  0  0
  -27.2790  -32.5030   25.9480 C   0  0  0  0  0  1  0  0  0  0  0  0
  -29.4770  -20.4510   23.0080 C   0  0  0  0  0  2  0  0  0  0  0  0
  -29.9990  -20.1220   20.6130 C   0  0  0  0  0  1  0  0  0  0  0  0
  -30.4600  -19.9300   22.0120 N   0  0  2  0  0  4  0  0  0  0  0  0
  -31.2970  -20.4850   22.1090 H   0  0  0  0  0  0  0  0  0  0  0  0
  -30.8650  -18.5310   22.3420 C   0  0  0  0  0  2  0  0  0  0  0  0
  -31.2610  -17.6300   21.1440 C   0  0  0  0  0  2  0  0  0  0  0  0
  -31.8830  -16.2930   21.6000 C   0  0  0  0  0  2  0  0  0  0  0  0
  -31.5420  -14.3690   20.0020 C   0  0  0  0  0  0  0  0  0  0  0  0
  -31.0520  -12.2540   18.8200 C   0  0  0  0  0  2  0  0  0  0  0  0
  -30.0560  -12.4480   17.6620 C   0  0  0  0  0  2  0  0  0  0  0  0
  -28.6010  -12.3820   18.1670 C   0  0  0  0  0  2  0  0  0  0  0  0
  -28.3600  -13.2920   19.3990 C   0  0  0  0  0  3  0  0  0  0  0  0
  -29.4460  -13.0460   20.4680 C   0  0  0  0  0  2  0  0  0  0  0  0
  -30.7700  -13.2630   19.8490 N   0  0  0  0  0  0  0  0  0  0  0  0
  -32.5220  -14.6270   19.2950 O   0  0  0  0  0  0  0  0  0  0  0  0
  -31.1940  -15.1290   21.0470 N   0  0  0  0  0  0  0  0  0  0  0  0
  -30.3930  -14.7960   21.5640 H   0  0  0  0  0  0  0  0  0  0  0  0
  -26.0540  -14.0600   20.2530 C   0  0  0  0  0  0  0  0  0  0  0  0
  -24.9550  -13.3590   20.6710 C   0  0  0  0  0  0  0  0  0  0  0  0
  -25.3130  -11.9780   20.5890 C   0  0  0  0  0  0  0  0  0  0  0  0
  -27.0180  -13.1100   19.9460 N   0  0  0  0  0  0  0  0  0  0  0  0
  -26.5760  -11.8520   20.2030 N   0  0  0  0  0  0  0  0  0  0  0  0
  -24.5100  -10.7680   20.8000 C   0  0  0  0  0  0  0  0  0  0  0  0
  -24.8630   -9.8090   21.7750 C   0  0  0  0  0  3  0  0  0  0  0  0
  -24.0660   -8.6600   21.9720 C   0  0  0  0  0  3  0  0  0  0  0  0
  -22.9020   -8.4620   21.1930 C   0  0  0  0  0  0  0  0  0  0  0  0
  -22.5670   -9.4090   20.2080 C   0  0  0  0  0  3  0  0  0  0  0  0
  -23.3640  -10.5490   20.0110 C   0  0  0  0  0  3  0  0  0  0  0  0
  -22.0810   -7.3660   21.2960 O   0  0  0  0  0  0  0  0  0  0  0  0
  -21.8880   -6.7200   22.4900 C   0  0  0  0  0  0  0  0  0  0  0  0
  -21.3650   -7.3860   23.6210 C   0  0  0  0  0  3  0  0  0  0  0  0
  -21.1170   -6.6690   24.8080 C   0  0  0  0  0  3  0  0  0  0  0  0
  -21.3830   -5.2880   24.8650 C   0  0  0  0  0  0  0  0  0  0  0  0
  -21.8990   -4.6220   23.7390 C   0  0  0  0  0  3  0  0  0  0  0  0
  -22.1480   -5.3360   22.5550 C   0  0  0  0  0  0  0  0  0  0  0  0
  -22.6250   -4.6850   21.4670 F   0  0  0  0  0  0  0  0  0  0  0  0
  -21.1380   -4.5970   26.0040 F   0  0  0  0  0  0  0  0  0  0  0  0
  -23.6150  -13.9280   21.0360 C   0  0  0  0  0  0  0  0  0  0  0  0
  -22.8950  -13.2730   21.9400 N   0  0  0  0  0  0  0  0  0  0  0  0
  -23.2170  -14.9880   20.5520 O   0  0  0  0  0  0  0  0  0  0  0  0
  -23.2280  -12.4160   22.3530 H   0  0  0  0  0  0  0  0  0  0  0  0
  -21.9960  -13.6370   22.2250 H   0  0  0  0  0  0  0  0  0  0  0  0
  -26.3110  -15.4180   20.0910 N   0  0  0  0  0  0  0  0  0  0  0  0
  -25.6070  -16.1300   20.2560 H   0  0  0  0  0  0  0  0  0  0  0  0
  -27.1780  -15.7950   19.7270 H   0  0  0  0  0  0  0  0  0  0  0  0
  1  3  2  0
  1  4  1  0
  2  7  2  0
  3  2  1  0
  4  5  2  0
  5  7  1  0
  5  6  1  0
  8  3  1  0
  9  8  1  0
 10 12  1  0
 10  9  1  0
 11 22  2  0
 12 17  1  0
 13 21  1  0
 13 23  1  0
 14 20  1  0
 14 16  1  0
 15 21  1  0
 16 17  2  0
 16 15  1  0
 18 19  1  0
 18 12  2  0
 19 14  2  0
 20 13  1  0
 21 11  1  0
 23 25  2  0
 24 23  1  0
 26 24  1  0
 27 36  2  0
 27 32  1  0
 28 24  1  0
 28 32  1  0
 29 28  1  0
 30 31  1  0
 30 29  1  0
 31 27  1  0
 32 33  2  0
 33 34  1  0
 35 34  2  0
 36 35  1  0
 37 11  1  0
 37 38  1  0
 37 47  1  0
 38 41  1  0
 39 43  1  0
 39 38  1  0
 40 39  2  0
 43 42  1  0
 45 46  1  0
 45 43  1  0
 45 44  1  0
 47 50  1  1
 47 48  1  0
 49 47  1  0
 51  4  1  0
 52 53  1  0
 53 54  1  6
 53 55  1  0
 53 51  1  0
 56 57  1  0
 56 55  1  0
 58 66  1  0
 59 64  1  0
 60 61  1  0
 60 59  1  0
 62 61  1  0
 62 71  1  0
 62 63  1  0
 64 58  1  0
 64 63  1  0
 65 58  2  0
 66 67  1  0
 66 57  1  0
 68 69  2  0
 69 88  1  0
 70 69  1  0
 70 73  1  0
 71 72  1  0
 71 68  1  0
 72 70  2  0
 73 74  1  0
 74 75  2  0
 76 79  1  0
 76 75  1  0
 77 76  2  0
 78 77  1  0
 78 73  2  0
 79 80  1  0
 80 85  2  0
 80 81  1  0
 81 82  2  0
 82 83  1  0
 83 87  1  0
 84 83  2  0
 85 84  1  0
 86 85  1  0
 88 89  1  0
 89 92  1  0
 89 91  1  0
 90 88  2  0
 93 68  1  0
 93 94  1  0
 95 93  1  0
M  ISO  4   9 101  10 101  58 100  66 100
M  END
>  <TORSDO>  (29) 
F 23

>  <SCORE>  (29) 
-9.023

>  <name>  (29) 
28

>  <ligand_id>  (29) 
28

>  <original_smiles>  (29) 
[H]c1nc(C([H])([H])[H])c(C([H])([H])[N+]([H])(C([H])([H])[H])C([H])([H])C([H])([H])C([H])([H])N([H])C(=O)N2C([H])([H])C([H])([H])C([H])([H])C([H])(n3nc(-c4c([H])c([H])c(Oc5c([H])c([H])c(F)c([H])c5F)c([H])c4[H])c(C(=O)N([H])[H])c3N([H])[H])C2([H])[H])c([H])c1C([H])([H])C([H])([H])Oc1c([H])c([H])c2c(c1[H])C([H])([H])N(C(=O)C([H])(N([H])C(=O)C([H])(N([H])C([H])([H])[H])C([H])([H])[H])C(C([H])([H])[H])(C([H])([H])[H])C([H])([H])[H])C([H])(C(=O)N([H])C1([H])c3c([H])c([H])c([H])c([H])c3C([H])([H])C([H])([H])C1([H])[H])C2([H])[H]

>  <smiles>  (29) 
[H]c1nc(C([H])([H])[H])c(C([H])([H])[N+]([H])(C([H])([H])[H])C([H])([H])C([H])([H])C([H])([H])N([H])C(=O)N2C([H])([H])C([H])([H])C([H])([H])C([H])(n3nc(-c4c([H])c([H])c(Oc5c([H])c([H])c(F)c([H])c5F)c([H])c4[H])c(C(=O)N([H])[H])c3N([H])[H])C2([H])[H])c([H])c1C([H])([H])C([H])([H])Oc1c([H])c([H])c2c(c1[H])C([H])([H])N(C(=O)C([H])(N([H])C(=O)C([H])(N([H])C([H])([H])[H])C([H])([H])[H])C(C([H])([H])[H])(C([H])([H])[H])C([H])([H])[H])C([H])(C(=O)N([H])C1([H])c3c([H])c([H])c([H])c([H])c3C([H])([H])C([H])([H])C1([H])[H])C2([H])[H]

$$$$
29:0:0
     RDKit          3D

 90 98  0  0  1  0  0  0  0  0999 V2000
  -31.2710  -21.3120   21.0740 C   0  0  0  0  0  3  0  0  0  0  0  0
  -31.4710  -18.6220   21.3770 C   0  0  0  0  0  3  0  0  0  0  0  0
  -30.1710  -20.5720   20.5480 C   0  0  0  0  0  0  0  0  0  0  0  0
  -30.3500  -19.0440   20.6240 C   0  0  0  0  0  0  0  0  0  0  0  0
  -32.3950  -20.7200   21.6570 C   0  0  0  0  0  0  0  0  0  0  0  0
  -33.6340  -21.5370   22.0410 C   0  0  0  0  0  1  0  0  0  0  0  0
  -32.4550  -19.4000   21.8670 N   0  0  0  0  0  0  0  0  0  0  0  0
  -29.0660  -21.6630   19.9710 C   0  0  0  0  0  2  0  0  0  0  0  0
  -29.0840  -23.3230   20.4230 C   0  0  0  0  0  3  0  0  0  0  0  0
  -28.0310  -24.6060   20.0450 C   0  0  0  0  0  3  0  0  0  0  0  0
  -28.2510  -26.1360   20.3320 O   0  0  0  0  0  0  0  0  0  0  0  0
  -24.6250  -31.8770   23.2590 C   0  0  0  0  0  0  0  0  0  0  0  0
  -27.2000  -27.1330   20.2520 C   0  0  0  0  0  0  0  0  0  0  0  0
  -23.4290  -30.4830   21.6190 C   0  0  0  0  0  3  0  0  0  0  0  0
  -24.8840  -28.9030   20.2010 C   0  0  0  0  0  0  0  0  0  0  0  0
  -25.9820  -30.7490   21.4500 C   0  0  0  0  0  2  0  0  0  0  0  0
  -26.0620  -29.3450   20.8140 C   0  0  0  0  0  0  0  0  0  0  0  0
  -27.2220  -28.4740   20.8200 C   0  0  0  0  0  3  0  0  0  0  0  0
  -25.9960  -26.8040   19.5910 C   0  0  0  0  0  3  0  0  0  0  0  0
  -24.8670  -27.6520   19.5670 C   0  0  0  0  0  3  0  0  0  0  0  0
  -23.6550  -29.8010   20.2420 C   0  0  0  0  0  2  0  0  0  0  0  0
  -24.7010  -31.0570   22.1670 N   0  0  0  0  0  0  0  0  0  0  0  0
  -23.5340  -32.1670   23.7770 O   0  0  0  0  0  0  0  0  0  0  0  0
  -22.7360  -29.4830   22.5810 C   0  0  0  0  0  0  0  0  0  0  0  0
  -21.4090  -29.3270   22.4530 N   0  0  0  0  0  0  0  0  0  0  0  0
  -23.3980  -28.8490   23.4070 O   0  0  0  0  0  0  0  0  0  0  0  0
  -20.9360  -29.8970   21.7670 H   0  0  0  0  0  0  0  0  0  0  0  0
  -17.9970  -28.1930   22.9270 C   0  0  0  0  0  0  0  0  0  0  0  0
  -20.5610  -28.4050   23.2140 C   0  0  0  0  0  3  0  0  0  0  0  0
  -20.6380  -26.9750   22.6300 C   0  0  0  0  0  2  0  0  0  0  0  0
  -19.5340  -26.6780   21.6100 C   0  0  0  0  0  2  0  0  0  0  0  0
  -18.1520  -26.8430   22.2480 C   0  0  0  0  0  2  0  0  0  0  0  0
  -19.1270  -28.9360   23.3630 C   0  0  0  0  0  0  0  0  0  0  0  0
  -18.9230  -30.1990   23.9590 C   0  0  0  0  0  3  0  0  0  0  0  0
  -17.6250  -30.7180   24.1260 C   0  0  0  0  0  3  0  0  0  0  0  0
  -16.5100  -29.9730   23.7060 C   0  0  0  0  0  3  0  0  0  0  0  0
  -16.6980  -28.7130   23.1100 C   0  0  0  0  0  3  0  0  0  0  0  0
  -25.8980  -32.5080   23.9040 C   0  0  0  0  0  3  0  0  0  0  0  0
  -26.3840  -31.7380   25.1930 C   0  0  1  0  0  0  0  0  0  0  0  0
  -25.2720  -31.5230   26.2490 C   0  0  0  0  0  1  0  0  0  0  0  0
  -26.9460  -30.3520   24.8050 C   0  0  0  0  0  1  0  0  0  0  0  0
  -27.5350  -32.5210   25.8670 C   0  0  0  0  0  1  0  0  0  0  0  0
  -25.5900  -33.9100   24.2280 N   0  0  0  0  0  0  0  0  0  0  0  0
  -25.9210  -34.9600   23.4630 C   0  0  0  0  0  0  0  0  0  0  0  0
  -26.5760  -34.8490   22.4240 O   0  0  0  0  0  0  0  0  0  0  0  0
  -25.0050  -34.0750   25.0340 H   0  0  0  0  0  0  0  0  0  0  0  0
  -24.1820  -36.7570   23.1590 C   0  0  0  0  0  1  0  0  0  0  0  0
  -25.4520  -36.3540   23.9260 C   0  0  0  0  0  3  0  0  0  0  0  0
  -27.6170  -37.2480   24.6670 C   0  0  0  0  0  1  0  0  0  0  0  0
  -26.4800  -37.4060   23.7640 N   0  0  0  0  0  0  0  0  0  0  0  0
  -26.0780  -38.3280   23.9150 H   0  0  0  0  0  0  0  0  0  0  0  0
  -29.6760  -17.6980   19.9270 C   0  0  0  0  0  2  0  0  0  0  0  0
  -30.4730  -14.9630   20.2420 C   0  0  0  0  0  0  0  0  0  0  0  0
  -30.3280  -12.5740   19.3570 C   0  0  0  0  0  2  0  0  0  0  0  0
  -29.3970  -12.5310   18.1230 C   0  0  0  0  0  2  0  0  0  0  0  0
  -27.9450  -12.3030   18.5830 C   0  0  0  0  0  2  0  0  0  0  0  0
  -27.5410  -13.2550   19.7420 C   0  0  0  0  0  3  0  0  0  0  0  0
  -28.6050  -13.2830   20.8630 C   0  0  0  0  0  2  0  0  0  0  0  0
  -29.8740  -13.6960   20.2420 N   0  0  0  0  0  0  0  0  0  0  0  0
  -31.6620  -15.0150   19.9190 O   0  0  0  0  0  0  0  0  0  0  0  0
  -29.6960  -16.1580   20.4070 N   0  0  0  0  0  0  0  0  0  0  0  0
  -28.7590  -15.8830   20.6660 H   0  0  0  0  0  0  0  0  0  0  0  0
  -25.1640  -13.8490   20.4940 C   0  0  0  0  0  0  0  0  0  0  0  0
  -24.1020  -13.0810   20.8720 C   0  0  0  0  0  0  0  0  0  0  0  0
  -24.5630  -11.7250   20.8420 C   0  0  0  0  0  0  0  0  0  0  0  0
  -26.2040  -12.9680   20.2480 N   0  0  0  0  0  0  0  0  0  0  0  0
  -25.8520  -11.6860   20.5260 N   0  0  0  0  0  0  0  0  0  0  0  0
  -23.8340  -10.4650   21.0340 C   0  0  0  0  0  0  0  0  0  0  0  0
  -24.2680   -9.4930   21.9630 C   0  0  0  0  0  3  0  0  0  0  0  0
  -23.5400   -8.2980   22.1470 C   0  0  0  0  0  3  0  0  0  0  0  0
  -22.3610   -8.0640   21.4010 C   0  0  0  0  0  0  0  0  0  0  0  0
  -21.9420   -9.0230   20.4600 C   0  0  0  0  0  3  0  0  0  0  0  0
  -22.6730  -10.2080   20.2750 C   0  0  0  0  0  3  0  0  0  0  0  0
  -21.6070   -6.9180   21.4930 O   0  0  0  0  0  0  0  0  0  0  0  0
  -21.5710   -6.1680   22.6410 C   0  0  0  0  0  0  0  0  0  0  0  0
  -21.1600   -6.7160   23.8760 C   0  0  0  0  0  3  0  0  0  0  0  0
  -21.0740   -5.8940   25.0180 C   0  0  0  0  0  3  0  0  0  0  0  0
  -21.3880   -4.5240   24.9240 C   0  0  0  0  0  0  0  0  0  0  0  0
  -21.7890   -3.9750   23.6950 C   0  0  0  0  0  3  0  0  0  0  0  0
  -21.8770   -4.7940   22.5550 C   0  0  0  0  0  0  0  0  0  0  0  0
  -22.2450   -4.2570   21.3670 F   0  0  0  0  0  0  0  0  0  0  0  0
  -21.2950   -3.7320   26.0170 F   0  0  0  0  0  0  0  0  0  0  0  0
  -22.7040  -13.5560   21.1510 C   0  0  0  0  0  0  0  0  0  0  0  0
  -21.9770  -12.8570   22.0140 N   0  0  0  0  0  0  0  0  0  0  0  0
  -22.2650  -14.5830   20.6340 O   0  0  0  0  0  0  0  0  0  0  0  0
  -22.3470  -12.0270   22.4530 H   0  0  0  0  0  0  0  0  0  0  0  0
  -21.0400  -13.1560   22.2440 H   0  0  0  0  0  0  0  0  0  0  0  0
  -25.3410  -15.2210   20.3140 N   0  0  0  0  0  0  0  0  0  0  0  0
  -24.6090  -15.8940   20.5090 H   0  0  0  0  0  0  0  0  0  0  0  0
  -26.1810  -15.6440   19.9460 H   0  0  0  0  0  0  0  0  0  0  0  0
  1  5  1  0
  2  7  1  0
  3  4  1  0
  3  1  2  0
  4  2  2  0
  5  7  2  0
  5  6  1  0
  8  9  1  0
  8  3  1  0
 10 11  1  0
 10  9  2  0
 12 23  2  0
 13 11  1  0
 13 18  1  0
 14 22  1  0
 14 24  1  0
 15 21  1  0
 15 17  1  0
 16 22  1  0
 17 18  2  0
 17 16  1  0
 19 13  2  0
 20 19  1  0
 20 15  2  0
 21 14  1  0
 22 12  1  0
 24 26  2  0
 25 24  1  0
 27 25  1  0
 28 37  2  0
 28 33  1  0
 29 25  1  0
 29 33  1  0
 30 29  1  0
 31 32  1  0
 31 30  1  0
 32 28  1  0
 33 34  2  0
 34 35  1  0
 36 35  2  0
 37 36  1  0
 38 12  1  0
 38 43  1  0
 38 39  1  0
 39 42  1  1
 39 40  1  0
 41 39  1  0
 43 46  1  0
 44 48  1  0
 44 43  1  0
 45 44  2  0
 48 47  1  0
 50 51  1  0
 50 48  1  0
 50 49  1  0
 52 61  1  0
 52  4  1  0
 53 59  1  0
 53 61  1  0
 54 59  1  0
 55 56  1  0
 55 54  1  0
 57 56  1  0
 57 66  1  0
 57 58  1  0
 59 58  1  0
 60 53  2  0
 61 62  1  0
 63 64  2  0
 64 83  1  0
 65 64  1  0
 65 68  1  0
 66 63  1  0
 66 67  1  0
 67 65  2  0
 68 69  1  0
 69 70  2  0
 71 74  1  0
 71 70  1  0
 72 71  2  0
 73 72  1  0
 73 68  2  0
 74 75  1  0
 75 76  1  0
 76 77  2  0
 78 77  1  0
 78 82  1  0
 79 78  2  0
 80 75  2  0
 80 79  1  0
 81 80  1  0
 83 84  1  0
 84 87  1  0
 84 86  1  0
 85 83  2  0
 88 63  1  0
 88 89  1  0
 90 88  1  0
M  ISO  4  10 101  11 101  53 100  61 100
M  END
>  <TORSDO>  (30) 
F 20

>  <SCORE>  (30) 
-14.669

>  <name>  (30) 
29

>  <ligand_id>  (30) 
29

>  <original_smiles>  (30) 
[H]c1nc(C([H])([H])[H])c([H])c(C([H])([H])C([H])([H])C([H])([H])Oc2c([H])c([H])c3c(c2[H])C([H])([H])N(C(=O)C([H])(N([H])C(=O)C([H])(N([H])C([H])([H])[H])C([H])([H])[H])C(C([H])([H])[H])(C([H])([H])[H])C([H])([H])[H])C([H])(C(=O)N([H])C2([H])c4c([H])c([H])c([H])c([H])c4C([H])([H])C([H])([H])C2([H])[H])C3([H])[H])c1C([H])([H])N([H])C(=O)N1C([H])([H])C([H])([H])C([H])([H])C([H])(n2nc(-c3c([H])c([H])c(Oc4c([H])c([H])c(F)c([H])c4F)c([H])c3[H])c(C(=O)N([H])[H])c2N([H])[H])C1([H])[H]

>  <smiles>  (30) 
[H]c1nc(C([H])([H])[H])c([H])c(C([H])([H])C([H])([H])C([H])([H])Oc2c([H])c([H])c3c(c2[H])C([H])([H])N(C(=O)C([H])(N([H])C(=O)C([H])(N([H])C([H])([H])[H])C([H])([H])[H])C(C([H])([H])[H])(C([H])([H])[H])C([H])([H])[H])C([H])(C(=O)N([H])C2([H])c4c([H])c([H])c([H])c([H])c4C([H])([H])C([H])([H])C2([H])[H])C3([H])[H])c1C([H])([H])N([H])C(=O)N1C([H])([H])C([H])([H])C([H])([H])C([H])(n2nc(-c3c([H])c([H])c(Oc4c([H])c([H])c(F)c([H])c4F)c([H])c3[H])c(C(=O)N([H])[H])c2N([H])[H])C1([H])[H]

$$$$
30:0:0
     RDKit          3D

 90 98  0  0  1  0  0  0  0  0999 V2000
  -30.2950  -23.4080   19.6170 C   0  0  0  0  0  3  0  0  0  0  0  0
  -29.0040  -23.9920   19.7480 C   0  0  0  0  0  0  0  0  0  0  0  0
  -28.2530  -21.8750   20.4670 C   0  0  0  0  0  0  0  0  0  0  0  0
  -29.5550  -21.2940   20.3370 C   0  0  0  0  0  0  0  0  0  0  0  0
  -27.0890  -21.0620   20.9960 C   0  0  0  0  0  1  0  0  0  0  0  0
  -30.5660  -22.0940   19.8980 N   0  0  0  0  0  0  0  0  0  0  0  0
  -27.9790  -23.1910   20.1660 N   0  0  0  0  0  0  0  0  0  0  0  0
  -29.9630  -19.8690   20.8860 C   0  0  0  0  0  2  0  0  0  0  0  0
  -29.6800  -18.4980   20.1190 C   0  0  0  0  0  2  0  0  0  0  0  0
  -30.4220  -17.2180   20.7340 C   0  0  0  0  0  2  0  0  0  0  0  0
  -30.6800  -14.7220   20.0290 C   0  0  0  0  0  0  0  0  0  0  0  0
  -30.3770  -12.5080   18.9330 C   0  0  0  0  0  2  0  0  0  0  0  0
  -29.3770  -12.6480   17.7640 C   0  0  0  0  0  2  0  0  0  0  0  0
  -27.9280  -12.4910   18.2660 C   0  0  0  0  0  2  0  0  0  0  0  0
  -27.6340  -13.3560   19.5220 C   0  0  0  0  0  3  0  0  0  0  0  0
  -28.7420  -13.1910   20.5840 C   0  0  0  0  0  2  0  0  0  0  0  0
  -30.0200  -13.5240   19.9420 N   0  0  0  0  0  0  0  0  0  0  0  0
  -31.8400  -14.8410   19.6260 O   0  0  0  0  0  0  0  0  0  0  0  0
  -29.9490  -15.8180   20.4170 N   0  0  0  0  0  0  0  0  0  0  0  0
  -28.9900  -15.6130   20.6570 H   0  0  0  0  0  0  0  0  0  0  0  0
  -25.2840  -13.9740   20.3510 C   0  0  0  0  0  0  0  0  0  0  0  0
  -24.2260  -13.2070   20.7640 C   0  0  0  0  0  0  0  0  0  0  0  0
  -24.6760  -11.8530   20.7100 C   0  0  0  0  0  0  0  0  0  0  0  0
  -26.3080  -13.0840   20.0680 N   0  0  0  0  0  0  0  0  0  0  0  0
  -25.9510  -11.8050   20.3450 N   0  0  0  0  0  0  0  0  0  0  0  0
  -23.9490  -10.5960   20.9260 C   0  0  0  0  0  0  0  0  0  0  0  0
  -24.4020   -9.6280   21.8500 C   0  0  0  0  0  3  0  0  0  0  0  0
  -23.6740   -8.4370   22.0550 C   0  0  0  0  0  3  0  0  0  0  0  0
  -22.4790   -8.2020   21.3360 C   0  0  0  0  0  0  0  0  0  0  0  0
  -22.0430   -9.1570   20.4000 C   0  0  0  0  0  3  0  0  0  0  0  0
  -22.7720  -10.3410   20.1940 C   0  0  0  0  0  3  0  0  0  0  0  0
  -21.7210   -7.0620   21.4490 O   0  0  0  0  0  0  0  0  0  0  0  0
  -21.6940   -6.3280   22.6070 C   0  0  0  0  0  0  0  0  0  0  0  0
  -21.2870   -6.8910   23.8370 C   0  0  0  0  0  3  0  0  0  0  0  0
  -21.2090   -6.0830   24.9880 C   0  0  0  0  0  3  0  0  0  0  0  0
  -21.5270   -4.7140   24.9130 C   0  0  0  0  0  0  0  0  0  0  0  0
  -21.9290   -4.1520   23.6880 C   0  0  0  0  0  3  0  0  0  0  0  0
  -22.0090   -4.9560   22.5380 C   0  0  0  0  0  0  0  0  0  0  0  0
  -22.3760   -4.4040   21.3560 F   0  0  0  0  0  0  0  0  0  0  0  0
  -21.4450   -3.9360   26.0170 F   0  0  0  0  0  0  0  0  0  0  0  0
  -22.8470  -13.6970   21.0970 C   0  0  0  0  0  0  0  0  0  0  0  0
  -22.1510  -13.0010   21.9910 N   0  0  0  0  0  0  0  0  0  0  0  0
  -22.3980  -14.7280   20.6020 O   0  0  0  0  0  0  0  0  0  0  0  0
  -22.5270  -12.1650   22.4110 H   0  0  0  0  0  0  0  0  0  0  0  0
  -21.2280  -13.3140   22.2600 H   0  0  0  0  0  0  0  0  0  0  0  0
  -25.4520  -15.3420   20.1700 N   0  0  0  0  0  0  0  0  0  0  0  0
  -24.6920  -16.0000   20.3080 H   0  0  0  0  0  0  0  0  0  0  0  0
  -26.2810  -15.7730   19.7820 H   0  0  0  0  0  0  0  0  0  0  0  0
  -28.7030  -25.4390   19.1930 C   0  0  0  0  0  2  0  0  0  0  0  0
  -28.4880  -26.5880   20.1010 O   0  0  0  0  0  0  0  0  0  0  0  0
  -24.6550  -31.8740   23.1600 C   0  0  0  0  0  0  0  0  0  0  0  0
  -27.3380  -27.3930   20.0380 C   0  0  0  0  0  0  0  0  0  0  0  0
  -23.4730  -30.4830   21.4990 C   0  0  0  0  0  3  0  0  0  0  0  0
  -24.9470  -28.9710   20.0550 C   0  0  0  0  0  0  0  0  0  0  0  0
  -26.0080  -30.8340   21.3270 C   0  0  0  0  0  2  0  0  0  0  0  0
  -26.1060  -29.4650   20.6640 C   0  0  0  0  0  0  0  0  0  0  0  0
  -27.3000  -28.6840   20.6530 C   0  0  0  0  0  3  0  0  0  0  0  0
  -26.1430  -26.9430   19.4290 C   0  0  0  0  0  3  0  0  0  0  0  0
  -24.9660  -27.7160   19.4330 C   0  0  0  0  0  3  0  0  0  0  0  0
  -23.6990  -29.8280   20.1110 C   0  0  0  0  0  2  0  0  0  0  0  0
  -24.7320  -31.0790   22.0540 N   0  0  0  0  0  0  0  0  0  0  0  0
  -23.5680  -32.1340   23.6940 O   0  0  0  0  0  0  0  0  0  0  0  0
  -22.8170  -29.4480   22.4420 C   0  0  0  0  0  0  0  0  0  0  0  0
  -21.4920  -29.2640   22.3120 N   0  0  0  0  0  0  0  0  0  0  0  0
  -23.4980  -28.8130   23.2510 O   0  0  0  0  0  0  0  0  0  0  0  0
  -20.9980  -29.8330   21.6360 H   0  0  0  0  0  0  0  0  0  0  0  0
  -18.1200  -28.0510   22.7970 C   0  0  0  0  0  0  0  0  0  0  0  0
  -20.6780  -28.3100   23.0680 C   0  0  0  0  0  3  0  0  0  0  0  0
  -20.7820  -26.8900   22.4650 C   0  0  0  0  0  2  0  0  0  0  0  0
  -19.6790  -26.5840   21.4470 C   0  0  0  0  0  2  0  0  0  0  0  0
  -18.2970  -26.7150   22.0950 C   0  0  0  0  0  2  0  0  0  0  0  0
  -19.2370  -28.8070   23.2390 C   0  0  0  0  0  0  0  0  0  0  0  0
  -19.0160  -30.0600   23.8520 C   0  0  0  0  0  3  0  0  0  0  0  0
  -17.7110  -30.5550   24.0290 C   0  0  0  0  0  3  0  0  0  0  0  0
  -16.6070  -29.7940   23.6050 C   0  0  0  0  0  3  0  0  0  0  0  0
  -16.8130  -28.5440   22.9950 C   0  0  0  0  0  3  0  0  0  0  0  0
  -25.9270  -32.5120   23.7960 C   0  0  0  0  0  3  0  0  0  0  0  0
  -26.4310  -31.7450   25.0790 C   0  0  1  0  0  0  0  0  0  0  0  0
  -25.3250  -31.5060   26.1340 C   0  0  0  0  0  1  0  0  0  0  0  0
  -27.0230  -30.3690   24.6960 C   0  0  0  0  0  1  0  0  0  0  0  0
  -27.5700  -32.5450   25.7530 C   0  0  0  0  0  1  0  0  0  0  0  0
  -25.6080  -33.9100   24.1200 N   0  0  0  0  0  0  0  0  0  0  0  0
  -25.9460  -34.9630   23.3630 C   0  0  0  0  0  0  0  0  0  0  0  0
  -26.6280  -34.8600   22.3390 O   0  0  0  0  0  0  0  0  0  0  0  0
  -25.0020  -34.0620   24.9120 H   0  0  0  0  0  0  0  0  0  0  0  0
  -24.2190  -36.7530   22.9880 C   0  0  0  0  0  1  0  0  0  0  0  0
  -25.4510  -36.3520   23.8120 C   0  0  0  0  0  3  0  0  0  0  0  0
  -27.5740  -37.2470   24.6660 C   0  0  0  0  0  1  0  0  0  0  0  0
  -26.4830  -37.4060   23.7070 N   0  0  0  0  0  0  0  0  0  0  0  0
  -26.0730  -38.3270   23.8450 H   0  0  0  0  0  0  0  0  0  0  0  0
  1  2  2  0
  1  6  1  0
  2  7  1  0
  3  5  1  0
  4  3  1  0
  4  8  1  0
  6  4  2  0
  7  3  2  0
  9 10  1  0
  9  8  1  0
 11 19  1  0
 12 17  1  0
 13 14  1  0
 13 12  1  0
 15 14  1  0
 15 24  1  0
 15 16  1  0
 17 11  1  0
 17 16  1  0
 18 11  2  0
 19 20  1  0
 19 10  1  0
 21 22  2  0
 22 41  1  0
 23 22  1  0
 23 26  1  0
 24 25  1  0
 24 21  1  0
 25 23  2  0
 26 27  1  0
 27 28  2  0
 29 32  1  0
 29 28  1  0
 30 29  2  0
 31 30  1  0
 31 26  2  0
 32 33  1  0
 33 34  1  0
 34 35  2  0
 36 35  1  0
 36 40  1  0
 37 36  2  0
 38 33  2  0
 38 37  1  0
 39 38  1  0
 41 42  1  0
 42 45  1  0
 42 44  1  0
 43 41  2  0
 46 47  1  0
 46 21  1  0
 48 46  1  0
 49  2  1  0
 49 50  1  0
 51 62  2  0
 52 50  1  0
 52 57  1  0
 53 61  1  0
 53 63  1  0
 54 60  1  0
 54 56  1  0
 55 61  1  0
 56 55  1  0
 57 56  2  0
 58 59  1  0
 58 52  2  0
 59 54  2  0
 60 53  1  0
 61 51  1  0
 63 65  2  0
 64 63  1  0
 66 64  1  0
 67 76  2  0
 67 72  1  0
 68 64  1  0
 68 72  1  0
 69 68  1  0
 70 71  1  0
 70 69  1  0
 71 67  1  0
 72 73  2  0
 73 74  1  0
 75 74  2  0
 76 75  1  0
 77 51  1  0
 77 82  1  0
 77 78  1  0
 78 81  1  1
 78 79  1  0
 80 78  1  0
 82 85  1  0
 83 87  1  0
 83 82  1  0
 84 83  2  0
 87 86  1  0
 89 87  1  0
 89 90  1  0
 89 88  1  0
M  ISO  4  11 100  19 100  49 101  50 101
M  END
>  <TORSDO>  (31) 
F 20

>  <SCORE>  (31) 
-12.534

>  <name>  (31) 
30

>  <ligand_id>  (31) 
30

>  <original_smiles>  (31) 
[H]c1nc(C([H])([H])C([H])([H])C([H])([H])N([H])C(=O)N2C([H])([H])C([H])([H])C([H])([H])C([H])(n3nc(-c4c([H])c([H])c(Oc5c([H])c([H])c(F)c([H])c5F)c([H])c4[H])c(C(=O)N([H])[H])c3N([H])[H])C2([H])[H])c(C([H])([H])[H])nc1C([H])([H])Oc1c([H])c([H])c2c(c1[H])C([H])([H])N(C(=O)C([H])(N([H])C(=O)C([H])(N([H])C([H])([H])[H])C([H])([H])[H])C(C([H])([H])[H])(C([H])([H])[H])C([H])([H])[H])C([H])(C(=O)N([H])C1([H])c3c([H])c([H])c([H])c([H])c3C([H])([H])C([H])([H])C1([H])[H])C2([H])[H]

>  <smiles>  (31) 
[H]c1nc(C([H])([H])C([H])([H])C([H])([H])N([H])C(=O)N2C([H])([H])C([H])([H])C([H])([H])C([H])(n3nc(-c4c([H])c([H])c(Oc5c([H])c([H])c(F)c([H])c5F)c([H])c4[H])c(C(=O)N([H])[H])c3N([H])[H])C2([H])[H])c(C([H])([H])[H])nc1C([H])([H])Oc1c([H])c([H])c2c(c1[H])C([H])([H])N(C(=O)C([H])(N([H])C(=O)C([H])(N([H])C([H])([H])[H])C([H])([H])[H])C(C([H])([H])[H])(C([H])([H])[H])C([H])([H])[H])C([H])(C(=O)N([H])C1([H])c3c([H])c([H])c([H])c([H])c3C([H])([H])C([H])([H])C1([H])[H])C2([H])[H]

$$$$
31:0:0
     RDKit          3D

 93101  0  0  1  0  0  0  0  0999 V2000
  -29.6890  -21.7030   20.4040 C   0  0  0  0  0  3  0  0  0  0  0  0
  -29.9320  -23.0120   20.9250 C   0  0  0  0  0  0  0  0  0  0  0  0
  -29.8370  -20.8230   21.4580 C   0  0  0  0  0  0  0  0  0  0  0  0
  -30.3250  -22.9170   22.1830 N   0  0  0  0  0  0  0  0  0  0  0  0
  -30.3270  -21.5960   22.5270 N   0  0  0  0  0  0  0  0  0  0  0  0
  -32.1050  -20.3540   23.7140 C   0  0  0  0  0  1  0  0  0  0  0  0
  -29.7900  -20.4860   24.7220 C   0  0  0  0  0  1  0  0  0  0  0  0
  -31.3040  -22.4640   24.7000 C   0  0  0  0  0  1  0  0  0  0  0  0
  -30.8480  -21.2240   23.8740 C   0  0  2  0  0  0  0  0  0  0  0  0
  -29.8940  -24.3910   20.2390 C   0  0  0  0  0  2  0  0  0  0  0  0
  -28.5940  -25.2290   20.4340 C   0  0  0  0  0  2  0  0  0  0  0  0
  -28.7300  -26.6400   20.0870 O   0  0  0  0  0  0  0  0  0  0  0  0
  -24.6150  -31.6100   23.1710 C   0  0  0  0  0  0  0  0  0  0  0  0
  -27.5460  -27.3640   20.0460 C   0  0  0  0  0  0  0  0  0  0  0  0
  -23.5150  -30.1640   21.4970 C   0  0  0  0  0  3  0  0  0  0  0  0
  -25.0760  -28.7610   20.0510 C   0  0  0  0  0  0  0  0  0  0  0  0
  -26.0170  -30.6840   21.3270 C   0  0  0  0  0  2  0  0  0  0  0  0
  -26.1990  -29.3300   20.6660 C   0  0  0  0  0  0  0  0  0  0  0  0
  -27.4380  -28.6380   20.6630 C   0  0  0  0  0  3  0  0  0  0  0  0
  -26.4070  -26.8370   19.4000 C   0  0  0  0  0  3  0  0  0  0  0  0
  -25.1770  -27.5170   19.4100 C   0  0  0  0  0  3  0  0  0  0  0  0
  -23.7840  -29.5420   20.1040 C   0  0  0  0  0  2  0  0  0  0  0  0
  -24.7330  -30.8330   22.0590 N   0  0  0  0  0  0  0  0  0  0  0  0
  -23.5140  -31.7960   23.7100 O   0  0  0  0  0  0  0  0  0  0  0  0
  -22.9310  -29.0770   22.4300 C   0  0  0  0  0  0  0  0  0  0  0  0
  -21.6400  -28.7520   22.2440 N   0  0  0  0  0  0  0  0  0  0  0  0
  -23.6370  -28.5310   23.2830 O   0  0  0  0  0  0  0  0  0  0  0  0
  -21.1260  -29.2370   21.5220 H   0  0  0  0  0  0  0  0  0  0  0  0
  -18.4280  -27.1240   22.5200 C   0  0  0  0  0  0  0  0  0  0  0  0
  -20.8950  -27.7360   22.9890 C   0  0  0  0  0  3  0  0  0  0  0  0
  -21.2410  -26.3180   22.4810 C   0  0  0  0  0  2  0  0  0  0  0  0
  -20.2830  -25.8180   21.3970 C   0  0  0  0  0  2  0  0  0  0  0  0
  -18.8430  -25.7940   21.9160 C   0  0  0  0  0  2  0  0  0  0  0  0
  -19.3920  -28.0440   23.0090 C   0  0  0  0  0  0  0  0  0  0  0  0
  -18.9560  -29.2840   23.5280 C   0  0  0  0  0  3  0  0  0  0  0  0
  -17.5870  -29.6100   23.5590 C   0  0  0  0  0  3  0  0  0  0  0  0
  -16.6350  -28.6890   23.0870 C   0  0  0  0  0  3  0  0  0  0  0  0
  -17.0550  -27.4470   22.5780 C   0  0  0  0  0  3  0  0  0  0  0  0
  -25.8510  -32.3190   23.8060 C   0  0  0  0  0  3  0  0  0  0  0  0
  -25.4500  -33.6900   24.1500 N   0  0  0  0  0  0  0  0  0  0  0  0
  -25.7390  -34.7720   23.4120 C   0  0  0  0  0  0  0  0  0  0  0  0
  -26.4460  -34.7240   22.4010 O   0  0  0  0  0  0  0  0  0  0  0  0
  -24.8340  -33.7970   24.9420 H   0  0  0  0  0  0  0  0  0  0  0  0
  -23.9230  -36.4640   23.0130 C   0  0  0  0  0  1  0  0  0  0  0  0
  -25.1530  -36.1220   23.8690 C   0  0  0  0  0  3  0  0  0  0  0  0
  -27.2010  -37.1180   24.7880 C   0  0  0  0  0  1  0  0  0  0  0  0
  -26.1250  -37.2350   23.8080 N   0  0  0  0  0  0  0  0  0  0  0  0
  -25.6600  -38.1270   23.9540 H   0  0  0  0  0  0  0  0  0  0  0  0
  -26.4100  -31.5670   25.0750 C   0  0  1  0  0  0  0  0  0  0  0  0
  -25.3290  -31.2480   26.1330 C   0  0  0  0  0  1  0  0  0  0  0  0
  -27.0790  -30.2320   24.6690 C   0  0  0  0  0  1  0  0  0  0  0  0
  -27.5110  -32.4170   25.7520 C   0  0  0  0  0  1  0  0  0  0  0  0
  -29.4410  -19.3350   21.4780 C   0  0  0  0  0  2  0  0  0  0  0  0
  -30.5270  -18.2040   21.3220 C   0  0  0  0  0  2  0  0  0  0  0  0
  -30.2140  -17.0980   20.2490 C   0  0  0  0  0  2  0  0  0  0  0  0
  -30.8140  -14.6610   20.1600 C   0  0  0  0  0  0  0  0  0  0  0  0
  -30.4590  -12.5460   18.9350 C   0  0  0  0  0  2  0  0  0  0  0  0
  -29.4580  -12.7940   17.7830 C   0  0  0  0  0  2  0  0  0  0  0  0
  -28.0030  -12.6650   18.2710 C   0  0  0  0  0  2  0  0  0  0  0  0
  -27.7410  -13.4410   19.5880 C   0  0  0  0  0  3  0  0  0  0  0  0
  -28.8390  -13.1620   20.6390 C   0  0  0  0  0  2  0  0  0  0  0  0
  -30.1430  -13.4800   20.0320 N   0  0  0  0  0  0  0  0  0  0  0  0
  -31.9130  -14.8530   19.6310 O   0  0  0  0  0  0  0  0  0  0  0  0
  -30.1190  -15.6880   20.7100 N   0  0  0  0  0  0  0  0  0  0  0  0
  -29.2700  -15.4250   21.1880 H   0  0  0  0  0  0  0  0  0  0  0  0
  -25.3750  -14.0420   20.3940 C   0  0  0  0  0  0  0  0  0  0  0  0
  -24.3170  -13.2640   20.7890 C   0  0  0  0  0  0  0  0  0  0  0  0
  -24.7700  -11.9120   20.7080 C   0  0  0  0  0  0  0  0  0  0  0  0
  -26.4060  -13.1610   20.1070 N   0  0  0  0  0  0  0  0  0  0  0  0
  -26.0470  -11.8740   20.3470 N   0  0  0  0  0  0  0  0  0  0  0  0
  -24.0440  -10.6480   20.8950 C   0  0  0  0  0  0  0  0  0  0  0  0
  -24.5020   -9.6530   21.7860 C   0  0  0  0  0  3  0  0  0  0  0  0
  -23.7720   -8.4580   21.9620 C   0  0  0  0  0  3  0  0  0  0  0  0
  -22.5700   -8.2490   21.2440 C   0  0  0  0  0  0  0  0  0  0  0  0
  -22.1330   -9.2310   20.3370 C   0  0  0  0  0  3  0  0  0  0  0  0
  -22.8660  -10.4170   20.1590 C   0  0  0  0  0  3  0  0  0  0  0  0
  -21.8040   -7.1110   21.3350 O   0  0  0  0  0  0  0  0  0  0  0  0
  -21.7750   -6.3530   22.4760 C   0  0  0  0  0  0  0  0  0  0  0  0
  -21.3940   -6.8980   23.7210 C   0  0  0  0  0  3  0  0  0  0  0  0
  -21.3080   -6.0690   24.8570 C   0  0  0  0  0  3  0  0  0  0  0  0
  -21.5990   -4.6950   24.7470 C   0  0  0  0  0  0  0  0  0  0  0  0
  -21.9770   -4.1490   23.5060 C   0  0  0  0  0  3  0  0  0  0  0  0
  -22.0600   -4.9760   22.3740 C   0  0  0  0  0  0  0  0  0  0  0  0
  -22.4040   -4.4430   21.1770 F   0  0  0  0  0  0  0  0  0  0  0  0
  -21.5110   -3.8960   25.8340 F   0  0  0  0  0  0  0  0  0  0  0  0
  -22.9360  -13.7440   21.1300 C   0  0  0  0  0  0  0  0  0  0  0  0
  -22.2550  -13.0370   22.0280 N   0  0  0  0  0  0  0  0  0  0  0  0
  -22.4710  -14.7710   20.6400 O   0  0  0  0  0  0  0  0  0  0  0  0
  -22.6530  -12.2090   22.4460 H   0  0  0  0  0  0  0  0  0  0  0  0
  -21.3290  -13.3300   22.3060 H   0  0  0  0  0  0  0  0  0  0  0  0
  -25.5390  -15.4110   20.2370 N   0  0  0  0  0  0  0  0  0  0  0  0
  -24.7720  -16.0630   20.3570 H   0  0  0  0  0  0  0  0  0  0  0  0
  -26.3830  -15.8480   19.8870 H   0  0  0  0  0  0  0  0  0  0  0  0
  1  2  1  0
  1  3  2  0
  2  4  2  0
  3 53  1  0
  3  5  1  0
  4  5  1  0
  5  9  1  0
  9  6  1  6
  9  8  1  0
  9  7  1  0
 10 11  1  0
 10  2  1  0
 12 11  1  0
 13 24  2  0
 14 12  1  0
 14 19  1  0
 15 23  1  0
 15 25  1  0
 16 22  1  0
 16 18  1  0
 17 23  1  0
 18 17  1  0
 19 18  2  0
 20 21  1  0
 20 14  2  0
 21 16  2  0
 22 15  1  0
 23 13  1  0
 25 27  2  0
 26 25  1  0
 28 26  1  0
 29 38  2  0
 29 34  1  0
 30 26  1  0
 30 34  1  0
 31 30  1  0
 32 33  1  0
 32 31  1  0
 33 29  1  0
 34 35  2  0
 35 36  1  0
 37 36  2  0
 38 37  1  0
 39 13  1  0
 39 40  1  0
 39 49  1  0
 40 43  1  0
 41 45  1  0
 41 40  1  0
 42 41  2  0
 45 44  1  0
 47 45  1  0
 47 48  1  0
 47 46  1  0
 49 52  1  1
 49 50  1  0
 51 49  1  0
 54 53  1  0
 55 64  1  0
 55 54  1  0
 56 64  1  0
 57 62  1  0
 58 59  1  0
 58 57  1  0
 60 59  1  0
 60 69  1  0
 60 61  1  0
 62 56  1  0
 62 61  1  0
 63 56  2  0
 64 65  1  0
 66 67  2  0
 67 86  1  0
 68 67  1  0
 68 71  1  0
 69 70  1  0
 69 66  1  0
 70 68  2  0
 71 72  1  0
 72 73  2  0
 74 77  1  0
 74 73  1  0
 75 74  2  0
 76 75  1  0
 76 71  2  0
 77 78  1  0
 78 79  1  0
 79 80  2  0
 81 80  1  0
 81 85  1  0
 82 81  2  0
 83 78  2  0
 83 82  1  0
 84 83  1  0
 86 87  1  0
 87 90  1  0
 87 89  1  0
 88 86  2  0
 91 92  1  0
 91 66  1  0
 93 91  1  0
M  ISO  4  11 101  12 101  56 100  64 100
M  END
>  <TORSDO>  (32) 
F 22

>  <SCORE>  (32) 
-11.304

>  <name>  (32) 
31

>  <ligand_id>  (32) 
31

>  <original_smiles>  (32) 
[H]c1c([H])c([H])c2c(c1[H])C([H])([H])C([H])([H])C([H])([H])C2([H])N([H])C(=O)C1([H])N(C(=O)C([H])(N([H])C(=O)C([H])(N([H])C([H])([H])[H])C([H])([H])[H])C(C([H])([H])[H])(C([H])([H])[H])C([H])([H])[H])C([H])([H])c2c([H])c(OC([H])([H])C([H])([H])c3nn(C(C([H])([H])[H])(C([H])([H])[H])C([H])([H])[H])c(C([H])([H])C([H])([H])C([H])([H])N([H])C(=O)N4C([H])([H])C([H])([H])C([H])([H])C([H])(n5nc(-c6c([H])c([H])c(Oc7c([H])c([H])c(F)c([H])c7F)c([H])c6[H])c(C(=O)N([H])[H])c5N([H])[H])C4([H])[H])c3[H])c([H])c([H])c2C1([H])[H]

>  <smiles>  (32) 
[H]c1c([H])c([H])c2c(c1[H])C([H])([H])C([H])([H])C([H])([H])C2([H])N([H])C(=O)C1([H])N(C(=O)C([H])(N([H])C(=O)C([H])(N([H])C([H])([H])[H])C([H])([H])[H])C(C([H])([H])[H])(C([H])([H])[H])C([H])([H])[H])C([H])([H])c2c([H])c(OC([H])([H])C([H])([H])c3nn(C(C([H])([H])[H])(C([H])([H])[H])C([H])([H])[H])c(C([H])([H])C([H])([H])C([H])([H])N([H])C(=O)N4C([H])([H])C([H])([H])C([H])([H])C([H])(n5nc(-c6c([H])c([H])c(Oc7c([H])c([H])c(F)c([H])c7F)c([H])c6[H])c(C(=O)N([H])[H])c5N([H])[H])C4([H])[H])c3[H])c([H])c([H])c2C1([H])[H]

$$$$
32:0:0
     RDKit          3D

 91 99  0  0  1  0  0  0  0  0999 V2000
  -29.6770  -20.4590   21.2340 C   0  0  0  0  0  3  0  0  0  0  0  0
  -29.3440  -19.7740   20.0450 C   0  0  0  0  0  0  0  0  0  0  0  0
  -28.9410  -20.6570   18.9990 C   0  0  0  0  0  0  0  0  0  0  0  0
  -29.2460  -22.5640   20.3090 C   0  0  0  0  0  0  0  0  0  0  0  0
  -29.6220  -21.8190   21.3560 N   0  0  0  0  0  0  0  0  0  0  0  0
  -28.9200  -22.0110   19.1440 N   0  0  0  0  0  0  0  0  0  0  0  0
  -29.4330  -20.5960   16.4970 C   0  0  0  0  0  1  0  0  0  0  0  0
  -28.4640  -20.1940   17.6250 C   0  0  0  0  0  2  0  0  0  0  0  0
  -29.2950  -18.1980   19.9200 C   0  0  0  0  0  3  0  0  0  0  0  0
  -30.1510  -17.2240   20.8400 C   0  0  0  0  0  3  0  0  0  0  0  0
  -30.5960  -14.6720   20.4240 C   0  0  0  0  0  0  0  0  0  0  0  0
  -30.3710  -12.4350   19.3620 C   0  0  0  0  0  2  0  0  0  0  0  0
  -29.4380  -12.5540   18.1360 C   0  0  0  0  0  2  0  0  0  0  0  0
  -27.9600  -12.4040   18.5490 C   0  0  0  0  0  2  0  0  0  0  0  0
  -27.5930  -13.2800   19.7760 C   0  0  0  0  0  3  0  0  0  0  0  0
  -28.6420  -13.1330   20.9010 C   0  0  0  0  0  2  0  0  0  0  0  0
  -29.9550  -13.4630   20.3330 N   0  0  0  0  0  0  0  0  0  0  0  0
  -31.7660  -14.8110   20.0640 O   0  0  0  0  0  0  0  0  0  0  0  0
  -29.8150  -15.7530   20.7420 N   0  0  0  0  0  0  0  0  0  0  0  0
  -28.8620  -15.5030   20.9710 H   0  0  0  0  0  0  0  0  0  0  0  0
  -25.2000  -13.9000   20.4760 C   0  0  0  0  0  0  0  0  0  0  0  0
  -24.1250  -13.1330   20.8480 C   0  0  0  0  0  0  0  0  0  0  0  0
  -24.5840  -11.7790   20.8330 C   0  0  0  0  0  0  0  0  0  0  0  0
  -26.2400  -13.0120   20.2550 N   0  0  0  0  0  0  0  0  0  0  0  0
  -25.8750  -11.7330   20.5310 N   0  0  0  0  0  0  0  0  0  0  0  0
  -23.8520  -10.5210   21.0250 C   0  0  0  0  0  0  0  0  0  0  0  0
  -24.2840   -9.5490   21.9550 C   0  0  0  0  0  3  0  0  0  0  0  0
  -23.5500   -8.3570   22.1390 C   0  0  0  0  0  3  0  0  0  0  0  0
  -22.3710   -8.1280   21.3920 C   0  0  0  0  0  0  0  0  0  0  0  0
  -21.9570   -9.0870   20.4510 C   0  0  0  0  0  3  0  0  0  0  0  0
  -22.6920  -10.2710   20.2650 C   0  0  0  0  0  3  0  0  0  0  0  0
  -21.6070   -6.9880   21.4850 O   0  0  0  0  0  0  0  0  0  0  0  0
  -21.5720   -6.2380   22.6330 C   0  0  0  0  0  0  0  0  0  0  0  0
  -21.1730   -6.7880   23.8700 C   0  0  0  0  0  3  0  0  0  0  0  0
  -21.0840   -5.9650   25.0110 C   0  0  0  0  0  3  0  0  0  0  0  0
  -21.3820   -4.5920   24.9140 C   0  0  0  0  0  0  0  0  0  0  0  0
  -21.7720   -4.0410   23.6810 C   0  0  0  0  0  3  0  0  0  0  0  0
  -21.8640   -4.8610   22.5430 C   0  0  0  0  0  0  0  0  0  0  0  0
  -22.2180   -4.3210   21.3530 F   0  0  0  0  0  0  0  0  0  0  0  0
  -21.2880   -3.8000   26.0080 F   0  0  0  0  0  0  0  0  0  0  0  0
  -22.7270  -13.6140   21.1080 C   0  0  0  0  0  0  0  0  0  0  0  0
  -21.9910  -12.9300   21.9810 N   0  0  0  0  0  0  0  0  0  0  0  0
  -22.2950  -14.6360   20.5740 O   0  0  0  0  0  0  0  0  0  0  0  0
  -22.3510  -12.1050   22.4400 H   0  0  0  0  0  0  0  0  0  0  0  0
  -21.0510  -13.2370   22.1910 H   0  0  0  0  0  0  0  0  0  0  0  0
  -25.3700  -15.2690   20.2880 N   0  0  0  0  0  0  0  0  0  0  0  0
  -24.6080  -15.9280   20.4110 H   0  0  0  0  0  0  0  0  0  0  0  0
  -26.2180  -15.7140   19.9560 H   0  0  0  0  0  0  0  0  0  0  0  0
  -29.3790  -24.1340   20.4010 C   0  0  0  0  0  3  0  0  0  0  0  0
  -28.1490  -25.0730   20.0550 C   0  0  0  0  0  3  0  0  0  0  0  0
  -28.3260  -26.5320   20.2500 O   0  0  0  0  0  0  0  0  0  0  0  0
  -24.6120  -31.9200   23.2640 C   0  0  0  0  0  0  0  0  0  0  0  0
  -27.1980  -27.3630   20.2020 C   0  0  0  0  0  0  0  0  0  0  0  0
  -23.3960  -30.5260   21.6300 C   0  0  0  0  0  3  0  0  0  0  0  0
  -24.8320  -28.9690   20.2010 C   0  0  0  0  0  0  0  0  0  0  0  0
  -25.9320  -30.8390   21.4290 C   0  0  0  0  0  2  0  0  0  0  0  0
  -26.0050  -29.4580   20.7900 C   0  0  0  0  0  0  0  0  0  0  0  0
  -27.1900  -28.6680   20.7810 C   0  0  0  0  0  3  0  0  0  0  0  0
  -26.0020  -26.9220   19.5880 C   0  0  0  0  0  3  0  0  0  0  0  0
  -24.8330  -27.7050   19.5880 C   0  0  0  0  0  3  0  0  0  0  0  0
  -23.6020  -29.8520   20.2460 C   0  0  0  0  0  2  0  0  0  0  0  0
  -24.6670  -31.1080   22.1670 N   0  0  0  0  0  0  0  0  0  0  0  0
  -23.5330  -32.2030   23.8030 O   0  0  0  0  0  0  0  0  0  0  0  0
  -22.7320  -29.5130   22.5920 C   0  0  0  0  0  0  0  0  0  0  0  0
  -21.4060  -29.3410   22.4690 N   0  0  0  0  0  0  0  0  0  0  0  0
  -23.4110  -28.8850   23.4110 O   0  0  0  0  0  0  0  0  0  0  0  0
  -20.9180  -29.9070   21.7890 H   0  0  0  0  0  0  0  0  0  0  0  0
  -18.0250  -28.1580   22.9650 C   0  0  0  0  0  0  0  0  0  0  0  0
  -20.5820  -28.4090   23.2410 C   0  0  0  0  0  3  0  0  0  0  0  0
  -20.6810  -26.9740   22.6740 C   0  0  0  0  0  2  0  0  0  0  0  0
  -19.5810  -26.6490   21.6580 C   0  0  0  0  0  2  0  0  0  0  0  0
  -18.1990  -26.8040   22.2990 C   0  0  0  0  0  2  0  0  0  0  0  0
  -19.1450  -28.9190   23.3940 C   0  0  0  0  0  0  0  0  0  0  0  0
  -18.9300  -30.1860   23.9770 C   0  0  0  0  0  3  0  0  0  0  0  0
  -17.6260  -30.6940   24.1360 C   0  0  0  0  0  3  0  0  0  0  0  0
  -16.5200  -29.9300   23.7250 C   0  0  0  0  0  3  0  0  0  0  0  0
  -16.7200  -28.6650   23.1450 C   0  0  0  0  0  3  0  0  0  0  0  0
  -25.9020  -32.5500   23.8780 C   0  0  0  0  0  3  0  0  0  0  0  0
  -25.5990  -33.9490   24.2090 N   0  0  0  0  0  0  0  0  0  0  0  0
  -25.9200  -35.0010   23.4420 C   0  0  0  0  0  0  0  0  0  0  0  0
  -26.5730  -34.8940   22.4010 O   0  0  0  0  0  0  0  0  0  0  0  0
  -25.0200  -34.1070   25.0190 H   0  0  0  0  0  0  0  0  0  0  0  0
  -24.1830  -36.7940   23.1190 C   0  0  0  0  0  1  0  0  0  0  0  0
  -25.4410  -36.3900   23.9030 C   0  0  0  0  0  3  0  0  0  0  0  0
  -27.5940  -37.2810   24.6820 C   0  0  0  0  0  1  0  0  0  0  0  0
  -26.4690  -37.4440   23.7650 N   0  0  0  0  0  0  0  0  0  0  0  0
  -26.0660  -38.3640   23.9210 H   0  0  0  0  0  0  0  0  0  0  0  0
  -26.4210  -31.7760   25.1530 C   0  0  1  0  0  0  0  0  0  0  0  0
  -25.3360  -31.5440   26.2300 C   0  0  0  0  0  1  0  0  0  0  0  0
  -26.9910  -30.3940   24.7560 C   0  0  0  0  0  1  0  0  0  0  0  0
  -27.5750  -32.5660   25.8130 C   0  0  0  0  0  1  0  0  0  0  0  0
  1  5  1  0
  2  1  2  0
  3  6  2  0
  3  2  1  0
  4 49  1  0
  4  5  2  0
  6  4  1  0
  7  8  1  0
  8  3  1  0
  9  2  1  0
  9 10  2  0
 11 19  1  0
 12 17  1  0
 13 14  1  0
 13 12  1  0
 15 14  1  0
 15 24  1  0
 15 16  1  0
 17 11  1  0
 17 16  1  0
 18 11  2  0
 19 10  1  0
 19 20  1  0
 21 22  2  0
 22 41  1  0
 23 22  1  0
 23 26  1  0
 24 21  1  0
 24 25  1  0
 25 23  2  0
 26 27  1  0
 27 28  2  0
 29 32  1  0
 29 28  1  0
 30 29  2  0
 31 30  1  0
 31 26  2  0
 32 33  1  0
 33 34  1  0
 34 35  2  0
 36 35  1  0
 36 40  1  0
 37 36  2  0
 38 33  2  0
 38 37  1  0
 39 38  1  0
 41 42  1  0
 42 45  1  0
 42 44  1  0
 43 41  2  0
 46 47  1  0
 46 21  1  0
 48 46  1  0
 50 51  1  0
 50 49  2  0
 52 63  2  0
 53 51  1  0
 53 58  1  0
 54 62  1  0
 54 64  1  0
 55 61  1  0
 55 57  1  0
 56 62  1  0
 57 56  1  0
 58 57  2  0
 59 53  2  0
 60 59  1  0
 60 55  2  0
 61 54  1  0
 62 52  1  0
 64 66  2  0
 65 64  1  0
 67 65  1  0
 68 77  2  0
 68 73  1  0
 69 65  1  0
 69 73  1  0
 70 69  1  0
 71 72  1  0
 71 70  1  0
 72 68  1  0
 73 74  2  0
 74 75  1  0
 76 75  2  0
 77 76  1  0
 78 52  1  0
 78 79  1  0
 78 88  1  0
 79 82  1  0
 80 84  1  0
 80 79  1  0
 81 80  2  0
 84 83  1  0
 86 84  1  0
 86 87  1  0
 86 85  1  0
 88 91  1  1
 88 89  1  0
 90 88  1  0
M  ISO  4  11 100  19 100  50 101  51 101
M  END
>  <TORSDO>  (33) 
F 21

>  <SCORE>  (33) 
-13.578

>  <name>  (33) 
32

>  <ligand_id>  (33) 
32

>  <original_smiles>  (33) 
[H]c1nc(C([H])([H])C([H])([H])Oc2c([H])c([H])c3c(c2[H])C([H])([H])N(C(=O)C([H])(N([H])C(=O)C([H])(N([H])C([H])([H])[H])C([H])([H])[H])C(C([H])([H])[H])(C([H])([H])[H])C([H])([H])[H])C([H])(C(=O)N([H])C2([H])c4c([H])c([H])c([H])c([H])c4C([H])([H])C([H])([H])C2([H])[H])C3([H])[H])nc(C([H])([H])C([H])([H])[H])c1C([H])([H])C([H])([H])N([H])C(=O)N1C([H])([H])C([H])([H])C([H])([H])C([H])(n2nc(-c3c([H])c([H])c(Oc4c([H])c([H])c(F)c([H])c4F)c([H])c3[H])c(C(=O)N([H])[H])c2N([H])[H])C1([H])[H]

>  <smiles>  (33) 
[H]c1nc(C([H])([H])C([H])([H])Oc2c([H])c([H])c3c(c2[H])C([H])([H])N(C(=O)C([H])(N([H])C(=O)C([H])(N([H])C([H])([H])[H])C([H])([H])[H])C(C([H])([H])[H])(C([H])([H])[H])C([H])([H])[H])C([H])(C(=O)N([H])C2([H])c4c([H])c([H])c([H])c([H])c4C([H])([H])C([H])([H])C2([H])[H])C3([H])[H])nc(C([H])([H])C([H])([H])[H])c1C([H])([H])C([H])([H])N([H])C(=O)N1C([H])([H])C([H])([H])C([H])([H])C([H])(n2nc(-c3c([H])c([H])c(Oc4c([H])c([H])c(F)c([H])c4F)c([H])c3[H])c(C(=O)N([H])[H])c2N([H])[H])C1([H])[H]

$$$$
33:0:0
     RDKit          3D

 89 97  0  0  1  0  0  0  0  0999 V2000
  -28.0850  -19.5750   20.1010 C   0  0  0  0  0  0  0  0  0  0  0  0
  -29.4100  -19.2700   20.3800 C   0  0  0  0  0  0  0  0  0  0  0  0
  -28.9430  -21.6560   20.3670 C   0  0  0  0  0  0  0  0  0  0  0  0
  -26.9810  -18.6090   19.8070 C   0  0  0  0  0  1  0  0  0  0  0  0
  -31.2920  -20.9100   20.9210 C   0  0  0  0  0  1  0  0  0  0  0  0
  -27.8160  -20.9800   20.1070 N   0  0  0  0  0  0  0  0  0  0  0  0
  -29.9130  -20.6410   20.5570 N   0  0  0  0  0  0  0  0  0  0  0  0
  -30.2820  -17.8450   20.4820 C   0  0  0  0  0  2  0  0  0  0  0  0
  -30.5730  -15.0960   20.3190 C   0  0  0  0  0  0  0  0  0  0  0  0
  -30.4490  -12.7550   19.3230 C   0  0  0  0  0  2  0  0  0  0  0  0
  -29.4980  -12.7110   18.1040 C   0  0  0  0  0  2  0  0  0  0  0  0
  -28.0450  -12.4750   18.5550 C   0  0  0  0  0  2  0  0  0  0  0  0
  -27.6480  -13.3690   19.7600 C   0  0  0  0  0  3  0  0  0  0  0  0
  -28.7220  -13.3810   20.8670 C   0  0  0  0  0  2  0  0  0  0  0  0
  -29.9700  -13.8340   20.2390 N   0  0  0  0  0  0  0  0  0  0  0  0
  -31.7770  -15.1380   20.0440 O   0  0  0  0  0  0  0  0  0  0  0  0
  -29.8260  -16.3120   20.4970 N   0  0  0  0  0  0  0  0  0  0  0  0
  -28.8420  -16.1680   20.6650 H   0  0  0  0  0  0  0  0  0  0  0  0
  -25.2770  -13.9040   20.5500 C   0  0  0  0  0  0  0  0  0  0  0  0
  -24.2270  -13.1130   20.9220 C   0  0  0  0  0  0  0  0  0  0  0  0
  -24.7040  -11.7680   20.8580 C   0  0  0  0  0  0  0  0  0  0  0  0
  -26.3240  -13.0420   20.2750 N   0  0  0  0  0  0  0  0  0  0  0  0
  -25.9910  -11.7490   20.5280 N   0  0  0  0  0  0  0  0  0  0  0  0
  -23.9900  -10.4960   21.0320 C   0  0  0  0  0  0  0  0  0  0  0  0
  -24.4120   -9.5340   21.9760 C   0  0  0  0  0  3  0  0  0  0  0  0
  -23.6960   -8.3290   22.1390 C   0  0  0  0  0  3  0  0  0  0  0  0
  -22.5440   -8.0750   21.3570 C   0  0  0  0  0  0  0  0  0  0  0  0
  -22.1420   -9.0260   20.4020 C   0  0  0  0  0  3  0  0  0  0  0  0
  -22.8580  -10.2230   20.2380 C   0  0  0  0  0  3  0  0  0  0  0  0
  -21.8020   -6.9210   21.4290 O   0  0  0  0  0  0  0  0  0  0  0  0
  -21.6920   -6.2070   22.5950 C   0  0  0  0  0  0  0  0  0  0  0  0
  -21.1170   -6.7640   23.7580 C   0  0  0  0  0  3  0  0  0  0  0  0
  -20.9600   -5.9730   24.9140 C   0  0  0  0  0  3  0  0  0  0  0  0
  -21.3680   -4.6250   24.9060 C   0  0  0  0  0  0  0  0  0  0  0  0
  -21.9360   -4.0680   23.7470 C   0  0  0  0  0  3  0  0  0  0  0  0
  -22.0950   -4.8570   22.5940 C   0  0  0  0  0  0  0  0  0  0  0  0
  -22.6220   -4.3080   21.4720 F   0  0  0  0  0  0  0  0  0  0  0  0
  -21.2110   -3.8630   26.0130 F   0  0  0  0  0  0  0  0  0  0  0  0
  -22.8290  -13.5730   21.2170 C   0  0  0  0  0  0  0  0  0  0  0  0
  -22.1180  -12.8570   22.0790 N   0  0  0  0  0  0  0  0  0  0  0  0
  -22.3780  -14.6040   20.7190 O   0  0  0  0  0  0  0  0  0  0  0  0
  -22.4950  -12.0230   22.5050 H   0  0  0  0  0  0  0  0  0  0  0  0
  -21.1800  -13.1460   22.3180 H   0  0  0  0  0  0  0  0  0  0  0  0
  -25.4250  -15.2790   20.3900 N   0  0  0  0  0  0  0  0  0  0  0  0
  -24.6440  -15.9140   20.5060 H   0  0  0  0  0  0  0  0  0  0  0  0
  -26.2360  -15.7150   19.9770 H   0  0  0  0  0  0  0  0  0  0  0  0
  -29.1090  -23.3080   20.5680 C   0  0  0  0  0  3  0  0  0  0  0  0
  -28.0850  -24.6120   20.1460 C   0  0  0  0  0  3  0  0  0  0  0  0
  -28.3070  -26.1600   20.3890 O   0  0  0  0  0  0  0  0  0  0  0  0
  -24.6190  -31.9040   23.2680 C   0  0  0  0  0  0  0  0  0  0  0  0
  -27.2580  -27.1630   20.2930 C   0  0  0  0  0  0  0  0  0  0  0  0
  -23.4560  -30.5100   21.6020 C   0  0  0  0  0  3  0  0  0  0  0  0
  -24.9350  -28.9320   20.2050 C   0  0  0  0  0  0  0  0  0  0  0  0
  -26.0150  -30.7680   21.4940 C   0  0  0  0  0  2  0  0  0  0  0  0
  -26.1020  -29.3720   20.8410 C   0  0  0  0  0  0  0  0  0  0  0  0
  -27.2640  -28.5050   20.8650 C   0  0  0  0  0  3  0  0  0  0  0  0
  -26.0650  -26.8320   19.6150 C   0  0  0  0  0  3  0  0  0  0  0  0
  -24.9330  -27.6770   19.5740 C   0  0  0  0  0  3  0  0  0  0  0  0
  -23.7080  -29.8320   20.2280 C   0  0  0  0  0  2  0  0  0  0  0  0
  -24.7150  -31.0830   22.1760 N   0  0  0  0  0  0  0  0  0  0  0  0
  -23.5210  -32.1890   23.7710 O   0  0  0  0  0  0  0  0  0  0  0  0
  -22.7530  -29.5050   22.5490 C   0  0  0  0  0  0  0  0  0  0  0  0
  -21.4280  -29.3360   22.3940 N   0  0  0  0  0  0  0  0  0  0  0  0
  -23.4060  -28.8790   23.3890 O   0  0  0  0  0  0  0  0  0  0  0  0
  -20.9580  -29.8920   21.6930 H   0  0  0  0  0  0  0  0  0  0  0  0
  -18.0270  -28.1770   22.8690 C   0  0  0  0  0  0  0  0  0  0  0  0
  -20.5900  -28.3980   23.1460 C   0  0  0  0  0  3  0  0  0  0  0  0
  -20.6710  -26.9750   22.5500 C   0  0  0  0  0  2  0  0  0  0  0  0
  -19.5670  -26.6850   21.5260 C   0  0  0  0  0  2  0  0  0  0  0  0
  -18.1870  -26.8380   22.1690 C   0  0  0  0  0  2  0  0  0  0  0  0
  -19.1550  -28.9170   23.3140 C   0  0  0  0  0  0  0  0  0  0  0  0
  -18.9500  -30.1700   23.9310 C   0  0  0  0  0  3  0  0  0  0  0  0
  -17.6510  -30.6850   24.1050 C   0  0  0  0  0  3  0  0  0  0  0  0
  -16.5390  -29.9420   23.6740 C   0  0  0  0  0  3  0  0  0  0  0  0
  -16.7270  -28.6900   23.0620 C   0  0  0  0  0  3  0  0  0  0  0  0
  -25.8810  -32.5410   23.9240 C   0  0  0  0  0  3  0  0  0  0  0  0
  -26.3490  -31.7860   25.2290 C   0  0  1  0  0  0  0  0  0  0  0  0
  -25.2160  -31.5600   26.2590 C   0  0  0  0  0  1  0  0  0  0  0  0
  -26.9450  -30.4030   24.8800 C   0  0  0  0  0  1  0  0  0  0  0  0
  -27.4750  -32.5880   25.9230 C   0  0  0  0  0  1  0  0  0  0  0  0
  -25.5670  -33.9460   24.2320 N   0  0  0  0  0  0  0  0  0  0  0  0
  -25.9010  -34.9920   23.4640 C   0  0  0  0  0  0  0  0  0  0  0  0
  -26.5690  -34.8750   22.4340 O   0  0  0  0  0  0  0  0  0  0  0  0
  -24.9710  -34.1090   25.0310 H   0  0  0  0  0  0  0  0  0  0  0  0
  -24.1720  -36.7840   23.0970 C   0  0  0  0  0  1  0  0  0  0  0  0
  -25.4180  -36.3880   23.9070 C   0  0  0  0  0  3  0  0  0  0  0  0
  -27.5470  -37.2960   24.7280 C   0  0  0  0  0  1  0  0  0  0  0  0
  -26.4500  -37.4390   23.7730 N   0  0  0  0  0  0  0  0  0  0  0  0
  -26.0420  -38.3620   23.8930 H   0  0  0  0  0  0  0  0  0  0  0  0
  1  6  1  0
  1  2  2  0
  2  8  1  0
  2  7  1  0
  3  7  1  0
  3 47  1  0
  4  1  1  0
  6  3  2  0
  7  5  1  0
  8 17  1  0
  9 17  1  0
 10 15  1  0
 11 12  1  0
 11 10  1  0
 13 12  1  0
 13 22  1  0
 13 14  1  0
 15  9  1  0
 15 14  1  0
 16  9  2  0
 17 18  1  0
 19 20  2  0
 20 39  1  0
 21 20  1  0
 21 24  1  0
 22 23  1  0
 22 19  1  0
 23 21  2  0
 24 25  1  0
 25 26  2  0
 27 30  1  0
 27 26  1  0
 28 27  2  0
 29 28  1  0
 29 24  2  0
 30 31  1  0
 31 32  1  0
 32 33  2  0
 34 33  1  0
 34 38  1  0
 35 34  2  0
 36 31  2  0
 36 35  1  0
 37 36  1  0
 39 40  1  0
 40 43  1  0
 40 42  1  0
 41 39  2  0
 44 45  1  0
 44 19  1  0
 46 44  1  0
 48 49  1  0
 48 47  2  0
 50 61  2  0
 51 49  1  0
 51 56  1  0
 52 60  1  0
 52 62  1  0
 53 59  1  0
 53 55  1  0
 54 60  1  0
 55 56  2  0
 55 54  1  0
 57 51  2  0
 58 57  1  0
 58 53  2  0
 59 52  1  0
 60 50  1  0
 62 64  2  0
 63 62  1  0
 65 63  1  0
 66 75  2  0
 66 71  1  0
 67 63  1  0
 67 71  1  0
 68 67  1  0
 69 70  1  0
 69 68  1  0
 70 66  1  0
 71 72  2  0
 72 73  1  0
 74 73  2  0
 75 74  1  0
 76 50  1  0
 76 81  1  0
 76 77  1  0
 77 80  1  1
 77 78  1  0
 79 77  1  0
 81 84  1  0
 82 86  1  0
 82 81  1  0
 83 82  2  0
 86 85  1  0
 88 89  1  0
 88 86  1  0
 88 87  1  0
M  ISO  4   9 100  17 100  48 101  49 101
M  END
>  <TORSDO>  (34) 
F 19

>  <SCORE>  (34) 
-15.025

>  <name>  (34) 
33

>  <ligand_id>  (34) 
33

>  <original_smiles>  (34) 
[H]c1c([H])c([H])c2c(c1[H])C([H])([H])C([H])([H])C([H])([H])C2([H])N([H])C(=O)C1([H])N(C(=O)C([H])(N([H])C(=O)C([H])(N([H])C([H])([H])[H])C([H])([H])[H])C(C([H])([H])[H])(C([H])([H])[H])C([H])([H])[H])C([H])([H])c2c([H])c(OC([H])([H])C([H])([H])c3nc(C([H])([H])[H])c(C([H])([H])N([H])C(=O)N4C([H])([H])C([H])([H])C([H])([H])C([H])(n5nc(-c6c([H])c([H])c(Oc7c([H])c([H])c(F)c([H])c7F)c([H])c6[H])c(C(=O)N([H])[H])c5N([H])[H])C4([H])[H])n3C([H])([H])[H])c([H])c([H])c2C1([H])[H]

>  <smiles>  (34) 
[H]c1c([H])c([H])c2c(c1[H])C([H])([H])C([H])([H])C([H])([H])C2([H])N([H])C(=O)C1([H])N(C(=O)C([H])(N([H])C(=O)C([H])(N([H])C([H])([H])[H])C([H])([H])[H])C(C([H])([H])[H])(C([H])([H])[H])C([H])([H])[H])C([H])([H])c2c([H])c(OC([H])([H])C([H])([H])c3nc(C([H])([H])[H])c(C([H])([H])N([H])C(=O)N4C([H])([H])C([H])([H])C([H])([H])C([H])(n5nc(-c6c([H])c([H])c(Oc7c([H])c([H])c(F)c([H])c7F)c([H])c6[H])c(C(=O)N([H])[H])c5N([H])[H])C4([H])[H])n3C([H])([H])[H])c([H])c([H])c2C1([H])[H]

$$$$
34:0:0
     RDKit          3D

 91 99  0  0  1  0  0  0  0  0999 V2000
  -27.1310  -22.0080   19.9080 C   0  0  0  0  0  3  0  0  0  0  0  0
  -28.5430  -21.9820   19.7240 C   0  0  0  0  0  0  0  0  0  0  0  0
  -28.8570  -20.6280   19.7430 C   0  0  0  0  0  0  0  0  0  0  0  0
  -27.4520  -18.5800   20.4230 C   0  0  0  0  0  1  0  0  0  0  0  0
  -26.6260  -20.8130   20.1470 N   0  0  0  0  0  0  0  0  0  0  0  0
  -27.6810  -19.9750   20.0940 N   0  0  0  0  0  0  0  0  0  0  0  0
  -29.4610  -23.1940   19.5700 C   0  0  0  0  0  2  0  0  0  0  0  0
  -28.8300  -24.6170   19.3290 C   0  0  0  0  0  2  0  0  0  0  0  0
  -28.3360  -25.4560   20.5520 C   0  0  0  0  0  2  0  0  0  0  0  0
  -28.5520  -26.9000   20.4460 O   0  0  0  0  0  0  0  0  0  0  0  0
  -24.7720  -32.1030   23.5970 C   0  0  0  0  0  0  0  0  0  0  0  0
  -27.4290  -27.7120   20.4160 C   0  0  0  0  0  0  0  0  0  0  0  0
  -23.6000  -30.7850   21.8680 C   0  0  0  0  0  3  0  0  0  0  0  0
  -25.0710  -29.2960   20.4120 C   0  0  0  0  0  0  0  0  0  0  0  0
  -26.1380  -31.1180   21.7470 C   0  0  0  0  0  2  0  0  0  0  0  0
  -26.2260  -29.7710   21.0490 C   0  0  0  0  0  0  0  0  0  0  0  0
  -27.4100  -28.9900   21.0400 C   0  0  0  0  0  3  0  0  0  0  0  0
  -26.2580  -27.2750   19.7560 C   0  0  0  0  0  3  0  0  0  0  0  0
  -25.0870  -28.0520   19.7570 C   0  0  0  0  0  3  0  0  0  0  0  0
  -23.8380  -30.1700   20.4650 C   0  0  0  0  0  2  0  0  0  0  0  0
  -24.8560  -31.3500   22.4620 N   0  0  0  0  0  0  0  0  0  0  0  0
  -23.6790  -32.3520   24.1260 O   0  0  0  0  0  0  0  0  0  0  0  0
  -22.9160  -29.7270   22.7670 C   0  0  0  0  0  0  0  0  0  0  0  0
  -21.5970  -29.5440   22.5860 N   0  0  0  0  0  0  0  0  0  0  0  0
  -23.5730  -29.0740   23.5810 O   0  0  0  0  0  0  0  0  0  0  0  0
  -21.1230  -30.1260   21.9100 H   0  0  0  0  0  0  0  0  0  0  0  0
  -18.2210  -28.2910   22.8990 C   0  0  0  0  0  0  0  0  0  0  0  0
  -20.7610  -28.5730   23.2940 C   0  0  0  0  0  3  0  0  0  0  0  0
  -20.9070  -27.1590   22.6840 C   0  0  0  0  0  2  0  0  0  0  0  0
  -19.8560  -26.8530   21.6110 C   0  0  0  0  0  2  0  0  0  0  0  0
  -18.4450  -26.9630   22.1960 C   0  0  0  0  0  2  0  0  0  0  0  0
  -19.3090  -29.0540   23.4010 C   0  0  0  0  0  0  0  0  0  0  0  0
  -19.0470  -30.2990   24.0140 C   0  0  0  0  0  3  0  0  0  0  0  0
  -17.7300  -30.7800   24.1330 C   0  0  0  0  0  3  0  0  0  0  0  0
  -16.6560  -30.0140   23.6480 C   0  0  0  0  0  3  0  0  0  0  0  0
  -16.9020  -28.7710   23.0370 C   0  0  0  0  0  3  0  0  0  0  0  0
  -26.0430  -32.7020   24.2740 C   0  0  0  0  0  3  0  0  0  0  0  0
  -25.7710  -34.1200   24.5540 N   0  0  0  0  0  0  0  0  0  0  0  0
  -26.1850  -35.1410   23.7900 C   0  0  0  0  0  0  0  0  0  0  0  0
  -26.9050  -34.9860   22.7990 O   0  0  0  0  0  0  0  0  0  0  0  0
  -25.1470  -34.3170   25.3220 H   0  0  0  0  0  0  0  0  0  0  0  0
  -24.5440  -36.9850   23.3020 C   0  0  0  0  0  1  0  0  0  0  0  0
  -25.7270  -36.5580   24.1860 C   0  0  0  0  0  3  0  0  0  0  0  0
  -27.8480  -37.3870   25.1030 C   0  0  0  0  0  1  0  0  0  0  0  0
  -26.8000  -37.5720   24.1040 N   0  0  0  0  0  0  0  0  0  0  0  0
  -26.4180  -38.5080   24.2140 H   0  0  0  0  0  0  0  0  0  0  0  0
  -26.4590  -31.9450   25.5950 C   0  0  1  0  0  0  0  0  0  0  0  0
  -25.2990  -31.7610   26.6000 C   0  0  0  0  0  1  0  0  0  0  0  0
  -27.0230  -30.5440   25.2640 C   0  0  0  0  0  1  0  0  0  0  0  0
  -27.5860  -32.7230   26.3140 C   0  0  0  0  0  1  0  0  0  0  0  0
  -30.1700  -19.8610   19.5750 C   0  0  0  0  0  2  0  0  0  0  0  0
  -30.0830  -18.3820   19.0590 C   0  0  0  0  0  2  0  0  0  0  0  0
  -31.2710  -17.4620   19.4830 C   0  0  0  0  0  2  0  0  0  0  0  0
  -31.6430  -14.9510   19.6110 C   0  0  0  0  0  0  0  0  0  0  0  0
  -31.3580  -12.5720   19.0220 C   0  0  0  0  0  2  0  0  0  0  0  0
  -30.3960  -12.4900   17.8170 C   0  0  0  0  0  2  0  0  0  0  0  0
  -28.9280  -12.4540   18.2900 C   0  0  0  0  0  2  0  0  0  0  0  0
  -28.6060  -13.5590   19.3320 C   0  0  0  0  0  3  0  0  0  0  0  0
  -29.6810  -13.6010   20.4410 C   0  0  0  0  0  2  0  0  0  0  0  0
  -30.9910  -13.7710   19.7910 N   0  0  0  0  0  0  0  0  0  0  0  0
  -32.7940  -15.0200   19.1680 O   0  0  0  0  0  0  0  0  0  0  0  0
  -30.8840  -16.0560   19.7540 N   0  0  0  0  0  0  0  0  0  0  0  0
  -29.9480  -15.8920   20.0910 H   0  0  0  0  0  0  0  0  0  0  0  0
  -26.3170  -14.3700   20.1870 C   0  0  0  0  0  0  0  0  0  0  0  0
  -25.2040  -13.6910   20.6060 C   0  0  0  0  0  0  0  0  0  0  0  0
  -25.5350  -12.3040   20.5310 C   0  0  0  0  0  0  0  0  0  0  0  0
  -27.2620  -13.4000   19.8860 N   0  0  0  0  0  0  0  0  0  0  0  0
  -26.7980  -12.1530   20.1500 N   0  0  0  0  0  0  0  0  0  0  0  0
  -24.7070  -11.1110   20.7410 C   0  0  0  0  0  0  0  0  0  0  0  0
  -25.0440  -10.1400   21.7120 C   0  0  0  0  0  3  0  0  0  0  0  0
  -24.2230   -9.0080   21.9070 C   0  0  0  0  0  3  0  0  0  0  0  0
  -23.0500   -8.8410   21.1340 C   0  0  0  0  0  0  0  0  0  0  0  0
  -22.7320   -9.7970   20.1530 C   0  0  0  0  0  3  0  0  0  0  0  0
  -23.5520  -10.9200   19.9550 C   0  0  0  0  0  3  0  0  0  0  0  0
  -22.2040   -7.7630   21.2400 O   0  0  0  0  0  0  0  0  0  0  0  0
  -21.9980   -7.1240   22.4370 C   0  0  0  0  0  0  0  0  0  0  0  0
  -21.4920   -7.8020   23.5680 C   0  0  0  0  0  3  0  0  0  0  0  0
  -21.2300   -7.0910   24.7570 C   0  0  0  0  0  3  0  0  0  0  0  0
  -21.4650   -5.7040   24.8140 C   0  0  0  0  0  0  0  0  0  0  0  0
  -21.9650   -5.0260   23.6890 C   0  0  0  0  0  3  0  0  0  0  0  0
  -22.2280   -5.7340   22.5020 C   0  0  0  0  0  0  0  0  0  0  0  0
  -22.6880   -5.0720   21.4130 F   0  0  0  0  0  0  0  0  0  0  0  0
  -21.2050   -5.0200   25.9530 F   0  0  0  0  0  0  0  0  0  0  0  0
  -23.8710  -14.2890   20.9600 C   0  0  0  0  0  0  0  0  0  0  0  0
  -23.1350  -13.6560   21.8660 N   0  0  0  0  0  0  0  0  0  0  0  0
  -23.4970  -15.3530   20.4680 O   0  0  0  0  0  0  0  0  0  0  0  0
  -23.4520  -12.7940   22.2840 H   0  0  0  0  0  0  0  0  0  0  0  0
  -22.2410  -14.0360   22.1450 H   0  0  0  0  0  0  0  0  0  0  0  0
  -26.5950  -15.7230   20.0130 N   0  0  0  0  0  0  0  0  0  0  0  0
  -25.8880  -16.4350   20.1550 H   0  0  0  0  0  0  0  0  0  0  0  0
  -27.4410  -16.0800   19.5890 H   0  0  0  0  0  0  0  0  0  0  0  0
  1  5  2  0
  2  3  2  0
  2  1  1  0
  3  6  1  0
  6  5  1  0
  6  4  1  0
  7  2  1  0
  8  7  1  0
  8  9  1  0
 10  9  1  0
 11 22  2  0
 12 10  1  0
 12 17  1  0
 13 21  1  0
 13 23  1  0
 14 20  1  0
 14 16  1  0
 15 21  1  0
 16 15  1  0
 17 16  2  0
 18 19  1  0
 18 12  2  0
 19 14  2  0
 20 13  1  0
 21 11  1  0
 23 25  2  0
 24 23  1  0
 26 24  1  0
 27 36  2  0
 27 32  1  0
 28 24  1  0
 28 32  1  0
 29 28  1  0
 30 31  1  0
 30 29  1  0
 31 27  1  0
 32 33  2  0
 33 34  1  0
 35 34  2  0
 36 35  1  0
 37 11  1  0
 37 38  1  0
 37 47  1  0
 38 41  1  0
 39 43  1  0
 39 38  1  0
 40 39  2  0
 43 42  1  0
 45 43  1  0
 45 46  1  0
 45 44  1  0
 47 50  1  1
 47 48  1  0
 49 47  1  0
 51  3  1  0
 52 53  1  0
 52 51  1  0
 53 62  1  0
 54 62  1  0
 54 60  1  0
 55 60  1  0
 56 57  1  0
 56 55  1  0
 58 57  1  0
 58 67  1  0
 58 59  1  0
 60 59  1  0
 61 54  2  0
 62 63  1  0
 64 65  2  0
 65 84  1  0
 66 65  1  0
 66 69  1  0
 67 68  1  0
 67 64  1  0
 68 66  2  0
 69 70  1  0
 70 71  2  0
 72 75  1  0
 72 71  1  0
 73 72  2  0
 74 73  1  0
 74 69  2  0
 75 76  1  0
 76 81  2  0
 76 77  1  0
 77 78  2  0
 78 79  1  0
 79 83  1  0
 80 79  2  0
 81 80  1  0
 82 81  1  0
 84 85  1  0
 85 88  1  0
 85 87  1  0
 86 84  2  0
 89 90  1  0
 89 64  1  0
 91 89  1  0
M  ISO  4   9 101  10 101  54 100  62 100
M  END
>  <TORSDO>  (35) 
F 22

>  <SCORE>  (35) 
-10.265

>  <name>  (35) 
34

>  <ligand_id>  (35) 
34

>  <original_smiles>  (35) 
[H]c1nn(C([H])([H])[H])c(C([H])([H])C([H])([H])C([H])([H])N([H])C(=O)N2C([H])([H])C([H])([H])C([H])([H])C([H])(n3nc(-c4c([H])c([H])c(Oc5c([H])c([H])c(F)c([H])c5F)c([H])c4[H])c(C(=O)N([H])[H])c3N([H])[H])C2([H])[H])c1C([H])([H])C([H])([H])C([H])([H])Oc1c([H])c([H])c2c(c1[H])C([H])([H])N(C(=O)C([H])(N([H])C(=O)C([H])(N([H])C([H])([H])[H])C([H])([H])[H])C(C([H])([H])[H])(C([H])([H])[H])C([H])([H])[H])C([H])(C(=O)N([H])C1([H])c3c([H])c([H])c([H])c([H])c3C([H])([H])C([H])([H])C1([H])[H])C2([H])[H]

>  <smiles>  (35) 
[H]c1nn(C([H])([H])[H])c(C([H])([H])C([H])([H])C([H])([H])N([H])C(=O)N2C([H])([H])C([H])([H])C([H])([H])C([H])(n3nc(-c4c([H])c([H])c(Oc5c([H])c([H])c(F)c([H])c5F)c([H])c4[H])c(C(=O)N([H])[H])c3N([H])[H])C2([H])[H])c1C([H])([H])C([H])([H])C([H])([H])Oc1c([H])c([H])c2c(c1[H])C([H])([H])N(C(=O)C([H])(N([H])C(=O)C([H])(N([H])C([H])([H])[H])C([H])([H])[H])C(C([H])([H])[H])(C([H])([H])[H])C([H])([H])[H])C([H])(C(=O)N([H])C1([H])c3c([H])c([H])c([H])c([H])c3C([H])([H])C([H])([H])C1([H])[H])C2([H])[H]

$$$$
35:0:0
     RDKit          3D

 90 98  0  0  1  0  0  0  0  0999 V2000
  -30.0580  -20.5220   19.8500 C   0  0  0  0  0  0  0  0  0  0  0  0
  -29.0820  -21.6350   19.7060 C   0  0  0  0  0  0  0  0  0  0  0  0
  -29.6960  -19.0930   19.6420 C   0  0  0  0  0  0  0  0  0  0  0  0
  -27.5700  -19.9320   19.2150 C   0  0  0  0  0  0  0  0  0  0  0  0
  -31.4810  -20.8770   20.2460 C   0  0  0  0  0  1  0  0  0  0  0  0
  -26.1350  -19.5870   18.8780 C   0  0  0  0  0  1  0  0  0  0  0  0
  -27.8310  -21.2340   19.4040 N   0  0  0  0  0  0  0  0  0  0  0  0
  -28.4100  -18.8950   19.3010 N   0  0  0  0  0  0  0  0  0  0  0  0
  -29.2530  -23.2540   20.0660 C   0  0  0  0  0  3  0  0  0  0  0  0
  -28.2460  -24.5560   19.6380 C   0  0  0  0  0  3  0  0  0  0  0  0
  -28.4440  -26.0880   19.9330 O   0  0  0  0  0  0  0  0  0  0  0  0
  -24.6080  -31.6330   22.9640 C   0  0  0  0  0  0  0  0  0  0  0  0
  -27.3640  -27.0510   19.8710 C   0  0  0  0  0  0  0  0  0  0  0  0
  -23.4770  -30.2490   21.2680 C   0  0  0  0  0  3  0  0  0  0  0  0
  -24.9920  -28.7470   19.8330 C   0  0  0  0  0  0  0  0  0  0  0  0
  -26.0260  -30.5800   21.1600 C   0  0  0  0  0  2  0  0  0  0  0  0
  -26.1490  -29.2060   20.4750 C   0  0  0  0  0  0  0  0  0  0  0  0
  -27.3350  -28.3770   20.4730 C   0  0  0  0  0  3  0  0  0  0  0  0
  -26.1770  -26.6970   19.1930 C   0  0  0  0  0  3  0  0  0  0  0  0
  -25.0200  -27.5060   19.1790 C   0  0  0  0  0  3  0  0  0  0  0  0
  -23.7420  -29.6120   19.8770 C   0  0  0  0  0  2  0  0  0  0  0  0
  -24.7220  -30.8420   21.8530 N   0  0  0  0  0  0  0  0  0  0  0  0
  -23.5050  -31.8760   23.4780 O   0  0  0  0  0  0  0  0  0  0  0  0
  -22.8050  -29.2010   22.1910 C   0  0  0  0  0  0  0  0  0  0  0  0
  -21.4760  -29.0370   22.0680 N   0  0  0  0  0  0  0  0  0  0  0  0
  -23.4830  -28.5410   22.9820 O   0  0  0  0  0  0  0  0  0  0  0  0
  -20.9840  -29.6200   21.4060 H   0  0  0  0  0  0  0  0  0  0  0  0
  -18.0900  -27.8580   22.5960 C   0  0  0  0  0  0  0  0  0  0  0  0
  -20.6600  -28.0680   22.8060 C   0  0  0  0  0  3  0  0  0  0  0  0
  -20.7220  -26.6700   22.1470 C   0  0  0  0  0  2  0  0  0  0  0  0
  -19.5890  -26.4240   21.1460 C   0  0  0  0  0  2  0  0  0  0  0  0
  -18.2270  -26.5500   21.8360 C   0  0  0  0  0  2  0  0  0  0  0  0
  -19.2320  -28.5790   23.0380 C   0  0  0  0  0  0  0  0  0  0  0  0
  -19.0480  -29.8040   23.7140 C   0  0  0  0  0  3  0  0  0  0  0  0
  -17.7560  -30.3100   23.9490 C   0  0  0  0  0  3  0  0  0  0  0  0
  -16.6290  -29.5870   23.5210 C   0  0  0  0  0  3  0  0  0  0  0  0
  -16.7970  -28.3620   22.8510 C   0  0  0  0  0  3  0  0  0  0  0  0
  -25.8560  -32.2860   23.6320 C   0  0  0  0  0  3  0  0  0  0  0  0
  -26.3690  -31.4910   24.8970 C   0  0  1  0  0  0  0  0  0  0  0  0
  -25.2620  -31.1990   25.9370 C   0  0  0  0  0  1  0  0  0  0  0  0
  -26.9920  -30.1390   24.4840 C   0  0  0  0  0  1  0  0  0  0  0  0
  -27.4890  -32.2950   25.6000 C   0  0  0  0  0  1  0  0  0  0  0  0
  -25.4980  -33.6640   24.0040 N   0  0  0  0  0  0  0  0  0  0  0  0
  -25.8200  -34.7550   23.2970 C   0  0  0  0  0  0  0  0  0  0  0  0
  -26.5180  -34.7090   22.2800 O   0  0  0  0  0  0  0  0  0  0  0  0
  -24.8790  -33.7720   24.7940 H   0  0  0  0  0  0  0  0  0  0  0  0
  -24.0550  -36.5200   22.9740 C   0  0  0  0  0  1  0  0  0  0  0  0
  -25.2880  -36.1130   23.7970 C   0  0  0  0  0  3  0  0  0  0  0  0
  -27.3780  -37.0220   24.7130 C   0  0  0  0  0  1  0  0  0  0  0  0
  -26.2950  -37.1950   23.7480 N   0  0  0  0  0  0  0  0  0  0  0  0
  -25.8620  -38.0990   23.9170 H   0  0  0  0  0  0  0  0  0  0  0  0
  -30.6450  -17.7230   19.7380 C   0  0  0  0  0  2  0  0  0  0  0  0
  -30.9180  -15.0100   19.9270 C   0  0  0  0  0  0  0  0  0  0  0  0
  -30.6720  -12.6530   18.9780 C   0  0  0  0  0  2  0  0  0  0  0  0
  -29.6950  -12.6170   17.7790 C   0  0  0  0  0  2  0  0  0  0  0  0
  -28.2410  -12.4540   18.2590 C   0  0  0  0  0  2  0  0  0  0  0  0
  -27.9080  -13.3970   19.4440 C   0  0  0  0  0  3  0  0  0  0  0  0
  -28.9990  -13.3470   20.5310 C   0  0  0  0  0  2  0  0  0  0  0  0
  -30.2600  -13.7670   19.8940 N   0  0  0  0  0  0  0  0  0  0  0  0
  -32.0650  -15.0180   19.4630 O   0  0  0  0  0  0  0  0  0  0  0  0
  -29.6090  -16.3370   21.5510 C   0  0  0  0  0  1  0  0  0  0  0  0
  -30.2660  -16.2560   20.2410 N   0  0  0  0  0  0  0  0  0  0  0  0
  -25.5930  -14.0750   20.2940 C   0  0  0  0  0  0  0  0  0  0  0  0
  -24.5070  -13.3450   20.6920 C   0  0  0  0  0  0  0  0  0  0  0  0
  -24.9010  -11.9730   20.6110 C   0  0  0  0  0  0  0  0  0  0  0  0
  -26.5780  -13.1530   19.9890 N   0  0  0  0  0  0  0  0  0  0  0  0
  -26.1750  -11.8800   20.2440 N   0  0  0  0  0  0  0  0  0  0  0  0
  -24.1190  -10.7450   20.8060 C   0  0  0  0  0  0  0  0  0  0  0  0
  -24.5150   -9.7570   21.7340 C   0  0  0  0  0  3  0  0  0  0  0  0
  -23.7360   -8.5940   21.9160 C   0  0  0  0  0  3  0  0  0  0  0  0
  -22.5460   -8.4120   21.1710 C   0  0  0  0  0  0  0  0  0  0  0  0
  -22.1710   -9.3890   20.2310 C   0  0  0  0  0  3  0  0  0  0  0  0
  -22.9490  -10.5420   20.0470 C   0  0  0  0  0  3  0  0  0  0  0  0
  -21.7410   -7.3030   21.2620 O   0  0  0  0  0  0  0  0  0  0  0  0
  -21.6210   -6.5940   22.4310 C   0  0  0  0  0  0  0  0  0  0  0  0
  -21.1740   -7.2000   23.6270 C   0  0  0  0  0  3  0  0  0  0  0  0
  -20.9990   -6.4200   24.7870 C   0  0  0  0  0  3  0  0  0  0  0  0
  -21.2590   -5.0360   24.7520 C   0  0  0  0  0  0  0  0  0  0  0  0
  -21.6990   -4.4310   23.5620 C   0  0  0  0  0  3  0  0  0  0  0  0
  -21.8760   -5.2090   22.4030 C   0  0  0  0  0  0  0  0  0  0  0  0
  -22.2780   -4.6160   21.2530 F   0  0  0  0  0  0  0  0  0  0  0  0
  -21.0850   -4.2850   25.8660 F   0  0  0  0  0  0  0  0  0  0  0  0
  -23.1490  -13.8850   21.0330 C   0  0  0  0  0  0  0  0  0  0  0  0
  -22.4350  -13.2230   21.9370 N   0  0  0  0  0  0  0  0  0  0  0  0
  -22.7320  -14.9280   20.5330 O   0  0  0  0  0  0  0  0  0  0  0  0
  -22.7850  -12.3800   22.3660 H   0  0  0  0  0  0  0  0  0  0  0  0
  -21.5250  -13.5680   22.2070 H   0  0  0  0  0  0  0  0  0  0  0  0
  -25.8190  -15.4400   20.1440 N   0  0  0  0  0  0  0  0  0  0  0  0
  -25.0970  -16.1290   20.3260 H   0  0  0  0  0  0  0  0  0  0  0  0
  -26.6860  -15.8510   19.8210 H   0  0  0  0  0  0  0  0  0  0  0  0
  1  5  1  0
  2  1  2  0
  2  9  1  0
  3 52  1  0
  3  1  1  0
  4  8  1  0
  4  7  2  0
  6  4  1  0
  7  2  1  0
  8  3  2  0
 10 11  1  0
 10  9  2  0
 12 23  2  0
 13 11  1  0
 13 18  1  0
 14 22  1  0
 14 24  1  0
 15 21  1  0
 15 17  1  0
 16 22  1  0
 17 16  1  0
 18 17  2  0
 19 13  2  0
 20 19  1  0
 20 15  2  0
 21 14  1  0
 22 12  1  0
 24 26  2  0
 25 24  1  0
 27 25  1  0
 28 37  2  0
 28 33  1  0
 29 25  1  0
 29 33  1  0
 30 29  1  0
 31 32  1  0
 31 30  1  0
 32 28  1  0
 33 34  2  0
 34 35  1  0
 36 35  2  0
 37 36  1  0
 38 12  1  0
 38 43  1  0
 38 39  1  0
 39 42  1  1
 39 40  1  0
 41 39  1  0
 43 46  1  0
 44 48  1  0
 44 43  1  0
 45 44  2  0
 48 47  1  0
 50 48  1  0
 50 51  1  0
 50 49  1  0
 52 62  1  0
 53 62  1  0
 54 59  1  0
 55 56  1  0
 55 54  1  0
 57 56  1  0
 57 66  1  0
 57 58  1  0
 59 53  1  0
 59 58  1  0
 60 53  2  0
 62 61  1  0
 63 64  2  0
 64 83  1  0
 65 64  1  0
 65 68  1  0
 66 67  1  0
 66 63  1  0
 67 65  2  0
 68 69  1  0
 69 70  2  0
 71 74  1  0
 71 70  1  0
 72 71  2  0
 73 72  1  0
 73 68  2  0
 74 75  1  0
 75 76  1  0
 76 77  2  0
 78 77  1  0
 78 82  1  0
 79 78  2  0
 80 75  2  0
 80 79  1  0
 81 80  1  0
 83 84  1  0
 84 87  1  0
 84 86  1  0
 85 83  2  0
 88 63  1  0
 88 89  1  0
 90 88  1  0
M  ISO  4  10 101  11 101  53 100  62 100
M  END
>  <TORSDO>  (36) 
F 19

>  <SCORE>  (36) 
-14.037

>  <name>  (36) 
35

>  <ligand_id>  (36) 
35

>  <original_smiles>  (36) 
[H]c1c([H])c([H])c2c(c1[H])C([H])([H])C([H])([H])C([H])([H])C2([H])N([H])C(=O)C1([H])N(C(=O)C([H])(N([H])C(=O)C([H])(N([H])C([H])([H])[H])C([H])([H])[H])C(C([H])([H])[H])(C([H])([H])[H])C([H])([H])[H])C([H])([H])c2c([H])c(OC([H])([H])C([H])([H])c3nc(C([H])([H])[H])nc(C([H])([H])N(C(=O)N4C([H])([H])C([H])([H])C([H])([H])C([H])(n5nc(-c6c([H])c([H])c(Oc7c([H])c([H])c(F)c([H])c7F)c([H])c6[H])c(C(=O)N([H])[H])c5N([H])[H])C4([H])[H])C([H])([H])[H])c3C([H])([H])[H])c([H])c([H])c2C1([H])[H]

>  <smiles>  (36) 
[H]c1c([H])c([H])c2c(c1[H])C([H])([H])C([H])([H])C([H])([H])C2([H])N([H])C(=O)C1([H])N(C(=O)C([H])(N([H])C(=O)C([H])(N([H])C([H])([H])[H])C([H])([H])[H])C(C([H])([H])[H])(C([H])([H])[H])C([H])([H])[H])C([H])([H])c2c([H])c(OC([H])([H])C([H])([H])c3nc(C([H])([H])[H])nc(C([H])([H])N(C(=O)N4C([H])([H])C([H])([H])C([H])([H])C([H])(n5nc(-c6c([H])c([H])c(Oc7c([H])c([H])c(F)c([H])c7F)c([H])c6[H])c(C(=O)N([H])[H])c5N([H])[H])C4([H])[H])C([H])([H])[H])c3C([H])([H])[H])c([H])c([H])c2C1([H])[H]

$$$$
36:0:0
     RDKit          3D

 87 95  0  0  1  0  0  0  0  0999 V2000
  -28.9210  -21.2880   19.4880 C   0  0  0  0  0  3  0  0  0  0  0  0
  -28.8450  -22.6830   20.1470 C   0  0  0  0  0  0  0  0  0  0  0  0
  -29.5630  -20.1770   20.2060 C   0  0  0  0  0  0  0  0  0  0  0  0
  -30.5820  -20.5500   22.5020 C   0  0  0  0  0  1  0  0  0  0  0  0
  -29.4460  -22.3440   21.3060 N   0  0  0  0  0  0  0  0  0  0  0  0
  -29.8590  -20.9870   21.3250 N   0  0  0  0  0  0  0  0  0  0  0  0
  -28.0190  -24.2590   19.8440 C   0  0  0  0  0  2  0  0  0  0  0  0
  -28.2640  -25.8930   20.1430 O   0  0  0  0  0  0  0  0  0  0  0  0
  -24.5910  -31.8480   23.1480 C   0  0  0  0  0  0  0  0  0  0  0  0
  -27.2550  -27.0180   20.0640 C   0  0  0  0  0  0  0  0  0  0  0  0
  -23.4280  -30.4370   21.5010 C   0  0  0  0  0  3  0  0  0  0  0  0
  -24.9130  -28.8810   20.0510 C   0  0  0  0  0  0  0  0  0  0  0  0
  -25.9920  -30.7000   21.3510 C   0  0  0  0  0  2  0  0  0  0  0  0
  -26.0940  -29.2950   20.6760 C   0  0  0  0  0  0  0  0  0  0  0  0
  -27.2550  -28.3850   20.6610 C   0  0  0  0  0  3  0  0  0  0  0  0
  -26.0400  -26.7810   19.3790 C   0  0  0  0  0  3  0  0  0  0  0  0
  -24.9150  -27.6480   19.3800 C   0  0  0  0  0  3  0  0  0  0  0  0
  -23.6710  -29.7740   20.1170 C   0  0  0  0  0  2  0  0  0  0  0  0
  -24.6920  -31.0240   22.0540 N   0  0  0  0  0  0  0  0  0  0  0  0
  -23.4970  -32.1040   23.6760 O   0  0  0  0  0  0  0  0  0  0  0  0
  -22.7620  -29.4170   22.4620 C   0  0  0  0  0  0  0  0  0  0  0  0
  -21.4430  -29.1860   22.3130 N   0  0  0  0  0  0  0  0  0  0  0  0
  -23.4400  -28.8320   23.3100 O   0  0  0  0  0  0  0  0  0  0  0  0
  -20.9460  -29.7100   21.6060 H   0  0  0  0  0  0  0  0  0  0  0  0
  -18.1280  -27.7690   22.7340 C   0  0  0  0  0  0  0  0  0  0  0  0
  -20.6550  -28.2110   23.0760 C   0  0  0  0  0  3  0  0  0  0  0  0
  -20.8690  -26.7780   22.5360 C   0  0  0  0  0  2  0  0  0  0  0  0
  -19.8270  -26.3630   21.4930 C   0  0  0  0  0  2  0  0  0  0  0  0
  -18.4170  -26.4240   22.0870 C   0  0  0  0  0  2  0  0  0  0  0  0
  -19.1770  -28.6140   23.1830 C   0  0  0  0  0  0  0  0  0  0  0  0
  -18.8510  -29.8660   23.7510 C   0  0  0  0  0  3  0  0  0  0  0  0
  -17.5100  -30.2750   23.8710 C   0  0  0  0  0  3  0  0  0  0  0  0
  -16.4750  -29.4300   23.4360 C   0  0  0  0  0  3  0  0  0  0  0  0
  -16.7840  -28.1780   22.8740 C   0  0  0  0  0  3  0  0  0  0  0  0
  -25.8460  -32.5210   23.7830 C   0  0  0  0  0  3  0  0  0  0  0  0
  -25.4950  -33.9130   24.1200 N   0  0  0  0  0  0  0  0  0  0  0  0
  -25.8000  -34.9850   23.3760 C   0  0  0  0  0  0  0  0  0  0  0  0
  -26.4670  -34.9080   22.3420 O   0  0  0  0  0  0  0  0  0  0  0  0
  -24.8980  -34.0430   24.9230 H   0  0  0  0  0  0  0  0  0  0  0  0
  -24.0290  -36.7490   23.0610 C   0  0  0  0  0  1  0  0  0  0  0  0
  -25.2870  -36.3610   23.8540 C   0  0  0  0  0  3  0  0  0  0  0  0
  -27.4060  -37.2930   24.6780 C   0  0  0  0  0  1  0  0  0  0  0  0
  -26.2950  -37.4380   23.7400 N   0  0  0  0  0  0  0  0  0  0  0  0
  -25.8680  -38.3480   23.8930 H   0  0  0  0  0  0  0  0  0  0  0  0
  -26.3660  -31.7690   25.0710 C   0  0  1  0  0  0  0  0  0  0  0  0
  -25.2690  -31.5170   26.1320 C   0  0  0  0  0  1  0  0  0  0  0  0
  -26.9810  -30.3990   24.7040 C   0  0  0  0  0  1  0  0  0  0  0  0
  -27.4960  -32.5900   25.7370 C   0  0  0  0  0  1  0  0  0  0  0  0
  -30.2050  -18.5310   19.8900 C   0  0  0  0  0  2  0  0  0  0  0  0
  -30.5980  -15.5760   20.1080 C   0  0  0  0  0  0  0  0  0  0  0  0
  -30.5540  -13.1000   19.2630 C   0  0  0  0  0  2  0  0  0  0  0  0
  -29.6230  -12.8510   18.0470 C   0  0  0  0  0  2  0  0  0  0  0  0
  -28.1840  -12.5750   18.5110 C   0  0  0  0  0  2  0  0  0  0  0  0
  -27.7440  -13.5550   19.6260 C   0  0  0  0  0  3  0  0  0  0  0  0
  -28.8050  -13.7420   20.7330 C   0  0  0  0  0  2  0  0  0  0  0  0
  -30.0180  -14.2630   20.0780 N   0  0  0  0  0  0  0  0  0  0  0  0
  -31.8090  -15.5330   19.8440 O   0  0  0  0  0  0  0  0  0  0  0  0
  -29.8810  -16.8960   20.2250 N   0  0  0  0  0  0  0  0  0  0  0  0
  -28.9080  -16.7560   20.4560 H   0  0  0  0  0  0  0  0  0  0  0  0
  -25.3940  -14.1250   20.4230 C   0  0  0  0  0  0  0  0  0  0  0  0
  -24.3310  -13.3570   20.8050 C   0  0  0  0  0  0  0  0  0  0  0  0
  -24.7840  -12.0020   20.7590 C   0  0  0  0  0  0  0  0  0  0  0  0
  -26.4240  -13.2430   20.1580 N   0  0  0  0  0  0  0  0  0  0  0  0
  -26.0710  -11.9580   20.4290 N   0  0  0  0  0  0  0  0  0  0  0  0
  -24.0460  -10.7460   20.9520 C   0  0  0  0  0  0  0  0  0  0  0  0
  -24.4550   -9.7860   21.9040 C   0  0  0  0  0  3  0  0  0  0  0  0
  -23.7150   -8.5990   22.0860 C   0  0  0  0  0  3  0  0  0  0  0  0
  -22.5500   -8.3620   21.3170 C   0  0  0  0  0  0  0  0  0  0  0  0
  -22.1600   -9.3110   20.3560 C   0  0  0  0  0  3  0  0  0  0  0  0
  -22.9020  -10.4900   20.1710 C   0  0  0  0  0  3  0  0  0  0  0  0
  -21.7830   -7.2250   21.4080 O   0  0  0  0  0  0  0  0  0  0  0  0
  -21.6720   -6.5240   22.5820 C   0  0  0  0  0  0  0  0  0  0  0  0
  -21.1640   -7.1150   23.7590 C   0  0  0  0  0  3  0  0  0  0  0  0
  -21.0020   -6.3380   24.9230 C   0  0  0  0  0  3  0  0  0  0  0  0
  -21.3390   -4.9720   24.9110 C   0  0  0  0  0  0  0  0  0  0  0  0
  -21.8390   -4.3800   23.7390 C   0  0  0  0  0  3  0  0  0  0  0  0
  -22.0020   -5.1540   22.5760 C   0  0  0  0  0  0  0  0  0  0  0  0
  -22.4660   -4.5730   21.4430 F   0  0  0  0  0  0  0  0  0  0  0  0
  -21.1760   -4.2240   26.0270 F   0  0  0  0  0  0  0  0  0  0  0  0
  -22.9430  -13.8470   21.0930 C   0  0  0  0  0  0  0  0  0  0  0  0
  -22.2240  -13.1660   21.9770 N   0  0  0  0  0  0  0  0  0  0  0  0
  -22.5060  -14.8710   20.5680 O   0  0  0  0  0  0  0  0  0  0  0  0
  -22.5910  -12.3400   22.4230 H   0  0  0  0  0  0  0  0  0  0  0  0
  -21.2920  -13.4790   22.2130 H   0  0  0  0  0  0  0  0  0  0  0  0
  -25.5660  -15.4960   20.2480 N   0  0  0  0  0  0  0  0  0  0  0  0
  -24.8020  -16.1530   20.3690 H   0  0  0  0  0  0  0  0  0  0  0  0
  -26.4000  -15.9250   19.8710 H   0  0  0  0  0  0  0  0  0  0  0  0
  1  2  1  0
  1  3  2  0
  2  5  2  0
  3  6  1  0
  5  6  1  0
  6  4  1  0
  7  8  1  0
  7  2  1  0
  9 20  2  0
 10  8  1  0
 10 15  1  0
 11 19  1  0
 11 21  1  0
 12 18  1  0
 12 14  1  0
 13 19  1  0
 14 13  1  0
 15 14  2  0
 16 17  1  0
 16 10  2  0
 17 12  2  0
 18 11  1  0
 19  9  1  0
 21 23  2  0
 22 21  1  0
 24 22  1  0
 25 34  2  0
 25 30  1  0
 26 22  1  0
 26 30  1  0
 27 26  1  0
 28 29  1  0
 28 27  1  0
 29 25  1  0
 30 31  2  0
 31 32  1  0
 33 32  2  0
 34 33  1  0
 35  9  1  0
 35 36  1  0
 35 45  1  0
 36 39  1  0
 37 41  1  0
 37 36  1  0
 38 37  2  0
 41 40  1  0
 43 41  1  0
 43 44  1  0
 43 42  1  0
 45 48  1  1
 45 46  1  0
 47 45  1  0
 49  3  1  0
 49 58  1  0
 50 58  1  0
 51 56  1  0
 52 53  1  0
 52 51  1  0
 54 53  1  0
 54 63  1  0
 54 55  1  0
 56 50  1  0
 56 55  1  0
 57 50  2  0
 58 59  1  0
 60 61  2  0
 61 80  1  0
 62 61  1  0
 62 65  1  0
 63 60  1  0
 63 64  1  0
 64 62  2  0
 65 66  1  0
 66 67  2  0
 68 71  1  0
 68 67  1  0
 69 68  2  0
 70 69  1  0
 70 65  2  0
 71 72  1  0
 72 73  1  0
 73 74  2  0
 75 74  1  0
 75 79  1  0
 76 75  2  0
 77 72  2  0
 77 76  1  0
 78 77  1  0
 80 81  1  0
 81 84  1  0
 81 83  1  0
 82 80  2  0
 85 86  1  0
 85 60  1  0
 87 85  1  0
M  ISO  4   7 101   8 101  50 100  58 100
M  END
>  <TORSDO>  (37) 
F 18

>  <SCORE>  (37) 
-16.357

>  <name>  (37) 
36

>  <ligand_id>  (37) 
36

>  <original_smiles>  (37) 
[H]c1c([H])c([H])c2c(c1[H])C([H])([H])C([H])([H])C([H])([H])C2([H])N([H])C(=O)C1([H])N(C(=O)C([H])(N([H])C(=O)C([H])(N([H])C([H])([H])[H])C([H])([H])[H])C(C([H])([H])[H])(C([H])([H])[H])C([H])([H])[H])C([H])([H])c2c([H])c(OC([H])([H])c3nn(C([H])([H])[H])c(C([H])([H])N([H])C(=O)N4C([H])([H])C([H])([H])C([H])([H])C([H])(n5nc(-c6c([H])c([H])c(Oc7c([H])c([H])c(F)c([H])c7F)c([H])c6[H])c(C(=O)N([H])[H])c5N([H])[H])C4([H])[H])c3[H])c([H])c([H])c2C1([H])[H]

>  <smiles>  (37) 
[H]c1c([H])c([H])c2c(c1[H])C([H])([H])C([H])([H])C([H])([H])C2([H])N([H])C(=O)C1([H])N(C(=O)C([H])(N([H])C(=O)C([H])(N([H])C([H])([H])[H])C([H])([H])[H])C(C([H])([H])[H])(C([H])([H])[H])C([H])([H])[H])C([H])([H])c2c([H])c(OC([H])([H])c3nn(C([H])([H])[H])c(C([H])([H])N([H])C(=O)N4C([H])([H])C([H])([H])C([H])([H])C([H])(n5nc(-c6c([H])c([H])c(Oc7c([H])c([H])c(F)c([H])c7F)c([H])c6[H])c(C(=O)N([H])[H])c5N([H])[H])C4([H])[H])c3[H])c([H])c([H])c2C1([H])[H]

$$$$
37:0:0
     RDKit          3D

 93101  0  0  1  0  0  0  0  0999 V2000
  -28.6820  -21.2050   20.4340 C   0  0  0  0  0  3  0  0  0  0  0  0
  -29.1600  -22.5500   20.1730 C   0  0  0  0  0  0  0  0  0  0  0  0
  -30.4860  -22.6200   19.6750 C   0  0  0  0  0  0  0  0  0  0  0  0
  -29.4920  -20.0340   20.1760 C   0  0  0  0  0  0  0  0  0  0  0  0
  -31.2010  -21.4230   19.4080 C   0  0  0  0  0  0  0  0  0  0  0  0
  -30.7160  -20.1830   19.6360 N   0  0  0  0  0  0  0  0  0  0  0  0
  -32.6090  -21.1940   17.3150 C   0  0  0  0  0  1  0  0  0  0  0  0
  -32.6060  -21.4500   18.8270 C   0  0  0  0  0  2  0  0  0  0  0  0
  -31.6740  -24.4080   20.6200 C   0  0  0  0  0  1  0  0  0  0  0  0
  -31.0990  -23.8280   19.4540 O   0  0  0  0  0  0  0  0  0  0  0  0
  -28.3680  -23.8850   20.5340 C   0  0  0  0  0  2  0  0  0  0  0  0
  -28.2990  -25.1380   19.5220 C   0  0  0  0  0  2  0  0  0  0  0  0
  -28.2380  -26.5440   20.0260 O   0  0  0  0  0  0  0  0  0  0  0  0
  -24.6160  -31.9150   23.1980 C   0  0  0  0  0  0  0  0  0  0  0  0
  -27.0960  -27.3630   20.0020 C   0  0  0  0  0  0  0  0  0  0  0  0
  -23.3500  -30.5460   21.5780 C   0  0  0  0  0  3  0  0  0  0  0  0
  -24.7420  -29.0000   20.0860 C   0  0  0  0  0  0  0  0  0  0  0  0
  -25.8840  -30.8470   21.3180 C   0  0  0  0  0  2  0  0  0  0  0  0
  -25.9300  -29.4730   20.6520 C   0  0  0  0  0  0  0  0  0  0  0  0
  -27.1060  -28.6660   20.5990 C   0  0  0  0  0  3  0  0  0  0  0  0
  -25.8780  -26.9390   19.4250 C   0  0  0  0  0  3  0  0  0  0  0  0
  -24.7180  -27.7400   19.4650 C   0  0  0  0  0  3  0  0  0  0  0  0
  -23.5140  -29.8840   20.1840 C   0  0  0  0  0  2  0  0  0  0  0  0
  -24.6380  -31.1200   22.0880 N   0  0  0  0  0  0  0  0  0  0  0  0
  -23.5510  -32.1930   23.7690 O   0  0  0  0  0  0  0  0  0  0  0  0
  -22.7100  -29.5240   22.5480 C   0  0  0  0  0  0  0  0  0  0  0  0
  -21.3820  -29.3400   22.4430 N   0  0  0  0  0  0  0  0  0  0  0  0
  -23.4050  -28.8990   23.3520 O   0  0  0  0  0  0  0  0  0  0  0  0
  -20.8790  -29.8980   21.7670 H   0  0  0  0  0  0  0  0  0  0  0  0
  -18.0240  -28.1030   22.9750 C   0  0  0  0  0  0  0  0  0  0  0  0
  -20.5810  -28.3950   23.2240 C   0  0  0  0  0  3  0  0  0  0  0  0
  -20.6970  -26.9630   22.6510 C   0  0  0  0  0  2  0  0  0  0  0  0
  -19.5910  -26.6230   21.6470 C   0  0  0  0  0  2  0  0  0  0  0  0
  -18.2130  -26.7530   22.3030 C   0  0  0  0  0  2  0  0  0  0  0  0
  -19.1370  -28.8800   23.3930 C   0  0  0  0  0  0  0  0  0  0  0  0
  -18.9070  -30.1420   23.9830 C   0  0  0  0  0  3  0  0  0  0  0  0
  -17.5980  -30.6270   24.1570 C   0  0  0  0  0  3  0  0  0  0  0  0
  -16.5000  -29.8470   23.7550 C   0  0  0  0  0  3  0  0  0  0  0  0
  -16.7140  -28.5860   23.1700 C   0  0  0  0  0  3  0  0  0  0  0  0
  -25.9210  -32.5300   23.7890 C   0  0  0  0  0  3  0  0  0  0  0  0
  -25.6310  -33.9260   24.1510 N   0  0  0  0  0  0  0  0  0  0  0  0
  -25.9460  -34.9890   23.3980 C   0  0  0  0  0  0  0  0  0  0  0  0
  -26.5800  -34.8980   22.3430 O   0  0  0  0  0  0  0  0  0  0  0  0
  -25.0630  -34.0700   24.9710 H   0  0  0  0  0  0  0  0  0  0  0  0
  -24.2330  -36.8100   23.1140 C   0  0  0  0  0  1  0  0  0  0  0  0
  -25.4840  -36.3740   23.8930 C   0  0  0  0  0  3  0  0  0  0  0  0
  -27.6410  -37.2230   24.7050 C   0  0  0  0  0  1  0  0  0  0  0  0
  -26.5280  -37.4170   23.7800 N   0  0  0  0  0  0  0  0  0  0  0  0
  -26.1340  -38.3400   23.9450 H   0  0  0  0  0  0  0  0  0  0  0  0
  -26.4710  -31.7370   25.0390 C   0  0  1  0  0  0  0  0  0  0  0  0
  -25.4100  -31.4910   26.1360 C   0  0  0  0  0  1  0  0  0  0  0  0
  -27.0320  -30.3620   24.6110 C   0  0  0  0  0  1  0  0  0  0  0  0
  -27.6470  -32.5140   25.6750 C   0  0  0  0  0  1  0  0  0  0  0  0
  -29.0490  -18.5240   20.3970 C   0  0  0  0  0  3  0  0  0  0  0  0
  -30.1690  -17.3580   20.4470 C   0  0  0  0  0  3  0  0  0  0  0  0
  -30.5330  -14.7780   20.2670 C   0  0  0  0  0  0  0  0  0  0  0  0
  -30.3160  -12.5210   19.2360 C   0  0  0  0  0  2  0  0  0  0  0  0
  -29.3440  -12.6140   18.0390 C   0  0  0  0  0  2  0  0  0  0  0  0
  -27.8860  -12.4340   18.5070 C   0  0  0  0  0  2  0  0  0  0  0  0
  -27.5440  -13.3010   19.7470 C   0  0  0  0  0  3  0  0  0  0  0  0
  -28.6310  -13.1990   20.8370 C   0  0  0  0  0  2  0  0  0  0  0  0
  -29.9120  -13.5550   20.2130 N   0  0  0  0  0  0  0  0  0  0  0  0
  -31.7030  -14.9010   19.8950 O   0  0  0  0  0  0  0  0  0  0  0  0
  -29.7610  -15.8910   20.5340 N   0  0  0  0  0  0  0  0  0  0  0  0
  -28.8030  -15.7040   20.7900 H   0  0  0  0  0  0  0  0  0  0  0  0
  -25.1730  -13.8700   20.5520 C   0  0  0  0  0  0  0  0  0  0  0  0
  -24.1240  -13.0850   20.9400 C   0  0  0  0  0  0  0  0  0  0  0  0
  -24.5900  -11.7370   20.8700 C   0  0  0  0  0  0  0  0  0  0  0  0
  -26.2140  -13.0000   20.2690 N   0  0  0  0  0  0  0  0  0  0  0  0
  -25.8710  -11.7110   20.5210 N   0  0  0  0  0  0  0  0  0  0  0  0
  -23.8750  -10.4680   21.0570 C   0  0  0  0  0  0  0  0  0  0  0  0
  -24.3240   -9.4950   21.9770 C   0  0  0  0  0  3  0  0  0  0  0  0
  -23.6070   -8.2920   22.1530 C   0  0  0  0  0  3  0  0  0  0  0  0
  -22.4280   -8.0510   21.4070 C   0  0  0  0  0  0  0  0  0  0  0  0
  -22.0000   -9.0130   20.4750 C   0  0  0  0  0  3  0  0  0  0  0  0
  -22.7160  -10.2080   20.2970 C   0  0  0  0  0  3  0  0  0  0  0  0
  -21.6830   -6.9010   21.4930 O   0  0  0  0  0  0  0  0  0  0  0  0
  -21.6260   -6.1650   22.6490 C   0  0  0  0  0  0  0  0  0  0  0  0
  -21.1390   -6.7110   23.8570 C   0  0  0  0  0  3  0  0  0  0  0  0
  -21.0320   -5.8980   25.0030 C   0  0  0  0  0  3  0  0  0  0  0  0
  -21.4030   -4.5420   24.9440 C   0  0  0  0  0  0  0  0  0  0  0  0
  -21.8840   -3.9950   23.7410 C   0  0  0  0  0  3  0  0  0  0  0  0
  -21.9920   -4.8040   22.5960 C   0  0  0  0  0  0  0  0  0  0  0  0
  -22.4370   -4.2670   21.4340 F   0  0  0  0  0  0  0  0  0  0  0  0
  -21.2940   -3.7610   26.0430 F   0  0  0  0  0  0  0  0  0  0  0  0
  -22.7320  -13.5510   21.2590 C   0  0  0  0  0  0  0  0  0  0  0  0
  -22.0320  -12.8340   22.1300 N   0  0  0  0  0  0  0  0  0  0  0  0
  -22.2760  -14.5850   20.7720 O   0  0  0  0  0  0  0  0  0  0  0  0
  -22.4140  -11.9960   22.5450 H   0  0  0  0  0  0  0  0  0  0  0  0
  -21.0990  -13.1250   22.3860 H   0  0  0  0  0  0  0  0  0  0  0  0
  -25.3240  -15.2460   20.3940 N   0  0  0  0  0  0  0  0  0  0  0  0
  -24.5490  -15.8870   20.5250 H   0  0  0  0  0  0  0  0  0  0  0  0
  -26.1440  -15.6950   20.0070 H   0  0  0  0  0  0  0  0  0  0  0  0
  2  1  2  0
  2 11  1  0
  3  2  1  0
  4 54  1  0
  4  1  1  0
  5  6  1  0
  5  3  2  0
  6  4  2  0
  7  8  1  0
  8  5  1  0
 10  3  1  0
 10  9  1  0
 12 13  1  0
 12 11  1  0
 14 25  2  0
 15 13  1  0
 15 20  1  0
 16 24  1  0
 16 26  1  0
 17 23  1  0
 17 19  1  0
 18 24  1  0
 19 18  1  0
 20 19  2  0
 21 22  1  0
 21 15  2  0
 22 17  2  0
 23 16  1  0
 24 14  1  0
 26 28  2  0
 27 26  1  0
 29 27  1  0
 30 39  2  0
 30 35  1  0
 31 27  1  0
 31 35  1  0
 32 31  1  0
 33 34  1  0
 33 32  1  0
 34 30  1  0
 35 36  2  0
 36 37  1  0
 38 37  2  0
 39 38  1  0
 40 14  1  0
 40 41  1  0
 40 50  1  0
 41 44  1  0
 42 46  1  0
 42 41  1  0
 43 42  2  0
 46 45  1  0
 48 46  1  0
 48 49  1  0
 48 47  1  0
 50 53  1  1
 50 51  1  0
 52 50  1  0
 54 55  2  0
 55 64  1  0
 56 64  1  0
 57 62  1  0
 58 59  1  0
 58 57  1  0
 60 59  1  0
 60 69  1  0
 60 61  1  0
 62 56  1  0
 62 61  1  0
 63 56  2  0
 64 65  1  0
 66 67  2  0
 67 86  1  0
 68 67  1  0
 68 71  1  0
 69 70  1  0
 69 66  1  0
 70 68  2  0
 71 72  1  0
 72 73  2  0
 74 77  1  0
 74 73  1  0
 75 74  2  0
 76 75  1  0
 76 71  2  0
 77 78  1  0
 78 79  1  0
 79 80  2  0
 81 80  1  0
 81 85  1  0
 82 81  2  0
 83 78  2  0
 83 82  1  0
 84 83  1  0
 86 87  1  0
 87 90  1  0
 87 89  1  0
 88 86  2  0
 91 92  1  0
 91 66  1  0
 93 91  1  0
M  ISO  4  12 101  13 101  56 100  64 100
M  END
>  <TORSDO>  (38) 
F 22

>  <SCORE>  (38) 
-13.060

>  <name>  (38) 
37

>  <ligand_id>  (38) 
37

>  <original_smiles>  (38) 
[H]c1c([H])c([H])c2c(c1[H])C([H])([H])C([H])([H])C([H])([H])C2([H])N([H])C(=O)C1([H])N(C(=O)C([H])(N([H])C(=O)C([H])(N([H])C([H])([H])[H])C([H])([H])[H])C(C([H])([H])[H])(C([H])([H])[H])C([H])([H])[H])C([H])([H])c2c([H])c(OC([H])([H])C([H])([H])c3c([H])c(C([H])([H])C([H])([H])N([H])C(=O)N4C([H])([H])C([H])([H])C([H])([H])C([H])(n5nc(-c6c([H])c([H])c(Oc7c([H])c([H])c(F)c([H])c7F)c([H])c6[H])c(C(=O)N([H])[H])c5N([H])[H])C4([H])[H])nc(C([H])([H])C([H])([H])[H])c3OC([H])([H])[H])c([H])c([H])c2C1([H])[H]

>  <smiles>  (38) 
[H]c1c([H])c([H])c2c(c1[H])C([H])([H])C([H])([H])C([H])([H])C2([H])N([H])C(=O)C1([H])N(C(=O)C([H])(N([H])C(=O)C([H])(N([H])C([H])([H])[H])C([H])([H])[H])C(C([H])([H])[H])(C([H])([H])[H])C([H])([H])[H])C([H])([H])c2c([H])c(OC([H])([H])C([H])([H])c3c([H])c(C([H])([H])C([H])([H])N([H])C(=O)N4C([H])([H])C([H])([H])C([H])([H])C([H])(n5nc(-c6c([H])c([H])c(Oc7c([H])c([H])c(F)c([H])c7F)c([H])c6[H])c(C(=O)N([H])[H])c5N([H])[H])C4([H])[H])nc(C([H])([H])C([H])([H])[H])c3OC([H])([H])[H])c([H])c([H])c2C1([H])[H]

$$$$
38:0:0
     RDKit          3D

 90 98  0  0  1  0  0  0  0  0999 V2000
  -30.4210  -21.9720   20.2360 C   0  0  0  0  0  3  0  0  0  0  0  0
  -28.1290  -20.5220   20.3480 C   0  0  0  0  0  3  0  0  0  0  0  0
  -30.5220  -20.5640   20.4400 C   0  0  0  0  0  0  0  0  0  0  0  0
  -29.3330  -19.7780   20.4900 C   0  0  0  0  0  0  0  0  0  0  0  0
  -29.1670  -22.6160   20.0830 C   0  0  0  0  0  0  0  0  0  0  0  0
  -31.9010  -19.9470   20.5900 C   0  0  0  0  0  1  0  0  0  0  0  0
  -28.0390  -21.8670   20.1410 N   0  0  0  0  0  0  0  0  0  0  0  0
  -29.2180  -18.2280   20.7630 C   0  0  0  0  0  3  0  0  0  0  0  0
  -30.3010  -17.1590   20.3070 C   0  0  0  0  0  3  0  0  0  0  0  0
  -30.6330  -14.6270   20.1100 C   0  0  0  0  0  0  0  0  0  0  0  0
  -30.3250  -12.4230   19.0140 C   0  0  0  0  0  2  0  0  0  0  0  0
  -29.3380  -12.5920   17.8380 C   0  0  0  0  0  2  0  0  0  0  0  0
  -27.8830  -12.4370   18.3220 C   0  0  0  0  0  2  0  0  0  0  0  0
  -27.5840  -13.2740   19.5950 C   0  0  0  0  0  3  0  0  0  0  0  0
  -28.6870  -13.1000   20.6630 C   0  0  0  0  0  2  0  0  0  0  0  0
  -29.9740  -13.4290   20.0350 N   0  0  0  0  0  0  0  0  0  0  0  0
  -31.7730  -14.7640   19.6590 O   0  0  0  0  0  0  0  0  0  0  0  0
  -29.9120  -15.7190   20.5000 N   0  0  0  0  0  0  0  0  0  0  0  0
  -28.9830  -15.5360   20.8470 H   0  0  0  0  0  0  0  0  0  0  0  0
  -25.2200  -13.8610   20.4100 C   0  0  0  0  0  0  0  0  0  0  0  0
  -24.1710  -13.0820   20.8180 C   0  0  0  0  0  0  0  0  0  0  0  0
  -24.6350  -11.7320   20.7610 C   0  0  0  0  0  0  0  0  0  0  0  0
  -26.2560  -12.9840   20.1300 N   0  0  0  0  0  0  0  0  0  0  0  0
  -25.9110  -11.6980   20.4010 N   0  0  0  0  0  0  0  0  0  0  0  0
  -23.9200  -10.4670   20.9690 C   0  0  0  0  0  0  0  0  0  0  0  0
  -24.3750   -9.5060   21.8970 C   0  0  0  0  0  3  0  0  0  0  0  0
  -23.6610   -8.3060   22.0940 C   0  0  0  0  0  3  0  0  0  0  0  0
  -22.4760   -8.0580   21.3640 C   0  0  0  0  0  0  0  0  0  0  0  0
  -22.0380   -9.0060   20.4220 C   0  0  0  0  0  3  0  0  0  0  0  0
  -22.7540  -10.1980   20.2230 C   0  0  0  0  0  3  0  0  0  0  0  0
  -21.7290   -6.9080   21.4700 O   0  0  0  0  0  0  0  0  0  0  0  0
  -21.6960   -6.1790   22.6310 C   0  0  0  0  0  0  0  0  0  0  0  0
  -21.2490   -6.7350   23.8490 C   0  0  0  0  0  3  0  0  0  0  0  0
  -21.1650   -5.9290   25.0030 C   0  0  0  0  0  3  0  0  0  0  0  0
  -21.5160   -4.5680   24.9380 C   0  0  0  0  0  0  0  0  0  0  0  0
  -21.9540   -4.0100   23.7240 C   0  0  0  0  0  3  0  0  0  0  0  0
  -22.0410   -4.8120   22.5740 C   0  0  0  0  0  0  0  0  0  0  0  0
  -22.4440   -4.2660   21.4010 F   0  0  0  0  0  0  0  0  0  0  0  0
  -21.4260   -3.7910   26.0430 F   0  0  0  0  0  0  0  0  0  0  0  0
  -22.7860  -13.5540   21.1490 C   0  0  0  0  0  0  0  0  0  0  0  0
  -22.0950  -12.8460   22.0360 N   0  0  0  0  0  0  0  0  0  0  0  0
  -22.3250  -14.5820   20.6560 O   0  0  0  0  0  0  0  0  0  0  0  0
  -22.4870  -12.0150   22.4550 H   0  0  0  0  0  0  0  0  0  0  0  0
  -21.1620  -13.1340   22.2950 H   0  0  0  0  0  0  0  0  0  0  0  0
  -25.3750  -15.2310   20.2290 N   0  0  0  0  0  0  0  0  0  0  0  0
  -24.5990  -15.8770   20.3350 H   0  0  0  0  0  0  0  0  0  0  0  0
  -26.1890  -15.6590   19.8060 H   0  0  0  0  0  0  0  0  0  0  0  0
  -29.0470  -24.1260   19.6560 C   0  0  0  0  0  3  0  0  0  0  0  0
  -28.3550  -25.1880   20.6000 C   0  0  0  0  0  3  0  0  0  0  0  0
  -28.4470  -26.6030   20.1900 O   0  0  0  0  0  0  0  0  0  0  0  0
  -24.5920  -31.8800   23.2060 C   0  0  0  0  0  0  0  0  0  0  0  0
  -27.2900  -27.3850   20.1770 C   0  0  0  0  0  0  0  0  0  0  0  0
  -23.4200  -30.4810   21.5380 C   0  0  0  0  0  3  0  0  0  0  0  0
  -24.9000  -28.9400   20.1350 C   0  0  0  0  0  0  0  0  0  0  0  0
  -25.9540  -30.8300   21.3880 C   0  0  0  0  0  2  0  0  0  0  0  0
  -26.0530  -29.4530   20.7460 C   0  0  0  0  0  0  0  0  0  0  0  0
  -27.2520  -28.6890   20.7500 C   0  0  0  0  0  3  0  0  0  0  0  0
  -26.1180  -26.9070   19.5520 C   0  0  0  0  0  3  0  0  0  0  0  0
  -24.9320  -27.6720   19.5280 C   0  0  0  0  0  3  0  0  0  0  0  0
  -23.6560  -29.8030   20.1620 C   0  0  0  0  0  2  0  0  0  0  0  0
  -24.6730  -31.0800   22.1010 N   0  0  0  0  0  0  0  0  0  0  0  0
  -23.5000  -32.1450   23.7270 O   0  0  0  0  0  0  0  0  0  0  0  0
  -22.7500  -29.4610   22.4890 C   0  0  0  0  0  0  0  0  0  0  0  0
  -21.4220  -29.2940   22.3580 N   0  0  0  0  0  0  0  0  0  0  0  0
  -23.4220  -28.8200   23.2990 O   0  0  0  0  0  0  0  0  0  0  0  0
  -20.9400  -29.8590   21.6740 H   0  0  0  0  0  0  0  0  0  0  0  0
  -18.0280  -28.1510   22.8590 C   0  0  0  0  0  0  0  0  0  0  0  0
  -20.5940  -28.3560   23.1150 C   0  0  0  0  0  3  0  0  0  0  0  0
  -20.6640  -26.9350   22.5060 C   0  0  0  0  0  2  0  0  0  0  0  0
  -19.5490  -26.6560   21.4950 C   0  0  0  0  0  2  0  0  0  0  0  0
  -18.1750  -26.8140   22.1510 C   0  0  0  0  0  2  0  0  0  0  0  0
  -19.1650  -28.8820   23.2960 C   0  0  0  0  0  0  0  0  0  0  0  0
  -18.9730  -30.1360   23.9170 C   0  0  0  0  0  3  0  0  0  0  0  0
  -17.6790  -30.6550   24.1060 C   0  0  0  0  0  3  0  0  0  0  0  0
  -16.5570  -29.9210   23.6840 C   0  0  0  0  0  3  0  0  0  0  0  0
  -16.7340  -28.6700   23.0640 C   0  0  0  0  0  3  0  0  0  0  0  0
  -25.8620  -32.5160   23.8520 C   0  0  0  0  0  3  0  0  0  0  0  0
  -26.3510  -31.7490   25.1430 C   0  0  1  0  0  0  0  0  0  0  0  0
  -25.2360  -31.5160   26.1880 C   0  0  0  0  0  1  0  0  0  0  0  0
  -26.9400  -30.3720   24.7640 C   0  0  0  0  0  1  0  0  0  0  0  0
  -27.4880  -32.5440   25.8260 C   0  0  0  0  0  1  0  0  0  0  0  0
  -25.5470  -33.9150   24.1710 N   0  0  0  0  0  0  0  0  0  0  0  0
  -25.8950  -34.9670   23.4160 C   0  0  0  0  0  0  0  0  0  0  0  0
  -26.5850  -34.8580   22.3990 O   0  0  0  0  0  0  0  0  0  0  0  0
  -24.9400  -34.0720   24.9620 H   0  0  0  0  0  0  0  0  0  0  0  0
  -24.1810  -36.7620   23.0150 C   0  0  0  0  0  1  0  0  0  0  0  0
  -25.4010  -36.3560   23.8590 C   0  0  0  0  0  3  0  0  0  0  0  0
  -27.5110  -37.2400   24.7470 C   0  0  0  0  0  1  0  0  0  0  0  0
  -26.4370  -37.4080   23.7720 N   0  0  0  0  0  0  0  0  0  0  0  0
  -26.0300  -38.3300   23.9010 H   0  0  0  0  0  0  0  0  0  0  0  0
  1  3  1  0
  2  4  1  0
  3  4  2  0
  3  6  1  0
  4  8  1  0
  5  7  1  0
  5  1  2  0
  7  2  2  0
  9 18  1  0
  9  8  2  0
 10 18  1  0
 11 16  1  0
 12 13  1  0
 12 11  1  0
 14 13  1  0
 14 23  1  0
 14 15  1  0
 16 10  1  0
 16 15  1  0
 17 10  2  0
 18 19  1  0
 20 21  2  0
 21 40  1  0
 22 21  1  0
 22 25  1  0
 23 24  1  0
 23 20  1  0
 24 22  2  0
 25 26  1  0
 26 27  2  0
 28 31  1  0
 28 27  1  0
 29 28  2  0
 30 29  1  0
 30 25  2  0
 31 32  1  0
 32 33  1  0
 33 34  2  0
 35 34  1  0
 35 39  1  0
 36 35  2  0
 37 32  2  0
 37 36  1  0
 38 37  1  0
 40 41  1  0
 41 44  1  0
 41 43  1  0
 42 40  2  0
 45 46  1  0
 45 20  1  0
 47 45  1  0
 48  5  1  0
 48 49  2  0
 50 49  1  0
 51 62  2  0
 52 50  1  0
 52 57  1  0
 53 61  1  0
 53 63  1  0
 54 60  1  0
 54 56  1  0
 55 61  1  0
 56 57  2  0
 56 55  1  0
 58 52  2  0
 59 58  1  0
 59 54  2  0
 60 53  1  0
 61 51  1  0
 63 65  2  0
 64 63  1  0
 66 64  1  0
 67 76  2  0
 67 72  1  0
 68 64  1  0
 68 72  1  0
 69 68  1  0
 70 71  1  0
 70 69  1  0
 71 67  1  0
 72 73  2  0
 73 74  1  0
 75 74  2  0
 76 75  1  0
 77 51  1  0
 77 82  1  0
 77 78  1  0
 78 81  1  1
 78 79  1  0
 80 78  1  0
 82 85  1  0
 83 87  1  0
 83 82  1  0
 84 83  2  0
 87 86  1  0
 89 87  1  0
 89 90  1  0
 89 88  1  0
M  ISO  4  10 100  18 100  49 101  50 101
M  END
>  <TORSDO>  (39) 
F 20

>  <SCORE>  (39) 
-13.817

>  <name>  (39) 
38

>  <ligand_id>  (39) 
38

>  <original_smiles>  (39) 
[H]c1nc(C([H])([H])C([H])([H])Oc2c([H])c([H])c3c(c2[H])C([H])([H])N(C(=O)C([H])(N([H])C(=O)C([H])(N([H])C([H])([H])[H])C([H])([H])[H])C(C([H])([H])[H])(C([H])([H])[H])C([H])([H])[H])C([H])(C(=O)N([H])C2([H])c4c([H])c([H])c([H])c([H])c4C([H])([H])C([H])([H])C2([H])[H])C3([H])[H])c([H])c(C([H])([H])[H])c1C([H])([H])C([H])([H])N([H])C(=O)N1C([H])([H])C([H])([H])C([H])([H])C([H])(n2nc(-c3c([H])c([H])c(Oc4c([H])c([H])c(F)c([H])c4F)c([H])c3[H])c(C(=O)N([H])[H])c2N([H])[H])C1([H])[H]

>  <smiles>  (39) 
[H]c1nc(C([H])([H])C([H])([H])Oc2c([H])c([H])c3c(c2[H])C([H])([H])N(C(=O)C([H])(N([H])C(=O)C([H])(N([H])C([H])([H])[H])C([H])([H])[H])C(C([H])([H])[H])(C([H])([H])[H])C([H])([H])[H])C([H])(C(=O)N([H])C2([H])c4c([H])c([H])c([H])c([H])c4C([H])([H])C([H])([H])C2([H])[H])C3([H])[H])c([H])c(C([H])([H])[H])c1C([H])([H])C([H])([H])N([H])C(=O)N1C([H])([H])C([H])([H])C([H])([H])C([H])(n2nc(-c3c([H])c([H])c(Oc4c([H])c([H])c(F)c([H])c4F)c([H])c3[H])c(C(=O)N([H])[H])c2N([H])[H])C1([H])[H]

$$$$
39:0:0
     RDKit          3D

 97105  0  0  1  0  0  0  0  0999 V2000
  -29.3770  -24.5190   15.8330 C   0  0  0  0  0  0  0  0  0  0  0  0
  -28.9990  -25.8070   16.2790 C   0  0  0  0  0  0  0  0  0  0  0  0
  -29.1280  -23.6800   17.9900 C   0  0  0  0  0  0  0  0  0  0  0  0
  -28.7900  -24.9920   18.4420 C   0  0  0  0  0  0  0  0  0  0  0  0
  -29.7220  -24.2330   14.3820 C   0  0  0  0  0  1  0  0  0  0  0  0
  -28.9100  -27.0100   15.3560 C   0  0  0  0  0  1  0  0  0  0  0  0
  -29.4390  -23.4650   16.6850 N   0  0  0  0  0  0  0  0  0  0  0  0
  -28.7230  -26.0390   17.5780 N   0  0  0  0  0  0  0  0  0  0  0  0
  -29.0780  -22.4170   18.8650 C   0  0  0  0  0  3  0  0  0  0  0  0
  -30.4410  -21.8730   19.3740 C   0  0  0  0  0  3  0  0  0  0  0  0
  -30.4360  -20.5030   19.9920 N   0  0  0  0  0  4  0  0  0  0  0  0
  -30.7140  -20.5970   20.9550 H   0  0  0  0  0  0  0  0  0  0  0  0
  -31.1770  -19.9880   19.5420 H   0  0  0  0  0  0  0  0  0  0  0  0
  -29.2040  -19.6600   19.9240 C   0  0  0  0  0  2  0  0  0  0  0  0
  -29.1150  -18.5440   21.0080 C   0  0  0  0  0  2  0  0  0  0  0  0
  -30.0980  -17.3580   20.8270 C   0  0  0  0  0  2  0  0  0  0  0  0
  -29.6790  -16.0350   21.5270 C   0  0  0  0  0  2  0  0  0  0  0  0
  -30.9040  -14.2640   20.2450 C   0  0  0  0  0  0  0  0  0  0  0  0
  -30.4120  -12.2440   18.9020 C   0  0  0  0  0  2  0  0  0  0  0  0
  -29.4090  -12.5160   17.7640 C   0  0  0  0  0  2  0  0  0  0  0  0
  -27.9570  -12.4040   18.2700 C   0  0  0  0  0  2  0  0  0  0  0  0
  -27.7240  -13.1950   19.5840 C   0  0  0  0  0  3  0  0  0  0  0  0
  -28.8210  -12.8800   20.6250 C   0  0  0  0  0  2  0  0  0  0  0  0
  -30.1290  -13.1720   20.0120 N   0  0  0  0  0  0  0  0  0  0  0  0
  -31.9060  -14.5230   19.5740 O   0  0  0  0  0  0  0  0  0  0  0  0
  -30.6700  -14.9540   21.3750 N   0  0  0  0  0  0  0  0  0  0  0  0
  -31.5370  -15.1950   21.8410 H   0  0  0  0  0  0  0  0  0  0  0  0
  -25.3650  -13.8350   20.3810 C   0  0  0  0  0  0  0  0  0  0  0  0
  -24.3020  -13.0740   20.7950 C   0  0  0  0  0  0  0  0  0  0  0  0
  -24.7450  -11.7170   20.7450 C   0  0  0  0  0  0  0  0  0  0  0  0
  -26.3880  -12.9360   20.1180 N   0  0  0  0  0  0  0  0  0  0  0  0
  -26.0180  -11.6570   20.3870 N   0  0  0  0  0  0  0  0  0  0  0  0
  -24.0110  -10.4620   20.9590 C   0  0  0  0  0  0  0  0  0  0  0  0
  -24.4500   -9.4910   21.8840 C   0  0  0  0  0  3  0  0  0  0  0  0
  -23.7080   -8.3070   22.0830 C   0  0  0  0  0  3  0  0  0  0  0  0
  -22.5120   -8.0880   21.3560 C   0  0  0  0  0  0  0  0  0  0  0  0
  -22.0960   -9.0480   20.4180 C   0  0  0  0  0  3  0  0  0  0  0  0
  -22.8410  -10.2220   20.2150 C   0  0  0  0  0  3  0  0  0  0  0  0
  -21.7410   -6.9540   21.4680 O   0  0  0  0  0  0  0  0  0  0  0  0
  -21.6880   -6.2290   22.6320 C   0  0  0  0  0  0  0  0  0  0  0  0
  -21.2920   -6.8100   23.8580 C   0  0  0  0  0  3  0  0  0  0  0  0
  -21.1850   -6.0140   25.0150 C   0  0  0  0  0  3  0  0  0  0  0  0
  -21.4670   -4.6340   24.9500 C   0  0  0  0  0  0  0  0  0  0  0  0
  -21.8570   -4.0540   23.7320 C   0  0  0  0  0  3  0  0  0  0  0  0
  -21.9630   -4.8460   22.5750 C   0  0  0  0  0  0  0  0  0  0  0  0
  -22.3170   -4.2750   21.3980 F   0  0  0  0  0  0  0  0  0  0  0  0
  -21.3610   -3.8680   26.0590 F   0  0  0  0  0  0  0  0  0  0  0  0
  -22.9260  -13.5720   21.1240 C   0  0  0  0  0  0  0  0  0  0  0  0
  -22.2280  -12.8920   22.0280 N   0  0  0  0  0  0  0  0  0  0  0  0
  -22.4800  -14.6030   20.6210 O   0  0  0  0  0  0  0  0  0  0  0  0
  -22.5990  -12.0540   22.4490 H   0  0  0  0  0  0  0  0  0  0  0  0
  -21.3090  -13.2120   22.2920 H   0  0  0  0  0  0  0  0  0  0  0  0
  -25.5440  -15.2010   20.1860 N   0  0  0  0  0  0  0  0  0  0  0  0
  -24.8080  -15.8820   20.3330 H   0  0  0  0  0  0  0  0  0  0  0  0
  -26.3850  -15.6090   19.8000 H   0  0  0  0  0  0  0  0  0  0  0  0
  -28.5190  -25.3250   19.9050 C   0  0  0  0  0  2  0  0  0  0  0  0
  -28.4880  -26.7360   20.1670 O   0  0  0  0  0  0  0  0  0  0  0  0
  -24.6430  -31.8380   23.1820 C   0  0  0  0  0  0  0  0  0  0  0  0
  -27.2900  -27.4170   20.1120 C   0  0  0  0  0  0  0  0  0  0  0  0
  -23.4350  -30.4240   21.5490 C   0  0  0  0  0  3  0  0  0  0  0  0
  -24.8910  -28.9070   20.1160 C   0  0  0  0  0  0  0  0  0  0  0  0
  -25.9540  -30.8130   21.3300 C   0  0  0  0  0  2  0  0  0  0  0  0
  -26.0470  -29.4410   20.6960 C   0  0  0  0  0  0  0  0  0  0  0  0
  -27.2470  -28.7020   20.6870 C   0  0  0  0  0  3  0  0  0  0  0  0
  -26.1180  -26.8900   19.5200 C   0  0  0  0  0  3  0  0  0  0  0  0
  -24.9220  -27.6340   19.5220 C   0  0  0  0  0  3  0  0  0  0  0  0
  -23.6400  -29.7480   20.1670 C   0  0  0  0  0  2  0  0  0  0  0  0
  -24.6960  -31.0370   22.0790 N   0  0  0  0  0  0  0  0  0  0  0  0
  -23.5660  -32.1030   23.7300 O   0  0  0  0  0  0  0  0  0  0  0  0
  -22.7940  -29.3980   22.5130 C   0  0  0  0  0  0  0  0  0  0  0  0
  -21.4650  -29.2300   22.4080 N   0  0  0  0  0  0  0  0  0  0  0  0
  -23.4850  -28.7570   23.3090 O   0  0  0  0  0  0  0  0  0  0  0  0
  -20.9730  -29.7930   21.7300 H   0  0  0  0  0  0  0  0  0  0  0  0
  -18.0820  -28.0730   22.9400 C   0  0  0  0  0  0  0  0  0  0  0  0
  -20.6470  -28.2980   23.1850 C   0  0  0  0  0  3  0  0  0  0  0  0
  -20.7300  -26.8720   22.5920 C   0  0  0  0  0  2  0  0  0  0  0  0
  -19.6110  -26.5710   21.5910 C   0  0  0  0  0  2  0  0  0  0  0  0
  -18.2380  -26.7250   22.2530 C   0  0  0  0  0  2  0  0  0  0  0  0
  -19.2160  -28.8180   23.3620 C   0  0  0  0  0  0  0  0  0  0  0  0
  -19.0210  -30.0810   23.9640 C   0  0  0  0  0  3  0  0  0  0  0  0
  -17.7250  -30.6000   24.1460 C   0  0  0  0  0  3  0  0  0  0  0  0
  -16.6060  -29.8480   23.7470 C   0  0  0  0  0  3  0  0  0  0  0  0
  -16.7850  -28.5870   23.1490 C   0  0  0  0  0  3  0  0  0  0  0  0
  -25.9300  -32.4730   23.7950 C   0  0  0  0  0  3  0  0  0  0  0  0
  -25.6150  -33.8620   24.1550 N   0  0  0  0  0  0  0  0  0  0  0  0
  -25.9260  -34.9270   23.4080 C   0  0  0  0  0  0  0  0  0  0  0  0
  -26.5780  -34.8490   22.3630 O   0  0  0  0  0  0  0  0  0  0  0  0
  -25.0310  -34.0010   24.9660 H   0  0  0  0  0  0  0  0  0  0  0  0
  -24.1640  -36.6970   23.1210 C   0  0  0  0  0  1  0  0  0  0  0  0
  -25.4300  -36.3020   23.8980 C   0  0  0  0  0  3  0  0  0  0  0  0
  -27.5690  -37.1960   24.6910 C   0  0  0  0  0  1  0  0  0  0  0  0
  -26.4430  -37.3730   23.7800 N   0  0  0  0  0  0  0  0  0  0  0  0
  -26.0290  -38.2820   23.9650 H   0  0  0  0  0  0  0  0  0  0  0  0
  -26.4830  -31.6810   25.0430 C   0  0  1  0  0  0  0  0  0  0  0  0
  -25.4120  -31.4070   26.1260 C   0  0  0  0  0  1  0  0  0  0  0  0
  -27.0680  -30.3190   24.6010 C   0  0  0  0  0  1  0  0  0  0  0  0
  -27.6470  -32.4690   25.6920 C   0  0  0  0  0  1  0  0  0  0  0  0
  1  2  2  0
  1  7  1  0
  2  8  1  0
  3  4  1  0
  3  9  1  0
  4 56  1  0
  5  1  1  0
  6  2  1  0
  7  3  2  0
  8  4  2  0
  9 10  2  0
 10 11  1  0
 11 12  1  0
 13 11  1  0
 14 11  1  0
 14 15  1  0
 16 15  1  0
 16 17  1  0
 18 26  1  0
 19 24  1  0
 20 21  1  0
 20 19  1  0
 22 21  1  0
 22 31  1  0
 22 23  1  0
 24 18  1  0
 24 23  1  0
 25 18  2  0
 26 17  1  0
 26 27  1  0
 28 29  2  0
 29 48  1  0
 30 29  1  0
 30 33  1  0
 31 28  1  0
 31 32  1  0
 32 30  2  0
 33 34  1  0
 34 35  2  0
 36 39  1  0
 36 35  1  0
 37 36  2  0
 38 37  1  0
 38 33  2  0
 39 40  1  0
 40 41  1  0
 41 42  2  0
 43 42  1  0
 43 47  1  0
 44 43  2  0
 45 40  2  0
 45 44  1  0
 46 45  1  0
 48 49  1  0
 49 52  1  0
 49 51  1  0
 50 48  2  0
 53 54  1  0
 53 28  1  0
 55 53  1  0
 56 57  1  0
 58 69  2  0
 59 57  1  0
 59 64  1  0
 60 68  1  0
 60 70  1  0
 61 67  1  0
 61 63  1  0
 62 68  1  0
 63 62  1  0
 64 63  2  0
 65 66  1  0
 65 59  2  0
 66 61  2  0
 67 60  1  0
 68 58  1  0
 70 72  2  0
 71 70  1  0
 73 71  1  0
 74 83  2  0
 74 79  1  0
 75 71  1  0
 75 79  1  0
 76 75  1  0
 77 78  1  0
 77 76  1  0
 78 74  1  0
 79 80  2  0
 80 81  1  0
 82 81  2  0
 83 82  1  0
 84 58  1  0
 84 85  1  0
 84 94  1  0
 85 88  1  0
 86 90  1  0
 86 85  1  0
 87 86  2  0
 90 89  1  0
 92 90  1  0
 92 93  1  0
 92 91  1  0
 94 97  1  1
 94 95  1  0
 96 94  1  0
M  ISO  4  18 100  26 100  56 101  57 101
M  END
>  <TORSDO>  (40) 
F 24

>  <SCORE>  (40) 
-12.118

>  <name>  (40) 
39

>  <ligand_id>  (40) 
39

>  <original_smiles>  (40) 
[H]c1c([H])c([H])c2c(c1[H])C([H])([H])C([H])([H])C([H])([H])C2([H])N([H])C(=O)C1([H])N(C(=O)C([H])(N([H])C(=O)C([H])(N([H])C([H])([H])[H])C([H])([H])[H])C(C([H])([H])[H])(C([H])([H])[H])C([H])([H])[H])C([H])([H])c2c([H])c(OC([H])([H])c3nc(C([H])([H])[H])c(C([H])([H])[H])nc3C([H])([H])C([H])([H])[N+]([H])([H])C([H])([H])C([H])([H])C([H])([H])C([H])([H])N([H])C(=O)N3C([H])([H])C([H])([H])C([H])([H])C([H])(n4nc(-c5c([H])c([H])c(Oc6c([H])c([H])c(F)c([H])c6F)c([H])c5[H])c(C(=O)N([H])[H])c4N([H])[H])C3([H])[H])c([H])c([H])c2C1([H])[H]

>  <smiles>  (40) 
[H]c1c([H])c([H])c2c(c1[H])C([H])([H])C([H])([H])C([H])([H])C2([H])N([H])C(=O)C1([H])N(C(=O)C([H])(N([H])C(=O)C([H])(N([H])C([H])([H])[H])C([H])([H])[H])C(C([H])([H])[H])(C([H])([H])[H])C([H])([H])[H])C([H])([H])c2c([H])c(OC([H])([H])c3nc(C([H])([H])[H])c(C([H])([H])[H])nc3C([H])([H])C([H])([H])[N+]([H])([H])C([H])([H])C([H])([H])C([H])([H])C([H])([H])N([H])C(=O)N3C([H])([H])C([H])([H])C([H])([H])C([H])(n4nc(-c5c([H])c([H])c(Oc6c([H])c([H])c(F)c([H])c6F)c([H])c5[H])c(C(=O)N([H])[H])c4N([H])[H])C3([H])[H])c([H])c([H])c2C1([H])[H]

$$$$
40:0:0
     RDKit          3D

 92100  0  0  1  0  0  0  0  0999 V2000
  -30.1800  -22.5060   19.5570 C   0  0  0  0  0  3  0  0  0  0  0  0
  -30.2090  -21.1280   19.8410 C   0  0  0  0  0  3  0  0  0  0  0  0
  -28.9770  -23.2290   19.7140 C   0  0  0  0  0  0  0  0  0  0  0  0
  -29.0380  -20.4950   20.3010 C   0  0  0  0  0  0  0  0  0  0  0  0
  -27.8490  -22.5190   20.1950 C   0  0  0  0  0  0  0  0  0  0  0  0
  -27.9010  -21.2000   20.5020 N   0  0  0  0  0  0  0  0  0  0  0  0
  -25.4450  -22.7210   19.3680 C   0  0  0  0  0  1  0  0  0  0  0  0
  -26.4840  -23.1660   20.4080 C   0  0  0  0  0  2  0  0  0  0  0  0
  -28.9330  -24.7090   19.2920 C   0  0  0  0  0  2  0  0  0  0  0  0
  -28.8260  -25.7460   20.4400 C   0  0  0  0  0  2  0  0  0  0  0  0
  -28.7100  -27.0870   19.9440 O   0  0  0  0  0  0  0  0  0  0  0  0
  -24.5580  -31.8560   23.2060 C   0  0  0  0  0  0  0  0  0  0  0  0
  -27.4720  -27.6940   19.9990 C   0  0  0  0  0  0  0  0  0  0  0  0
  -23.4380  -30.4500   21.5050 C   0  0  0  0  0  3  0  0  0  0  0  0
  -24.9850  -29.0430   20.0440 C   0  0  0  0  0  0  0  0  0  0  0  0
  -25.9380  -30.9630   21.3320 C   0  0  0  0  0  2  0  0  0  0  0  0
  -26.1090  -29.6230   20.6480 C   0  0  0  0  0  0  0  0  0  0  0  0
  -27.3550  -28.9600   20.6120 C   0  0  0  0  0  3  0  0  0  0  0  0
  -26.3280  -27.1110   19.4110 C   0  0  0  0  0  3  0  0  0  0  0  0
  -25.0880  -27.7860   19.4270 C   0  0  0  0  0  3  0  0  0  0  0  0
  -23.6930  -29.8280   20.1050 C   0  0  0  0  0  2  0  0  0  0  0  0
  -24.6620  -31.1020   22.0740 N   0  0  0  0  0  0  0  0  0  0  0  0
  -23.4620  -32.0480   23.7510 O   0  0  0  0  0  0  0  0  0  0  0  0
  -22.8400  -29.3640   22.4240 C   0  0  0  0  0  0  0  0  0  0  0  0
  -21.5270  -29.1200   22.2880 N   0  0  0  0  0  0  0  0  0  0  0  0
  -23.5550  -28.7410   23.2130 O   0  0  0  0  0  0  0  0  0  0  0  0
  -21.0110  -29.6770   21.6220 H   0  0  0  0  0  0  0  0  0  0  0  0
  -18.2140  -27.7550   22.7430 C   0  0  0  0  0  0  0  0  0  0  0  0
  -20.7580  -28.1130   23.0190 C   0  0  0  0  0  3  0  0  0  0  0  0
  -20.9210  -26.7170   22.3780 C   0  0  0  0  0  2  0  0  0  0  0  0
  -19.8300  -26.3920   21.3530 C   0  0  0  0  0  2  0  0  0  0  0  0
  -18.4460  -26.4470   22.0060 C   0  0  0  0  0  2  0  0  0  0  0  0
  -19.3000  -28.5460   23.2060 C   0  0  0  0  0  0  0  0  0  0  0  0
  -19.0300  -29.7700   23.8520 C   0  0  0  0  0  3  0  0  0  0  0  0
  -17.7050  -30.2090   24.0420 C   0  0  0  0  0  3  0  0  0  0  0  0
  -16.6330  -29.4140   23.6000 C   0  0  0  0  0  3  0  0  0  0  0  0
  -16.8880  -28.1900   22.9540 C   0  0  0  0  0  3  0  0  0  0  0  0
  -25.8050  -32.5310   23.8570 C   0  0  0  0  0  3  0  0  0  0  0  0
  -25.4420  -33.9180   24.1770 N   0  0  0  0  0  0  0  0  0  0  0  0
  -25.7550  -34.9810   23.4230 C   0  0  0  0  0  0  0  0  0  0  0  0
  -26.4550  -34.8980   22.4110 O   0  0  0  0  0  0  0  0  0  0  0  0
  -24.8110  -34.0510   24.9530 H   0  0  0  0  0  0  0  0  0  0  0  0
  -23.9730  -36.7100   23.0250 C   0  0  0  0  0  1  0  0  0  0  0  0
  -25.2090  -36.3510   23.8630 C   0  0  0  0  0  3  0  0  0  0  0  0
  -27.2900  -37.3200   24.7360 C   0  0  0  0  0  1  0  0  0  0  0  0
  -26.2040  -37.4400   23.7670 N   0  0  0  0  0  0  0  0  0  0  0  0
  -25.7610  -38.3460   23.9020 H   0  0  0  0  0  0  0  0  0  0  0  0
  -26.3220  -31.7770   25.1430 C   0  0  1  0  0  0  0  0  0  0  0  0
  -25.2160  -31.4900   26.1850 C   0  0  0  0  0  1  0  0  0  0  0  0
  -26.9660  -30.4230   24.7620 C   0  0  0  0  0  1  0  0  0  0  0  0
  -27.4290  -32.6100   25.8320 C   0  0  0  0  0  1  0  0  0  0  0  0
  -28.9400  -18.9900   20.6020 C   0  0  0  0  0  2  0  0  0  0  0  0
  -30.2290  -18.1430   20.4410 C   0  0  0  0  0  2  0  0  0  0  0  0
  -30.3280  -16.9080   21.3810 C   0  0  0  0  0  2  0  0  0  0  0  0
  -30.4530  -14.6960   20.1860 C   0  0  0  0  0  0  0  0  0  0  0  0
  -30.1850  -12.5260   19.0310 C   0  0  0  0  0  2  0  0  0  0  0  0
  -29.1690  -12.6710   17.8800 C   0  0  0  0  0  2  0  0  0  0  0  0
  -27.7220  -12.4920   18.3870 C   0  0  0  0  0  2  0  0  0  0  0  0
  -27.4240  -13.3270   19.6610 C   0  0  0  0  0  3  0  0  0  0  0  0
  -28.5400  -13.1360   20.7080 C   0  0  0  0  0  2  0  0  0  0  0  0
  -29.8170  -13.5000   20.0700 N   0  0  0  0  0  0  0  0  0  0  0  0
  -31.5380  -14.9380   19.6490 O   0  0  0  0  0  0  0  0  0  0  0  0
  -29.7800  -15.6410   20.8690 N   0  0  0  0  0  0  0  0  0  0  0  0
  -28.8670  -15.3660   21.2020 H   0  0  0  0  0  0  0  0  0  0  0  0
  -25.0550  -13.8770   20.5050 C   0  0  0  0  0  0  0  0  0  0  0  0
  -24.0210  -13.0790   20.9100 C   0  0  0  0  0  0  0  0  0  0  0  0
  -24.5050  -11.7360   20.8300 C   0  0  0  0  0  0  0  0  0  0  0  0
  -26.1040  -13.0210   20.2050 N   0  0  0  0  0  0  0  0  0  0  0  0
  -25.7790  -11.7270   20.4590 N   0  0  0  0  0  0  0  0  0  0  0  0
  -23.8110  -10.4580   21.0360 C   0  0  0  0  0  0  0  0  0  0  0  0
  -24.2910   -9.4990   21.9560 C   0  0  0  0  0  3  0  0  0  0  0  0
  -23.5980   -8.2830   22.1480 C   0  0  0  0  0  3  0  0  0  0  0  0
  -22.4130   -8.0190   21.4220 C   0  0  0  0  0  0  0  0  0  0  0  0
  -21.9520   -8.9680   20.4920 C   0  0  0  0  0  3  0  0  0  0  0  0
  -22.6450  -10.1740   20.2960 C   0  0  0  0  0  3  0  0  0  0  0  0
  -21.6910   -6.8540   21.5230 O   0  0  0  0  0  0  0  0  0  0  0  0
  -21.6740   -6.1140   22.6790 C   0  0  0  0  0  0  0  0  0  0  0  0
  -21.2300   -6.6580   23.9040 C   0  0  0  0  0  3  0  0  0  0  0  0
  -21.1620   -5.8430   25.0520 C   0  0  0  0  0  3  0  0  0  0  0  0
  -21.5320   -4.4870   24.9760 C   0  0  0  0  0  0  0  0  0  0  0  0
  -21.9720   -3.9440   23.7570 C   0  0  0  0  0  3  0  0  0  0  0  0
  -22.0400   -4.7550   22.6100 C   0  0  0  0  0  0  0  0  0  0  0  0
  -22.4410   -4.2210   21.4310 F   0  0  0  0  0  0  0  0  0  0  0  0
  -21.4640   -3.7020   26.0760 F   0  0  0  0  0  0  0  0  0  0  0  0
  -22.6320  -13.5230   21.2670 C   0  0  0  0  0  0  0  0  0  0  0  0
  -21.9660  -12.7950   22.1580 N   0  0  0  0  0  0  0  0  0  0  0  0
  -22.1440  -14.5470   20.7920 O   0  0  0  0  0  0  0  0  0  0  0  0
  -22.3770  -11.9660   22.5610 H   0  0  0  0  0  0  0  0  0  0  0  0
  -21.0370  -13.0720   22.4400 H   0  0  0  0  0  0  0  0  0  0  0  0
  -25.1830  -15.2540   20.3420 N   0  0  0  0  0  0  0  0  0  0  0  0
  -24.4080  -15.8890   20.4970 H   0  0  0  0  0  0  0  0  0  0  0  0
  -26.0070  -15.7170   19.9800 H   0  0  0  0  0  0  0  0  0  0  0  0
  1  3  2  0
  1  2  1  0
  2  4  2  0
  3  5  1  0
  4  6  1  0
  4 52  1  0
  5  8  1  0
  5  6  2  0
  7  8  1  0
  9  3  1  0
  9 10  1  0
 11 13  1  0
 11 10  1  0
 12 23  2  0
 13 18  1  0
 14 22  1  0
 14 24  1  0
 15 21  1  0
 15 17  1  0
 16 22  1  0
 17 16  1  0
 18 17  2  0
 19 20  1  0
 19 13  2  0
 20 15  2  0
 21 14  1  0
 22 12  1  0
 24 26  2  0
 25 24  1  0
 27 25  1  0
 28 37  2  0
 28 33  1  0
 29 25  1  0
 29 33  1  0
 30 29  1  0
 31 32  1  0
 31 30  1  0
 32 28  1  0
 33 34  2  0
 34 35  1  0
 36 35  2  0
 37 36  1  0
 38 12  1  0
 38 39  1  0
 38 48  1  0
 39 42  1  0
 40 44  1  0
 40 39  1  0
 41 40  2  0
 44 43  1  0
 46 44  1  0
 46 47  1  0
 46 45  1  0
 48 51  1  1
 48 49  1  0
 50 48  1  0
 53 52  1  0
 53 54  1  0
 55 63  1  0
 56 61  1  0
 57 58  1  0
 57 56  1  0
 59 58  1  0
 59 68  1  0
 59 60  1  0
 61 55  1  0
 61 60  1  0
 62 55  2  0
 63 64  1  0
 63 54  1  0
 65 66  2  0
 66 85  1  0
 67 66  1  0
 67 70  1  0
 68 69  1  0
 68 65  1  0
 69 67  2  0
 70 71  1  0
 71 72  2  0
 73 76  1  0
 73 72  1  0
 74 73  2  0
 75 74  1  0
 75 70  2  0
 76 77  1  0
 77 78  1  0
 78 79  2  0
 80 79  1  0
 80 84  1  0
 81 80  2  0
 82 77  2  0
 82 81  1  0
 83 82  1  0
 85 86  1  0
 86 89  1  0
 86 88  1  0
 87 85  2  0
 90 91  1  0
 90 65  1  0
 92 90  1  0
M  ISO  4  10 101  11 101  55 100  63 100
M  END
>  <TORSDO>  (41) 
F 22

>  <SCORE>  (41) 
-12.936

>  <name>  (41) 
40

>  <ligand_id>  (41) 
40

>  <original_smiles>  (41) 
[H]c1c(C([H])([H])C([H])([H])C([H])([H])N([H])C(=O)N2C([H])([H])C([H])([H])C([H])([H])C([H])(n3nc(-c4c([H])c([H])c(Oc5c([H])c([H])c(F)c([H])c5F)c([H])c4[H])c(C(=O)N([H])[H])c3N([H])[H])C2([H])[H])nc(C([H])([H])C([H])([H])[H])c(C([H])([H])C([H])([H])Oc2c([H])c([H])c3c(c2[H])C([H])([H])N(C(=O)C([H])(N([H])C(=O)C([H])(N([H])C([H])([H])[H])C([H])([H])[H])C(C([H])([H])[H])(C([H])([H])[H])C([H])([H])[H])C([H])(C(=O)N([H])C2([H])c4c([H])c([H])c([H])c([H])c4C([H])([H])C([H])([H])C2([H])[H])C3([H])[H])c1[H]

>  <smiles>  (41) 
[H]c1c(C([H])([H])C([H])([H])C([H])([H])N([H])C(=O)N2C([H])([H])C([H])([H])C([H])([H])C([H])(n3nc(-c4c([H])c([H])c(Oc5c([H])c([H])c(F)c([H])c5F)c([H])c4[H])c(C(=O)N([H])[H])c3N([H])[H])C2([H])[H])nc(C([H])([H])C([H])([H])[H])c(C([H])([H])C([H])([H])Oc2c([H])c([H])c3c(c2[H])C([H])([H])N(C(=O)C([H])(N([H])C(=O)C([H])(N([H])C([H])([H])[H])C([H])([H])[H])C(C([H])([H])[H])(C([H])([H])[H])C([H])([H])[H])C([H])(C(=O)N([H])C2([H])c4c([H])c([H])c([H])c([H])c4C([H])([H])C([H])([H])C2([H])[H])C3([H])[H])c1[H]

$$$$
41:0:0
     RDKit          3D

 93 95  0  0  1  0  0  0  0  0999 V2000
  -31.1810  -17.1470   22.3020 C   0  0  0  0  0 15  0  0  0  0  0  0
  -30.1690  -18.3910   20.8300 C   0  0  0  0  0  1  0  0  0  0  0  0
  -30.2880  -17.5390   19.0380 C   0  0  0  0  0  1  0  0  0  0  0  0
  -32.1680  -15.4060   21.2760 N   0  0  0  0  0  1  0  0  0  0  0  0
  -31.5410  -15.6820   19.0310 N   0  0  0  0  0  2  0  0  0  0  0  0
  -32.9870  -13.7960   18.0350 C   0  0  0  0  0  1  0  0  0  0  0  0
  -33.2300  -16.1850   17.3470 C   0  0  0  0  0  1  0  0  0  0  0  0
  -32.2340  -15.1290   17.8540 C   0  0  0  0  0  3  0  0  0  0  0  0
  -29.3390  -20.1470   21.1450 C   0  0  0  0  0  1  0  0  0  0  0  0
  -29.4450  -22.1310   20.8910 C   0  0  0  0  0 15  0  0  0  0  0  0
  -28.3650  -23.8270   20.9410 C   0  0  0  0  0  1  0  0  0  0  0  0
  -28.4050  -25.6350   20.7890 O   0  0  0  0  0  0  0  0  0  0  0  0
  -24.6310  -32.0340   23.3860 C   0  0  0  0  0  0  0  0  0  0  0  0
  -27.3740  -26.8350   20.6850 C   0  0  0  0  0  0  0  0  0  0  0  0
  -23.5220  -30.5490   21.7710 C   0  0  0  0  0  3  0  0  0  0  0  0
  -25.0480  -28.8560   20.4790 C   0  0  0  0  0  0  0  0  0  0  0  0
  -26.1040  -30.7180   21.7270 C   0  0  0  0  0  2  0  0  0  0  0  0
  -26.2200  -29.2540   21.1340 C   0  0  0  0  0  0  0  0  0  0  0  0
  -27.3600  -28.2740   21.1950 C   0  0  0  0  0  3  0  0  0  0  0  0
  -26.1520  -26.6600   19.9730 C   0  0  0  0  0  3  0  0  0  0  0  0
  -25.0580  -27.5850   19.8740 C   0  0  0  0  0  3  0  0  0  0  0  0
  -23.8220  -29.7910   20.4420 C   0  0  0  0  0  2  0  0  0  0  0  0
  -24.7740  -31.1390   22.3470 N   0  0  0  0  0  0  0  0  0  0  0  0
  -23.5170  -32.3350   23.8480 O   0  0  0  0  0  0  0  0  0  0  0  0
  -22.7820  -29.6080   22.7610 C   0  0  0  0  0  0  0  0  0  0  0  0
  -21.4730  -29.3660   22.5550 N   0  0  0  0  0  0  0  0  0  0  0  0
  -23.4050  -29.0880   23.6910 O   0  0  0  0  0  0  0  0  0  0  0  0
  -21.0180  -29.8360   21.7850 H   0  0  0  0  0  0  0  0  0  0  0  0
  -18.1430  -27.9370   22.8880 C   0  0  0  0  0  0  0  0  0  0  0  0
  -20.6450  -28.4340   23.3330 C   0  0  0  0  0  3  0  0  0  0  0  0
  -20.8990  -26.9710   22.9020 C   0  0  0  0  0  2  0  0  0  0  0  0
  -19.9200  -26.4780   21.8310 C   0  0  0  0  0  2  0  0  0  0  0  0
  -18.4800  -26.5590   22.3440 C   0  0  0  0  0  2  0  0  0  0  0  0
  -19.1600  -28.8230   23.3370 C   0  0  0  0  0  0  0  0  0  0  0  0
  -18.7910  -30.1020   23.8100 C   0  0  0  0  0  3  0  0  0  0  0  0
  -17.4420  -30.5000   23.8350 C   0  0  0  0  0  3  0  0  0  0  0  0
  -16.4390  -29.6150   23.3980 C   0  0  0  0  0  3  0  0  0  0  0  0
  -16.7910  -28.3360   22.9320 C   0  0  0  0  0  3  0  0  0  0  0  0
  -25.8590  -32.7360   24.0430 C   0  0  0  0  0  3  0  0  0  0  0  0
  -25.5050  -34.1470   24.3000 N   0  0  0  0  0  0  0  0  0  0  0  0
  -25.9020  -35.1910   23.5570 C   0  0  0  0  0  0  0  0  0  0  0  0
  -26.6560  -35.0670   22.5890 O   0  0  0  0  0  0  0  0  0  0  0  0
  -24.8430  -34.3160   25.0400 H   0  0  0  0  0  0  0  0  0  0  0  0
  -24.2340  -37.0010   23.0100 C   0  0  0  0  0  1  0  0  0  0  0  0
  -25.3840  -36.5940   23.9450 C   0  0  0  0  0  3  0  0  0  0  0  0
  -27.4270  -37.4880   24.9780 C   0  0  0  0  0  1  0  0  0  0  0  0
  -26.4320  -37.6390   23.9200 N   0  0  0  0  0  0  0  0  0  0  0  0
  -26.0200  -38.5640   24.0030 H   0  0  0  0  0  0  0  0  0  0  0  0
  -26.3120  -32.0490   25.3930 C   0  0  1  0  0  0  0  0  0  0  0  0
  -25.1490  -31.7630   26.3710 C   0  0  0  0  0  1  0  0  0  0  0  0
  -27.0320  -30.7100   25.1220 C   0  0  0  0  0  1  0  0  0  0  0  0
  -27.3360  -32.9530   26.1210 C   0  0  0  0  0  1  0  0  0  0  0  0
  -29.3960  -17.8200   17.9140 C   0  0  0  0  0  2  0  0  0  0  0  0
  -28.2330  -16.8370   18.1110 C   0  0  0  0  0  2  0  0  0  0  0  0
  -27.8760  -16.5650   19.6080 C   0  0  0  0  0  2  0  0  0  0  0  0
  -29.9220  -15.0030   20.3170 C   0  0  0  0  0  2  0  0  0  0  0  0
  -29.9720  -12.5550   18.9600 C   0  0  0  0  0  2  0  0  0  0  0  0
  -28.9670  -12.6420   17.7770 C   0  0  0  0  0  2  0  0  0  0  0  0
  -27.5500  -12.2760   18.2730 C   0  0  0  0  0  2  0  0  0  0  0  0
  -27.2610  -12.9490   19.6310 C   0  0  0  0  0  3  0  0  0  0  0  0
  -28.4340  -12.8300   20.6430 C   0  0  0  0  0  2  0  0  0  0  0  0
  -29.5880  -13.5570   20.0430 N   0  0  0  0  0  0  0  0  0  0  0  0
  -31.9090  -16.1260   20.3750 O   0  0  0  0  0  0  0  0  0  0  0  0
  -28.6120  -15.4580   20.2920 N   0  0  0  0  0  0  0  0  0  0  0  0
  -28.0220  -14.6570   20.4520 H   0  0  0  0  0  0  0  0  0  0  0  0
  -24.9880  -13.4970   20.6220 C   0  0  0  0  0  0  0  0  0  0  0  0
  -23.9570  -12.7050   21.0260 C   0  0  0  0  0  0  0  0  0  0  0  0
  -24.4220  -11.3590   20.8930 C   0  0  0  0  0  0  0  0  0  0  0  0
  -25.9930  -12.6250   20.2370 N   0  0  0  0  0  0  0  0  0  0  0  0
  -25.6790  -11.3350   20.4760 N   0  0  0  0  0  0  0  0  0  0  0  0
  -23.7220  -10.0910   21.0750 C   0  0  0  0  0  0  0  0  0  0  0  0
  -24.1540   -9.1430   22.0260 C   0  0  0  0  0  3  0  0  0  0  0  0
  -23.4500   -7.9330   22.1950 C   0  0  0  0  0  3  0  0  0  0  0  0
  -22.3020   -7.6670   21.4100 C   0  0  0  0  0  0  0  0  0  0  0  0
  -21.8930   -8.6060   20.4470 C   0  0  0  0  0  3  0  0  0  0  0  0
  -22.5980   -9.8070   20.2770 C   0  0  0  0  0  3  0  0  0  0  0  0
  -21.5690   -6.5090   21.4880 O   0  0  0  0  0  0  0  0  0  0  0  0
  -21.4590   -5.8080   22.6620 C   0  0  0  0  0  0  0  0  0  0  0  0
  -20.8780   -6.3740   23.8160 C   0  0  0  0  0  3  0  0  0  0  0  0
  -20.7220   -5.5910   24.9790 C   0  0  0  0  0  3  0  0  0  0  0  0
  -21.1380   -4.2470   24.9850 C   0  0  0  0  0  0  0  0  0  0  0  0
  -21.7140   -3.6830   23.8330 C   0  0  0  0  0  3  0  0  0  0  0  0
  -21.8720   -4.4610   22.6740 C   0  0  0  0  0  0  0  0  0  0  0  0
  -22.4070   -3.9070   21.5590 F   0  0  0  0  0  0  0  0  0  0  0  0
  -20.9800   -3.4930   26.0970 F   0  0  0  0  0  0  0  0  0  0  0  0
  -22.5850  -13.1660   21.4200 C   0  0  0  0  0  0  0  0  0  0  0  0
  -21.9150  -12.4140   22.2820 N   0  0  0  0  0  0  0  0  0  0  0  0
  -22.1230  -14.2260   20.9990 O   0  0  0  0  0  0  0  0  0  0  0  0
  -22.3070  -11.5550   22.6400 H   0  0  0  0  0  0  0  0  0  0  0  0
  -20.9970  -12.7010   22.5930 H   0  0  0  0  0  0  0  0  0  0  0  0
  -25.1350  -14.8790   20.5280 N   0  0  0  0  0  0  0  0  0  0  0  0
  -24.3690  -15.5000   20.7670 H   0  0  0  0  0  0  0  0  0  0  0  0
  -25.9520  -15.3800   20.2120 H   0  0  0  0  0  0  0  0  0  0  0  0
  2  9  1  0
  5 63  1  0
  7  8  1  0
  8  6  1  0
  8  5  1  0
 12 11  1  0
 13 24  2  0
 14 12  1  0
 14 19  1  0
 15 23  1  0
 15 25  1  0
 16 18  1  0
 17 23  1  0
 18 19  2  0
 18 17  1  0
 20 14  2  0
 21 20  1  0
 21 16  2  0
 22 16  1  0
 22 15  1  0
 23 13  1  0
 25 27  2  0
 26 25  1  0
 28 26  1  0
 29 38  2  0
 29 34  1  0
 30 26  1  0
 30 34  1  0
 31 30  1  0
 32 33  1  0
 32 31  1  0
 33 29  1  0
 34 35  2  0
 35 36  1  0
 37 36  2  0
 38 37  1  0
 39 13  1  0
 39 40  1  0
 39 49  1  0
 40 43  1  0
 41 45  1  0
 41 40  1  0
 42 41  2  0
 45 44  1  0
 47 45  1  0
 47 48  1  0
 47 46  1  0
 49 52  1  1
 49 50  1  0
 51 49  1  0
 53 54  1  0
 53  3  1  0
 54 55  1  0
 55 64  1  0
 57 62  1  0
 58 59  1  0
 58 57  1  0
 60 59  1  0
 60 69  1  0
 60 61  1  0
 62 56  1  0
 62 61  1  0
 63  4  1  0
 64 56  1  0
 64 65  1  0
 66 67  2  0
 67 86  1  0
 68 67  1  0
 68 71  1  0
 69 70  1  0
 69 66  1  0
 70 68  2  0
 71 72  1  0
 72 73  2  0
 74 77  1  0
 74 73  1  0
 75 74  2  0
 76 75  1  0
 76 71  2  0
 77 78  1  0
 78 83  2  0
 78 79  1  0
 79 80  2  0
 80 81  1  0
 81 85  1  0
 82 81  2  0
 83 82  1  0
 84 83  1  0
 86 87  1  0
 87 90  1  0
 87 89  1  0
 88 86  2  0
 91 66  1  0
 91 92  1  0
 93 91  1  0
M  ISO  4  11 101  12 101  56 100  64 100
M  END
>  <TORSDO>  (42) 
F 23

>  <SCORE>  (42) 
-12.901

>  <name>  (42) 
41

>  <ligand_id>  (42) 
41

>  <original_smiles>  (42) 
[H]c1nn(C([H])(C([H])([H])[H])C([H])([H])[H])c(C([H])([H])C([H])([H])C([H])([H])N([H])C(=O)N2C([H])([H])C([H])([H])C([H])([H])C([H])(n3nc(-c4c([H])c([H])c(Oc5c([H])c([H])c(F)c([H])c5F)c([H])c4[H])c(C(=O)N([H])[H])c3N([H])[H])C2([H])[H])c1C([H])([H])C([H])([H])C([H])([H])Oc1c([H])c([H])c2c(c1[H])C([H])([H])N(C(=O)C([H])(N([H])C(=O)C([H])(N([H])C([H])([H])[H])C([H])([H])[H])C(C([H])([H])[H])(C([H])([H])[H])C([H])([H])[H])C([H])(C(=O)N([H])C1([H])c3c([H])c([H])c([H])c([H])c3C([H])([H])C([H])([H])C1([H])[H])C2([H])[H]

>  <smiles>  (42) 
[H]c1nn(C([H])(C([H])([H])[H])C([H])([H])[H])c(C([H])([H])C([H])([H])C([H])([H])N([H])C(=O)N2C([H])([H])C([H])([H])C([H])([H])C([H])(n3nc(-c4c([H])c([H])c(Oc5c([H])c([H])c(F)c([H])c5F)c([H])c4[H])c(C(=O)N([H])[H])c3N([H])[H])C2([H])[H])c1C([H])([H])C([H])([H])C([H])([H])Oc1c([H])c([H])c2c(c1[H])C([H])([H])N(C(=O)C([H])(N([H])C(=O)C([H])(N([H])C([H])([H])[H])C([H])([H])[H])C(C([H])([H])[H])(C([H])([H])[H])C([H])([H])[H])C([H])(C(=O)N([H])C1([H])c3c([H])c([H])c([H])c([H])c3C([H])([H])C([H])([H])C1([H])[H])C2([H])[H]

$$$$
42:0:0
     RDKit          3D

 94102  0  0  1  0  0  0  0  0999 V2000
  -26.8940  -25.1300   21.1550 C   0  0  0  0  0  3  0  0  0  0  0  0
  -27.9920  -24.9160   20.2740 C   0  0  0  0  0  0  0  0  0  0  0  0
  -26.6720  -24.0110   21.8930 C   0  0  0  0  0  0  0  0  0  0  0  0
  -28.3960  -23.5960   20.4720 C   0  0  0  0  0  0  0  0  0  0  0  0
  -25.6360  -23.7580   22.9450 C   0  0  0  0  0  1  0  0  0  0  0  0
  -27.7710  -21.7710   22.1600 C   0  0  0  0  0  1  0  0  0  0  0  0
  -27.6250  -23.0770   21.5220 N   0  0  0  0  0  0  0  0  0  0  0  0
  -28.5430  -25.9850   19.3130 C   0  0  0  0  0  2  0  0  0  0  0  0
  -28.4800  -27.3650   19.7750 O   0  0  0  0  0  0  0  0  0  0  0  0
  -24.5450  -32.0480   23.4350 C   0  0  0  0  0  0  0  0  0  0  0  0
  -27.2810  -28.0640   19.8210 C   0  0  0  0  0  0  0  0  0  0  0  0
  -23.3580  -30.7980   21.6640 C   0  0  0  0  0  3  0  0  0  0  0  0
  -24.8370  -29.4940   20.0400 C   0  0  0  0  0  0  0  0  0  0  0  0
  -25.8660  -31.2690   21.4650 C   0  0  0  0  0  2  0  0  0  0  0  0
  -25.9890  -29.9850   20.6650 C   0  0  0  0  0  0  0  0  0  0  0  0
  -27.2120  -29.2800   20.5490 C   0  0  0  0  0  3  0  0  0  0  0  0
  -26.1080  -27.6040   19.1800 C   0  0  0  0  0  3  0  0  0  0  0  0
  -24.8930  -28.3070   19.2930 C   0  0  0  0  0  3  0  0  0  0  0  0
  -23.5620  -30.2920   20.2100 C   0  0  0  0  0  2  0  0  0  0  0  0
  -24.6090  -31.3810   22.2480 N   0  0  0  0  0  0  0  0  0  0  0  0
  -23.4650  -32.2140   24.0220 O   0  0  0  0  0  0  0  0  0  0  0  0
  -22.7660  -29.6480   22.5110 C   0  0  0  0  0  0  0  0  0  0  0  0
  -21.4610  -29.3830   22.3350 N   0  0  0  0  0  0  0  0  0  0  0  0
  -23.4790  -29.0010   23.2830 O   0  0  0  0  0  0  0  0  0  0  0  0
  -20.9430  -29.9660   21.6920 H   0  0  0  0  0  0  0  0  0  0  0  0
  -18.1930  -27.8600   22.5850 C   0  0  0  0  0  0  0  0  0  0  0  0
  -20.7040  -28.3200   22.9940 C   0  0  0  0  0  3  0  0  0  0  0  0
  -20.9600  -26.9520   22.3190 C   0  0  0  0  0  2  0  0  0  0  0  0
  -19.9310  -26.6100   21.2360 C   0  0  0  0  0  2  0  0  0  0  0  0
  -18.5190  -26.5850   21.8280 C   0  0  0  0  0  2  0  0  0  0  0  0
  -19.2200  -28.6830   23.1200 C   0  0  0  0  0  0  0  0  0  0  0  0
  -18.8630  -29.8750   23.7870 C   0  0  0  0  0  3  0  0  0  0  0  0
  -17.5130  -30.2460   23.9270 C   0  0  0  0  0  3  0  0  0  0  0  0
  -16.5000  -29.4200   23.4080 C   0  0  0  0  0  3  0  0  0  0  0  0
  -16.8410  -28.2290   22.7430 C   0  0  0  0  0  3  0  0  0  0  0  0
  -25.8180  -32.6570   24.1010 C   0  0  0  0  0  3  0  0  0  0  0  0
  -25.5160  -34.0540   24.4400 N   0  0  0  0  0  0  0  0  0  0  0  0
  -25.8750  -35.1110   23.7000 C   0  0  0  0  0  0  0  0  0  0  0  0
  -26.5670  -35.0120   22.6840 O   0  0  0  0  0  0  0  0  0  0  0  0
  -24.9080  -34.2060   25.2320 H   0  0  0  0  0  0  0  0  0  0  0  0
  -24.1680  -36.9210   23.3330 C   0  0  0  0  0  1  0  0  0  0  0  0
  -25.3910  -36.4990   24.1630 C   0  0  0  0  0  3  0  0  0  0  0  0
  -27.5130  -37.3620   25.0460 C   0  0  0  0  0  1  0  0  0  0  0  0
  -26.4330  -37.5440   24.0790 N   0  0  0  0  0  0  0  0  0  0  0  0
  -26.0310  -38.4660   24.2230 H   0  0  0  0  0  0  0  0  0  0  0  0
  -26.2900  -31.8610   25.3800 C   0  0  1  0  0  0  0  0  0  0  0  0
  -25.1640  -31.6160   26.4100 C   0  0  0  0  0  1  0  0  0  0  0  0
  -26.8760  -30.4860   24.9820 C   0  0  0  0  0  1  0  0  0  0  0  0
  -27.4240  -32.6380   26.0900 C   0  0  0  0  0  1  0  0  0  0  0  0
  -29.5000  -22.7500   19.8260 C   0  0  0  0  0  2  0  0  0  0  0  0
  -29.1250  -21.3360   19.5000 N   0  0  0  0  0  4  0  0  0  0  0  0
  -28.7370  -21.3230   18.5710 H   0  0  0  0  0  0  0  0  0  0  0  0
  -28.3900  -21.0800   20.1370 H   0  0  0  0  0  0  0  0  0  0  0  0
  -30.2240  -20.3220   19.6070 C   0  0  0  0  0  2  0  0  0  0  0  0
  -29.7590  -18.8240   19.6990 C   0  0  0  0  0  2  0  0  0  0  0  0
  -30.9250  -17.8040   19.9300 C   0  0  0  0  0  2  0  0  0  0  0  0
  -31.2920  -15.3080   19.9530 C   0  0  0  0  0  0  0  0  0  0  0  0
  -31.0910  -12.9630   19.2090 C   0  0  0  0  0  2  0  0  0  0  0  0
  -30.1500  -12.9130   17.9880 C   0  0  0  0  0  2  0  0  0  0  0  0
  -28.6780  -12.8040   18.4350 C   0  0  0  0  0  2  0  0  0  0  0  0
  -28.3030  -13.8300   19.5380 C   0  0  0  0  0  3  0  0  0  0  0  0
  -29.3610  -13.8500   20.6650 C   0  0  0  0  0  2  0  0  0  0  0  0
  -30.6700  -14.0990   20.0450 N   0  0  0  0  0  0  0  0  0  0  0  0
  -32.4380  -15.4290   19.5130 O   0  0  0  0  0  0  0  0  0  0  0  0
  -30.5200  -16.3980   20.1830 N   0  0  0  0  0  0  0  0  0  0  0  0
  -29.5810  -16.2270   20.5100 H   0  0  0  0  0  0  0  0  0  0  0  0
  -25.9700  -14.5100   20.3800 C   0  0  0  0  0  0  0  0  0  0  0  0
  -24.8800  -13.7710   20.7530 C   0  0  0  0  0  0  0  0  0  0  0  0
  -25.2720  -12.4020   20.6340 C   0  0  0  0  0  0  0  0  0  0  0  0
  -26.9590  -13.5930   20.0590 N   0  0  0  0  0  0  0  0  0  0  0  0
  -26.5450  -12.3180   20.2710 N   0  0  0  0  0  0  0  0  0  0  0  0
  -24.4900  -11.1690   20.7880 C   0  0  0  0  0  0  0  0  0  0  0  0
  -24.8540  -10.1750   21.7230 C   0  0  0  0  0  3  0  0  0  0  0  0
  -24.0760   -9.0060   21.8660 C   0  0  0  0  0  3  0  0  0  0  0  0
  -22.9200   -8.8220   21.0720 C   0  0  0  0  0  0  0  0  0  0  0  0
  -22.5740   -9.8020   20.1260 C   0  0  0  0  0  3  0  0  0  0  0  0
  -23.3520  -10.9630   19.9800 C   0  0  0  0  0  3  0  0  0  0  0  0
  -22.1190   -7.7070   21.1250 O   0  0  0  0  0  0  0  0  0  0  0  0
  -21.9230   -7.0140   22.2920 C   0  0  0  0  0  0  0  0  0  0  0  0
  -21.3650   -7.6250   23.4370 C   0  0  0  0  0  3  0  0  0  0  0  0
  -21.1160   -6.8590   24.5930 C   0  0  0  0  0  3  0  0  0  0  0  0
  -21.4160   -5.4850   24.6060 C   0  0  0  0  0  0  0  0  0  0  0  0
  -21.9680   -4.8730   23.4660 C   0  0  0  0  0  3  0  0  0  0  0  0
  -22.2170   -5.6360   22.3120 C   0  0  0  0  0  0  0  0  0  0  0  0
  -22.7290   -5.0380   21.2090 F   0  0  0  0  0  0  0  0  0  0  0  0
  -21.1700   -4.7470   25.7140 F   0  0  0  0  0  0  0  0  0  0  0  0
  -23.5190  -14.3010   21.1050 C   0  0  0  0  0  0  0  0  0  0  0  0
  -22.7940  -13.6030   21.9730 N   0  0  0  0  0  0  0  0  0  0  0  0
  -23.1110  -15.3670   20.6480 O   0  0  0  0  0  0  0  0  0  0  0  0
  -23.1370  -12.7390   22.3670 H   0  0  0  0  0  0  0  0  0  0  0  0
  -21.8820  -13.9370   22.2470 H   0  0  0  0  0  0  0  0  0  0  0  0
  -26.1950  -15.8780   20.2650 N   0  0  0  0  0  0  0  0  0  0  0  0
  -25.4590  -16.5560   20.4340 H   0  0  0  0  0  0  0  0  0  0  0  0
  -27.0380  -16.2950   19.8910 H   0  0  0  0  0  0  0  0  0  0  0  0
  1  3  2  0
  2  4  2  0
  2  1  1  0
  3  5  1  0
  4  7  1  0
  7  3  1  0
  7  6  1  0
  8  9  1  0
  8  2  1  0
  9 11  1  0
 10 21  2  0
 11 16  1  0
 12 20  1  0
 12 22  1  0
 13 19  1  0
 13 15  1  0
 14 20  1  0
 15 14  1  0
 16 15  2  0
 17 18  1  0
 17 11  2  0
 18 13  2  0
 19 12  1  0
 20 10  1  0
 22 24  2  0
 23 22  1  0
 25 23  1  0
 26 35  2  0
 26 31  1  0
 27 23  1  0
 27 31  1  0
 28 27  1  0
 29 30  1  0
 29 28  1  0
 30 26  1  0
 31 32  2  0
 32 33  1  0
 34 33  2  0
 35 34  1  0
 36 10  1  0
 36 37  1  0
 36 46  1  0
 37 40  1  0
 38 42  1  0
 38 37  1  0
 39 38  2  0
 42 41  1  0
 44 42  1  0
 44 45  1  0
 44 43  1  0
 46 49  1  1
 46 47  1  0
 48 46  1  0
 50  4  1  0
 51 54  1  0
 51 50  1  0
 51 53  1  0
 52 51  1  0
 54 55  1  0
 55 56  1  0
 56 65  1  0
 57 63  1  0
 57 65  1  0
 58 63  1  0
 59 60  1  0
 59 58  1  0
 61 60  1  0
 61 70  1  0
 61 62  1  0
 63 62  1  0
 64 57  2  0
 65 66  1  0
 67 68  2  0
 68 87  1  0
 69 68  1  0
 69 72  1  0
 70 71  1  0
 70 67  1  0
 71 69  2  0
 72 73  1  0
 73 74  2  0
 75 78  1  0
 75 74  1  0
 76 75  2  0
 77 76  1  0
 77 72  2  0
 78 79  1  0
 79 84  2  0
 79 80  1  0
 80 81  2  0
 81 82  1  0
 82 86  1  0
 83 82  2  0
 84 83  1  0
 85 84  1  0
 87 88  1  0
 88 91  1  0
 88 90  1  0
 89 87  2  0
 92 67  1  0
 92 93  1  0
 94 92  1  0
M  ISO  4   8 101   9 101  57 100  65 100
M  END
>  <TORSDO>  (43) 
F 22

>  <SCORE>  (43) 
-10.073

>  <name>  (43) 
42

>  <ligand_id>  (43) 
42

>  <original_smiles>  (43) 
[H]c1c([H])c([H])c2c(c1[H])C([H])([H])C([H])([H])C([H])([H])C2([H])N([H])C(=O)C1([H])N(C(=O)C([H])(N([H])C(=O)C([H])(N([H])C([H])([H])[H])C([H])([H])[H])C(C([H])([H])[H])(C([H])([H])[H])C([H])([H])[H])C([H])([H])c2c([H])c(OC([H])([H])c3c([H])c(C([H])([H])[H])n(C([H])([H])[H])c3C([H])([H])[N+]([H])([H])C([H])([H])C([H])([H])C([H])([H])N([H])C(=O)N3C([H])([H])C([H])([H])C([H])([H])C([H])(n4nc(-c5c([H])c([H])c(Oc6c([H])c([H])c(F)c([H])c6F)c([H])c5[H])c(C(=O)N([H])[H])c4N([H])[H])C3([H])[H])c([H])c([H])c2C1([H])[H]

>  <smiles>  (43) 
[H]c1c([H])c([H])c2c(c1[H])C([H])([H])C([H])([H])C([H])([H])C2([H])N([H])C(=O)C1([H])N(C(=O)C([H])(N([H])C(=O)C([H])(N([H])C([H])([H])[H])C([H])([H])[H])C(C([H])([H])[H])(C([H])([H])[H])C([H])([H])[H])C([H])([H])c2c([H])c(OC([H])([H])c3c([H])c(C([H])([H])[H])n(C([H])([H])[H])c3C([H])([H])[N+]([H])([H])C([H])([H])C([H])([H])C([H])([H])N([H])C(=O)N3C([H])([H])C([H])([H])C([H])([H])C([H])(n4nc(-c5c([H])c([H])c(Oc6c([H])c([H])c(F)c([H])c6F)c([H])c5[H])c(C(=O)N([H])[H])c4N([H])[H])C3([H])[H])c([H])c([H])c2C1([H])[H]

$$$$
43:0:0
     RDKit          3D

 91 99  0  0  1  0  0  0  0  0999 V2000
  -29.5090  -22.8500   20.3750 C   0  0  0  0  0  3  0  0  0  0  0  0
  -28.5830  -23.7800   19.7450 C   0  0  0  0  0  0  0  0  0  0  0  0
  -29.1440  -21.5290   20.0710 C   0  0  0  0  0  0  0  0  0  0  0  0
  -27.6600  -23.0350   19.1490 N   0  0  0  0  0  0  0  0  0  0  0  0
  -27.9960  -21.7120   19.2970 N   0  0  0  0  0  0  0  0  0  0  0  0
  -28.0490  -20.2820   17.2960 C   0  0  0  0  0  1  0  0  0  0  0  0
  -25.8320  -21.1870   18.1410 C   0  0  0  0  0  1  0  0  0  0  0  0
  -27.2450  -20.7130   18.5380 C   0  0  0  0  0  3  0  0  0  0  0  0
  -28.6650  -25.3250   19.3480 C   0  0  0  0  0  2  0  0  0  0  0  0
  -28.3690  -26.4700   20.2530 O   0  0  0  0  0  0  0  0  0  0  0  0
  -24.6090  -31.8760   23.2190 C   0  0  0  0  0  0  0  0  0  0  0  0
  -27.2380  -27.3080   20.1440 C   0  0  0  0  0  0  0  0  0  0  0  0
  -23.4000  -30.4690   21.5860 C   0  0  0  0  0  3  0  0  0  0  0  0
  -24.8510  -28.9120   20.1500 C   0  0  0  0  0  0  0  0  0  0  0  0
  -25.9320  -30.7940   21.3820 C   0  0  0  0  0  2  0  0  0  0  0  0
  -26.0160  -29.4080   20.7460 C   0  0  0  0  0  0  0  0  0  0  0  0
  -27.2040  -28.6120   20.7420 C   0  0  0  0  0  3  0  0  0  0  0  0
  -26.0510  -26.8710   19.5190 C   0  0  0  0  0  3  0  0  0  0  0  0
  -24.8730  -27.6510   19.5290 C   0  0  0  0  0  3  0  0  0  0  0  0
  -23.6040  -29.7790   20.2090 C   0  0  0  0  0  2  0  0  0  0  0  0
  -24.6680  -31.0640   22.1210 N   0  0  0  0  0  0  0  0  0  0  0  0
  -23.5290  -32.1510   23.7610 O   0  0  0  0  0  0  0  0  0  0  0  0
  -22.7450  -29.4580   22.5580 C   0  0  0  0  0  0  0  0  0  0  0  0
  -21.4180  -29.2830   22.4430 N   0  0  0  0  0  0  0  0  0  0  0  0
  -23.4280  -28.8360   23.3750 O   0  0  0  0  0  0  0  0  0  0  0  0
  -20.9270  -29.8440   21.7620 H   0  0  0  0  0  0  0  0  0  0  0  0
  -18.0450  -28.0740   22.9550 C   0  0  0  0  0  0  0  0  0  0  0  0
  -20.6040  -28.3400   23.2150 C   0  0  0  0  0  3  0  0  0  0  0  0
  -20.7080  -26.9100   22.6390 C   0  0  0  0  0  2  0  0  0  0  0  0
  -19.6010  -26.5820   21.6320 C   0  0  0  0  0  2  0  0  0  0  0  0
  -18.2220  -26.7230   22.2820 C   0  0  0  0  0  2  0  0  0  0  0  0
  -19.1630  -28.8400   23.3780 C   0  0  0  0  0  0  0  0  0  0  0  0
  -18.9440  -30.1040   23.9680 C   0  0  0  0  0  3  0  0  0  0  0  0
  -17.6380  -30.6000   24.1420 C   0  0  0  0  0  3  0  0  0  0  0  0
  -16.5350  -29.8320   23.7330 C   0  0  0  0  0  3  0  0  0  0  0  0
  -16.7380  -28.5710   23.1440 C   0  0  0  0  0  3  0  0  0  0  0  0
  -25.8930  -32.5120   23.8380 C   0  0  0  0  0  3  0  0  0  0  0  0
  -25.5840  -33.9070   24.1750 N   0  0  0  0  0  0  0  0  0  0  0  0
  -25.9080  -34.9670   23.4210 C   0  0  0  0  0  0  0  0  0  0  0  0
  -26.5700  -34.8710   22.3840 O   0  0  0  0  0  0  0  0  0  0  0  0
  -25.0010  -34.0570   24.9870 H   0  0  0  0  0  0  0  0  0  0  0  0
  -24.1710  -36.7540   23.0910 C   0  0  0  0  0  1  0  0  0  0  0  0
  -25.4210  -36.3510   23.8880 C   0  0  0  0  0  3  0  0  0  0  0  0
  -27.5590  -37.2380   24.7040 C   0  0  0  0  0  1  0  0  0  0  0  0
  -26.4490  -37.4080   23.7720 N   0  0  0  0  0  0  0  0  0  0  0  0
  -26.0390  -38.3250   23.9320 H   0  0  0  0  0  0  0  0  0  0  0  0
  -26.4190  -31.7380   25.1090 C   0  0  1  0  0  0  0  0  0  0  0  0
  -25.3330  -31.4890   26.1840 C   0  0  0  0  0  1  0  0  0  0  0  0
  -27.0070  -30.3680   24.6980 C   0  0  0  0  0  1  0  0  0  0  0  0
  -27.5710  -32.5350   25.7670 C   0  0  0  0  0  1  0  0  0  0  0  0
  -29.9330  -20.1590   20.2890 C   0  0  0  0  0  2  0  0  0  0  0  0
  -29.3230  -18.6460   20.3830 C   0  0  0  0  0  3  0  0  0  0  0  0
  -30.3570  -17.3880   20.4710 C   0  0  0  0  0  3  0  0  0  0  0  0
  -30.6100  -14.7740   20.3470 C   0  0  0  0  0  0  0  0  0  0  0  0
  -30.3850  -12.5030   19.3320 C   0  0  0  0  0  2  0  0  0  0  0  0
  -29.4360  -12.5690   18.1170 C   0  0  0  0  0  2  0  0  0  0  0  0
  -27.9750  -12.3830   18.5630 C   0  0  0  0  0  2  0  0  0  0  0  0
  -27.6060  -13.2760   19.7770 C   0  0  0  0  0  3  0  0  0  0  0  0
  -28.6760  -13.2120   20.8910 C   0  0  0  0  0  2  0  0  0  0  0  0
  -29.9650  -13.5580   20.2820 N   0  0  0  0  0  0  0  0  0  0  0  0
  -31.7970  -14.8520   20.0200 O   0  0  0  0  0  0  0  0  0  0  0  0
  -29.8740  -15.9320   20.5630 N   0  0  0  0  0  0  0  0  0  0  0  0
  -28.9010  -15.7940   20.7820 H   0  0  0  0  0  0  0  0  0  0  0  0
  -25.2190  -13.8520   20.5110 C   0  0  0  0  0  0  0  0  0  0  0  0
  -24.1580  -13.0720   20.8830 C   0  0  0  0  0  0  0  0  0  0  0  0
  -24.6320  -11.7240   20.8560 C   0  0  0  0  0  0  0  0  0  0  0  0
  -26.2690  -12.9800   20.2780 N   0  0  0  0  0  0  0  0  0  0  0  0
  -25.9220  -11.6960   20.5470 N   0  0  0  0  0  0  0  0  0  0  0  0
  -23.9140  -10.4570   21.0490 C   0  0  0  0  0  0  0  0  0  0  0  0
  -24.3570   -9.4890   21.9780 C   0  0  0  0  0  3  0  0  0  0  0  0
  -23.6380   -8.2880   22.1570 C   0  0  0  0  0  3  0  0  0  0  0  0
  -22.4620   -8.0460   21.4090 C   0  0  0  0  0  0  0  0  0  0  0  0
  -22.0390   -9.0020   20.4680 C   0  0  0  0  0  3  0  0  0  0  0  0
  -22.7600  -10.1950   20.2860 C   0  0  0  0  0  3  0  0  0  0  0  0
  -21.7130   -6.8990   21.5000 O   0  0  0  0  0  0  0  0  0  0  0  0
  -21.6790   -6.1510   22.6490 C   0  0  0  0  0  0  0  0  0  0  0  0
  -21.2650   -6.6970   23.8830 C   0  0  0  0  0  3  0  0  0  0  0  0
  -21.1770   -5.8750   25.0230 C   0  0  0  0  0  3  0  0  0  0  0  0
  -21.4960   -4.5070   24.9320 C   0  0  0  0  0  0  0  0  0  0  0  0
  -21.9030   -3.9600   23.7020 C   0  0  0  0  0  3  0  0  0  0  0  0
  -21.9920   -4.7780   22.5630 C   0  0  0  0  0  0  0  0  0  0  0  0
  -22.3650   -4.2410   21.3770 F   0  0  0  0  0  0  0  0  0  0  0  0
  -21.4060   -3.7140   26.0250 F   0  0  0  0  0  0  0  0  0  0  0  0
  -22.7590  -13.5410   21.1540 C   0  0  0  0  0  0  0  0  0  0  0  0
  -22.0370  -12.8380   22.0190 N   0  0  0  0  0  0  0  0  0  0  0  0
  -22.3160  -14.5650   20.6360 O   0  0  0  0  0  0  0  0  0  0  0  0
  -22.4110  -12.0070   22.4520 H   0  0  0  0  0  0  0  0  0  0  0  0
  -21.0990  -13.1320   22.2480 H   0  0  0  0  0  0  0  0  0  0  0  0
  -25.3730  -15.2220   20.3280 N   0  0  0  0  0  0  0  0  0  0  0  0
  -24.5980  -15.8680   20.4310 H   0  0  0  0  0  0  0  0  0  0  0  0
  -26.2090  -15.6680   19.9730 H   0  0  0  0  0  0  0  0  0  0  0  0
  2  1  1  0
  3 51  1  0
  3  1  2  0
  4  5  1  0
  4  2  2  0
  5  3  1  0
  6  8  1  0
  7  8  1  0
  8  5  1  0
  9  2  1  0
  9 10  1  0
 11 22  2  0
 12 10  1  0
 12 17  1  0
 13 21  1  0
 13 23  1  0
 14 20  1  0
 14 16  1  0
 15 21  1  0
 16 15  1  0
 17 16  2  0
 18 19  1  0
 18 12  2  0
 19 14  2  0
 20 13  1  0
 21 11  1  0
 23 25  2  0
 24 23  1  0
 26 24  1  0
 27 36  2  0
 27 32  1  0
 28 24  1  0
 28 32  1  0
 29 28  1  0
 30 31  1  0
 30 29  1  0
 31 27  1  0
 32 33  2  0
 33 34  1  0
 35 34  2  0
 36 35  1  0
 37 11  1  0
 37 38  1  0
 37 47  1  0
 38 41  1  0
 39 43  1  0
 39 38  1  0
 40 39  2  0
 43 42  1  0
 45 43  1  0
 45 46  1  0
 45 44  1  0
 47 50  1  1
 47 48  1  0
 49 47  1  0
 51 52  1  0
 52 53  2  0
 53 62  1  0
 54 62  1  0
 55 60  1  0
 56 57  1  0
 56 55  1  0
 58 57  1  0
 58 67  1  0
 58 59  1  0
 60 54  1  0
 60 59  1  0
 61 54  2  0
 62 63  1  0
 64 65  2  0
 65 84  1  0
 66 65  1  0
 66 69  1  0
 67 64  1  0
 67 68  1  0
 68 66  2  0
 69 70  1  0
 70 71  2  0
 72 75  1  0
 72 71  1  0
 73 72  2  0
 74 73  1  0
 74 69  2  0
 75 76  1  0
 76 77  1  0
 77 78  2  0
 79 78  1  0
 79 83  1  0
 80 79  2  0
 81 76  2  0
 81 80  1  0
 82 81  1  0
 84 85  1  0
 85 88  1  0
 85 87  1  0
 86 84  2  0
 89 90  1  0
 89 64  1  0
 91 89  1  0
M  ISO  4   9 101  10 101  54 100  62 100
M  END
>  <TORSDO>  (44) 
F 21

>  <SCORE>  (44) 
-13.647

>  <name>  (44) 
43

>  <ligand_id>  (44) 
43

>  <original_smiles>  (44) 
[H]c1c([H])c([H])c2c(c1[H])C([H])([H])C([H])([H])C([H])([H])C2([H])N([H])C(=O)C1([H])N(C(=O)C([H])(N([H])C(=O)C([H])(N([H])C([H])([H])[H])C([H])([H])[H])C(C([H])([H])[H])(C([H])([H])[H])C([H])([H])[H])C([H])([H])c2c([H])c(OC([H])([H])c3nn(C([H])(C([H])([H])[H])C([H])([H])[H])c(C([H])([H])C([H])([H])C([H])([H])N([H])C(=O)N4C([H])([H])C([H])([H])C([H])([H])C([H])(n5nc(-c6c([H])c([H])c(Oc7c([H])c([H])c(F)c([H])c7F)c([H])c6[H])c(C(=O)N([H])[H])c5N([H])[H])C4([H])[H])c3[H])c([H])c([H])c2C1([H])[H]

>  <smiles>  (44) 
[H]c1c([H])c([H])c2c(c1[H])C([H])([H])C([H])([H])C([H])([H])C2([H])N([H])C(=O)C1([H])N(C(=O)C([H])(N([H])C(=O)C([H])(N([H])C([H])([H])[H])C([H])([H])[H])C(C([H])([H])[H])(C([H])([H])[H])C([H])([H])[H])C([H])([H])c2c([H])c(OC([H])([H])c3nn(C([H])(C([H])([H])[H])C([H])([H])[H])c(C([H])([H])C([H])([H])C([H])([H])N([H])C(=O)N4C([H])([H])C([H])([H])C([H])([H])C([H])(n5nc(-c6c([H])c([H])c(Oc7c([H])c([H])c(F)c([H])c7F)c([H])c6[H])c(C(=O)N([H])[H])c5N([H])[H])C4([H])[H])c3[H])c([H])c([H])c2C1([H])[H]

$$$$
44:0:0
     RDKit          3D

 91 99  0  0  1  0  0  0  0  0999 V2000
  -30.5050  -22.6240   19.3470 C   0  0  0  0  0  3  0  0  0  0  0  0
  -29.7110  -23.2530   20.3330 C   0  0  0  0  0  0  0  0  0  0  0  0
  -28.7880  -21.2110   20.8950 C   0  0  0  0  0  0  0  0  0  0  0  0
  -29.5430  -20.5880   19.8650 C   0  0  0  0  0  0  0  0  0  0  0  0
  -27.8200  -20.4470   21.7800 C   0  0  0  0  0  1  0  0  0  0  0  0
  -30.4280  -21.2910   19.1170 N   0  0  0  0  0  0  0  0  0  0  0  0
  -28.8770  -22.5430   21.1330 N   0  0  0  0  0  0  0  0  0  0  0  0
  -29.7120  -24.7630   20.5040 C   0  0  0  0  0  2  0  0  0  0  0  0
  -28.4610  -25.4140   19.8910 C   0  0  0  0  0  2  0  0  0  0  0  0
  -28.4930  -26.8270   20.0910 O   0  0  0  0  0  0  0  0  0  0  0  0
  -24.6060  -31.8570   23.2280 C   0  0  0  0  0  0  0  0  0  0  0  0
  -27.2920  -27.5040   20.0780 C   0  0  0  0  0  0  0  0  0  0  0  0
  -23.4080  -30.4720   21.5640 C   0  0  0  0  0  3  0  0  0  0  0  0
  -24.8730  -28.9710   20.1150 C   0  0  0  0  0  0  0  0  0  0  0  0
  -25.9270  -30.8620   21.3660 C   0  0  0  0  0  2  0  0  0  0  0  0
  -26.0240  -29.5030   20.7060 C   0  0  0  0  0  0  0  0  0  0  0  0
  -27.2340  -28.7780   20.6840 C   0  0  0  0  0  3  0  0  0  0  0  0
  -26.1210  -26.9810   19.4770 C   0  0  0  0  0  3  0  0  0  0  0  0
  -24.9140  -27.7070   19.5000 C   0  0  0  0  0  3  0  0  0  0  0  0
  -23.6200  -29.8150   20.1740 C   0  0  0  0  0  2  0  0  0  0  0  0
  -24.6650  -31.0770   22.1120 N   0  0  0  0  0  0  0  0  0  0  0  0
  -23.5240  -32.1120   23.7740 O   0  0  0  0  0  0  0  0  0  0  0  0
  -22.7680  -29.4300   22.5090 C   0  0  0  0  0  0  0  0  0  0  0  0
  -21.4480  -29.2290   22.3700 N   0  0  0  0  0  0  0  0  0  0  0  0
  -23.4570  -28.8060   23.3210 O   0  0  0  0  0  0  0  0  0  0  0  0
  -20.9540  -29.7850   21.6860 H   0  0  0  0  0  0  0  0  0  0  0  0
  -18.0900  -27.9810   22.8260 C   0  0  0  0  0  0  0  0  0  0  0  0
  -20.6410  -28.2710   23.1250 C   0  0  0  0  0  3  0  0  0  0  0  0
  -20.7700  -26.8490   22.5330 C   0  0  0  0  0  2  0  0  0  0  0  0
  -19.6830  -26.5200   21.5070 C   0  0  0  0  0  2  0  0  0  0  0  0
  -18.2930  -26.6400   22.1390 C   0  0  0  0  0  2  0  0  0  0  0  0
  -19.1940  -28.7530   23.2750 C   0  0  0  0  0  0  0  0  0  0  0  0
  -18.9530  -30.0080   23.8750 C   0  0  0  0  0  3  0  0  0  0  0  0
  -17.6410  -30.4910   24.0330 C   0  0  0  0  0  3  0  0  0  0  0  0
  -16.5510  -29.7140   23.6020 C   0  0  0  0  0  3  0  0  0  0  0  0
  -16.7760  -28.4620   23.0030 C   0  0  0  0  0  3  0  0  0  0  0  0
  -25.8890  -32.4860   23.8550 C   0  0  0  0  0  3  0  0  0  0  0  0
  -25.5810  -33.8850   24.1810 N   0  0  0  0  0  0  0  0  0  0  0  0
  -25.9170  -34.9340   23.4200 C   0  0  0  0  0  0  0  0  0  0  0  0
  -26.5910  -34.8270   22.3920 O   0  0  0  0  0  0  0  0  0  0  0  0
  -24.9820  -34.0430   24.9790 H   0  0  0  0  0  0  0  0  0  0  0  0
  -24.1870  -36.7210   23.0510 C   0  0  0  0  0  1  0  0  0  0  0  0
  -25.4260  -36.3240   23.8690 C   0  0  0  0  0  3  0  0  0  0  0  0
  -27.5560  -37.2140   24.7050 C   0  0  0  0  0  1  0  0  0  0  0  0
  -26.4580  -37.3760   23.7550 N   0  0  0  0  0  0  0  0  0  0  0  0
  -26.0510  -38.2970   23.8950 H   0  0  0  0  0  0  0  0  0  0  0  0
  -26.3990  -31.7140   25.1340 C   0  0  1  0  0  0  0  0  0  0  0  0
  -25.2990  -31.4770   26.1940 C   0  0  0  0  0  1  0  0  0  0  0  0
  -26.9850  -30.3380   24.7430 C   0  0  0  0  0  1  0  0  0  0  0  0
  -27.5470  -32.5070   25.8020 C   0  0  0  0  0  1  0  0  0  0  0  0
  -29.3340  -19.1410   19.4420 C   0  0  0  0  0  2  0  0  0  0  0  0
  -29.9740  -18.0610   20.3390 C   0  0  0  0  0  2  0  0  0  0  0  0
  -29.9450  -16.7130   19.5970 C   0  0  0  0  0  2  0  0  0  0  0  0
  -30.8380  -14.4880   20.0780 C   0  0  0  0  0  0  0  0  0  0  0  0
  -30.4660  -12.3490   18.9400 C   0  0  0  0  0  2  0  0  0  0  0  0
  -29.4910  -12.6230   17.7740 C   0  0  0  0  0  2  0  0  0  0  0  0
  -28.0270  -12.5170   18.2470 C   0  0  0  0  0  2  0  0  0  0  0  0
  -27.7560  -13.3320   19.5410 C   0  0  0  0  0  3  0  0  0  0  0  0
  -28.8430  -13.0500   20.6070 C   0  0  0  0  0  2  0  0  0  0  0  0
  -30.1620  -13.3130   20.0070 N   0  0  0  0  0  0  0  0  0  0  0  0
  -31.9550  -14.6670   19.5840 O   0  0  0  0  0  0  0  0  0  0  0  0
  -30.0750  -15.5260   20.4440 N   0  0  0  0  0  0  0  0  0  0  0  0
  -29.2330  -15.2590   20.9340 H   0  0  0  0  0  0  0  0  0  0  0  0
  -25.3860  -13.9890   20.3100 C   0  0  0  0  0  0  0  0  0  0  0  0
  -24.3170  -13.2370   20.7130 C   0  0  0  0  0  0  0  0  0  0  0  0
  -24.7550  -11.8780   20.6800 C   0  0  0  0  0  0  0  0  0  0  0  0
  -26.4110  -13.0890   20.0580 N   0  0  0  0  0  0  0  0  0  0  0  0
  -26.0350  -11.8140   20.3360 N   0  0  0  0  0  0  0  0  0  0  0  0
  -24.0160  -10.6290   20.9030 C   0  0  0  0  0  0  0  0  0  0  0  0
  -24.4620   -9.6650   21.8350 C   0  0  0  0  0  3  0  0  0  0  0  0
  -23.7280   -8.4780   22.0430 C   0  0  0  0  0  3  0  0  0  0  0  0
  -22.5320   -8.2490   21.3210 C   0  0  0  0  0  0  0  0  0  0  0  0
  -22.1050   -9.2000   20.3780 C   0  0  0  0  0  3  0  0  0  0  0  0
  -22.8410  -10.3770   20.1680 C   0  0  0  0  0  3  0  0  0  0  0  0
  -21.7640   -7.1150   21.4410 O   0  0  0  0  0  0  0  0  0  0  0  0
  -21.7350   -6.3850   22.6010 C   0  0  0  0  0  0  0  0  0  0  0  0
  -21.3420   -6.9570   23.8310 C   0  0  0  0  0  3  0  0  0  0  0  0
  -21.2580   -6.1550   24.9860 C   0  0  0  0  0  3  0  0  0  0  0  0
  -21.5570   -4.7810   24.9120 C   0  0  0  0  0  0  0  0  0  0  0  0
  -21.9440   -4.2080   23.6880 C   0  0  0  0  0  3  0  0  0  0  0  0
  -22.0300   -5.0090   22.5350 C   0  0  0  0  0  0  0  0  0  0  0  0
  -22.3830   -4.4480   21.3520 F   0  0  0  0  0  0  0  0  0  0  0  0
  -21.4690   -4.0070   26.0190 F   0  0  0  0  0  0  0  0  0  0  0  0
  -22.9360  -13.7380   21.0220 C   0  0  0  0  0  0  0  0  0  0  0  0
  -22.2240  -13.0620   21.9180 N   0  0  0  0  0  0  0  0  0  0  0  0
  -22.4960  -14.7630   20.5030 O   0  0  0  0  0  0  0  0  0  0  0  0
  -22.5890  -12.2310   22.3610 H   0  0  0  0  0  0  0  0  0  0  0  0
  -21.2990  -13.3820   22.1670 H   0  0  0  0  0  0  0  0  0  0  0  0
  -25.5660  -15.3560   20.1170 N   0  0  0  0  0  0  0  0  0  0  0  0
  -24.8120  -16.0200   20.2560 H   0  0  0  0  0  0  0  0  0  0  0  0
  -26.4140  -15.7860   19.7690 H   0  0  0  0  0  0  0  0  0  0  0  0
  1  2  1  0
  2  8  1  0
  2  7  2  0
  3  7  1  0
  3  5  1  0
  4  3  2  0
  6  1  2  0
  6  4  1  0
  9 10  1  0
  9  8  1  0
 11 22  2  0
 12 10  1  0
 12 17  1  0
 13 21  1  0
 13 23  1  0
 14 20  1  0
 14 16  1  0
 15 21  1  0
 16 15  1  0
 17 16  2  0
 18 19  1  0
 18 12  2  0
 19 14  2  0
 20 13  1  0
 21 11  1  0
 23 25  2  0
 24 23  1  0
 26 24  1  0
 27 36  2  0
 27 32  1  0
 28 24  1  0
 28 32  1  0
 29 28  1  0
 30 31  1  0
 30 29  1  0
 31 27  1  0
 32 33  2  0
 33 34  1  0
 35 34  2  0
 36 35  1  0
 37 11  1  0
 37 38  1  0
 37 47  1  0
 38 41  1  0
 39 43  1  0
 39 38  1  0
 40 39  2  0
 43 42  1  0
 45 43  1  0
 45 46  1  0
 45 44  1  0
 47 50  1  1
 47 48  1  0
 49 47  1  0
 51  4  1  0
 51 52  1  0
 53 52  1  0
 53 62  1  0
 54 62  1  0
 55 60  1  0
 56 57  1  0
 56 55  1  0
 58 57  1  0
 58 67  1  0
 58 59  1  0
 60 54  1  0
 60 59  1  0
 61 54  2  0
 62 63  1  0
 64 65  2  0
 65 84  1  0
 66 65  1  0
 66 69  1  0
 67 64  1  0
 67 68  1  0
 68 66  2  0
 69 70  1  0
 70 71  2  0
 72 75  1  0
 72 71  1  0
 73 72  2  0
 74 73  1  0
 74 69  2  0
 75 76  1  0
 76 77  1  0
 77 78  2  0
 79 78  1  0
 79 83  1  0
 80 79  2  0
 81 76  2  0
 81 80  1  0
 82 81  1  0
 84 85  1  0
 85 88  1  0
 85 87  1  0
 86 84  2  0
 89 90  1  0
 89 64  1  0
 91 89  1  0
M  ISO  4   9 101  10 101  54 100  62 100
M  END
>  <TORSDO>  (45) 
F 21

>  <SCORE>  (45) 
-11.629

>  <name>  (45) 
44

>  <ligand_id>  (45) 
44

>  <original_smiles>  (45) 
[H]c1nc(C([H])([H])C([H])([H])C([H])([H])N([H])C(=O)N2C([H])([H])C([H])([H])C([H])([H])C([H])(n3nc(-c4c([H])c([H])c(Oc5c([H])c([H])c(F)c([H])c5F)c([H])c4[H])c(C(=O)N([H])[H])c3N([H])[H])C2([H])[H])c(C([H])([H])[H])nc1C([H])([H])C([H])([H])Oc1c([H])c([H])c2c(c1[H])C([H])([H])N(C(=O)C([H])(N([H])C(=O)C([H])(N([H])C([H])([H])[H])C([H])([H])[H])C(C([H])([H])[H])(C([H])([H])[H])C([H])([H])[H])C([H])(C(=O)N([H])C1([H])c3c([H])c([H])c([H])c([H])c3C([H])([H])C([H])([H])C1([H])[H])C2([H])[H]

>  <smiles>  (45) 
[H]c1nc(C([H])([H])C([H])([H])C([H])([H])N([H])C(=O)N2C([H])([H])C([H])([H])C([H])([H])C([H])(n3nc(-c4c([H])c([H])c(Oc5c([H])c([H])c(F)c([H])c5F)c([H])c4[H])c(C(=O)N([H])[H])c3N([H])[H])C2([H])[H])c(C([H])([H])[H])nc1C([H])([H])C([H])([H])Oc1c([H])c([H])c2c(c1[H])C([H])([H])N(C(=O)C([H])(N([H])C(=O)C([H])(N([H])C([H])([H])[H])C([H])([H])[H])C(C([H])([H])[H])(C([H])([H])[H])C([H])([H])[H])C([H])(C(=O)N([H])C1([H])c3c([H])c([H])c([H])c([H])c3C([H])([H])C([H])([H])C1([H])[H])C2([H])[H]

$$$$
45:0:0
     RDKit          3D

 92100  0  0  1  0  0  0  0  0999 V2000
  -28.1520  -18.2310   20.2040 C   0  0  0  0  0  3  0  0  0  0  0  0
  -29.8290  -19.8810   20.7340 C   0  0  0  0  0  3  0  0  0  0  0  0
  -29.4480  -18.5250   20.6800 C   0  0  0  0  0  0  0  0  0  0  0  0
  -27.3120  -19.2850   19.7960 C   0  0  0  0  0  0  0  0  0  0  0  0
  -28.9270  -20.8650   20.2870 C   0  0  0  0  0  0  0  0  0  0  0  0
  -25.9240  -19.0110   19.2670 C   0  0  0  0  0  1  0  0  0  0  0  0
  -27.6920  -20.5770   19.8350 N   0  0  0  0  0  0  0  0  0  0  0  0
  -30.4400  -17.4470   21.1080 C   0  0  0  0  0  2  0  0  0  0  0  0
  -29.9350  -15.9900   21.0070 C   0  0  0  0  0  2  0  0  0  0  0  0
  -31.3370  -14.1370   20.2290 C   0  0  0  0  0  0  0  0  0  0  0  0
  -30.8830  -11.9230   19.2440 C   0  0  0  0  0  2  0  0  0  0  0  0
  -29.9260  -12.0220   18.0400 C   0  0  0  0  0  2  0  0  0  0  0  0
  -28.4600  -11.9760   18.5070 C   0  0  0  0  0  2  0  0  0  0  0  0
  -28.1720  -12.9700   19.6610 C   0  0  0  0  0  3  0  0  0  0  0  0
  -29.2320  -12.8390   20.7780 C   0  0  0  0  0  2  0  0  0  0  0  0
  -30.5660  -13.0180   20.1730 N   0  0  0  0  0  0  0  0  0  0  0  0
  -32.3620  -14.2920   19.5660 O   0  0  0  0  0  0  0  0  0  0  0  0
  -31.0320  -15.0310   21.1750 N   0  0  0  0  0  0  0  0  0  0  0  0
  -31.8670  -15.4930   21.5040 H   0  0  0  0  0  0  0  0  0  0  0  0
  -25.8740  -13.7650   20.5060 C   0  0  0  0  0  0  0  0  0  0  0  0
  -24.7520  -13.0770   20.8830 C   0  0  0  0  0  0  0  0  0  0  0  0
  -25.0730  -11.6930   20.7510 C   0  0  0  0  0  0  0  0  0  0  0  0
  -26.8170  -12.8020   20.1810 N   0  0  0  0  0  0  0  0  0  0  0  0
  -26.3390  -11.5470   20.3810 N   0  0  0  0  0  0  0  0  0  0  0  0
  -24.2370  -10.4960   20.9020 C   0  0  0  0  0  0  0  0  0  0  0  0
  -24.5890   -9.4540   21.7880 C   0  0  0  0  0  3  0  0  0  0  0  0
  -23.7560   -8.3230   21.9260 C   0  0  0  0  0  3  0  0  0  0  0  0
  -22.5570   -8.2270   21.1790 C   0  0  0  0  0  0  0  0  0  0  0  0
  -22.2250   -9.2580   20.2820 C   0  0  0  0  0  3  0  0  0  0  0  0
  -23.0580  -10.3800   20.1410 C   0  0  0  0  0  3  0  0  0  0  0  0
  -21.6980   -7.1560   21.2310 O   0  0  0  0  0  0  0  0  0  0  0  0
  -21.5620   -6.3990   22.3660 C   0  0  0  0  0  0  0  0  0  0  0  0
  -21.1460   -6.9630   23.5930 C   0  0  0  0  0  3  0  0  0  0  0  0
  -20.9490   -6.1370   24.7180 C   0  0  0  0  0  3  0  0  0  0  0  0
  -21.1590   -4.7490   24.6170 C   0  0  0  0  0  0  0  0  0  0  0  0
  -21.5710   -4.1840   23.3970 C   0  0  0  0  0  3  0  0  0  0  0  0
  -21.7670   -5.0070   22.2740 C   0  0  0  0  0  0  0  0  0  0  0  0
  -22.1410   -4.4570   21.0950 F   0  0  0  0  0  0  0  0  0  0  0  0
  -20.9630   -3.9530   25.6950 F   0  0  0  0  0  0  0  0  0  0  0  0
  -23.4230  -13.6700   21.2520 C   0  0  0  0  0  0  0  0  0  0  0  0
  -22.6750  -13.0010   22.1230 N   0  0  0  0  0  0  0  0  0  0  0  0
  -23.0630  -14.7570   20.8030 O   0  0  0  0  0  0  0  0  0  0  0  0
  -22.9840  -12.1190   22.5050 H   0  0  0  0  0  0  0  0  0  0  0  0
  -21.7820  -13.3750   22.4100 H   0  0  0  0  0  0  0  0  0  0  0  0
  -26.1560  -15.1200   20.3880 N   0  0  0  0  0  0  0  0  0  0  0  0
  -25.4240  -15.8140   20.5080 H   0  0  0  0  0  0  0  0  0  0  0  0
  -26.9830  -15.4860   19.9340 H   0  0  0  0  0  0  0  0  0  0  0  0
  -29.3010  -22.3310   20.2700 C   0  0  0  0  0  2  0  0  0  0  0  0
  -29.1950  -22.9660   18.8720 C   0  0  0  0  0  2  0  0  0  0  0  0
  -29.1780  -24.4940   19.0010 C   0  0  0  0  0  2  0  0  0  0  0  0
  -28.8980  -25.2600   17.7080 C   0  0  0  0  0  2  0  0  0  0  0  0
  -28.6580  -26.6130   18.0830 O   0  0  0  0  0  0  0  0  0  0  0  0
  -24.7000  -30.4790   22.5420 C   0  0  0  0  0  0  0  0  0  0  0  0
  -27.3870  -27.0640   18.3740 C   0  0  0  0  0  0  0  0  0  0  0  0
  -23.4490  -29.3210   20.7440 C   0  0  0  0  0  3  0  0  0  0  0  0
  -24.8740  -28.2360   18.9300 C   0  0  0  0  0  0  0  0  0  0  0  0
  -25.9000  -29.9630   20.4220 C   0  0  0  0  0  2  0  0  0  0  0  0
  -26.0320  -28.7590   19.5140 C   0  0  0  0  0  0  0  0  0  0  0  0
  -27.2860  -28.1750   19.2390 C   0  0  0  0  0  3  0  0  0  0  0  0
  -26.1990  -26.5180   17.8260 C   0  0  0  0  0  3  0  0  0  0  0  0
  -24.9500  -27.1090   18.0950 C   0  0  0  0  0  3  0  0  0  0  0  0
  -23.5770  -28.9420   19.2430 C   0  0  0  0  0  2  0  0  0  0  0  0
  -24.7070  -29.9240   21.2960 N   0  0  0  0  0  0  0  0  0  0  0  0
  -23.6620  -30.5290   23.2180 O   0  0  0  0  0  0  0  0  0  0  0  0
  -22.9790  -28.0740   21.5260 C   0  0  0  0  0  0  0  0  0  0  0  0
  -21.6810  -27.7530   21.4150 N   0  0  0  0  0  0  0  0  0  0  0  0
  -23.7770  -27.4060   22.1880 O   0  0  0  0  0  0  0  0  0  0  0  0
  -21.0900  -28.3680   20.8720 H   0  0  0  0  0  0  0  0  0  0  0  0
  -18.5270  -26.0090   21.6980 C   0  0  0  0  0  0  0  0  0  0  0  0
  -21.0260  -26.5930   22.0210 C   0  0  0  0  0  3  0  0  0  0  0  0
  -21.3270  -25.3060   21.2220 C   0  0  0  0  0  2  0  0  0  0  0  0
  -20.2640  -24.9940   20.1640 C   0  0  0  0  0  2  0  0  0  0  0  0
  -18.8890  -24.8230   20.8180 C   0  0  0  0  0  2  0  0  0  0  0  0
  -19.5320  -26.8480   22.2510 C   0  0  0  0  0  0  0  0  0  0  0  0
  -19.1420  -27.9530   23.0390 C   0  0  0  0  0  3  0  0  0  0  0  0
  -17.7810  -28.2260   23.2770 C   0  0  0  0  0  3  0  0  0  0  0  0
  -16.7930  -27.3860   22.7360 C   0  0  0  0  0  3  0  0  0  0  0  0
  -17.1650  -26.2800   21.9520 C   0  0  0  0  0  3  0  0  0  0  0  0
  -25.9910  -31.0920   23.1740 C   0  0  0  0  0  3  0  0  0  0  0  0
  -25.6100  -32.3470   23.8320 N   0  0  0  0  0  0  0  0  0  0  0  0
  -25.8440  -33.5680   23.3350 C   0  0  0  0  0  0  0  0  0  0  0  0
  -26.4790  -33.7560   22.2930 O   0  0  0  0  0  0  0  0  0  0  0  0
  -25.0390  -32.2670   24.6610 H   0  0  0  0  0  0  0  0  0  0  0  0
  -24.0190  -35.2980   23.4200 C   0  0  0  0  0  1  0  0  0  0  0  0
  -25.2860  -34.7730   24.1160 C   0  0  0  0  0  3  0  0  0  0  0  0
  -27.3700  -35.5430   25.1580 C   0  0  0  0  0  1  0  0  0  0  0  0
  -26.2580  -35.8760   24.2720 N   0  0  0  0  0  0  0  0  0  0  0  0
  -25.8030  -36.7090   24.6350 H   0  0  0  0  0  0  0  0  0  0  0  0
  -26.7080  -30.1230   24.1920 C   0  0  1  0  0  0  0  0  0  0  0  0
  -25.7640  -29.5520   25.2750 C   0  0  0  0  0  1  0  0  0  0  0  0
  -27.3550  -28.9300   23.4490 C   0  0  0  0  0  1  0  0  0  0  0  0
  -27.8570  -30.8720   24.9090 C   0  0  0  0  0  1  0  0  0  0  0  0
  1  3  1  0
  3  2  2  0
  3  8  1  0
  4  7  1  0
  4  1  2  0
  5  2  1  0
  6  4  1  0
  7  5  2  0
  9  8  1  0
  9 18  1  0
 10 18  1  0
 11 16  1  0
 12 13  1  0
 12 11  1  0
 14 13  1  0
 14 23  1  0
 14 15  1  0
 16 10  1  0
 16 15  1  0
 17 10  2  0
 18 19  1  0
 20 21  2  0
 21 40  1  0
 22 21  1  0
 22 25  1  0
 23 24  1  0
 23 20  1  0
 24 22  2  0
 25 26  1  0
 26 27  2  0
 28 31  1  0
 28 27  1  0
 29 28  2  0
 30 29  1  0
 30 25  2  0
 31 32  1  0
 32 33  1  0
 33 34  2  0
 35 34  1  0
 35 39  1  0
 36 35  2  0
 37 32  2  0
 37 36  1  0
 38 37  1  0
 40 41  1  0
 41 44  1  0
 41 43  1  0
 42 40  2  0
 45 20  1  0
 45 46  1  0
 47 45  1  0
 48  5  1  0
 49 50  1  0
 49 48  1  0
 51 52  1  0
 51 50  1  0
 52 54  1  0
 53 64  2  0
 54 59  1  0
 55 63  1  0
 55 65  1  0
 56 62  1  0
 56 58  1  0
 57 63  1  0
 58 57  1  0
 59 58  2  0
 60 61  1  0
 60 54  2  0
 61 56  2  0
 62 55  1  0
 63 53  1  0
 65 67  2  0
 66 65  1  0
 68 66  1  0
 69 78  2  0
 69 74  1  0
 70 66  1  0
 70 74  1  0
 71 70  1  0
 72 73  1  0
 72 71  1  0
 73 69  1  0
 74 75  2  0
 75 76  1  0
 77 76  2  0
 78 77  1  0
 79 53  1  0
 79 80  1  0
 79 89  1  0
 80 83  1  0
 81 80  1  0
 81 85  1  0
 82 81  2  0
 85 84  1  0
 85 87  1  0
 87 88  1  0
 87 86  1  0
 89 92  1  1
 89 90  1  0
 91 89  1  0
M  ISO  4  10 100  18 100  51 101  52 101
M  END
>  <TORSDO>  (46) 
F 22

>  <SCORE>  (46) 
-9.308

>  <name>  (46) 
45

>  <ligand_id>  (46) 
45

>  <original_smiles>  (46) 
[H]c1c([H])c([H])c2c(c1[H])C([H])([H])C([H])([H])C([H])([H])C2([H])N([H])C(=O)C1([H])N(C(=O)C([H])(N([H])C(=O)C([H])(N([H])C([H])([H])[H])C([H])([H])[H])C(C([H])([H])[H])(C([H])([H])[H])C([H])([H])[H])C([H])([H])c2c([H])c(OC([H])([H])C([H])([H])C([H])([H])C([H])([H])c3nc(C([H])([H])[H])c([H])c(C([H])([H])C([H])([H])N([H])C(=O)N4C([H])([H])C([H])([H])C([H])([H])C([H])(n5nc(-c6c([H])c([H])c(Oc7c([H])c([H])c(F)c([H])c7F)c([H])c6[H])c(C(=O)N([H])[H])c5N([H])[H])C4([H])[H])c3[H])c([H])c([H])c2C1([H])[H]

>  <smiles>  (46) 
[H]c1c([H])c([H])c2c(c1[H])C([H])([H])C([H])([H])C([H])([H])C2([H])N([H])C(=O)C1([H])N(C(=O)C([H])(N([H])C(=O)C([H])(N([H])C([H])([H])[H])C([H])([H])[H])C(C([H])([H])[H])(C([H])([H])[H])C([H])([H])[H])C([H])([H])c2c([H])c(OC([H])([H])C([H])([H])C([H])([H])C([H])([H])c3nc(C([H])([H])[H])c([H])c(C([H])([H])C([H])([H])N([H])C(=O)N4C([H])([H])C([H])([H])C([H])([H])C([H])(n5nc(-c6c([H])c([H])c(Oc7c([H])c([H])c(F)c([H])c7F)c([H])c6[H])c(C(=O)N([H])[H])c5N([H])[H])C4([H])[H])c3[H])c([H])c([H])c2C1([H])[H]

$$$$
46:0:0
     RDKit          3D

 92100  0  0  1  0  0  0  0  0999 V2000
  -30.3640  -21.8840   20.8250 C   0  0  0  0  0  0  0  0  0  0  0  0
  -30.5310  -20.5580   20.4140 C   0  0  0  0  0  0  0  0  0  0  0  0
  -32.4800  -21.4450   20.9280 C   0  0  0  0  0  0  0  0  0  0  0  0
  -33.9520  -21.5840   21.1340 C   0  0  0  0  0  1  0  0  0  0  0  0
  -32.6510  -19.2200   19.8430 C   0  0  0  0  0  1  0  0  0  0  0  0
  -31.5990  -22.3860   21.2260 N   0  0  0  0  0  0  0  0  0  0  0  0
  -31.9190  -20.3560   20.3780 N   0  0  0  0  0  0  0  0  0  0  0  0
  -29.1520  -22.7970   20.9660 C   0  0  0  0  0  2  0  0  0  0  0  0
  -29.3350  -24.2380   20.3710 C   0  0  0  0  0  2  0  0  0  0  0  0
  -28.1940  -25.2350   20.7250 C   0  0  0  0  0  2  0  0  0  0  0  0
  -28.3820  -26.5920   20.2360 O   0  0  0  0  0  0  0  0  0  0  0  0
  -24.6020  -31.8730   23.2450 C   0  0  0  0  0  0  0  0  0  0  0  0
  -27.2410  -27.3810   20.2070 C   0  0  0  0  0  0  0  0  0  0  0  0
  -23.4020  -30.4670   21.6050 C   0  0  0  0  0  3  0  0  0  0  0  0
  -24.8600  -28.9270   20.1850 C   0  0  0  0  0  0  0  0  0  0  0  0
  -25.9340  -30.8110   21.4220 C   0  0  0  0  0  2  0  0  0  0  0  0
  -26.0200  -29.4410   20.7810 C   0  0  0  0  0  0  0  0  0  0  0  0
  -27.2160  -28.6770   20.7830 C   0  0  0  0  0  3  0  0  0  0  0  0
  -26.0650  -26.9030   19.5850 C   0  0  0  0  0  3  0  0  0  0  0  0
  -24.8810  -27.6610   19.5800 C   0  0  0  0  0  3  0  0  0  0  0  0
  -23.6160  -29.7890   20.2270 C   0  0  0  0  0  2  0  0  0  0  0  0
  -24.6640  -31.0670   22.1480 N   0  0  0  0  0  0  0  0  0  0  0  0
  -23.5190  -32.1470   23.7800 O   0  0  0  0  0  0  0  0  0  0  0  0
  -22.7470  -29.4470   22.5670 C   0  0  0  0  0  0  0  0  0  0  0  0
  -21.4220  -29.2640   22.4380 N   0  0  0  0  0  0  0  0  0  0  0  0
  -23.4280  -28.8240   23.3850 O   0  0  0  0  0  0  0  0  0  0  0  0
  -20.9310  -29.8190   21.7510 H   0  0  0  0  0  0  0  0  0  0  0  0
  -18.0480  -28.0690   22.9380 C   0  0  0  0  0  0  0  0  0  0  0  0
  -20.6050  -28.3290   23.2120 C   0  0  0  0  0  3  0  0  0  0  0  0
  -20.7080  -26.8940   22.6460 C   0  0  0  0  0  2  0  0  0  0  0  0
  -19.6090  -26.5650   21.6310 C   0  0  0  0  0  2  0  0  0  0  0  0
  -18.2260  -26.7160   22.2700 C   0  0  0  0  0  2  0  0  0  0  0  0
  -19.1650  -28.8330   23.3660 C   0  0  0  0  0  0  0  0  0  0  0  0
  -18.9450  -30.1000   23.9490 C   0  0  0  0  0  3  0  0  0  0  0  0
  -17.6400  -30.6020   24.1080 C   0  0  0  0  0  3  0  0  0  0  0  0
  -16.5360  -29.8340   23.6980 C   0  0  0  0  0  3  0  0  0  0  0  0
  -16.7410  -28.5700   23.1180 C   0  0  0  0  0  3  0  0  0  0  0  0
  -25.8860  -32.5110   23.8640 C   0  0  0  0  0  3  0  0  0  0  0  0
  -25.5720  -33.9090   24.1870 N   0  0  0  0  0  0  0  0  0  0  0  0
  -25.9040  -34.9580   23.4240 C   0  0  0  0  0  0  0  0  0  0  0  0
  -26.5770  -34.8530   22.3950 O   0  0  0  0  0  0  0  0  0  0  0  0
  -24.9750  -34.0660   24.9850 H   0  0  0  0  0  0  0  0  0  0  0  0
  -24.1720  -36.7450   23.0590 C   0  0  0  0  0  1  0  0  0  0  0  0
  -25.4130  -36.3480   23.8760 C   0  0  0  0  0  3  0  0  0  0  0  0
  -27.5420  -37.2360   24.7110 C   0  0  0  0  0  1  0  0  0  0  0  0
  -26.4430  -37.4030   23.7640 N   0  0  0  0  0  0  0  0  0  0  0  0
  -26.0340  -38.3220   23.9130 H   0  0  0  0  0  0  0  0  0  0  0  0
  -26.4060  -31.7470   25.1440 C   0  0  1  0  0  0  0  0  0  0  0  0
  -25.3140  -31.5090   26.2140 C   0  0  0  0  0  1  0  0  0  0  0  0
  -26.9950  -30.3710   24.7580 C   0  0  0  0  0  1  0  0  0  0  0  0
  -27.5540  -32.5490   25.8030 C   0  0  0  0  0  1  0  0  0  0  0  0
  -29.5300  -19.5070   19.9440 C   0  0  0  0  0  2  0  0  0  0  0  0
  -29.3640  -18.1590   20.7420 C   0  0  0  0  0  2  0  0  0  0  0  0
  -30.3420  -16.9900   20.4030 C   0  0  0  0  0  2  0  0  0  0  0  0
  -30.6030  -14.5120   20.4240 C   0  0  0  0  0  0  0  0  0  0  0  0
  -30.3120  -12.3140   19.3550 C   0  0  0  0  0  2  0  0  0  0  0  0
  -29.3880  -12.4980   18.1350 C   0  0  0  0  0  2  0  0  0  0  0  0
  -27.9120  -12.3520   18.5520 C   0  0  0  0  0  2  0  0  0  0  0  0
  -27.5570  -13.2080   19.8000 C   0  0  0  0  0  3  0  0  0  0  0  0
  -28.6080  -13.0410   20.9220 C   0  0  0  0  0  2  0  0  0  0  0  0
  -29.9290  -13.3320   20.3490 N   0  0  0  0  0  0  0  0  0  0  0  0
  -31.7630  -14.6330   20.0240 O   0  0  0  0  0  0  0  0  0  0  0  0
  -29.8780  -15.6160   20.7240 N   0  0  0  0  0  0  0  0  0  0  0  0
  -28.9210  -15.4860   21.0130 H   0  0  0  0  0  0  0  0  0  0  0  0
  -25.1560  -13.8090   20.4920 C   0  0  0  0  0  0  0  0  0  0  0  0
  -24.0890  -13.0360   20.8610 C   0  0  0  0  0  0  0  0  0  0  0  0
  -24.5560  -11.6850   20.8450 C   0  0  0  0  0  0  0  0  0  0  0  0
  -26.2060  -12.9300   20.2750 N   0  0  0  0  0  0  0  0  0  0  0  0
  -25.8490  -11.6480   20.5480 N   0  0  0  0  0  0  0  0  0  0  0  0
  -23.8320  -10.4220   21.0410 C   0  0  0  0  0  0  0  0  0  0  0  0
  -24.2650   -9.4620   21.9820 C   0  0  0  0  0  3  0  0  0  0  0  0
  -23.5420   -8.2630   22.1640 C   0  0  0  0  0  3  0  0  0  0  0  0
  -22.3730   -8.0180   21.4060 C   0  0  0  0  0  0  0  0  0  0  0  0
  -21.9610   -8.9670   20.4530 C   0  0  0  0  0  3  0  0  0  0  0  0
  -22.6840  -10.1560   20.2690 C   0  0  0  0  0  3  0  0  0  0  0  0
  -21.6210   -6.8720   21.4980 O   0  0  0  0  0  0  0  0  0  0  0  0
  -21.5800   -6.1280   22.6500 C   0  0  0  0  0  0  0  0  0  0  0  0
  -21.1600   -6.6820   23.8800 C   0  0  0  0  0  3  0  0  0  0  0  0
  -21.0660   -5.8640   25.0230 C   0  0  0  0  0  3  0  0  0  0  0  0
  -21.3790   -4.4950   24.9390 C   0  0  0  0  0  0  0  0  0  0  0  0
  -21.7910   -3.9410   23.7130 C   0  0  0  0  0  3  0  0  0  0  0  0
  -21.8870   -4.7550   22.5720 C   0  0  0  0  0  0  0  0  0  0  0  0
  -22.2640   -4.2120   21.3890 F   0  0  0  0  0  0  0  0  0  0  0  0
  -21.2810   -3.7060   26.0350 F   0  0  0  0  0  0  0  0  0  0  0  0
  -22.6880  -13.5100   21.1170 C   0  0  0  0  0  0  0  0  0  0  0  0
  -21.9560  -12.8180   21.9820 N   0  0  0  0  0  0  0  0  0  0  0  0
  -22.2500  -14.5290   20.5850 O   0  0  0  0  0  0  0  0  0  0  0  0
  -22.3240  -11.9940   22.4360 H   0  0  0  0  0  0  0  0  0  0  0  0
  -21.0140  -13.1160   22.1920 H   0  0  0  0  0  0  0  0  0  0  0  0
  -25.3160  -15.1790   20.3010 N   0  0  0  0  0  0  0  0  0  0  0  0
  -24.5420  -15.8270   20.3940 H   0  0  0  0  0  0  0  0  0  0  0  0
  -26.1600  -15.6190   19.9560 H   0  0  0  0  0  0  0  0  0  0  0  0
  1  8  1  0
  1  6  1  0
  2  1  2  0
  3  4  1  0
  3  6  2  0
  5  7  1  0
  7  2  1  0
  7  3  1  0
  9 10  1  0
  9  8  1  0
 11 10  1  0
 12 23  2  0
 13 11  1  0
 13 18  1  0
 14 22  1  0
 14 24  1  0
 15 21  1  0
 15 17  1  0
 16 22  1  0
 17 18  2  0
 17 16  1  0
 19 13  2  0
 20 19  1  0
 20 15  2  0
 21 14  1  0
 22 12  1  0
 24 26  2  0
 25 24  1  0
 27 25  1  0
 28 37  2  0
 28 33  1  0
 29 25  1  0
 29 33  1  0
 30 29  1  0
 31 32  1  0
 31 30  1  0
 32 28  1  0
 33 34  2  0
 34 35  1  0
 36 35  2  0
 37 36  1  0
 38 12  1  0
 38 39  1  0
 38 48  1  0
 39 42  1  0
 40 44  1  0
 40 39  1  0
 41 40  2  0
 44 43  1  0
 46 44  1  0
 46 47  1  0
 46 45  1  0
 48 51  1  1
 48 49  1  0
 50 48  1  0
 52  2  1  0
 52 53  1  0
 54 63  1  0
 54 53  1  0
 55 63  1  0
 56 61  1  0
 57 58  1  0
 57 56  1  0
 59 58  1  0
 59 68  1  0
 59 60  1  0
 61 55  1  0
 61 60  1  0
 62 55  2  0
 63 64  1  0
 65 66  2  0
 66 85  1  0
 67 66  1  0
 67 70  1  0
 68 65  1  0
 68 69  1  0
 69 67  2  0
 70 71  1  0
 71 72  2  0
 73 76  1  0
 73 72  1  0
 74 73  2  0
 75 74  1  0
 75 70  2  0
 76 77  1  0
 77 78  1  0
 78 79  2  0
 80 79  1  0
 80 84  1  0
 81 80  2  0
 82 77  2  0
 82 81  1  0
 83 82  1  0
 85 86  1  0
 86 89  1  0
 86 88  1  0
 87 85  2  0
 90 91  1  0
 90 65  1  0
 92 90  1  0
M  ISO  4  10 101  11 101  55 100  63 100
M  END
>  <TORSDO>  (47) 
F 22

>  <SCORE>  (47) 
-12.944

>  <name>  (47) 
46

>  <ligand_id>  (47) 
46

>  <original_smiles>  (47) 
[H]c1c([H])c([H])c2c(c1[H])C([H])([H])C([H])([H])C([H])([H])C2([H])N([H])C(=O)C1([H])N(C(=O)C([H])(N([H])C(=O)C([H])(N([H])C([H])([H])[H])C([H])([H])[H])C(C([H])([H])[H])(C([H])([H])[H])C([H])([H])[H])C([H])([H])c2c([H])c(OC([H])([H])C([H])([H])C([H])([H])c3nc(C([H])([H])[H])n(C([H])([H])[H])c3C([H])([H])C([H])([H])C([H])([H])N([H])C(=O)N3C([H])([H])C([H])([H])C([H])([H])C([H])(n4nc(-c5c([H])c([H])c(Oc6c([H])c([H])c(F)c([H])c6F)c([H])c5[H])c(C(=O)N([H])[H])c4N([H])[H])C3([H])[H])c([H])c([H])c2C1([H])[H]

>  <smiles>  (47) 
[H]c1c([H])c([H])c2c(c1[H])C([H])([H])C([H])([H])C([H])([H])C2([H])N([H])C(=O)C1([H])N(C(=O)C([H])(N([H])C(=O)C([H])(N([H])C([H])([H])[H])C([H])([H])[H])C(C([H])([H])[H])(C([H])([H])[H])C([H])([H])[H])C([H])([H])c2c([H])c(OC([H])([H])C([H])([H])C([H])([H])c3nc(C([H])([H])[H])n(C([H])([H])[H])c3C([H])([H])C([H])([H])C([H])([H])N([H])C(=O)N3C([H])([H])C([H])([H])C([H])([H])C([H])(n4nc(-c5c([H])c([H])c(Oc6c([H])c([H])c(F)c([H])c6F)c([H])c5[H])c(C(=O)N([H])[H])c4N([H])[H])C3([H])[H])c([H])c([H])c2C1([H])[H]

$$$$
47:0:0
     RDKit          3D

 94102  0  0  1  0  0  0  0  0999 V2000
  -31.2060  -21.7020   20.5400 C   0  0  0  0  0  3  0  0  0  0  0  0
  -30.6580  -22.9730   20.2050 C   0  0  0  0  0  0  0  0  0  0  0  0
  -30.3900  -20.7900   19.9250 C   0  0  0  0  0  0  0  0  0  0  0  0
  -29.5880  -22.8580   19.4390 N   0  0  0  0  0  0  0  0  0  0  0  0
  -29.4250  -21.5270   19.2590 N   0  0  0  0  0  0  0  0  0  0  0  0
  -31.0900  -24.3290   20.7020 C   0  0  0  0  0  2  0  0  0  0  0  0
  -30.7940  -25.5030   19.7470 C   0  0  0  0  0  2  0  0  0  0  0  0
  -29.2960  -25.8160   19.5240 C   0  0  0  0  0  2  0  0  0  0  0  0
  -29.1350  -27.2330   19.5340 O   0  0  0  0  0  0  0  0  0  0  0  0
  -24.5890  -31.4290   23.0460 C   0  0  0  0  0  0  0  0  0  0  0  0
  -27.8570  -27.7400   19.6000 C   0  0  0  0  0  0  0  0  0  0  0  0
  -23.6150  -30.0970   21.2020 C   0  0  0  0  0  3  0  0  0  0  0  0
  -25.2890  -28.9190   19.6820 C   0  0  0  0  0  0  0  0  0  0  0  0
  -26.0790  -30.7790   21.1580 C   0  0  0  0  0  2  0  0  0  0  0  0
  -26.3520  -29.5130   20.3720 C   0  0  0  0  0  0  0  0  0  0  0  0
  -27.6400  -28.9350   20.3210 C   0  0  0  0  0  3  0  0  0  0  0  0
  -26.7730  -27.1450   18.9180 C   0  0  0  0  0  3  0  0  0  0  0  0
  -25.4930  -27.7360   18.9500 C   0  0  0  0  0  3  0  0  0  0  0  0
  -23.9480  -29.6150   19.7640 C   0  0  0  0  0  2  0  0  0  0  0  0
  -24.7740  -30.7780   21.8620 N   0  0  0  0  0  0  0  0  0  0  0  0
  -23.4660  -31.5050   23.5620 O   0  0  0  0  0  0  0  0  0  0  0  0
  -23.0670  -28.8990   22.0100 C   0  0  0  0  0  0  0  0  0  0  0  0
  -21.7780  -28.5830   21.8030 N   0  0  0  0  0  0  0  0  0  0  0  0
  -23.7950  -28.2660   22.7770 O   0  0  0  0  0  0  0  0  0  0  0  0
  -21.2490  -29.1540   21.1610 H   0  0  0  0  0  0  0  0  0  0  0  0
  -18.5370  -27.0090   22.0700 C   0  0  0  0  0  0  0  0  0  0  0  0
  -21.0550  -27.4730   22.4230 C   0  0  0  0  0  3  0  0  0  0  0  0
  -21.3030  -26.1540   21.6550 C   0  0  0  0  0  2  0  0  0  0  0  0
  -20.2420  -25.8690   20.5870 C   0  0  0  0  0  2  0  0  0  0  0  0
  -18.8480  -25.7900   21.2190 C   0  0  0  0  0  2  0  0  0  0  0  0
  -19.5720  -27.8070   22.6230 C   0  0  0  0  0  0  0  0  0  0  0  0
  -19.2290  -28.9510   23.3770 C   0  0  0  0  0  3  0  0  0  0  0  0
  -17.8810  -29.2960   23.5850 C   0  0  0  0  0  3  0  0  0  0  0  0
  -16.8590  -28.4930   23.0510 C   0  0  0  0  0  3  0  0  0  0  0  0
  -17.1880  -27.3500   22.2980 C   0  0  0  0  0  3  0  0  0  0  0  0
  -25.7690  -32.1260   23.7930 C   0  0  0  0  0  3  0  0  0  0  0  0
  -25.3440  -33.4970   24.1110 N   0  0  0  0  0  0  0  0  0  0  0  0
  -25.6710  -34.5770   23.3920 C   0  0  0  0  0  0  0  0  0  0  0  0
  -26.4290  -34.5320   22.4190 O   0  0  0  0  0  0  0  0  0  0  0  0
  -24.6830  -33.6050   24.8650 H   0  0  0  0  0  0  0  0  0  0  0  0
  -23.8500  -36.2440   22.9230 C   0  0  0  0  0  1  0  0  0  0  0  0
  -25.0560  -35.9240   23.8190 C   0  0  0  0  0  3  0  0  0  0  0  0
  -27.0520  -36.9520   24.8130 C   0  0  0  0  0  1  0  0  0  0  0  0
  -26.0180  -37.0460   23.7850 N   0  0  0  0  0  0  0  0  0  0  0  0
  -25.5400  -37.9350   23.8970 H   0  0  0  0  0  0  0  0  0  0  0  0
  -26.2170  -31.3650   25.0990 C   0  0  1  0  0  0  0  0  0  0  0  0
  -25.0470  -31.0350   26.0570 C   0  0  0  0  0  1  0  0  0  0  0  0
  -26.9210  -30.0360   24.7370 C   0  0  0  0  0  1  0  0  0  0  0  0
  -27.2480  -32.2180   25.8740 C   0  0  0  0  0  1  0  0  0  0  0  0
  -30.4040  -19.2790   19.9640 C   0  0  0  0  0  2  0  0  0  0  0  0
  -31.4680  -19.4610   17.6060 C   0  0  0  0  0  1  0  0  0  0  0  0
  -30.8790  -18.5290   18.6860 C   0  0  0  0  0  3  0  0  0  0  0  0
  -31.9240  -17.4320   19.0140 C   0  0  0  0  0  2  0  0  0  0  0  0
  -32.1510  -15.1310   19.7890 C   0  0  0  0  0  0  0  0  0  0  0  0
  -31.7390  -12.8380   19.0310 C   0  0  0  0  0  2  0  0  0  0  0  0
  -30.7960  -12.9070   17.8140 C   0  0  0  0  0  2  0  0  0  0  0  0
  -29.3230  -12.8890   18.2700 C   0  0  0  0  0  2  0  0  0  0  0  0
  -29.0300  -13.9040   19.4130 C   0  0  0  0  0  3  0  0  0  0  0  0
  -30.1070  -13.8380   20.5230 C   0  0  0  0  0  2  0  0  0  0  0  0
  -31.4220  -13.9880   19.8880 N   0  0  0  0  0  0  0  0  0  0  0  0
  -33.3230  -15.1470   19.4100 O   0  0  0  0  0  0  0  0  0  0  0  0
  -31.4460  -16.2780   19.7940 N   0  0  0  0  0  0  0  0  0  0  0  0
  -30.4750  -16.2390   20.0590 H   0  0  0  0  0  0  0  0  0  0  0  0
  -26.7400  -14.6940   20.2790 C   0  0  0  0  0  0  0  0  0  0  0  0
  -25.6210  -14.0050   20.6590 C   0  0  0  0  0  0  0  0  0  0  0  0
  -25.9470  -12.6190   20.5360 C   0  0  0  0  0  0  0  0  0  0  0  0
  -27.6830  -13.7320   19.9490 N   0  0  0  0  0  0  0  0  0  0  0  0
  -27.2120  -12.4760   20.1620 N   0  0  0  0  0  0  0  0  0  0  0  0
  -25.1120  -11.4210   20.7000 C   0  0  0  0  0  0  0  0  0  0  0  0
  -25.4270  -10.4290   21.6530 C   0  0  0  0  0  3  0  0  0  0  0  0
  -24.5970   -9.2980   21.8050 C   0  0  0  0  0  3  0  0  0  0  0  0
  -23.4420   -9.1510   21.0000 C   0  0  0  0  0  0  0  0  0  0  0  0
  -23.1460  -10.1290   20.0360 C   0  0  0  0  0  3  0  0  0  0  0  0
  -23.9760  -11.2520   19.8820 C   0  0  0  0  0  3  0  0  0  0  0  0
  -22.5960   -8.0680   21.0550 O   0  0  0  0  0  0  0  0  0  0  0  0
  -22.3480   -7.4090   22.2320 C   0  0  0  0  0  0  0  0  0  0  0  0
  -21.8040   -8.0660   23.3570 C   0  0  0  0  0  3  0  0  0  0  0  0
  -21.5070   -7.3320   24.5220 C   0  0  0  0  0  3  0  0  0  0  0  0
  -21.7410   -5.9450   24.5640 C   0  0  0  0  0  0  0  0  0  0  0  0
  -22.2770   -5.2880   23.4420 C   0  0  0  0  0  3  0  0  0  0  0  0
  -22.5780   -6.0180   22.2790 C   0  0  0  0  0  0  0  0  0  0  0  0
  -23.0740   -5.3770   21.1930 F   0  0  0  0  0  0  0  0  0  0  0  0
  -21.4460   -5.2400   25.6820 F   0  0  0  0  0  0  0  0  0  0  0  0
  -24.2870  -14.5930   21.0240 C   0  0  0  0  0  0  0  0  0  0  0  0
  -23.5410  -13.9160   21.8870 N   0  0  0  0  0  0  0  0  0  0  0  0
  -23.9230  -15.6810   20.5790 O   0  0  0  0  0  0  0  0  0  0  0  0
  -23.8510  -13.0320   22.2650 H   0  0  0  0  0  0  0  0  0  0  0  0
  -22.6480  -14.2850   22.1760 H   0  0  0  0  0  0  0  0  0  0  0  0
  -27.0340  -16.0520   20.1660 N   0  0  0  0  0  0  0  0  0  0  0  0
  -26.3520  -16.7810   20.3540 H   0  0  0  0  0  0  0  0  0  0  0  0
  -27.9190  -16.4210   19.8380 H   0  0  0  0  0  0  0  0  0  0  0  0
  -28.2700  -21.0590   18.5200 C   0  0  0  0  0  2  0  0  0  0  0  0
  -25.8790  -20.2440   18.9180 C   0  0  0  0  0  1  0  0  0  0  0  0
  -26.9950  -21.1880   19.3690 C   0  0  0  0  0  2  0  0  0  0  0  0
  2  1  1  0
  2  6  1  0
  3 50  1  0
  3  1  2  0
  4  2  2  0
  5  4  1  0
  5  3  1  0
  7  6  1  0
  8  9  1  0
  8  7  1  0
  9 11  1  0
 10 21  2  0
 11 16  1  0
 12 20  1  0
 12 22  1  0
 13 19  1  0
 13 15  1  0
 14 20  1  0
 15 14  1  0
 16 15  2  0
 17 18  1  0
 17 11  2  0
 18 13  2  0
 19 12  1  0
 20 10  1  0
 22 24  2  0
 23 22  1  0
 25 23  1  0
 26 35  2  0
 26 31  1  0
 27 23  1  0
 27 31  1  0
 28 27  1  0
 29 30  1  0
 29 28  1  0
 30 26  1  0
 31 32  2  0
 32 33  1  0
 34 33  2  0
 35 34  1  0
 36 10  1  0
 36 37  1  0
 36 46  1  0
 37 40  1  0
 38 42  1  0
 38 37  1  0
 39 38  2  0
 42 41  1  0
 44 42  1  0
 44 45  1  0
 44 43  1  0
 46 49  1  1
 46 47  1  0
 48 46  1  0
 52 51  1  0
 52 53  1  0
 52 50  1  0
 53 62  1  0
 54 62  1  0
 54 60  1  0
 55 60  1  0
 56 57  1  0
 56 55  1  0
 58 57  1  0
 58 67  1  0
 58 59  1  0
 60 59  1  0
 61 54  2  0
 62 63  1  0
 64 65  2  0
 65 84  1  0
 66 65  1  0
 66 69  1  0
 67 68  1  0
 67 64  1  0
 68 66  2  0
 69 70  1  0
 70 71  2  0
 72 75  1  0
 72 71  1  0
 73 72  2  0
 74 73  1  0
 74 69  2  0
 75 76  1  0
 76 81  2  0
 76 77  1  0
 77 78  2  0
 78 79  1  0
 79 83  1  0
 80 79  2  0
 81 80  1  0
 82 81  1  0
 84 85  1  0
 85 88  1  0
 85 87  1  0
 86 84  2  0
 89 64  1  0
 89 90  1  0
 91 89  1  0
 92  5  1  0
 92 94  1  0
 93 94  1  0
M  ISO  4   8 101   9 101  54 100  62 100
M  END
>  <TORSDO>  (48) 
F 24

>  <SCORE>  (48) 
-8.595

>  <name>  (48) 
47

>  <ligand_id>  (48) 
47

>  <original_smiles>  (48) 
[H]c1c([H])c([H])c2c(c1[H])C([H])([H])C([H])([H])C([H])([H])C2([H])N([H])C(=O)C1([H])N(C(=O)C([H])(N([H])C(=O)C([H])(N([H])C([H])([H])[H])C([H])([H])[H])C(C([H])([H])[H])(C([H])([H])[H])C([H])([H])[H])C([H])([H])c2c([H])c(OC([H])([H])C([H])([H])C([H])([H])c3nn(C([H])([H])C([H])([H])C([H])([H])[H])c(C([H])([H])C([H])(C([H])([H])[H])C([H])([H])N([H])C(=O)N4C([H])([H])C([H])([H])C([H])([H])C([H])(n5nc(-c6c([H])c([H])c(Oc7c([H])c([H])c(F)c([H])c7F)c([H])c6[H])c(C(=O)N([H])[H])c5N([H])[H])C4([H])[H])c3[H])c([H])c([H])c2C1([H])[H]

>  <smiles>  (48) 
[H]c1c([H])c([H])c2c(c1[H])C([H])([H])C([H])([H])C([H])([H])C2([H])N([H])C(=O)C1([H])N(C(=O)C([H])(N([H])C(=O)C([H])(N([H])C([H])([H])[H])C([H])([H])[H])C(C([H])([H])[H])(C([H])([H])[H])C([H])([H])[H])C([H])([H])c2c([H])c(OC([H])([H])C([H])([H])C([H])([H])c3nn(C([H])([H])C([H])([H])C([H])([H])[H])c(C([H])([H])C([H])(C([H])([H])[H])C([H])([H])N([H])C(=O)N4C([H])([H])C([H])([H])C([H])([H])C([H])(n5nc(-c6c([H])c([H])c(Oc7c([H])c([H])c(F)c([H])c7F)c([H])c6[H])c(C(=O)N([H])[H])c5N([H])[H])C4([H])[H])c3[H])c([H])c([H])c2C1([H])[H]

$$$$
48:0:0
     RDKit          3D

 93101  0  0  1  0  0  0  0  0999 V2000
  -30.2100  -21.7160   21.0700 C   0  0  0  0  0  3  0  0  0  0  0  0
  -28.6840  -22.0050   19.4880 C   0  0  0  0  0  3  0  0  0  0  0  0
  -29.4800  -22.7150   20.3480 C   0  0  0  0  0  0  0  0  0  0  0  0
  -29.8190  -20.4540   20.6860 C   0  0  0  0  0  0  0  0  0  0  0  0
  -28.8440  -20.6430   19.7060 N   0  0  0  0  0  0  0  0  0  0  0  0
  -29.5580  -24.2420   20.5370 C   0  0  0  0  0  3  0  0  0  0  0  0
  -28.4640  -25.0770   19.8120 C   0  0  0  0  0  3  0  0  0  0  0  0
  -28.6180  -26.5200   19.8930 O   0  0  0  0  0  0  0  0  0  0  0  0
  -24.6570  -31.5980   22.9810 C   0  0  0  0  0  0  0  0  0  0  0  0
  -27.4480  -27.2680   19.8420 C   0  0  0  0  0  0  0  0  0  0  0  0
  -23.5070  -30.1990   21.2990 C   0  0  0  0  0  3  0  0  0  0  0  0
  -25.0160  -28.7400   19.8490 C   0  0  0  0  0  0  0  0  0  0  0  0
  -26.0260  -30.6300   21.1320 C   0  0  0  0  0  2  0  0  0  0  0  0
  -26.1590  -29.2760   20.4590 C   0  0  0  0  0  0  0  0  0  0  0  0
  -27.3780  -28.5520   20.4430 C   0  0  0  0  0  3  0  0  0  0  0  0
  -26.2830  -26.7650   19.2130 C   0  0  0  0  0  3  0  0  0  0  0  0
  -25.0790  -27.4890   19.2160 C   0  0  0  0  0  3  0  0  0  0  0  0
  -23.7460  -29.5590   19.9060 C   0  0  0  0  0  2  0  0  0  0  0  0
  -24.7480  -30.8240   21.8620 N   0  0  0  0  0  0  0  0  0  0  0  0
  -23.5640  -31.8270   23.5170 O   0  0  0  0  0  0  0  0  0  0  0  0
  -22.8780  -29.1390   22.2320 C   0  0  0  0  0  0  0  0  0  0  0  0
  -21.5500  -28.9600   22.1290 N   0  0  0  0  0  0  0  0  0  0  0  0
  -23.5790  -28.4820   23.0050 O   0  0  0  0  0  0  0  0  0  0  0  0
  -21.0450  -29.5450   21.4770 H   0  0  0  0  0  0  0  0  0  0  0  0
  -18.1800  -27.7800   22.6930 C   0  0  0  0  0  0  0  0  0  0  0  0
  -20.7500  -27.9910   22.8770 C   0  0  0  0  0  3  0  0  0  0  0  0
  -20.8080  -26.5930   22.2190 C   0  0  0  0  0  2  0  0  0  0  0  0
  -19.6640  -26.3430   21.2330 C   0  0  0  0  0  2  0  0  0  0  0  0
  -18.3100  -26.4680   21.9380 C   0  0  0  0  0  2  0  0  0  0  0  0
  -19.3260  -28.5040   23.1200 C   0  0  0  0  0  0  0  0  0  0  0  0
  -19.1490  -29.7340   23.7870 C   0  0  0  0  0  3  0  0  0  0  0  0
  -17.8600  -30.2420   24.0330 C   0  0  0  0  0  3  0  0  0  0  0  0
  -16.7290  -29.5150   23.6230 C   0  0  0  0  0  3  0  0  0  0  0  0
  -16.8910  -28.2860   22.9580 C   0  0  0  0  0  3  0  0  0  0  0  0
  -25.9180  -32.2530   23.6260 C   0  0  0  0  0  3  0  0  0  0  0  0
  -25.5530  -33.6220   24.0150 N   0  0  0  0  0  0  0  0  0  0  0  0
  -25.8650  -34.7210   23.3150 C   0  0  0  0  0  0  0  0  0  0  0  0
  -26.5590  -34.6900   22.2950 O   0  0  0  0  0  0  0  0  0  0  0  0
  -24.9320  -33.7180   24.8050 H   0  0  0  0  0  0  0  0  0  0  0  0
  -24.0790  -36.4670   23.0150 C   0  0  0  0  0  1  0  0  0  0  0  0
  -25.3210  -36.0680   23.8270 C   0  0  0  0  0  3  0  0  0  0  0  0
  -27.4140  -36.9840   24.7290 C   0  0  0  0  0  1  0  0  0  0  0  0
  -26.3160  -37.1620   23.7820 N   0  0  0  0  0  0  0  0  0  0  0  0
  -25.8750  -38.0570   23.9720 H   0  0  0  0  0  0  0  0  0  0  0  0
  -26.4710  -31.4490   24.8660 C   0  0  1  0  0  0  0  0  0  0  0  0
  -25.3940  -31.1240   25.9290 C   0  0  0  0  0  1  0  0  0  0  0  0
  -27.1030  -30.1130   24.4120 C   0  0  0  0  0  1  0  0  0  0  0  0
  -27.5940  -32.2590   25.5570 C   0  0  0  0  0  1  0  0  0  0  0  0
  -30.2510  -19.1170   21.2960 C   0  0  0  0  0  2  0  0  0  0  0  0
  -30.1090  -17.7860   20.4960 C   0  0  0  0  0  2  0  0  0  0  0  0
  -30.9140  -16.6010   21.1070 C   0  0  0  0  0  2  0  0  0  0  0  0
  -30.9110  -14.3070   20.0320 C   0  0  0  0  0  0  0  0  0  0  0  0
  -30.4950  -12.1440   18.9010 C   0  0  0  0  0  2  0  0  0  0  0  0
  -29.4770  -12.3300   17.7560 C   0  0  0  0  0  2  0  0  0  0  0  0
  -28.0310  -12.2300   18.2800 C   0  0  0  0  0  2  0  0  0  0  0  0
  -27.7920  -13.0990   19.5440 C   0  0  0  0  0  3  0  0  0  0  0  0
  -28.9080  -12.8700   20.5870 C   0  0  0  0  0  2  0  0  0  0  0  0
  -30.2010  -13.1500   19.9360 N   0  0  0  0  0  0  0  0  0  0  0  0
  -31.9680  -14.4960   19.4210 O   0  0  0  0  0  0  0  0  0  0  0  0
  -30.3560  -15.2720   20.7900 N   0  0  0  0  0  0  0  0  0  0  0  0
  -29.4880  -15.0260   21.2450 H   0  0  0  0  0  0  0  0  0  0  0  0
  -25.4710  -13.7810   20.4160 C   0  0  0  0  0  0  0  0  0  0  0  0
  -24.4000  -13.0420   20.8420 C   0  0  0  0  0  0  0  0  0  0  0  0
  -24.8070  -11.6740   20.7590 C   0  0  0  0  0  0  0  0  0  0  0  0
  -26.4650  -12.8670   20.1060 N   0  0  0  0  0  0  0  0  0  0  0  0
  -26.0720  -11.5930   20.3660 N   0  0  0  0  0  0  0  0  0  0  0  0
  -24.0500  -10.4360   20.9770 C   0  0  0  0  0  0  0  0  0  0  0  0
  -24.4910   -9.4500   21.8870 C   0  0  0  0  0  3  0  0  0  0  0  0
  -23.7360   -8.2760   22.0920 C   0  0  0  0  0  3  0  0  0  0  0  0
  -22.5240   -8.0790   21.3880 C   0  0  0  0  0  0  0  0  0  0  0  0
  -22.1020   -9.0530   20.4660 C   0  0  0  0  0  3  0  0  0  0  0  0
  -22.8570  -10.2190   20.2580 C   0  0  0  0  0  3  0  0  0  0  0  0
  -21.7370   -6.9600   21.5050 O   0  0  0  0  0  0  0  0  0  0  0  0
  -21.6880   -6.2340   22.6680 C   0  0  0  0  0  0  0  0  0  0  0  0
  -21.3230   -6.8210   23.8990 C   0  0  0  0  0  3  0  0  0  0  0  0
  -21.2190   -6.0230   25.0560 C   0  0  0  0  0  3  0  0  0  0  0  0
  -21.4670   -4.6390   24.9830 C   0  0  0  0  0  0  0  0  0  0  0  0
  -21.8220   -4.0520   23.7550 C   0  0  0  0  0  3  0  0  0  0  0  0
  -21.9290   -4.8470   22.6020 C   0  0  0  0  0  0  0  0  0  0  0  0
  -22.2530   -4.2740   21.4180 F   0  0  0  0  0  0  0  0  0  0  0  0
  -21.3600   -3.8690   26.0920 F   0  0  0  0  0  0  0  0  0  0  0  0
  -23.0440  -13.5630   21.2180 C   0  0  0  0  0  0  0  0  0  0  0  0
  -22.3590  -12.8840   22.1310 N   0  0  0  0  0  0  0  0  0  0  0  0
  -22.6020  -14.6050   20.7350 O   0  0  0  0  0  0  0  0  0  0  0  0
  -22.7300  -12.0390   22.5390 H   0  0  0  0  0  0  0  0  0  0  0  0
  -21.4500  -13.2130   22.4240 H   0  0  0  0  0  0  0  0  0  0  0  0
  -25.6810  -15.1460   20.2470 N   0  0  0  0  0  0  0  0  0  0  0  0
  -24.9690  -15.8410   20.4360 H   0  0  0  0  0  0  0  0  0  0  0  0
  -26.5430  -15.5460   19.8990 H   0  0  0  0  0  0  0  0  0  0  0  0
  -28.0600  -19.6300   19.0080 C   0  0  0  0  0  2  0  0  0  0  0  0
  -27.0280  -18.9800   19.9470 C   0  0  0  0  0  2  0  0  0  0  0  0
  -25.2750  -17.1800   20.2980 C   0  0  0  0  0  1  0  0  0  0  0  0
  -26.3290  -17.7540   19.3450 C   0  0  0  0  0  2  0  0  0  0  0  0
  2  5  1  0
  2  3  2  0
  3  6  1  0
  3  1  1  0
  4  1  2  0
  4 49  1  0
  5  4  1  0
  7  8  1  0
  7  6  2  0
  9 20  2  0
 10  8  1  0
 10 15  1  0
 11 19  1  0
 11 21  1  0
 12 18  1  0
 12 14  1  0
 13 19  1  0
 14 13  1  0
 15 14  2  0
 16 17  1  0
 16 10  2  0
 17 12  2  0
 18 11  1  0
 19  9  1  0
 21 23  2  0
 22 21  1  0
 24 22  1  0
 25 34  2  0
 25 30  1  0
 26 22  1  0
 26 30  1  0
 27 26  1  0
 28 29  1  0
 28 27  1  0
 29 25  1  0
 30 31  2  0
 31 32  1  0
 33 32  2  0
 34 33  1  0
 35  9  1  0
 35 36  1  0
 35 45  1  0
 36 39  1  0
 37 41  1  0
 37 36  1  0
 38 37  2  0
 41 40  1  0
 43 41  1  0
 43 44  1  0
 43 42  1  0
 45 48  1  1
 45 46  1  0
 47 45  1  0
 50 51  1  0
 50 49  1  0
 52 60  1  0
 53 58  1  0
 54 55  1  0
 54 53  1  0
 56 55  1  0
 56 65  1  0
 56 57  1  0
 58 52  1  0
 58 57  1  0
 59 52  2  0
 60 51  1  0
 60 61  1  0
 62 63  2  0
 63 82  1  0
 64 63  1  0
 64 67  1  0
 65 66  1  0
 65 62  1  0
 66 64  2  0
 67 68  1  0
 68 69  2  0
 70 73  1  0
 70 69  1  0
 71 70  2  0
 72 71  1  0
 72 67  2  0
 73 74  1  0
 74 75  1  0
 75 76  2  0
 77 76  1  0
 77 81  1  0
 78 77  2  0
 79 74  2  0
 79 78  1  0
 80 79  1  0
 82 83  1  0
 83 86  1  0
 83 85  1  0
 84 82  2  0
 87 62  1  0
 87 88  1  0
 89 87  1  0
 90  5  1  0
 90 91  1  0
 93 91  1  0
 93 92  1  0
M  ISO  4   7 101   8 101  52 100  60 100
M  END
>  <TORSDO>  (49) 
F 24

>  <SCORE>  (49) 
-11.527

>  <name>  (49) 
48

>  <ligand_id>  (49) 
48

>  <original_smiles>  (49) 
[H]c1c([H])c([H])c2c(c1[H])C([H])([H])C([H])([H])C([H])([H])C2([H])N([H])C(=O)C1([H])N(C(=O)C([H])(N([H])C(=O)C([H])(N([H])C([H])([H])[H])C([H])([H])[H])C(C([H])([H])[H])(C([H])([H])[H])C([H])([H])[H])C([H])([H])c2c([H])c(OC([H])([H])C([H])([H])c3c([H])c(C([H])([H])C([H])([H])C([H])([H])N([H])C(=O)N4C([H])([H])C([H])([H])C([H])([H])C([H])(n5nc(-c6c([H])c([H])c(Oc7c([H])c([H])c(F)c([H])c7F)c([H])c6[H])c(C(=O)N([H])[H])c5N([H])[H])C4([H])[H])n(C([H])([H])C([H])([H])C([H])([H])C([H])([H])[H])c3[H])c([H])c([H])c2C1([H])[H]

>  <smiles>  (49) 
[H]c1c([H])c([H])c2c(c1[H])C([H])([H])C([H])([H])C([H])([H])C2([H])N([H])C(=O)C1([H])N(C(=O)C([H])(N([H])C(=O)C([H])(N([H])C([H])([H])[H])C([H])([H])[H])C(C([H])([H])[H])(C([H])([H])[H])C([H])([H])[H])C([H])([H])c2c([H])c(OC([H])([H])C([H])([H])c3c([H])c(C([H])([H])C([H])([H])C([H])([H])N([H])C(=O)N4C([H])([H])C([H])([H])C([H])([H])C([H])(n5nc(-c6c([H])c([H])c(Oc7c([H])c([H])c(F)c([H])c7F)c([H])c6[H])c(C(=O)N([H])[H])c5N([H])[H])C4([H])[H])n(C([H])([H])C([H])([H])C([H])([H])C([H])([H])[H])c3[H])c([H])c([H])c2C1([H])[H]

$$$$
49:0:0
     RDKit          3D

 90 98  0  0  1  0  0  0  0  0999 V2000
  -29.1160  -22.9930   21.5630 C   0  0  0  0  0  3  0  0  0  0  0  0
  -29.4980  -21.6570   21.2670 C   0  0  0  0  0  3  0  0  0  0  0  0
  -28.7060  -23.8910   20.5410 C   0  0  0  0  0  0  0  0  0  0  0  0
  -29.4620  -21.1970   19.9370 C   0  0  0  0  0  0  0  0  0  0  0  0
  -28.7100  -23.3430   19.2300 C   0  0  0  0  0  0  0  0  0  0  0  0
  -28.2610  -24.1570   18.0350 C   0  0  0  0  0  1  0  0  0  0  0  0
  -29.0780  -22.0530   18.9500 N   0  0  0  0  0  0  0  0  0  0  0  0
  -28.1000  -25.2780   20.9620 C   0  0  0  0  0  2  0  0  0  0  0  0
  -28.3600  -26.5240   20.2230 O   0  0  0  0  0  0  0  0  0  0  0  0
  -24.6200  -31.9110   23.2440 C   0  0  0  0  0  0  0  0  0  0  0  0
  -27.2650  -27.3900   20.1930 C   0  0  0  0  0  0  0  0  0  0  0  0
  -23.4240  -30.4960   21.6100 C   0  0  0  0  0  3  0  0  0  0  0  0
  -24.8860  -28.9560   20.1870 C   0  0  0  0  0  0  0  0  0  0  0  0
  -25.9550  -30.8470   21.4100 C   0  0  0  0  0  2  0  0  0  0  0  0
  -26.0510  -29.4650   20.7760 C   0  0  0  0  0  0  0  0  0  0  0  0
  -27.2490  -28.6940   20.7740 C   0  0  0  0  0  3  0  0  0  0  0  0
  -26.0850  -26.9320   19.5760 C   0  0  0  0  0  3  0  0  0  0  0  0
  -24.9020  -27.6920   19.5770 C   0  0  0  0  0  3  0  0  0  0  0  0
  -23.6380  -29.8130   20.2340 C   0  0  0  0  0  2  0  0  0  0  0  0
  -24.6860  -31.1010   22.1460 N   0  0  0  0  0  0  0  0  0  0  0  0
  -23.5370  -32.1810   23.7810 O   0  0  0  0  0  0  0  0  0  0  0  0
  -22.7730  -29.4790   22.5760 C   0  0  0  0  0  0  0  0  0  0  0  0
  -21.4470  -29.2950   22.4560 N   0  0  0  0  0  0  0  0  0  0  0  0
  -23.4590  -28.8560   23.3910 O   0  0  0  0  0  0  0  0  0  0  0  0
  -20.9530  -29.8530   21.7750 H   0  0  0  0  0  0  0  0  0  0  0  0
  -18.0770  -28.0830   22.9660 C   0  0  0  0  0  0  0  0  0  0  0  0
  -20.6350  -28.3550   23.2300 C   0  0  0  0  0  3  0  0  0  0  0  0
  -20.7410  -26.9230   22.6570 C   0  0  0  0  0  2  0  0  0  0  0  0
  -19.6390  -26.5930   21.6460 C   0  0  0  0  0  2  0  0  0  0  0  0
  -18.2580  -26.7320   22.2940 C   0  0  0  0  0  2  0  0  0  0  0  0
  -19.1930  -28.8520   23.3900 C   0  0  0  0  0  0  0  0  0  0  0  0
  -18.9690  -30.1150   23.9780 C   0  0  0  0  0  3  0  0  0  0  0  0
  -17.6620  -30.6130   24.1440 C   0  0  0  0  0  3  0  0  0  0  0  0
  -16.5610  -29.8410   23.7350 C   0  0  0  0  0  3  0  0  0  0  0  0
  -16.7690  -28.5780   23.1520 C   0  0  0  0  0  3  0  0  0  0  0  0
  -25.9000  -32.5550   23.8600 C   0  0  0  0  0  3  0  0  0  0  0  0
  -26.4280  -31.7880   25.1360 C   0  0  1  0  0  0  0  0  0  0  0  0
  -25.3400  -31.5390   26.2080 C   0  0  0  0  0  1  0  0  0  0  0  0
  -27.0210  -30.4160   24.7390 C   0  0  0  0  0  1  0  0  0  0  0  0
  -27.5750  -32.5930   25.7930 C   0  0  0  0  0  1  0  0  0  0  0  0
  -25.5840  -33.9500   24.1860 N   0  0  0  0  0  0  0  0  0  0  0  0
  -25.9140  -35.0030   23.4250 C   0  0  0  0  0  0  0  0  0  0  0  0
  -26.5880  -34.8990   22.3970 O   0  0  0  0  0  0  0  0  0  0  0  0
  -24.9860  -34.1030   24.9860 H   0  0  0  0  0  0  0  0  0  0  0  0
  -24.1790  -36.7870   23.0600 C   0  0  0  0  0  1  0  0  0  0  0  0
  -25.4180  -36.3910   23.8760 C   0  0  0  0  0  3  0  0  0  0  0  0
  -27.5490  -37.2840   24.7100 C   0  0  0  0  0  1  0  0  0  0  0  0
  -26.4480  -37.4470   23.7660 N   0  0  0  0  0  0  0  0  0  0  0  0
  -26.0380  -38.3660   23.9110 H   0  0  0  0  0  0  0  0  0  0  0  0
  -29.9550  -19.7760   19.5000 C   0  0  0  0  0  2  0  0  0  0  0  0
  -29.6520  -18.4850   20.3670 C   0  0  0  0  0  2  0  0  0  0  0  0
  -30.2840  -17.1330   19.8000 C   0  0  0  0  0  2  0  0  0  0  0  0
  -30.7750  -14.6740   20.1040 C   0  0  0  0  0  0  0  0  0  0  0  0
  -30.4390  -12.5020   18.9370 C   0  0  0  0  0  2  0  0  0  0  0  0
  -29.4290  -12.6710   17.7800 C   0  0  0  0  0  2  0  0  0  0  0  0
  -27.9810  -12.5150   18.2840 C   0  0  0  0  0  2  0  0  0  0  0  0
  -27.7040  -13.3380   19.5690 C   0  0  0  0  0  3  0  0  0  0  0  0
  -28.8160  -13.1000   20.6100 C   0  0  0  0  0  2  0  0  0  0  0  0
  -30.0930  -13.4840   19.9880 N   0  0  0  0  0  0  0  0  0  0  0  0
  -31.8860  -14.7960   19.5770 O   0  0  0  0  0  0  0  0  0  0  0  0
  -29.5920  -15.9120   21.8870 C   0  0  0  0  0  1  0  0  0  0  0  0
  -30.0910  -15.8080   20.5090 N   0  0  0  0  0  0  0  0  0  0  0  0
  -25.3530  -13.9390   20.4110 C   0  0  0  0  0  0  0  0  0  0  0  0
  -24.3010  -13.1650   20.8210 C   0  0  0  0  0  0  0  0  0  0  0  0
  -24.7540  -11.8130   20.7470 C   0  0  0  0  0  0  0  0  0  0  0  0
  -26.3790  -13.0580   20.1140 N   0  0  0  0  0  0  0  0  0  0  0  0
  -26.0280  -11.7730   20.3760 N   0  0  0  0  0  0  0  0  0  0  0  0
  -24.0320  -10.5500   20.9520 C   0  0  0  0  0  0  0  0  0  0  0  0
  -24.4850   -9.5810   21.8750 C   0  0  0  0  0  3  0  0  0  0  0  0
  -23.7630   -8.3830   22.0680 C   0  0  0  0  0  3  0  0  0  0  0  0
  -22.5760   -8.1450   21.3370 C   0  0  0  0  0  0  0  0  0  0  0  0
  -22.1420   -9.1010   20.4010 C   0  0  0  0  0  3  0  0  0  0  0  0
  -22.8630  -10.2910   20.2070 C   0  0  0  0  0  3  0  0  0  0  0  0
  -21.8250   -7.0000   21.4400 O   0  0  0  0  0  0  0  0  0  0  0  0
  -21.7670   -6.2790   22.6060 C   0  0  0  0  0  0  0  0  0  0  0  0
  -21.3400   -6.8590   23.8200 C   0  0  0  0  0  3  0  0  0  0  0  0
  -21.2290   -6.0650   24.9790 C   0  0  0  0  0  3  0  0  0  0  0  0
  -21.5340   -4.6920   24.9240 C   0  0  0  0  0  0  0  0  0  0  0  0
  -21.9530   -4.1110   23.7140 C   0  0  0  0  0  3  0  0  0  0  0  0
  -22.0670   -4.9010   22.5580 C   0  0  0  0  0  0  0  0  0  0  0  0
  -22.4500   -4.3320   21.3900 F   0  0  0  0  0  0  0  0  0  0  0  0
  -21.4200   -3.9280   26.0350 F   0  0  0  0  0  0  0  0  0  0  0  0
  -22.9220  -13.6430   21.1710 C   0  0  0  0  0  0  0  0  0  0  0  0
  -22.2360  -12.9370   22.0630 N   0  0  0  0  0  0  0  0  0  0  0  0
  -22.4610  -14.6760   20.6890 O   0  0  0  0  0  0  0  0  0  0  0  0
  -22.6180  -12.0960   22.4700 H   0  0  0  0  0  0  0  0  0  0  0  0
  -21.3130  -13.2410   22.3420 H   0  0  0  0  0  0  0  0  0  0  0  0
  -25.5170  -15.3110   20.2430 N   0  0  0  0  0  0  0  0  0  0  0  0
  -24.7600  -15.9700   20.3930 H   0  0  0  0  0  0  0  0  0  0  0  0
  -26.3530  -15.7450   19.8700 H   0  0  0  0  0  0  0  0  0  0  0  0
  2  1  1  0
  3  8  1  0
  3  1  2  0
  4  2  2  0
  5  3  1  0
  6  5  1  0
  7  5  2  0
  7  4  1  0
  9  8  1  0
 10 21  2  0
 11  9  1  0
 11 16  1  0
 12 20  1  0
 12 22  1  0
 13 19  1  0
 13 15  1  0
 14 20  1  0
 15 14  1  0
 16 15  2  0
 17 18  1  0
 17 11  2  0
 18 13  2  0
 19 12  1  0
 20 10  1  0
 22 24  2  0
 23 22  1  0
 25 23  1  0
 26 35  2  0
 26 31  1  0
 27 23  1  0
 27 31  1  0
 28 27  1  0
 29 30  1  0
 29 28  1  0
 30 26  1  0
 31 32  2  0
 32 33  1  0
 34 33  2  0
 35 34  1  0
 36 10  1  0
 36 41  1  0
 36 37  1  0
 37 40  1  1
 37 38  1  0
 39 37  1  0
 41 44  1  0
 42 46  1  0
 42 41  1  0
 43 42  2  0
 46 45  1  0
 48 46  1  0
 48 49  1  0
 48 47  1  0
 50  4  1  0
 50 51  1  0
 52 51  1  0
 52 62  1  0
 53 62  1  0
 54 59  1  0
 55 56  1  0
 55 54  1  0
 57 56  1  0
 57 66  1  0
 57 58  1  0
 59 53  1  0
 59 58  1  0
 60 53  2  0
 62 61  1  0
 63 64  2  0
 64 83  1  0
 65 64  1  0
 65 68  1  0
 66 67  1  0
 66 63  1  0
 67 65  2  0
 68 69  1  0
 69 70  2  0
 71 74  1  0
 71 70  1  0
 72 71  2  0
 73 72  1  0
 73 68  2  0
 74 75  1  0
 75 76  1  0
 76 77  2  0
 78 77  1  0
 78 82  1  0
 79 78  2  0
 80 75  2  0
 80 79  1  0
 81 80  1  0
 83 84  1  0
 84 87  1  0
 84 86  1  0
 85 83  2  0
 88 89  1  0
 88 63  1  0
 90 88  1  0
M  ISO  4   8 101   9 101  53 100  62 100
M  END
>  <TORSDO>  (50) 
F 20

>  <SCORE>  (50) 
-13.325

>  <name>  (50) 
49

>  <ligand_id>  (50) 
49

>  <original_smiles>  (50) 
[H]c1c(C([H])([H])C([H])([H])C([H])([H])N(C(=O)N2C([H])([H])C([H])([H])C([H])([H])C([H])(n3nc(-c4c([H])c([H])c(Oc5c([H])c([H])c(F)c([H])c5F)c([H])c4[H])c(C(=O)N([H])[H])c3N([H])[H])C2([H])[H])C([H])([H])[H])nc(C([H])([H])[H])c(C([H])([H])Oc2c([H])c([H])c3c(c2[H])C([H])([H])N(C(=O)C([H])(N([H])C(=O)C([H])(N([H])C([H])([H])[H])C([H])([H])[H])C(C([H])([H])[H])(C([H])([H])[H])C([H])([H])[H])C([H])(C(=O)N([H])C2([H])c4c([H])c([H])c([H])c([H])c4C([H])([H])C([H])([H])C2([H])[H])C3([H])[H])c1[H]

>  <smiles>  (50) 
[H]c1c(C([H])([H])C([H])([H])C([H])([H])N(C(=O)N2C([H])([H])C([H])([H])C([H])([H])C([H])(n3nc(-c4c([H])c([H])c(Oc5c([H])c([H])c(F)c([H])c5F)c([H])c4[H])c(C(=O)N([H])[H])c3N([H])[H])C2([H])[H])C([H])([H])[H])nc(C([H])([H])[H])c(C([H])([H])Oc2c([H])c([H])c3c(c2[H])C([H])([H])N(C(=O)C([H])(N([H])C(=O)C([H])(N([H])C([H])([H])[H])C([H])([H])[H])C(C([H])([H])[H])(C([H])([H])[H])C([H])([H])[H])C([H])(C(=O)N([H])C2([H])c4c([H])c([H])c([H])c([H])c4C([H])([H])C([H])([H])C2([H])[H])C3([H])[H])c1[H]

$$$$
51:0:0
     RDKit          3D

 91 99  0  0  1  0  0  0  0  0999 V2000
  -28.8830  -21.1490   18.5110 C   0  0  0  0  0  3  0  0  0  0  0  0
  -28.0570  -21.3730   20.5140 C   0  0  0  0  0  3  0  0  0  0  0  0
  -28.3960  -20.3780   19.6130 C   0  0  0  0  0  0  0  0  0  0  0  0
  -28.8220  -22.4660   18.7040 N   0  0  0  0  0  0  0  0  0  0  0  0
  -28.3040  -22.6320   19.9430 N   0  0  0  0  0  0  0  0  0  0  0  0
  -28.2310  -18.8300   19.6010 C   0  0  0  0  0  2  0  0  0  0  0  0
  -28.7460  -17.9550   20.8030 C   0  0  0  0  0  2  0  0  0  0  0  0
  -29.0140  -16.3890   20.5560 C   0  0  0  0  0  2  0  0  0  0  0  0
  -30.8150  -14.5320   20.0140 C   0  0  0  0  0  0  0  0  0  0  0  0
  -30.3240  -12.3460   18.9530 C   0  0  0  0  0  2  0  0  0  0  0  0
  -29.3430  -12.4810   17.7760 C   0  0  0  0  0  2  0  0  0  0  0  0
  -27.8980  -12.3390   18.2850 C   0  0  0  0  0  2  0  0  0  0  0  0
  -27.6120  -13.2130   19.5340 C   0  0  0  0  0  3  0  0  0  0  0  0
  -28.7350  -13.1070   20.5920 C   0  0  0  0  0  2  0  0  0  0  0  0
  -29.9970  -13.4290   19.9140 N   0  0  0  0  0  0  0  0  0  0  0  0
  -31.9910  -14.3790   19.6750 O   0  0  0  0  0  0  0  0  0  0  0  0
  -30.3780  -15.8480   20.2130 N   0  0  0  0  0  0  0  0  0  0  0  0
  -25.2810  -13.8530   20.3760 C   0  0  0  0  0  0  0  0  0  0  0  0
  -24.2170  -13.0970   20.7820 C   0  0  0  0  0  0  0  0  0  0  0  0
  -24.6530  -11.7390   20.7280 C   0  0  0  0  0  0  0  0  0  0  0  0
  -26.2950  -12.9520   20.0950 N   0  0  0  0  0  0  0  0  0  0  0  0
  -25.9280  -11.6760   20.3700 N   0  0  0  0  0  0  0  0  0  0  0  0
  -23.9130  -10.4880   20.9390 C   0  0  0  0  0  0  0  0  0  0  0  0
  -24.3560   -9.5130   21.8620 C   0  0  0  0  0  3  0  0  0  0  0  0
  -23.6180   -8.3270   22.0600 C   0  0  0  0  0  3  0  0  0  0  0  0
  -22.4250   -8.1050   21.3330 C   0  0  0  0  0  0  0  0  0  0  0  0
  -22.0010   -9.0660   20.3960 C   0  0  0  0  0  3  0  0  0  0  0  0
  -22.7410  -10.2430   20.1990 C   0  0  0  0  0  3  0  0  0  0  0  0
  -21.6540   -6.9720   21.4410 O   0  0  0  0  0  0  0  0  0  0  0  0
  -21.6060   -6.2450   22.6030 C   0  0  0  0  0  0  0  0  0  0  0  0
  -21.1880   -6.8170   23.8240 C   0  0  0  0  0  3  0  0  0  0  0  0
  -21.0900   -6.0160   24.9800 C   0  0  0  0  0  3  0  0  0  0  0  0
  -21.3970   -4.6430   24.9140 C   0  0  0  0  0  0  0  0  0  0  0  0
  -21.8090   -4.0710   23.6970 C   0  0  0  0  0  3  0  0  0  0  0  0
  -21.9110   -4.8700   22.5440 C   0  0  0  0  0  0  0  0  0  0  0  0
  -22.2860   -4.3100   21.3700 F   0  0  0  0  0  0  0  0  0  0  0  0
  -21.2950   -3.8700   26.0210 F   0  0  0  0  0  0  0  0  0  0  0  0
  -22.8390  -13.6000   21.1100 C   0  0  0  0  0  0  0  0  0  0  0  0
  -22.1310  -12.9120   21.9990 N   0  0  0  0  0  0  0  0  0  0  0  0
  -22.4030  -14.6350   20.6120 O   0  0  0  0  0  0  0  0  0  0  0  0
  -22.4920  -12.0710   22.4260 H   0  0  0  0  0  0  0  0  0  0  0  0
  -21.2130  -13.2370   22.2630 H   0  0  0  0  0  0  0  0  0  0  0  0
  -25.4660  -15.2200   20.1930 N   0  0  0  0  0  0  0  0  0  0  0  0
  -24.7250  -15.8960   20.3340 H   0  0  0  0  0  0  0  0  0  0  0  0
  -26.3130  -15.6330   19.8260 H   0  0  0  0  0  0  0  0  0  0  0  0
  -31.4250  -16.9070   20.0820 C   0  0  0  0  0  2  0  0  0  0  0  0
  -32.8180  -18.3300   18.4750 C   0  0  0  0  0  1  0  0  0  0  0  0
  -31.6020  -17.4110   18.6330 C   0  0  0  0  0  2  0  0  0  0  0  0
  -28.0410  -23.9980   20.4940 C   0  0  0  0  0  3  0  0  0  0  0  0
  -28.5260  -25.2340   19.6430 C   0  0  0  0  0  3  0  0  0  0  0  0
  -28.4350  -26.5600   20.2580 O   0  0  0  0  0  0  0  0  0  0  0  0
  -24.5990  -31.8410   23.2290 C   0  0  0  0  0  0  0  0  0  0  0  0
  -27.2690  -27.3190   20.2050 C   0  0  0  0  0  0  0  0  0  0  0  0
  -23.4210  -30.4310   21.5730 C   0  0  0  0  0  3  0  0  0  0  0  0
  -24.8900  -28.8800   20.1780 C   0  0  0  0  0  0  0  0  0  0  0  0
  -25.9560  -30.7670   21.4230 C   0  0  0  0  0  2  0  0  0  0  0  0
  -26.0450  -29.3890   20.7840 C   0  0  0  0  0  0  0  0  0  0  0  0
  -27.2370  -28.6160   20.7910 C   0  0  0  0  0  3  0  0  0  0  0  0
  -26.0890  -26.8430   19.5920 C   0  0  0  0  0  3  0  0  0  0  0  0
  -24.9100  -27.6120   19.5780 C   0  0  0  0  0  3  0  0  0  0  0  0
  -23.6520  -29.7450   20.2000 C   0  0  0  0  0  2  0  0  0  0  0  0
  -24.6750  -31.0310   22.1320 N   0  0  0  0  0  0  0  0  0  0  0  0
  -23.5080  -32.1140   23.7510 O   0  0  0  0  0  0  0  0  0  0  0  0
  -22.7500  -29.4180   22.5300 C   0  0  0  0  0  0  0  0  0  0  0  0
  -21.4240  -29.2480   22.3950 N   0  0  0  0  0  0  0  0  0  0  0  0
  -23.4220  -28.7850   23.3490 O   0  0  0  0  0  0  0  0  0  0  0  0
  -20.9410  -29.8100   21.7070 H   0  0  0  0  0  0  0  0  0  0  0  0
  -18.0340  -28.0910   22.8920 C   0  0  0  0  0  0  0  0  0  0  0  0
  -20.5960  -28.3160   23.1620 C   0  0  0  0  0  3  0  0  0  0  0  0
  -20.6800  -26.8860   22.5810 C   0  0  0  0  0  2  0  0  0  0  0  0
  -19.5730  -26.5830   21.5670 C   0  0  0  0  0  2  0  0  0  0  0  0
  -18.1930  -26.7440   22.2080 C   0  0  0  0  0  2  0  0  0  0  0  0
  -19.1630  -28.8350   23.3260 C   0  0  0  0  0  0  0  0  0  0  0  0
  -18.9600  -30.0980   23.9240 C   0  0  0  0  0  3  0  0  0  0  0  0
  -17.6630  -30.6170   24.0920 C   0  0  0  0  0  3  0  0  0  0  0  0
  -16.5490  -29.8690   23.6770 C   0  0  0  0  0  3  0  0  0  0  0  0
  -16.7350  -28.6080   23.0840 C   0  0  0  0  0  3  0  0  0  0  0  0
  -25.8720  -32.4820   23.8610 C   0  0  0  0  0  3  0  0  0  0  0  0
  -25.5530  -33.8800   24.1880 N   0  0  0  0  0  0  0  0  0  0  0  0
  -25.8850  -34.9340   23.4300 C   0  0  0  0  0  0  0  0  0  0  0  0
  -26.5640  -34.8320   22.4050 O   0  0  0  0  0  0  0  0  0  0  0  0
  -24.9560  -34.0330   24.9850 H   0  0  0  0  0  0  0  0  0  0  0  0
  -24.1510  -36.7180   23.0550 C   0  0  0  0  0  1  0  0  0  0  0  0
  -25.3850  -36.3190   23.8800 C   0  0  0  0  0  3  0  0  0  0  0  0
  -27.5060  -37.2140   24.7390 C   0  0  0  0  0  1  0  0  0  0  0  0
  -26.4150  -37.3780   23.7810 N   0  0  0  0  0  0  0  0  0  0  0  0
  -26.0040  -38.2960   23.9210 H   0  0  0  0  0  0  0  0  0  0  0  0
  -26.3820  -31.7150   25.1420 C   0  0  1  0  0  0  0  0  0  0  0  0
  -25.2800  -31.4700   26.1990 C   0  0  0  0  0  1  0  0  0  0  0  0
  -26.9790  -30.3390   24.7630 C   0  0  0  0  0  1  0  0  0  0  0  0
  -27.5200  -32.5190   25.8140 C   0  0  0  0  0  1  0  0  0  0  0  0
  1  4  2  0
  1  3  1  0
  3  2  2  0
  4  5  1  0
  5 49  1  0
  5  2  1  0
  6  3  1  0
  6  7  1  0
  8  7  1  0
  9 17  1  0
 10 15  1  0
 11 12  1  0
 11 10  1  0
 13 12  1  0
 13 21  1  0
 13 14  1  0
 15  9  1  0
 15 14  1  0
 16  9  2  0
 17  8  1  0
 18 19  2  0
 19 38  1  0
 20 19  1  0
 20 23  1  0
 21 22  1  0
 21 18  1  0
 22 20  2  0
 23 24  1  0
 24 25  2  0
 26 29  1  0
 26 25  1  0
 27 26  2  0
 28 27  1  0
 28 23  2  0
 29 30  1  0
 30 31  1  0
 31 32  2  0
 33 32  1  0
 33 37  1  0
 34 33  2  0
 35 30  2  0
 35 34  1  0
 36 35  1  0
 38 39  1  0
 39 42  1  0
 39 41  1  0
 40 38  2  0
 43 44  1  0
 43 18  1  0
 45 43  1  0
 46 17  1  0
 47 48  1  0
 48 46  1  0
 50 51  1  0
 50 49  2  0
 52 63  2  0
 53 51  1  0
 53 58  1  0
 54 62  1  0
 54 64  1  0
 55 61  1  0
 55 57  1  0
 56 62  1  0
 57 58  2  0
 57 56  1  0
 59 53  2  0
 60 59  1  0
 60 55  2  0
 61 54  1  0
 62 52  1  0
 64 66  2  0
 65 64  1  0
 67 65  1  0
 68 77  2  0
 68 73  1  0
 69 65  1  0
 69 73  1  0
 70 69  1  0
 71 72  1  0
 71 70  1  0
 72 68  1  0
 73 74  2  0
 74 75  1  0
 76 75  2  0
 77 76  1  0
 78 52  1  0
 78 79  1  0
 78 88  1  0
 79 82  1  0
 80 84  1  0
 80 79  1  0
 81 80  2  0
 84 83  1  0
 86 84  1  0
 86 87  1  0
 86 85  1  0
 88 91  1  1
 88 89  1  0
 90 88  1  0
M  ISO  4   9 100  17 100  50 101  51 101
M  END
>  <TORSDO>  (51) 
F 23

>  <SCORE>  (51) 
-12.750

>  <name>  (51) 
51

>  <ligand_id>  (51) 
51

>  <original_smiles>  (51) 
[H]c1nn(C([H])([H])C([H])([H])Oc2c([H])c([H])c3c(c2[H])C([H])([H])N(C(=O)C([H])(N([H])C(=O)C([H])(N([H])C([H])([H])[H])C([H])([H])[H])C(C([H])([H])[H])(C([H])([H])[H])C([H])([H])[H])C([H])(C(=O)N([H])C2([H])c4c([H])c([H])c([H])c([H])c4C([H])([H])C([H])([H])C2([H])[H])C3([H])[H])c([H])c1C([H])([H])C([H])([H])C([H])([H])N(C(=O)N1C([H])([H])C([H])([H])C([H])([H])C([H])(n2nc(-c3c([H])c([H])c(Oc4c([H])c([H])c(F)c([H])c4F)c([H])c3[H])c(C(=O)N([H])[H])c2N([H])[H])C1([H])[H])C([H])([H])C([H])([H])C([H])([H])[H]

>  <smiles>  (51) 
[H]c1nn(C([H])([H])C([H])([H])Oc2c([H])c([H])c3c(c2[H])C([H])([H])N(C(=O)C([H])(N([H])C(=O)C([H])(N([H])C([H])([H])[H])C([H])([H])[H])C(C([H])([H])[H])(C([H])([H])[H])C([H])([H])[H])C([H])(C(=O)N([H])C2([H])c4c([H])c([H])c([H])c([H])c4C([H])([H])C([H])([H])C2([H])[H])C3([H])[H])c([H])c1C([H])([H])C([H])([H])C([H])([H])N(C(=O)N1C([H])([H])C([H])([H])C([H])([H])C([H])(n2nc(-c3c([H])c([H])c(Oc4c([H])c([H])c(F)c([H])c4F)c([H])c3[H])c(C(=O)N([H])[H])c2N([H])[H])C1([H])[H])C([H])([H])C([H])([H])C([H])([H])[H]

$$$$
52:0:0
     RDKit          3D

 89 97  0  0  1  0  0  0  0  0999 V2000
  -27.2120  -24.1090   20.9600 C   0  0  0  0  0  3  0  0  0  0  0  0
  -28.1150  -23.8910   19.8850 C   0  0  0  0  0  0  0  0  0  0  0  0
  -28.4310  -22.4540   19.9820 C   0  0  0  0  0  0  0  0  0  0  0  0
  -27.8440  -20.8850   21.9660 C   0  0  0  0  0  1  0  0  0  0  0  0
  -27.0380  -23.0710   21.7320 N   0  0  0  0  0  0  0  0  0  0  0  0
  -27.7990  -22.1090   21.1900 N   0  0  0  0  0  0  0  0  0  0  0  0
  -28.3370  -25.2670   19.0150 C   0  0  0  0  0  2  0  0  0  0  0  0
  -28.2510  -26.7140   19.6000 O   0  0  0  0  0  0  0  0  0  0  0  0
  -24.5610  -31.9120   23.2480 C   0  0  0  0  0  0  0  0  0  0  0  0
  -27.1330  -27.6170   19.6490 C   0  0  0  0  0  0  0  0  0  0  0  0
  -23.3190  -30.6110   21.5610 C   0  0  0  0  0  3  0  0  0  0  0  0
  -24.7380  -29.2430   19.9080 C   0  0  0  0  0  0  0  0  0  0  0  0
  -25.8450  -31.0120   21.2770 C   0  0  0  0  0  2  0  0  0  0  0  0
  -25.9310  -29.6910   20.4880 C   0  0  0  0  0  0  0  0  0  0  0  0
  -27.1240  -28.8940   20.3440 C   0  0  0  0  0  3  0  0  0  0  0  0
  -25.9080  -27.2590   19.0490 C   0  0  0  0  0  3  0  0  0  0  0  0
  -24.7390  -28.0420   19.1780 C   0  0  0  0  0  3  0  0  0  0  0  0
  -23.4790  -30.0730   20.1130 C   0  0  0  0  0  2  0  0  0  0  0  0
  -24.5960  -31.1980   22.0810 N   0  0  0  0  0  0  0  0  0  0  0  0
  -23.4990  -32.0980   23.8620 O   0  0  0  0  0  0  0  0  0  0  0  0
  -22.7390  -29.4940   22.4610 C   0  0  0  0  0  0  0  0  0  0  0  0
  -21.4320  -29.2180   22.3280 N   0  0  0  0  0  0  0  0  0  0  0  0
  -23.4650  -28.8770   23.2440 O   0  0  0  0  0  0  0  0  0  0  0  0
  -20.8960  -29.7650   21.6670 H   0  0  0  0  0  0  0  0  0  0  0  0
  -18.1910  -27.6590   22.7130 C   0  0  0  0  0  0  0  0  0  0  0  0
  -20.7020  -28.1720   23.0460 C   0  0  0  0  0  3  0  0  0  0  0  0
  -20.9630  -26.7820   22.4200 C   0  0  0  0  0  2  0  0  0  0  0  0
  -19.9180  -26.3860   21.3700 C   0  0  0  0  0  2  0  0  0  0  0  0
  -18.5170  -26.3620   21.9910 C   0  0  0  0  0  2  0  0  0  0  0  0
  -19.2160  -28.5130   23.1950 C   0  0  0  0  0  0  0  0  0  0  0  0
  -18.8590  -29.7200   23.8360 C   0  0  0  0  0  3  0  0  0  0  0  0
  -17.5070  -30.0700   23.9980 C   0  0  0  0  0  3  0  0  0  0  0  0
  -16.4960  -29.2160   23.5270 C   0  0  0  0  0  3  0  0  0  0  0  0
  -16.8360  -28.0120   22.8920 C   0  0  0  0  0  3  0  0  0  0  0  0
  -25.8520  -32.5430   23.8580 C   0  0  0  0  0  3  0  0  0  0  0  0
  -26.4110  -31.7370   25.0950 C   0  0  1  0  0  0  0  0  0  0  0  0
  -25.3460  -31.4410   26.1750 C   0  0  0  0  0  1  0  0  0  0  0  0
  -27.0080  -30.3830   24.6500 C   0  0  0  0  0  1  0  0  0  0  0  0
  -27.5640  -32.5270   25.7580 C   0  0  0  0  0  1  0  0  0  0  0  0
  -25.5300  -33.9220   24.2530 N   0  0  0  0  0  0  0  0  0  0  0  0
  -25.8440  -35.0150   23.5440 C   0  0  0  0  0  0  0  0  0  0  0  0
  -26.5020  -34.9640   22.5020 O   0  0  0  0  0  0  0  0  0  0  0  0
  -24.9490  -34.0340   25.0710 H   0  0  0  0  0  0  0  0  0  0  0  0
  -24.0980  -36.8090   23.2920 C   0  0  0  0  0  1  0  0  0  0  0  0
  -25.3490  -36.3750   24.0720 C   0  0  0  0  0  3  0  0  0  0  0  0
  -27.4750  -37.2440   24.9400 C   0  0  0  0  0  1  0  0  0  0  0  0
  -26.3710  -37.4410   24.0050 N   0  0  0  0  0  0  0  0  0  0  0  0
  -25.9560  -38.3500   24.1890 H   0  0  0  0  0  0  0  0  0  0  0  0
  -29.3150  -21.2260   19.2790 C   0  0  0  0  0  2  0  0  0  0  0  0
  -29.0410  -19.5280   19.3010 C   0  0  0  0  0  3  0  0  0  0  0  0
  -30.2020  -18.2890   19.1520 C   0  0  0  0  0  3  0  0  0  0  0  0
  -30.8560  -15.6050   19.4920 C   0  0  0  0  0  0  0  0  0  0  0  0
  -30.8580  -13.1620   18.8300 C   0  0  0  0  0  2  0  0  0  0  0  0
  -29.8660  -12.9240   17.6680 C   0  0  0  0  0  2  0  0  0  0  0  0
  -28.4460  -12.6770   18.2190 C   0  0  0  0  0  2  0  0  0  0  0  0
  -28.0410  -13.7180   19.2950 C   0  0  0  0  0  3  0  0  0  0  0  0
  -29.1490  -13.8910   20.3570 C   0  0  0  0  0  2  0  0  0  0  0  0
  -30.3530  -14.3120   19.6330 N   0  0  0  0  0  0  0  0  0  0  0  0
  -32.0400  -15.7030   19.1460 O   0  0  0  0  0  0  0  0  0  0  0  0
  -30.0000  -16.7490   19.5210 N   0  0  0  0  0  0  0  0  0  0  0  0
  -29.0600  -16.5210   19.8110 H   0  0  0  0  0  0  0  0  0  0  0  0
  -25.7260  -14.2960   20.2180 C   0  0  0  0  0  0  0  0  0  0  0  0
  -24.6880  -13.5180   20.6460 C   0  0  0  0  0  0  0  0  0  0  0  0
  -25.1420  -12.1660   20.5600 C   0  0  0  0  0  0  0  0  0  0  0  0
  -26.7440  -13.4170   19.8860 N   0  0  0  0  0  0  0  0  0  0  0  0
  -26.4070  -12.1300   20.1570 N   0  0  0  0  0  0  0  0  0  0  0  0
  -24.4280  -10.9030   20.7790 C   0  0  0  0  0  0  0  0  0  0  0  0
  -24.8120   -9.9990   21.7930 C   0  0  0  0  0  3  0  0  0  0  0  0
  -24.0940   -8.8000   21.9950 C   0  0  0  0  0  3  0  0  0  0  0  0
  -22.9810   -8.4940   21.1800 C   0  0  0  0  0  0  0  0  0  0  0  0
  -22.6150   -9.3870   20.1590 C   0  0  0  0  0  3  0  0  0  0  0  0
  -23.3320  -10.5760   19.9560 C   0  0  0  0  0  3  0  0  0  0  0  0
  -22.2380   -7.3420   21.2910 O   0  0  0  0  0  0  0  0  0  0  0  0
  -21.9650   -6.7770   22.5090 C   0  0  0  0  0  0  0  0  0  0  0  0
  -21.2690   -7.4790   23.5180 C   0  0  0  0  0  3  0  0  0  0  0  0
  -20.9500   -6.8310   24.7300 C   0  0  0  0  0  3  0  0  0  0  0  0
  -21.3150   -5.4880   24.9290 C   0  0  0  0  0  0  0  0  0  0  0  0
  -22.0050   -4.7880   23.9260 C   0  0  0  0  0  3  0  0  0  0  0  0
  -22.3260   -5.4300   22.7170 C   0  0  0  0  0  0  0  0  0  0  0  0
  -22.9710   -4.7440   21.7430 F   0  0  0  0  0  0  0  0  0  0  0  0
  -21.0010   -4.8670   26.0920 F   0  0  0  0  0  0  0  0  0  0  0  0
  -23.3130  -13.9970   21.0130 C   0  0  0  0  0  0  0  0  0  0  0  0
  -22.6480  -13.3080   21.9330 N   0  0  0  0  0  0  0  0  0  0  0  0
  -22.8420  -15.0210   20.5230 O   0  0  0  0  0  0  0  0  0  0  0  0
  -23.0410  -12.4820   22.3550 H   0  0  0  0  0  0  0  0  0  0  0  0
  -21.7290  -13.6160   22.2180 H   0  0  0  0  0  0  0  0  0  0  0  0
  -25.8840  -15.6690   20.0530 N   0  0  0  0  0  0  0  0  0  0  0  0
  -25.1240  -16.3160   20.2360 H   0  0  0  0  0  0  0  0  0  0  0  0
  -26.6800  -16.1160   19.6180 H   0  0  0  0  0  0  0  0  0  0  0  0
  1  5  2  0
  2  3  2  0
  2  1  1  0
  3  6  1  0
  6  5  1  0
  6  4  1  0
  7  8  1  0
  7  2  1  0
  8 10  1  0
  9 20  2  0
 10 15  1  0
 11 19  1  0
 11 21  1  0
 12 18  1  0
 12 14  1  0
 13 19  1  0
 14 13  1  0
 15 14  2  0
 16 17  1  0
 16 10  2  0
 17 12  2  0
 18 11  1  0
 19  9  1  0
 21 23  2  0
 22 21  1  0
 24 22  1  0
 25 34  2  0
 25 30  1  0
 26 22  1  0
 26 30  1  0
 27 26  1  0
 28 29  1  0
 28 27  1  0
 29 25  1  0
 30 31  2  0
 31 32  1  0
 33 32  2  0
 34 33  1  0
 35  9  1  0
 35 40  1  0
 35 36  1  0
 36 39  1  1
 36 37  1  0
 38 36  1  0
 40 43  1  0
 41 45  1  0
 41 40  1  0
 42 41  2  0
 45 44  1  0
 47 45  1  0
 47 48  1  0
 47 46  1  0
 49 50  1  0
 49  3  1  0
 51 50  2  0
 51 60  1  0
 52 60  1  0
 52 58  1  0
 53 58  1  0
 54 55  1  0
 54 53  1  0
 56 55  1  0
 56 65  1  0
 56 57  1  0
 58 57  1  0
 59 52  2  0
 60 61  1  0
 62 63  2  0
 63 82  1  0
 64 63  1  0
 64 67  1  0
 65 66  1  0
 65 62  1  0
 66 64  2  0
 67 68  1  0
 68 69  2  0
 70 73  1  0
 70 69  1  0
 71 70  2  0
 72 71  1  0
 72 67  2  0
 73 74  1  0
 74 79  2  0
 74 75  1  0
 75 76  2  0
 76 77  1  0
 77 81  1  0
 78 77  2  0
 79 78  1  0
 80 79  1  0
 82 83  1  0
 83 86  1  0
 83 85  1  0
 84 82  2  0
 87 62  1  0
 87 88  1  0
 89 87  1  0
M  ISO  4   7 101   8 101  52 100  60 100
M  END
>  <TORSDO>  (52) 
F 20

>  <SCORE>  (52) 
-11.873

>  <name>  (52) 
52

>  <ligand_id>  (52) 
52

>  <original_smiles>  (52) 
[H]c1nn(C([H])([H])[H])c(C([H])([H])C([H])([H])C([H])([H])N([H])C(=O)N2C([H])([H])C([H])([H])C([H])([H])C([H])(n3nc(-c4c([H])c([H])c(Oc5c([H])c([H])c(F)c([H])c5F)c([H])c4[H])c(C(=O)N([H])[H])c3N([H])[H])C2([H])[H])c1C([H])([H])Oc1c([H])c([H])c2c(c1[H])C([H])([H])N(C(=O)C([H])(N([H])C(=O)C([H])(N([H])C([H])([H])[H])C([H])([H])[H])C(C([H])([H])[H])(C([H])([H])[H])C([H])([H])[H])C([H])(C(=O)N([H])C1([H])c3c([H])c([H])c([H])c([H])c3C([H])([H])C([H])([H])C1([H])[H])C2([H])[H]

>  <smiles>  (52) 
[H]c1nn(C([H])([H])[H])c(C([H])([H])C([H])([H])C([H])([H])N([H])C(=O)N2C([H])([H])C([H])([H])C([H])([H])C([H])(n3nc(-c4c([H])c([H])c(Oc5c([H])c([H])c(F)c([H])c5F)c([H])c4[H])c(C(=O)N([H])[H])c3N([H])[H])C2([H])[H])c1C([H])([H])Oc1c([H])c([H])c2c(c1[H])C([H])([H])N(C(=O)C([H])(N([H])C(=O)C([H])(N([H])C([H])([H])[H])C([H])([H])[H])C(C([H])([H])[H])(C([H])([H])[H])C([H])([H])[H])C([H])(C(=O)N([H])C1([H])c3c([H])c([H])c([H])c([H])c3C([H])([H])C([H])([H])C1([H])[H])C2([H])[H]

$$$$
53:0:0
     RDKit          3D

 90 98  0  0  1  0  0  0  0  0999 V2000
  -30.4210  -21.9720   20.2360 C   0  0  0  0  0  3  0  0  0  0  0  0
  -28.1290  -20.5220   20.3480 C   0  0  0  0  0  3  0  0  0  0  0  0
  -30.5220  -20.5640   20.4400 C   0  0  0  0  0  0  0  0  0  0  0  0
  -29.3330  -19.7780   20.4900 C   0  0  0  0  0  0  0  0  0  0  0  0
  -29.1670  -22.6160   20.0830 C   0  0  0  0  0  0  0  0  0  0  0  0
  -31.9010  -19.9470   20.5900 C   0  0  0  0  0  1  0  0  0  0  0  0
  -28.0390  -21.8670   20.1410 N   0  0  0  0  0  0  0  0  0  0  0  0
  -29.2180  -18.2280   20.7630 C   0  0  0  0  0  3  0  0  0  0  0  0
  -30.3010  -17.1590   20.3070 C   0  0  0  0  0  3  0  0  0  0  0  0
  -30.6330  -14.6270   20.1100 C   0  0  0  0  0  0  0  0  0  0  0  0
  -30.3250  -12.4230   19.0140 C   0  0  0  0  0  2  0  0  0  0  0  0
  -29.3380  -12.5920   17.8380 C   0  0  0  0  0  2  0  0  0  0  0  0
  -27.8830  -12.4370   18.3220 C   0  0  0  0  0  2  0  0  0  0  0  0
  -27.5840  -13.2740   19.5950 C   0  0  0  0  0  3  0  0  0  0  0  0
  -28.6870  -13.1000   20.6630 C   0  0  0  0  0  2  0  0  0  0  0  0
  -29.9740  -13.4290   20.0350 N   0  0  0  0  0  0  0  0  0  0  0  0
  -31.7730  -14.7640   19.6590 O   0  0  0  0  0  0  0  0  0  0  0  0
  -29.9120  -15.7190   20.5000 N   0  0  0  0  0  0  0  0  0  0  0  0
  -28.9830  -15.5360   20.8470 H   0  0  0  0  0  0  0  0  0  0  0  0
  -25.2200  -13.8610   20.4100 C   0  0  0  0  0  0  0  0  0  0  0  0
  -24.1710  -13.0820   20.8180 C   0  0  0  0  0  0  0  0  0  0  0  0
  -24.6350  -11.7320   20.7610 C   0  0  0  0  0  0  0  0  0  0  0  0
  -26.2560  -12.9840   20.1300 N   0  0  0  0  0  0  0  0  0  0  0  0
  -25.9110  -11.6980   20.4010 N   0  0  0  0  0  0  0  0  0  0  0  0
  -23.9200  -10.4670   20.9690 C   0  0  0  0  0  0  0  0  0  0  0  0
  -24.3750   -9.5060   21.8970 C   0  0  0  0  0  3  0  0  0  0  0  0
  -23.6610   -8.3060   22.0940 C   0  0  0  0  0  3  0  0  0  0  0  0
  -22.4760   -8.0580   21.3640 C   0  0  0  0  0  0  0  0  0  0  0  0
  -22.0380   -9.0060   20.4220 C   0  0  0  0  0  3  0  0  0  0  0  0
  -22.7540  -10.1980   20.2230 C   0  0  0  0  0  3  0  0  0  0  0  0
  -21.7290   -6.9080   21.4700 O   0  0  0  0  0  0  0  0  0  0  0  0
  -21.6960   -6.1790   22.6310 C   0  0  0  0  0  0  0  0  0  0  0  0
  -21.2490   -6.7350   23.8490 C   0  0  0  0  0  3  0  0  0  0  0  0
  -21.1650   -5.9290   25.0030 C   0  0  0  0  0  3  0  0  0  0  0  0
  -21.5160   -4.5680   24.9380 C   0  0  0  0  0  0  0  0  0  0  0  0
  -21.9540   -4.0100   23.7240 C   0  0  0  0  0  3  0  0  0  0  0  0
  -22.0410   -4.8120   22.5740 C   0  0  0  0  0  0  0  0  0  0  0  0
  -22.4440   -4.2660   21.4010 F   0  0  0  0  0  0  0  0  0  0  0  0
  -21.4260   -3.7910   26.0430 F   0  0  0  0  0  0  0  0  0  0  0  0
  -22.7860  -13.5540   21.1490 C   0  0  0  0  0  0  0  0  0  0  0  0
  -22.0950  -12.8460   22.0360 N   0  0  0  0  0  0  0  0  0  0  0  0
  -22.3250  -14.5820   20.6560 O   0  0  0  0  0  0  0  0  0  0  0  0
  -22.4870  -12.0150   22.4550 H   0  0  0  0  0  0  0  0  0  0  0  0
  -21.1620  -13.1340   22.2950 H   0  0  0  0  0  0  0  0  0  0  0  0
  -25.3750  -15.2310   20.2290 N   0  0  0  0  0  0  0  0  0  0  0  0
  -24.5990  -15.8770   20.3350 H   0  0  0  0  0  0  0  0  0  0  0  0
  -26.1890  -15.6590   19.8060 H   0  0  0  0  0  0  0  0  0  0  0  0
  -29.0470  -24.1260   19.6560 C   0  0  0  0  0  3  0  0  0  0  0  0
  -28.3550  -25.1880   20.6000 C   0  0  0  0  0  3  0  0  0  0  0  0
  -28.4470  -26.6030   20.1900 O   0  0  0  0  0  0  0  0  0  0  0  0
  -24.5920  -31.8800   23.2060 C   0  0  0  0  0  0  0  0  0  0  0  0
  -27.2900  -27.3850   20.1770 C   0  0  0  0  0  0  0  0  0  0  0  0
  -23.4200  -30.4810   21.5380 C   0  0  0  0  0  3  0  0  0  0  0  0
  -24.9000  -28.9400   20.1350 C   0  0  0  0  0  0  0  0  0  0  0  0
  -25.9540  -30.8300   21.3880 C   0  0  0  0  0  2  0  0  0  0  0  0
  -26.0530  -29.4530   20.7460 C   0  0  0  0  0  0  0  0  0  0  0  0
  -27.2520  -28.6890   20.7500 C   0  0  0  0  0  3  0  0  0  0  0  0
  -26.1180  -26.9070   19.5520 C   0  0  0  0  0  3  0  0  0  0  0  0
  -24.9320  -27.6720   19.5280 C   0  0  0  0  0  3  0  0  0  0  0  0
  -23.6560  -29.8030   20.1620 C   0  0  0  0  0  2  0  0  0  0  0  0
  -24.6730  -31.0800   22.1010 N   0  0  0  0  0  0  0  0  0  0  0  0
  -23.5000  -32.1450   23.7270 O   0  0  0  0  0  0  0  0  0  0  0  0
  -22.7500  -29.4610   22.4890 C   0  0  0  0  0  0  0  0  0  0  0  0
  -21.4220  -29.2940   22.3580 N   0  0  0  0  0  0  0  0  0  0  0  0
  -23.4220  -28.8200   23.2990 O   0  0  0  0  0  0  0  0  0  0  0  0
  -20.9400  -29.8590   21.6740 H   0  0  0  0  0  0  0  0  0  0  0  0
  -18.0280  -28.1510   22.8590 C   0  0  0  0  0  0  0  0  0  0  0  0
  -20.5940  -28.3560   23.1150 C   0  0  0  0  0  3  0  0  0  0  0  0
  -20.6640  -26.9350   22.5060 C   0  0  0  0  0  2  0  0  0  0  0  0
  -19.5490  -26.6560   21.4950 C   0  0  0  0  0  2  0  0  0  0  0  0
  -18.1750  -26.8140   22.1510 C   0  0  0  0  0  2  0  0  0  0  0  0
  -19.1650  -28.8820   23.2960 C   0  0  0  0  0  0  0  0  0  0  0  0
  -18.9730  -30.1360   23.9170 C   0  0  0  0  0  3  0  0  0  0  0  0
  -17.6790  -30.6550   24.1060 C   0  0  0  0  0  3  0  0  0  0  0  0
  -16.5570  -29.9210   23.6840 C   0  0  0  0  0  3  0  0  0  0  0  0
  -16.7340  -28.6700   23.0640 C   0  0  0  0  0  3  0  0  0  0  0  0
  -25.8620  -32.5160   23.8520 C   0  0  0  0  0  3  0  0  0  0  0  0
  -26.3510  -31.7490   25.1430 C   0  0  1  0  0  0  0  0  0  0  0  0
  -25.2360  -31.5160   26.1880 C   0  0  0  0  0  1  0  0  0  0  0  0
  -26.9400  -30.3720   24.7640 C   0  0  0  0  0  1  0  0  0  0  0  0
  -27.4880  -32.5440   25.8260 C   0  0  0  0  0  1  0  0  0  0  0  0
  -25.5470  -33.9150   24.1710 N   0  0  0  0  0  0  0  0  0  0  0  0
  -25.8950  -34.9670   23.4160 C   0  0  0  0  0  0  0  0  0  0  0  0
  -26.5850  -34.8580   22.3990 O   0  0  0  0  0  0  0  0  0  0  0  0
  -24.9400  -34.0720   24.9620 H   0  0  0  0  0  0  0  0  0  0  0  0
  -24.1810  -36.7620   23.0150 C   0  0  0  0  0  1  0  0  0  0  0  0
  -25.4010  -36.3560   23.8590 C   0  0  0  0  0  3  0  0  0  0  0  0
  -27.5110  -37.2400   24.7470 C   0  0  0  0  0  1  0  0  0  0  0  0
  -26.4370  -37.4080   23.7720 N   0  0  0  0  0  0  0  0  0  0  0  0
  -26.0300  -38.3300   23.9010 H   0  0  0  0  0  0  0  0  0  0  0  0
  1  3  1  0
  2  4  1  0
  3  4  2  0
  3  6  1  0
  4  8  1  0
  5  7  1  0
  5  1  2  0
  7  2  2  0
  9 18  1  0
  9  8  2  0
 10 18  1  0
 11 16  1  0
 12 13  1  0
 12 11  1  0
 14 13  1  0
 14 23  1  0
 14 15  1  0
 16 10  1  0
 16 15  1  0
 17 10  2  0
 18 19  1  0
 20 21  2  0
 21 40  1  0
 22 21  1  0
 22 25  1  0
 23 24  1  0
 23 20  1  0
 24 22  2  0
 25 26  1  0
 26 27  2  0
 28 31  1  0
 28 27  1  0
 29 28  2  0
 30 29  1  0
 30 25  2  0
 31 32  1  0
 32 33  1  0
 33 34  2  0
 35 34  1  0
 35 39  1  0
 36 35  2  0
 37 32  2  0
 37 36  1  0
 38 37  1  0
 40 41  1  0
 41 44  1  0
 41 43  1  0
 42 40  2  0
 45 46  1  0
 45 20  1  0
 47 45  1  0
 48  5  1  0
 48 49  2  0
 50 49  1  0
 51 62  2  0
 52 50  1  0
 52 57  1  0
 53 61  1  0
 53 63  1  0
 54 60  1  0
 54 56  1  0
 55 61  1  0
 56 57  2  0
 56 55  1  0
 58 52  2  0
 59 58  1  0
 59 54  2  0
 60 53  1  0
 61 51  1  0
 63 65  2  0
 64 63  1  0
 66 64  1  0
 67 76  2  0
 67 72  1  0
 68 64  1  0
 68 72  1  0
 69 68  1  0
 70 71  1  0
 70 69  1  0
 71 67  1  0
 72 73  2  0
 73 74  1  0
 75 74  2  0
 76 75  1  0
 77 51  1  0
 77 82  1  0
 77 78  1  0
 78 81  1  1
 78 79  1  0
 80 78  1  0
 82 85  1  0
 83 87  1  0
 83 82  1  0
 84 83  2  0
 87 86  1  0
 89 87  1  0
 89 90  1  0
 89 88  1  0
M  ISO  4  10 100  18 100  49 101  50 101
M  END
>  <TORSDO>  (53) 
F 20

>  <SCORE>  (53) 
-13.817

>  <name>  (53) 
53

>  <ligand_id>  (53) 
53

>  <original_smiles>  (53) 
[H]c1nc(C([H])([H])C([H])([H])Oc2c([H])c([H])c3c(c2[H])C([H])([H])N(C(=O)C([H])(N([H])C(=O)C([H])(N([H])C([H])([H])[H])C([H])([H])[H])C(C([H])([H])[H])(C([H])([H])[H])C([H])([H])[H])C([H])(C(=O)N([H])C2([H])c4c([H])c([H])c([H])c([H])c4C([H])([H])C([H])([H])C2([H])[H])C3([H])[H])c([H])c(C([H])([H])[H])c1C([H])([H])C([H])([H])N([H])C(=O)N1C([H])([H])C([H])([H])C([H])([H])C([H])(n2nc(-c3c([H])c([H])c(Oc4c([H])c([H])c(F)c([H])c4F)c([H])c3[H])c(C(=O)N([H])[H])c2N([H])[H])C1([H])[H]

>  <smiles>  (53) 
[H]c1nc(C([H])([H])C([H])([H])Oc2c([H])c([H])c3c(c2[H])C([H])([H])N(C(=O)C([H])(N([H])C(=O)C([H])(N([H])C([H])([H])[H])C([H])([H])[H])C(C([H])([H])[H])(C([H])([H])[H])C([H])([H])[H])C([H])(C(=O)N([H])C2([H])c4c([H])c([H])c([H])c([H])c4C([H])([H])C([H])([H])C2([H])[H])C3([H])[H])c([H])c(C([H])([H])[H])c1C([H])([H])C([H])([H])N([H])C(=O)N1C([H])([H])C([H])([H])C([H])([H])C([H])(n2nc(-c3c([H])c([H])c(Oc4c([H])c([H])c(F)c([H])c4F)c([H])c3[H])c(C(=O)N([H])[H])c2N([H])[H])C1([H])[H]

$$$$
54:0:0
     RDKit          3D

 91 99  0  0  1  0  0  0  0  0999 V2000
  -27.6050  -20.9100   21.0890 C   0  0  0  0  0  1  0  0  0  0  0  0
  -28.9960  -21.4130   21.0750 N   0  0  1  0  0  4  0  0  0  0  0  0
  -29.2270  -21.6020   22.0390 H   0  0  0  0  0  0  0  0  0  0  0  0
  -30.0070  -20.3620   20.6330 C   0  0  0  0  0  2  0  0  0  0  0  0
  -29.3100  -16.7740   19.7840 C   0  0  0  0  0  3  0  0  0  0  0  0
  -30.1700  -16.0290   20.6380 C   0  0  0  0  0  0  0  0  0  0  0  0
  -30.5840  -18.0510   21.7880 C   0  0  0  0  0  0  0  0  0  0  0  0
  -29.8240  -18.8100   20.8450 C   0  0  0  0  0  0  0  0  0  0  0  0
  -31.3330  -18.7080   22.9350 C   0  0  0  0  0  1  0  0  0  0  0  0
  -29.1420  -18.1320   19.8770 N   0  0  0  0  0  0  0  0  0  0  0  0
  -30.7600  -16.6960   21.6770 N   0  0  0  0  0  0  0  0  0  0  0  0
  -30.7580  -14.6770   20.1810 C   0  0  0  0  0  0  0  0  0  0  0  0
  -30.3870  -12.4900   19.0620 C   0  0  0  0  0  2  0  0  0  0  0  0
  -29.4160  -12.6510   17.8730 C   0  0  0  0  0  2  0  0  0  0  0  0
  -27.9610  -12.4890   18.3500 C   0  0  0  0  0  2  0  0  0  0  0  0
  -27.6480  -13.3510   19.6020 C   0  0  0  0  0  3  0  0  0  0  0  0
  -28.7390  -13.2230   20.6860 C   0  0  0  0  0  2  0  0  0  0  0  0
  -30.0350  -13.5170   20.0680 N   0  0  0  0  0  0  0  0  0  0  0  0
  -31.9100  -14.7300   19.7390 O   0  0  0  0  0  0  0  0  0  0  0  0
  -25.2860  -13.9360   20.4130 C   0  0  0  0  0  0  0  0  0  0  0  0
  -24.2330  -13.1590   20.8110 C   0  0  0  0  0  0  0  0  0  0  0  0
  -24.6960  -11.8080   20.7550 C   0  0  0  0  0  0  0  0  0  0  0  0
  -26.3200  -13.0610   20.1340 N   0  0  0  0  0  0  0  0  0  0  0  0
  -25.9750  -11.7750   20.4020 N   0  0  0  0  0  0  0  0  0  0  0  0
  -23.9780  -10.5430   20.9590 C   0  0  0  0  0  0  0  0  0  0  0  0
  -24.4280   -9.5740   21.8820 C   0  0  0  0  0  3  0  0  0  0  0  0
  -23.7040   -8.3770   22.0710 C   0  0  0  0  0  3  0  0  0  0  0  0
  -22.5170   -8.1410   21.3390 C   0  0  0  0  0  0  0  0  0  0  0  0
  -22.0860   -9.0990   20.4040 C   0  0  0  0  0  3  0  0  0  0  0  0
  -22.8110  -10.2880   20.2110 C   0  0  0  0  0  3  0  0  0  0  0  0
  -21.7630   -6.9960   21.4410 O   0  0  0  0  0  0  0  0  0  0  0  0
  -21.7280   -6.2590   22.5970 C   0  0  0  0  0  0  0  0  0  0  0  0
  -21.3080   -6.8160   23.8240 C   0  0  0  0  0  3  0  0  0  0  0  0
  -21.2180   -6.0040   24.9720 C   0  0  0  0  0  3  0  0  0  0  0  0
  -21.5390   -4.6360   24.8950 C   0  0  0  0  0  0  0  0  0  0  0  0
  -21.9510   -4.0770   23.6720 C   0  0  0  0  0  3  0  0  0  0  0  0
  -22.0420   -4.8860   22.5260 C   0  0  0  0  0  0  0  0  0  0  0  0
  -22.4200   -4.3380   21.3450 F   0  0  0  0  0  0  0  0  0  0  0  0
  -21.4470   -3.8530   25.9950 F   0  0  0  0  0  0  0  0  0  0  0  0
  -22.8460  -13.6340   21.1340 C   0  0  0  0  0  0  0  0  0  0  0  0
  -22.1450  -12.9300   22.0160 N   0  0  0  0  0  0  0  0  0  0  0  0
  -22.3950  -14.6670   20.6400 O   0  0  0  0  0  0  0  0  0  0  0  0
  -22.5220  -12.0930   22.4350 H   0  0  0  0  0  0  0  0  0  0  0  0
  -21.2170  -13.2320   22.2760 H   0  0  0  0  0  0  0  0  0  0  0  0
  -25.4430  -15.3090   20.2420 N   0  0  0  0  0  0  0  0  0  0  0  0
  -24.6750  -15.9550   20.3850 H   0  0  0  0  0  0  0  0  0  0  0  0
  -26.2790  -15.7610   19.8960 H   0  0  0  0  0  0  0  0  0  0  0  0
  -29.1590  -22.7280   20.3130 C   0  0  0  0  0  2  0  0  0  0  0  0
  -28.4040  -24.0550   20.7730 C   0  0  0  0  0  2  0  0  0  0  0  0
  -28.6240  -25.2990   19.8040 C   0  0  0  0  0  2  0  0  0  0  0  0
  -28.4600  -26.6780   20.2750 O   0  0  0  0  0  0  0  0  0  0  0  0
  -24.6170  -31.8920   23.2230 C   0  0  0  0  0  0  0  0  0  0  0  0
  -27.2820  -27.4170   20.1720 C   0  0  0  0  0  0  0  0  0  0  0  0
  -23.4190  -30.4950   21.5680 C   0  0  0  0  0  3  0  0  0  0  0  0
  -24.8850  -28.9610   20.1410 C   0  0  0  0  0  0  0  0  0  0  0  0
  -25.9430  -30.8620   21.3690 C   0  0  0  0  0  2  0  0  0  0  0  0
  -26.0400  -29.4850   20.7340 C   0  0  0  0  0  0  0  0  0  0  0  0
  -27.2350  -28.7200   20.7410 C   0  0  0  0  0  3  0  0  0  0  0  0
  -26.1070  -26.9230   19.5640 C   0  0  0  0  0  3  0  0  0  0  0  0
  -24.9190  -27.6850   19.5470 C   0  0  0  0  0  3  0  0  0  0  0  0
  -23.6340  -29.8110   20.1880 C   0  0  0  0  0  2  0  0  0  0  0  0
  -24.6780  -31.1010   22.1130 N   0  0  0  0  0  0  0  0  0  0  0  0
  -23.5340  -32.1540   23.7670 O   0  0  0  0  0  0  0  0  0  0  0  0
  -22.7670  -29.4750   22.5290 C   0  0  0  0  0  0  0  0  0  0  0  0
  -21.4420  -29.2890   22.4000 N   0  0  0  0  0  0  0  0  0  0  0  0
  -23.4510  -28.8460   23.3400 O   0  0  0  0  0  0  0  0  0  0  0  0
  -20.9490  -29.8430   21.7120 H   0  0  0  0  0  0  0  0  0  0  0  0
  -18.0780  -28.0640   22.8830 C   0  0  0  0  0  0  0  0  0  0  0  0
  -20.6310  -28.3440   23.1660 C   0  0  0  0  0  3  0  0  0  0  0  0
  -20.7500  -26.9140   22.5860 C   0  0  0  0  0  2  0  0  0  0  0  0
  -19.6570  -26.5850   21.5670 C   0  0  0  0  0  2  0  0  0  0  0  0
  -18.2700  -26.7180   22.2040 C   0  0  0  0  0  2  0  0  0  0  0  0
  -19.1860  -28.8350   23.3200 C   0  0  0  0  0  0  0  0  0  0  0  0
  -18.9550  -30.0940   23.9140 C   0  0  0  0  0  3  0  0  0  0  0  0
  -17.6450  -30.5810   24.0800 C   0  0  0  0  0  3  0  0  0  0  0  0
  -16.5500  -29.8080   23.6580 C   0  0  0  0  0  3  0  0  0  0  0  0
  -16.7660  -28.5520   23.0630 C   0  0  0  0  0  3  0  0  0  0  0  0
  -25.9000  -32.5260   23.8510 C   0  0  0  0  0  3  0  0  0  0  0  0
  -25.5860  -33.9210   24.1890 N   0  0  0  0  0  0  0  0  0  0  0  0
  -25.9140  -34.9800   23.4340 C   0  0  0  0  0  0  0  0  0  0  0  0
  -26.5820  -34.8840   22.4000 O   0  0  0  0  0  0  0  0  0  0  0  0
  -24.9970  -34.0720   24.9950 H   0  0  0  0  0  0  0  0  0  0  0  0
  -24.1790  -36.7690   23.0970 C   0  0  0  0  0  1  0  0  0  0  0  0
  -25.4230  -36.3650   23.9020 C   0  0  0  0  0  3  0  0  0  0  0  0
  -27.5570  -37.2520   24.7250 C   0  0  0  0  0  1  0  0  0  0  0  0
  -26.4490  -37.4250   23.7900 N   0  0  0  0  0  0  0  0  0  0  0  0
  -26.0380  -38.3390   23.9550 H   0  0  0  0  0  0  0  0  0  0  0  0
  -26.4220  -31.7490   25.1200 C   0  0  1  0  0  0  0  0  0  0  0  0
  -25.3300  -31.5000   26.1870 C   0  0  0  0  0  1  0  0  0  0  0  0
  -27.0110  -30.3770   24.7180 C   0  0  0  0  0  1  0  0  0  0  0  0
  -27.5750  -32.5400   25.7830 C   0  0  0  0  0  1  0  0  0  0  0  0
  2  1  1  0
  2  3  1  1
  4  8  1  0
  4  2  1  0
  5 10  2  0
  5  6  1  0
  6 11  2  0
  7  9  1  0
  8  7  2  0
 10  8  1  0
 11  7  1  0
 12  6  1  0
 13 18  1  0
 14 15  1  0
 14 13  1  0
 16 15  1  0
 16 23  1  0
 16 17  1  0
 18 12  1  0
 18 17  1  0
 19 12  2  0
 20 21  2  0
 21 40  1  0
 22 21  1  0
 22 25  1  0
 23 24  1  0
 23 20  1  0
 24 22  2  0
 25 26  1  0
 26 27  2  0
 28 31  1  0
 28 27  1  0
 29 28  2  0
 30 29  1  0
 30 25  2  0
 31 32  1  0
 32 33  1  0
 33 34  2  0
 35 34  1  0
 35 39  1  0
 36 35  2  0
 37 32  2  0
 37 36  1  0
 38 37  1  0
 40 41  1  0
 41 44  1  0
 41 43  1  0
 42 40  2  0
 45 46  1  0
 45 20  1  0
 47 45  1  0
 48 49  1  0
 48  2  1  0
 50 51  1  0
 50 49  1  0
 52 63  2  0
 53 51  1  0
 53 58  1  0
 54 62  1  0
 54 64  1  0
 55 61  1  0
 55 57  1  0
 56 62  1  0
 57 58  2  0
 57 56  1  0
 59 53  2  0
 60 59  1  0
 60 55  2  0
 61 54  1  0
 62 52  1  0
 64 66  2  0
 65 64  1  0
 67 65  1  0
 68 77  2  0
 68 73  1  0
 69 65  1  0
 69 73  1  0
 70 69  1  0
 71 72  1  0
 71 70  1  0
 72 68  1  0
 73 74  2  0
 74 75  1  0
 76 75  2  0
 77 76  1  0
 78 52  1  0
 78 79  1  0
 78 88  1  0
 79 82  1  0
 80 84  1  0
 80 79  1  0
 81 80  2  0
 84 83  1  0
 86 84  1  0
 86 87  1  0
 86 85  1  0
 88 91  1  1
 88 89  1  0
 90 88  1  0
M  ISO  4   6 100  12 100  50 101  51 101
M  END
>  <TORSDO>  (54) 
F 21

>  <SCORE>  (54) 
-12.850

>  <name>  (54) 
54

>  <ligand_id>  (54) 
54

>  <original_smiles>  (54) 
[H]c1nc(C([H])([H])[N+]([H])(C([H])([H])[H])C([H])([H])C([H])([H])C([H])([H])Oc2c([H])c([H])c3c(c2[H])C([H])([H])N(C(=O)C([H])(N([H])C(=O)C([H])(N([H])C([H])([H])[H])C([H])([H])[H])C(C([H])([H])[H])(C([H])([H])[H])C([H])([H])[H])C([H])(C(=O)N([H])C2([H])c4c([H])c([H])c([H])c([H])c4C([H])([H])C([H])([H])C2([H])[H])C3([H])[H])c(C([H])([H])[H])nc1C(=O)N1C([H])([H])C([H])([H])C([H])([H])C([H])(n2nc(-c3c([H])c([H])c(Oc4c([H])c([H])c(F)c([H])c4F)c([H])c3[H])c(C(=O)N([H])[H])c2N([H])[H])C1([H])[H]

>  <smiles>  (54) 
[H]c1nc(C([H])([H])[N+]([H])(C([H])([H])[H])C([H])([H])C([H])([H])C([H])([H])Oc2c([H])c([H])c3c(c2[H])C([H])([H])N(C(=O)C([H])(N([H])C(=O)C([H])(N([H])C([H])([H])[H])C([H])([H])[H])C(C([H])([H])[H])(C([H])([H])[H])C([H])([H])[H])C([H])(C(=O)N([H])C2([H])c4c([H])c([H])c([H])c([H])c4C([H])([H])C([H])([H])C2([H])[H])C3([H])[H])c(C([H])([H])[H])nc1C(=O)N1C([H])([H])C([H])([H])C([H])([H])C([H])(n2nc(-c3c([H])c([H])c(Oc4c([H])c([H])c(F)c([H])c4F)c([H])c3[H])c(C(=O)N([H])[H])c2N([H])[H])C1([H])[H]

$$$$
55:0:0
     RDKit          3D

 89 97  0  0  1  0  0  0  0  0999 V2000
  -29.0060  -18.1930   19.5540 C   0  0  0  0  0  3  0  0  0  0  0  0
  -28.6620  -19.5810   19.4250 C   0  0  0  0  0  3  0  0  0  0  0  0
  -29.9370  -17.7300   20.5250 C   0  0  0  0  0  0  0  0  0  0  0  0
  -29.2270  -20.5950   20.2530 C   0  0  0  0  0  0  0  0  0  0  0  0
  -30.5310  -18.8190   21.2510 C   0  0  0  0  0  0  0  0  0  0  0  0
  -30.1840  -20.1590   21.1280 N   0  0  0  0  0  0  0  0  0  0  0  0
  -30.9370  -18.5240   23.7420 C   0  0  0  0  0  1  0  0  0  0  0  0
  -31.5610  -18.5520   22.3400 C   0  0  0  0  0  2  0  0  0  0  0  0
  -29.9890  -16.1730   20.9960 C   0  0  0  0  0  2  0  0  0  0  0  0
  -30.7890  -14.9110   20.3550 C   0  0  0  0  0  0  0  0  0  0  0  0
  -30.6460  -12.6300   19.2730 C   0  0  0  0  0  2  0  0  0  0  0  0
  -29.7030  -12.6960   18.0500 C   0  0  0  0  0  2  0  0  0  0  0  0
  -28.2260  -12.5280   18.4650 C   0  0  0  0  0  2  0  0  0  0  0  0
  -27.8520  -13.3930   19.6980 C   0  0  0  0  0  3  0  0  0  0  0  0
  -28.9090  -13.2600   20.8170 C   0  0  0  0  0  2  0  0  0  0  0  0
  -30.2070  -13.6570   20.2500 N   0  0  0  0  0  0  0  0  0  0  0  0
  -31.9360  -15.0680   19.9220 O   0  0  0  0  0  0  0  0  0  0  0  0
  -25.4560  -13.9950   20.3960 C   0  0  0  0  0  0  0  0  0  0  0  0
  -24.3850  -13.2270   20.7630 C   0  0  0  0  0  0  0  0  0  0  0  0
  -24.8460  -11.8740   20.7520 C   0  0  0  0  0  0  0  0  0  0  0  0
  -26.5010  -13.1110   20.1770 N   0  0  0  0  0  0  0  0  0  0  0  0
  -26.1400  -11.8320   20.4560 N   0  0  0  0  0  0  0  0  0  0  0  0
  -24.1170  -10.6150   20.9510 C   0  0  0  0  0  0  0  0  0  0  0  0
  -24.5300   -9.6650   21.9110 C   0  0  0  0  0  3  0  0  0  0  0  0
  -23.8010   -8.4700   22.0960 C   0  0  0  0  0  3  0  0  0  0  0  0
  -22.6430   -8.2170   21.3220 C   0  0  0  0  0  0  0  0  0  0  0  0
  -22.2490   -9.1570   20.3540 C   0  0  0  0  0  3  0  0  0  0  0  0
  -22.9770  -10.3440   20.1670 C   0  0  0  0  0  3  0  0  0  0  0  0
  -21.8860   -7.0740   21.4160 O   0  0  0  0  0  0  0  0  0  0  0  0
  -21.7980   -6.3640   22.5860 C   0  0  0  0  0  0  0  0  0  0  0  0
  -21.3340   -6.9530   23.7830 C   0  0  0  0  0  3  0  0  0  0  0  0
  -21.1910   -6.1690   24.9440 C   0  0  0  0  0  3  0  0  0  0  0  0
  -21.5030   -4.7960   24.9120 C   0  0  0  0  0  0  0  0  0  0  0  0
  -21.9600   -4.2060   23.7200 C   0  0  0  0  0  3  0  0  0  0  0  0
  -22.1040   -4.9890   22.5600 C   0  0  0  0  0  0  0  0  0  0  0  0
  -22.5250   -4.4100   21.4090 F   0  0  0  0  0  0  0  0  0  0  0  0
  -21.3590   -4.0400   26.0260 F   0  0  0  0  0  0  0  0  0  0  0  0
  -22.9840  -13.7080   21.0120 C   0  0  0  0  0  0  0  0  0  0  0  0
  -22.2490  -13.0330   21.8880 N   0  0  0  0  0  0  0  0  0  0  0  0
  -22.5510  -14.7200   20.4640 O   0  0  0  0  0  0  0  0  0  0  0  0
  -22.6130  -12.2130   22.3540 H   0  0  0  0  0  0  0  0  0  0  0  0
  -21.3080  -13.3360   22.0950 H   0  0  0  0  0  0  0  0  0  0  0  0
  -25.6240  -15.3640   20.2070 N   0  0  0  0  0  0  0  0  0  0  0  0
  -24.8540  -16.0170   20.3090 H   0  0  0  0  0  0  0  0  0  0  0  0
  -26.4750  -15.8020   19.8840 H   0  0  0  0  0  0  0  0  0  0  0  0
  -28.5140  -22.0470   20.4240 C   0  0  0  0  0  2  0  0  0  0  0  0
  -29.0930  -23.5610   20.1310 C   0  0  0  0  0  3  0  0  0  0  0  0
  -28.0260  -24.8220   20.1650 C   0  0  0  0  0  3  0  0  0  0  0  0
  -28.3170  -26.3250   20.0790 O   0  0  0  0  0  0  0  0  0  0  0  0
  -24.6100  -31.8530   23.1400 C   0  0  0  0  0  0  0  0  0  0  0  0
  -27.2270  -27.2520   20.0410 C   0  0  0  0  0  0  0  0  0  0  0  0
  -23.4120  -30.4640   21.4940 C   0  0  0  0  0  3  0  0  0  0  0  0
  -24.8700  -28.9320   20.0440 C   0  0  0  0  0  0  0  0  0  0  0  0
  -25.9590  -30.7710   21.3140 C   0  0  0  0  0  2  0  0  0  0  0  0
  -26.0430  -29.3920   20.6510 C   0  0  0  0  0  0  0  0  0  0  0  0
  -27.2240  -28.5680   20.6360 C   0  0  0  0  0  3  0  0  0  0  0  0
  -26.0270  -26.8830   19.3900 C   0  0  0  0  0  3  0  0  0  0  0  0
  -24.8710  -27.6880   19.3990 C   0  0  0  0  0  3  0  0  0  0  0  0
  -23.6310  -29.8080   20.1060 C   0  0  0  0  0  2  0  0  0  0  0  0
  -24.6800  -31.0490   22.0380 N   0  0  0  0  0  0  0  0  0  0  0  0
  -23.5260  -32.1200   23.6800 O   0  0  0  0  0  0  0  0  0  0  0  0
  -22.7520  -29.4350   22.4450 C   0  0  0  0  0  0  0  0  0  0  0  0
  -21.4250  -29.2530   22.3220 N   0  0  0  0  0  0  0  0  0  0  0  0
  -23.4360  -28.8050   23.2550 O   0  0  0  0  0  0  0  0  0  0  0  0
  -20.9290  -29.8180   21.6470 H   0  0  0  0  0  0  0  0  0  0  0  0
  -18.0560  -28.0260   22.8240 C   0  0  0  0  0  0  0  0  0  0  0  0
  -20.6140  -28.3010   23.0860 C   0  0  0  0  0  3  0  0  0  0  0  0
  -20.7230  -26.8760   22.4970 C   0  0  0  0  0  2  0  0  0  0  0  0
  -19.6180  -26.5550   21.4860 C   0  0  0  0  0  2  0  0  0  0  0  0
  -18.2390  -26.6830   22.1350 C   0  0  0  0  0  2  0  0  0  0  0  0
  -19.1710  -28.7920   23.2550 C   0  0  0  0  0  0  0  0  0  0  0  0
  -18.9460  -30.0470   23.8590 C   0  0  0  0  0  3  0  0  0  0  0  0
  -17.6380  -30.5370   24.0370 C   0  0  0  0  0  3  0  0  0  0  0  0
  -16.5370  -29.7700   23.6180 C   0  0  0  0  0  3  0  0  0  0  0  0
  -16.7470  -28.5150   23.0180 C   0  0  0  0  0  3  0  0  0  0  0  0
  -25.8900  -32.4880   23.7640 C   0  0  0  0  0  3  0  0  0  0  0  0
  -25.5670  -33.8790   24.1200 N   0  0  0  0  0  0  0  0  0  0  0  0
  -25.8820  -34.9490   23.3780 C   0  0  0  0  0  0  0  0  0  0  0  0
  -26.5410  -34.8690   22.3380 O   0  0  0  0  0  0  0  0  0  0  0  0
  -24.9750  -34.0140   24.9270 H   0  0  0  0  0  0  0  0  0  0  0  0
  -24.1320  -36.7330   23.0700 C   0  0  0  0  0  1  0  0  0  0  0  0
  -25.3850  -36.3250   23.8640 C   0  0  0  0  0  3  0  0  0  0  0  0
  -27.5190  -37.2180   24.6880 C   0  0  0  0  0  1  0  0  0  0  0  0
  -26.4060  -37.3910   23.7590 N   0  0  0  0  0  0  0  0  0  0  0  0
  -25.9910  -38.3040   23.9250 H   0  0  0  0  0  0  0  0  0  0  0  0
  -26.4160  -31.7050   25.0290 C   0  0  1  0  0  0  0  0  0  0  0  0
  -25.3290  -31.4500   26.1000 C   0  0  0  0  0  1  0  0  0  0  0  0
  -27.0070  -30.3340   24.6230 C   0  0  0  0  0  1  0  0  0  0  0  0
  -27.5640  -32.5000   25.6960 C   0  0  0  0  0  1  0  0  0  0  0  0
  1  3  1  0
  2  1  2  0
  2  4  1  0
  3  9  1  0
  3  5  2  0
  4 46  1  0
  4  6  2  0
  5  8  1  0
  6  5  1  0
  8  7  1  0
 10  9  1  0
 11 16  1  0
 12 13  1  0
 12 11  1  0
 14 13  1  0
 14 21  1  0
 14 15  1  0
 16 10  1  0
 16 15  1  0
 17 10  2  0
 18 19  2  0
 19 38  1  0
 20 19  1  0
 20 23  1  0
 21 18  1  0
 21 22  1  0
 22 20  2  0
 23 24  1  0
 24 25  2  0
 26 29  1  0
 26 25  1  0
 27 26  2  0
 28 27  1  0
 28 23  2  0
 29 30  1  0
 30 31  1  0
 31 32  2  0
 33 32  1  0
 33 37  1  0
 34 33  2  0
 35 30  2  0
 35 34  1  0
 36 35  1  0
 38 39  1  0
 39 42  1  0
 39 41  1  0
 40 38  2  0
 43 44  1  0
 43 18  1  0
 45 43  1  0
 47 48  2  0
 47 46  1  0
 49 48  1  0
 50 61  2  0
 51 49  1  0
 51 56  1  0
 52 60  1  0
 52 62  1  0
 53 59  1  0
 53 55  1  0
 54 60  1  0
 55 54  1  0
 56 55  2  0
 57 58  1  0
 57 51  2  0
 58 53  2  0
 59 52  1  0
 60 50  1  0
 62 64  2  0
 63 62  1  0
 65 63  1  0
 66 75  2  0
 66 71  1  0
 67 63  1  0
 67 71  1  0
 68 67  1  0
 69 70  1  0
 69 68  1  0
 70 66  1  0
 71 72  2  0
 72 73  1  0
 74 73  2  0
 75 74  1  0
 76 50  1  0
 76 77  1  0
 76 86  1  0
 77 80  1  0
 78 82  1  0
 78 77  1  0
 79 78  2  0
 82 81  1  0
 84 82  1  0
 84 85  1  0
 84 83  1  0
 86 89  1  1
 86 87  1  0
 88 86  1  0
M  ISO  4   9 100  10 100  48 101  49 101
M  END
>  <TORSDO>  (55) 
F 21

>  <SCORE>  (55) 
-12.990

>  <name>  (55) 
55

>  <ligand_id>  (55) 
55

>  <original_smiles>  (55) 
[H]c1c(C([H])([H])C([H])([H])C([H])([H])Oc2c([H])c([H])c3c(c2[H])C([H])([H])N(C(=O)C([H])(N([H])C(=O)C([H])(N([H])C([H])([H])[H])C([H])([H])[H])C(C([H])([H])[H])(C([H])([H])[H])C([H])([H])[H])C([H])(C(=O)N([H])C2([H])c4c([H])c([H])c([H])c([H])c4C([H])([H])C([H])([H])C2([H])[H])C3([H])[H])nc(C([H])([H])C([H])([H])[H])c(C([H])([H])C(=O)N2C([H])([H])C([H])([H])C([H])([H])C([H])(n3nc(-c4c([H])c([H])c(Oc5c([H])c([H])c(F)c([H])c5F)c([H])c4[H])c(C(=O)N([H])[H])c3N([H])[H])C2([H])[H])c1[H]

>  <smiles>  (55) 
[H]c1c(C([H])([H])C([H])([H])C([H])([H])Oc2c([H])c([H])c3c(c2[H])C([H])([H])N(C(=O)C([H])(N([H])C(=O)C([H])(N([H])C([H])([H])[H])C([H])([H])[H])C(C([H])([H])[H])(C([H])([H])[H])C([H])([H])[H])C([H])(C(=O)N([H])C2([H])c4c([H])c([H])c([H])c([H])c4C([H])([H])C([H])([H])C2([H])[H])C3([H])[H])nc(C([H])([H])C([H])([H])[H])c(C([H])([H])C(=O)N2C([H])([H])C([H])([H])C([H])([H])C([H])(n3nc(-c4c([H])c([H])c(Oc5c([H])c([H])c(F)c([H])c5F)c([H])c4[H])c(C(=O)N([H])[H])c3N([H])[H])C2([H])[H])c1[H]

$$$$
56:0:0
     RDKit          3D

 93101  0  0  1  0  0  0  0  0999 V2000
  -29.0940  -19.6470   18.4910 C   0  0  0  0  0  3  0  0  0  0  0  0
  -30.3360  -19.5330   19.1640 C   0  0  0  0  0  0  0  0  0  0  0  0
  -29.0790  -20.8050   17.7720 C   0  0  0  0  0  0  0  0  0  0  0  0
  -30.9990  -20.7200   18.9570 C   0  0  0  0  0  0  0  0  0  0  0  0
  -28.0820  -21.2430   16.7430 C   0  0  0  0  0  1  0  0  0  0  0  0
  -32.3550  -21.1470   19.4280 C   0  0  0  0  0  1  0  0  0  0  0  0
  -30.2260  -21.5220   18.1080 N   0  0  0  0  0  0  0  0  0  0  0  0
  -30.8160  -18.2960   19.9040 C   0  0  0  0  0  2  0  0  0  0  0  0
  -29.8680  -17.8430   21.0270 C   0  0  0  0  0  2  0  0  0  0  0  0
  -30.3700  -16.5890   21.7640 C   0  0  0  0  0  2  0  0  0  0  0  0
  -30.6770  -14.3950   20.5480 C   0  0  0  0  0  0  0  0  0  0  0  0
  -30.3680  -12.3050   19.2740 C   0  0  0  0  0  2  0  0  0  0  0  0
  -29.4070  -12.5610   18.0940 C   0  0  0  0  0  2  0  0  0  0  0  0
  -27.9320  -12.4460   18.5290 C   0  0  0  0  0  2  0  0  0  0  0  0
  -27.6190  -13.2310   19.8320 C   0  0  0  0  0  3  0  0  0  0  0  0
  -28.6720  -12.9290   20.9190 C   0  0  0  0  0  2  0  0  0  0  0  0
  -29.9990  -13.2370   20.3490 N   0  0  0  0  0  0  0  0  0  0  0  0
  -31.8200  -14.6050   20.1340 O   0  0  0  0  0  0  0  0  0  0  0  0
  -29.9430  -15.3390   21.1500 N   0  0  0  0  0  0  0  0  0  0  0  0
  -28.9810  -15.0800   21.3040 H   0  0  0  0  0  0  0  0  0  0  0  0
  -25.2170  -13.8620   20.5110 C   0  0  0  0  0  0  0  0  0  0  0  0
  -24.1380  -13.1010   20.8780 C   0  0  0  0  0  0  0  0  0  0  0  0
  -24.5910  -11.7460   20.8560 C   0  0  0  0  0  0  0  0  0  0  0  0
  -26.2600  -12.9700   20.3000 N   0  0  0  0  0  0  0  0  0  0  0  0
  -25.8840  -11.6930   20.5580 N   0  0  0  0  0  0  0  0  0  0  0  0
  -23.8550  -10.4900   21.0430 C   0  0  0  0  0  0  0  0  0  0  0  0
  -24.2710   -9.5190   21.9810 C   0  0  0  0  0  3  0  0  0  0  0  0
  -23.5320   -8.3290   22.1550 C   0  0  0  0  0  3  0  0  0  0  0  0
  -22.3620   -8.1020   21.3900 C   0  0  0  0  0  0  0  0  0  0  0  0
  -21.9680   -9.0610   20.4400 C   0  0  0  0  0  3  0  0  0  0  0  0
  -22.7080  -10.2420   20.2650 C   0  0  0  0  0  3  0  0  0  0  0  0
  -21.6000   -6.9610   21.4680 O   0  0  0  0  0  0  0  0  0  0  0  0
  -21.5350   -6.2160   22.6190 C   0  0  0  0  0  0  0  0  0  0  0  0
  -21.0970   -6.7730   23.8420 C   0  0  0  0  0  3  0  0  0  0  0  0
  -20.9780   -5.9570   24.9840 C   0  0  0  0  0  3  0  0  0  0  0  0
  -21.2860   -4.5880   24.9060 C   0  0  0  0  0  0  0  0  0  0  0  0
  -21.7200   -4.0290   23.6890 C   0  0  0  0  0  3  0  0  0  0  0  0
  -21.8390   -4.8420   22.5480 C   0  0  0  0  0  0  0  0  0  0  0  0
  -22.2330   -4.2960   21.3720 F   0  0  0  0  0  0  0  0  0  0  0  0
  -21.1720   -3.8000   26.0020 F   0  0  0  0  0  0  0  0  0  0  0  0
  -22.7430  -13.5920   21.1340 C   0  0  0  0  0  0  0  0  0  0  0  0
  -22.0010  -12.9020   21.9930 N   0  0  0  0  0  0  0  0  0  0  0  0
  -22.3180  -14.6200   20.6120 O   0  0  0  0  0  0  0  0  0  0  0  0
  -22.3590  -12.0630   22.4220 H   0  0  0  0  0  0  0  0  0  0  0  0
  -21.0700  -13.2130   22.2240 H   0  0  0  0  0  0  0  0  0  0  0  0
  -25.3970  -15.2290   20.3270 N   0  0  0  0  0  0  0  0  0  0  0  0
  -24.6370  -15.8940   20.4170 H   0  0  0  0  0  0  0  0  0  0  0  0
  -26.2490  -15.6450   19.9720 H   0  0  0  0  0  0  0  0  0  0  0  0
  -30.6490  -22.8070   17.5230 C   0  0  0  0  0  2  0  0  0  0  0  0
  -29.6490  -23.9970   17.5920 C   0  0  0  0  0  2  0  0  0  0  0  0
  -29.5220  -24.7430   18.9440 C   0  0  0  0  0  2  0  0  0  0  0  0
  -28.7340  -26.0720   18.8120 C   0  0  0  0  0  2  0  0  0  0  0  0
  -28.4150  -26.6930   20.0790 O   0  0  0  0  0  0  0  0  0  0  0  0
  -24.5780  -31.8730   23.2640 C   0  0  0  0  0  0  0  0  0  0  0  0
  -27.2330  -27.4110   20.1490 C   0  0  0  0  0  0  0  0  0  0  0  0
  -23.3780  -30.4700   21.6200 C   0  0  0  0  0  3  0  0  0  0  0  0
  -24.8300  -28.9190   20.2130 C   0  0  0  0  0  0  0  0  0  0  0  0
  -25.9100  -30.8080   21.4410 C   0  0  0  0  0  2  0  0  0  0  0  0
  -25.9930  -29.4340   20.8010 C   0  0  0  0  0  0  0  0  0  0  0  0
  -27.1960  -28.6830   20.7770 C   0  0  0  0  0  3  0  0  0  0  0  0
  -26.0290  -26.8930   19.6170 C   0  0  0  0  0  3  0  0  0  0  0  0
  -24.8420  -27.6420   19.6310 C   0  0  0  0  0  3  0  0  0  0  0  0
  -23.5910  -29.7850   20.2460 C   0  0  0  0  0  2  0  0  0  0  0  0
  -24.6400  -31.0650   22.1660 N   0  0  0  0  0  0  0  0  0  0  0  0
  -23.4930  -32.1520   23.7920 O   0  0  0  0  0  0  0  0  0  0  0  0
  -22.7110  -29.4570   22.5770 C   0  0  0  0  0  0  0  0  0  0  0  0
  -21.3860  -29.2830   22.4420 N   0  0  0  0  0  0  0  0  0  0  0  0
  -23.3850  -28.8280   23.3990 O   0  0  0  0  0  0  0  0  0  0  0  0
  -20.9040  -29.8410   21.7510 H   0  0  0  0  0  0  0  0  0  0  0  0
  -17.9990  -28.1190   22.9300 C   0  0  0  0  0  0  0  0  0  0  0  0
  -20.5590  -28.3520   23.2100 C   0  0  0  0  0  3  0  0  0  0  0  0
  -20.6490  -26.9200   22.6330 C   0  0  0  0  0  2  0  0  0  0  0  0
  -19.5470  -26.6090   21.6150 C   0  0  0  0  0  2  0  0  0  0  0  0
  -18.1650  -26.7690   22.2550 C   0  0  0  0  0  2  0  0  0  0  0  0
  -19.1250  -28.8690   23.3650 C   0  0  0  0  0  0  0  0  0  0  0  0
  -18.9160  -30.1350   23.9540 C   0  0  0  0  0  3  0  0  0  0  0  0
  -17.6160  -30.6500   24.1160 C   0  0  0  0  0  3  0  0  0  0  0  0
  -16.5060  -29.8960   23.6990 C   0  0  0  0  0  3  0  0  0  0  0  0
  -16.6980  -28.6330   23.1100 C   0  0  0  0  0  3  0  0  0  0  0  0
  -25.8610  -32.5000   23.8910 C   0  0  0  0  0  3  0  0  0  0  0  0
  -25.5590  -33.9010   24.2050 N   0  0  0  0  0  0  0  0  0  0  0  0
  -25.8990  -34.9440   23.4360 C   0  0  0  0  0  0  0  0  0  0  0  0
  -26.5720  -34.8260   22.4070 O   0  0  0  0  0  0  0  0  0  0  0  0
  -24.9660  -34.0680   25.0040 H   0  0  0  0  0  0  0  0  0  0  0  0
  -24.1810  -36.7410   23.0560 C   0  0  0  0  0  1  0  0  0  0  0  0
  -25.4170  -36.3400   23.8760 C   0  0  0  0  0  3  0  0  0  0  0  0
  -27.5520  -37.2230   24.7070 C   0  0  0  0  0  1  0  0  0  0  0  0
  -26.4550  -37.3870   23.7560 N   0  0  0  0  0  0  0  0  0  0  0  0
  -26.0540  -38.3110   23.8910 H   0  0  0  0  0  0  0  0  0  0  0  0
  -26.3610  -31.7350   25.1770 C   0  0  1  0  0  0  0  0  0  0  0  0
  -25.2560  -31.5140   26.2370 C   0  0  0  0  0  1  0  0  0  0  0  0
  -26.9380  -30.3510   24.8010 C   0  0  0  0  0  1  0  0  0  0  0  0
  -27.5100  -32.5270   25.8440 C   0  0  0  0  0  1  0  0  0  0  0  0
  1  2  1  0
  2  8  1  0
  3  7  1  0
  3  1  2  0
  4  2  2  0
  4  6  1  0
  5  3  1  0
  7  4  1  0
  8  9  1  0
  9 10  1  0
 11 19  1  0
 12 17  1  0
 13 14  1  0
 13 12  1  0
 15 14  1  0
 15 24  1  0
 15 16  1  0
 17 11  1  0
 17 16  1  0
 18 11  2  0
 19 20  1  0
 19 10  1  0
 21 22  2  0
 22 41  1  0
 23 22  1  0
 23 26  1  0
 24 21  1  0
 24 25  1  0
 25 23  2  0
 26 27  1  0
 27 28  2  0
 29 32  1  0
 29 28  1  0
 30 29  2  0
 31 30  1  0
 31 26  2  0
 32 33  1  0
 33 34  1  0
 34 35  2  0
 36 35  1  0
 36 40  1  0
 37 36  2  0
 38 33  2  0
 38 37  1  0
 39 38  1  0
 41 42  1  0
 42 45  1  0
 42 44  1  0
 43 41  2  0
 46 47  1  0
 46 21  1  0
 48 46  1  0
 49 50  1  0
 49  7  1  0
 50 51  1  0
 52 51  1  0
 52 53  1  0
 53 55  1  0
 54 65  2  0
 55 60  1  0
 56 64  1  0
 56 66  1  0
 57 63  1  0
 57 59  1  0
 58 64  1  0
 59 58  1  0
 60 59  2  0
 61 62  1  0
 61 55  2  0
 62 57  2  0
 63 56  1  0
 64 54  1  0
 66 68  2  0
 67 66  1  0
 69 67  1  0
 70 79  2  0
 70 75  1  0
 71 67  1  0
 71 75  1  0
 72 71  1  0
 73 74  1  0
 73 72  1  0
 74 70  1  0
 75 76  2  0
 76 77  1  0
 78 77  2  0
 79 78  1  0
 80 54  1  0
 80 81  1  0
 80 90  1  0
 81 84  1  0
 82 86  1  0
 82 81  1  0
 83 82  2  0
 86 85  1  0
 88 86  1  0
 88 89  1  0
 88 87  1  0
 90 93  1  1
 90 91  1  0
 92 90  1  0
M  ISO  4  11 100  19 100  52 101  53 101
M  END
>  <TORSDO>  (56) 
F 23

>  <SCORE>  (56) 
-12.370

>  <name>  (56) 
56

>  <ligand_id>  (56) 
56

>  <original_smiles>  (56) 
[H]c1c([H])c([H])c2c(c1[H])C([H])([H])C([H])([H])C([H])([H])C2([H])N([H])C(=O)C1([H])N(C(=O)C([H])(N([H])C(=O)C([H])(N([H])C([H])([H])[H])C([H])([H])[H])C(C([H])([H])[H])(C([H])([H])[H])C([H])([H])[H])C([H])([H])c2c([H])c(OC([H])([H])C([H])([H])C([H])([H])C([H])([H])n3c(C([H])([H])[H])c([H])c(C([H])([H])C([H])([H])C([H])([H])N([H])C(=O)N4C([H])([H])C([H])([H])C([H])([H])C([H])(n5nc(-c6c([H])c([H])c(Oc7c([H])c([H])c(F)c([H])c7F)c([H])c6[H])c(C(=O)N([H])[H])c5N([H])[H])C4([H])[H])c3C([H])([H])[H])c([H])c([H])c2C1([H])[H]

>  <smiles>  (56) 
[H]c1c([H])c([H])c2c(c1[H])C([H])([H])C([H])([H])C([H])([H])C2([H])N([H])C(=O)C1([H])N(C(=O)C([H])(N([H])C(=O)C([H])(N([H])C([H])([H])[H])C([H])([H])[H])C(C([H])([H])[H])(C([H])([H])[H])C([H])([H])[H])C([H])([H])c2c([H])c(OC([H])([H])C([H])([H])C([H])([H])C([H])([H])n3c(C([H])([H])[H])c([H])c(C([H])([H])C([H])([H])C([H])([H])N([H])C(=O)N4C([H])([H])C([H])([H])C([H])([H])C([H])(n5nc(-c6c([H])c([H])c(Oc7c([H])c([H])c(F)c([H])c7F)c([H])c6[H])c(C(=O)N([H])[H])c5N([H])[H])C4([H])[H])c3C([H])([H])[H])c([H])c([H])c2C1([H])[H]

$$$$
57:0:0
     RDKit          3D

 92100  0  0  1  0  0  0  0  0999 V2000
  -30.2120  -21.9280   20.0700 C   0  0  0  0  0  3  0  0  0  0  0  0
  -28.9400  -22.2790   20.4520 C   0  0  0  0  0  0  0  0  0  0  0  0
  -28.9400  -20.1190   19.8320 C   0  0  0  0  0  3  0  0  0  0  0  0
  -31.2980  -19.8880   19.0780 C   0  0  0  0  0  1  0  0  0  0  0  0
  -30.1780  -20.6180   19.6690 N   0  0  0  0  0  0  0  0  0  0  0  0
  -28.2000  -21.1250   20.3250 N   0  0  0  0  0  0  0  0  0  0  0  0
  -27.2080  -21.0540   20.5200 H   0  0  0  0  0  0  0  0  0  0  0  0
  -28.3470  -23.5990   20.8710 C   0  0  0  0  0  2  0  0  0  0  0  0
  -29.4050  -24.7030   21.0820 C   0  0  0  0  0  2  0  0  0  0  0  0
  -28.8120  -26.1030   21.3450 C   0  0  0  0  0  2  0  0  0  0  0  0
  -28.4330  -26.7130   20.1140 O   0  0  0  0  0  0  0  0  0  0  0  0
  -24.6010  -31.8920   23.2120 C   0  0  0  0  0  0  0  0  0  0  0  0
  -27.2840  -27.4620   20.1630 C   0  0  0  0  0  0  0  0  0  0  0  0
  -23.4110  -30.4780   21.5670 C   0  0  0  0  0  3  0  0  0  0  0  0
  -24.8840  -28.9420   20.1590 C   0  0  0  0  0  0  0  0  0  0  0  0
  -25.9350  -30.8510   21.3830 C   0  0  0  0  0  2  0  0  0  0  0  0
  -26.0340  -29.4760   20.7580 C   0  0  0  0  0  0  0  0  0  0  0  0
  -27.2390  -28.7370   20.7690 C   0  0  0  0  0  3  0  0  0  0  0  0
  -26.1260  -26.9410   19.5550 C   0  0  0  0  0  3  0  0  0  0  0  0
  -24.9230  -27.6710   19.5590 C   0  0  0  0  0  3  0  0  0  0  0  0
  -23.6350  -29.7940   20.1910 C   0  0  0  0  0  2  0  0  0  0  0  0
  -24.6660  -31.0900   22.1130 N   0  0  0  0  0  0  0  0  0  0  0  0
  -23.5150  -32.1600   23.7460 O   0  0  0  0  0  0  0  0  0  0  0  0
  -22.7590  -29.4560   22.5270 C   0  0  0  0  0  0  0  0  0  0  0  0
  -21.4360  -29.2710   22.3930 N   0  0  0  0  0  0  0  0  0  0  0  0
  -23.4430  -28.8310   23.3410 O   0  0  0  0  0  0  0  0  0  0  0  0
  -20.9490  -29.8260   21.7020 H   0  0  0  0  0  0  0  0  0  0  0  0
  -18.0600  -28.0910   22.8890 C   0  0  0  0  0  0  0  0  0  0  0  0
  -20.6180  -28.3340   23.1610 C   0  0  0  0  0  3  0  0  0  0  0  0
  -20.7160  -26.9060   22.5760 C   0  0  0  0  0  2  0  0  0  0  0  0
  -19.6110  -26.5940   21.5620 C   0  0  0  0  0  2  0  0  0  0  0  0
  -18.2300  -26.7440   22.2080 C   0  0  0  0  0  2  0  0  0  0  0  0
  -19.1820  -28.8450   23.3220 C   0  0  0  0  0  0  0  0  0  0  0  0
  -18.9700  -30.1080   23.9160 C   0  0  0  0  0  3  0  0  0  0  0  0
  -17.6680  -30.6160   24.0830 C   0  0  0  0  0  3  0  0  0  0  0  0
  -16.5610  -29.8580   23.6680 C   0  0  0  0  0  3  0  0  0  0  0  0
  -16.7570  -28.5980   23.0770 C   0  0  0  0  0  3  0  0  0  0  0  0
  -25.8810  -32.5300   23.8370 C   0  0  0  0  0  3  0  0  0  0  0  0
  -25.5640  -33.9250   24.1680 N   0  0  0  0  0  0  0  0  0  0  0  0
  -25.8950  -34.9790   23.4100 C   0  0  0  0  0  0  0  0  0  0  0  0
  -26.5700  -34.8810   22.3810 O   0  0  0  0  0  0  0  0  0  0  0  0
  -24.9670  -34.0760   24.9670 H   0  0  0  0  0  0  0  0  0  0  0  0
  -24.1610  -36.7610   23.0420 C   0  0  0  0  0  1  0  0  0  0  0  0
  -25.3950  -36.3630   23.8660 C   0  0  0  0  0  3  0  0  0  0  0  0
  -27.5180  -37.2550   24.7210 C   0  0  0  0  0  1  0  0  0  0  0  0
  -26.4240  -37.4210   23.7690 N   0  0  0  0  0  0  0  0  0  0  0  0
  -26.0110  -38.3380   23.9170 H   0  0  0  0  0  0  0  0  0  0  0  0
  -26.4030  -31.7580   25.1100 C   0  0  1  0  0  0  0  0  0  0  0  0
  -25.3090  -31.5030   26.1720 C   0  0  0  0  0  1  0  0  0  0  0  0
  -27.0000  -30.3890   24.7090 C   0  0  0  0  0  1  0  0  0  0  0  0
  -27.5450  -32.5600   25.7800 C   0  0  0  0  0  1  0  0  0  0  0  0
  -28.4090  -18.7670   19.4110 C   0  0  0  0  0  2  0  0  0  0  0  0
  -28.5260  -17.5720   20.3960 C   0  0  0  0  0  2  0  0  0  0  0  0
  -29.9150  -16.9000   20.5340 C   0  0  0  0  0  2  0  0  0  0  0  0
  -30.6140  -14.5020   20.5110 C   0  0  0  0  0  0  0  0  0  0  0  0
  -30.3800  -12.3530   19.3390 C   0  0  0  0  0  2  0  0  0  0  0  0
  -29.4410  -12.5940   18.1370 C   0  0  0  0  0  2  0  0  0  0  0  0
  -27.9610  -12.4510   18.5520 C   0  0  0  0  0  2  0  0  0  0  0  0
  -27.6180  -13.2450   19.8400 C   0  0  0  0  0  3  0  0  0  0  0  0
  -28.6670  -12.9750   20.9440 C   0  0  0  0  0  2  0  0  0  0  0  0
  -29.9950  -13.2990   20.3950 N   0  0  0  0  0  0  0  0  0  0  0  0
  -31.7390  -14.7380   20.0590 O   0  0  0  0  0  0  0  0  0  0  0  0
  -29.8020  -15.4910   20.9270 N   0  0  0  0  0  0  0  0  0  0  0  0
  -28.9100  -15.1910   21.2940 H   0  0  0  0  0  0  0  0  0  0  0  0
  -25.2060  -13.8340   20.5210 C   0  0  0  0  0  0  0  0  0  0  0  0
  -24.1450  -13.0530   20.8880 C   0  0  0  0  0  0  0  0  0  0  0  0
  -24.6200  -11.7070   20.8610 C   0  0  0  0  0  0  0  0  0  0  0  0
  -26.2630  -12.9620   20.3020 N   0  0  0  0  0  0  0  0  0  0  0  0
  -25.9120  -11.6790   20.5640 N   0  0  0  0  0  0  0  0  0  0  0  0
  -23.9060  -10.4370   21.0500 C   0  0  0  0  0  0  0  0  0  0  0  0
  -24.3440   -9.4770   21.9880 C   0  0  0  0  0  3  0  0  0  0  0  0
  -23.6320   -8.2700   22.1620 C   0  0  0  0  0  3  0  0  0  0  0  0
  -22.4660   -8.0190   21.3990 C   0  0  0  0  0  0  0  0  0  0  0  0
  -22.0490   -8.9690   20.4490 C   0  0  0  0  0  3  0  0  0  0  0  0
  -22.7620  -10.1650   20.2730 C   0  0  0  0  0  3  0  0  0  0  0  0
  -21.7220   -6.8670   21.4840 O   0  0  0  0  0  0  0  0  0  0  0  0
  -21.6760   -6.1240   22.6350 C   0  0  0  0  0  0  0  0  0  0  0  0
  -21.2300   -6.6700   23.8590 C   0  0  0  0  0  3  0  0  0  0  0  0
  -21.1340   -5.8520   25.0020 C   0  0  0  0  0  3  0  0  0  0  0  0
  -21.4730   -4.4870   24.9220 C   0  0  0  0  0  0  0  0  0  0  0  0
  -21.9120   -3.9410   23.7030 C   0  0  0  0  0  3  0  0  0  0  0  0
  -22.0120   -4.7570   22.5630 C   0  0  0  0  0  0  0  0  0  0  0  0
  -22.4150   -4.2200   21.3850 F   0  0  0  0  0  0  0  0  0  0  0  0
  -21.3750   -3.6990   26.0170 F   0  0  0  0  0  0  0  0  0  0  0  0
  -22.7410  -13.5160   21.1500 C   0  0  0  0  0  0  0  0  0  0  0  0
  -22.0120  -12.8110   22.0080 N   0  0  0  0  0  0  0  0  0  0  0  0
  -22.2960  -14.5390   20.6290 O   0  0  0  0  0  0  0  0  0  0  0  0
  -22.3820  -11.9840   22.4530 H   0  0  0  0  0  0  0  0  0  0  0  0
  -21.0700  -13.1040   22.2250 H   0  0  0  0  0  0  0  0  0  0  0  0
  -25.3560  -15.2050   20.3370 N   0  0  0  0  0  0  0  0  0  0  0  0
  -24.5740  -15.8430   20.4280 H   0  0  0  0  0  0  0  0  0  0  0  0
  -26.1910  -15.6500   19.9800 H   0  0  0  0  0  0  0  0  0  0  0  0
  1  2  2  0
  2  8  1  0
  3 52  1  0
  3  6  1  0
  4  5  1  0
  5  3  1  0
  5  1  1  0
  6  2  1  0
  6  7  1  0
  8  9  1  0
  9 10  1  0
 11 13  1  0
 11 10  1  0
 12 23  2  0
 13 18  1  0
 14 22  1  0
 14 24  1  0
 15 21  1  0
 15 17  1  0
 16 22  1  0
 17 18  2  0
 17 16  1  0
 19 20  1  0
 19 13  2  0
 20 15  2  0
 21 14  1  0
 22 12  1  0
 24 26  2  0
 25 24  1  0
 27 25  1  0
 28 37  2  0
 28 33  1  0
 29 25  1  0
 29 33  1  0
 30 29  1  0
 31 32  1  0
 31 30  1  0
 32 28  1  0
 33 34  2  0
 34 35  1  0
 36 35  2  0
 37 36  1  0
 38 12  1  0
 38 39  1  0
 38 48  1  0
 39 42  1  0
 40 44  1  0
 40 39  1  0
 41 40  2  0
 44 43  1  0
 46 44  1  0
 46 47  1  0
 46 45  1  0
 48 51  1  1
 48 49  1  0
 50 48  1  0
 52 53  1  0
 53 54  1  0
 54 63  1  0
 55 63  1  0
 56 61  1  0
 57 58  1  0
 57 56  1  0
 59 58  1  0
 59 68  1  0
 59 60  1  0
 61 55  1  0
 61 60  1  0
 62 55  2  0
 63 64  1  0
 65 66  2  0
 66 85  1  0
 67 66  1  0
 67 70  1  0
 68 65  1  0
 68 69  1  0
 69 67  2  0
 70 71  1  0
 71 72  2  0
 73 76  1  0
 73 72  1  0
 74 73  2  0
 75 74  1  0
 75 70  2  0
 76 77  1  0
 77 78  1  0
 78 79  2  0
 80 79  1  0
 80 84  1  0
 81 80  2  0
 82 77  2  0
 82 81  1  0
 83 82  1  0
 85 86  1  0
 86 89  1  0
 86 88  1  0
 87 85  2  0
 90 91  1  0
 90 65  1  0
 92 90  1  0
M  ISO  4  10 101  11 101  55 100  63 100
M  END
>  <TORSDO>  (57) 
F 22

>  <SCORE>  (57) 
-13.395

>  <name>  (57) 
57

>  <ligand_id>  (57) 
57

>  <original_smiles>  (57) 
[H]c1c([H])c([H])c2c(c1[H])C([H])([H])C([H])([H])C([H])([H])C2([H])N([H])C(=O)C1([H])N(C(=O)C([H])(N([H])C(=O)C([H])(N([H])C([H])([H])[H])C([H])([H])[H])C(C([H])([H])[H])(C([H])([H])[H])C([H])([H])[H])C([H])([H])c2c([H])c(OC([H])([H])C([H])([H])C([H])([H])c3c([H])n(C([H])([H])[H])c(C([H])([H])C([H])([H])C([H])([H])N([H])C(=O)N4C([H])([H])C([H])([H])C([H])([H])C([H])(n5nc(-c6c([H])c([H])c(Oc7c([H])c([H])c(F)c([H])c7F)c([H])c6[H])c(C(=O)N([H])[H])c5N([H])[H])C4([H])[H])[n+]3[H])c([H])c([H])c2C1([H])[H]

>  <smiles>  (57) 
[H]c1c([H])c([H])c2c(c1[H])C([H])([H])C([H])([H])C([H])([H])C2([H])N([H])C(=O)C1([H])N(C(=O)C([H])(N([H])C(=O)C([H])(N([H])C([H])([H])[H])C([H])([H])[H])C(C([H])([H])[H])(C([H])([H])[H])C([H])([H])[H])C([H])([H])c2c([H])c(OC([H])([H])C([H])([H])C([H])([H])c3c([H])n(C([H])([H])[H])c(C([H])([H])C([H])([H])C([H])([H])N([H])C(=O)N4C([H])([H])C([H])([H])C([H])([H])C([H])(n5nc(-c6c([H])c([H])c(Oc7c([H])c([H])c(F)c([H])c7F)c([H])c6[H])c(C(=O)N([H])[H])c5N([H])[H])C4([H])[H])[n+]3[H])c([H])c([H])c2C1([H])[H]

$$$$
58:0:0
     RDKit          3D

 91 99  0  0  1  0  0  0  0  0999 V2000
  -27.8630  -20.0230   19.1510 C   0  0  0  0  0  0  0  0  0  0  0  0
  -28.9020  -21.5640   20.4430 C   0  0  0  0  0  0  0  0  0  0  0  0
  -29.3780  -19.1750   20.5880 C   0  0  0  0  0  0  0  0  0  0  0  0
  -28.0200  -21.3100   19.4860 N   0  0  0  0  0  4  0  0  0  0  0  0
  -28.4660  -18.9380   19.6540 N   0  0  0  0  0  0  0  0  0  0  0  0
  -29.6170  -20.4950   21.0130 N   0  0  0  0  0  2  0  0  0  0  0  0
  -26.9100  -19.7780   17.9850 C   0  0  0  0  0  2  0  0  0  0  0  0
  -24.7880  -20.5180   16.7530 C   0  0  0  0  0  1  0  0  0  0  0  0
  -25.6020  -20.5930   18.0550 C   0  0  0  0  0  2  0  0  0  0  0  0
  -29.0610  -23.1840   20.8550 C   0  0  0  0  0  3  0  0  0  0  0  0
  -28.1570  -24.5430   20.3070 C   0  0  0  0  0  3  0  0  0  0  0  0
  -28.4110  -26.1010   20.4960 O   0  0  0  0  0  0  0  0  0  0  0  0
  -24.7210  -31.8970   23.3000 C   0  0  0  0  0  0  0  0  0  0  0  0
  -27.3700  -27.1140   20.3910 C   0  0  0  0  0  0  0  0  0  0  0  0
  -23.5640  -30.4820   21.6460 C   0  0  0  0  0  3  0  0  0  0  0  0
  -25.0500  -28.8920   20.2730 C   0  0  0  0  0  0  0  0  0  0  0  0
  -26.1250  -30.7380   21.5470 C   0  0  0  0  0  2  0  0  0  0  0  0
  -26.2170  -29.3360   20.9090 C   0  0  0  0  0  0  0  0  0  0  0  0
  -27.3780  -28.4660   20.9460 C   0  0  0  0  0  3  0  0  0  0  0  0
  -26.1780  -26.7840   19.7120 C   0  0  0  0  0  3  0  0  0  0  0  0
  -25.0470  -27.6310   19.6560 C   0  0  0  0  0  3  0  0  0  0  0  0
  -23.8230  -29.7940   20.2810 C   0  0  0  0  0  2  0  0  0  0  0  0
  -24.8220  -31.0640   22.2180 N   0  0  0  0  0  0  0  0  0  0  0  0
  -23.6200  -32.1880   23.7940 O   0  0  0  0  0  0  0  0  0  0  0  0
  -22.8620  -29.4860   22.6020 C   0  0  0  0  0  0  0  0  0  0  0  0
  -21.5430  -29.2880   22.4210 N   0  0  0  0  0  0  0  0  0  0  0  0
  -23.5060  -28.8930   23.4700 O   0  0  0  0  0  0  0  0  0  0  0  0
  -21.0800  -29.8080   21.6890 H   0  0  0  0  0  0  0  0  0  0  0  0
  -18.1580  -28.0680   22.8260 C   0  0  0  0  0  0  0  0  0  0  0  0
  -20.7030  -28.3610   23.1850 C   0  0  0  0  0  3  0  0  0  0  0  0
  -20.8340  -26.9170   22.6500 C   0  0  0  0  0  2  0  0  0  0  0  0
  -19.7850  -26.5750   21.5880 C   0  0  0  0  0  2  0  0  0  0  0  0
  -18.3740  -26.7140   22.1680 C   0  0  0  0  0  2  0  0  0  0  0  0
  -19.2520  -28.8480   23.2850 C   0  0  0  0  0  0  0  0  0  0  0  0
  -18.9980  -30.1160   23.8540 C   0  0  0  0  0  3  0  0  0  0  0  0
  -17.6830  -30.6010   23.9720 C   0  0  0  0  0  3  0  0  0  0  0  0
  -16.6020  -29.8170   23.5320 C   0  0  0  0  0  3  0  0  0  0  0  0
  -16.8400  -28.5540   22.9620 C   0  0  0  0  0  3  0  0  0  0  0  0
  -25.9790  -32.5430   23.9540 C   0  0  0  0  0  3  0  0  0  0  0  0
  -25.6340  -33.9250   24.3250 N   0  0  0  0  0  0  0  0  0  0  0  0
  -25.9720  -35.0140   23.6230 C   0  0  0  0  0  0  0  0  0  0  0  0
  -26.6740  -34.9620   22.6090 O   0  0  0  0  0  0  0  0  0  0  0  0
  -25.0120  -34.0370   25.1130 H   0  0  0  0  0  0  0  0  0  0  0  0
  -24.2380  -36.8070   23.2850 C   0  0  0  0  0  1  0  0  0  0  0  0
  -25.4530  -36.3780   24.1220 C   0  0  0  0  0  3  0  0  0  0  0  0
  -27.5410  -37.2540   25.0730 C   0  0  0  0  0  1  0  0  0  0  0  0
  -26.4770  -37.4450   24.0920 N   0  0  0  0  0  0  0  0  0  0  0  0
  -26.0550  -38.3550   24.2530 H   0  0  0  0  0  0  0  0  0  0  0  0
  -26.4970  -31.7500   25.2180 C   0  0  1  0  0  0  0  0  0  0  0  0
  -25.3890  -31.4350   26.2510 C   0  0  0  0  0  1  0  0  0  0  0  0
  -27.1430  -30.4080   24.8010 C   0  0  0  0  0  1  0  0  0  0  0  0
  -27.6000  -32.5660   25.9320 C   0  0  0  0  0  1  0  0  0  0  0  0
  -30.2060  -17.8240   21.1110 C   0  0  0  0  0  2  0  0  0  0  0  0
  -30.5680  -15.0890   20.8030 C   0  0  0  0  0  0  0  0  0  0  0  0
  -30.5030  -12.7960   19.6870 C   0  0  0  0  0  2  0  0  0  0  0  0
  -29.6050  -12.8080   18.4290 C   0  0  0  0  0  2  0  0  0  0  0  0
  -28.1370  -12.5440   18.8070 C   0  0  0  0  0  2  0  0  0  0  0  0
  -27.6830  -13.3930   20.0210 C   0  0  0  0  0  3  0  0  0  0  0  0
  -28.7040  -13.3540   21.1770 C   0  0  0  0  0  2  0  0  0  0  0  0
  -29.9790  -13.8310   20.6310 N   0  0  0  0  0  0  0  0  0  0  0  0
  -31.7850  -15.1520   20.5960 O   0  0  0  0  0  0  0  0  0  0  0  0
  -29.7980  -16.2830   21.0000 N   0  0  0  0  0  0  0  0  0  0  0  0
  -28.8020  -16.1460   21.0610 H   0  0  0  0  0  0  0  0  0  0  0  0
  -25.2550  -13.8990   20.6420 C   0  0  0  0  0  0  0  0  0  0  0  0
  -24.1990  -13.0950   20.9640 C   0  0  0  0  0  0  0  0  0  0  0  0
  -24.7090  -11.7570   20.9740 C   0  0  0  0  0  0  0  0  0  0  0  0
  -26.3360  -13.0530   20.4630 N   0  0  0  0  0  0  0  0  0  0  0  0
  -26.0150  -11.7600   20.7310 N   0  0  0  0  0  0  0  0  0  0  0  0
  -24.0140  -10.4750   21.1410 C   0  0  0  0  0  0  0  0  0  0  0  0
  -24.4290   -9.5290   22.1030 C   0  0  0  0  0  3  0  0  0  0  0  0
  -23.7320   -8.3110   22.2590 C   0  0  0  0  0  3  0  0  0  0  0  0
  -22.6060   -8.0300   21.4480 C   0  0  0  0  0  0  0  0  0  0  0  0
  -22.2110   -8.9640   20.4740 C   0  0  0  0  0  3  0  0  0  0  0  0
  -22.9090  -10.1730   20.3180 C   0  0  0  0  0  3  0  0  0  0  0  0
  -21.8850   -6.8630   21.5090 O   0  0  0  0  0  0  0  0  0  0  0  0
  -21.8070   -6.1250   22.6620 C   0  0  0  0  0  0  0  0  0  0  0  0
  -21.3130   -6.6750   23.8660 C   0  0  0  0  0  3  0  0  0  0  0  0
  -21.1840   -5.8620   25.0110 C   0  0  0  0  0  3  0  0  0  0  0  0
  -21.5390   -4.5010   24.9520 C   0  0  0  0  0  0  0  0  0  0  0  0
  -22.0260   -3.9510   23.7540 C   0  0  0  0  0  3  0  0  0  0  0  0
  -22.1560   -4.7610   22.6110 C   0  0  0  0  0  0  0  0  0  0  0  0
  -22.6050   -4.2210   21.4540 F   0  0  0  0  0  0  0  0  0  0  0  0
  -21.4090   -3.7180   26.0490 F   0  0  0  0  0  0  0  0  0  0  0  0
  -22.7750  -13.5280   21.1520 C   0  0  0  0  0  0  0  0  0  0  0  0
  -22.0350  -12.8460   22.0190 N   0  0  0  0  0  0  0  0  0  0  0  0
  -22.3220  -14.5090   20.5620 O   0  0  0  0  0  0  0  0  0  0  0  0
  -22.4120  -12.0530   22.5180 H   0  0  0  0  0  0  0  0  0  0  0  0
  -21.0780  -13.1210   22.1880 H   0  0  0  0  0  0  0  0  0  0  0  0
  -25.3820  -15.2740   20.4610 N   0  0  0  0  0  0  0  0  0  0  0  0
  -24.5900  -15.9000   20.5530 H   0  0  0  0  0  0  0  0  0  0  0  0
  -26.2290  -15.7450   20.1760 H   0  0  0  0  0  0  0  0  0  0  0  0
  1  4  2  0
  1  5  1  0
  2 10  1  0
  2  6  1  0
  3  6  1  0
  3 53  1  0
  4  2  2  0
  5  3  2  0
  7  9  1  0
  7  1  1  0
  8  9  1  0
 11 12  1  0
 11 10  2  0
 13 24  2  0
 14 12  1  0
 14 19  1  0
 15 23  1  0
 15 25  1  0
 16 22  1  0
 16 18  1  0
 17 23  1  0
 18 19  2  0
 18 17  1  0
 20 14  2  0
 21 20  1  0
 21 16  2  0
 22 15  1  0
 23 13  1  0
 25 27  2  0
 26 25  1  0
 28 26  1  0
 29 38  2  0
 29 34  1  0
 30 26  1  0
 30 34  1  0
 31 30  1  0
 32 33  1  0
 32 31  1  0
 33 29  1  0
 34 35  2  0
 35 36  1  0
 37 36  2  0
 38 37  1  0
 39 13  1  0
 39 40  1  0
 39 49  1  0
 40 43  1  0
 41 45  1  0
 41 40  1  0
 42 41  2  0
 45 44  1  0
 47 45  1  0
 47 48  1  0
 47 46  1  0
 49 52  1  1
 49 50  1  0
 51 49  1  0
 54 62  1  0
 55 60  1  0
 56 57  1  0
 56 55  1  0
 58 57  1  0
 58 67  1  0
 58 59  1  0
 60 54  1  0
 60 59  1  0
 61 54  2  0
 62 63  1  0
 62 53  1  0
 64 65  2  0
 65 66  1  0
 65 84  1  0
 66 69  1  0
 67 64  1  0
 67 68  1  0
 68 66  2  0
 69 70  1  0
 70 71  2  0
 72 75  1  0
 72 71  1  0
 73 72  2  0
 74 73  1  0
 74 69  2  0
 75 76  1  0
 76 77  1  0
 77 78  2  0
 79 78  1  0
 79 83  1  0
 80 79  2  0
 81 76  2  0
 81 80  1  0
 82 81  1  0
 84 85  1  0
 85 88  1  0
 85 87  1  0
 86 84  2  0
 89 90  1  0
 89 64  1  0
 91 89  1  0
M  ISO  4  11 101  12 101  54 100  62 100
M  END
>  <TORSDO>  (58) 
F 21

>  <SCORE>  (58) 
-14.185

>  <name>  (58) 
58

>  <ligand_id>  (58) 
58

>  <original_smiles>  (58) 
[H]c1c([H])c([H])c2c(c1[H])C([H])([H])C([H])([H])C([H])([H])C2([H])N([H])C(=O)C1([H])N(C(=O)C([H])(N([H])C(=O)C([H])(N([H])C([H])([H])[H])C([H])([H])[H])C(C([H])([H])[H])(C([H])([H])[H])C([H])([H])[H])C([H])([H])c2c([H])c(OC([H])([H])C([H])([H])c3nc(C([H])([H])N([H])C(=O)N4C([H])([H])C([H])([H])C([H])([H])C([H])(n5nc(-c6c([H])c([H])c(Oc7c([H])c([H])c(F)c([H])c7F)c([H])c6[H])c(C(=O)N([H])[H])c5N([H])[H])C4([H])[H])nc(C([H])([H])C([H])([H])C([H])([H])[H])n3)c([H])c([H])c2C1([H])[H]

>  <smiles>  (58) 
[H]c1c([H])c([H])c2c(c1[H])C([H])([H])C([H])([H])C([H])([H])C2([H])N([H])C(=O)C1([H])N(C(=O)C([H])(N([H])C(=O)C([H])(N([H])C([H])([H])[H])C([H])([H])[H])C(C([H])([H])[H])(C([H])([H])[H])C([H])([H])[H])C([H])([H])c2c([H])c(OC([H])([H])C([H])([H])c3nc(C([H])([H])N([H])C(=O)N4C([H])([H])C([H])([H])C([H])([H])C([H])(n5nc(-c6c([H])c([H])c(Oc7c([H])c([H])c(F)c([H])c7F)c([H])c6[H])c(C(=O)N([H])[H])c5N([H])[H])C4([H])[H])nc(C([H])([H])C([H])([H])C([H])([H])[H])n3)c([H])c([H])c2C1([H])[H]

$$$$
59:0:0
     RDKit          3D

 97105  0  0  1  0  0  0  0  0999 V2000
  -29.0470  -24.1510   23.7580 C   0  0  0  0  0  0  0  0  0  0  0  0
  -30.6960  -25.7910   22.3690 C   0  0  0  0  0  0  0  0  0  0  0  0
  -29.0550  -24.1660   22.3400 C   0  0  0  0  0  0  0  0  0  0  0  0
  -30.5620  -25.8850   23.7770 C   0  0  0  0  0  0  0  0  0  0  0  0
  -28.0700  -23.3340   24.5830 C   0  0  0  0  0  1  0  0  0  0  0  0
  -31.5060  -26.7980   21.5710 C   0  0  0  0  0  1  0  0  0  0  0  0
  -29.9570  -24.9070   21.6490 N   0  0  0  0  0  0  0  0  0  0  0  0
  -29.8300  -24.9850   24.4740 N   0  0  0  0  0  0  0  0  0  0  0  0
  -27.9360  -23.5400   21.5220 C   0  0  0  0  0  2  0  0  0  0  0  0
  -28.3620  -22.4730   20.5090 C   0  0  0  0  0  2  0  0  0  0  0  0
  -29.6050  -22.8820   19.7040 C   0  0  0  0  0  2  0  0  0  0  0  0
  -28.6270  -21.5390   17.8760 C   0  0  0  0  0  1  0  0  0  0  0  0
  -29.4240  -22.7380   18.2360 N   0  0  2  0  0  4  0  0  0  0  0  0
  -28.8820  -23.5300   17.9160 H   0  0  0  0  0  0  0  0  0  0  0  0
  -30.7120  -22.7950   17.5010 C   0  0  0  0  0  2  0  0  0  0  0  0
  -31.5810  -24.0230   17.8640 C   0  0  0  0  0  2  0  0  0  0  0  0
  -32.7560  -24.1710   16.8880 C   0  0  0  0  0  2  0  0  0  0  0  0
  -34.9660  -25.2320   16.6890 C   0  0  0  0  0  0  0  0  0  0  0  0
  -36.9300  -26.6830   16.4290 C   0  0  0  0  0  2  0  0  0  0  0  0
  -38.2420  -25.9370   16.7290 C   0  0  0  0  0  2  0  0  0  0  0  0
  -38.5660  -26.0200   18.2300 C   0  0  0  0  0  2  0  0  0  0  0  0
  -37.3690  -25.6070   19.1250 C   0  0  0  0  0  3  0  0  0  0  0  0
  -36.0660  -26.3170   18.6830 C   0  0  0  0  0  2  0  0  0  0  0  0
  -35.8570  -26.0900   17.2410 N   0  0  0  0  0  0  0  0  0  0  0  0
  -35.0620  -24.8040   15.5360 O   0  0  0  0  0  0  0  0  0  0  0  0
  -33.8650  -24.9740   17.4120 N   0  0  0  0  0  0  0  0  0  0  0  0
  -33.7680  -25.4400   18.3030 H   0  0  0  0  0  0  0  0  0  0  0  0
  -37.5390  -24.9670   21.6180 C   0  0  0  0  0  0  0  0  0  0  0  0
  -38.0040  -25.6470   22.7100 C   0  0  0  0  0  0  0  0  0  0  0  0
  -38.4140  -26.9290   22.2330 C   0  0  0  0  0  0  0  0  0  0  0  0
  -37.6630  -25.8360   20.5430 N   0  0  0  0  0  0  0  0  0  0  0  0
  -38.1530  -27.0410   20.9360 N   0  0  0  0  0  0  0  0  0  0  0  0
  -39.0890  -28.0380   22.9220 C   0  0  0  0  0  0  0  0  0  0  0  0
  -38.5570  -29.3460   22.9180 C   0  0  0  0  0  3  0  0  0  0  0  0
  -39.2170  -30.3910   23.6030 C   0  0  0  0  0  3  0  0  0  0  0  0
  -40.4190  -30.1330   24.3030 C   0  0  0  0  0  0  0  0  0  0  0  0
  -40.9560  -28.8330   24.2860 C   0  0  0  0  0  3  0  0  0  0  0  0
  -40.3030  -27.7960   23.5980 C   0  0  0  0  0  3  0  0  0  0  0  0
  -41.1420  -31.0890   24.9750 O   0  0  0  0  0  0  0  0  0  0  0  0
  -40.5410  -32.1980   25.5170 C   0  0  0  0  0  0  0  0  0  0  0  0
  -39.4970  -32.0930   26.4620 C   0  0  0  0  0  3  0  0  0  0  0  0
  -38.9530  -33.2550   27.0440 C   0  0  0  0  0  3  0  0  0  0  0  0
  -39.4580  -34.5210   26.6940 C   0  0  0  0  0  0  0  0  0  0  0  0
  -40.5010  -34.6290   25.7570 C   0  0  0  0  0  3  0  0  0  0  0  0
  -41.0420  -33.4700   25.1730 C   0  0  0  0  0  0  0  0  0  0  0  0
  -42.0610  -33.5800   24.2860 F   0  0  0  0  0  0  0  0  0  0  0  0
  -38.9400  -35.6360   27.2590 F   0  0  0  0  0  0  0  0  0  0  0  0
  -38.1560  -25.1060   24.1040 C   0  0  0  0  0  0  0  0  0  0  0  0
  -38.0170  -25.9600   25.1130 N   0  0  0  0  0  0  0  0  0  0  0  0
  -38.3440  -23.9090   24.3100 O   0  0  0  0  0  0  0  0  0  0  0  0
  -37.8400  -26.9410   24.9520 H   0  0  0  0  0  0  0  0  0  0  0  0
  -38.0860  -25.6240   26.0640 H   0  0  0  0  0  0  0  0  0  0  0  0
  -37.0400  -23.6800   21.4480 N   0  0  0  0  0  0  0  0  0  0  0  0
  -36.9880  -23.0100   22.2050 H   0  0  0  0  0  0  0  0  0  0  0  0
  -36.7800  -23.2810   20.5540 H   0  0  0  0  0  0  0  0  0  0  0  0
  -30.6750  -27.2300   24.4650 C   0  0  0  0  0  2  0  0  0  0  0  0
  -31.8840  -27.6020   25.1570 O   0  0  0  0  0  0  0  0  0  0  0  0
  -28.2420  -32.1350   29.0980 C   0  0  0  0  0  0  0  0  0  0  0  0
  -31.7170  -28.9440   25.3900 C   0  0  0  0  0  0  0  0  0  0  0  0
  -28.9100  -32.9330   26.8530 C   0  0  0  0  0  3  0  0  0  0  0  0
  -30.7050  -31.5530   25.6750 C   0  0  0  0  0  0  0  0  0  0  0  0
  -30.3560  -31.2550   28.1310 C   0  0  0  0  0  2  0  0  0  0  0  0
  -30.8120  -30.7160   26.7940 C   0  0  0  0  0  0  0  0  0  0  0  0
  -31.3150  -29.4030   26.6600 C   0  0  0  0  0  3  0  0  0  0  0  0
  -31.6750  -29.8200   24.2840 C   0  0  0  0  0  3  0  0  0  0  0  0
  -31.1410  -31.1130   24.4140 C   0  0  0  0  0  3  0  0  0  0  0  0
  -30.1340  -32.9330   25.8990 C   0  0  0  0  0  2  0  0  0  0  0  0
  -29.1280  -32.0790   28.0660 N   0  0  0  0  0  0  0  0  0  0  0  0
  -27.2750  -32.9110   29.0680 O   0  0  0  0  0  0  0  0  0  0  0  0
  -27.6480  -32.5460   26.0500 C   0  0  0  0  0  0  0  0  0  0  0  0
  -27.1370  -33.4950   25.2470 N   0  0  0  0  0  0  0  0  0  0  0  0
  -27.1610  -31.4150   26.1400 O   0  0  0  0  0  0  0  0  0  0  0  0
  -27.5790  -34.4040   25.2500 H   0  0  0  0  0  0  0  0  0  0  0  0
  -25.1800  -35.1590   22.7050 C   0  0  0  0  0  0  0  0  0  0  0  0
  -25.9740  -33.3490   24.3730 C   0  0  0  0  0  3  0  0  0  0  0  0
  -26.3130  -32.4990   23.1270 C   0  0  0  0  0  2  0  0  0  0  0  0
  -26.7510  -33.3400   21.9210 C   0  0  0  0  0  2  0  0  0  0  0  0
  -25.6480  -34.3260   21.5250 C   0  0  0  0  0  2  0  0  0  0  0  0
  -25.3460  -34.7100   24.0420 C   0  0  0  0  0  0  0  0  0  0  0  0
  -24.9240  -35.5410   25.1020 C   0  0  0  0  0  3  0  0  0  0  0  0
  -24.3430  -36.7980   24.8440 C   0  0  0  0  0  3  0  0  0  0  0  0
  -24.1680  -37.2320   23.5170 C   0  0  0  0  0  3  0  0  0  0  0  0
  -24.5810  -36.4110   22.4530 C   0  0  0  0  0  3  0  0  0  0  0  0
  -28.4060  -31.2450   30.3700 C   0  0  0  0  0  3  0  0  0  0  0  0
  -28.2820  -32.1190   31.5430 N   0  0  0  0  0  0  0  0  0  0  0  0
  -29.3180  -32.6700   32.1900 C   0  0  0  0  0  0  0  0  0  0  0  0
  -30.4940  -32.4310   31.9010 O   0  0  0  0  0  0  0  0  0  0  0  0
  -27.3480  -32.3990   31.8030 H   0  0  0  0  0  0  0  0  0  0  0  0
  -29.0830  -35.0900   32.8280 C   0  0  0  0  0  1  0  0  0  0  0  0
  -28.9950  -33.6420   33.3390 C   0  0  0  0  0  3  0  0  0  0  0  0
  -29.6870  -32.1970   35.2000 C   0  0  0  0  0  1  0  0  0  0  0  0
  -29.8720  -33.4760   34.5190 N   0  0  0  0  0  0  0  0  0  0  0  0
  -29.7160  -34.2210   35.1910 H   0  0  0  0  0  0  0  0  0  0  0  0
  -27.3650  -30.0620   30.4420 C   0  0  1  0  0  0  0  0  0  0  0  0
  -25.9000  -30.5090   30.2280 C   0  0  0  0  0  1  0  0  0  0  0  0
  -27.6890  -28.9820   29.3820 C   0  0  0  0  0  1  0  0  0  0  0  0
  -27.4540  -29.3710   31.8230 C   0  0  0  0  0  1  0  0  0  0  0  0
  1  8  1  0
  1  5  1  0
  2  4  1  0
  3  1  2  0
  4 56  1  0
  4  8  2  0
  6  2  1  0
  7  3  1  0
  7  2  2  0
  9  3  1  0
 10  9  1  0
 11 10  1  0
 12 13  1  0
 13 11  1  0
 13 14  1  6
 15 16  1  0
 15 13  1  0
 17 26  1  0
 17 16  1  0
 18 24  1  0
 18 26  1  0
 19 20  1  0
 19 24  1  0
 20 21  1  0
 22 21  1  0
 22 31  1  0
 23 22  1  0
 24 23  1  0
 25 18  2  0
 26 27  1  0
 28 29  2  0
 29 48  1  0
 30 29  1  0
 30 33  1  0
 31 32  1  0
 31 28  1  0
 32 30  2  0
 33 38  1  0
 34 33  2  0
 34 35  1  0
 35 36  2  0
 36 39  1  0
 37 36  1  0
 38 37  2  0
 39 40  1  0
 40 41  1  0
 41 42  2  0
 43 42  1  0
 43 47  1  0
 44 43  2  0
 45 40  2  0
 45 44  1  0
 46 45  1  0
 48 50  2  0
 48 49  1  0
 49 52  1  0
 51 49  1  0
 53 28  1  0
 53 54  1  0
 55 53  1  0
 56 57  1  0
 57 59  1  0
 59 64  1  0
 60 70  1  0
 60 68  1  0
 61 67  1  0
 61 63  1  0
 63 62  1  0
 64 63  2  0
 65 66  1  0
 65 59  2  0
 66 61  2  0
 67 60  1  0
 68 62  1  0
 68 58  1  0
 69 58  2  0
 70 72  2  0
 71 73  1  0
 71 70  1  0
 74 79  1  0
 75 71  1  0
 76 75  1  0
 77 76  1  0
 78 77  1  0
 78 74  1  0
 79 75  1  0
 79 80  2  0
 81 80  1  0
 82 81  2  0
 83 74  2  0
 83 82  1  0
 84 58  1  0
 84 94  1  0
 84 85  1  0
 85 88  1  0
 85 86  1  0
 86 90  1  0
 87 86  2  0
 90 89  1  0
 90 92  1  0
 92 93  1  0
 92 91  1  0
 94 97  1  1
 95 94  1  0
 96 94  1  0
M  ISO  4  18 100  26 100  56 101  57 101
M  END
>  <TORSDO>  (59) 
F 24

>  <SCORE>  (59) 
6.192

>  <name>  (59) 
59

>  <ligand_id>  (59) 
59

>  <original_smiles>  (59) 
[H]c1c([H])c([H])c2c(c1[H])C([H])([H])C([H])([H])C([H])([H])C2([H])N([H])C(=O)C1([H])N(C(=O)C([H])(N([H])C(=O)C([H])(N([H])C([H])([H])[H])C([H])([H])[H])C(C([H])([H])[H])(C([H])([H])[H])C([H])([H])[H])C([H])([H])c2c([H])c(OC([H])([H])c3nc(C([H])([H])[H])c(C([H])([H])C([H])([H])C([H])([H])[N+]([H])(C([H])([H])[H])C([H])([H])C([H])([H])C([H])([H])N([H])C(=O)N4C([H])([H])C([H])([H])C([H])([H])C([H])(n5nc(-c6c([H])c([H])c(Oc7c([H])c([H])c(F)c([H])c7F)c([H])c6[H])c(C(=O)N([H])[H])c5N([H])[H])C4([H])[H])nc3C([H])([H])[H])c([H])c([H])c2C1([H])[H]

>  <smiles>  (59) 
[H]c1c([H])c([H])c2c(c1[H])C([H])([H])C([H])([H])C([H])([H])C2([H])N([H])C(=O)C1([H])N(C(=O)C([H])(N([H])C(=O)C([H])(N([H])C([H])([H])[H])C([H])([H])[H])C(C([H])([H])[H])(C([H])([H])[H])C([H])([H])[H])C([H])([H])c2c([H])c(OC([H])([H])c3nc(C([H])([H])[H])c(C([H])([H])C([H])([H])C([H])([H])[N+]([H])(C([H])([H])[H])C([H])([H])C([H])([H])C([H])([H])N([H])C(=O)N4C([H])([H])C([H])([H])C([H])([H])C([H])(n5nc(-c6c([H])c([H])c(Oc7c([H])c([H])c(F)c([H])c7F)c([H])c6[H])c(C(=O)N([H])[H])c5N([H])[H])C4([H])[H])nc3C([H])([H])[H])c([H])c([H])c2C1([H])[H]

$$$$
60:0:0
     RDKit          3D

 89 97  0  0  1  0  0  0  0  0999 V2000
  -28.9860  -19.7410   20.9950 C   0  0  0  0  0  3  0  0  0  0  0  0
  -29.0530  -21.0400   20.3260 C   0  0  0  0  0  0  0  0  0  0  0  0
  -29.6430  -20.4480   19.1420 C   0  0  0  0  0  0  0  0  0  0  0  0
  -29.8630  -19.0830   19.1390 N   0  0  0  0  0  0  0  0  0  0  0  0
  -29.5090  -18.5030   20.3270 N   0  0  0  0  0  0  0  0  0  0  0  0
  -28.7920  -22.7550   20.7520 C   0  0  0  0  0  3  0  0  0  0  0  0
  -28.0850  -24.2530   20.0150 C   0  0  0  0  0  3  0  0  0  0  0  0
  -28.1770  -25.8770   20.3610 O   0  0  0  0  0  0  0  0  0  0  0  0
  -24.6270  -31.8910   23.2150 C   0  0  0  0  0  0  0  0  0  0  0  0
  -27.1680  -26.9750   20.2380 C   0  0  0  0  0  0  0  0  0  0  0  0
  -23.4290  -30.4840   21.5880 C   0  0  0  0  0  3  0  0  0  0  0  0
  -24.8720  -28.8670   20.1700 C   0  0  0  0  0  0  0  0  0  0  0  0
  -25.9960  -30.6850   21.4420 C   0  0  0  0  0  2  0  0  0  0  0  0
  -26.0590  -29.2730   20.7900 C   0  0  0  0  0  0  0  0  0  0  0  0
  -27.1980  -28.3460   20.8020 C   0  0  0  0  0  3  0  0  0  0  0  0
  -25.9570  -26.7290   19.5520 C   0  0  0  0  0  3  0  0  0  0  0  0
  -24.8480  -27.6170   19.5270 C   0  0  0  0  0  3  0  0  0  0  0  0
  -23.6530  -29.7910   20.2150 C   0  0  0  0  0  2  0  0  0  0  0  0
  -24.7060  -31.0490   22.1330 N   0  0  0  0  0  0  0  0  0  0  0  0
  -23.5390  -32.1860   23.7360 O   0  0  0  0  0  0  0  0  0  0  0  0
  -22.7340  -29.4990   22.5640 C   0  0  0  0  0  0  0  0  0  0  0  0
  -21.4030  -29.3340   22.4450 N   0  0  0  0  0  0  0  0  0  0  0  0
  -23.4010  -28.8790   23.3980 O   0  0  0  0  0  0  0  0  0  0  0  0
  -20.9190  -29.8800   21.7470 H   0  0  0  0  0  0  0  0  0  0  0  0
  -18.0220  -28.1270   22.9670 C   0  0  0  0  0  0  0  0  0  0  0  0
  -20.5810  -28.4040   23.2270 C   0  0  0  0  0  3  0  0  0  0  0  0
  -20.6860  -26.9660   22.6680 C   0  0  0  0  0  2  0  0  0  0  0  0
  -19.5860  -26.6270   21.6580 C   0  0  0  0  0  2  0  0  0  0  0  0
  -18.2030  -26.7730   22.3000 C   0  0  0  0  0  2  0  0  0  0  0  0
  -19.1380  -28.9000   23.3880 C   0  0  0  0  0  0  0  0  0  0  0  0
  -18.9110  -30.1630   23.9750 C   0  0  0  0  0  3  0  0  0  0  0  0
  -17.6020  -30.6540   24.1460 C   0  0  0  0  0  3  0  0  0  0  0  0
  -16.5020  -29.8790   23.7410 C   0  0  0  0  0  3  0  0  0  0  0  0
  -16.7130  -28.6180   23.1550 C   0  0  0  0  0  3  0  0  0  0  0  0
  -25.8980  -32.5380   23.8390 C   0  0  0  0  0  3  0  0  0  0  0  0
  -25.5800  -33.9400   24.1650 N   0  0  0  0  0  0  0  0  0  0  0  0
  -25.9110  -35.0000   23.4160 C   0  0  0  0  0  0  0  0  0  0  0  0
  -26.5780  -34.9010   22.3830 O   0  0  0  0  0  0  0  0  0  0  0  0
  -24.9800  -34.0860   24.9630 H   0  0  0  0  0  0  0  0  0  0  0  0
  -24.1860  -36.8060   23.0840 C   0  0  0  0  0  1  0  0  0  0  0  0
  -25.4300  -36.3900   23.8850 C   0  0  0  0  0  3  0  0  0  0  0  0
  -27.5700  -37.2750   24.7100 C   0  0  0  0  0  1  0  0  0  0  0  0
  -26.4640  -37.4420   23.7700 N   0  0  0  0  0  0  0  0  0  0  0  0
  -26.0610  -38.3640   23.9120 H   0  0  0  0  0  0  0  0  0  0  0  0
  -26.4030  -31.7850   25.1320 C   0  0  1  0  0  0  0  0  0  0  0  0
  -25.3020  -31.5700   26.1990 C   0  0  0  0  0  1  0  0  0  0  0  0
  -26.9850  -30.3980   24.7770 C   0  0  0  0  0  1  0  0  0  0  0  0
  -27.5520  -32.5860   25.7880 C   0  0  0  0  0  1  0  0  0  0  0  0
  -30.0930  -21.2270   17.9360 C   0  0  0  0  0  2  0  0  0  0  0  0
  -32.4370  -21.4490   19.0340 C   0  0  0  0  0  1  0  0  0  0  0  0
  -31.9090  -22.6240   16.8480 C   0  0  0  0  0  1  0  0  0  0  0  0
  -31.3390  -22.1160   18.1800 C   0  0  0  0  0  3  0  0  0  0  0  0
  -29.4620  -16.8330   20.6290 C   0  0  0  0  0  2  0  0  0  0  0  0
  -30.3690  -15.3620   20.2470 C   0  0  0  0  0  0  0  0  0  0  0  0
  -30.4180  -12.9080   19.3470 C   0  0  0  0  0  2  0  0  0  0  0  0
  -29.4850  -12.7240   18.1200 C   0  0  0  0  0  2  0  0  0  0  0  0
  -28.0340  -12.4470   18.5570 C   0  0  0  0  0  2  0  0  0  0  0  0
  -27.5920  -13.3830   19.7080 C   0  0  0  0  0  3  0  0  0  0  0  0
  -28.6470  -13.4960   20.8260 C   0  0  0  0  0  2  0  0  0  0  0  0
  -29.8780  -14.0210   20.2150 N   0  0  0  0  0  0  0  0  0  0  0  0
  -31.5650  -15.4140   19.9120 O   0  0  0  0  0  0  0  0  0  0  0  0
  -25.2250  -13.9250   20.4900 C   0  0  0  0  0  0  0  0  0  0  0  0
  -24.1720  -13.1420   20.8710 C   0  0  0  0  0  0  0  0  0  0  0  0
  -24.6470  -11.7940   20.8300 C   0  0  0  0  0  0  0  0  0  0  0  0
  -26.2690  -13.0570   20.2260 N   0  0  0  0  0  0  0  0  0  0  0  0
  -25.9340  -11.7680   20.4980 N   0  0  0  0  0  0  0  0  0  0  0  0
  -23.9290  -10.5260   21.0250 C   0  0  0  0  0  0  0  0  0  0  0  0
  -24.3740   -9.5590   21.9510 C   0  0  0  0  0  3  0  0  0  0  0  0
  -23.6530   -8.3600   22.1350 C   0  0  0  0  0  3  0  0  0  0  0  0
  -22.4720   -8.1200   21.3940 C   0  0  0  0  0  0  0  0  0  0  0  0
  -22.0460   -9.0760   20.4570 C   0  0  0  0  0  3  0  0  0  0  0  0
  -22.7670  -10.2670   20.2700 C   0  0  0  0  0  3  0  0  0  0  0  0
  -21.7240   -6.9700   21.4850 O   0  0  0  0  0  0  0  0  0  0  0  0
  -21.6870   -6.2250   22.6360 C   0  0  0  0  0  0  0  0  0  0  0  0
  -21.2550   -6.7750   23.8640 C   0  0  0  0  0  3  0  0  0  0  0  0
  -21.1660   -5.9560   25.0070 C   0  0  0  0  0  3  0  0  0  0  0  0
  -21.4970   -4.5900   24.9260 C   0  0  0  0  0  0  0  0  0  0  0  0
  -21.9210   -4.0420   23.7030 C   0  0  0  0  0  3  0  0  0  0  0  0
  -22.0120   -4.8570   22.5600 C   0  0  0  0  0  0  0  0  0  0  0  0
  -22.4010   -4.3190   21.3810 F   0  0  0  0  0  0  0  0  0  0  0  0
  -21.4040   -3.8020   26.0210 F   0  0  0  0  0  0  0  0  0  0  0  0
  -22.7750  -13.6130   21.1540 C   0  0  0  0  0  0  0  0  0  0  0  0
  -22.0570  -12.9120   22.0230 N   0  0  0  0  0  0  0  0  0  0  0  0
  -22.3300  -14.6390   20.6400 O   0  0  0  0  0  0  0  0  0  0  0  0
  -22.4280  -12.0830   22.4620 H   0  0  0  0  0  0  0  0  0  0  0  0
  -21.1230  -13.2160   22.2590 H   0  0  0  0  0  0  0  0  0  0  0  0
  -25.3770  -15.2980   20.3180 N   0  0  0  0  0  0  0  0  0  0  0  0
  -24.6040  -15.9420   20.4390 H   0  0  0  0  0  0  0  0  0  0  0  0
  -26.2080  -15.7450   19.9520 H   0  0  0  0  0  0  0  0  0  0  0  0
  2  6  1  0
  2  1  2  0
  3  2  1  0
  4  3  2  0
  4  5  1  0
  5 53  1  0
  5  1  1  0
  7  8  1  0
  7  6  2  0
  9 20  2  0
 10  8  1  0
 10 15  1  0
 11 19  1  0
 11 21  1  0
 12 18  1  0
 12 14  1  0
 13 19  1  0
 14 15  2  0
 14 13  1  0
 16 10  2  0
 17 16  1  0
 17 12  2  0
 18 11  1  0
 19  9  1  0
 21 23  2  0
 22 21  1  0
 24 22  1  0
 25 34  2  0
 25 30  1  0
 26 22  1  0
 26 30  1  0
 27 26  1  0
 28 29  1  0
 28 27  1  0
 29 25  1  0
 30 31  2  0
 31 32  1  0
 33 32  2  0
 34 33  1  0
 35  9  1  0
 35 36  1  0
 35 45  1  0
 36 39  1  0
 37 41  1  0
 37 36  1  0
 38 37  2  0
 41 40  1  0
 43 41  1  0
 43 44  1  0
 43 42  1  0
 45 48  1  1
 45 46  1  0
 47 45  1  0
 49 52  1  0
 49  3  1  0
 51 52  1  0
 52 50  1  0
 54 53  1  0
 55 60  1  0
 56 57  1  0
 56 55  1  0
 58 57  1  0
 58 65  1  0
 58 59  1  0
 60 54  1  0
 60 59  1  0
 61 54  2  0
 62 63  2  0
 63 82  1  0
 64 63  1  0
 64 67  1  0
 65 62  1  0
 65 66  1  0
 66 64  2  0
 67 68  1  0
 68 69  2  0
 70 73  1  0
 70 69  1  0
 71 70  2  0
 72 71  1  0
 72 67  2  0
 73 74  1  0
 74 75  1  0
 75 76  2  0
 77 76  1  0
 77 81  1  0
 78 77  2  0
 79 74  2  0
 79 78  1  0
 80 79  1  0
 82 83  1  0
 83 86  1  0
 83 85  1  0
 84 82  2  0
 87 88  1  0
 87 62  1  0
 89 87  1  0
M  ISO  4   7 101   8 101  53 100  54 100
M  END
>  <TORSDO>  (60) 
F 21

>  <SCORE>  (60) 
-15.547

>  <name>  (60) 
60

>  <ligand_id>  (60) 
60

>  <original_smiles>  (60) 
[H]c1c([H])c([H])c2c(c1[H])C([H])([H])C([H])([H])C([H])([H])C2([H])N([H])C(=O)C1([H])N(C(=O)C([H])(N([H])C(=O)C([H])(N([H])C([H])([H])[H])C([H])([H])[H])C(C([H])([H])[H])(C([H])([H])[H])C([H])([H])[H])C([H])([H])c2c([H])c(OC([H])([H])C([H])([H])c3c(C([H])([H])C([H])(C([H])([H])[H])C([H])([H])[H])nn(C([H])([H])C(=O)N4C([H])([H])C([H])([H])C([H])([H])C([H])(n5nc(-c6c([H])c([H])c(Oc7c([H])c([H])c(F)c([H])c7F)c([H])c6[H])c(C(=O)N([H])[H])c5N([H])[H])C4([H])[H])c3[H])c([H])c([H])c2C1([H])[H]

>  <smiles>  (60) 
[H]c1c([H])c([H])c2c(c1[H])C([H])([H])C([H])([H])C([H])([H])C2([H])N([H])C(=O)C1([H])N(C(=O)C([H])(N([H])C(=O)C([H])(N([H])C([H])([H])[H])C([H])([H])[H])C(C([H])([H])[H])(C([H])([H])[H])C([H])([H])[H])C([H])([H])c2c([H])c(OC([H])([H])C([H])([H])c3c(C([H])([H])C([H])(C([H])([H])[H])C([H])([H])[H])nn(C([H])([H])C(=O)N4C([H])([H])C([H])([H])C([H])([H])C([H])(n5nc(-c6c([H])c([H])c(Oc7c([H])c([H])c(F)c([H])c7F)c([H])c6[H])c(C(=O)N([H])[H])c5N([H])[H])C4([H])[H])c3[H])c([H])c([H])c2C1([H])[H]

$$$$
61:0:0
     RDKit          3D

 99107  0  0  1  0  0  0  0  0999 V2000
  -25.6390  -25.6380   22.1320 C   0  0  0  0  0  0  0  0  0  0  0  0
  -25.6350  -24.3110   21.6200 C   0  0  0  0  0  0  0  0  0  0  0  0
  -27.8320  -24.5770   20.9040 C   0  0  0  0  0  0  0  0  0  0  0  0
  -27.8300  -25.9220   21.3780 C   0  0  0  0  0  0  0  0  0  0  0  0
  -24.4380  -26.2620   22.8260 C   0  0  0  0  0  1  0  0  0  0  0  0
  -26.7380  -26.4220   22.0230 N   0  0  0  0  0  0  0  0  0  0  0  0
  -26.7370  -23.7940   21.0330 N   0  0  0  0  0  0  0  0  0  0  0  0
  -24.1080  -22.5720   20.4880 C   0  0  0  0  0  1  0  0  0  0  0  0
  -24.4640  -23.3460   21.7790 C   0  0  0  0  0  2  0  0  0  0  0  0
  -29.0210  -23.9330   20.1830 C   0  0  0  0  0  2  0  0  0  0  0  0
  -29.4490  -22.5370   20.7070 C   0  0  0  0  0  2  0  0  0  0  0  0
  -28.7790  -21.2920   20.0600 C   0  0  0  0  0  2  0  0  0  0  0  0
  -29.6800  -20.5510   19.1240 N   0  0  2  0  0  4  0  0  0  0  0  0
  -30.6140  -20.8400   19.3760 H   0  0  0  0  0  0  0  0  0  0  0  0
  -28.1200  -21.0200   17.1410 C   0  0  0  0  0  1  0  0  0  0  0  0
  -29.5610  -20.9540   17.6870 C   0  0  0  0  0  2  0  0  0  0  0  0
  -29.7400  -19.0600   19.3050 C   0  0  0  0  0  2  0  0  0  0  0  0
  -30.0740  -18.6070   20.7540 C   0  0  0  0  0  2  0  0  0  0  0  0
  -30.9750  -17.3530   20.9070 C   0  0  0  0  0  2  0  0  0  0  0  0
  -30.8550  -15.0730   19.8870 C   0  0  0  0  0  0  0  0  0  0  0  0
  -30.6990  -12.7100   19.1750 C   0  0  0  0  0  2  0  0  0  0  0  0
  -29.7270  -12.5690   17.9900 C   0  0  0  0  0  2  0  0  0  0  0  0
  -28.2830  -12.3800   18.4930 C   0  0  0  0  0  2  0  0  0  0  0  0
  -27.8860  -13.4400   19.5570 C   0  0  0  0  0  3  0  0  0  0  0  0
  -28.9710  -13.5670   20.6500 C   0  0  0  0  0  2  0  0  0  0  0  0
  -30.2600  -13.8520   19.9920 N   0  0  0  0  0  0  0  0  0  0  0  0
  -31.8360  -15.2790   19.1670 O   0  0  0  0  0  0  0  0  0  0  0  0
  -30.3370  -16.0520   20.6490 N   0  0  0  0  0  0  0  0  0  0  0  0
  -29.5680  -15.7840   21.2480 H   0  0  0  0  0  0  0  0  0  0  0  0
  -25.5730  -14.0290   20.5170 C   0  0  0  0  0  0  0  0  0  0  0  0
  -24.5260  -13.2470   20.9270 C   0  0  0  0  0  0  0  0  0  0  0  0
  -24.9530  -11.8940   20.7600 C   0  0  0  0  0  0  0  0  0  0  0  0
  -26.5740  -13.1510   20.1320 N   0  0  0  0  0  0  0  0  0  0  0  0
  -26.2080  -11.8590   20.3300 N   0  0  0  0  0  0  0  0  0  0  0  0
  -24.2210  -10.6330   20.9270 C   0  0  0  0  0  0  0  0  0  0  0  0
  -24.6400   -9.6550   21.8550 C   0  0  0  0  0  3  0  0  0  0  0  0
  -23.9080   -8.4570   22.0120 C   0  0  0  0  0  3  0  0  0  0  0  0
  -22.7450   -8.2310   21.2410 C   0  0  0  0  0  0  0  0  0  0  0  0
  -22.3450   -9.1980   20.3020 C   0  0  0  0  0  3  0  0  0  0  0  0
  -23.0760  -10.3850   20.1430 C   0  0  0  0  0  3  0  0  0  0  0  0
  -21.9880   -7.0850   21.3060 O   0  0  0  0  0  0  0  0  0  0  0  0
  -21.8210   -6.3990   22.4820 C   0  0  0  0  0  0  0  0  0  0  0  0
  -21.2470   -7.0040   23.6220 C   0  0  0  0  0  3  0  0  0  0  0  0
  -21.0290   -6.2420   24.7890 C   0  0  0  0  0  3  0  0  0  0  0  0
  -21.3720   -4.8770   24.8140 C   0  0  0  0  0  0  0  0  0  0  0  0
  -21.9370   -4.2720   23.6780 C   0  0  0  0  0  3  0  0  0  0  0  0
  -22.1560   -5.0310   22.5140 C   0  0  0  0  0  0  0  0  0  0  0  0
  -22.6810   -4.4370   21.4140 F   0  0  0  0  0  0  0  0  0  0  0  0
  -21.1540   -4.1450   25.9300 F   0  0  0  0  0  0  0  0  0  0  0  0
  -23.1710  -13.7240   21.3630 C   0  0  0  0  0  0  0  0  0  0  0  0
  -22.5200  -12.9850   22.2530 N   0  0  0  0  0  0  0  0  0  0  0  0
  -22.7030  -14.7860   20.9550 O   0  0  0  0  0  0  0  0  0  0  0  0
  -22.9100  -12.1230   22.6050 H   0  0  0  0  0  0  0  0  0  0  0  0
  -21.6140  -13.2830   22.5870 H   0  0  0  0  0  0  0  0  0  0  0  0
  -25.7530  -15.4050   20.4230 N   0  0  0  0  0  0  0  0  0  0  0  0
  -25.0220  -16.0700   20.6530 H   0  0  0  0  0  0  0  0  0  0  0  0
  -26.5930  -15.8500   20.0710 H   0  0  0  0  0  0  0  0  0  0  0  0
  -29.0010  -26.9050   21.1740 C   0  0  0  0  0  2  0  0  0  0  0  0
  -28.8370  -27.7970   20.0540 O   0  0  0  0  0  0  0  0  0  0  0  0
  -25.0090  -32.0350   24.2110 C   0  0  0  0  0  0  0  0  0  0  0  0
  -27.7120  -28.5770   20.1520 C   0  0  0  0  0  0  0  0  0  0  0  0
  -23.8290  -31.1200   22.2370 C   0  0  0  0  0  3  0  0  0  0  0  0
  -25.3070  -30.0100   20.4810 C   0  0  0  0  0  0  0  0  0  0  0  0
  -26.3460  -31.5360   22.1710 C   0  0  0  0  0  2  0  0  0  0  0  0
  -26.4470  -30.3730   21.2110 C   0  0  0  0  0  0  0  0  0  0  0  0
  -27.6520  -29.6650   21.0510 C   0  0  0  0  0  3  0  0  0  0  0  0
  -26.5730  -28.2400   19.3950 C   0  0  0  0  0  3  0  0  0  0  0  0
  -25.3640  -28.9450   19.5660 C   0  0  0  0  0  3  0  0  0  0  0  0
  -24.0550  -30.8200   20.7300 C   0  0  0  0  0  2  0  0  0  0  0  0
  -25.0780  -31.5630   22.9350 N   0  0  0  0  0  0  0  0  0  0  0  0
  -23.9210  -32.1560   24.7890 O   0  0  0  0  0  0  0  0  0  0  0  0
  -23.1620  -29.8900   22.8940 C   0  0  0  0  0  0  0  0  0  0  0  0
  -21.8700  -29.6780   22.5990 N   0  0  0  0  0  0  0  0  0  0  0  0
  -23.8050  -29.1450   23.6350 O   0  0  0  0  0  0  0  0  0  0  0  0
  -21.4080  -30.3450   21.9960 H   0  0  0  0  0  0  0  0  0  0  0  0
  -18.5670  -28.2270   22.4220 C   0  0  0  0  0  0  0  0  0  0  0  0
  -21.0480  -28.5610   23.0590 C   0  0  0  0  0  3  0  0  0  0  0  0
  -21.3330  -27.2910   22.2230 C   0  0  0  0  0  2  0  0  0  0  0  0
  -20.3700  -27.1130   21.0440 C   0  0  0  0  0  2  0  0  0  0  0  0
  -18.9200  -27.0480   21.5320 C   0  0  0  0  0  2  0  0  0  0  0  0
  -19.5670  -28.9460   23.1250 C   0  0  0  0  0  0  0  0  0  0  0  0
  -19.1880  -30.0560   23.9130 C   0  0  0  0  0  3  0  0  0  0  0  0
  -17.8360  -30.4420   24.0070 C   0  0  0  0  0  3  0  0  0  0  0  0
  -16.8520  -29.7190   23.3160 C   0  0  0  0  0  3  0  0  0  0  0  0
  -17.2130  -28.6100   22.5290 C   0  0  0  0  0  3  0  0  0  0  0  0
  -26.2890  -32.4710   24.9990 C   0  0  0  0  0  3  0  0  0  0  0  0
  -26.5980  -31.5510   26.2410 C   0  0  1  0  0  0  0  0  0  0  0  0
  -25.3830  -31.3200   27.1670 C   0  0  0  0  0  1  0  0  0  0  0  0
  -27.1030  -30.1660   25.7740 C   0  0  0  0  0  1  0  0  0  0  0  0
  -27.7330  -32.1700   27.0920 C   0  0  0  0  0  1  0  0  0  0  0  0
  -26.0980  -33.8680   25.4160 N   0  0  0  0  0  0  0  0  0  0  0  0
  -26.6070  -34.9280   24.7780 C   0  0  0  0  0  0  0  0  0  0  0  0
  -27.3660  -34.8290   23.8080 O   0  0  0  0  0  0  0  0  0  0  0  0
  -25.4770  -34.0270   26.1970 H   0  0  0  0  0  0  0  0  0  0  0  0
  -25.1130  -36.9090   24.4000 C   0  0  0  0  0  1  0  0  0  0  0  0
  -26.2160  -36.3260   25.2980 C   0  0  0  0  0  3  0  0  0  0  0  0
  -28.3300  -36.9050   26.4030 C   0  0  0  0  0  1  0  0  0  0  0  0
  -27.3540  -37.2720   25.3770 N   0  0  0  0  0  0  0  0  0  0  0  0
  -27.0240  -38.2100   25.5770 H   0  0  0  0  0  0  0  0  0  0  0  0
  1  5  1  0
  2  9  1  0
  2  1  2  0
  3  7  2  0
  3  4  1  0
  4  6  2  0
  6  1  1  0
  7  2  1  0
  8  9  1  0
 10 11  1  0
 10  3  1  0
 12 11  1  0
 13 17  1  0
 13 14  1  1
 13 12  1  0
 15 16  1  0
 16 13  1  0
 17 18  1  0
 18 19  1  0
 20 26  1  0
 20 28  1  0
 21 26  1  0
 22 23  1  0
 22 21  1  0
 24 23  1  0
 24 33  1  0
 24 25  1  0
 26 25  1  0
 27 20  2  0
 28 19  1  0
 28 29  1  0
 30 31  2  0
 31 50  1  0
 32 31  1  0
 32 35  1  0
 33 34  1  0
 33 30  1  0
 34 32  2  0
 35 36  1  0
 36 37  2  0
 38 41  1  0
 38 37  1  0
 39 38  2  0
 40 39  1  0
 40 35  2  0
 41 42  1  0
 42 47  2  0
 42 43  1  0
 43 44  2  0
 44 45  1  0
 45 49  1  0
 46 45  2  0
 47 46  1  0
 48 47  1  0
 50 51  1  0
 51 54  1  0
 51 53  1  0
 52 50  2  0
 55 30  1  0
 55 56  1  0
 57 55  1  0
 58  4  1  0
 59 61  1  0
 59 58  1  0
 60 71  2  0
 61 66  1  0
 62 72  1  0
 62 70  1  0
 63 69  1  0
 63 65  1  0
 64 70  1  0
 65 64  1  0
 66 65  2  0
 67 68  1  0
 67 61  2  0
 68 63  2  0
 69 62  1  0
 70 60  1  0
 72 74  2  0
 73 72  1  0
 75 73  1  0
 76 85  2  0
 76 81  1  0
 77 73  1  0
 77 81  1  0
 78 77  1  0
 79 80  1  0
 79 78  1  0
 80 76  1  0
 81 82  2  0
 82 83  1  0
 84 83  2  0
 85 84  1  0
 86 60  1  0
 86 91  1  0
 86 87  1  0
 87 90  1  1
 87 88  1  0
 89 87  1  0
 91 94  1  0
 92 96  1  0
 92 91  1  0
 93 92  2  0
 96 95  1  0
 96 98  1  0
 98 99  1  0
 98 97  1  0
M  ISO  4  20 100  28 100  58 101  59 101
M  END
>  <TORSDO>  (61) 
F 26

>  <SCORE>  (61) 
-8.762

>  <name>  (61) 
61

>  <ligand_id>  (61) 
61

>  <original_smiles>  (61) 
[H]c1c([H])c([H])c2c(c1[H])C([H])([H])C([H])([H])C([H])([H])C2([H])N([H])C(=O)C1([H])N(C(=O)C([H])(N([H])C(=O)C([H])(N([H])C([H])([H])[H])C([H])([H])[H])C(C([H])([H])[H])(C([H])([H])[H])C([H])([H])[H])C([H])([H])c2c([H])c(OC([H])([H])c3nc(C([H])([H])[H])c(C([H])([H])C([H])([H])[H])nc3C([H])([H])C([H])([H])C([H])([H])[N+]([H])(C([H])([H])C([H])([H])[H])C([H])([H])C([H])([H])C([H])([H])N([H])C(=O)N3C([H])([H])C([H])([H])C([H])([H])C([H])(n4nc(-c5c([H])c([H])c(Oc6c([H])c([H])c(F)c([H])c6F)c([H])c5[H])c(C(=O)N([H])[H])c4N([H])[H])C3([H])[H])c([H])c([H])c2C1([H])[H]

>  <smiles>  (61) 
[H]c1c([H])c([H])c2c(c1[H])C([H])([H])C([H])([H])C([H])([H])C2([H])N([H])C(=O)C1([H])N(C(=O)C([H])(N([H])C(=O)C([H])(N([H])C([H])([H])[H])C([H])([H])[H])C(C([H])([H])[H])(C([H])([H])[H])C([H])([H])[H])C([H])([H])c2c([H])c(OC([H])([H])c3nc(C([H])([H])[H])c(C([H])([H])C([H])([H])[H])nc3C([H])([H])C([H])([H])C([H])([H])[N+]([H])(C([H])([H])C([H])([H])[H])C([H])([H])C([H])([H])C([H])([H])N([H])C(=O)N3C([H])([H])C([H])([H])C([H])([H])C([H])(n4nc(-c5c([H])c([H])c(Oc6c([H])c([H])c(F)c([H])c6F)c([H])c5[H])c(C(=O)N([H])[H])c4N([H])[H])C3([H])[H])c([H])c([H])c2C1([H])[H]

$$$$
62:0:0
     RDKit          3D

 95103  0  0  1  0  0  0  0  0999 V2000
  -30.4370  -23.1260   22.5020 C   0  0  0  0  0  3  0  0  0  0  0  0
  -31.1350  -22.7330   21.3460 C   0  0  0  0  0  0  0  0  0  0  0  0
  -30.9290  -23.5480   20.2140 C   0  0  0  0  0  0  0  0  0  0  0  0
  -29.4790  -24.8820   21.3950 C   0  0  0  0  0  0  0  0  0  0  0  0
  -29.6090  -24.1840   22.5200 N   0  0  0  0  0  0  0  0  0  0  0  0
  -30.1010  -24.6060   20.2550 N   0  0  0  0  0  0  0  0  0  0  0  0
  -32.1710  -21.5960   21.4120 C   0  0  0  0  0  2  0  0  0  0  0  0
  -31.9380  -20.2680   20.6100 C   0  0  0  0  0  2  0  0  0  0  0  0
  -30.1470  -19.7150   22.2820 C   0  0  0  0  0  1  0  0  0  0  0  0
  -30.8030  -19.3610   20.9980 N   0  0  2  0  0  4  0  0  0  0  0  0
  -30.0980  -19.5040   20.2890 H   0  0  0  0  0  0  0  0  0  0  0  0
  -31.1920  -17.9130   20.9150 C   0  0  0  0  0  2  0  0  0  0  0  0
  -30.0230  -16.8810   20.9290 C   0  0  0  0  0  2  0  0  0  0  0  0
  -30.4150  -15.4610   21.4320 C   0  0  0  0  0  2  0  0  0  0  0  0
  -30.7880  -14.4450   20.3290 C   0  0  0  0  0  0  0  0  0  0  0  0
  -30.3800  -12.3870   19.0140 C   0  0  0  0  0  2  0  0  0  0  0  0
  -29.3880  -12.6460   17.8600 C   0  0  0  0  0  2  0  0  0  0  0  0
  -27.9320  -12.5080   18.3370 C   0  0  0  0  0  2  0  0  0  0  0  0
  -27.6580  -13.2940   19.6450 C   0  0  0  0  0  3  0  0  0  0  0  0
  -28.7460  -12.9820   20.6970 C   0  0  0  0  0  2  0  0  0  0  0  0
  -30.0590  -13.3130   20.1140 N   0  0  0  0  0  0  0  0  0  0  0  0
  -31.7940  -14.7080   19.6640 O   0  0  0  0  0  0  0  0  0  0  0  0
  -25.2770  -13.9130   20.4060 C   0  0  0  0  0  0  0  0  0  0  0  0
  -24.2140  -13.1460   20.8030 C   0  0  0  0  0  0  0  0  0  0  0  0
  -24.6700  -11.7940   20.7650 C   0  0  0  0  0  0  0  0  0  0  0  0
  -26.3140  -13.0280   20.1550 N   0  0  0  0  0  0  0  0  0  0  0  0
  -25.9510  -11.7480   20.4220 N   0  0  0  0  0  0  0  0  0  0  0  0
  -23.9420  -10.5350   20.9810 C   0  0  0  0  0  0  0  0  0  0  0  0
  -24.4030   -9.5620   21.8960 C   0  0  0  0  0  3  0  0  0  0  0  0
  -23.6780   -8.3670   22.0980 C   0  0  0  0  0  3  0  0  0  0  0  0
  -22.4780   -8.1370   21.3830 C   0  0  0  0  0  0  0  0  0  0  0  0
  -22.0370   -9.0960   20.4520 C   0  0  0  0  0  3  0  0  0  0  0  0
  -22.7620  -10.2830   20.2510 C   0  0  0  0  0  3  0  0  0  0  0  0
  -21.7210   -6.9930   21.4940 O   0  0  0  0  0  0  0  0  0  0  0  0
  -21.7170   -6.2420   22.6410 C   0  0  0  0  0  0  0  0  0  0  0  0
  -21.3630   -6.7960   23.8910 C   0  0  0  0  0  3  0  0  0  0  0  0
  -21.3040   -5.9740   25.0330 C   0  0  0  0  0  3  0  0  0  0  0  0
  -21.5900   -4.5990   24.9260 C   0  0  0  0  0  0  0  0  0  0  0  0
  -21.9380   -4.0460   23.6820 C   0  0  0  0  0  3  0  0  0  0  0  0
  -21.9990   -4.8650   22.5400 C   0  0  0  0  0  0  0  0  0  0  0  0
  -22.3160   -4.3230   21.3390 F   0  0  0  0  0  0  0  0  0  0  0  0
  -21.5250   -3.8060   26.0210 F   0  0  0  0  0  0  0  0  0  0  0  0
  -22.8250  -13.6280   21.1110 C   0  0  0  0  0  0  0  0  0  0  0  0
  -22.1170  -12.9360   21.9990 N   0  0  0  0  0  0  0  0  0  0  0  0
  -22.3740  -14.6530   20.5980 O   0  0  0  0  0  0  0  0  0  0  0  0
  -22.4960  -12.1090   22.4300 H   0  0  0  0  0  0  0  0  0  0  0  0
  -21.1840  -13.2350   22.2480 H   0  0  0  0  0  0  0  0  0  0  0  0
  -25.4470  -15.2790   20.2190 N   0  0  0  0  0  0  0  0  0  0  0  0
  -24.6920  -15.9460   20.3340 H   0  0  0  0  0  0  0  0  0  0  0  0
  -26.3020  -15.7020   19.8780 H   0  0  0  0  0  0  0  0  0  0  0  0
  -31.6090  -23.3360   18.8730 C   0  0  0  0  0  2  0  0  0  0  0  0
  -31.1880  -22.8240   16.4000 C   0  0  0  0  0  1  0  0  0  0  0  0
  -30.6160  -22.8180   17.8210 C   0  0  0  0  0  2  0  0  0  0  0  0
  -28.5410  -26.0890   21.4200 C   0  0  0  0  0  2  0  0  0  0  0  0
  -28.3460  -26.7150   20.1430 O   0  0  0  0  0  0  0  0  0  0  0  0
  -24.5940  -31.8860   23.2400 C   0  0  0  0  0  0  0  0  0  0  0  0
  -27.2130  -27.4820   20.1240 C   0  0  0  0  0  0  0  0  0  0  0  0
  -23.3730  -30.4850   21.6030 C   0  0  0  0  0  3  0  0  0  0  0  0
  -24.8170  -28.9610   20.1550 C   0  0  0  0  0  0  0  0  0  0  0  0
  -25.8910  -30.8600   21.3780 C   0  0  0  0  0  2  0  0  0  0  0  0
  -25.9750  -29.4930   20.7380 C   0  0  0  0  0  0  0  0  0  0  0  0
  -27.1780  -28.7570   20.7290 C   0  0  0  0  0  3  0  0  0  0  0  0
  -26.0510  -26.9580   19.5290 C   0  0  0  0  0  3  0  0  0  0  0  0
  -24.8480  -27.6910   19.5470 C   0  0  0  0  0  3  0  0  0  0  0  0
  -23.5670  -29.8090   20.2190 C   0  0  0  0  0  2  0  0  0  0  0  0
  -24.6390  -31.0910   22.1330 N   0  0  0  0  0  0  0  0  0  0  0  0
  -23.5200  -32.1530   23.7930 O   0  0  0  0  0  0  0  0  0  0  0  0
  -22.7350  -29.4610   22.5670 C   0  0  0  0  0  0  0  0  0  0  0  0
  -21.4100  -29.2770   22.4480 N   0  0  0  0  0  0  0  0  0  0  0  0
  -23.4280  -28.8370   23.3750 O   0  0  0  0  0  0  0  0  0  0  0  0
  -20.9150  -29.8320   21.7650 H   0  0  0  0  0  0  0  0  0  0  0  0
  -18.0440  -28.0670   22.9510 C   0  0  0  0  0  0  0  0  0  0  0  0
  -20.6000  -28.3350   23.2210 C   0  0  0  0  0  3  0  0  0  0  0  0
  -20.7090  -26.9050   22.6450 C   0  0  0  0  0  2  0  0  0  0  0  0
  -19.6080  -26.5760   21.6320 C   0  0  0  0  0  2  0  0  0  0  0  0
  -18.2250  -26.7170   22.2760 C   0  0  0  0  0  2  0  0  0  0  0  0
  -19.1590  -28.8330   23.3780 C   0  0  0  0  0  0  0  0  0  0  0  0
  -18.9360  -30.0980   23.9650 C   0  0  0  0  0  3  0  0  0  0  0  0
  -17.6290  -30.5940   24.1310 C   0  0  0  0  0  3  0  0  0  0  0  0
  -16.5280  -29.8230   23.7210 C   0  0  0  0  0  3  0  0  0  0  0  0
  -16.7360  -28.5620   23.1360 C   0  0  0  0  0  3  0  0  0  0  0  0
  -25.8870  -32.5130   23.8480 C   0  0  0  0  0  3  0  0  0  0  0  0
  -26.4220  -31.7340   25.1130 C   0  0  1  0  0  0  0  0  0  0  0  0
  -25.3420  -31.4900   26.1930 C   0  0  0  0  0  1  0  0  0  0  0  0
  -27.0000  -30.3600   24.7010 C   0  0  0  0  0  1  0  0  0  0  0  0
  -27.5810  -32.5250   25.7650 C   0  0  0  0  0  1  0  0  0  0  0  0
  -25.5840  -33.9100   24.1880 N   0  0  0  0  0  0  0  0  0  0  0  0
  -25.9170  -34.9640   23.4310 C   0  0  0  0  0  0  0  0  0  0  0  0
  -26.5820  -34.8640   22.3960 O   0  0  0  0  0  0  0  0  0  0  0  0
  -24.9900  -34.0610   24.9890 H   0  0  0  0  0  0  0  0  0  0  0  0
  -24.1890  -36.7600   23.0900 C   0  0  0  0  0  1  0  0  0  0  0  0
  -25.4320  -36.3500   23.8950 C   0  0  0  0  0  3  0  0  0  0  0  0
  -27.5740  -37.2250   24.7170 C   0  0  0  0  0  1  0  0  0  0  0  0
  -26.4660  -37.4030   23.7840 N   0  0  0  0  0  0  0  0  0  0  0  0
  -26.0610  -38.3210   23.9450 H   0  0  0  0  0  0  0  0  0  0  0  0
  1  5  1  0
  2  7  1  0
  2  1  2  0
  3  6  2  0
  3  2  1  0
  4 54  1  0
  4  5  2  0
  6  4  1  0
  8 10  1  0
  8  7  1  0
 10  9  1  0
 10 11  1  6
 12 13  1  0
 12 10  1  0
 13 14  1  0
 15 14  1  0
 16 21  1  0
 17 18  1  0
 17 16  1  0
 19 18  1  0
 19 26  1  0
 19 20  1  0
 21 15  1  0
 21 20  1  0
 22 15  2  0
 23 24  2  0
 24 43  1  0
 25 24  1  0
 25 28  1  0
 26 23  1  0
 26 27  1  0
 27 25  2  0
 28 29  1  0
 29 30  2  0
 31 34  1  0
 31 30  1  0
 32 31  2  0
 33 32  1  0
 33 28  2  0
 34 35  1  0
 35 36  1  0
 36 37  2  0
 38 37  1  0
 38 42  1  0
 39 38  2  0
 40 35  2  0
 40 39  1  0
 41 40  1  0
 43 44  1  0
 44 47  1  0
 44 46  1  0
 45 43  2  0
 48 49  1  0
 48 23  1  0
 50 48  1  0
 51  3  1  0
 52 53  1  0
 53 51  1  0
 55 54  1  0
 56 67  2  0
 57 55  1  0
 57 62  1  0
 58 66  1  0
 58 68  1  0
 59 65  1  0
 59 61  1  0
 60 66  1  0
 61 60  1  0
 62 61  2  0
 63 64  1  0
 63 57  2  0
 64 59  2  0
 65 58  1  0
 66 56  1  0
 68 70  2  0
 69 68  1  0
 71 69  1  0
 72 81  2  0
 72 77  1  0
 73 69  1  0
 73 77  1  0
 74 73  1  0
 75 76  1  0
 75 74  1  0
 76 72  1  0
 77 78  2  0
 78 79  1  0
 80 79  2  0
 81 80  1  0
 82 56  1  0
 82 87  1  0
 82 83  1  0
 83 86  1  1
 83 84  1  0
 85 83  1  0
 87 90  1  0
 88 92  1  0
 88 87  1  0
 89 88  2  0
 92 91  1  0
 94 92  1  0
 94 95  1  0
 94 93  1  0
M  ISO  4  14 100  15 100  54 101  55 101
M  END
>  <TORSDO>  (62) 
F 25

>  <SCORE>  (62) 
-11.787

>  <name>  (62) 
62

>  <ligand_id>  (62) 
62

>  <original_smiles>  (62) 
[H]c1nc(C([H])([H])Oc2c([H])c([H])c3c(c2[H])C([H])([H])N(C(=O)C([H])(N([H])C(=O)C([H])(N([H])C([H])([H])[H])C([H])([H])[H])C(C([H])([H])[H])(C([H])([H])[H])C([H])([H])[H])C([H])(C(=O)N([H])C2([H])c4c([H])c([H])c([H])c([H])c4C([H])([H])C([H])([H])C2([H])[H])C3([H])[H])nc(C([H])([H])C([H])([H])C([H])([H])[H])c1C([H])([H])C([H])([H])[N+]([H])(C([H])([H])[H])C([H])([H])C([H])([H])C([H])([H])C(=O)N1C([H])([H])C([H])([H])C([H])([H])C([H])(n2nc(-c3c([H])c([H])c(Oc4c([H])c([H])c(F)c([H])c4F)c([H])c3[H])c(C(=O)N([H])[H])c2N([H])[H])C1([H])[H]

>  <smiles>  (62) 
[H]c1nc(C([H])([H])Oc2c([H])c([H])c3c(c2[H])C([H])([H])N(C(=O)C([H])(N([H])C(=O)C([H])(N([H])C([H])([H])[H])C([H])([H])[H])C(C([H])([H])[H])(C([H])([H])[H])C([H])([H])[H])C([H])(C(=O)N([H])C2([H])c4c([H])c([H])c([H])c([H])c4C([H])([H])C([H])([H])C2([H])[H])C3([H])[H])nc(C([H])([H])C([H])([H])C([H])([H])[H])c1C([H])([H])C([H])([H])[N+]([H])(C([H])([H])[H])C([H])([H])C([H])([H])C([H])([H])C(=O)N1C([H])([H])C([H])([H])C([H])([H])C([H])(n2nc(-c3c([H])c([H])c(Oc4c([H])c([H])c(F)c([H])c4F)c([H])c3[H])c(C(=O)N([H])[H])c2N([H])[H])C1([H])[H]

$$$$
63:0:0
     RDKit          3D

 94102  0  0  1  0  0  0  0  0999 V2000
  -27.9300  -22.5810   20.1620 C   0  0  0  0  0  3  0  0  0  0  0  0
  -30.6330  -22.4500   20.1160 C   0  0  0  0  0  3  0  0  0  0  0  0
  -28.5210  -21.2990   20.1420 C   0  0  0  0  0  0  0  0  0  0  0  0
  -29.9360  -21.2040   20.1010 C   0  0  0  0  0  0  0  0  0  0  0  0
  -28.6960  -23.7680   20.1110 C   0  0  0  0  0  0  0  0  0  0  0  0
  -30.0510  -23.6920   20.1060 N   0  0  0  0  0  0  0  0  0  0  0  0
  -27.4220  -19.5350   18.6690 C   0  0  0  0  0  1  0  0  0  0  0  0
  -27.5940  -20.0920   20.0880 C   0  0  0  0  0  2  0  0  0  0  0  0
  -30.7090  -19.8580   19.8540 C   0  0  0  0  0  2  0  0  0  0  0  0
  -30.4060  -18.6470   20.7000 N   0  0  0  0  0  4  0  0  0  0  0  0
  -29.4270  -18.6530   20.9280 H   0  0  0  0  0  0  0  0  0  0  0  0
  -30.9190  -18.7370   21.5630 H   0  0  0  0  0  0  0  0  0  0  0  0
  -30.7160  -17.2940   20.0880 C   0  0  0  0  0  2  0  0  0  0  0  0
  -31.1310  -15.9590   22.2270 C   0  0  0  0  0  1  0  0  0  0  0  0
  -28.8110  -16.1570   21.3110 C   0  0  0  0  0  1  0  0  0  0  0  0
  -30.2990  -15.9920   20.9240 C   0  0  1  0  0  0  0  0  0  0  0  0
  -30.6840  -14.6590   20.1140 C   0  0  0  0  0  0  0  0  0  0  0  0
  -30.2810  -12.5020   18.9250 C   0  0  0  0  0  2  0  0  0  0  0  0
  -29.2710  -12.6940   17.7750 C   0  0  0  0  0  2  0  0  0  0  0  0
  -27.8290  -12.5110   18.2840 C   0  0  0  0  0  2  0  0  0  0  0  0
  -27.5600  -13.3250   19.5770 C   0  0  0  0  0  3  0  0  0  0  0  0
  -28.6900  -13.0940   20.6100 C   0  0  0  0  0  2  0  0  0  0  0  0
  -29.9620  -13.4890   19.9880 N   0  0  0  0  0  0  0  0  0  0  0  0
  -31.7560  -14.7430   19.5080 O   0  0  0  0  0  0  0  0  0  0  0  0
  -25.2140  -13.9280   20.4440 C   0  0  0  0  0  0  0  0  0  0  0  0
  -24.1660  -13.1520   20.8610 C   0  0  0  0  0  0  0  0  0  0  0  0
  -24.6170  -11.8010   20.7740 C   0  0  0  0  0  0  0  0  0  0  0  0
  -26.2400  -13.0460   20.1330 N   0  0  0  0  0  0  0  0  0  0  0  0
  -25.8870  -11.7610   20.3890 N   0  0  0  0  0  0  0  0  0  0  0  0
  -23.8970  -10.5370   20.9800 C   0  0  0  0  0  0  0  0  0  0  0  0
  -24.3650   -9.5590   21.8850 C   0  0  0  0  0  3  0  0  0  0  0  0
  -23.6430   -8.3620   22.0780 C   0  0  0  0  0  3  0  0  0  0  0  0
  -22.4420   -8.1340   21.3660 C   0  0  0  0  0  0  0  0  0  0  0  0
  -21.9930   -9.1020   20.4500 C   0  0  0  0  0  3  0  0  0  0  0  0
  -22.7150  -10.2900   20.2540 C   0  0  0  0  0  3  0  0  0  0  0  0
  -21.6890   -6.9890   21.4720 O   0  0  0  0  0  0  0  0  0  0  0  0
  -21.6630   -6.2500   22.6270 C   0  0  0  0  0  0  0  0  0  0  0  0
  -21.2820   -6.8130   23.8640 C   0  0  0  0  0  3  0  0  0  0  0  0
  -21.2020   -6.0010   25.0130 C   0  0  0  0  0  3  0  0  0  0  0  0
  -21.4930   -4.6260   24.9260 C   0  0  0  0  0  0  0  0  0  0  0  0
  -21.8660   -4.0620   23.6940 C   0  0  0  0  0  3  0  0  0  0  0  0
  -21.9500   -4.8710   22.5460 C   0  0  0  0  0  0  0  0  0  0  0  0
  -22.2910   -4.3190   21.3570 F   0  0  0  0  0  0  0  0  0  0  0  0
  -21.4090   -3.8440   26.0270 F   0  0  0  0  0  0  0  0  0  0  0  0
  -22.7910  -13.6320   21.2250 C   0  0  0  0  0  0  0  0  0  0  0  0
  -22.1120  -12.9230   22.1190 N   0  0  0  0  0  0  0  0  0  0  0  0
  -22.3290  -14.6690   20.7510 O   0  0  0  0  0  0  0  0  0  0  0  0
  -22.5000  -12.0830   22.5230 H   0  0  0  0  0  0  0  0  0  0  0  0
  -21.1910  -13.2250   22.4050 H   0  0  0  0  0  0  0  0  0  0  0  0
  -25.3690  -15.3010   20.2850 N   0  0  0  0  0  0  0  0  0  0  0  0
  -24.6030  -15.9450   20.4510 H   0  0  0  0  0  0  0  0  0  0  0  0
  -26.1870  -15.7480   19.8920 H   0  0  0  0  0  0  0  0  0  0  0  0
  -27.8960  -25.0760   19.8180 C   0  0  0  0  0  2  0  0  0  0  0  0
  -28.2610  -26.4660   20.1640 O   0  0  0  0  0  0  0  0  0  0  0  0
  -24.6170  -31.9280   23.1750 C   0  0  0  0  0  0  0  0  0  0  0  0
  -27.1690  -27.3590   20.0940 C   0  0  0  0  0  0  0  0  0  0  0  0
  -23.3830  -30.5220   21.5690 C   0  0  0  0  0  3  0  0  0  0  0  0
  -24.8060  -28.9810   20.1250 C   0  0  0  0  0  0  0  0  0  0  0  0
  -25.9230  -30.8360   21.3440 C   0  0  0  0  0  2  0  0  0  0  0  0
  -25.9880  -29.4570   20.7070 C   0  0  0  0  0  0  0  0  0  0  0  0
  -27.1700  -28.6550   20.6950 C   0  0  0  0  0  3  0  0  0  0  0  0
  -25.9600  -26.9670   19.4530 C   0  0  0  0  0  3  0  0  0  0  0  0
  -24.7940  -27.7370   19.4920 C   0  0  0  0  0  3  0  0  0  0  0  0
  -23.5700  -29.8490   20.1890 C   0  0  0  0  0  2  0  0  0  0  0  0
  -24.6600  -31.1120   22.0840 N   0  0  0  0  0  0  0  0  0  0  0  0
  -23.5440  -32.2100   23.7270 O   0  0  0  0  0  0  0  0  0  0  0  0
  -22.7400  -29.5060   22.5440 C   0  0  0  0  0  0  0  0  0  0  0  0
  -21.4140  -29.3170   22.4330 N   0  0  0  0  0  0  0  0  0  0  0  0
  -23.4330  -28.8920   23.3600 O   0  0  0  0  0  0  0  0  0  0  0  0
  -20.9130  -29.8650   21.7480 H   0  0  0  0  0  0  0  0  0  0  0  0
  -18.0500  -28.1000   22.9740 C   0  0  0  0  0  0  0  0  0  0  0  0
  -20.6080  -28.3860   23.2260 C   0  0  0  0  0  3  0  0  0  0  0  0
  -20.7190  -26.9440   22.6790 C   0  0  0  0  0  2  0  0  0  0  0  0
  -19.6150  -26.5920   21.6770 C   0  0  0  0  0  2  0  0  0  0  0  0
  -18.2350  -26.7390   22.3240 C   0  0  0  0  0  2  0  0  0  0  0  0
  -19.1650  -28.8800   23.3830 C   0  0  0  0  0  0  0  0  0  0  0  0
  -18.9360  -30.1530   23.9500 C   0  0  0  0  0  3  0  0  0  0  0  0
  -17.6280  -30.6440   24.1110 C   0  0  0  0  0  3  0  0  0  0  0  0
  -16.5290  -29.8610   23.7160 C   0  0  0  0  0  3  0  0  0  0  0  0
  -16.7410  -28.5910   23.1530 C   0  0  0  0  0  3  0  0  0  0  0  0
  -25.9120  -32.5640   23.7670 C   0  0  0  0  0  3  0  0  0  0  0  0
  -25.6080  -33.9620   24.0960 N   0  0  0  0  0  0  0  0  0  0  0  0
  -25.9160  -35.0110   23.3220 C   0  0  0  0  0  0  0  0  0  0  0  0
  -26.5580  -34.9020   22.2720 O   0  0  0  0  0  0  0  0  0  0  0  0
  -25.0390  -34.1200   24.9140 H   0  0  0  0  0  0  0  0  0  0  0  0
  -24.1700  -36.7920   23.0060 C   0  0  0  0  0  1  0  0  0  0  0  0
  -25.4370  -36.4010   23.7820 C   0  0  0  0  0  3  0  0  0  0  0  0
  -27.5940  -37.2980   24.5380 C   0  0  0  0  0  1  0  0  0  0  0  0
  -26.4620  -37.4570   23.6300 N   0  0  0  0  0  0  0  0  0  0  0  0
  -26.0560  -38.3760   23.7850 H   0  0  0  0  0  0  0  0  0  0  0  0
  -26.4550  -31.7980   25.0350 C   0  0  1  0  0  0  0  0  0  0  0  0
  -25.3840  -31.5630   26.1260 C   0  0  0  0  0  1  0  0  0  0  0  0
  -27.0310  -30.4180   24.6380 C   0  0  0  0  0  1  0  0  0  0  0  0
  -27.6190  -32.5940   25.6690 C   0  0  0  0  0  1  0  0  0  0  0  0
  3  1  1  0
  4  2  1  0
  4  3  2  0
  5  1  2  0
  6  5  1  0
  6  2  2  0
  7  8  1  0
  8  3  1  0
  9  4  1  0
  9 10  1  0
 10 11  1  0
 10 12  1  0
 13 10  1  0
 13 16  1  0
 16 15  1  1
 16 14  1  0
 17 16  1  0
 18 23  1  0
 19 20  1  0
 19 18  1  0
 21 20  1  0
 21 28  1  0
 21 22  1  0
 23 17  1  0
 23 22  1  0
 24 17  2  0
 25 26  2  0
 26 45  1  0
 27 26  1  0
 27 30  1  0
 28 29  1  0
 28 25  1  0
 29 27  2  0
 30 31  1  0
 31 32  2  0
 33 36  1  0
 33 32  1  0
 34 33  2  0
 35 34  1  0
 35 30  2  0
 36 37  1  0
 37 38  1  0
 38 39  2  0
 40 39  1  0
 40 44  1  0
 41 40  2  0
 42 37  2  0
 42 41  1  0
 43 42  1  0
 45 46  1  0
 46 49  1  0
 46 48  1  0
 47 45  2  0
 50 25  1  0
 50 51  1  0
 52 50  1  0
 53  5  1  0
 53 54  1  0
 55 66  2  0
 56 54  1  0
 56 61  1  0
 57 65  1  0
 57 67  1  0
 58 64  1  0
 58 60  1  0
 59 65  1  0
 60 59  1  0
 61 60  2  0
 62 63  1  0
 62 56  2  0
 63 58  2  0
 64 57  1  0
 65 55  1  0
 67 69  2  0
 68 67  1  0
 70 68  1  0
 71 80  2  0
 71 76  1  0
 72 68  1  0
 72 76  1  0
 73 72  1  0
 74 75  1  0
 74 73  1  0
 75 71  1  0
 76 77  2  0
 77 78  1  0
 79 78  2  0
 80 79  1  0
 81 55  1  0
 81 82  1  0
 81 91  1  0
 82 85  1  0
 83 87  1  0
 83 82  1  0
 84 83  2  0
 87 86  1  0
 89 87  1  0
 89 90  1  0
 89 88  1  0
 91 94  1  1
 91 92  1  0
 93 91  1  0
M  ISO  4  16 100  17 100  53 101  54 101
M  END
>  <TORSDO>  (63) 
F 22

>  <SCORE>  (63) 
-12.540

>  <name>  (63) 
63

>  <ligand_id>  (63) 
63

>  <original_smiles>  (63) 
[H]c1nc(C([H])([H])Oc2c([H])c([H])c3c(c2[H])C([H])([H])N(C(=O)C([H])(N([H])C(=O)C([H])(N([H])C([H])([H])[H])C([H])([H])[H])C(C([H])([H])[H])(C([H])([H])[H])C([H])([H])[H])C([H])(C(=O)N([H])C2([H])c4c([H])c([H])c([H])c([H])c4C([H])([H])C([H])([H])C2([H])[H])C3([H])[H])c([H])c(C([H])([H])C([H])([H])[H])c1C([H])([H])[N+]([H])([H])C([H])([H])C(C(=O)N1C([H])([H])C([H])([H])C([H])([H])C([H])(n2nc(-c3c([H])c([H])c(Oc4c([H])c([H])c(F)c([H])c4F)c([H])c3[H])c(C(=O)N([H])[H])c2N([H])[H])C1([H])[H])(C([H])([H])[H])C([H])([H])[H]

>  <smiles>  (63) 
[H]c1nc(C([H])([H])Oc2c([H])c([H])c3c(c2[H])C([H])([H])N(C(=O)C([H])(N([H])C(=O)C([H])(N([H])C([H])([H])[H])C([H])([H])[H])C(C([H])([H])[H])(C([H])([H])[H])C([H])([H])[H])C([H])(C(=O)N([H])C2([H])c4c([H])c([H])c([H])c([H])c4C([H])([H])C([H])([H])C2([H])[H])C3([H])[H])c([H])c(C([H])([H])C([H])([H])[H])c1C([H])([H])[N+]([H])([H])C([H])([H])C(C(=O)N1C([H])([H])C([H])([H])C([H])([H])C([H])(n2nc(-c3c([H])c([H])c(Oc4c([H])c([H])c(F)c([H])c4F)c([H])c3[H])c(C(=O)N([H])[H])c2N([H])[H])C1([H])[H])(C([H])([H])[H])C([H])([H])[H]

$$$$
64:0:0
     RDKit          3D

 92101  0  0  1  0  0  0  0  0999 V2000
  -27.3250  -18.8160   19.1410 C   0  0  0  0  0  0  0  0  0  0  0  0
  -27.8920  -20.0480   19.1900 C   0  0  0  0  0  0  0  0  0  0  0  0
  -29.4140  -18.5230   19.6980 C   0  0  0  0  0  0  0  0  0  0  0  0
  -25.8630  -18.5250   18.9830 C   0  0  0  0  0  2  0  0  0  0  0  0
  -27.0830  -21.2980   19.1050 C   0  0  0  0  0  2  0  0  0  0  0  0
  -25.0390  -19.8120   18.7500 C   0  0  0  0  0  2  0  0  0  0  0  0
  -25.6100  -21.0460   19.4830 C   0  0  0  0  0  2  0  0  0  0  0  0
  -28.2760  -17.8730   19.4360 N   0  0  0  0  0  0  0  0  0  0  0  0
  -29.2750  -19.9140   19.4010 N   0  0  0  0  0  0  0  0  0  0  0  0
  -30.4840  -17.5940   20.2990 C   0  0  0  0  0  3  0  0  0  0  0  0
  -30.2210  -16.2620   20.6530 C   0  0  0  0  0  3  0  0  0  0  0  0
  -31.1270  -15.1310   21.0920 C   0  0  0  0  0  0  0  0  0  0  0  0
  -31.1410  -12.6280   20.9310 C   0  0  0  0  0  2  0  0  0  0  0  0
  -30.5000  -12.2400   19.5780 C   0  0  0  0  0  2  0  0  0  0  0  0
  -28.9650  -12.1340   19.7050 C   0  0  0  0  0  2  0  0  0  0  0  0
  -28.3450  -13.3460   20.4490 C   0  0  0  0  0  3  0  0  0  0  0  0
  -29.1290  -13.6740   21.7410 C   0  0  0  0  0  2  0  0  0  0  0  0
  -30.5320  -13.9070   21.3650 N   0  0  0  0  0  0  0  0  0  0  0  0
  -32.3600  -15.1920   21.0300 O   0  0  0  0  0  0  0  0  0  0  0  0
  -25.9180  -14.1300   20.7220 C   0  0  0  0  0  0  0  0  0  0  0  0
  -24.7490  -13.4490   20.9140 C   0  0  0  0  0  0  0  0  0  0  0  0
  -25.1060  -12.0690   20.9990 C   0  0  0  0  0  0  0  0  0  0  0  0
  -26.9190  -13.1720   20.6990 N   0  0  0  0  0  0  0  0  0  0  0  0
  -26.4240  -11.9280   20.9270 N   0  0  0  0  0  0  0  0  0  0  0  0
  -24.2650  -10.8690   21.0850 C   0  0  0  0  0  0  0  0  0  0  0  0
  -24.5150   -9.8550   22.0360 C   0  0  0  0  0  3  0  0  0  0  0  0
  -23.6780   -8.7210   22.1080 C   0  0  0  0  0  3  0  0  0  0  0  0
  -22.5770   -8.5940   21.2300 C   0  0  0  0  0  0  0  0  0  0  0  0
  -22.3480   -9.5940   20.2680 C   0  0  0  0  0  3  0  0  0  0  0  0
  -23.1850  -10.7190   20.1940 C   0  0  0  0  0  3  0  0  0  0  0  0
  -21.7270   -7.5140   21.2120 O   0  0  0  0  0  0  0  0  0  0  0  0
  -21.5650   -6.7090   22.3110 C   0  0  0  0  0  0  0  0  0  0  0  0
  -21.1650   -7.2290   23.5630 C   0  0  0  0  0  3  0  0  0  0  0  0
  -20.9410   -6.3580   24.6470 C   0  0  0  0  0  3  0  0  0  0  0  0
  -21.1080   -4.9700   24.4830 C   0  0  0  0  0  0  0  0  0  0  0  0
  -21.5000   -4.4510   23.2380 C   0  0  0  0  0  3  0  0  0  0  0  0
  -21.7250   -5.3180   22.1540 C   0  0  0  0  0  0  0  0  0  0  0  0
  -22.0840   -4.8110   20.9500 F   0  0  0  0  0  0  0  0  0  0  0  0
  -20.8840   -4.1320   25.5230 F   0  0  0  0  0  0  0  0  0  0  0  0
  -23.3650  -14.0330   20.9210 C   0  0  0  0  0  0  0  0  0  0  0  0
  -22.4550  -13.4450   21.6860 N   0  0  0  0  0  0  0  0  0  0  0  0
  -23.0980  -15.0520   20.2820 O   0  0  0  0  0  0  0  0  0  0  0  0
  -22.6760  -12.6230   22.2290 H   0  0  0  0  0  0  0  0  0  0  0  0
  -21.5190  -13.8210   21.7360 H   0  0  0  0  0  0  0  0  0  0  0  0
  -26.2050  -15.4760   20.5380 N   0  0  0  0  0  0  0  0  0  0  0  0
  -25.4560  -16.1550   20.4740 H   0  0  0  0  0  0  0  0  0  0  0  0
  -27.1230  -15.8970   20.4330 H   0  0  0  0  0  0  0  0  0  0  0  0
  -30.1540  -21.1600   19.4670 C   0  0  0  0  0  2  0  0  0  0  0  0
  -29.8680  -22.5900   18.6790 C   0  0  0  0  0  2  0  0  0  0  0  0
  -28.8060  -23.8060   18.9780 C   0  0  0  0  0  2  0  0  0  0  0  0
  -29.1410  -25.2090   19.7270 C   0  0  0  0  0  2  0  0  0  0  0  0
  -28.9800  -26.5890   19.1660 O   0  0  0  0  0  0  0  0  0  0  0  0
  -25.3550  -30.9990   23.6950 C   0  0  0  0  0  0  0  0  0  0  0  0
  -27.8690  -27.4070   19.4620 C   0  0  0  0  0  0  0  0  0  0  0  0
  -24.1440  -30.2160   21.6910 C   0  0  0  0  0  3  0  0  0  0  0  0
  -25.5690  -29.0750   19.8930 C   0  0  0  0  0  0  0  0  0  0  0  0
  -26.6990  -30.4420   21.6480 C   0  0  0  0  0  2  0  0  0  0  0  0
  -26.7390  -29.3100   20.6240 C   0  0  0  0  0  0  0  0  0  0  0  0
  -27.8950  -28.4970   20.3930 C   0  0  0  0  0  3  0  0  0  0  0  0
  -26.6740  -27.2210   18.7400 C   0  0  0  0  0  3  0  0  0  0  0  0
  -25.5400  -28.0390   18.9420 C   0  0  0  0  0  3  0  0  0  0  0  0
  -24.3700  -29.9650   20.1760 C   0  0  0  0  0  2  0  0  0  0  0  0
  -25.4180  -30.5520   22.4050 N   0  0  0  0  0  0  0  0  0  0  0  0
  -24.2710  -31.1600   24.2720 O   0  0  0  0  0  0  0  0  0  0  0  0
  -23.4090  -28.9960   22.2950 C   0  0  0  0  0  0  0  0  0  0  0  0
  -22.0830  -28.9200   22.0720 N   0  0  0  0  0  0  0  0  0  0  0  0
  -24.0280  -28.1360   22.9230 O   0  0  0  0  0  0  0  0  0  0  0  0
  -21.6430  -29.6770   21.5710 H   0  0  0  0  0  0  0  0  0  0  0  0
  -18.6760  -27.7080   21.9930 C   0  0  0  0  0  0  0  0  0  0  0  0
  -21.2050  -27.8310   22.5040 C   0  0  0  0  0  3  0  0  0  0  0  0
  -21.3460  -26.5980   21.5840 C   0  0  0  0  0  2  0  0  0  0  0  0
  -20.3230  -26.5720   20.4440 C   0  0  0  0  0  2  0  0  0  0  0  0
  -18.9000  -26.5790   21.0000 C   0  0  0  0  0  2  0  0  0  0  0  0
  -19.7590  -28.3090   22.6850 C   0  0  0  0  0  0  0  0  0  0  0  0
  -19.4980  -29.3770   23.5710 C   0  0  0  0  0  3  0  0  0  0  0  0
  -18.1800  -29.8360   23.7720 C   0  0  0  0  0  3  0  0  0  0  0  0
  -17.1110  -29.2200   23.1020 C   0  0  0  0  0  3  0  0  0  0  0  0
  -17.3580  -28.1580   22.2140 C   0  0  0  0  0  3  0  0  0  0  0  0
  -26.6440  -31.3550   24.4990 C   0  0  0  0  0  3  0  0  0  0  0  0
  -26.3920  -32.6140   25.2130 N   0  0  0  0  0  0  0  0  0  0  0  0
  -26.8580  -33.8130   24.8340 C   0  0  0  0  0  0  0  0  0  0  0  0
  -27.6100  -33.9590   23.8660 O   0  0  0  0  0  0  0  0  0  0  0  0
  -25.7400  -32.5780   25.9810 H   0  0  0  0  0  0  0  0  0  0  0  0
  -25.2910  -35.7790   24.9160 C   0  0  0  0  0  1  0  0  0  0  0  0
  -26.4200  -35.0410   25.6540 C   0  0  0  0  0  3  0  0  0  0  0  0
  -28.5130  -35.4480   26.8700 C   0  0  0  0  0  1  0  0  0  0  0  0
  -27.5230  -35.9830   25.9400 N   0  0  0  0  0  0  0  0  0  0  0  0
  -27.1660  -36.8530   26.3230 H   0  0  0  0  0  0  0  0  0  0  0  0
  -27.0740  -30.2240   25.5130 C   0  0  1  0  0  0  0  0  0  0  0  0
  -25.9380  -29.7640   26.4550 C   0  0  0  0  0  1  0  0  0  0  0  0
  -27.5860  -28.9770   24.7560 C   0  0  0  0  0  1  0  0  0  0  0  0
  -28.2510  -30.7230   26.3860 C   0  0  0  0  0  1  0  0  0  0  0  0
  1  2  2  0
  1  8  1  0
  2  9  1  0
  3 10  1  0
  4  1  1  0
  5  2  1  0
  5  7  1  0
  6  4  1  0
  6  7  1  0
  8  3  2  0
  9 48  1  0
  9  3  1  0
 10 11  2  0
 11 12  1  0
 12 18  1  0
 13 18  1  0
 14 15  1  0
 14 13  1  0
 16 15  1  0
 16 23  1  0
 16 17  1  0
 18 17  1  0
 19 12  2  0
 20 21  2  0
 21 40  1  0
 21 22  1  0
 22 25  1  0
 23 20  1  0
 23 24  1  0
 24 22  2  0
 25 26  1  0
 26 27  2  0
 28 27  1  0
 29 28  2  0
 30 29  1  0
 30 25  2  0
 31 28  1  0
 31 32  1  0
 32 33  1  0
 33 34  2  0
 35 34  1  0
 35 39  1  0
 36 35  2  0
 37 32  2  0
 37 36  1  0
 38 37  1  0
 40 41  1  0
 41 44  1  0
 41 43  1  0
 42 40  2  0
 45 20  1  0
 46 45  1  0
 47 45  1  0
 49 50  1  0
 49 48  1  0
 50 51  1  0
 52 54  1  0
 52 51  1  0
 53 64  2  0
 54 59  1  0
 55 65  1  0
 55 63  1  0
 56 62  1  0
 56 58  1  0
 57 63  1  0
 58 57  1  0
 59 58  2  0
 60 61  1  0
 60 54  2  0
 61 56  2  0
 62 55  1  0
 63 53  1  0
 65 67  2  0
 66 65  1  0
 68 66  1  0
 69 78  2  0
 69 74  1  0
 70 66  1  0
 70 74  1  0
 71 70  1  0
 72 73  1  0
 72 71  1  0
 73 69  1  0
 74 75  2  0
 75 76  1  0
 77 76  2  0
 78 77  1  0
 79 53  1  0
 79 80  1  0
 79 89  1  0
 80 83  1  0
 81 80  1  0
 81 85  1  0
 82 81  2  0
 85 84  1  0
 85 87  1  0
 87 88  1  0
 87 86  1  0
 89 92  1  1
 89 90  1  0
 91 89  1  0
M  ISO  4  11 100  12 100  51 101  52 101
M  END
>  <TORSDO>  (64) 
F 21

>  <SCORE>  (64) 
-7.733

>  <name>  (64) 
64

>  <ligand_id>  (64) 
64

>  <original_smiles>  (64) 
[H]C(C(=O)N1C([H])([H])C([H])([H])C([H])([H])C([H])(n2nc(-c3c([H])c([H])c(Oc4c([H])c([H])c(F)c([H])c4F)c([H])c3[H])c(C(=O)N([H])[H])c2N([H])[H])C1([H])[H])=C([H])c1nc2c(n1C([H])([H])C([H])([H])C([H])([H])C([H])([H])Oc1c([H])c([H])c3c(c1[H])C([H])([H])N(C(=O)C([H])(N([H])C(=O)C([H])(N([H])C([H])([H])[H])C([H])([H])[H])C(C([H])([H])[H])(C([H])([H])[H])C([H])([H])[H])C([H])(C(=O)N([H])C1([H])c4c([H])c([H])c([H])c([H])c4C([H])([H])C([H])([H])C1([H])[H])C3([H])[H])C([H])([H])C([H])([H])C([H])([H])C2([H])[H]

>  <smiles>  (64) 
[H]C(C(=O)N1C([H])([H])C([H])([H])C([H])([H])C([H])(n2nc(-c3c([H])c([H])c(Oc4c([H])c([H])c(F)c([H])c4F)c([H])c3[H])c(C(=O)N([H])[H])c2N([H])[H])C1([H])[H])=C([H])c1nc2c(n1C([H])([H])C([H])([H])C([H])([H])C([H])([H])Oc1c([H])c([H])c3c(c1[H])C([H])([H])N(C(=O)C([H])(N([H])C(=O)C([H])(N([H])C([H])([H])[H])C([H])([H])[H])C(C([H])([H])[H])(C([H])([H])[H])C([H])([H])[H])C([H])(C(=O)N([H])C1([H])c4c([H])c([H])c([H])c([H])c4C([H])([H])C([H])([H])C1([H])[H])C3([H])[H])C([H])([H])C([H])([H])C([H])([H])C2([H])[H]

$$$$
65:0:0
     RDKit          3D

 91 99  0  0  1  0  0  0  0  0999 V2000
  -30.3470  -21.7410   20.1010 C   0  0  0  0  0  3  0  0  0  0  0  0
  -29.4370  -22.8580   20.1360 C   0  0  0  0  0  0  0  0  0  0  0  0
  -29.5740  -20.5960   20.1610 C   0  0  0  0  0  0  0  0  0  0  0  0
  -27.0210  -20.3150   20.2460 C   0  0  0  0  0  1  0  0  0  0  0  0
  -28.1910  -22.4150   20.2130 N   0  0  0  0  0  0  0  0  0  0  0  0
  -28.2670  -21.0640   20.1990 N   0  0  0  0  0  0  0  0  0  0  0  0
  -30.2850  -18.6650   21.6570 C   0  0  0  0  0  1  0  0  0  0  0  0
  -29.8800  -19.0850   20.2320 C   0  0  0  0  0  3  0  0  0  0  0  0
  -30.9370  -18.5130   19.2370 C   0  0  0  0  0  2  0  0  0  0  0  0
  -30.7920  -17.0110   18.7960 C   0  0  0  0  0  2  0  0  0  0  0  0
  -31.5520  -14.8060   19.7220 C   0  0  0  0  0  0  0  0  0  0  0  0
  -31.2490  -12.4760   18.9810 C   0  0  0  0  0  2  0  0  0  0  0  0
  -30.2840  -12.5010   17.7750 C   0  0  0  0  0  2  0  0  0  0  0  0
  -28.8200  -12.4300   18.2490 C   0  0  0  0  0  2  0  0  0  0  0  0
  -28.5070  -13.4400   19.3840 C   0  0  0  0  0  3  0  0  0  0  0  0
  -29.5900  -13.4070   20.4890 C   0  0  0  0  0  2  0  0  0  0  0  0
  -30.8990  -13.6140   19.8510 N   0  0  0  0  0  0  0  0  0  0  0  0
  -32.6990  -14.8820   19.2730 O   0  0  0  0  0  0  0  0  0  0  0  0
  -30.7760  -15.9160   19.8080 N   0  0  0  0  0  0  0  0  0  0  0  0
  -29.8870  -15.7660   20.2640 H   0  0  0  0  0  0  0  0  0  0  0  0
  -26.1880  -14.1770   20.2200 C   0  0  0  0  0  0  0  0  0  0  0  0
  -25.0950  -13.4650   20.6350 C   0  0  0  0  0  0  0  0  0  0  0  0
  -25.4720  -12.0880   20.5690 C   0  0  0  0  0  0  0  0  0  0  0  0
  -27.1660  -13.2380   19.9290 N   0  0  0  0  0  0  0  0  0  0  0  0
  -26.7420  -11.9760   20.1980 N   0  0  0  0  0  0  0  0  0  0  0  0
  -24.6810  -10.8690   20.7810 C   0  0  0  0  0  0  0  0  0  0  0  0
  -25.0260   -9.9280   21.7760 C   0  0  0  0  0  3  0  0  0  0  0  0
  -24.2370   -8.7740   21.9740 C   0  0  0  0  0  3  0  0  0  0  0  0
  -23.0900   -8.5530   21.1760 C   0  0  0  0  0  0  0  0  0  0  0  0
  -22.7650   -9.4820   20.1710 C   0  0  0  0  0  3  0  0  0  0  0  0
  -23.5530  -10.6260   19.9720 C   0  0  0  0  0  3  0  0  0  0  0  0
  -22.2800   -7.4480   21.2790 O   0  0  0  0  0  0  0  0  0  0  0  0
  -22.0450   -6.8380   22.4850 C   0  0  0  0  0  0  0  0  0  0  0  0
  -21.4530   -7.5270   23.5660 C   0  0  0  0  0  3  0  0  0  0  0  0
  -21.1660   -6.8430   24.7650 C   0  0  0  0  0  3  0  0  0  0  0  0
  -21.4620   -5.4720   24.8820 C   0  0  0  0  0  0  0  0  0  0  0  0
  -22.0460   -4.7830   23.8050 C   0  0  0  0  0  3  0  0  0  0  0  0
  -22.3350   -5.4630   22.6090 C   0  0  0  0  0  0  0  0  0  0  0  0
  -22.8790   -4.7900   21.5670 F   0  0  0  0  0  0  0  0  0  0  0  0
  -21.1790   -4.8130   26.0300 F   0  0  0  0  0  0  0  0  0  0  0  0
  -23.7440  -14.0210   20.9790 C   0  0  0  0  0  0  0  0  0  0  0  0
  -23.0260  -13.3680   21.8850 N   0  0  0  0  0  0  0  0  0  0  0  0
  -23.3390  -15.0700   20.4790 O   0  0  0  0  0  0  0  0  0  0  0  0
  -23.3680  -12.5200   22.3110 H   0  0  0  0  0  0  0  0  0  0  0  0
  -22.1210  -13.7230   22.1590 H   0  0  0  0  0  0  0  0  0  0  0  0
  -26.4230  -15.5380   20.0430 N   0  0  0  0  0  0  0  0  0  0  0  0
  -25.6920  -16.2260   20.1820 H   0  0  0  0  0  0  0  0  0  0  0  0
  -27.2650  -15.9300   19.6430 H   0  0  0  0  0  0  0  0  0  0  0  0
  -29.6910  -24.3770   20.2550 C   0  0  0  0  0  3  0  0  0  0  0  0
  -28.6960  -25.3100   19.4830 C   0  0  0  0  0  3  0  0  0  0  0  0
  -28.7920  -26.7450   19.7560 O   0  0  0  0  0  0  0  0  0  0  0  0
  -24.6520  -31.5760   23.0570 C   0  0  0  0  0  0  0  0  0  0  0  0
  -27.6040  -27.4740   19.7330 C   0  0  0  0  0  0  0  0  0  0  0  0
  -23.5610  -30.2150   21.3090 C   0  0  0  0  0  3  0  0  0  0  0  0
  -25.1260  -28.8760   19.7990 C   0  0  0  0  0  0  0  0  0  0  0  0
  -26.0680  -30.7300   21.1810 C   0  0  0  0  0  2  0  0  0  0  0  0
  -26.2480  -29.4130   20.4450 C   0  0  0  0  0  0  0  0  0  0  0  0
  -27.4900  -28.7220   20.4060 C   0  0  0  0  0  3  0  0  0  0  0  0
  -26.4600  -26.9860   19.0590 C   0  0  0  0  0  3  0  0  0  0  0  0
  -25.2310  -27.6670   19.0990 C   0  0  0  0  0  3  0  0  0  0  0  0
  -23.8310  -29.6530   19.8880 C   0  0  0  0  0  2  0  0  0  0  0  0
  -24.7770  -30.8540   21.9070 N   0  0  0  0  0  0  0  0  0  0  0  0
  -23.5480  -31.7430   23.5960 O   0  0  0  0  0  0  0  0  0  0  0  0
  -22.9650  -29.0880   22.1880 C   0  0  0  0  0  0  0  0  0  0  0  0
  -21.6560  -28.8310   22.0280 N   0  0  0  0  0  0  0  0  0  0  0  0
  -23.6780  -28.4550   22.9700 O   0  0  0  0  0  0  0  0  0  0  0  0
  -21.1380  -29.3990   21.3730 H   0  0  0  0  0  0  0  0  0  0  0  0
  -18.3530  -27.4160   22.4250 C   0  0  0  0  0  0  0  0  0  0  0  0
  -20.8930  -27.7920   22.7220 C   0  0  0  0  0  3  0  0  0  0  0  0
  -21.0730  -26.4190   22.0360 C   0  0  0  0  0  2  0  0  0  0  0  0
  -19.9880  -26.1160   20.9980 C   0  0  0  0  0  2  0  0  0  0  0  0
  -18.6010  -26.1350   21.6470 C   0  0  0  0  0  2  0  0  0  0  0  0
  -19.4280  -28.2020   22.9160 C   0  0  0  0  0  0  0  0  0  0  0  0
  -19.1420  -29.4030   23.6030 C   0  0  0  0  0  3  0  0  0  0  0  0
  -17.8120  -29.8180   23.8030 C   0  0  0  0  0  3  0  0  0  0  0  0
  -16.7510  -29.0270   23.3300 C   0  0  0  0  0  3  0  0  0  0  0  0
  -17.0210  -27.8280   22.6460 C   0  0  0  0  0  3  0  0  0  0  0  0
  -25.8860  -32.2470   23.7380 C   0  0  0  0  0  3  0  0  0  0  0  0
  -25.5010  -33.6160   24.1000 N   0  0  0  0  0  0  0  0  0  0  0  0
  -25.8140  -34.7090   23.3890 C   0  0  0  0  0  0  0  0  0  0  0  0
  -26.5300  -34.6710   22.3850 O   0  0  0  0  0  0  0  0  0  0  0  0
  -24.8720  -33.7170   24.8830 H   0  0  0  0  0  0  0  0  0  0  0  0
  -24.0270  -36.4380   23.0150 C   0  0  0  0  0  1  0  0  0  0  0  0
  -25.2460  -36.0570   23.8710 C   0  0  0  0  0  3  0  0  0  0  0  0
  -27.2920  -37.0070   24.8400 C   0  0  0  0  0  1  0  0  0  0  0  0
  -26.2350  -37.1570   23.8440 N   0  0  0  0  0  0  0  0  0  0  0  0
  -25.7800  -38.0530   23.9990 H   0  0  0  0  0  0  0  0  0  0  0  0
  -26.4020  -31.4590   25.0040 C   0  0  1  0  0  0  0  0  0  0  0  0
  -25.2890  -31.1250   26.0240 C   0  0  0  0  0  1  0  0  0  0  0  0
  -27.0730  -30.1310   24.5860 C   0  0  0  0  0  1  0  0  0  0  0  0
  -27.4850  -32.2910   25.7330 C   0  0  0  0  0  1  0  0  0  0  0  0
  1  2  1  0
  1  3  2  0
  2  5  2  0
  2 49  1  0
  3  6  1  0
  3  8  1  0
  6  5  1  0
  6  4  1  0
  8  7  1  0
  9  8  1  0
 10  9  1  0
 10 19  1  0
 11 19  1  0
 11 17  1  0
 12 17  1  0
 13 14  1  0
 13 12  1  0
 15 14  1  0
 15 24  1  0
 15 16  1  0
 17 16  1  0
 18 11  2  0
 19 20  1  0
 21 22  2  0
 22 41  1  0
 23 22  1  0
 23 26  1  0
 24 25  1  0
 24 21  1  0
 25 23  2  0
 26 27  1  0
 27 28  2  0
 29 32  1  0
 29 28  1  0
 30 29  2  0
 31 30  1  0
 31 26  2  0
 32 33  1  0
 33 38  2  0
 33 34  1  0
 34 35  2  0
 35 36  1  0
 36 40  1  0
 37 36  2  0
 38 37  1  0
 39 38  1  0
 41 42  1  0
 42 45  1  0
 42 44  1  0
 43 41  2  0
 46 47  1  0
 46 21  1  0
 48 46  1  0
 50 51  1  0
 50 49  2  0
 52 63  2  0
 53 51  1  0
 53 58  1  0
 54 62  1  0
 54 64  1  0
 55 61  1  0
 55 57  1  0
 56 62  1  0
 57 56  1  0
 58 57  2  0
 59 60  1  0
 59 53  2  0
 60 55  2  0
 61 54  1  0
 62 52  1  0
 64 66  2  0
 65 64  1  0
 67 65  1  0
 68 77  2  0
 68 73  1  0
 69 65  1  0
 69 73  1  0
 70 69  1  0
 71 72  1  0
 71 70  1  0
 72 68  1  0
 73 74  2  0
 74 75  1  0
 76 75  2  0
 77 76  1  0
 78 52  1  0
 78 79  1  0
 78 88  1  0
 79 82  1  0
 80 84  1  0
 80 79  1  0
 81 80  2  0
 84 83  1  0
 86 84  1  0
 86 87  1  0
 86 85  1  0
 88 91  1  1
 88 89  1  0
 90 88  1  0
M  ISO  4  11 100  19 100  50 101  51 101
M  END
>  <TORSDO>  (65) 
F 21

>  <SCORE>  (65) 
-10.856

>  <name>  (65) 
65

>  <ligand_id>  (65) 
65

>  <original_smiles>  (65) 
[H]c1c([H])c([H])c2c(c1[H])C([H])([H])C([H])([H])C([H])([H])C2([H])N([H])C(=O)C1([H])N(C(=O)C([H])(N([H])C(=O)C([H])(N([H])C([H])([H])[H])C([H])([H])[H])C(C([H])([H])[H])(C([H])([H])[H])C([H])([H])[H])C([H])([H])c2c([H])c(OC([H])([H])C([H])([H])c3nn(C([H])([H])[H])c(C([H])(C([H])([H])[H])C([H])([H])C([H])([H])N([H])C(=O)N4C([H])([H])C([H])([H])C([H])([H])C([H])(n5nc(-c6c([H])c([H])c(Oc7c([H])c([H])c(F)c([H])c7F)c([H])c6[H])c(C(=O)N([H])[H])c5N([H])[H])C4([H])[H])c3[H])c([H])c([H])c2C1([H])[H]

>  <smiles>  (65) 
[H]c1c([H])c([H])c2c(c1[H])C([H])([H])C([H])([H])C([H])([H])C2([H])N([H])C(=O)C1([H])N(C(=O)C([H])(N([H])C(=O)C([H])(N([H])C([H])([H])[H])C([H])([H])[H])C(C([H])([H])[H])(C([H])([H])[H])C([H])([H])[H])C([H])([H])c2c([H])c(OC([H])([H])C([H])([H])c3nn(C([H])([H])[H])c(C([H])(C([H])([H])[H])C([H])([H])C([H])([H])N([H])C(=O)N4C([H])([H])C([H])([H])C([H])([H])C([H])(n5nc(-c6c([H])c([H])c(Oc7c([H])c([H])c(F)c([H])c7F)c([H])c6[H])c(C(=O)N([H])[H])c5N([H])[H])C4([H])[H])c3[H])c([H])c([H])c2C1([H])[H]

$$$$
66:0:0
     RDKit          3D

 93101  0  0  1  0  0  0  0  0999 V2000
  -30.9710  -21.0970   22.8420 C   0  0  0  0  0  3  0  0  0  0  0  0
  -30.2340  -21.6780   21.8040 C   0  0  0  0  0  0  0  0  0  0  0  0
  -30.3330  -21.1580   20.4760 C   0  0  0  0  0  0  0  0  0  0  0  0
  -30.7870  -19.6920   20.4530 C   0  0  0  0  0  0  0  0  0  0  0  0
  -31.6830  -19.3690   21.5170 C   0  0  0  0  0  0  0  0  0  0  0  0
  -31.7720  -20.0470   22.6690 N   0  0  0  0  0  0  0  0  0  0  0  0
  -28.6580  -22.6460   23.5720 C   0  0  0  0  0  1  0  0  0  0  0  0
  -29.3310  -22.8510   22.2070 C   0  0  0  0  0  2  0  0  0  0  0  0
  -34.0960  -18.8540   20.9370 C   0  0  0  0  0  1  0  0  0  0  0  0
  -32.7550  -18.2840   21.4250 C   0  0  0  0  0  2  0  0  0  0  0  0
  -29.9670  -22.3190   19.3500 C   0  0  0  0  0  2  0  0  0  0  0  0
  -30.0480  -24.0170   19.6440 C   0  0  0  0  0  3  0  0  0  0  0  0
  -28.9570  -25.2480   19.1970 C   0  0  0  0  0  3  0  0  0  0  0  0
  -28.9720  -26.7750   19.5710 O   0  0  0  0  0  0  0  0  0  0  0  0
  -24.5500  -31.5760   23.0270 C   0  0  0  0  0  0  0  0  0  0  0  0
  -27.7890  -27.6130   19.5680 C   0  0  0  0  0  0  0  0  0  0  0  0
  -23.5700  -30.2210   21.2150 C   0  0  0  0  0  3  0  0  0  0  0  0
  -25.2380  -29.0260   19.6610 C   0  0  0  0  0  0  0  0  0  0  0  0
  -26.0650  -30.8500   21.1420 C   0  0  0  0  0  2  0  0  0  0  0  0
  -26.3390  -29.5600   20.3450 C   0  0  0  0  0  0  0  0  0  0  0  0
  -27.6120  -28.8720   20.2790 C   0  0  0  0  0  3  0  0  0  0  0  0
  -26.6490  -27.1890   18.8510 C   0  0  0  0  0  3  0  0  0  0  0  0
  -25.4050  -27.8600   18.9000 C   0  0  0  0  0  3  0  0  0  0  0  0
  -23.8980  -29.7360   19.7760 C   0  0  0  0  0  2  0  0  0  0  0  0
  -24.7450  -30.9010   21.8530 N   0  0  0  0  0  0  0  0  0  0  0  0
  -23.4300  -31.6490   23.5560 O   0  0  0  0  0  0  0  0  0  0  0  0
  -23.0280  -29.0310   22.0470 C   0  0  0  0  0  0  0  0  0  0  0  0
  -21.7430  -28.6820   21.8550 N   0  0  0  0  0  0  0  0  0  0  0  0
  -23.7670  -28.4290   22.8300 O   0  0  0  0  0  0  0  0  0  0  0  0
  -21.1960  -29.2300   21.2070 H   0  0  0  0  0  0  0  0  0  0  0  0
  -18.5630  -26.9680   22.1300 C   0  0  0  0  0  0  0  0  0  0  0  0
  -21.0540  -27.5590   22.4980 C   0  0  0  0  0  3  0  0  0  0  0  0
  -21.3680  -26.2270   21.7750 C   0  0  0  0  0  2  0  0  0  0  0  0
  -20.3370  -25.8660   20.7010 C   0  0  0  0  0  2  0  0  0  0  0  0
  -18.9410  -25.7420   21.3160 C   0  0  0  0  0  2  0  0  0  0  0  0
  -19.5550  -27.8300   22.6710 C   0  0  0  0  0  0  0  0  0  0  0  0
  -19.1460  -28.9730   23.3920 C   0  0  0  0  0  3  0  0  0  0  0  0
  -17.7800  -29.2600   23.5760 C   0  0  0  0  0  3  0  0  0  0  0  0
  -16.8040  -28.3960   23.0490 C   0  0  0  0  0  3  0  0  0  0  0  0
  -17.1960  -27.2510   22.3320 C   0  0  0  0  0  3  0  0  0  0  0  0
  -25.7210  -32.3070   23.7510 C   0  0  0  0  0  3  0  0  0  0  0  0
  -25.2770  -33.6780   24.0530 N   0  0  0  0  0  0  0  0  0  0  0  0
  -25.5920  -34.7620   23.3310 C   0  0  0  0  0  0  0  0  0  0  0  0
  -26.3520  -34.7170   22.3600 O   0  0  0  0  0  0  0  0  0  0  0  0
  -24.6060  -33.7810   24.7990 H   0  0  0  0  0  0  0  0  0  0  0  0
  -23.7670  -36.4260   22.8470 C   0  0  0  0  0  1  0  0  0  0  0  0
  -24.9690  -36.1080   23.7500 C   0  0  0  0  0  3  0  0  0  0  0  0
  -26.9540  -37.1530   24.7510 C   0  0  0  0  0  1  0  0  0  0  0  0
  -25.9260  -37.2370   23.7170 N   0  0  0  0  0  0  0  0  0  0  0  0
  -25.4410  -38.1240   23.8240 H   0  0  0  0  0  0  0  0  0  0  0  0
  -26.1850  -31.5760   25.0720 C   0  0  1  0  0  0  0  0  0  0  0  0
  -25.0250  -31.2440   26.0410 C   0  0  0  0  0  1  0  0  0  0  0  0
  -26.9120  -30.2520   24.7420 C   0  0  0  0  0  1  0  0  0  0  0  0
  -27.2020  -32.4610   25.8310 C   0  0  0  0  0  1  0  0  0  0  0  0
  -30.4990  -18.3690   19.4940 C   0  0  0  0  0  2  0  0  0  0  0  0
  -31.1860  -15.6270   19.7340 C   0  0  0  0  0  0  0  0  0  0  0  0
  -31.0160  -13.2140   18.9450 C   0  0  0  0  0  2  0  0  0  0  0  0
  -30.0160  -13.1100   17.7690 C   0  0  0  0  0  2  0  0  0  0  0  0
  -28.5810  -12.9190   18.2930 C   0  0  0  0  0  2  0  0  0  0  0  0
  -28.2400  -13.8940   19.4510 C   0  0  0  0  0  3  0  0  0  0  0  0
  -29.3630  -13.9730   20.5110 C   0  0  0  0  0  2  0  0  0  0  0  0
  -30.5960  -14.3580   19.8120 N   0  0  0  0  0  0  0  0  0  0  0  0
  -32.3360  -15.6620   19.2870 O   0  0  0  0  0  0  0  0  0  0  0  0
  -30.4430  -16.8300   19.9730 N   0  0  0  0  0  0  0  0  0  0  0  0
  -29.5510  -16.6120   20.3890 H   0  0  0  0  0  0  0  0  0  0  0  0
  -25.9730  -14.5060   20.4660 C   0  0  0  0  0  0  0  0  0  0  0  0
  -24.9020  -13.7520   20.8600 C   0  0  0  0  0  0  0  0  0  0  0  0
  -25.2820  -12.3890   20.6590 C   0  0  0  0  0  0  0  0  0  0  0  0
  -26.9370  -13.6070   20.0430 N   0  0  0  0  0  0  0  0  0  0  0  0
  -26.5350  -12.3210   20.2220 N   0  0  0  0  0  0  0  0  0  0  0  0
  -24.5010  -11.1520   20.7960 C   0  0  0  0  0  0  0  0  0  0  0  0
  -24.8880  -10.1290   21.6910 C   0  0  0  0  0  3  0  0  0  0  0  0
  -24.1070   -8.9600   21.8230 C   0  0  0  0  0  3  0  0  0  0  0  0
  -22.9260   -8.8050   21.0580 C   0  0  0  0  0  0  0  0  0  0  0  0
  -22.5570   -9.8150   20.1530 C   0  0  0  0  0  3  0  0  0  0  0  0
  -23.3390  -10.9750   20.0190 C   0  0  0  0  0  3  0  0  0  0  0  0
  -22.1220   -7.6910   21.1000 O   0  0  0  0  0  0  0  0  0  0  0  0
  -21.9290   -6.9840   22.2590 C   0  0  0  0  0  0  0  0  0  0  0  0
  -21.3750   -7.5800   23.4120 C   0  0  0  0  0  3  0  0  0  0  0  0
  -21.1300   -6.8000   24.5600 C   0  0  0  0  0  3  0  0  0  0  0  0
  -21.4300   -5.4250   24.5540 C   0  0  0  0  0  0  0  0  0  0  0  0
  -21.9770   -4.8270   23.4050 C   0  0  0  0  0  3  0  0  0  0  0  0
  -22.2240   -5.6050   22.2600 C   0  0  0  0  0  0  0  0  0  0  0  0
  -22.7300   -5.0210   21.1470 F   0  0  0  0  0  0  0  0  0  0  0  0
  -21.1890   -4.6730   25.6530 F   0  0  0  0  0  0  0  0  0  0  0  0
  -23.5650  -14.2690   21.3060 C   0  0  0  0  0  0  0  0  0  0  0  0
  -22.8840  -13.5360   22.1780 N   0  0  0  0  0  0  0  0  0  0  0  0
  -23.1400  -15.3570   20.9170 O   0  0  0  0  0  0  0  0  0  0  0  0
  -23.2410  -12.6520   22.5120 H   0  0  0  0  0  0  0  0  0  0  0  0
  -21.9930  -13.8640   22.5190 H   0  0  0  0  0  0  0  0  0  0  0  0
  -26.1960  -15.8780   20.4040 N   0  0  0  0  0  0  0  0  0  0  0  0
  -25.4750  -16.5490   20.6490 H   0  0  0  0  0  0  0  0  0  0  0  0
  -27.0150  -16.3120   20.0010 H   0  0  0  0  0  0  0  0  0  0  0  0
  2  8  1  0
  2  1  2  0
  3  2  1  0
  4  3  2  0
  4  5  1  0
  5  6  2  0
  6  1  1  0
  8  7  1  0
  9 10  1  0
 10  5  1  0
 11 12  1  0
 11  3  1  0
 13 14  1  0
 13 12  2  0
 15 26  2  0
 16 14  1  0
 16 21  1  0
 17 25  1  0
 17 27  1  0
 18 24  1  0
 18 20  1  0
 19 25  1  0
 20 19  1  0
 21 20  2  0
 22 23  1  0
 22 16  2  0
 23 18  2  0
 24 17  1  0
 25 15  1  0
 27 29  2  0
 28 27  1  0
 30 28  1  0
 31 40  2  0
 31 36  1  0
 32 28  1  0
 32 36  1  0
 33 32  1  0
 34 35  1  0
 34 33  1  0
 35 31  1  0
 36 37  2  0
 37 38  1  0
 39 38  2  0
 40 39  1  0
 41 15  1  0
 41 42  1  0
 41 51  1  0
 42 45  1  0
 43 47  1  0
 43 42  1  0
 44 43  2  0
 47 46  1  0
 49 47  1  0
 49 50  1  0
 49 48  1  0
 51 54  1  1
 51 52  1  0
 53 51  1  0
 55 64  1  0
 55  4  1  0
 56 62  1  0
 56 64  1  0
 57 62  1  0
 58 59  1  0
 58 57  1  0
 60 59  1  0
 60 69  1  0
 60 61  1  0
 62 61  1  0
 63 56  2  0
 64 65  1  0
 66 67  2  0
 67 86  1  0
 68 71  1  0
 68 67  1  0
 69 70  1  0
 69 66  1  0
 70 68  2  0
 71 72  1  0
 72 73  2  0
 74 77  1  0
 74 73  1  0
 75 74  2  0
 76 75  1  0
 76 71  2  0
 77 78  1  0
 78 83  2  0
 78 79  1  0
 79 80  2  0
 81 80  1  0
 81 85  1  0
 82 81  2  0
 83 82  1  0
 84 83  1  0
 86 87  1  0
 87 89  1  0
 87 90  1  0
 88 86  2  0
 91 66  1  0
 91 92  1  0
 93 91  1  0
M  ISO  4  13 101  14 101  56 100  64 100
M  END
>  <TORSDO>  (66) 
F 22

>  <SCORE>  (66) 
-9.719

>  <name>  (66) 
66

>  <ligand_id>  (66) 
66

>  <original_smiles>  (66) 
[H]c1nc(C([H])([H])C([H])([H])[H])c(C([H])([H])N([H])C(=O)N2C([H])([H])C([H])([H])C([H])([H])C([H])(n3nc(-c4c([H])c([H])c(Oc5c([H])c([H])c(F)c([H])c5F)c([H])c4[H])c(C(=O)N([H])[H])c3N([H])[H])C2([H])[H])c(C([H])([H])C([H])([H])C([H])([H])Oc2c([H])c([H])c3c(c2[H])C([H])([H])N(C(=O)C([H])(N([H])C(=O)C([H])(N([H])C([H])([H])[H])C([H])([H])[H])C(C([H])([H])[H])(C([H])([H])[H])C([H])([H])[H])C([H])(C(=O)N([H])C2([H])c4c([H])c([H])c([H])c([H])c4C([H])([H])C([H])([H])C2([H])[H])C3([H])[H])c1C([H])([H])C([H])([H])[H]

>  <smiles>  (66) 
[H]c1nc(C([H])([H])C([H])([H])[H])c(C([H])([H])N([H])C(=O)N2C([H])([H])C([H])([H])C([H])([H])C([H])(n3nc(-c4c([H])c([H])c(Oc5c([H])c([H])c(F)c([H])c5F)c([H])c4[H])c(C(=O)N([H])[H])c3N([H])[H])C2([H])[H])c(C([H])([H])C([H])([H])C([H])([H])Oc2c([H])c([H])c3c(c2[H])C([H])([H])N(C(=O)C([H])(N([H])C(=O)C([H])(N([H])C([H])([H])[H])C([H])([H])[H])C(C([H])([H])[H])(C([H])([H])[H])C([H])([H])[H])C([H])(C(=O)N([H])C2([H])c4c([H])c([H])c([H])c([H])c4C([H])([H])C([H])([H])C2([H])[H])C3([H])[H])c1C([H])([H])C([H])([H])[H]

$$$$
67:0:0
     RDKit          3D

 88 96  0  0  1  0  0  0  0  0999 V2000
  -29.2350  -19.7960   19.6880 C   0  0  0  0  0  3  0  0  0  0  0  0
  -29.1500  -21.0160   20.4590 C   0  0  0  0  0  0  0  0  0  0  0  0
  -30.0320  -18.8910   20.3770 C   0  0  0  0  0  0  0  0  0  0  0  0
  -31.3480  -19.2560   22.5510 C   0  0  0  0  0  1  0  0  0  0  0  0
  -29.8480  -20.8540   21.5720 N   0  0  0  0  0  0  0  0  0  0  0  0
  -30.4150  -19.6130   21.5040 N   0  0  0  0  0  0  0  0  0  0  0  0
  -28.2710  -22.2940   20.2540 C   0  0  0  0  0  2  0  0  0  0  0  0
  -28.8740  -23.7670   20.4180 C   0  0  0  0  0  3  0  0  0  0  0  0
  -27.8440  -24.9620   20.2060 C   0  0  0  0  0  3  0  0  0  0  0  0
  -28.2580  -26.3980   20.2370 O   0  0  0  0  0  0  0  0  0  0  0  0
  -24.6270  -31.9070   23.2220 C   0  0  0  0  0  0  0  0  0  0  0  0
  -27.2090  -27.3330   20.1540 C   0  0  0  0  0  0  0  0  0  0  0  0
  -23.4320  -30.4940   21.6010 C   0  0  0  0  0  3  0  0  0  0  0  0
  -24.8740  -28.9780   20.1500 C   0  0  0  0  0  0  0  0  0  0  0  0
  -25.9660  -30.8280   21.3990 C   0  0  0  0  0  2  0  0  0  0  0  0
  -26.0460  -29.4460   20.7580 C   0  0  0  0  0  0  0  0  0  0  0  0
  -27.2230  -28.6300   20.7580 C   0  0  0  0  0  3  0  0  0  0  0  0
  -26.0260  -26.9620   19.4690 C   0  0  0  0  0  3  0  0  0  0  0  0
  -24.8720  -27.7510   19.4830 C   0  0  0  0  0  3  0  0  0  0  0  0
  -23.6400  -29.8500   20.2120 C   0  0  0  0  0  2  0  0  0  0  0  0
  -24.6970  -31.0920   22.1350 N   0  0  0  0  0  0  0  0  0  0  0  0
  -23.5420  -32.1810   23.7580 O   0  0  0  0  0  0  0  0  0  0  0  0
  -22.7820  -29.4660   22.5610 C   0  0  0  0  0  0  0  0  0  0  0  0
  -21.4550  -29.2830   22.4360 N   0  0  0  0  0  0  0  0  0  0  0  0
  -23.4620  -28.8430   23.3780 O   0  0  0  0  0  0  0  0  0  0  0  0
  -20.9660  -29.8340   21.7440 H   0  0  0  0  0  0  0  0  0  0  0  0
  -18.0760  -28.0700   22.9340 C   0  0  0  0  0  0  0  0  0  0  0  0
  -20.6360  -28.3470   23.2090 C   0  0  0  0  0  3  0  0  0  0  0  0
  -20.7470  -26.9140   22.6360 C   0  0  0  0  0  2  0  0  0  0  0  0
  -19.6470  -26.5800   21.6240 C   0  0  0  0  0  2  0  0  0  0  0  0
  -18.2630  -26.7190   22.2660 C   0  0  0  0  0  2  0  0  0  0  0  0
  -19.1890  -28.8400   23.3610 C   0  0  0  0  0  0  0  0  0  0  0  0
  -18.9630  -30.1040   23.9490 C   0  0  0  0  0  3  0  0  0  0  0  0
  -17.6550  -30.5980   24.1110 C   0  0  0  0  0  3  0  0  0  0  0  0
  -16.5560  -29.8260   23.7000 C   0  0  0  0  0  3  0  0  0  0  0  0
  -16.7660  -28.5620   23.1190 C   0  0  0  0  0  3  0  0  0  0  0  0
  -25.9070  -32.5520   23.8370 C   0  0  0  0  0  3  0  0  0  0  0  0
  -25.5890  -33.9500   24.1610 N   0  0  0  0  0  0  0  0  0  0  0  0
  -25.9080  -35.0000   23.3920 C   0  0  0  0  0  0  0  0  0  0  0  0
  -26.5710  -34.8950   22.3570 O   0  0  0  0  0  0  0  0  0  0  0  0
  -24.9990  -34.1080   24.9670 H   0  0  0  0  0  0  0  0  0  0  0  0
  -24.1670  -36.7800   23.0280 C   0  0  0  0  0  1  0  0  0  0  0  0
  -25.4120  -36.3900   23.8420 C   0  0  0  0  0  3  0  0  0  0  0  0
  -27.5400  -37.2880   24.6720 C   0  0  0  0  0  1  0  0  0  0  0  0
  -26.4390  -37.4460   23.7230 N   0  0  0  0  0  0  0  0  0  0  0  0
  -26.0310  -38.3670   23.8640 H   0  0  0  0  0  0  0  0  0  0  0  0
  -26.4300  -31.7860   25.1140 C   0  0  1  0  0  0  0  0  0  0  0  0
  -25.3400  -31.5430   26.1830 C   0  0  0  0  0  1  0  0  0  0  0  0
  -27.0160  -30.4120   24.7170 C   0  0  0  0  0  1  0  0  0  0  0  0
  -27.5800  -32.5860   25.7720 C   0  0  0  0  0  1  0  0  0  0  0  0
  -30.5610  -17.4720   19.9820 C   0  0  0  0  0  3  0  0  0  0  0  0
  -30.1460  -16.1340   20.7580 C   0  0  0  0  0  3  0  0  0  0  0  0
  -30.8060  -14.7680   20.2470 C   0  0  0  0  0  0  0  0  0  0  0  0
  -30.5140  -12.5260   19.1910 C   0  0  0  0  0  2  0  0  0  0  0  0
  -29.5790  -12.6860   17.9750 C   0  0  0  0  0  2  0  0  0  0  0  0
  -28.1060  -12.5430   18.4040 C   0  0  0  0  0  2  0  0  0  0  0  0
  -27.7600  -13.3940   19.6520 C   0  0  0  0  0  3  0  0  0  0  0  0
  -28.8290  -13.2620   20.7620 C   0  0  0  0  0  2  0  0  0  0  0  0
  -30.1390  -13.5660   20.1730 N   0  0  0  0  0  0  0  0  0  0  0  0
  -31.9540  -14.8430   19.7980 O   0  0  0  0  0  0  0  0  0  0  0  0
  -25.3690  -13.9870   20.3770 C   0  0  0  0  0  0  0  0  0  0  0  0
  -24.3060  -13.2170   20.7580 C   0  0  0  0  0  0  0  0  0  0  0  0
  -24.7700  -11.8640   20.7420 C   0  0  0  0  0  0  0  0  0  0  0  0
  -26.4140  -13.1070   20.1480 N   0  0  0  0  0  0  0  0  0  0  0  0
  -26.0600  -11.8250   20.4310 N   0  0  0  0  0  0  0  0  0  0  0  0
  -24.0400  -10.6050   20.9520 C   0  0  0  0  0  0  0  0  0  0  0  0
  -24.4660   -9.6470   21.8990 C   0  0  0  0  0  3  0  0  0  0  0  0
  -23.7320   -8.4570   22.0920 C   0  0  0  0  0  3  0  0  0  0  0  0
  -22.5590   -8.2130   21.3390 C   0  0  0  0  0  0  0  0  0  0  0  0
  -22.1540   -9.1590   20.3800 C   0  0  0  0  0  3  0  0  0  0  0  0
  -22.8880  -10.3410   20.1850 C   0  0  0  0  0  3  0  0  0  0  0  0
  -21.8000   -7.0720   21.4440 O   0  0  0  0  0  0  0  0  0  0  0  0
  -21.7380   -6.3500   22.6080 C   0  0  0  0  0  0  0  0  0  0  0  0
  -21.2960   -6.9270   23.8190 C   0  0  0  0  0  3  0  0  0  0  0  0
  -21.1820   -6.1330   24.9770 C   0  0  0  0  0  3  0  0  0  0  0  0
  -21.5020   -4.7620   24.9250 C   0  0  0  0  0  0  0  0  0  0  0  0
  -21.9400   -4.1860   23.7200 C   0  0  0  0  0  3  0  0  0  0  0  0
  -22.0540   -4.9780   22.5640 C   0  0  0  0  0  0  0  0  0  0  0  0
  -22.4550   -4.4120   21.4000 F   0  0  0  0  0  0  0  0  0  0  0  0
  -21.3840   -3.9960   26.0330 F   0  0  0  0  0  0  0  0  0  0  0  0
  -22.9080  -13.6970   21.0220 C   0  0  0  0  0  0  0  0  0  0  0  0
  -22.1830  -13.0210   21.9050 N   0  0  0  0  0  0  0  0  0  0  0  0
  -22.4720  -14.7150   20.4840 O   0  0  0  0  0  0  0  0  0  0  0  0
  -22.5420  -12.1930   22.3600 H   0  0  0  0  0  0  0  0  0  0  0  0
  -21.2500  -13.3390   22.1290 H   0  0  0  0  0  0  0  0  0  0  0  0
  -25.5320  -15.3560   20.1780 N   0  0  0  0  0  0  0  0  0  0  0  0
  -24.7650  -16.0120   20.2680 H   0  0  0  0  0  0  0  0  0  0  0  0
  -26.3830  -15.7930   19.8530 H   0  0  0  0  0  0  0  0  0  0  0  0
  1  3  2  0
  1  2  1  0
  2  5  2  0
  3  6  1  0
  6  5  1  0
  6  4  1  0
  7  8  1  0
  7  2  1  0
  9 10  1  0
  9  8  2  0
 11 22  2  0
 12 10  1  0
 12 17  1  0
 13 21  1  0
 13 23  1  0
 14 20  1  0
 14 16  1  0
 15 21  1  0
 16 17  2  0
 16 15  1  0
 18 19  1  0
 18 12  2  0
 19 14  2  0
 20 13  1  0
 21 11  1  0
 23 25  2  0
 24 23  1  0
 26 24  1  0
 27 36  2  0
 27 32  1  0
 28 24  1  0
 28 32  1  0
 29 28  1  0
 30 31  1  0
 30 29  1  0
 31 27  1  0
 32 33  2  0
 33 34  1  0
 35 34  2  0
 36 35  1  0
 37 11  1  0
 37 38  1  0
 37 47  1  0
 38 41  1  0
 39 43  1  0
 39 38  1  0
 40 39  2  0
 43 42  1  0
 45 43  1  0
 45 46  1  0
 45 44  1  0
 47 50  1  1
 47 48  1  0
 49 47  1  0
 51  3  1  0
 51 52  2  0
 53 52  1  0
 54 59  1  0
 55 56  1  0
 55 54  1  0
 57 56  1  0
 57 64  1  0
 57 58  1  0
 59 53  1  0
 59 58  1  0
 60 53  2  0
 61 62  2  0
 62 81  1  0
 63 62  1  0
 63 66  1  0
 64 61  1  0
 64 65  1  0
 65 63  2  0
 66 67  1  0
 67 68  2  0
 69 72  1  0
 69 68  1  0
 70 69  2  0
 71 70  1  0
 71 66  2  0
 72 73  1  0
 73 74  1  0
 74 75  2  0
 76 75  1  0
 76 80  1  0
 77 76  2  0
 78 73  2  0
 78 77  1  0
 79 78  1  0
 81 82  1  0
 82 85  1  0
 82 84  1  0
 83 81  2  0
 86 87  1  0
 86 61  1  0
 88 86  1  0
M  ISO  4   9 101  10 101  52 100  53 100
M  END
>  <TORSDO>  (67) 
F 21

>  <SCORE>  (67) 
-13.457

>  <name>  (67) 
67

>  <ligand_id>  (67) 
67

>  <original_smiles>  (67) 
[H]c1c([H])c([H])c2c(c1[H])C([H])([H])C([H])([H])C([H])([H])C2([H])N([H])C(=O)C1([H])N(C(=O)C([H])(N([H])C(=O)C([H])(N([H])C([H])([H])[H])C([H])([H])[H])C(C([H])([H])[H])(C([H])([H])[H])C([H])([H])[H])C([H])([H])c2c([H])c(OC([H])([H])C([H])([H])C([H])([H])c3nn(C([H])([H])[H])c(C([H])([H])C([H])([H])C(=O)N4C([H])([H])C([H])([H])C([H])([H])C([H])(n5nc(-c6c([H])c([H])c(Oc7c([H])c([H])c(F)c([H])c7F)c([H])c6[H])c(C(=O)N([H])[H])c5N([H])[H])C4([H])[H])c3[H])c([H])c([H])c2C1([H])[H]

>  <smiles>  (67) 
[H]c1c([H])c([H])c2c(c1[H])C([H])([H])C([H])([H])C([H])([H])C2([H])N([H])C(=O)C1([H])N(C(=O)C([H])(N([H])C(=O)C([H])(N([H])C([H])([H])[H])C([H])([H])[H])C(C([H])([H])[H])(C([H])([H])[H])C([H])([H])[H])C([H])([H])c2c([H])c(OC([H])([H])C([H])([H])C([H])([H])c3nn(C([H])([H])[H])c(C([H])([H])C([H])([H])C(=O)N4C([H])([H])C([H])([H])C([H])([H])C([H])(n5nc(-c6c([H])c([H])c(Oc7c([H])c([H])c(F)c([H])c7F)c([H])c6[H])c(C(=O)N([H])[H])c5N([H])[H])C4([H])[H])c3[H])c([H])c([H])c2C1([H])[H]

$$$$
68:0:0
     RDKit          3D

 93101  0  0  1  0  0  0  0  0999 V2000
  -25.8320  -21.9690   20.0910 C   0  0  0  0  0  3  0  0  0  0  0  0
  -25.3070  -23.1070   20.7570 C   0  0  0  0  0  3  0  0  0  0  0  0
  -27.1180  -22.3130   19.7810 C   0  0  0  0  0  0  0  0  0  0  0  0
  -26.1960  -24.0810   20.8470 N   0  0  0  0  0  0  0  0  0  0  0  0
  -27.3020  -23.6210   20.2180 N   0  0  0  0  0  0  0  0  0  0  0  0
  -28.1640  -21.4550   19.1320 C   0  0  0  0  0  2  0  0  0  0  0  0
  -28.9640  -20.6160   20.1550 C   0  0  0  0  0  2  0  0  0  0  0  0
  -29.4340  -19.2510   19.5870 C   0  0  0  0  0  2  0  0  0  0  0  0
  -30.3880  -18.4610   20.4310 N   0  0  1  0  0  4  0  0  0  0  0  0
  -31.3060  -18.8290   20.2300 H   0  0  0  0  0  0  0  0  0  0  0  0
  -31.2290  -19.4950   22.5710 C   0  0  0  0  0  1  0  0  0  0  0  0
  -30.1780  -18.5920   21.9030 C   0  0  0  0  0  2  0  0  0  0  0  0
  -30.3970  -17.0340   19.9880 C   0  0  0  0  0  2  0  0  0  0  0  0
  -31.2680  -16.0810   20.8460 C   0  0  0  0  0  2  0  0  0  0  0  0
  -31.7240  -14.8590   20.0270 C   0  0  0  0  0  0  0  0  0  0  0  0
  -31.2710  -12.6680   18.9840 C   0  0  0  0  0  2  0  0  0  0  0  0
  -30.3180  -12.8320   17.7830 C   0  0  0  0  0  2  0  0  0  0  0  0
  -28.8460  -12.7880   18.2440 C   0  0  0  0  0  2  0  0  0  0  0  0
  -28.5730  -13.7290   19.4460 C   0  0  0  0  0  3  0  0  0  0  0  0
  -29.6350  -13.5360   20.5510 C   0  0  0  0  0  2  0  0  0  0  0  0
  -30.9680  -13.7300   19.9550 N   0  0  0  0  0  0  0  0  0  0  0  0
  -32.7810  -14.9800   19.3990 O   0  0  0  0  0  0  0  0  0  0  0  0
  -26.2630  -14.5210   20.2740 C   0  0  0  0  0  0  0  0  0  0  0  0
  -25.1470  -13.8290   20.6650 C   0  0  0  0  0  0  0  0  0  0  0  0
  -25.4880  -12.4460   20.5680 C   0  0  0  0  0  0  0  0  0  0  0  0
  -27.2180  -13.5610   19.9680 N   0  0  0  0  0  0  0  0  0  0  0  0
  -26.7560  -12.3070   20.2040 N   0  0  0  0  0  0  0  0  0  0  0  0
  -24.6620  -11.2430   20.7440 C   0  0  0  0  0  0  0  0  0  0  0  0
  -25.0180  -10.2340   21.6650 C   0  0  0  0  0  3  0  0  0  0  0  0
  -24.2000   -9.0950   21.8320 C   0  0  0  0  0  3  0  0  0  0  0  0
  -23.0110   -8.9590   21.0770 C   0  0  0  0  0  0  0  0  0  0  0  0
  -22.6720   -9.9560   20.1450 C   0  0  0  0  0  3  0  0  0  0  0  0
  -23.4910  -11.0860   19.9760 C   0  0  0  0  0  3  0  0  0  0  0  0
  -22.1690   -7.8760   21.1530 O   0  0  0  0  0  0  0  0  0  0  0  0
  -22.0110   -7.1680   22.3160 C   0  0  0  0  0  0  0  0  0  0  0  0
  -21.5960   -7.7880   23.5160 C   0  0  0  0  0  3  0  0  0  0  0  0
  -21.3760   -7.0110   24.6700 C   0  0  0  0  0  3  0  0  0  0  0  0
  -21.5620   -5.6160   24.6270 C   0  0  0  0  0  0  0  0  0  0  0  0
  -21.9670   -4.9960   23.4320 C   0  0  0  0  0  3  0  0  0  0  0  0
  -22.1880   -5.7700   22.2790 C   0  0  0  0  0  0  0  0  0  0  0  0
  -22.5590   -5.1640   21.1250 F   0  0  0  0  0  0  0  0  0  0  0  0
  -21.3420   -4.8680   25.7340 F   0  0  0  0  0  0  0  0  0  0  0  0
  -23.8060  -14.4130   21.0060 C   0  0  0  0  0  0  0  0  0  0  0  0
  -23.0680  -13.7690   21.9050 N   0  0  0  0  0  0  0  0  0  0  0  0
  -23.4240  -15.4720   20.5120 O   0  0  0  0  0  0  0  0  0  0  0  0
  -23.3920  -12.9120   22.3290 H   0  0  0  0  0  0  0  0  0  0  0  0
  -22.1720  -14.1430   22.1810 H   0  0  0  0  0  0  0  0  0  0  0  0
  -26.5340  -15.8780   20.1290 N   0  0  0  0  0  0  0  0  0  0  0  0
  -25.8090  -16.5750   20.2640 H   0  0  0  0  0  0  0  0  0  0  0  0
  -27.3450  -16.2370   19.6440 H   0  0  0  0  0  0  0  0  0  0  0  0
  -28.4800  -24.4790   20.1420 C   0  0  0  0  0  2  0  0  0  0  0  0
  -28.4560  -25.4890   18.9720 C   0  0  0  0  0  2  0  0  0  0  0  0
  -28.3570  -26.8410   19.4340 O   0  0  0  0  0  0  0  0  0  0  0  0
  -24.5270  -31.6310   23.0230 C   0  0  0  0  0  0  0  0  0  0  0  0
  -27.1320  -27.4660   19.5410 C   0  0  0  0  0  0  0  0  0  0  0  0
  -23.2780  -30.3020   21.3490 C   0  0  0  0  0  3  0  0  0  0  0  0
  -24.6980  -28.8900   19.7740 C   0  0  0  0  0  0  0  0  0  0  0  0
  -25.7830  -30.7350   21.0670 C   0  0  0  0  0  2  0  0  0  0  0  0
  -25.8680  -29.4070   20.3420 C   0  0  0  0  0  0  0  0  0  0  0  0
  -27.0840  -28.7000   20.2300 C   0  0  0  0  0  3  0  0  0  0  0  0
  -25.9390  -26.9600   18.9750 C   0  0  0  0  0  3  0  0  0  0  0  0
  -24.7270  -27.6630   19.0930 C   0  0  0  0  0  3  0  0  0  0  0  0
  -23.4400  -29.7120   19.9240 C   0  0  0  0  0  2  0  0  0  0  0  0
  -24.5490  -30.9020   21.8710 N   0  0  0  0  0  0  0  0  0  0  0  0
  -23.4650  -31.8410   23.6260 O   0  0  0  0  0  0  0  0  0  0  0  0
  -22.6970  -29.2060   22.2720 C   0  0  0  0  0  0  0  0  0  0  0  0
  -21.3760  -28.9820   22.1740 N   0  0  0  0  0  0  0  0  0  0  0  0
  -23.4280  -28.5640   23.0310 O   0  0  0  0  0  0  0  0  0  0  0  0
  -20.8480  -29.5560   21.5320 H   0  0  0  0  0  0  0  0  0  0  0  0
  -18.0720  -27.6140   22.6740 C   0  0  0  0  0  0  0  0  0  0  0  0
  -20.6190  -27.9760   22.9150 C   0  0  0  0  0  3  0  0  0  0  0  0
  -20.7750  -26.5760   22.2770 C   0  0  0  0  0  2  0  0  0  0  0  0
  -19.6700  -26.2510   21.2660 C   0  0  0  0  0  2  0  0  0  0  0  0
  -18.2960  -26.3030   21.9380 C   0  0  0  0  0  2  0  0  0  0  0  0
  -19.1640  -28.4060   23.1190 C   0  0  0  0  0  0  0  0  0  0  0  0
  -18.9010  -29.6330   23.7680 C   0  0  0  0  0  3  0  0  0  0  0  0
  -17.5780  -30.0690   23.9730 C   0  0  0  0  0  3  0  0  0  0  0  0
  -16.5010  -29.2730   23.5420 C   0  0  0  0  0  3  0  0  0  0  0  0
  -16.7490  -28.0470   22.9010 C   0  0  0  0  0  3  0  0  0  0  0  0
  -25.8270  -32.2520   23.6240 C   0  0  0  0  0  3  0  0  0  0  0  0
  -26.4090  -31.4240   24.8340 C   0  0  1  0  0  0  0  0  0  0  0  0
  -25.3680  -31.1190   25.9350 C   0  0  0  0  0  1  0  0  0  0  0  0
  -26.9900  -30.0780   24.3440 C   0  0  0  0  0  1  0  0  0  0  0  0
  -27.5810  -32.2000   25.4830 C   0  0  0  0  0  1  0  0  0  0  0  0
  -25.5090  -33.6250   24.0370 N   0  0  0  0  0  0  0  0  0  0  0  0
  -25.8150  -34.7210   23.3310 C   0  0  0  0  0  0  0  0  0  0  0  0
  -26.4690  -34.6820   22.2850 O   0  0  0  0  0  0  0  0  0  0  0  0
  -24.9270  -33.7270   24.8570 H   0  0  0  0  0  0  0  0  0  0  0  0
  -24.0670  -36.5110   23.0920 C   0  0  0  0  0  1  0  0  0  0  0  0
  -25.3180  -36.0760   23.8710 C   0  0  0  0  0  3  0  0  0  0  0  0
  -27.4530  -36.9280   24.7320 C   0  0  0  0  0  1  0  0  0  0  0  0
  -26.3390  -37.1440   23.8110 N   0  0  0  0  0  0  0  0  0  0  0  0
  -25.9270  -38.0490   24.0170 H   0  0  0  0  0  0  0  0  0  0  0  0
  1  2  1  0
  2  4  2  0
  3  1  2  0
  3  5  1  0
  5  4  1  0
  6  3  1  0
  6  7  1  0
  8  7  1  0
  8  9  1  0
  9 12  1  0
  9 10  1  1
 12 11  1  0
 13  9  1  0
 13 14  1  0
 15 14  1  0
 16 21  1  0
 17 18  1  0
 17 16  1  0
 19 18  1  0
 19 26  1  0
 19 20  1  0
 21 15  1  0
 21 20  1  0
 22 15  2  0
 23 24  2  0
 24 43  1  0
 25 24  1  0
 25 28  1  0
 26 27  1  0
 26 23  1  0
 27 25  2  0
 28 29  1  0
 29 30  2  0
 31 34  1  0
 31 30  1  0
 32 31  2  0
 33 32  1  0
 33 28  2  0
 34 35  1  0
 35 36  1  0
 36 37  2  0
 38 37  1  0
 38 42  1  0
 39 38  2  0
 40 35  2  0
 40 39  1  0
 41 40  1  0
 43 44  1  0
 44 47  1  0
 44 46  1  0
 45 43  2  0
 48 49  1  0
 48 23  1  0
 50 48  1  0
 51  5  1  0
 52 53  1  0
 52 51  1  0
 53 55  1  0
 54 65  2  0
 55 60  1  0
 56 64  1  0
 56 66  1  0
 57 63  1  0
 57 59  1  0
 58 64  1  0
 59 58  1  0
 60 59  2  0
 61 62  1  0
 61 55  2  0
 62 57  2  0
 63 56  1  0
 64 54  1  0
 66 68  2  0
 67 66  1  0
 69 67  1  0
 70 79  2  0
 70 75  1  0
 71 67  1  0
 71 75  1  0
 72 71  1  0
 73 74  1  0
 73 72  1  0
 74 70  1  0
 75 76  2  0
 76 77  1  0
 78 77  2  0
 79 78  1  0
 80 54  1  0
 80 85  1  0
 80 81  1  0
 81 84  1  1
 81 82  1  0
 83 81  1  0
 85 88  1  0
 86 90  1  0
 86 85  1  0
 87 86  2  0
 90 89  1  0
 92 90  1  0
 92 93  1  0
 92 91  1  0
M  ISO  4  14 100  15 100  52 101  53 101
M  END
>  <TORSDO>  (68) 
F 25

>  <SCORE>  (68) 
-9.605

>  <name>  (68) 
68

>  <ligand_id>  (68) 
68

>  <original_smiles>  (68) 
[H]c1nn(C([H])([H])C([H])([H])Oc2c([H])c([H])c3c(c2[H])C([H])([H])N(C(=O)C([H])(N([H])C(=O)C([H])(N([H])C([H])([H])[H])C([H])([H])[H])C(C([H])([H])[H])(C([H])([H])[H])C([H])([H])[H])C([H])(C(=O)N([H])C2([H])c4c([H])c([H])c([H])c([H])c4C([H])([H])C([H])([H])C2([H])[H])C3([H])[H])c(C([H])([H])C([H])([H])C([H])([H])[N+]([H])(C([H])([H])C([H])([H])[H])C([H])([H])C([H])([H])C(=O)N2C([H])([H])C([H])([H])C([H])([H])C([H])(n3nc(-c4c([H])c([H])c(Oc5c([H])c([H])c(F)c([H])c5F)c([H])c4[H])c(C(=O)N([H])[H])c3N([H])[H])C2([H])[H])c1[H]

>  <smiles>  (68) 
[H]c1nn(C([H])([H])C([H])([H])Oc2c([H])c([H])c3c(c2[H])C([H])([H])N(C(=O)C([H])(N([H])C(=O)C([H])(N([H])C([H])([H])[H])C([H])([H])[H])C(C([H])([H])[H])(C([H])([H])[H])C([H])([H])[H])C([H])(C(=O)N([H])C2([H])c4c([H])c([H])c([H])c([H])c4C([H])([H])C([H])([H])C2([H])[H])C3([H])[H])c(C([H])([H])C([H])([H])C([H])([H])[N+]([H])(C([H])([H])C([H])([H])[H])C([H])([H])C([H])([H])C(=O)N2C([H])([H])C([H])([H])C([H])([H])C([H])(n3nc(-c4c([H])c([H])c(Oc5c([H])c([H])c(F)c([H])c5F)c([H])c4[H])c(C(=O)N([H])[H])c3N([H])[H])C2([H])[H])c1[H]

$$$$
69:0:0
     RDKit          3D

 91 99  0  0  1  0  0  0  0  0999 V2000
  -30.1950  -22.1350   20.5380 C   0  0  0  0  0  3  0  0  0  0  0  0
  -29.7410  -20.8570   20.7900 C   0  0  0  0  0  0  0  0  0  0  0  0
  -28.0820  -22.3180   21.1670 C   0  0  0  0  0  3  0  0  0  0  0  0
  -26.7410  -22.8380   21.5760 C   0  0  0  0  0  1  0  0  0  0  0  0
  -29.1710  -23.0190   20.7980 N   0  0  0  0  0  0  0  0  0  0  0  0
  -28.4270  -21.0190   21.1500 N   0  0  0  0  0  0  0  0  0  0  0  0
  -27.7990  -20.2660   21.4090 H   0  0  0  0  0  0  0  0  0  0  0  0
  -30.4970  -19.5420   20.7870 C   0  0  0  0  0  2  0  0  0  0  0  0
  -29.6880  -18.2100   20.8570 C   0  0  0  0  0  2  0  0  0  0  0  0
  -30.6580  -16.9910   20.8900 C   0  0  0  0  0  2  0  0  0  0  0  0
  -30.7060  -14.5690   20.3290 C   0  0  0  0  0  0  0  0  0  0  0  0
  -30.3620  -12.4280   19.1580 C   0  0  0  0  0  2  0  0  0  0  0  0
  -29.4140  -12.6510   17.9630 C   0  0  0  0  0  2  0  0  0  0  0  0
  -27.9460  -12.5080   18.4090 C   0  0  0  0  0  2  0  0  0  0  0  0
  -27.6220  -13.3280   19.6870 C   0  0  0  0  0  3  0  0  0  0  0  0
  -28.6900  -13.1130   20.7820 C   0  0  0  0  0  2  0  0  0  0  0  0
  -30.0040  -13.4110   20.1950 N   0  0  0  0  0  0  0  0  0  0  0  0
  -31.8440  -14.7010   19.8720 O   0  0  0  0  0  0  0  0  0  0  0  0
  -30.0530  -15.6400   20.8330 N   0  0  0  0  0  0  0  0  0  0  0  0
  -29.1080  -15.5090   21.1650 H   0  0  0  0  0  0  0  0  0  0  0  0
  -25.2230  -13.9110   20.4060 C   0  0  0  0  0  0  0  0  0  0  0  0
  -24.1650  -13.1300   20.7850 C   0  0  0  0  0  0  0  0  0  0  0  0
  -24.6400  -11.7830   20.7640 C   0  0  0  0  0  0  0  0  0  0  0  0
  -26.2760  -13.0400   20.1770 N   0  0  0  0  0  0  0  0  0  0  0  0
  -25.9300  -11.7550   20.4510 N   0  0  0  0  0  0  0  0  0  0  0  0
  -23.9290  -10.5140   20.9650 C   0  0  0  0  0  0  0  0  0  0  0  0
  -24.3720   -9.5600   21.9080 C   0  0  0  0  0  3  0  0  0  0  0  0
  -23.6600   -8.3570   22.0980 C   0  0  0  0  0  3  0  0  0  0  0  0
  -22.4890   -8.0980   21.3440 C   0  0  0  0  0  0  0  0  0  0  0  0
  -22.0660   -9.0410   20.3920 C   0  0  0  0  0  3  0  0  0  0  0  0
  -22.7780  -10.2360   20.2000 C   0  0  0  0  0  3  0  0  0  0  0  0
  -21.7480   -6.9460   21.4430 O   0  0  0  0  0  0  0  0  0  0  0  0
  -21.7070   -6.2120   22.6020 C   0  0  0  0  0  0  0  0  0  0  0  0
  -21.2680   -6.7710   23.8220 C   0  0  0  0  0  3  0  0  0  0  0  0
  -21.1760   -5.9640   24.9730 C   0  0  0  0  0  3  0  0  0  0  0  0
  -21.5140   -4.5980   24.9060 C   0  0  0  0  0  0  0  0  0  0  0  0
  -21.9460   -4.0390   23.6910 C   0  0  0  0  0  3  0  0  0  0  0  0
  -22.0390   -4.8440   22.5410 C   0  0  0  0  0  0  0  0  0  0  0  0
  -22.4370   -4.2950   21.3680 F   0  0  0  0  0  0  0  0  0  0  0  0
  -21.4180   -3.8210   26.0090 F   0  0  0  0  0  0  0  0  0  0  0  0
  -22.7640  -13.5940   21.0600 C   0  0  0  0  0  0  0  0  0  0  0  0
  -22.0460  -12.8950   21.9310 N   0  0  0  0  0  0  0  0  0  0  0  0
  -22.3140  -14.6130   20.5360 O   0  0  0  0  0  0  0  0  0  0  0  0
  -22.4200  -12.0710   22.3760 H   0  0  0  0  0  0  0  0  0  0  0  0
  -21.1060  -13.1900   22.1580 H   0  0  0  0  0  0  0  0  0  0  0  0
  -25.3740  -15.2820   20.2160 N   0  0  0  0  0  0  0  0  0  0  0  0
  -24.6020  -15.9310   20.3220 H   0  0  0  0  0  0  0  0  0  0  0  0
  -26.2160  -15.7210   19.8680 H   0  0  0  0  0  0  0  0  0  0  0  0
  -29.2800  -24.5090   20.8060 C   0  0  0  0  0  2  0  0  0  0  0  0
  -28.3140  -25.2830   19.8730 C   0  0  0  0  0  2  0  0  0  0  0  0
  -28.4230  -26.7190   20.0410 O   0  0  0  0  0  0  0  0  0  0  0  0
  -24.5420  -31.8160   23.1800 C   0  0  0  0  0  0  0  0  0  0  0  0
  -27.2540  -27.4630   20.0050 C   0  0  0  0  0  0  0  0  0  0  0  0
  -23.3630  -30.4340   21.5040 C   0  0  0  0  0  3  0  0  0  0  0  0
  -24.8430  -28.9600   20.0410 C   0  0  0  0  0  0  0  0  0  0  0  0
  -25.8870  -30.8300   21.3250 C   0  0  0  0  0  2  0  0  0  0  0  0
  -25.9940  -29.4770   20.6480 C   0  0  0  0  0  0  0  0  0  0  0  0
  -27.2030  -28.7370   20.6260 C   0  0  0  0  0  3  0  0  0  0  0  0
  -26.0860  -26.9830   19.3670 C   0  0  0  0  0  3  0  0  0  0  0  0
  -24.8860  -27.7140   19.3960 C   0  0  0  0  0  3  0  0  0  0  0  0
  -23.5870  -29.7970   20.1070 C   0  0  0  0  0  2  0  0  0  0  0  0
  -24.6150  -31.0410   22.0610 N   0  0  0  0  0  0  0  0  0  0  0  0
  -23.4560  -32.0580   23.7220 O   0  0  0  0  0  0  0  0  0  0  0  0
  -22.7270  -29.3780   22.4360 C   0  0  0  0  0  0  0  0  0  0  0  0
  -21.4030  -29.1840   22.3070 N   0  0  0  0  0  0  0  0  0  0  0  0
  -23.4200  -28.7380   23.2310 O   0  0  0  0  0  0  0  0  0  0  0  0
  -20.9050  -29.7530   21.6380 H   0  0  0  0  0  0  0  0  0  0  0  0
  -18.0400  -27.9560   22.7980 C   0  0  0  0  0  0  0  0  0  0  0  0
  -20.5990  -28.2160   23.0530 C   0  0  0  0  0  3  0  0  0  0  0  0
  -20.7030  -26.8060   22.4270 C   0  0  0  0  0  2  0  0  0  0  0  0
  -19.5920  -26.5140   21.4130 C   0  0  0  0  0  2  0  0  0  0  0  0
  -18.2160  -26.6310   22.0760 C   0  0  0  0  0  2  0  0  0  0  0  0
  -19.1600  -28.7080   23.2430 C   0  0  0  0  0  0  0  0  0  0  0  0
  -18.9430  -29.9500   23.8780 C   0  0  0  0  0  3  0  0  0  0  0  0
  -17.6380  -30.4400   24.0730 C   0  0  0  0  0  3  0  0  0  0  0  0
  -16.5340  -29.6850   23.6460 C   0  0  0  0  0  3  0  0  0  0  0  0
  -16.7350  -28.4450   23.0140 C   0  0  0  0  0  3  0  0  0  0  0  0
  -25.8160  -32.4530   23.8170 C   0  0  0  0  0  3  0  0  0  0  0  0
  -25.4930  -33.8470   24.1510 N   0  0  0  0  0  0  0  0  0  0  0  0
  -25.8260  -34.9050   23.4000 C   0  0  0  0  0  0  0  0  0  0  0  0
  -26.5090  -34.8110   22.3760 O   0  0  0  0  0  0  0  0  0  0  0  0
  -24.8910  -33.9930   24.9480 H   0  0  0  0  0  0  0  0  0  0  0  0
  -24.0900  -36.6850   23.0310 C   0  0  0  0  0  1  0  0  0  0  0  0
  -25.3230  -36.2860   23.8580 C   0  0  0  0  0  3  0  0  0  0  0  0
  -27.4350  -37.1830   24.7300 C   0  0  0  0  0  1  0  0  0  0  0  0
  -26.3500  -37.3470   23.7670 N   0  0  0  0  0  0  0  0  0  0  0  0
  -25.9340  -38.2640   23.9100 H   0  0  0  0  0  0  0  0  0  0  0  0
  -26.3280  -31.6770   25.0940 C   0  0  1  0  0  0  0  0  0  0  0  0
  -25.2260  -31.4230   26.1490 C   0  0  0  0  0  1  0  0  0  0  0  0
  -26.9260  -30.3080   24.6970 C   0  0  0  0  0  1  0  0  0  0  0  0
  -27.4630  -32.4790   25.7720 C   0  0  0  0  0  1  0  0  0  0  0  0
  1  2  2  0
  1  5  1  0
  2  6  1  0
  3  4  1  0
  5 49  1  0
  5  3  1  0
  6  3  1  0
  6  7  1  0
  8  2  1  0
  8  9  1  0
  9 10  1  0
 11 19  1  0
 12 17  1  0
 13 14  1  0
 13 12  1  0
 15 14  1  0
 15 24  1  0
 15 16  1  0
 17 11  1  0
 17 16  1  0
 18 11  2  0
 19 10  1  0
 19 20  1  0
 21 22  2  0
 22 41  1  0
 23 22  1  0
 23 26  1  0
 24 21  1  0
 24 25  1  0
 25 23  2  0
 26 27  1  0
 27 28  2  0
 29 32  1  0
 29 28  1  0
 30 29  2  0
 31 30  1  0
 31 26  2  0
 32 33  1  0
 33 34  1  0
 34 35  2  0
 36 35  1  0
 36 40  1  0
 37 36  2  0
 38 33  2  0
 38 37  1  0
 39 38  1  0
 41 42  1  0
 42 45  1  0
 42 44  1  0
 43 41  2  0
 46 47  1  0
 46 21  1  0
 48 46  1  0
 50 51  1  0
 50 49  1  0
 52 63  2  0
 53 51  1  0
 53 58  1  0
 54 62  1  0
 54 64  1  0
 55 61  1  0
 55 57  1  0
 56 62  1  0
 57 56  1  0
 58 57  2  0
 59 60  1  0
 59 53  2  0
 60 55  2  0
 61 54  1  0
 62 52  1  0
 64 66  2  0
 65 64  1  0
 67 65  1  0
 68 77  2  0
 68 73  1  0
 69 65  1  0
 69 73  1  0
 70 69  1  0
 71 72  1  0
 71 70  1  0
 72 68  1  0
 73 74  2  0
 74 75  1  0
 76 75  2  0
 77 76  1  0
 78 52  1  0
 78 79  1  0
 78 88  1  0
 79 82  1  0
 80 84  1  0
 80 79  1  0
 81 80  2  0
 84 83  1  0
 86 84  1  0
 86 87  1  0
 86 85  1  0
 88 91  1  1
 88 89  1  0
 90 88  1  0
M  ISO  4  11 100  19 100  50 101  51 101
M  END
>  <TORSDO>  (69) 
F 21

>  <SCORE>  (69) 
-13.543

>  <name>  (69) 
69

>  <ligand_id>  (69) 
69

>  <original_smiles>  (69) 
[H]c1c([H])c([H])c2c(c1[H])C([H])([H])C([H])([H])C([H])([H])C2([H])N([H])C(=O)C1([H])N(C(=O)C([H])(N([H])C(=O)C([H])(N([H])C([H])([H])[H])C([H])([H])[H])C(C([H])([H])[H])(C([H])([H])[H])C([H])([H])[H])C([H])([H])c2c([H])c(OC([H])([H])C([H])([H])n3c([H])c(C([H])([H])C([H])([H])C([H])([H])N([H])C(=O)N4C([H])([H])C([H])([H])C([H])([H])C([H])(n5nc(-c6c([H])c([H])c(Oc7c([H])c([H])c(F)c([H])c7F)c([H])c6[H])c(C(=O)N([H])[H])c5N([H])[H])C4([H])[H])[n+]([H])c3C([H])([H])[H])c([H])c([H])c2C1([H])[H]

>  <smiles>  (69) 
[H]c1c([H])c([H])c2c(c1[H])C([H])([H])C([H])([H])C([H])([H])C2([H])N([H])C(=O)C1([H])N(C(=O)C([H])(N([H])C(=O)C([H])(N([H])C([H])([H])[H])C([H])([H])[H])C(C([H])([H])[H])(C([H])([H])[H])C([H])([H])[H])C([H])([H])c2c([H])c(OC([H])([H])C([H])([H])n3c([H])c(C([H])([H])C([H])([H])C([H])([H])N([H])C(=O)N4C([H])([H])C([H])([H])C([H])([H])C([H])(n5nc(-c6c([H])c([H])c(Oc7c([H])c([H])c(F)c([H])c7F)c([H])c6[H])c(C(=O)N([H])[H])c5N([H])[H])C4([H])[H])[n+]([H])c3C([H])([H])[H])c([H])c([H])c2C1([H])[H]

$$$$
70:0:0
     RDKit          3D

 92 99  0  0  1  0  0  0  0  0999 V2000
  -30.2060  -23.6260   19.8580 C   0  0  0  0  0  1  0  0  0  0  0  0
  -28.7580  -23.2700   20.2590 C   0  0  0  0  0  3  0  0  0  0  0  0
  -28.0280  -24.3880   21.0950 C   0  0  0  0  0  2  0  0  0  0  0  0
  -28.3520  -26.4580   22.5950 C   0  0  0  0  0  1  0  0  0  0  0  0
  -28.6640  -25.8120   21.2300 C   0  0  0  0  0  3  0  0  0  0  0  0
  -28.4040  -26.6970   20.1210 O   0  0  0  0  0  0  0  0  0  0  0  0
  -24.6130  -31.8810   23.2240 C   0  0  0  0  0  0  0  0  0  0  0  0
  -27.2400  -27.4380   20.1470 C   0  0  0  0  0  0  0  0  0  0  0  0
  -23.3980  -30.4730   21.5910 C   0  0  0  0  0  3  0  0  0  0  0  0
  -24.8440  -28.9310   20.1620 C   0  0  0  0  0  0  0  0  0  0  0  0
  -25.9170  -30.8400   21.3720 C   0  0  0  0  0  2  0  0  0  0  0  0
  -26.0020  -29.4680   20.7350 C   0  0  0  0  0  0  0  0  0  0  0  0
  -27.2080  -28.7340   20.7140 C   0  0  0  0  0  3  0  0  0  0  0  0
  -26.0690  -26.9130   19.5710 C   0  0  0  0  0  3  0  0  0  0  0  0
  -24.8680  -27.6530   19.5790 C   0  0  0  0  0  3  0  0  0  0  0  0
  -23.6010  -29.7890   20.2120 C   0  0  0  0  0  2  0  0  0  0  0  0
  -24.6610  -31.0790   22.1220 N   0  0  0  0  0  0  0  0  0  0  0  0
  -23.5350  -32.1550   23.7720 O   0  0  0  0  0  0  0  0  0  0  0  0
  -22.7550  -29.4560   22.5600 C   0  0  0  0  0  0  0  0  0  0  0  0
  -21.4270  -29.2820   22.4470 N   0  0  0  0  0  0  0  0  0  0  0  0
  -23.4410  -28.8250   23.3660 O   0  0  0  0  0  0  0  0  0  0  0  0
  -20.9320  -29.8490   21.7730 H   0  0  0  0  0  0  0  0  0  0  0  0
  -18.0540  -28.1050   22.9640 C   0  0  0  0  0  0  0  0  0  0  0  0
  -20.6140  -28.3480   23.2220 C   0  0  0  0  0  3  0  0  0  0  0  0
  -20.7040  -26.9150   22.6480 C   0  0  0  0  0  2  0  0  0  0  0  0
  -19.5960  -26.5990   21.6390 C   0  0  0  0  0  2  0  0  0  0  0  0
  -18.2190  -26.7540   22.2910 C   0  0  0  0  0  2  0  0  0  0  0  0
  -19.1790  -28.8600   23.3870 C   0  0  0  0  0  0  0  0  0  0  0  0
  -18.9660  -30.1260   23.9770 C   0  0  0  0  0  3  0  0  0  0  0  0
  -17.6640  -30.6330   24.1470 C   0  0  0  0  0  3  0  0  0  0  0  0
  -16.5540  -29.8730   23.7430 C   0  0  0  0  0  3  0  0  0  0  0  0
  -16.7500  -28.6110   23.1540 C   0  0  0  0  0  3  0  0  0  0  0  0
  -25.9030  -32.5120   23.8370 C   0  0  0  0  0  3  0  0  0  0  0  0
  -26.4420  -31.7280   25.0990 C   0  0  1  0  0  0  0  0  0  0  0  0
  -25.3650  -31.4820   26.1800 C   0  0  0  0  0  1  0  0  0  0  0  0
  -27.0160  -30.3570   24.6760 C   0  0  0  0  0  1  0  0  0  0  0  0
  -27.6020  -32.5160   25.7520 C   0  0  0  0  0  1  0  0  0  0  0  0
  -25.5960  -33.9060   24.1850 N   0  0  0  0  0  0  0  0  0  0  0  0
  -25.9230  -34.9640   23.4320 C   0  0  0  0  0  0  0  0  0  0  0  0
  -26.5860  -34.8700   22.3950 O   0  0  0  0  0  0  0  0  0  0  0  0
  -25.0040  -34.0540   24.9900 H   0  0  0  0  0  0  0  0  0  0  0  0
  -24.1880  -36.7510   23.1030 C   0  0  0  0  0  1  0  0  0  0  0  0
  -25.4380  -36.3470   23.9030 C   0  0  0  0  0  3  0  0  0  0  0  0
  -27.5820  -37.2250   24.7190 C   0  0  0  0  0  1  0  0  0  0  0  0
  -26.4690  -37.4030   23.7880 N   0  0  0  0  0  0  0  0  0  0  0  0
  -26.0630  -38.3200   23.9530 H   0  0  0  0  0  0  0  0  0  0  0  0
  -28.6690  -21.8510   20.9330 C   0  0  0  0  0  3  0  0  0  0  0  0
  -29.3500  -21.9050   22.1750 O   0  0  0  0  0  0  0  0  0  0  0  0
  -28.8990  -22.5370   22.7280 H   0  0  0  0  0  0  0  0  0  0  0  0
  -29.2640  -20.6580   20.1140 C   0  0  0  0  0  2  0  0  0  0  0  0
  -29.0760  -19.2270   20.7230 C   0  0  0  0  0  2  0  0  0  0  0  0
  -29.9020  -18.1890   20.0260 N   0  0  0  0  0  4  0  0  0  0  0  0
  -29.9470  -18.4710   19.0600 H   0  0  0  0  0  0  0  0  0  0  0  0
  -30.8480  -18.2160   20.3690 H   0  0  0  0  0  0  0  0  0  0  0  0
  -29.3970  -16.7810   19.9900 C   0  0  0  0  0  2  0  0  0  0  0  0
  -29.9880  -15.7850   21.0470 C   0  0  0  0  0  2  0  0  0  0  0  0
  -30.6480  -14.5150   20.4230 C   0  0  0  0  0  0  0  0  0  0  0  0
  -30.3590  -12.3260   19.3080 C   0  0  0  0  0  2  0  0  0  0  0  0
  -29.4160  -12.5210   18.1030 C   0  0  0  0  0  2  0  0  0  0  0  0
  -27.9410  -12.3900   18.5360 C   0  0  0  0  0  2  0  0  0  0  0  0
  -27.6110  -13.2300   19.8000 C   0  0  0  0  0  3  0  0  0  0  0  0
  -28.6730  -13.0140   20.9000 C   0  0  0  0  0  2  0  0  0  0  0  0
  -29.9900  -13.3230   20.3270 N   0  0  0  0  0  0  0  0  0  0  0  0
  -31.7650  -14.6680   19.9190 O   0  0  0  0  0  0  0  0  0  0  0  0
  -25.2220  -13.8430   20.5290 C   0  0  0  0  0  0  0  0  0  0  0  0
  -24.1540  -13.0760   20.9080 C   0  0  0  0  0  0  0  0  0  0  0  0
  -24.6100  -11.7230   20.8760 C   0  0  0  0  0  0  0  0  0  0  0  0
  -26.2600  -12.9600   20.2880 N   0  0  0  0  0  0  0  0  0  0  0  0
  -25.8960  -11.6800   20.5550 N   0  0  0  0  0  0  0  0  0  0  0  0
  -23.8790  -10.4640   21.0750 C   0  0  0  0  0  0  0  0  0  0  0  0
  -24.3350   -9.4820   21.9840 C   0  0  0  0  0  3  0  0  0  0  0  0
  -23.6040   -8.2890   22.1730 C   0  0  0  0  0  3  0  0  0  0  0  0
  -22.4060   -8.0680   21.4530 C   0  0  0  0  0  0  0  0  0  0  0  0
  -21.9680   -9.0400   20.5380 C   0  0  0  0  0  3  0  0  0  0  0  0
  -22.6980  -10.2250   20.3470 C   0  0  0  0  0  3  0  0  0  0  0  0
  -21.6460   -6.9280   21.5540 O   0  0  0  0  0  0  0  0  0  0  0  0
  -21.6520   -6.1550   22.6870 C   0  0  0  0  0  0  0  0  0  0  0  0
  -21.3210   -6.6860   23.9510 C   0  0  0  0  0  3  0  0  0  0  0  0
  -21.2740   -5.8430   25.0790 C   0  0  0  0  0  3  0  0  0  0  0  0
  -21.5450   -4.4690   24.9430 C   0  0  0  0  0  0  0  0  0  0  0  0
  -21.8680   -3.9360   23.6820 C   0  0  0  0  0  3  0  0  0  0  0  0
  -21.9190   -4.7770   22.5570 C   0  0  0  0  0  0  0  0  0  0  0  0
  -22.2110   -4.2560   21.3410 F   0  0  0  0  0  0  0  0  0  0  0  0
  -21.4900   -3.6560   26.0240 F   0  0  0  0  0  0  0  0  0  0  0  0
  -22.7610  -13.5600   21.1930 C   0  0  0  0  0  0  0  0  0  0  0  0
  -22.0420  -12.8700   22.0710 N   0  0  0  0  0  0  0  0  0  0  0  0
  -22.3210  -14.5860   20.6730 O   0  0  0  0  0  0  0  0  0  0  0  0
  -22.4120  -12.0380   22.5080 H   0  0  0  0  0  0  0  0  0  0  0  0
  -21.1090  -13.1740   22.3080 H   0  0  0  0  0  0  0  0  0  0  0  0
  -25.3880  -15.2130   20.3460 N   0  0  0  0  0  0  0  0  0  0  0  0
  -24.6210  -15.8630   20.4720 H   0  0  0  0  0  0  0  0  0  0  0  0
  -26.2220  -15.6490   19.9780 H   0  0  0  0  0  0  0  0  0  0  0  0
  2  1  1  0
  2 47  1  0
  2  3  1  0
  3  5  1  0
  5  4  1  0
  6  8  1  0
  6  5  1  0
  7 18  2  0
  8 13  1  0
  9 17  1  0
  9 19  1  0
 10 16  1  0
 10 12  1  0
 11 17  1  0
 12 11  1  0
 13 12  2  0
 14 15  1  0
 14  8  2  0
 15 10  2  0
 16  9  1  0
 17  7  1  0
 19 21  2  0
 20 19  1  0
 22 20  1  0
 23 32  2  0
 23 28  1  0
 24 20  1  0
 24 28  1  0
 25 24  1  0
 26 27  1  0
 26 25  1  0
 27 23  1  0
 28 29  2  0
 29 30  1  0
 31 30  2  0
 32 31  1  0
 33  7  1  0
 33 38  1  0
 33 34  1  0
 34 37  1  1
 34 35  1  0
 36 34  1  0
 38 41  1  0
 39 43  1  0
 39 38  1  0
 40 39  2  0
 43 42  1  0
 45 43  1  0
 45 46  1  0
 45 44  1  0
 47 50  1  0
 47 48  1  0
 48 49  1  0
 50 51  1  0
 52 54  1  0
 52 51  1  0
 53 52  1  0
 55 52  1  0
 55 56  1  0
 57 56  1  0
 58 63  1  0
 59 60  1  0
 59 58  1  0
 61 60  1  0
 61 68  1  0
 61 62  1  0
 63 57  1  0
 63 62  1  0
 64 57  2  0
 65 66  2  0
 66 85  1  0
 67 66  1  0
 67 70  1  0
 68 65  1  0
 68 69  1  0
 69 67  2  0
 70 71  1  0
 71 72  2  0
 73 76  1  0
 73 72  1  0
 74 73  2  0
 75 74  1  0
 75 70  2  0
 76 77  1  0
 77 78  1  0
 78 79  2  0
 80 79  1  0
 80 84  1  0
 81 80  2  0
 82 77  2  0
 82 81  1  0
 83 82  1  0
 85 86  1  0
 86 89  1  0
 86 88  1  0
 87 85  2  0
 90 91  1  0
 90 65  1  0
 92 90  1  0
M  ISO  4   5 101   6 101  56 100  57 100
M  END
>  <TORSDO>  (70) 
F 25

>  <SCORE>  (70) 
-12.309

>  <name>  (70) 
70

>  <ligand_id>  (70) 
70

>  <original_smiles>  (70) 
[H]OC([H])(C([H])([H])C([H])([H])[N+]([H])([H])C([H])([H])C([H])([H])C(=O)N1C([H])([H])C([H])([H])C([H])([H])C([H])(n2nc(-c3c([H])c([H])c(Oc4c([H])c([H])c(F)c([H])c4F)c([H])c3[H])c(C(=O)N([H])[H])c2N([H])[H])C1([H])[H])C([H])(C([H])([H])[H])C([H])([H])C([H])(Oc1c([H])c([H])c2c(c1[H])C([H])([H])N(C(=O)C([H])(N([H])C(=O)C([H])(N([H])C([H])([H])[H])C([H])([H])[H])C(C([H])([H])[H])(C([H])([H])[H])C([H])([H])[H])C([H])(C(=O)N([H])C1([H])c3c([H])c([H])c([H])c([H])c3C([H])([H])C([H])([H])C1([H])[H])C2([H])[H])C([H])([H])[H]

>  <smiles>  (70) 
[H]OC([H])(C([H])([H])C([H])([H])[N+]([H])([H])C([H])([H])C([H])([H])C(=O)N1C([H])([H])C([H])([H])C([H])([H])C([H])(n2nc(-c3c([H])c([H])c(Oc4c([H])c([H])c(F)c([H])c4F)c([H])c3[H])c(C(=O)N([H])[H])c2N([H])[H])C1([H])[H])C([H])(C([H])([H])[H])C([H])([H])C([H])(Oc1c([H])c([H])c2c(c1[H])C([H])([H])N(C(=O)C([H])(N([H])C(=O)C([H])(N([H])C([H])([H])[H])C([H])([H])[H])C(C([H])([H])[H])(C([H])([H])[H])C([H])([H])[H])C([H])(C(=O)N([H])C1([H])c3c([H])c([H])c([H])c([H])c3C([H])([H])C([H])([H])C1([H])[H])C2([H])[H])C([H])([H])[H]

$$$$
71:0:0
     RDKit          3D

 92100  0  0  1  0  0  0  0  0999 V2000
  -28.1460  -20.9330   21.1110 C   0  0  0  0  0  3  0  0  0  0  0  0
  -27.8850  -22.2980   20.8560 C   0  0  0  0  0  0  0  0  0  0  0  0
  -29.0900  -20.2300   20.3330 C   0  0  0  0  0  0  0  0  0  0  0  0
  -28.5960  -22.9480   19.8220 C   0  0  0  0  0  0  0  0  0  0  0  0
  -29.7790  -20.9750   19.3420 C   0  0  0  0  0  0  0  0  0  0  0  0
  -26.8200  -23.0150   21.6740 C   0  0  0  0  0  1  0  0  0  0  0  0
  -30.8120  -20.3490   18.4260 C   0  0  0  0  0  1  0  0  0  0  0  0
  -29.5430  -22.2910   19.1130 N   0  0  0  0  0  0  0  0  0  0  0  0
  -29.2410  -18.7040   20.5460 C   0  0  0  0  0  2  0  0  0  0  0  0
  -30.6650  -18.1510   20.8250 C   0  0  0  0  0  2  0  0  0  0  0  0
  -30.7490  -16.8840   21.7250 C   0  0  0  0  0  2  0  0  0  0  0  0
  -30.8410  -14.6910   20.4790 C   0  0  0  0  0  0  0  0  0  0  0  0
  -30.5690  -12.5610   19.2500 C   0  0  0  0  0  2  0  0  0  0  0  0
  -29.6140  -12.7550   18.0560 C   0  0  0  0  0  2  0  0  0  0  0  0
  -28.1470  -12.5760   18.4930 C   0  0  0  0  0  2  0  0  0  0  0  0
  -27.7990  -13.3890   19.7690 C   0  0  0  0  0  3  0  0  0  0  0  0
  -28.8630  -13.1690   20.8670 C   0  0  0  0  0  2  0  0  0  0  0  0
  -30.1760  -13.5160   20.2970 N   0  0  0  0  0  0  0  0  0  0  0  0
  -31.9480  -14.9170   19.9830 O   0  0  0  0  0  0  0  0  0  0  0  0
  -30.1830  -15.6350   21.1800 N   0  0  0  0  0  0  0  0  0  0  0  0
  -29.2590  -15.3790   21.4960 H   0  0  0  0  0  0  0  0  0  0  0  0
  -25.3920  -13.9400   20.4920 C   0  0  0  0  0  0  0  0  0  0  0  0
  -24.3400  -13.1430   20.8540 C   0  0  0  0  0  0  0  0  0  0  0  0
  -24.8280  -11.8010   20.8080 C   0  0  0  0  0  0  0  0  0  0  0  0
  -26.4530  -13.0820   20.2490 N   0  0  0  0  0  0  0  0  0  0  0  0
  -26.1170  -11.7900   20.4960 N   0  0  0  0  0  0  0  0  0  0  0  0
  -24.1260  -10.5230   20.9850 C   0  0  0  0  0  0  0  0  0  0  0  0
  -24.5510   -9.5750   21.9430 C   0  0  0  0  0  3  0  0  0  0  0  0
  -23.8490   -8.3610   22.1070 C   0  0  0  0  0  3  0  0  0  0  0  0
  -22.7100   -8.0860   21.3130 C   0  0  0  0  0  0  0  0  0  0  0  0
  -22.3060   -9.0230   20.3460 C   0  0  0  0  0  3  0  0  0  0  0  0
  -23.0090  -10.2280   20.1800 C   0  0  0  0  0  3  0  0  0  0  0  0
  -21.9820   -6.9230   21.3860 O   0  0  0  0  0  0  0  0  0  0  0  0
  -21.8790   -6.2100   22.5530 C   0  0  0  0  0  0  0  0  0  0  0  0
  -21.3200   -6.7710   23.7220 C   0  0  0  0  0  3  0  0  0  0  0  0
  -21.1700   -5.9810   24.8800 C   0  0  0  0  0  3  0  0  0  0  0  0
  -21.5670   -4.6310   24.8680 C   0  0  0  0  0  0  0  0  0  0  0  0
  -22.1180   -4.0690   23.7040 C   0  0  0  0  0  3  0  0  0  0  0  0
  -22.2710   -4.8560   22.5480 C   0  0  0  0  0  0  0  0  0  0  0  0
  -22.7830   -4.3040   21.4220 F   0  0  0  0  0  0  0  0  0  0  0  0
  -21.4150   -3.8690   25.9770 F   0  0  0  0  0  0  0  0  0  0  0  0
  -22.9340  -13.5900   21.1350 C   0  0  0  0  0  0  0  0  0  0  0  0
  -22.2270  -12.8770   22.0060 N   0  0  0  0  0  0  0  0  0  0  0  0
  -22.4710  -14.6060   20.6200 O   0  0  0  0  0  0  0  0  0  0  0  0
  -22.6150  -12.0560   22.4450 H   0  0  0  0  0  0  0  0  0  0  0  0
  -21.2850  -13.1580   22.2360 H   0  0  0  0  0  0  0  0  0  0  0  0
  -25.5300  -15.3150   20.3290 N   0  0  0  0  0  0  0  0  0  0  0  0
  -24.7500  -15.9540   20.4440 H   0  0  0  0  0  0  0  0  0  0  0  0
  -26.3700  -15.7720   19.9990 H   0  0  0  0  0  0  0  0  0  0  0  0
  -28.2640  -24.3760   19.3410 C   0  0  0  0  0  3  0  0  0  0  0  0
  -28.7370  -25.5570   20.2370 C   0  0  0  0  0  3  0  0  0  0  0  0
  -28.6420  -26.8840   19.6650 O   0  0  0  0  0  0  0  0  0  0  0  0
  -24.6010  -31.7090   23.0600 C   0  0  0  0  0  0  0  0  0  0  0  0
  -27.4370  -27.5560   19.7400 C   0  0  0  0  0  0  0  0  0  0  0  0
  -23.4650  -30.3740   21.3160 C   0  0  0  0  0  3  0  0  0  0  0  0
  -24.9900  -28.9850   19.8160 C   0  0  0  0  0  0  0  0  0  0  0  0
  -25.9790  -30.8300   21.1770 C   0  0  0  0  0  2  0  0  0  0  0  0
  -26.1220  -29.5050   20.4530 C   0  0  0  0  0  0  0  0  0  0  0  0
  -27.3480  -28.8000   20.4130 C   0  0  0  0  0  3  0  0  0  0  0  0
  -26.2890  -27.0650   19.0820 C   0  0  0  0  0  3  0  0  0  0  0  0
  -25.0690  -27.7620   19.1270 C   0  0  0  0  0  3  0  0  0  0  0  0
  -23.7150  -29.7960   19.8970 C   0  0  0  0  0  2  0  0  0  0  0  0
  -24.6990  -30.9840   21.9090 N   0  0  0  0  0  0  0  0  0  0  0  0
  -23.5040  -31.9080   23.6010 O   0  0  0  0  0  0  0  0  0  0  0  0
  -22.8430  -29.2670   22.1980 C   0  0  0  0  0  0  0  0  0  0  0  0
  -21.5170  -29.0890   22.0870 N   0  0  0  0  0  0  0  0  0  0  0  0
  -23.5500  -28.5790   22.9390 O   0  0  0  0  0  0  0  0  0  0  0  0
  -21.0090  -29.7010   21.4650 H   0  0  0  0  0  0  0  0  0  0  0  0
  -18.1470  -27.9070   22.6480 C   0  0  0  0  0  0  0  0  0  0  0  0
  -20.7220  -28.0820   22.7910 C   0  0  0  0  0  3  0  0  0  0  0  0
  -20.7540  -26.7280   22.0450 C   0  0  0  0  0  2  0  0  0  0  0  0
  -19.5860  -26.5490   21.0700 C   0  0  0  0  0  2  0  0  0  0  0  0
  -18.2490  -26.6430   21.8110 C   0  0  0  0  0  2  0  0  0  0  0  0
  -19.3100  -28.5910   23.0950 C   0  0  0  0  0  0  0  0  0  0  0  0
  -19.1610  -29.7800   23.8410 C   0  0  0  0  0  3  0  0  0  0  0  0
  -17.8830  -30.2850   24.1430 C   0  0  0  0  0  3  0  0  0  0  0  0
  -16.7360  -29.5950   23.7130 C   0  0  0  0  0  3  0  0  0  0  0  0
  -16.8700  -28.4070   22.9720 C   0  0  0  0  0  3  0  0  0  0  0  0
  -25.8570  -32.3450   23.7350 C   0  0  0  0  0  3  0  0  0  0  0  0
  -25.5100  -33.7240   24.1040 N   0  0  0  0  0  0  0  0  0  0  0  0
  -25.8380  -34.8080   23.3880 C   0  0  0  0  0  0  0  0  0  0  0  0
  -26.5370  -34.7530   22.3720 O   0  0  0  0  0  0  0  0  0  0  0  0
  -24.8930  -33.8380   24.8950 H   0  0  0  0  0  0  0  0  0  0  0  0
  -24.0820  -36.5720   23.0420 C   0  0  0  0  0  1  0  0  0  0  0  0
  -25.3080  -36.1690   23.8750 C   0  0  0  0  0  3  0  0  0  0  0  0
  -27.3920  -37.0750   24.8070 C   0  0  0  0  0  1  0  0  0  0  0  0
  -26.3200  -37.2460   23.8270 N   0  0  0  0  0  0  0  0  0  0  0  0
  -25.8900  -38.1530   23.9850 H   0  0  0  0  0  0  0  0  0  0  0  0
  -26.3590  -31.5400   24.9960 C   0  0  1  0  0  0  0  0  0  0  0  0
  -25.2440  -31.2380   26.0250 C   0  0  0  0  0  1  0  0  0  0  0  0
  -26.9870  -30.1910   24.5700 C   0  0  0  0  0  1  0  0  0  0  0  0
  -27.4720  -32.3360   25.7170 C   0  0  0  0  0  1  0  0  0  0  0  0
  2  1  1  0
  2  6  1  0
  3  9  1  0
  3  1  2  0
  4  2  2  0
  5  3  1  0
  7  5  1  0
  8  5  2  0
  8  4  1  0
  9 10  1  0
 10 11  1  0
 12 20  1  0
 13 18  1  0
 14 15  1  0
 14 13  1  0
 16 15  1  0
 16 25  1  0
 16 17  1  0
 18 12  1  0
 18 17  1  0
 19 12  2  0
 20 21  1  0
 20 11  1  0
 22 23  2  0
 23 42  1  0
 24 23  1  0
 24 27  1  0
 25 22  1  0
 25 26  1  0
 26 24  2  0
 27 28  1  0
 28 29  2  0
 30 33  1  0
 30 29  1  0
 31 30  2  0
 32 31  1  0
 32 27  2  0
 33 34  1  0
 34 35  1  0
 35 36  2  0
 37 36  1  0
 37 41  1  0
 38 37  2  0
 39 34  2  0
 39 38  1  0
 40 39  1  0
 42 43  1  0
 43 46  1  0
 43 45  1  0
 44 42  2  0
 47 48  1  0
 47 22  1  0
 49 47  1  0
 50  4  1  0
 50 51  2  0
 52 54  1  0
 52 51  1  0
 53 64  2  0
 54 59  1  0
 55 63  1  0
 55 65  1  0
 56 62  1  0
 56 58  1  0
 57 63  1  0
 58 57  1  0
 59 58  2  0
 60 61  1  0
 60 54  2  0
 61 56  2  0
 62 55  1  0
 63 53  1  0
 65 67  2  0
 66 65  1  0
 68 66  1  0
 69 78  2  0
 69 74  1  0
 70 66  1  0
 70 74  1  0
 71 70  1  0
 72 73  1  0
 72 71  1  0
 73 69  1  0
 74 75  2  0
 75 76  1  0
 77 76  2  0
 78 77  1  0
 79 53  1  0
 79 80  1  0
 79 89  1  0
 80 83  1  0
 81 85  1  0
 81 80  1  0
 82 81  2  0
 85 84  1  0
 87 85  1  0
 87 88  1  0
 87 86  1  0
 89 92  1  1
 89 90  1  0
 91 89  1  0
M  ISO  4  12 100  20 100  51 101  52 101
M  END
>  <TORSDO>  (71) 
F 21

>  <SCORE>  (71) 
-13.141

>  <name>  (71) 
71

>  <ligand_id>  (71) 
71

>  <original_smiles>  (71) 
[H]c1c([H])c([H])c2c(c1[H])C([H])([H])C([H])([H])C([H])([H])C2([H])N([H])C(=O)C1([H])N(C(=O)C([H])(N([H])C(=O)C([H])(N([H])C([H])([H])[H])C([H])([H])[H])C(C([H])([H])[H])(C([H])([H])[H])C([H])([H])[H])C([H])([H])c2c([H])c(OC([H])([H])C([H])([H])c3nc(C([H])([H])[H])c(C([H])([H])C([H])([H])C([H])([H])N([H])C(=O)N4C([H])([H])C([H])([H])C([H])([H])C([H])(n5nc(-c6c([H])c([H])c(Oc7c([H])c([H])c(F)c([H])c7F)c([H])c6[H])c(C(=O)N([H])[H])c5N([H])[H])C4([H])[H])c([H])c3C([H])([H])[H])c([H])c([H])c2C1([H])[H]

>  <smiles>  (71) 
[H]c1c([H])c([H])c2c(c1[H])C([H])([H])C([H])([H])C([H])([H])C2([H])N([H])C(=O)C1([H])N(C(=O)C([H])(N([H])C(=O)C([H])(N([H])C([H])([H])[H])C([H])([H])[H])C(C([H])([H])[H])(C([H])([H])[H])C([H])([H])[H])C([H])([H])c2c([H])c(OC([H])([H])C([H])([H])c3nc(C([H])([H])[H])c(C([H])([H])C([H])([H])C([H])([H])N([H])C(=O)N4C([H])([H])C([H])([H])C([H])([H])C([H])(n5nc(-c6c([H])c([H])c(Oc7c([H])c([H])c(F)c([H])c7F)c([H])c6[H])c(C(=O)N([H])[H])c5N([H])[H])C4([H])[H])c([H])c3C([H])([H])[H])c([H])c([H])c2C1([H])[H]

$$$$
72:0:0
     RDKit          3D

 85 93  0  0  1  0  0  0  0  0999 V2000
  -29.0300  -22.7760   20.5010 C   0  0  0  0  0  3  0  0  0  0  0  0
  -29.1710  -19.7950   21.0020 C   0  0  0  0  0  3  0  0  0  0  0  0
  -29.0890  -21.0230   20.2150 C   0  0  0  0  0  0  0  0  0  0  0  0
  -29.4280  -20.3960   18.9800 N   0  0  0  0  0  0  0  0  0  0  0  0
  -29.6110  -19.0490   19.0150 N   0  0  0  0  0  0  0  0  0  0  0  0
  -29.5280  -18.5240   20.2860 N   0  0  0  0  0  0  0  0  0  0  0  0
  -29.5130  -16.8640   20.6540 C   0  0  0  0  0  2  0  0  0  0  0  0
  -30.3780  -15.3740   20.2410 C   0  0  0  0  0  0  0  0  0  0  0  0
  -30.4010  -12.9150   19.3450 C   0  0  0  0  0  2  0  0  0  0  0  0
  -29.4630  -12.7270   18.1210 C   0  0  0  0  0  2  0  0  0  0  0  0
  -28.0170  -12.4480   18.5700 C   0  0  0  0  0  2  0  0  0  0  0  0
  -27.5800  -13.3950   19.7140 C   0  0  0  0  0  3  0  0  0  0  0  0
  -28.6400  -13.5170   20.8280 C   0  0  0  0  0  2  0  0  0  0  0  0
  -29.8710  -14.0360   20.2100 N   0  0  0  0  0  0  0  0  0  0  0  0
  -31.5730  -15.4090   19.9040 O   0  0  0  0  0  0  0  0  0  0  0  0
  -25.2170  -13.9500   20.4960 C   0  0  0  0  0  0  0  0  0  0  0  0
  -24.1590  -13.1710   20.8730 C   0  0  0  0  0  0  0  0  0  0  0  0
  -24.6250  -11.8210   20.8300 C   0  0  0  0  0  0  0  0  0  0  0  0
  -26.2560  -13.0760   20.2340 N   0  0  0  0  0  0  0  0  0  0  0  0
  -25.9130  -11.7880   20.5040 N   0  0  0  0  0  0  0  0  0  0  0  0
  -23.8980  -10.5580   21.0220 C   0  0  0  0  0  0  0  0  0  0  0  0
  -24.3320   -9.5890   21.9520 C   0  0  0  0  0  3  0  0  0  0  0  0
  -23.6030   -8.3930   22.1320 C   0  0  0  0  0  3  0  0  0  0  0  0
  -22.4250   -8.1600   21.3840 C   0  0  0  0  0  0  0  0  0  0  0  0
  -22.0100   -9.1180   20.4440 C   0  0  0  0  0  3  0  0  0  0  0  0
  -22.7400  -10.3050   20.2610 C   0  0  0  0  0  3  0  0  0  0  0  0
  -21.6680   -7.0170   21.4740 O   0  0  0  0  0  0  0  0  0  0  0  0
  -21.6190   -6.2750   22.6270 C   0  0  0  0  0  0  0  0  0  0  0  0
  -21.1850   -6.8280   23.8510 C   0  0  0  0  0  3  0  0  0  0  0  0
  -21.0830   -6.0120   24.9960 C   0  0  0  0  0  3  0  0  0  0  0  0
  -21.4050   -4.6450   24.9170 C   0  0  0  0  0  0  0  0  0  0  0  0
  -21.8330   -4.0900   23.6980 C   0  0  0  0  0  3  0  0  0  0  0  0
  -21.9350   -4.9030   22.5550 C   0  0  0  0  0  0  0  0  0  0  0  0
  -22.3270   -4.3590   21.3780 F   0  0  0  0  0  0  0  0  0  0  0  0
  -21.3010   -3.8590   26.0150 F   0  0  0  0  0  0  0  0  0  0  0  0
  -22.7650  -13.6490   21.1590 C   0  0  0  0  0  0  0  0  0  0  0  0
  -22.0460  -12.9540   22.0320 N   0  0  0  0  0  0  0  0  0  0  0  0
  -22.3230  -14.6740   20.6410 O   0  0  0  0  0  0  0  0  0  0  0  0
  -22.4170  -12.1250   22.4720 H   0  0  0  0  0  0  0  0  0  0  0  0
  -21.1110  -13.2560   22.2660 H   0  0  0  0  0  0  0  0  0  0  0  0
  -25.3780  -15.3220   20.3250 N   0  0  0  0  0  0  0  0  0  0  0  0
  -24.6090  -15.9730   20.4490 H   0  0  0  0  0  0  0  0  0  0  0  0
  -26.2160  -15.7640   19.9720 H   0  0  0  0  0  0  0  0  0  0  0  0
  -28.0380  -24.2320   20.0470 C   0  0  0  0  0  3  0  0  0  0  0  0
  -28.2010  -25.8720   20.2920 O   0  0  0  0  0  0  0  0  0  0  0  0
  -24.6270  -31.8690   23.2150 C   0  0  0  0  0  0  0  0  0  0  0  0
  -27.1830  -26.9700   20.2100 C   0  0  0  0  0  0  0  0  0  0  0  0
  -23.4310  -30.4650   21.5850 C   0  0  0  0  0  3  0  0  0  0  0  0
  -24.8780  -28.8530   20.1620 C   0  0  0  0  0  0  0  0  0  0  0  0
  -25.9960  -30.6760   21.4310 C   0  0  0  0  0  2  0  0  0  0  0  0
  -26.0670  -29.2620   20.7790 C   0  0  0  0  0  0  0  0  0  0  0  0
  -27.2110  -28.3410   20.7770 C   0  0  0  0  0  3  0  0  0  0  0  0
  -25.9630  -26.7170   19.5440 C   0  0  0  0  0  3  0  0  0  0  0  0
  -24.8520  -27.6020   19.5240 C   0  0  0  0  0  3  0  0  0  0  0  0
  -23.6570  -29.7740   20.2110 C   0  0  0  0  0  2  0  0  0  0  0  0
  -24.7060  -31.0320   22.1300 N   0  0  0  0  0  0  0  0  0  0  0  0
  -23.5390  -32.1600   23.7380 O   0  0  0  0  0  0  0  0  0  0  0  0
  -22.7390  -29.4740   22.5570 C   0  0  0  0  0  0  0  0  0  0  0  0
  -21.4090  -29.3070   22.4370 N   0  0  0  0  0  0  0  0  0  0  0  0
  -23.4070  -28.8560   23.3900 O   0  0  0  0  0  0  0  0  0  0  0  0
  -20.9220  -29.8560   21.7420 H   0  0  0  0  0  0  0  0  0  0  0  0
  -18.0320  -28.0820   22.9530 C   0  0  0  0  0  0  0  0  0  0  0  0
  -20.5900  -28.3690   23.2150 C   0  0  0  0  0  3  0  0  0  0  0  0
  -20.7020  -26.9330   22.6500 C   0  0  0  0  0  2  0  0  0  0  0  0
  -19.6020  -26.5960   21.6380 C   0  0  0  0  0  2  0  0  0  0  0  0
  -18.2190  -26.7320   22.2810 C   0  0  0  0  0  2  0  0  0  0  0  0
  -19.1450  -28.8580   23.3760 C   0  0  0  0  0  0  0  0  0  0  0  0
  -18.9130  -30.1190   23.9670 C   0  0  0  0  0  3  0  0  0  0  0  0
  -17.6020  -30.6060   24.1360 C   0  0  0  0  0  3  0  0  0  0  0  0
  -16.5050  -29.8290   23.7260 C   0  0  0  0  0  3  0  0  0  0  0  0
  -16.7200  -28.5690   23.1400 C   0  0  0  0  0  3  0  0  0  0  0  0
  -25.8990  -32.5170   23.8420 C   0  0  0  0  0  3  0  0  0  0  0  0
  -26.4100  -31.7560   25.1280 C   0  0  1  0  0  0  0  0  0  0  0  0
  -25.3140  -31.5260   26.1950 C   0  0  0  0  0  1  0  0  0  0  0  0
  -26.9970  -30.3760   24.7570 C   0  0  0  0  0  1  0  0  0  0  0  0
  -27.5590  -32.5570   25.7880 C   0  0  0  0  0  1  0  0  0  0  0  0
  -25.5770  -33.9160   24.1790 N   0  0  0  0  0  0  0  0  0  0  0  0
  -25.8930  -34.9790   23.4270 C   0  0  0  0  0  0  0  0  0  0  0  0
  -26.5480  -34.8860   22.3860 O   0  0  0  0  0  0  0  0  0  0  0  0
  -24.9920  -34.0610   24.9880 H   0  0  0  0  0  0  0  0  0  0  0  0
  -24.1470  -36.7700   23.1270 C   0  0  0  0  0  1  0  0  0  0  0  0
  -25.4110  -36.3650   23.9040 C   0  0  0  0  0  3  0  0  0  0  0  0
  -27.5570  -37.2660   24.6890 C   0  0  0  0  0  1  0  0  0  0  0  0
  -26.4340  -37.4260   23.7700 N   0  0  0  0  0  0  0  0  0  0  0  0
  -26.0240  -38.3430   23.9260 H   0  0  0  0  0  0  0  0  0  0  0  0
  3  1  1  0
  3  2  2  0
  4  5  2  0
  4  3  1  0
  5  6  1  0
  6  7  1  0
  6  2  1  0
  8  7  1  0
  9 14  1  0
 10 11  1  0
 10  9  1  0
 12 11  1  0
 12 19  1  0
 12 13  1  0
 14  8  1  0
 14 13  1  0
 15  8  2  0
 16 17  2  0
 17 36  1  0
 18 17  1  0
 18 21  1  0
 19 16  1  0
 19 20  1  0
 20 18  2  0
 21 22  1  0
 22 23  2  0
 24 27  1  0
 24 23  1  0
 25 24  2  0
 26 25  1  0
 26 21  2  0
 27 28  1  0
 28 29  1  0
 29 30  2  0
 31 30  1  0
 31 35  1  0
 32 31  2  0
 33 28  2  0
 33 32  1  0
 34 33  1  0
 36 37  1  0
 37 40  1  0
 37 39  1  0
 38 36  2  0
 41 42  1  0
 41 16  1  0
 43 41  1  0
 44 45  1  0
 44  1  2  0
 46 57  2  0
 47 45  1  0
 47 52  1  0
 48 56  1  0
 48 58  1  0
 49 55  1  0
 49 51  1  0
 50 56  1  0
 51 50  1  0
 52 51  2  0
 53 47  2  0
 54 53  1  0
 54 49  2  0
 55 48  1  0
 56 46  1  0
 58 60  2  0
 59 58  1  0
 61 59  1  0
 62 71  2  0
 62 67  1  0
 63 59  1  0
 63 67  1  0
 64 63  1  0
 65 66  1  0
 65 64  1  0
 66 62  1  0
 67 68  2  0
 68 69  1  0
 70 69  2  0
 71 70  1  0
 72 46  1  0
 72 77  1  0
 72 73  1  0
 73 76  1  1
 73 74  1  0
 75 73  1  0
 77 80  1  0
 78 82  1  0
 78 77  1  0
 79 78  2  0
 82 81  1  0
 84 82  1  0
 84 85  1  0
 84 83  1  0
M  ISO  4   7 100   8 100  44 101  45 101
M  END
>  <TORSDO>  (72) 
F 19

>  <SCORE>  (72) 
-16.451

>  <name>  (72) 
72

>  <ligand_id>  (72) 
72

>  <original_smiles>  (72) 
[H]c1c([H])c([H])c2c(c1[H])C([H])([H])C([H])([H])C([H])([H])C2([H])N([H])C(=O)C1([H])N(C(=O)C([H])(N([H])C(=O)C([H])(N([H])C([H])([H])[H])C([H])([H])[H])C(C([H])([H])[H])(C([H])([H])[H])C([H])([H])[H])C([H])([H])c2c([H])c(OC([H])([H])C([H])([H])c3nnn(C([H])([H])C(=O)N4C([H])([H])C([H])([H])C([H])([H])C([H])(n5nc(-c6c([H])c([H])c(Oc7c([H])c([H])c(F)c([H])c7F)c([H])c6[H])c(C(=O)N([H])[H])c5N([H])[H])C4([H])[H])c3[H])c([H])c([H])c2C1([H])[H]

>  <smiles>  (72) 
[H]c1c([H])c([H])c2c(c1[H])C([H])([H])C([H])([H])C([H])([H])C2([H])N([H])C(=O)C1([H])N(C(=O)C([H])(N([H])C(=O)C([H])(N([H])C([H])([H])[H])C([H])([H])[H])C(C([H])([H])[H])(C([H])([H])[H])C([H])([H])[H])C([H])([H])c2c([H])c(OC([H])([H])C([H])([H])c3nnn(C([H])([H])C(=O)N4C([H])([H])C([H])([H])C([H])([H])C([H])(n5nc(-c6c([H])c([H])c(Oc7c([H])c([H])c(F)c([H])c7F)c([H])c6[H])c(C(=O)N([H])[H])c5N([H])[H])C4([H])[H])c3[H])c([H])c([H])c2C1([H])[H]

$$$$
73:0:0
     RDKit          3D

 90 98  0  0  1  0  0  0  0  0999 V2000
  -30.9990  -18.1770   19.4050 C   0  0  0  0  0  3  0  0  0  0  0  0
  -29.1650  -19.0710   20.6500 C   0  0  0  0  0  3  0  0  0  0  0  0
  -29.9490  -17.8660   20.2920 C   0  0  0  0  0  0  0  0  0  0  0  0
  -31.2130  -19.4970   18.9420 C   0  0  0  0  0  0  0  0  0  0  0  0
  -29.4370  -20.4390   20.1570 C   0  0  0  0  0  0  0  0  0  0  0  0
  -30.4670  -20.5780   19.2960 N   0  0  0  0  0  0  0  0  0  0  0  0
  -29.6820  -16.3140   20.7840 C   0  0  0  0  0  2  0  0  0  0  0  0
  -30.5080  -14.9340   20.3650 C   0  0  0  0  0  0  0  0  0  0  0  0
  -30.3780  -12.6060   19.3630 C   0  0  0  0  0  2  0  0  0  0  0  0
  -29.4350  -12.6300   18.1360 C   0  0  0  0  0  2  0  0  0  0  0  0
  -27.9690  -12.4300   18.5670 C   0  0  0  0  0  2  0  0  0  0  0  0
  -27.5830  -13.3230   19.7740 C   0  0  0  0  0  3  0  0  0  0  0  0
  -28.6440  -13.2710   20.8940 C   0  0  0  0  0  2  0  0  0  0  0  0
  -29.9290  -13.6680   20.3060 N   0  0  0  0  0  0  0  0  0  0  0  0
  -31.6910  -15.0100   20.0080 O   0  0  0  0  0  0  0  0  0  0  0  0
  -25.2030  -13.9090   20.5190 C   0  0  0  0  0  0  0  0  0  0  0  0
  -24.1370  -13.1370   20.8890 C   0  0  0  0  0  0  0  0  0  0  0  0
  -24.5980  -11.7850   20.8530 C   0  0  0  0  0  0  0  0  0  0  0  0
  -26.2430  -13.0300   20.2730 N   0  0  0  0  0  0  0  0  0  0  0  0
  -25.8880  -11.7460   20.5390 N   0  0  0  0  0  0  0  0  0  0  0  0
  -23.8680  -10.5240   21.0400 C   0  0  0  0  0  0  0  0  0  0  0  0
  -24.2930   -9.5550   21.9740 C   0  0  0  0  0  3  0  0  0  0  0  0
  -23.5630   -8.3590   22.1500 C   0  0  0  0  0  3  0  0  0  0  0  0
  -22.3920   -8.1250   21.3910 C   0  0  0  0  0  0  0  0  0  0  0  0
  -21.9850   -9.0840   20.4450 C   0  0  0  0  0  3  0  0  0  0  0  0
  -22.7160  -10.2690   20.2680 C   0  0  0  0  0  3  0  0  0  0  0  0
  -21.6330   -6.9830   21.4760 O   0  0  0  0  0  0  0  0  0  0  0  0
  -21.5710   -6.2440   22.6300 C   0  0  0  0  0  0  0  0  0  0  0  0
  -21.1260   -6.8020   23.8490 C   0  0  0  0  0  3  0  0  0  0  0  0
  -21.0120   -5.9900   24.9950 C   0  0  0  0  0  3  0  0  0  0  0  0
  -21.3310   -4.6210   24.9230 C   0  0  0  0  0  0  0  0  0  0  0  0
  -21.7690   -4.0630   23.7090 C   0  0  0  0  0  3  0  0  0  0  0  0
  -21.8850   -4.8710   22.5650 C   0  0  0  0  0  0  0  0  0  0  0  0
  -22.2870   -4.3240   21.3930 F   0  0  0  0  0  0  0  0  0  0  0  0
  -21.2140   -3.8380   26.0210 F   0  0  0  0  0  0  0  0  0  0  0  0
  -22.7410  -13.6170   21.1640 C   0  0  0  0  0  0  0  0  0  0  0  0
  -22.0110  -12.9180   22.0250 N   0  0  0  0  0  0  0  0  0  0  0  0
  -22.3080  -14.6480   20.6500 O   0  0  0  0  0  0  0  0  0  0  0  0
  -22.3750  -12.0840   22.4620 H   0  0  0  0  0  0  0  0  0  0  0  0
  -21.0740  -13.2220   22.2510 H   0  0  0  0  0  0  0  0  0  0  0  0
  -25.3700  -15.2810   20.3470 N   0  0  0  0  0  0  0  0  0  0  0  0
  -24.6030  -15.9350   20.4610 H   0  0  0  0  0  0  0  0  0  0  0  0
  -26.2150  -15.7210   20.0070 H   0  0  0  0  0  0  0  0  0  0  0  0
  -32.3410  -19.7710   17.9630 C   0  0  0  0  0  2  0  0  0  0  0  0
  -34.7650  -20.5240   17.6690 C   0  0  0  0  0  1  0  0  0  0  0  0
  -33.6060  -20.3070   18.6520 C   0  0  0  0  0  2  0  0  0  0  0  0
  -28.5070  -21.7820   20.3160 C   0  0  0  0  0  2  0  0  0  0  0  0
  -29.0090  -23.3850   20.3380 C   0  0  0  0  0  3  0  0  0  0  0  0
  -27.9620  -24.6870   20.1640 C   0  0  0  0  0  3  0  0  0  0  0  0
  -28.2570  -26.2070   20.2690 O   0  0  0  0  0  0  0  0  0  0  0  0
  -24.6060  -31.8880   23.2110 C   0  0  0  0  0  0  0  0  0  0  0  0
  -27.1960  -27.1800   20.2010 C   0  0  0  0  0  0  0  0  0  0  0  0
  -23.4150  -30.4950   21.5640 C   0  0  0  0  0  3  0  0  0  0  0  0
  -24.8680  -28.9180   20.1530 C   0  0  0  0  0  0  0  0  0  0  0  0
  -25.9700  -30.7570   21.4170 C   0  0  0  0  0  2  0  0  0  0  0  0
  -26.0450  -29.3660   20.7670 C   0  0  0  0  0  0  0  0  0  0  0  0
  -27.2100  -28.5130   20.7730 C   0  0  0  0  0  3  0  0  0  0  0  0
  -25.9910  -26.8300   19.5510 C   0  0  0  0  0  3  0  0  0  0  0  0
  -24.8530  -27.6620   19.5300 C   0  0  0  0  0  3  0  0  0  0  0  0
  -23.6430  -29.8160   20.1880 C   0  0  0  0  0  2  0  0  0  0  0  0
  -24.6830  -31.0670   22.1190 N   0  0  0  0  0  0  0  0  0  0  0  0
  -23.5180  -32.1760   23.7300 O   0  0  0  0  0  0  0  0  0  0  0  0
  -22.7260  -29.4890   22.5210 C   0  0  0  0  0  0  0  0  0  0  0  0
  -21.3970  -29.3270   22.3860 N   0  0  0  0  0  0  0  0  0  0  0  0
  -23.3900  -28.8590   23.3470 O   0  0  0  0  0  0  0  0  0  0  0  0
  -20.9190  -29.8870   21.6940 H   0  0  0  0  0  0  0  0  0  0  0  0
  -18.0020  -28.1680   22.8860 C   0  0  0  0  0  0  0  0  0  0  0  0
  -20.5640  -28.3960   23.1520 C   0  0  0  0  0  3  0  0  0  0  0  0
  -20.6470  -26.9660   22.5690 C   0  0  0  0  0  2  0  0  0  0  0  0
  -19.5400  -26.6630   21.5540 C   0  0  0  0  0  2  0  0  0  0  0  0
  -18.1600  -26.8210   22.2010 C   0  0  0  0  0  2  0  0  0  0  0  0
  -19.1310  -28.9140   23.3190 C   0  0  0  0  0  0  0  0  0  0  0  0
  -18.9280  -30.1740   23.9220 C   0  0  0  0  0  3  0  0  0  0  0  0
  -17.6300  -30.6890   24.0960 C   0  0  0  0  0  3  0  0  0  0  0  0
  -16.5160  -29.9410   23.6790 C   0  0  0  0  0  3  0  0  0  0  0  0
  -16.7030  -28.6810   23.0800 C   0  0  0  0  0  3  0  0  0  0  0  0
  -25.8820  -32.5190   23.8470 C   0  0  0  0  0  3  0  0  0  0  0  0
  -25.5700  -33.9170   24.1820 N   0  0  0  0  0  0  0  0  0  0  0  0
  -25.8960  -34.9750   23.4280 C   0  0  0  0  0  0  0  0  0  0  0  0
  -26.5590  -34.8770   22.3920 O   0  0  0  0  0  0  0  0  0  0  0  0
  -24.9790  -34.0660   24.9870 H   0  0  0  0  0  0  0  0  0  0  0  0
  -24.1620  -36.7700   23.1000 C   0  0  0  0  0  1  0  0  0  0  0  0
  -25.4120  -36.3620   23.8960 C   0  0  0  0  0  3  0  0  0  0  0  0
  -27.5530  -37.2500   24.7090 C   0  0  0  0  0  1  0  0  0  0  0  0
  -26.4420  -37.4170   23.7750 N   0  0  0  0  0  0  0  0  0  0  0  0
  -26.0360  -38.3370   23.9260 H   0  0  0  0  0  0  0  0  0  0  0  0
  -26.3840  -31.7450   25.1290 C   0  0  1  0  0  0  0  0  0  0  0  0
  -25.2790  -31.5090   26.1860 C   0  0  0  0  0  1  0  0  0  0  0  0
  -26.9670  -30.3660   24.7460 C   0  0  0  0  0  1  0  0  0  0  0  0
  -27.5300  -32.5370   25.8030 C   0  0  0  0  0  1  0  0  0  0  0  0
  1  3  1  0
  3  2  2  0
  3  7  1  0
  4  6  1  0
  4  1  2  0
  5 47  1  0
  5  2  1  0
  6  5  2  0
  8  7  1  0
  9 14  1  0
 10 11  1  0
 10  9  1  0
 12 11  1  0
 12 19  1  0
 12 13  1  0
 14  8  1  0
 14 13  1  0
 15  8  2  0
 16 17  2  0
 17 36  1  0
 18 17  1  0
 18 21  1  0
 19 16  1  0
 19 20  1  0
 20 18  2  0
 21 22  1  0
 22 23  2  0
 24 27  1  0
 24 23  1  0
 25 24  2  0
 26 25  1  0
 26 21  2  0
 27 28  1  0
 28 29  1  0
 29 30  2  0
 31 30  1  0
 31 35  1  0
 32 31  2  0
 33 28  2  0
 33 32  1  0
 34 33  1  0
 36 37  1  0
 37 40  1  0
 37 39  1  0
 38 36  2  0
 41 42  1  0
 41 16  1  0
 43 41  1  0
 44 46  1  0
 44  4  1  0
 45 46  1  0
 47 48  1  0
 49 50  1  0
 49 48  2  0
 51 62  2  0
 52 50  1  0
 52 57  1  0
 53 61  1  0
 53 63  1  0
 54 60  1  0
 54 56  1  0
 55 61  1  0
 56 57  2  0
 56 55  1  0
 58 52  2  0
 59 58  1  0
 59 54  2  0
 60 53  1  0
 61 51  1  0
 63 65  2  0
 64 63  1  0
 66 64  1  0
 67 76  2  0
 67 72  1  0
 68 64  1  0
 68 72  1  0
 69 68  1  0
 70 71  1  0
 70 69  1  0
 71 67  1  0
 72 73  2  0
 73 74  1  0
 75 74  2  0
 76 75  1  0
 77 51  1  0
 77 78  1  0
 77 87  1  0
 78 81  1  0
 79 83  1  0
 79 78  1  0
 80 79  2  0
 83 82  1  0
 85 83  1  0
 85 86  1  0
 85 84  1  0
 87 90  1  1
 87 88  1  0
 89 87  1  0
M  ISO  4   7 100   8 100  49 101  50 101
M  END
>  <TORSDO>  (73) 
F 22

>  <SCORE>  (73) 
-13.124

>  <name>  (73) 
73

>  <ligand_id>  (73) 
73

>  <original_smiles>  (73) 
[H]c1c([H])c([H])c2c(c1[H])C([H])([H])C([H])([H])C([H])([H])C2([H])N([H])C(=O)C1([H])N(C(=O)C([H])(N([H])C(=O)C([H])(N([H])C([H])([H])[H])C([H])([H])[H])C(C([H])([H])[H])(C([H])([H])[H])C([H])([H])[H])C([H])([H])c2c([H])c(OC([H])([H])C([H])([H])C([H])([H])c3nc(C([H])([H])C([H])([H])C([H])([H])[H])c([H])c(C([H])([H])C(=O)N4C([H])([H])C([H])([H])C([H])([H])C([H])(n5nc(-c6c([H])c([H])c(Oc7c([H])c([H])c(F)c([H])c7F)c([H])c6[H])c(C(=O)N([H])[H])c5N([H])[H])C4([H])[H])c3[H])c([H])c([H])c2C1([H])[H]

>  <smiles>  (73) 
[H]c1c([H])c([H])c2c(c1[H])C([H])([H])C([H])([H])C([H])([H])C2([H])N([H])C(=O)C1([H])N(C(=O)C([H])(N([H])C(=O)C([H])(N([H])C([H])([H])[H])C([H])([H])[H])C(C([H])([H])[H])(C([H])([H])[H])C([H])([H])[H])C([H])([H])c2c([H])c(OC([H])([H])C([H])([H])C([H])([H])c3nc(C([H])([H])C([H])([H])C([H])([H])[H])c([H])c(C([H])([H])C(=O)N4C([H])([H])C([H])([H])C([H])([H])C([H])(n5nc(-c6c([H])c([H])c(Oc7c([H])c([H])c(F)c([H])c7F)c([H])c6[H])c(C(=O)N([H])[H])c5N([H])[H])C4([H])[H])c3[H])c([H])c([H])c2C1([H])[H]

$$$$
74:0:0
     RDKit          3D

 92 99  0  0  1  0  0  0  0  0999 V2000
  -31.8780  -23.3510   18.3690 C   0  0  0  0  0  1  0  0  0  0  0  0
  -29.5420  -22.6710   17.8690 C   0  0  0  0  0  1  0  0  0  0  0  0
  -30.6430  -22.6170   18.9490 C   0  0  2  0  0  0  0  0  0  0  0  0
  -30.1640  -23.3280   20.2580 C   0  0  0  0  0  2  0  0  0  0  0  0
  -29.9030  -24.8670   20.2310 C   0  0  0  0  0  2  0  0  0  0  0  0
  -28.4590  -25.3400   19.9620 C   0  0  0  0  0  2  0  0  0  0  0  0
  -28.4370  -26.7600   20.1360 O   0  0  0  0  0  0  0  0  0  0  0  0
  -24.6110  -31.8780   23.2320 C   0  0  0  0  0  0  0  0  0  0  0  0
  -27.2310  -27.4300   20.1420 C   0  0  0  0  0  0  0  0  0  0  0  0
  -23.3850  -30.4730   21.6050 C   0  0  0  0  0  3  0  0  0  0  0  0
  -24.8240  -28.9250   20.1740 C   0  0  0  0  0  0  0  0  0  0  0  0
  -25.9060  -30.8330   21.3780 C   0  0  0  0  0  2  0  0  0  0  0  0
  -25.9860  -29.4570   20.7470 C   0  0  0  0  0  0  0  0  0  0  0  0
  -27.1890  -28.7160   20.7260 C   0  0  0  0  0  3  0  0  0  0  0  0
  -26.0470  -26.9050   19.5750 C   0  0  0  0  0  3  0  0  0  0  0  0
  -24.8490  -27.6480   19.5870 C   0  0  0  0  0  3  0  0  0  0  0  0
  -23.5800  -29.7830   20.2260 C   0  0  0  0  0  2  0  0  0  0  0  0
  -24.6530  -31.0780   22.1310 N   0  0  0  0  0  0  0  0  0  0  0  0
  -23.5370  -32.1530   23.7840 O   0  0  0  0  0  0  0  0  0  0  0  0
  -22.7420  -29.4590   22.5770 C   0  0  0  0  0  0  0  0  0  0  0  0
  -21.4180  -29.2770   22.4600 N   0  0  0  0  0  0  0  0  0  0  0  0
  -23.4330  -28.8330   23.3880 O   0  0  0  0  0  0  0  0  0  0  0  0
  -20.9200  -29.8330   21.7790 H   0  0  0  0  0  0  0  0  0  0  0  0
  -18.0480  -28.0770   22.9720 C   0  0  0  0  0  0  0  0  0  0  0  0
  -20.6060  -28.3430   23.2410 C   0  0  0  0  0  3  0  0  0  0  0  0
  -20.7130  -26.9070   22.6760 C   0  0  0  0  0  2  0  0  0  0  0  0
  -19.6120  -26.5730   21.6650 C   0  0  0  0  0  2  0  0  0  0  0  0
  -18.2300  -26.7210   22.3080 C   0  0  0  0  0  2  0  0  0  0  0  0
  -19.1660  -28.8450   23.3940 C   0  0  0  0  0  0  0  0  0  0  0  0
  -18.9440  -30.1140   23.9720 C   0  0  0  0  0  3  0  0  0  0  0  0
  -17.6390  -30.6120   24.1380 C   0  0  0  0  0  3  0  0  0  0  0  0
  -16.5360  -29.8410   23.7320 C   0  0  0  0  0  3  0  0  0  0  0  0
  -16.7420  -28.5770   23.1520 C   0  0  0  0  0  3  0  0  0  0  0  0
  -25.9050  -32.5090   23.8380 C   0  0  0  0  0  3  0  0  0  0  0  0
  -25.5960  -33.9050   24.1790 N   0  0  0  0  0  0  0  0  0  0  0  0
  -25.9200  -34.9620   23.4230 C   0  0  0  0  0  0  0  0  0  0  0  0
  -26.5800  -34.8640   22.3830 O   0  0  0  0  0  0  0  0  0  0  0  0
  -25.0090  -34.0550   24.9870 H   0  0  0  0  0  0  0  0  0  0  0  0
  -24.1840  -36.7530   23.1010 C   0  0  0  0  0  1  0  0  0  0  0  0
  -25.4380  -36.3460   23.8930 C   0  0  0  0  0  3  0  0  0  0  0  0
  -27.5860  -37.2290   24.6930 C   0  0  0  0  0  1  0  0  0  0  0  0
  -26.4660  -37.4010   23.7710 N   0  0  0  0  0  0  0  0  0  0  0  0
  -26.0600  -38.3200   23.9340 H   0  0  0  0  0  0  0  0  0  0  0  0
  -26.4450  -31.7290   25.0990 C   0  0  1  0  0  0  0  0  0  0  0  0
  -25.3710  -31.4820   26.1850 C   0  0  0  0  0  1  0  0  0  0  0  0
  -27.0230  -30.3540   24.6830 C   0  0  0  0  0  1  0  0  0  0  0  0
  -27.6060  -32.5180   25.7470 C   0  0  0  0  0  1  0  0  0  0  0  0
  -31.1490  -21.1580   19.2770 C   0  0  0  0  0  2  0  0  0  0  0  0
  -29.8130  -19.4060   18.1580 C   0  0  0  0  0  1  0  0  0  0  0  0
  -30.1450  -20.0620   19.4520 N   0  0  1  0  0  4  0  0  0  0  0  0
  -29.2940  -20.4760   19.8020 H   0  0  0  0  0  0  0  0  0  0  0  0
  -30.6040  -19.0780   20.4870 C   0  0  0  0  0  2  0  0  0  0  0  0
  -29.9260  -17.6780   20.4600 C   0  0  0  0  0  2  0  0  0  0  0  0
  -30.4570  -16.7250   21.5550 C   0  0  0  0  0  2  0  0  0  0  0  0
  -30.6690  -14.4210   20.5870 C   0  0  0  0  0  0  0  0  0  0  0  0
  -30.3530  -12.3170   19.3330 C   0  0  0  0  0  2  0  0  0  0  0  0
  -29.3940  -12.5570   18.1470 C   0  0  0  0  0  2  0  0  0  0  0  0
  -27.9220  -12.4270   18.5850 C   0  0  0  0  0  2  0  0  0  0  0  0
  -27.6070  -13.2290   19.8750 C   0  0  0  0  0  3  0  0  0  0  0  0
  -28.6640  -12.9380   20.9640 C   0  0  0  0  0  2  0  0  0  0  0  0
  -29.9910  -13.2560   20.4060 N   0  0  0  0  0  0  0  0  0  0  0  0
  -31.7450  -14.6760   20.0380 O   0  0  0  0  0  0  0  0  0  0  0  0
  -30.0310  -15.3360   21.3350 N   0  0  0  0  0  0  0  0  0  0  0  0
  -29.1520  -15.0510   21.7400 H   0  0  0  0  0  0  0  0  0  0  0  0
  -25.2060  -13.8430   20.5740 C   0  0  0  0  0  0  0  0  0  0  0  0
  -24.1400  -13.0710   20.9490 C   0  0  0  0  0  0  0  0  0  0  0  0
  -24.5980  -11.7210   20.9170 C   0  0  0  0  0  0  0  0  0  0  0  0
  -26.2520  -12.9600   20.3500 N   0  0  0  0  0  0  0  0  0  0  0  0
  -25.8870  -11.6770   20.6070 N   0  0  0  0  0  0  0  0  0  0  0  0
  -23.8700  -10.4610   21.1100 C   0  0  0  0  0  0  0  0  0  0  0  0
  -24.3230   -9.4790   22.0180 C   0  0  0  0  0  3  0  0  0  0  0  0
  -23.5990   -8.2810   22.1980 C   0  0  0  0  0  3  0  0  0  0  0  0
  -22.4060   -8.0580   21.4700 C   0  0  0  0  0  0  0  0  0  0  0  0
  -21.9720   -9.0280   20.5480 C   0  0  0  0  0  3  0  0  0  0  0  0
  -22.6980  -10.2170   20.3680 C   0  0  0  0  0  3  0  0  0  0  0  0
  -21.6490   -6.9160   21.5600 O   0  0  0  0  0  0  0  0  0  0  0  0
  -21.6430   -6.1440   22.6940 C   0  0  0  0  0  0  0  0  0  0  0  0
  -21.2970   -6.6740   23.9560 C   0  0  0  0  0  3  0  0  0  0  0  0
  -21.2400   -5.8300   25.0830 C   0  0  0  0  0  3  0  0  0  0  0  0
  -21.5190   -4.4560   24.9480 C   0  0  0  0  0  0  0  0  0  0  0  0
  -21.8600   -3.9260   23.6910 C   0  0  0  0  0  3  0  0  0  0  0  0
  -21.9200   -4.7670   22.5670 C   0  0  0  0  0  0  0  0  0  0  0  0
  -22.2290   -4.2480   21.3560 F   0  0  0  0  0  0  0  0  0  0  0  0
  -21.4560   -3.6450   26.0280 F   0  0  0  0  0  0  0  0  0  0  0  0
  -22.7430  -13.5500   21.2270 C   0  0  0  0  0  0  0  0  0  0  0  0
  -22.0230  -12.8530   22.0980 N   0  0  0  0  0  0  0  0  0  0  0  0
  -22.3030  -14.5760   20.7110 O   0  0  0  0  0  0  0  0  0  0  0  0
  -22.3960  -12.0250   22.5380 H   0  0  0  0  0  0  0  0  0  0  0  0
  -21.0830  -13.1480   22.3290 H   0  0  0  0  0  0  0  0  0  0  0  0
  -25.3710  -15.2120   20.3910 N   0  0  0  0  0  0  0  0  0  0  0  0
  -24.6020  -15.8650   20.4980 H   0  0  0  0  0  0  0  0  0  0  0  0
  -26.2220  -15.6520   20.0650 H   0  0  0  0  0  0  0  0  0  0  0  0
  3  1  1  6
  2  3  1  0
  3 48  1  0
  3  4  1  0
  5  4  1  0
  6  7  1  0
  6  5  1  0
  7  9  1  0
  8 19  2  0
  9 14  1  0
 10 18  1  0
 10 20  1  0
 11 17  1  0
 11 13  1  0
 12 18  1  0
 13 12  1  0
 14 13  2  0
 15 16  1  0
 15  9  2  0
 16 11  2  0
 17 10  1  0
 18  8  1  0
 20 22  2  0
 21 20  1  0
 23 21  1  0
 24 33  2  0
 24 29  1  0
 25 21  1  0
 25 29  1  0
 26 25  1  0
 27 28  1  0
 27 26  1  0
 28 24  1  0
 29 30  2  0
 30 31  1  0
 32 31  2  0
 33 32  1  0
 34  8  1  0
 34 35  1  0
 34 44  1  0
 35 38  1  0
 36 40  1  0
 36 35  1  0
 37 36  2  0
 40 39  1  0
 42 40  1  0
 42 43  1  0
 42 41  1  0
 44 47  1  1
 44 45  1  0
 46 44  1  0
 48 50  1  0
 49 50  1  0
 50 51  1  1
 50 52  1  0
 53 52  1  0
 53 54  1  0
 55 63  1  0
 56 61  1  0
 57 58  1  0
 57 56  1  0
 59 58  1  0
 59 68  1  0
 59 60  1  0
 61 55  1  0
 61 60  1  0
 62 55  2  0
 63 54  1  0
 63 64  1  0
 65 66  2  0
 66 85  1  0
 67 66  1  0
 67 70  1  0
 68 65  1  0
 68 69  1  0
 69 67  2  0
 70 71  1  0
 71 72  2  0
 73 76  1  0
 73 72  1  0
 74 73  2  0
 75 74  1  0
 75 70  2  0
 76 77  1  0
 77 78  1  0
 78 79  2  0
 80 79  1  0
 80 84  1  0
 81 80  2  0
 82 77  2  0
 82 81  1  0
 83 82  1  0
 85 86  1  0
 86 89  1  0
 86 88  1  0
 87 85  2  0
 90 91  1  0
 90 65  1  0
 92 90  1  0
M  ISO  4   6 101   7 101  55 100  63 100
M  END
>  <TORSDO>  (74) 
F 24

>  <SCORE>  (74) 
-12.414

>  <name>  (74) 
74

>  <ligand_id>  (74) 
74

>  <original_smiles>  (74) 
[H]c1c([H])c([H])c2c(c1[H])C([H])([H])C([H])([H])C([H])([H])C2([H])N([H])C(=O)C1([H])N(C(=O)C([H])(N([H])C(=O)C([H])(N([H])C([H])([H])[H])C([H])([H])[H])C(C([H])([H])[H])(C([H])([H])[H])C([H])([H])[H])C([H])([H])c2c([H])c(OC([H])([H])C([H])([H])C([H])([H])C(C([H])([H])[H])(C([H])([H])[H])C([H])([H])[N+]([H])(C([H])([H])[H])C([H])([H])C([H])([H])C([H])([H])N([H])C(=O)N3C([H])([H])C([H])([H])C([H])([H])C([H])(n4nc(-c5c([H])c([H])c(Oc6c([H])c([H])c(F)c([H])c6F)c([H])c5[H])c(C(=O)N([H])[H])c4N([H])[H])C3([H])[H])c([H])c([H])c2C1([H])[H]

>  <smiles>  (74) 
[H]c1c([H])c([H])c2c(c1[H])C([H])([H])C([H])([H])C([H])([H])C2([H])N([H])C(=O)C1([H])N(C(=O)C([H])(N([H])C(=O)C([H])(N([H])C([H])([H])[H])C([H])([H])[H])C(C([H])([H])[H])(C([H])([H])[H])C([H])([H])[H])C([H])([H])c2c([H])c(OC([H])([H])C([H])([H])C([H])([H])C(C([H])([H])[H])(C([H])([H])[H])C([H])([H])[N+]([H])(C([H])([H])[H])C([H])([H])C([H])([H])C([H])([H])N([H])C(=O)N3C([H])([H])C([H])([H])C([H])([H])C([H])(n4nc(-c5c([H])c([H])c(Oc6c([H])c([H])c(F)c([H])c6F)c([H])c5[H])c(C(=O)N([H])[H])c4N([H])[H])C3([H])[H])c([H])c([H])c2C1([H])[H]

$$$$
75:0:0
     RDKit          3D

 92100  0  0  1  0  0  0  0  0999 V2000
  -29.1120  -21.8320   19.3060 C   0  0  0  0  0  3  0  0  0  0  0  0
  -29.1220  -20.4230   19.5080 C   0  0  0  0  0  0  0  0  0  0  0  0
  -29.5160  -19.8770   20.7620 C   0  0  0  0  0  0  0  0  0  0  0  0
  -29.4720  -22.7150   20.3490 C   0  0  0  0  0  0  0  0  0  0  0  0
  -29.8680  -20.8420   21.7580 C   0  0  0  0  0  0  0  0  0  0  0  0
  -28.6740  -19.5190   18.3740 C   0  0  0  0  0  1  0  0  0  0  0  0
  -29.8190  -22.1940   21.5540 N   0  0  0  0  0  0  0  0  0  0  0  0
  -31.3900  -21.2670   23.8000 C   0  0  0  0  0  1  0  0  0  0  0  0
  -30.2470  -20.4360   23.1840 C   0  0  0  0  0  2  0  0  0  0  0  0
  -29.3940  -18.3310   21.0530 C   0  0  0  0  0  2  0  0  0  0  0  0
  -30.6110  -17.3610   20.7620 C   0  0  0  0  0  2  0  0  0  0  0  0
  -31.0680  -14.8390   20.4820 C   0  0  0  0  0  0  0  0  0  0  0  0
  -30.8560  -12.6170   19.3900 C   0  0  0  0  0  2  0  0  0  0  0  0
  -29.9470  -12.7760   18.1530 C   0  0  0  0  0  2  0  0  0  0  0  0
  -28.4610  -12.6300   18.5450 C   0  0  0  0  0  2  0  0  0  0  0  0
  -28.0870  -13.4760   19.7920 C   0  0  0  0  0  3  0  0  0  0  0  0
  -29.1170  -13.2970   20.9290 C   0  0  0  0  0  2  0  0  0  0  0  0
  -30.4390  -13.6280   20.3820 N   0  0  0  0  0  0  0  0  0  0  0  0
  -32.2270  -15.0050   20.0880 O   0  0  0  0  0  0  0  0  0  0  0  0
  -30.2870  -15.8980   20.8460 N   0  0  0  0  0  0  0  0  0  0  0  0
  -29.3580  -15.6670   21.1610 H   0  0  0  0  0  0  0  0  0  0  0  0
  -25.6810  -14.0900   20.4530 C   0  0  0  0  0  0  0  0  0  0  0  0
  -24.6040  -13.3210   20.8030 C   0  0  0  0  0  0  0  0  0  0  0  0
  -25.0610  -11.9680   20.7840 C   0  0  0  0  0  0  0  0  0  0  0  0
  -26.7250  -13.2030   20.2450 N   0  0  0  0  0  0  0  0  0  0  0  0
  -26.3560  -11.9220   20.5020 N   0  0  0  0  0  0  0  0  0  0  0  0
  -24.3240  -10.7100   20.9620 C   0  0  0  0  0  0  0  0  0  0  0  0
  -24.7030   -9.7680   21.9420 C   0  0  0  0  0  3  0  0  0  0  0  0
  -23.9710   -8.5720   22.1050 C   0  0  0  0  0  3  0  0  0  0  0  0
  -22.8450   -8.3110   21.2870 C   0  0  0  0  0  0  0  0  0  0  0  0
  -22.4860   -9.2450   20.3000 C   0  0  0  0  0  3  0  0  0  0  0  0
  -23.2170  -10.4320   20.1340 C   0  0  0  0  0  3  0  0  0  0  0  0
  -22.0880   -7.1660   21.3600 O   0  0  0  0  0  0  0  0  0  0  0  0
  -21.9020   -6.4980   22.5430 C   0  0  0  0  0  0  0  0  0  0  0  0
  -21.3310   -7.1240   23.6730 C   0  0  0  0  0  3  0  0  0  0  0  0
  -21.0930   -6.3800   24.8470 C   0  0  0  0  0  3  0  0  0  0  0  0
  -21.4170   -5.0100   24.8900 C   0  0  0  0  0  0  0  0  0  0  0  0
  -21.9790   -4.3830   23.7640 C   0  0  0  0  0  3  0  0  0  0  0  0
  -22.2190   -5.1250   22.5930 C   0  0  0  0  0  0  0  0  0  0  0  0
  -22.7410   -4.5100   21.5040 F   0  0  0  0  0  0  0  0  0  0  0  0
  -21.1840   -4.2930   26.0140 F   0  0  0  0  0  0  0  0  0  0  0  0
  -23.2030  -13.8050   21.0460 C   0  0  0  0  0  0  0  0  0  0  0  0
  -22.4620  -13.1230   21.9130 N   0  0  0  0  0  0  0  0  0  0  0  0
  -22.7750  -14.8220   20.5020 O   0  0  0  0  0  0  0  0  0  0  0  0
  -22.8230  -12.3030   22.3760 H   0  0  0  0  0  0  0  0  0  0  0  0
  -21.5190  -13.4260   22.1120 H   0  0  0  0  0  0  0  0  0  0  0  0
  -25.8540  -15.4600   20.2740 N   0  0  0  0  0  0  0  0  0  0  0  0
  -25.0770  -16.1060   20.3560 H   0  0  0  0  0  0  0  0  0  0  0  0
  -26.6950  -15.8950   19.9170 H   0  0  0  0  0  0  0  0  0  0  0  0
  -29.6440  -24.2620   20.1360 C   0  0  0  0  0  3  0  0  0  0  0  0
  -28.3800  -25.1860   19.9290 C   0  0  0  0  0  3  0  0  0  0  0  0
  -28.5850  -26.6510   19.9980 O   0  0  0  0  0  0  0  0  0  0  0  0
  -24.6970  -31.7400   23.2830 C   0  0  0  0  0  0  0  0  0  0  0  0
  -27.4490  -27.4700   19.9770 C   0  0  0  0  0  0  0  0  0  0  0  0
  -23.5460  -30.4310   21.5330 C   0  0  0  0  0  3  0  0  0  0  0  0
  -25.0520  -29.0170   20.0290 C   0  0  0  0  0  0  0  0  0  0  0  0
  -26.0780  -30.8200   21.4120 C   0  0  0  0  0  2  0  0  0  0  0  0
  -26.1970  -29.4920   20.6780 C   0  0  0  0  0  0  0  0  0  0  0  0
  -27.4000  -28.7300   20.6460 C   0  0  0  0  0  3  0  0  0  0  0  0
  -26.2820  -27.0500   19.2970 C   0  0  0  0  0  3  0  0  0  0  0  0
  -25.0950  -27.8020   19.3290 C   0  0  0  0  0  3  0  0  0  0  0  0
  -23.7970  -29.8610   20.1130 C   0  0  0  0  0  2  0  0  0  0  0  0
  -24.7910  -31.0120   22.1340 N   0  0  0  0  0  0  0  0  0  0  0  0
  -23.6000  -31.9610   23.8180 O   0  0  0  0  0  0  0  0  0  0  0  0
  -22.8950  -29.3370   22.4110 C   0  0  0  0  0  0  0  0  0  0  0  0
  -21.5770  -29.1410   22.2510 N   0  0  0  0  0  0  0  0  0  0  0  0
  -23.5760  -28.6710   23.1960 O   0  0  0  0  0  0  0  0  0  0  0  0
  -21.0890  -29.7310   21.5920 H   0  0  0  0  0  0  0  0  0  0  0  0
  -18.2170  -27.8490   22.6070 C   0  0  0  0  0  0  0  0  0  0  0  0
  -20.7640  -28.1400   22.9430 C   0  0  0  0  0  3  0  0  0  0  0  0
  -20.9070  -26.7530   22.2740 C   0  0  0  0  0  2  0  0  0  0  0  0
  -19.8280  -26.4770   21.2230 C   0  0  0  0  0  2  0  0  0  0  0  0
  -18.4320  -26.5520   21.8470 C   0  0  0  0  0  2  0  0  0  0  0  0
  -19.3110  -28.6030   23.1070 C   0  0  0  0  0  0  0  0  0  0  0  0
  -19.0540  -29.8200   23.7740 C   0  0  0  0  0  3  0  0  0  0  0  0
  -17.7350  -30.2820   23.9490 C   0  0  0  0  0  3  0  0  0  0  0  0
  -16.6560  -29.5240   23.4630 C   0  0  0  0  0  3  0  0  0  0  0  0
  -16.8970  -28.3090   22.7980 C   0  0  0  0  0  3  0  0  0  0  0  0
  -25.9590  -32.3520   23.9680 C   0  0  0  0  0  3  0  0  0  0  0  0
  -25.6280  -33.7310   24.3510 N   0  0  0  0  0  0  0  0  0  0  0  0
  -25.9480  -34.8180   23.6360 C   0  0  0  0  0  0  0  0  0  0  0  0
  -26.6240  -34.7660   22.6060 O   0  0  0  0  0  0  0  0  0  0  0  0
  -25.0280  -33.8450   25.1540 H   0  0  0  0  0  0  0  0  0  0  0  0
  -24.1870  -36.5940   23.3540 C   0  0  0  0  0  1  0  0  0  0  0  0
  -25.4370  -36.1790   24.1470 C   0  0  0  0  0  3  0  0  0  0  0  0
  -27.5570  -37.0740   25.0050 C   0  0  0  0  0  1  0  0  0  0  0  0
  -26.4490  -37.2540   24.0710 N   0  0  0  0  0  0  0  0  0  0  0  0
  -26.0250  -38.1600   24.2490 H   0  0  0  0  0  0  0  0  0  0  0  0
  -26.4460  -31.5260   25.2220 C   0  0  1  0  0  0  0  0  0  0  0  0
  -25.3270  -31.2410   26.2510 C   0  0  0  0  0  1  0  0  0  0  0  0
  -27.0450  -30.1680   24.7860 C   0  0  0  0  0  1  0  0  0  0  0  0
  -27.5740  -32.2960   25.9490 C   0  0  0  0  0  1  0  0  0  0  0  0
  1  2  2  0
  1  4  1  0
  2  3  1  0
  3 10  1  0
  3  5  2  0
  4  7  2  0
  5  9  1  0
  6  2  1  0
  7  5  1  0
  9  8  1  0
 11 20  1  0
 11 10  1  0
 12 20  1  0
 13 18  1  0
 14 15  1  0
 14 13  1  0
 16 15  1  0
 16 25  1  0
 16 17  1  0
 18 12  1  0
 18 17  1  0
 19 12  2  0
 20 21  1  0
 22 23  2  0
 23 42  1  0
 24 23  1  0
 24 27  1  0
 25 22  1  0
 25 26  1  0
 26 24  2  0
 27 28  1  0
 28 29  2  0
 30 33  1  0
 30 29  1  0
 31 30  2  0
 32 31  1  0
 32 27  2  0
 33 34  1  0
 34 39  2  0
 34 35  1  0
 35 36  2  0
 36 37  1  0
 37 41  1  0
 38 37  2  0
 39 38  1  0
 40 39  1  0
 42 43  1  0
 43 46  1  0
 43 45  1  0
 44 42  2  0
 47 48  1  0
 47 22  1  0
 49 47  1  0
 50  4  1  0
 51 52  1  0
 51 50  2  0
 53 64  2  0
 54 52  1  0
 54 59  1  0
 55 63  1  0
 55 65  1  0
 56 62  1  0
 56 58  1  0
 57 63  1  0
 58 57  1  0
 59 58  2  0
 60 61  1  0
 60 54  2  0
 61 56  2  0
 62 55  1  0
 63 53  1  0
 65 67  2  0
 66 65  1  0
 68 66  1  0
 69 78  2  0
 69 74  1  0
 70 66  1  0
 70 74  1  0
 71 70  1  0
 72 73  1  0
 72 71  1  0
 73 69  1  0
 74 75  2  0
 75 76  1  0
 77 76  2  0
 78 77  1  0
 79 53  1  0
 79 80  1  0
 79 89  1  0
 80 83  1  0
 81 85  1  0
 81 80  1  0
 82 81  2  0
 85 84  1  0
 87 85  1  0
 87 88  1  0
 87 86  1  0
 89 92  1  1
 89 90  1  0
 91 89  1  0
M  ISO  4  12 100  20 100  51 101  52 101
M  END
>  <TORSDO>  (75) 
F 21

>  <SCORE>  (75) 
-12.769

>  <name>  (75) 
75

>  <ligand_id>  (75) 
75

>  <original_smiles>  (75) 
[H]c1c([H])c([H])c2c(c1[H])C([H])([H])C([H])([H])C([H])([H])C2([H])N([H])C(=O)C1([H])N(C(=O)C([H])(N([H])C(=O)C([H])(N([H])C([H])([H])[H])C([H])([H])[H])C(C([H])([H])[H])(C([H])([H])[H])C([H])([H])[H])C([H])([H])c2c([H])c(OC([H])([H])C([H])([H])c3nc(C([H])([H])C([H])([H])[H])c(C([H])([H])C([H])([H])N([H])C(=O)N4C([H])([H])C([H])([H])C([H])([H])C([H])(n5nc(-c6c([H])c([H])c(Oc7c([H])c([H])c(F)c([H])c7F)c([H])c6[H])c(C(=O)N([H])[H])c5N([H])[H])C4([H])[H])c(C([H])([H])[H])c3[H])c([H])c([H])c2C1([H])[H]

>  <smiles>  (75) 
[H]c1c([H])c([H])c2c(c1[H])C([H])([H])C([H])([H])C([H])([H])C2([H])N([H])C(=O)C1([H])N(C(=O)C([H])(N([H])C(=O)C([H])(N([H])C([H])([H])[H])C([H])([H])[H])C(C([H])([H])[H])(C([H])([H])[H])C([H])([H])[H])C([H])([H])c2c([H])c(OC([H])([H])C([H])([H])c3nc(C([H])([H])C([H])([H])[H])c(C([H])([H])C([H])([H])N([H])C(=O)N4C([H])([H])C([H])([H])C([H])([H])C([H])(n5nc(-c6c([H])c([H])c(Oc7c([H])c([H])c(F)c([H])c7F)c([H])c6[H])c(C(=O)N([H])[H])c5N([H])[H])C4([H])[H])c(C([H])([H])[H])c3[H])c([H])c([H])c2C1([H])[H]

$$$$
76:0:0
     RDKit          3D

 90 98  0  0  1  0  0  0  0  0999 V2000
  -29.7460  -21.2410   21.4350 C   0  0  0  0  0  0  0  0  0  0  0  0
  -28.6400  -19.7680   19.4920 C   0  0  0  0  0  0  0  0  0  0  0  0
  -28.8480  -21.9430   20.5460 C   0  0  0  0  0  0  0  0  0  0  0  0
  -29.5450  -19.0740   20.3800 C   0  0  0  0  0  0  0  0  0  0  0  0
  -30.4000  -21.9620   22.5980 C   0  0  0  0  0  1  0  0  0  0  0  0
  -28.0360  -19.0320   18.3140 C   0  0  0  0  0  1  0  0  0  0  0  0
  -28.2920  -21.1220   19.5870 N   0  0  0  0  0  0  0  0  0  0  0  0
  -30.0780  -19.8910   21.3460 N   0  0  0  0  0  0  0  0  0  0  0  0
  -28.3050  -23.4820   20.8220 C   0  0  0  0  0  2  0  0  0  0  0  0
  -28.4040  -24.8370   19.8630 C   0  0  0  0  0  2  0  0  0  0  0  0
  -28.3230  -26.3120   20.3330 O   0  0  0  0  0  0  0  0  0  0  0  0
  -24.6170  -31.9040   23.2500 C   0  0  0  0  0  0  0  0  0  0  0  0
  -27.2190  -27.2220   20.2310 C   0  0  0  0  0  0  0  0  0  0  0  0
  -23.4190  -30.4960   21.6150 C   0  0  0  0  0  3  0  0  0  0  0  0
  -24.8720  -28.9250   20.1930 C   0  0  0  0  0  0  0  0  0  0  0  0
  -25.9660  -30.7850   21.4410 C   0  0  0  0  0  2  0  0  0  0  0  0
  -26.0440  -29.3930   20.7970 C   0  0  0  0  0  0  0  0  0  0  0  0
  -27.2160  -28.5540   20.8000 C   0  0  0  0  0  3  0  0  0  0  0  0
  -26.0200  -26.8380   19.5930 C   0  0  0  0  0  3  0  0  0  0  0  0
  -24.8700  -27.6600   19.5780 C   0  0  0  0  0  3  0  0  0  0  0  0
  -23.6390  -29.8130   20.2390 C   0  0  0  0  0  2  0  0  0  0  0  0
  -24.6880  -31.0850   22.1570 N   0  0  0  0  0  0  0  0  0  0  0  0
  -23.5320  -32.1850   23.7800 O   0  0  0  0  0  0  0  0  0  0  0  0
  -22.7490  -29.4900   22.5820 C   0  0  0  0  0  0  0  0  0  0  0  0
  -21.4230  -29.3110   22.4550 N   0  0  0  0  0  0  0  0  0  0  0  0
  -23.4240  -28.8740   23.4110 O   0  0  0  0  0  0  0  0  0  0  0  0
  -20.9340  -29.8600   21.7630 H   0  0  0  0  0  0  0  0  0  0  0  0
  -18.0490  -28.0950   22.9560 C   0  0  0  0  0  0  0  0  0  0  0  0
  -20.6050  -28.3730   23.2300 C   0  0  0  0  0  3  0  0  0  0  0  0
  -20.7170  -26.9380   22.6640 C   0  0  0  0  0  2  0  0  0  0  0  0
  -19.6190  -26.6040   21.6480 C   0  0  0  0  0  2  0  0  0  0  0  0
  -18.2350  -26.7430   22.2870 C   0  0  0  0  0  2  0  0  0  0  0  0
  -19.1610  -28.8670   23.3840 C   0  0  0  0  0  0  0  0  0  0  0  0
  -18.9320  -30.1300   23.9710 C   0  0  0  0  0  3  0  0  0  0  0  0
  -17.6230  -30.6230   24.1330 C   0  0  0  0  0  3  0  0  0  0  0  0
  -16.5250  -29.8480   23.7200 C   0  0  0  0  0  3  0  0  0  0  0  0
  -16.7380  -28.5860   23.1370 C   0  0  0  0  0  3  0  0  0  0  0  0
  -25.8940  -32.5470   23.8740 C   0  0  0  0  0  3  0  0  0  0  0  0
  -26.4060  -31.7870   25.1610 C   0  0  1  0  0  0  0  0  0  0  0  0
  -25.3090  -31.5570   26.2270 C   0  0  0  0  0  1  0  0  0  0  0  0
  -26.9930  -30.4070   24.7860 C   0  0  0  0  0  1  0  0  0  0  0  0
  -27.5530  -32.5880   25.8210 C   0  0  0  0  0  1  0  0  0  0  0  0
  -25.5790  -33.9460   24.1980 N   0  0  0  0  0  0  0  0  0  0  0  0
  -25.9100  -35.0000   23.4390 C   0  0  0  0  0  0  0  0  0  0  0  0
  -26.5790  -34.8940   22.4060 O   0  0  0  0  0  0  0  0  0  0  0  0
  -24.9860  -34.1020   24.9990 H   0  0  0  0  0  0  0  0  0  0  0  0
  -24.1790  -36.7930   23.0840 C   0  0  0  0  0  1  0  0  0  0  0  0
  -25.4220  -36.3900   23.8940 C   0  0  0  0  0  3  0  0  0  0  0  0
  -27.5560  -37.2810   24.7210 C   0  0  0  0  0  1  0  0  0  0  0  0
  -26.4540  -37.4430   23.7760 N   0  0  0  0  0  0  0  0  0  0  0  0
  -26.0460  -38.3640   23.9210 H   0  0  0  0  0  0  0  0  0  0  0  0
  -30.2550  -17.6060   20.1280 C   0  0  0  0  0  2  0  0  0  0  0  0
  -30.5270  -14.9480   20.2990 C   0  0  0  0  0  0  0  0  0  0  0  0
  -30.3520  -12.6220   19.3370 C   0  0  0  0  0  2  0  0  0  0  0  0
  -29.4130  -12.6270   18.1090 C   0  0  0  0  0  2  0  0  0  0  0  0
  -27.9500  -12.4340   18.5480 C   0  0  0  0  0  2  0  0  0  0  0  0
  -27.5650  -13.3390   19.7480 C   0  0  0  0  0  3  0  0  0  0  0  0
  -28.6290  -13.3190   20.8670 C   0  0  0  0  0  2  0  0  0  0  0  0
  -29.9030  -13.7080   20.2530 N   0  0  0  0  0  0  0  0  0  0  0  0
  -31.7210  -14.9950   19.9850 O   0  0  0  0  0  0  0  0  0  0  0  0
  -29.7910  -16.1470   20.4610 N   0  0  0  0  0  0  0  0  0  0  0  0
  -28.8200  -16.0410   20.7070 H   0  0  0  0  0  0  0  0  0  0  0  0
  -25.1890  -13.9180   20.5020 C   0  0  0  0  0  0  0  0  0  0  0  0
  -24.1280  -13.1420   20.8780 C   0  0  0  0  0  0  0  0  0  0  0  0
  -24.5920  -11.7910   20.8400 C   0  0  0  0  0  0  0  0  0  0  0  0
  -26.2310  -13.0400   20.2540 N   0  0  0  0  0  0  0  0  0  0  0  0
  -25.8800  -11.7560   20.5230 N   0  0  0  0  0  0  0  0  0  0  0  0
  -23.8650  -10.5290   21.0330 C   0  0  0  0  0  0  0  0  0  0  0  0
  -24.2990   -9.5600   21.9650 C   0  0  0  0  0  3  0  0  0  0  0  0
  -23.5710   -8.3640   22.1440 C   0  0  0  0  0  3  0  0  0  0  0  0
  -22.3960   -8.1270   21.3910 C   0  0  0  0  0  0  0  0  0  0  0  0
  -21.9830   -9.0850   20.4480 C   0  0  0  0  0  3  0  0  0  0  0  0
  -22.7110  -10.2720   20.2660 C   0  0  0  0  0  3  0  0  0  0  0  0
  -21.6400   -6.9840   21.4800 O   0  0  0  0  0  0  0  0  0  0  0  0
  -21.5890   -6.2420   22.6340 C   0  0  0  0  0  0  0  0  0  0  0  0
  -21.1520   -6.7970   23.8570 C   0  0  0  0  0  3  0  0  0  0  0  0
  -21.0480   -5.9820   25.0010 C   0  0  0  0  0  3  0  0  0  0  0  0
  -21.3710   -4.6140   24.9260 C   0  0  0  0  0  0  0  0  0  0  0  0
  -21.8010   -4.0590   23.7070 C   0  0  0  0  0  3  0  0  0  0  0  0
  -21.9070   -4.8710   22.5640 C   0  0  0  0  0  0  0  0  0  0  0  0
  -22.3010   -4.3270   21.3880 F   0  0  0  0  0  0  0  0  0  0  0  0
  -21.2650   -3.8290   26.0230 F   0  0  0  0  0  0  0  0  0  0  0  0
  -22.7330  -13.6200   21.1580 C   0  0  0  0  0  0  0  0  0  0  0  0
  -22.0080  -12.9200   22.0240 N   0  0  0  0  0  0  0  0  0  0  0  0
  -22.2950  -14.6480   20.6440 O   0  0  0  0  0  0  0  0  0  0  0  0
  -22.3770  -12.0900   22.4620 H   0  0  0  0  0  0  0  0  0  0  0  0
  -21.0720  -13.2230   22.2540 H   0  0  0  0  0  0  0  0  0  0  0  0
  -25.3510  -15.2890   20.3280 N   0  0  0  0  0  0  0  0  0  0  0  0
  -24.5790  -15.9380   20.4420 H   0  0  0  0  0  0  0  0  0  0  0  0
  -26.1860  -15.7300   19.9670 H   0  0  0  0  0  0  0  0  0  0  0  0
  1  5  1  0
  2  7  2  0
  2  4  1  0
  3  9  1  0
  3  1  2  0
  4  8  2  0
  6  2  1  0
  7  3  1  0
  8  1  1  0
 10 11  1  0
 10  9  1  0
 12 23  2  0
 13 11  1  0
 13 18  1  0
 14 22  1  0
 14 24  1  0
 15 21  1  0
 15 17  1  0
 16 22  1  0
 17 18  2  0
 17 16  1  0
 19 13  2  0
 20 19  1  0
 20 15  2  0
 21 14  1  0
 22 12  1  0
 24 26  2  0
 25 24  1  0
 27 25  1  0
 28 37  2  0
 28 33  1  0
 29 25  1  0
 29 33  1  0
 30 29  1  0
 31 32  1  0
 31 30  1  0
 32 28  1  0
 33 34  2  0
 34 35  1  0
 36 35  2  0
 37 36  1  0
 38 12  1  0
 38 43  1  0
 38 39  1  0
 39 42  1  1
 39 40  1  0
 41 39  1  0
 43 46  1  0
 44 48  1  0
 44 43  1  0
 45 44  2  0
 48 47  1  0
 50 48  1  0
 50 51  1  0
 50 49  1  0
 52  4  1  0
 52 61  1  0
 53 61  1  0
 54 59  1  0
 55 56  1  0
 55 54  1  0
 57 56  1  0
 57 66  1  0
 57 58  1  0
 59 53  1  0
 59 58  1  0
 60 53  2  0
 61 62  1  0
 63 64  2  0
 64 83  1  0
 65 64  1  0
 65 68  1  0
 66 63  1  0
 66 67  1  0
 67 65  2  0
 68 69  1  0
 69 70  2  0
 71 74  1  0
 71 70  1  0
 72 71  2  0
 73 72  1  0
 73 68  2  0
 74 75  1  0
 75 76  1  0
 76 77  2  0
 78 77  1  0
 78 82  1  0
 79 78  2  0
 80 75  2  0
 80 79  1  0
 81 80  1  0
 83 84  1  0
 84 87  1  0
 84 86  1  0
 85 83  2  0
 88 89  1  0
 88 63  1  0
 90 88  1  0
M  ISO  4  10 101  11 101  53 100  61 100
M  END
>  <TORSDO>  (76) 
F 19

>  <SCORE>  (76) 
-14.466

>  <name>  (76) 
76

>  <ligand_id>  (76) 
76

>  <original_smiles>  (76) 
[H]c1c([H])c([H])c2c(c1[H])C([H])([H])C([H])([H])C([H])([H])C2([H])N([H])C(=O)C1([H])N(C(=O)C([H])(N([H])C(=O)C([H])(N([H])C([H])([H])[H])C([H])([H])[H])C(C([H])([H])[H])(C([H])([H])[H])C([H])([H])[H])C([H])([H])c2c([H])c(OC([H])([H])C([H])([H])c3nc(C([H])([H])[H])c(C([H])([H])N([H])C(=O)N4C([H])([H])C([H])([H])C([H])([H])C([H])(n5nc(-c6c([H])c([H])c(Oc7c([H])c([H])c(F)c([H])c7F)c([H])c6[H])c(C(=O)N([H])[H])c5N([H])[H])C4([H])[H])nc3C([H])([H])[H])c([H])c([H])c2C1([H])[H]

>  <smiles>  (76) 
[H]c1c([H])c([H])c2c(c1[H])C([H])([H])C([H])([H])C([H])([H])C2([H])N([H])C(=O)C1([H])N(C(=O)C([H])(N([H])C(=O)C([H])(N([H])C([H])([H])[H])C([H])([H])[H])C(C([H])([H])[H])(C([H])([H])[H])C([H])([H])[H])C([H])([H])c2c([H])c(OC([H])([H])C([H])([H])c3nc(C([H])([H])[H])c(C([H])([H])N([H])C(=O)N4C([H])([H])C([H])([H])C([H])([H])C([H])(n5nc(-c6c([H])c([H])c(Oc7c([H])c([H])c(F)c([H])c7F)c([H])c6[H])c(C(=O)N([H])[H])c5N([H])[H])C4([H])[H])nc3C([H])([H])[H])c([H])c([H])c2C1([H])[H]

$$$$
77:0:0
     RDKit          3D

 91 99  0  0  1  0  0  0  0  0999 V2000
  -27.5160  -20.1480   20.3130 C   0  0  0  0  0  3  0  0  0  0  0  0
  -27.2310  -22.2650   20.2390 C   0  0  0  0  0  0  0  0  0  0  0  0
  -28.5990  -22.0510   20.2180 C   0  0  0  0  0  0  0  0  0  0  0  0
  -26.4400  -23.5370   20.2840 C   0  0  0  0  0  1  0  0  0  0  0  0
  -26.5540  -21.0530   20.2620 N   0  0  0  0  0  0  0  0  0  0  0  0
  -28.7670  -20.6430   20.3220 N   0  0  0  0  0  0  0  0  0  0  0  0
  -29.7300  -23.0740   20.1740 C   0  0  0  0  0  2  0  0  0  0  0  0
  -29.4360  -24.5050   19.5830 C   0  0  0  0  0  3  0  0  0  0  0  0
  -29.1250  -25.6520   20.5980 C   0  0  0  0  0  3  0  0  0  0  0  0
  -29.1220  -26.9970   20.0510 O   0  0  0  0  0  0  0  0  0  0  0  0
  -24.8530  -31.6690   23.3830 C   0  0  0  0  0  0  0  0  0  0  0  0
  -27.9150  -27.6720   20.0720 C   0  0  0  0  0  0  0  0  0  0  0  0
  -23.8050  -30.3120   21.5990 C   0  0  0  0  0  3  0  0  0  0  0  0
  -25.4120  -29.0030   20.1090 C   0  0  0  0  0  0  0  0  0  0  0  0
  -26.2980  -30.8790   21.5050 C   0  0  0  0  0  2  0  0  0  0  0  0
  -26.5120  -29.5670   20.7680 C   0  0  0  0  0  0  0  0  0  0  0  0
  -27.7700  -28.9160   20.7390 C   0  0  0  0  0  3  0  0  0  0  0  0
  -26.7980  -27.1280   19.4040 C   0  0  0  0  0  3  0  0  0  0  0  0
  -25.5520  -27.7850   19.4200 C   0  0  0  0  0  3  0  0  0  0  0  0
  -24.1040  -29.7590   20.1790 C   0  0  0  0  0  2  0  0  0  0  0  0
  -25.0020  -30.9660   22.2220 N   0  0  0  0  0  0  0  0  0  0  0  0
  -23.7410  -31.8130   23.9100 O   0  0  0  0  0  0  0  0  0  0  0  0
  -23.2140  -29.1730   22.4610 C   0  0  0  0  0  0  0  0  0  0  0  0
  -21.9210  -28.8710   22.2530 N   0  0  0  0  0  0  0  0  0  0  0  0
  -23.9170  -28.5640   23.2720 O   0  0  0  0  0  0  0  0  0  0  0  0
  -21.4090  -29.4260   21.5820 H   0  0  0  0  0  0  0  0  0  0  0  0
  -18.6680  -27.3120   22.4760 C   0  0  0  0  0  0  0  0  0  0  0  0
  -21.1660  -27.8090   22.9170 C   0  0  0  0  0  3  0  0  0  0  0  0
  -21.4480  -26.4350   22.2680 C   0  0  0  0  0  2  0  0  0  0  0  0
  -20.4430  -26.0660   21.1730 C   0  0  0  0  0  2  0  0  0  0  0  0
  -19.0210  -26.0300   21.7400 C   0  0  0  0  0  2  0  0  0  0  0  0
  -19.6750  -28.1540   23.0160 C   0  0  0  0  0  0  0  0  0  0  0  0
  -19.2940  -29.3510   23.6610 C   0  0  0  0  0  3  0  0  0  0  0  0
  -17.9370  -29.7050   23.7780 C   0  0  0  0  0  3  0  0  0  0  0  0
  -16.9430  -28.8590   23.2560 C   0  0  0  0  0  3  0  0  0  0  0  0
  -17.3090  -27.6650   22.6080 C   0  0  0  0  0  3  0  0  0  0  0  0
  -26.0670  -32.3500   24.0880 C   0  0  0  0  0  3  0  0  0  0  0  0
  -25.6880  -33.7390   24.3840 N   0  0  0  0  0  0  0  0  0  0  0  0
  -26.0470  -34.7990   23.6470 C   0  0  0  0  0  0  0  0  0  0  0  0
  -26.7990  -34.7120   22.6740 O   0  0  0  0  0  0  0  0  0  0  0  0
  -25.0260  -33.8770   25.1330 H   0  0  0  0  0  0  0  0  0  0  0  0
  -24.2810  -36.5220   23.1590 C   0  0  0  0  0  1  0  0  0  0  0  0
  -25.4790  -36.1710   24.0560 C   0  0  0  0  0  3  0  0  0  0  0  0
  -27.5120  -37.1490   25.0250 C   0  0  0  0  0  1  0  0  0  0  0  0
  -26.4760  -37.2620   24.0010 N   0  0  0  0  0  0  0  0  0  0  0  0
  -26.0250  -38.1680   24.1070 H   0  0  0  0  0  0  0  0  0  0  0  0
  -26.5200  -31.6030   25.4020 C   0  0  1  0  0  0  0  0  0  0  0  0
  -25.3660  -31.3430   26.3980 C   0  0  0  0  0  1  0  0  0  0  0  0
  -27.1640  -30.2410   25.0570 C   0  0  0  0  0  1  0  0  0  0  0  0
  -27.6050  -32.4320   26.1300 C   0  0  0  0  0  1  0  0  0  0  0  0
  -29.9980  -19.8270   20.4180 C   0  0  0  0  0  2  0  0  0  0  0  0
  -29.7440  -18.2900   20.6500 C   0  0  0  0  0  2  0  0  0  0  0  0
  -30.9850  -17.3510   20.6920 C   0  0  0  0  0  2  0  0  0  0  0  0
  -31.4040  -14.8580   20.7130 C   0  0  0  0  0  0  0  0  0  0  0  0
  -31.1900  -12.5880   19.7680 C   0  0  0  0  0  2  0  0  0  0  0  0
  -30.3410  -12.6710   18.4830 C   0  0  0  0  0  2  0  0  0  0  0  0
  -28.8360  -12.5900   18.8110 C   0  0  0  0  0  2  0  0  0  0  0  0
  -28.4170  -13.5430   19.9620 C   0  0  0  0  0  3  0  0  0  0  0  0
  -29.3850  -13.4170   21.1620 C   0  0  0  0  0  2  0  0  0  0  0  0
  -30.7470  -13.6650   20.6690 N   0  0  0  0  0  0  0  0  0  0  0  0
  -32.5770  -14.9890   20.3570 O   0  0  0  0  0  0  0  0  0  0  0  0
  -30.6300  -15.9380   20.9640 N   0  0  0  0  0  0  0  0  0  0  0  0
  -29.6770  -15.7430   21.2330 H   0  0  0  0  0  0  0  0  0  0  0  0
  -26.0150  -14.2530   20.5490 C   0  0  0  0  0  0  0  0  0  0  0  0
  -24.8910  -13.5280   20.8430 C   0  0  0  0  0  0  0  0  0  0  0  0
  -25.2880  -12.1560   20.8090 C   0  0  0  0  0  0  0  0  0  0  0  0
  -27.0290  -13.3260   20.3580 N   0  0  0  0  0  0  0  0  0  0  0  0
  -26.5910  -12.0590   20.5750 N   0  0  0  0  0  0  0  0  0  0  0  0
  -24.4920  -10.9290   20.9290 C   0  0  0  0  0  0  0  0  0  0  0  0
  -24.7990   -9.9410   21.8890 C   0  0  0  0  0  3  0  0  0  0  0  0
  -24.0110   -8.7760   21.9960 C   0  0  0  0  0  3  0  0  0  0  0  0
  -22.8980   -8.5920   21.1410 C   0  0  0  0  0  0  0  0  0  0  0  0
  -22.6090   -9.5670   20.1700 C   0  0  0  0  0  3  0  0  0  0  0  0
  -23.3990  -10.7230   20.0620 C   0  0  0  0  0  3  0  0  0  0  0  0
  -22.0870   -7.4830   21.1560 O   0  0  0  0  0  0  0  0  0  0  0  0
  -21.8820   -6.7580   22.3020 C   0  0  0  0  0  0  0  0  0  0  0  0
  -21.3220   -7.3370   23.4610 C   0  0  0  0  0  3  0  0  0  0  0  0
  -21.0640   -6.5370   24.5930 C   0  0  0  0  0  3  0  0  0  0  0  0
  -21.3600   -5.1600   24.5650 C   0  0  0  0  0  0  0  0  0  0  0  0
  -21.9170   -4.5820   23.4100 C   0  0  0  0  0  3  0  0  0  0  0  0
  -22.1720   -5.3790   22.2810 C   0  0  0  0  0  0  0  0  0  0  0  0
  -22.6880   -4.8120   21.1620 F   0  0  0  0  0  0  0  0  0  0  0  0
  -21.1060   -4.3910   25.6490 F   0  0  0  0  0  0  0  0  0  0  0  0
  -23.5060  -14.0660   21.0460 C   0  0  0  0  0  0  0  0  0  0  0  0
  -22.6960  -13.3930   21.8590 N   0  0  0  0  0  0  0  0  0  0  0  0
  -23.1450  -15.1190   20.5190 O   0  0  0  0  0  0  0  0  0  0  0  0
  -22.9940  -12.5380   22.3050 H   0  0  0  0  0  0  0  0  0  0  0  0
  -21.7630  -13.7390   22.0330 H   0  0  0  0  0  0  0  0  0  0  0  0
  -26.2550  -15.6170   20.4080 N   0  0  0  0  0  0  0  0  0  0  0  0
  -25.5120  -16.3040   20.4770 H   0  0  0  0  0  0  0  0  0  0  0  0
  -27.1280  -16.0100   20.0810 H   0  0  0  0  0  0  0  0  0  0  0  0
  1  6  1  0
  2  5  1  0
  2  4  1  0
  3  2  2  0
  3  6  1  0
  5  1  2  0
  6 51  1  0
  7  3  1  0
  8  7  1  0
  8  9  2  0
 10 12  1  0
 10  9  1  0
 11 22  2  0
 12 17  1  0
 13 21  1  0
 13 23  1  0
 14 20  1  0
 14 16  1  0
 15 21  1  0
 16 15  1  0
 17 16  2  0
 18 19  1  0
 18 12  2  0
 19 14  2  0
 20 13  1  0
 21 11  1  0
 23 25  2  0
 24 23  1  0
 26 24  1  0
 27 36  2  0
 27 32  1  0
 28 24  1  0
 28 32  1  0
 29 28  1  0
 30 31  1  0
 30 29  1  0
 31 27  1  0
 32 33  2  0
 33 34  1  0
 35 34  2  0
 36 35  1  0
 37 11  1  0
 37 38  1  0
 37 47  1  0
 38 41  1  0
 39 43  1  0
 39 38  1  0
 40 39  2  0
 43 42  1  0
 45 43  1  0
 45 46  1  0
 45 44  1  0
 47 50  1  1
 47 48  1  0
 49 47  1  0
 51 52  1  0
 52 53  1  0
 53 62  1  0
 54 62  1  0
 55 60  1  0
 56 57  1  0
 56 55  1  0
 58 57  1  0
 58 67  1  0
 58 59  1  0
 60 54  1  0
 60 59  1  0
 61 54  2  0
 62 63  1  0
 64 65  2  0
 65 84  1  0
 66 65  1  0
 66 69  1  0
 67 64  1  0
 67 68  1  0
 68 66  2  0
 69 70  1  0
 70 71  2  0
 72 75  1  0
 72 71  1  0
 73 72  2  0
 74 73  1  0
 74 69  2  0
 75 76  1  0
 76 77  1  0
 77 78  2  0
 79 78  1  0
 79 83  1  0
 80 79  2  0
 81 76  2  0
 81 80  1  0
 82 81  1  0
 84 85  1  0
 85 88  1  0
 85 87  1  0
 86 84  2  0
 89 90  1  0
 89 64  1  0
 91 89  1  0
M  ISO  4   9 101  10 101  54 100  62 100
M  END
>  <TORSDO>  (77) 
F 22

>  <SCORE>  (77) 
-10.217

>  <name>  (77) 
77

>  <ligand_id>  (77) 
77

>  <original_smiles>  (77) 
[H]c1c([H])c([H])c2c(c1[H])C([H])([H])C([H])([H])C([H])([H])C2([H])N([H])C(=O)C1([H])N(C(=O)C([H])(N([H])C(=O)C([H])(N([H])C([H])([H])[H])C([H])([H])[H])C(C([H])([H])[H])(C([H])([H])[H])C([H])([H])[H])C([H])([H])c2c([H])c(OC([H])([H])C([H])([H])C([H])([H])c3c(C([H])([H])[H])nc([H])n3C([H])([H])C([H])([H])C([H])([H])N([H])C(=O)N3C([H])([H])C([H])([H])C([H])([H])C([H])(n4nc(-c5c([H])c([H])c(Oc6c([H])c([H])c(F)c([H])c6F)c([H])c5[H])c(C(=O)N([H])[H])c4N([H])[H])C3([H])[H])c([H])c([H])c2C1([H])[H]

>  <smiles>  (77) 
[H]c1c([H])c([H])c2c(c1[H])C([H])([H])C([H])([H])C([H])([H])C2([H])N([H])C(=O)C1([H])N(C(=O)C([H])(N([H])C(=O)C([H])(N([H])C([H])([H])[H])C([H])([H])[H])C(C([H])([H])[H])(C([H])([H])[H])C([H])([H])[H])C([H])([H])c2c([H])c(OC([H])([H])C([H])([H])C([H])([H])c3c(C([H])([H])[H])nc([H])n3C([H])([H])C([H])([H])C([H])([H])N([H])C(=O)N3C([H])([H])C([H])([H])C([H])([H])C([H])(n4nc(-c5c([H])c([H])c(Oc6c([H])c([H])c(F)c([H])c6F)c([H])c5[H])c(C(=O)N([H])[H])c4N([H])[H])C3([H])[H])c([H])c([H])c2C1([H])[H]

$$$$
78:0:0
     RDKit          3D

 93101  0  0  1  0  0  0  0  0999 V2000
  -29.3040  -22.0190   20.3370 C   0  0  0  0  0  0  0  0  0  0  0  0
  -28.9540  -23.2630   19.5950 C   0  0  0  0  0  0  0  0  0  0  0  0
  -28.6510  -22.1980   21.5420 C   0  0  0  0  0  0  0  0  0  0  0  0
  -28.6900  -21.4130   22.8210 C   0  0  0  0  0  1  0  0  0  0  0  0
  -28.0960  -23.9780   20.3060 N   0  0  0  0  0  0  0  0  0  0  0  0
  -27.8880  -23.3410   21.4600 N   0  0  0  0  0  0  0  0  0  0  0  0
  -30.2570  -20.7850   20.1030 C   0  0  0  0  0  2  0  0  0  0  0  0
  -29.7030  -19.2760   20.3380 C   0  0  0  0  0  3  0  0  0  0  0  0
  -30.7130  -18.1050   20.7860 C   0  0  0  0  0  3  0  0  0  0  0  0
  -31.0170  -15.5240   20.5720 C   0  0  0  0  0  0  0  0  0  0  0  0
  -30.8650  -13.2570   19.5560 C   0  0  0  0  0  2  0  0  0  0  0  0
  -30.0000  -13.3290   18.2790 C   0  0  0  0  0  2  0  0  0  0  0  0
  -28.5090  -13.1500   18.6250 C   0  0  0  0  0  2  0  0  0  0  0  0
  -28.0600  -14.0410   19.8140 C   0  0  0  0  0  3  0  0  0  0  0  0
  -29.0530  -13.9690   20.9940 C   0  0  0  0  0  2  0  0  0  0  0  0
  -30.3830  -14.3100   20.4730 N   0  0  0  0  0  0  0  0  0  0  0  0
  -32.2160  -15.6270   20.3050 O   0  0  0  0  0  0  0  0  0  0  0  0
  -30.2510  -16.6550   20.7660 N   0  0  0  0  0  0  0  0  0  0  0  0
  -29.2670  -16.4910   20.9230 H   0  0  0  0  0  0  0  0  0  0  0  0
  -25.6280  -14.6110   20.4000 C   0  0  0  0  0  0  0  0  0  0  0  0
  -24.5490  -13.8280   20.7120 C   0  0  0  0  0  0  0  0  0  0  0  0
  -25.0260  -12.4810   20.7130 C   0  0  0  0  0  0  0  0  0  0  0  0
  -26.6920  -13.7410   20.2280 N   0  0  0  0  0  0  0  0  0  0  0  0
  -26.3330  -12.4550   20.4790 N   0  0  0  0  0  0  0  0  0  0  0  0
  -24.3010  -11.2130   20.8660 C   0  0  0  0  0  0  0  0  0  0  0  0
  -24.6920  -10.2490   21.8230 C   0  0  0  0  0  3  0  0  0  0  0  0
  -23.9680   -9.0450   21.9640 C   0  0  0  0  0  3  0  0  0  0  0  0
  -22.8400   -8.7950   21.1480 C   0  0  0  0  0  0  0  0  0  0  0  0
  -22.4680   -9.7470   20.1820 C   0  0  0  0  0  3  0  0  0  0  0  0
  -23.1930  -10.9430   20.0390 C   0  0  0  0  0  3  0  0  0  0  0  0
  -22.0920   -7.6440   21.1960 O   0  0  0  0  0  0  0  0  0  0  0  0
  -21.9670   -6.9150   22.3520 C   0  0  0  0  0  0  0  0  0  0  0  0
  -21.4540   -7.4820   23.5380 C   0  0  0  0  0  3  0  0  0  0  0  0
  -21.2790   -6.6810   24.6840 C   0  0  0  0  0  3  0  0  0  0  0  0
  -21.6040   -5.3110   24.6420 C   0  0  0  0  0  0  0  0  0  0  0  0
  -22.1090   -4.7440   23.4590 C   0  0  0  0  0  3  0  0  0  0  0  0
  -22.2870   -5.5430   22.3170 C   0  0  0  0  0  0  0  0  0  0  0  0
  -22.7540   -4.9860   21.1740 F   0  0  0  0  0  0  0  0  0  0  0  0
  -21.4280   -4.5380   25.7390 F   0  0  0  0  0  0  0  0  0  0  0  0
  -23.1340  -14.2920   20.8990 C   0  0  0  0  0  0  0  0  0  0  0  0
  -22.3690  -13.6060   21.7410 N   0  0  0  0  0  0  0  0  0  0  0  0
  -22.7110  -15.3000   20.3320 O   0  0  0  0  0  0  0  0  0  0  0  0
  -22.7230  -12.7920   22.2220 H   0  0  0  0  0  0  0  0  0  0  0  0
  -21.4180  -13.9000   21.9090 H   0  0  0  0  0  0  0  0  0  0  0  0
  -25.7870  -15.9830   20.2260 N   0  0  0  0  0  0  0  0  0  0  0  0
  -25.0050  -16.6270   20.2800 H   0  0  0  0  0  0  0  0  0  0  0  0
  -26.6430  -16.4280   19.9210 H   0  0  0  0  0  0  0  0  0  0  0  0
  -29.4330  -24.0690   18.3260 C   0  0  0  0  0  2  0  0  0  0  0  0
  -28.3740  -25.0600   17.6090 C   0  0  0  0  0  2  0  0  0  0  0  0
  -28.4730  -26.5570   17.6270 O   0  0  0  0  0  0  0  0  0  0  0  0
  -24.6290  -30.3560   22.4620 C   0  0  0  0  0  0  0  0  0  0  0  0
  -27.2940  -27.2760   17.9350 C   0  0  0  0  0  0  0  0  0  0  0  0
  -23.3860  -29.3780   20.5680 C   0  0  0  0  0  3  0  0  0  0  0  0
  -24.8050  -28.5290   18.6190 C   0  0  0  0  0  0  0  0  0  0  0  0
  -25.8510  -30.0470   20.2940 C   0  0  0  0  0  2  0  0  0  0  0  0
  -25.9870  -28.9500   19.2420 C   0  0  0  0  0  0  0  0  0  0  0  0
  -27.2330  -28.3400   18.8930 C   0  0  0  0  0  3  0  0  0  0  0  0
  -26.0780  -26.9270   17.3030 C   0  0  0  0  0  3  0  0  0  0  0  0
  -24.8520  -27.5270   17.6420 C   0  0  0  0  0  3  0  0  0  0  0  0
  -23.5060  -29.1880   19.0340 C   0  0  0  0  0  2  0  0  0  0  0  0
  -24.6450  -29.9290   21.1650 N   0  0  0  0  0  0  0  0  0  0  0  0
  -23.5920  -30.3220   23.1390 O   0  0  0  0  0  0  0  0  0  0  0  0
  -22.9350  -28.0440   21.2100 C   0  0  0  0  0  0  0  0  0  0  0  0
  -21.6310  -27.7370   21.1180 N   0  0  0  0  0  0  0  0  0  0  0  0
  -23.7560  -27.3010   21.7560 O   0  0  0  0  0  0  0  0  0  0  0  0
  -21.0190  -28.4010   20.6650 H   0  0  0  0  0  0  0  0  0  0  0  0
  -18.4630  -26.0250   21.4730 C   0  0  0  0  0  0  0  0  0  0  0  0
  -20.9980  -26.5140   21.6170 C   0  0  0  0  0  3  0  0  0  0  0  0
  -21.1760  -25.3490   20.6160 C   0  0  0  0  0  2  0  0  0  0  0  0
  -20.0050  -25.2080   19.6390 C   0  0  0  0  0  2  0  0  0  0  0  0
  -18.6950  -24.9760   20.3980 C   0  0  0  0  0  2  0  0  0  0  0  0
  -19.5420  -26.7570   22.0340 C   0  0  0  0  0  0  0  0  0  0  0  0
  -19.2680  -27.7440   23.0050 C   0  0  0  0  0  3  0  0  0  0  0  0
  -17.9460  -28.0000   23.4180 C   0  0  0  0  0  3  0  0  0  0  0  0
  -16.8840  -27.2630   22.8690 C   0  0  0  0  0  3  0  0  0  0  0  0
  -17.1430  -26.2750   21.9030 C   0  0  0  0  0  3  0  0  0  0  0  0
  -25.9080  -30.9290   23.1480 C   0  0  0  0  0  3  0  0  0  0  0  0
  -25.5410  -32.2080   23.7710 N   0  0  0  0  0  0  0  0  0  0  0  0
  -25.8500  -33.4140   23.2760 C   0  0  0  0  0  0  0  0  0  0  0  0
  -26.5420  -33.5640   22.2650 O   0  0  0  0  0  0  0  0  0  0  0  0
  -24.9290  -32.1620   24.5730 H   0  0  0  0  0  0  0  0  0  0  0  0
  -24.1150  -35.2350   23.2450 C   0  0  0  0  0  1  0  0  0  0  0  0
  -25.3070  -34.6500   24.0190 C   0  0  0  0  0  3  0  0  0  0  0  0
  -27.3600  -35.3190   25.1880 C   0  0  0  0  0  1  0  0  0  0  0  0
  -26.3240  -35.7020   24.2340 N   0  0  0  0  0  0  0  0  0  0  0  0
  -25.8900  -36.5600   24.5640 H   0  0  0  0  0  0  0  0  0  0  0  0
  -26.5300  -29.9480   24.2160 C   0  0  1  0  0  0  0  0  0  0  0  0
  -25.5110  -29.4360   25.2600 C   0  0  0  0  0  1  0  0  0  0  0  0
  -27.1570  -28.7130   23.5270 C   0  0  0  0  0  1  0  0  0  0  0  0
  -27.6740  -30.6580   24.9760 C   0  0  0  0  0  1  0  0  0  0  0  0
  -26.9700  -23.9280   22.4260 C   0  0  0  0  0  2  0  0  0  0  0  0
  -24.5840  -24.7610   22.7880 C   0  0  0  0  0  1  0  0  0  0  0  0
  -25.5290  -23.9500   21.8940 C   0  0  0  0  0  2  0  0  0  0  0  0
  1  3  2  0
  2  5  2  0
  2  1  1  0
  3  4  1  0
  5  6  1  0
  6  3  1  0
  6 91  1  0
  7  1  1  0
  7  8  1  0
  8  9  2  0
 10 18  1  0
 11 16  1  0
 12 13  1  0
 12 11  1  0
 14 13  1  0
 14 23  1  0
 14 15  1  0
 16 10  1  0
 16 15  1  0
 17 10  2  0
 18  9  1  0
 18 19  1  0
 20 21  2  0
 21 22  1  0
 21 40  1  0
 22 25  1  0
 23 20  1  0
 23 24  1  0
 24 22  2  0
 25 26  1  0
 26 27  2  0
 28 31  1  0
 28 27  1  0
 29 28  2  0
 30 29  1  0
 30 25  2  0
 31 32  1  0
 32 33  1  0
 33 34  2  0
 35 34  1  0
 35 39  1  0
 36 35  2  0
 37 32  2  0
 37 36  1  0
 38 37  1  0
 40 41  1  0
 41 44  1  0
 41 43  1  0
 42 40  2  0
 45 46  1  0
 45 20  1  0
 47 45  1  0
 48  2  1  0
 49 50  1  0
 49 48  1  0
 50 52  1  0
 51 62  2  0
 52 57  1  0
 53 61  1  0
 53 63  1  0
 54 60  1  0
 54 56  1  0
 55 61  1  0
 56 55  1  0
 57 56  2  0
 58 59  1  0
 58 52  2  0
 59 54  2  0
 60 53  1  0
 61 51  1  0
 63 65  2  0
 64 63  1  0
 66 64  1  0
 67 76  2  0
 67 72  1  0
 68 64  1  0
 68 72  1  0
 69 68  1  0
 70 71  1  0
 70 69  1  0
 71 67  1  0
 72 73  2  0
 73 74  1  0
 75 74  2  0
 76 75  1  0
 77 51  1  0
 77 78  1  0
 77 87  1  0
 78 81  1  0
 79 78  1  0
 79 83  1  0
 80 79  2  0
 83 82  1  0
 83 85  1  0
 85 86  1  0
 85 84  1  0
 87 90  1  1
 87 88  1  0
 89 87  1  0
 93 91  1  0
 93 92  1  0
M  ISO  4  10 100  18 100  49 101  50 101
M  END
>  <TORSDO>  (78) 
F 23

>  <SCORE>  (78) 
-7.831

>  <name>  (78) 
78

>  <ligand_id>  (78) 
78

>  <original_smiles>  (78) 
[H]c1c([H])c([H])c2c(c1[H])C([H])([H])C([H])([H])C([H])([H])C2([H])N([H])C(=O)C1([H])N(C(=O)C([H])(N([H])C(=O)C([H])(N([H])C([H])([H])[H])C([H])([H])[H])C(C([H])([H])[H])(C([H])([H])[H])C([H])([H])[H])C([H])([H])c2c([H])c(OC([H])([H])C([H])([H])c3nn(C([H])([H])C([H])([H])C([H])([H])[H])c(C([H])([H])[H])c3C([H])([H])C([H])([H])C([H])([H])N([H])C(=O)N3C([H])([H])C([H])([H])C([H])([H])C([H])(n4nc(-c5c([H])c([H])c(Oc6c([H])c([H])c(F)c([H])c6F)c([H])c5[H])c(C(=O)N([H])[H])c4N([H])[H])C3([H])[H])c([H])c([H])c2C1([H])[H]

>  <smiles>  (78) 
[H]c1c([H])c([H])c2c(c1[H])C([H])([H])C([H])([H])C([H])([H])C2([H])N([H])C(=O)C1([H])N(C(=O)C([H])(N([H])C(=O)C([H])(N([H])C([H])([H])[H])C([H])([H])[H])C(C([H])([H])[H])(C([H])([H])[H])C([H])([H])[H])C([H])([H])c2c([H])c(OC([H])([H])C([H])([H])c3nn(C([H])([H])C([H])([H])C([H])([H])[H])c(C([H])([H])[H])c3C([H])([H])C([H])([H])C([H])([H])N([H])C(=O)N3C([H])([H])C([H])([H])C([H])([H])C([H])(n4nc(-c5c([H])c([H])c(Oc6c([H])c([H])c(F)c([H])c6F)c([H])c5[H])c(C(=O)N([H])[H])c4N([H])[H])C3([H])[H])c([H])c([H])c2C1([H])[H]

$$$$
79:0:0
     RDKit          3D

 93101  0  0  1  0  0  0  0  0999 V2000
  -30.1300  -23.2430   20.1990 C   0  0  0  0  0  0  0  0  0  0  0  0
  -28.9920  -22.5250   19.8920 C   0  0  0  0  0  0  0  0  0  0  0  0
  -28.6440  -24.9280   19.8770 C   0  0  0  0  0  0  0  0  0  0  0  0
  -31.5010  -22.7070   20.4790 C   0  0  0  0  0  1  0  0  0  0  0  0
  -29.9140  -24.6390   20.1800 N   0  0  0  0  0  0  0  0  0  0  0  0
  -28.0170  -23.6500   19.7390 N   0  0  0  0  0  0  0  0  0  0  0  0
  -28.2940  -26.3450   19.7420 O   0  0  0  0  0  0  0  0  0  0  0  0
  -24.6760  -31.9080   23.0840 C   0  0  0  0  0  0  0  0  0  0  0  0
  -27.1550  -27.2460   19.8230 C   0  0  0  0  0  0  0  0  0  0  0  0
  -23.4290  -30.5690   21.4310 C   0  0  0  0  0  3  0  0  0  0  0  0
  -24.8300  -29.0290   19.9160 C   0  0  0  0  0  0  0  0  0  0  0  0
  -25.9770  -30.8220   21.2100 C   0  0  0  0  0  2  0  0  0  0  0  0
  -26.0240  -29.4420   20.5170 C   0  0  0  0  0  0  0  0  0  0  0  0
  -27.1740  -28.5620   20.4600 C   0  0  0  0  0  3  0  0  0  0  0  0
  -25.9470  -26.9730   19.1510 C   0  0  0  0  0  3  0  0  0  0  0  0
  -24.8070  -27.8100   19.2220 C   0  0  0  0  0  3  0  0  0  0  0  0
  -23.6120  -29.9370   20.0240 C   0  0  0  0  0  2  0  0  0  0  0  0
  -24.7160  -31.1240   21.9620 N   0  0  0  0  0  0  0  0  0  0  0  0
  -23.6060  -32.1750   23.6500 O   0  0  0  0  0  0  0  0  0  0  0  0
  -22.7790  -29.5300   22.3780 C   0  0  0  0  0  0  0  0  0  0  0  0
  -21.4520  -29.3430   22.2640 N   0  0  0  0  0  0  0  0  0  0  0  0
  -23.4700  -28.8930   23.1780 O   0  0  0  0  0  0  0  0  0  0  0  0
  -20.9470  -29.9030   21.5910 H   0  0  0  0  0  0  0  0  0  0  0  0
  -18.0920  -28.1200   22.8360 C   0  0  0  0  0  0  0  0  0  0  0  0
  -20.6580  -28.3760   23.0260 C   0  0  0  0  0  3  0  0  0  0  0  0
  -20.7370  -26.9680   22.3910 C   0  0  0  0  0  2  0  0  0  0  0  0
  -19.6020  -26.6890   21.4010 C   0  0  0  0  0  2  0  0  0  0  0  0
  -18.2450  -26.8020   22.0960 C   0  0  0  0  0  2  0  0  0  0  0  0
  -19.2240  -28.8670   23.2580 C   0  0  0  0  0  0  0  0  0  0  0  0
  -19.0210  -30.1040   23.9110 C   0  0  0  0  0  3  0  0  0  0  0  0
  -17.7200  -30.5880   24.1460 C   0  0  0  0  0  3  0  0  0  0  0  0
  -16.6030  -29.8380   23.7340 C   0  0  0  0  0  3  0  0  0  0  0  0
  -16.7930  -28.6050   23.0820 C   0  0  0  0  0  3  0  0  0  0  0  0
  -25.9720  -32.5240   23.6950 C   0  0  0  0  0  3  0  0  0  0  0  0
  -25.6600  -33.9010   24.1140 N   0  0  0  0  0  0  0  0  0  0  0  0
  -25.9360  -35.0000   23.3990 C   0  0  0  0  0  0  0  0  0  0  0  0
  -26.5490  -34.9620   22.3300 O   0  0  0  0  0  0  0  0  0  0  0  0
  -25.1080  -34.0030   24.9530 H   0  0  0  0  0  0  0  0  0  0  0  0
  -24.1570  -36.7720   23.2480 C   0  0  0  0  0  1  0  0  0  0  0  0
  -25.4570  -36.3560   23.9560 C   0  0  0  0  0  3  0  0  0  0  0  0
  -27.6290  -37.2400   24.6880 C   0  0  0  0  0  1  0  0  0  0  0  0
  -26.4620  -37.4340   23.8310 N   0  0  0  0  0  0  0  0  0  0  0  0
  -26.0510  -38.3360   24.0530 H   0  0  0  0  0  0  0  0  0  0  0  0
  -26.5330  -31.6970   24.9170 C   0  0  1  0  0  0  0  0  0  0  0  0
  -25.4800  -31.4060   26.0110 C   0  0  0  0  0  1  0  0  0  0  0  0
  -27.1030  -30.3390   24.4470 C   0  0  0  0  0  1  0  0  0  0  0  0
  -27.7050  -32.4620   25.5750 C   0  0  0  0  0  1  0  0  0  0  0  0
  -28.8740  -20.8730   19.6130 C   0  0  0  0  0  2  0  0  0  0  0  0
  -29.4770  -19.4990   20.4620 C   0  0  0  0  0  2  0  0  0  0  0  0
  -29.9680  -17.9720   19.8230 C   0  0  0  0  0  2  0  0  0  0  0  0
  -30.7010  -15.2970   20.3530 C   0  0  0  0  0  0  0  0  0  0  0  0
  -30.6910  -12.8790   19.5540 C   0  0  0  0  0  2  0  0  0  0  0  0
  -29.7990  -12.7110   18.3000 C   0  0  0  0  0  2  0  0  0  0  0  0
  -28.3310  -12.4780   18.7010 C   0  0  0  0  0  2  0  0  0  0  0  0
  -27.8610  -13.4610   19.8040 C   0  0  0  0  0  3  0  0  0  0  0  0
  -28.8760  -13.5720   20.9620 C   0  0  0  0  0  2  0  0  0  0  0  0
  -30.1510  -14.0070   20.3770 N   0  0  0  0  0  0  0  0  0  0  0  0
  -31.9000  -15.3640   20.0540 O   0  0  0  0  0  0  0  0  0  0  0  0
  -29.8940  -16.4870   20.4510 N   0  0  0  0  0  0  0  0  0  0  0  0
  -28.9670  -16.2650   20.7810 H   0  0  0  0  0  0  0  0  0  0  0  0
  -25.4640  -14.0290   20.4910 C   0  0  0  0  0  0  0  0  0  0  0  0
  -24.3960  -13.2500   20.8420 C   0  0  0  0  0  0  0  0  0  0  0  0
  -24.8680  -11.9010   20.8270 C   0  0  0  0  0  0  0  0  0  0  0  0
  -26.5160  -13.1550   20.2780 N   0  0  0  0  0  0  0  0  0  0  0  0
  -26.1660  -11.8700   20.5470 N   0  0  0  0  0  0  0  0  0  0  0  0
  -24.1440  -10.6360   21.0050 C   0  0  0  0  0  0  0  0  0  0  0  0
  -24.5380   -9.6880   21.9760 C   0  0  0  0  0  3  0  0  0  0  0  0
  -23.8120   -8.4880   22.1420 C   0  0  0  0  0  3  0  0  0  0  0  0
  -22.6760   -8.2290   21.3370 C   0  0  0  0  0  0  0  0  0  0  0  0
  -22.3030   -9.1650   20.3560 C   0  0  0  0  0  3  0  0  0  0  0  0
  -23.0300  -10.3550   20.1900 C   0  0  0  0  0  3  0  0  0  0  0  0
  -21.9260   -7.0810   21.4110 O   0  0  0  0  0  0  0  0  0  0  0  0
  -21.7990   -6.3800   22.5830 C   0  0  0  0  0  0  0  0  0  0  0  0
  -21.2910   -6.9770   23.7570 C   0  0  0  0  0  3  0  0  0  0  0  0
  -21.1100   -6.2020   24.9200 C   0  0  0  0  0  3  0  0  0  0  0  0
  -21.4240   -4.8300   24.9080 C   0  0  0  0  0  0  0  0  0  0  0  0
  -21.9220   -4.2310   23.7370 C   0  0  0  0  0  3  0  0  0  0  0  0
  -22.1040   -5.0030   22.5770 C   0  0  0  0  0  0  0  0  0  0  0  0
  -22.5650   -4.4170   21.4450 F   0  0  0  0  0  0  0  0  0  0  0  0
  -21.2420   -4.0830   26.0220 F   0  0  0  0  0  0  0  0  0  0  0  0
  -22.9910  -13.7210   21.0740 C   0  0  0  0  0  0  0  0  0  0  0  0
  -22.2470  -13.0290   21.9300 N   0  0  0  0  0  0  0  0  0  0  0  0
  -22.5590  -14.7370   20.5310 O   0  0  0  0  0  0  0  0  0  0  0  0
  -22.6100  -12.2080   22.3920 H   0  0  0  0  0  0  0  0  0  0  0  0
  -21.3010  -13.3220   22.1240 H   0  0  0  0  0  0  0  0  0  0  0  0
  -25.6260  -15.3990   20.3080 N   0  0  0  0  0  0  0  0  0  0  0  0
  -24.8590  -16.0530   20.4090 H   0  0  0  0  0  0  0  0  0  0  0  0
  -26.4660  -15.8300   19.9420 H   0  0  0  0  0  0  0  0  0  0  0  0
  -26.6140  -23.3900   19.4640 C   0  0  0  0  0  2  0  0  0  0  0  0
  -25.6530  -24.3680   20.1730 C   0  0  0  0  0  2  0  0  0  0  0  0
  -24.2660  -24.9670   22.2070 C   0  0  0  0  0  1  0  0  0  0  0  0
  -26.7180  -24.6360   22.5160 C   0  0  0  0  0  1  0  0  0  0  0  0
  -25.4920  -24.1890   21.7040 C   0  0  0  0  0  3  0  0  0  0  0  0
  1  4  1  0
  2  1  2  0
  3  5  2  0
  5  1  1  0
  6  3  1  0
  6  2  1  0
  7  9  1  0
  7  3  1  0
  8 19  2  0
  9 14  1  0
 10 18  1  0
 10 20  1  0
 11 17  1  0
 11 13  1  0
 12 18  1  0
 13 12  1  0
 14 13  2  0
 15 16  1  0
 15  9  2  0
 16 11  2  0
 17 10  1  0
 18  8  1  0
 20 22  2  0
 21 20  1  0
 23 21  1  0
 24 33  2  0
 24 29  1  0
 25 21  1  0
 25 29  1  0
 26 25  1  0
 27 28  1  0
 27 26  1  0
 28 24  1  0
 29 30  2  0
 30 31  1  0
 32 31  2  0
 33 32  1  0
 34  8  1  0
 34 35  1  0
 34 44  1  0
 35 38  1  0
 36 40  1  0
 36 35  1  0
 37 36  2  0
 40 39  1  0
 42 40  1  0
 42 43  1  0
 42 41  1  0
 44 47  1  1
 44 45  1  0
 46 44  1  0
 48  2  1  0
 48 49  1  0
 50 59  1  0
 50 49  1  0
 51 57  1  0
 51 59  1  0
 52 57  1  0
 53 54  1  0
 53 52  1  0
 55 54  1  0
 55 64  1  0
 55 56  1  0
 57 56  1  0
 58 51  2  0
 59 60  1  0
 61 62  2  0
 62 81  1  0
 63 62  1  0
 63 66  1  0
 64 61  1  0
 64 65  1  0
 65 63  2  0
 66 67  1  0
 67 68  2  0
 69 72  1  0
 69 68  1  0
 70 69  2  0
 71 70  1  0
 71 66  2  0
 72 73  1  0
 73 74  1  0
 74 75  2  0
 76 75  1  0
 76 80  1  0
 77 76  2  0
 78 73  2  0
 78 77  1  0
 79 78  1  0
 81 82  1  0
 82 85  1  0
 82 84  1  0
 83 81  2  0
 86 87  1  0
 86 61  1  0
 88 86  1  0
 89  6  1  0
 89 90  1  0
 90 93  1  0
 93 91  1  0
 93 92  1  0
M  ISO  4   3 101   7 101  51 100  59 100
M  END
>  <TORSDO>  (79) 
F 22

>  <SCORE>  (79) 
-13.949

>  <name>  (79) 
79

>  <ligand_id>  (79) 
79

>  <original_smiles>  (79) 
[H]c1c([H])c([H])c2c(c1[H])C([H])([H])C([H])([H])C([H])([H])C2([H])N([H])C(=O)C1([H])N(C(=O)C([H])(N([H])C(=O)C([H])(N([H])C([H])([H])[H])C([H])([H])[H])C(C([H])([H])[H])(C([H])([H])[H])C([H])([H])[H])C([H])([H])c2c([H])c(Oc3nc(C([H])([H])[H])c(C([H])([H])C([H])([H])C([H])([H])N([H])C(=O)N4C([H])([H])C([H])([H])C([H])([H])C([H])(n5nc(-c6c([H])c([H])c(Oc7c([H])c([H])c(F)c([H])c7F)c([H])c6[H])c(C(=O)N([H])[H])c5N([H])[H])C4([H])[H])n3C([H])([H])C([H])([H])C([H])(C([H])([H])[H])C([H])([H])[H])c([H])c([H])c2C1([H])[H]

>  <smiles>  (79) 
[H]c1c([H])c([H])c2c(c1[H])C([H])([H])C([H])([H])C([H])([H])C2([H])N([H])C(=O)C1([H])N(C(=O)C([H])(N([H])C(=O)C([H])(N([H])C([H])([H])[H])C([H])([H])[H])C(C([H])([H])[H])(C([H])([H])[H])C([H])([H])[H])C([H])([H])c2c([H])c(Oc3nc(C([H])([H])[H])c(C([H])([H])C([H])([H])C([H])([H])N([H])C(=O)N4C([H])([H])C([H])([H])C([H])([H])C([H])(n5nc(-c6c([H])c([H])c(Oc7c([H])c([H])c(F)c([H])c7F)c([H])c6[H])c(C(=O)N([H])[H])c5N([H])[H])C4([H])[H])n3C([H])([H])C([H])([H])C([H])(C([H])([H])[H])C([H])([H])[H])c([H])c([H])c2C1([H])[H]

$$$$
80:0:0
     RDKit          3D

 93101  0  0  1  0  0  0  0  0999 V2000
  -29.0920  -22.0690   21.9570 C   0  0  0  0  0  3  0  0  0  0  0  0
  -28.8520  -21.4220   20.7220 C   0  0  0  0  0  0  0  0  0  0  0  0
  -29.6970  -20.2270   20.5220 C   0  0  0  0  0  0  0  0  0  0  0  0
  -30.6050  -20.5230   22.6310 C   0  0  0  0  0  0  0  0  0  0  0  0
  -29.9480  -21.6340   22.8910 N   0  0  0  0  0  0  0  0  0  0  0  0
  -30.5140  -19.8270   21.5150 N   0  0  0  0  0  0  0  0  0  0  0  0
  -33.0200  -20.3100   23.3760 C   0  0  0  0  0  1  0  0  0  0  0  0
  -31.3090  -18.5060   24.0040 C   0  0  0  0  0  1  0  0  0  0  0  0
  -31.5510  -19.9950   23.7050 C   0  0  0  0  0  3  0  0  0  0  0  0
  -27.7070  -22.0960   19.8310 C   0  0  0  0  0  2  0  0  0  0  0  0
  -27.3080  -23.6680   20.1090 C   0  0  0  0  0  2  0  0  0  0  0  0
  -26.7210  -24.6680   18.9820 C   0  0  0  0  0  2  0  0  0  0  0  0
  -26.9850  -26.1490   19.0090 O   0  0  0  0  0  0  0  0  0  0  0  0
  -24.7900  -31.5840   23.2650 C   0  0  0  0  0  0  0  0  0  0  0  0
  -26.0200  -27.1520   19.2500 C   0  0  0  0  0  0  0  0  0  0  0  0
  -23.1120  -30.6480   21.7140 C   0  0  0  0  0  3  0  0  0  0  0  0
  -24.0140  -29.1190   19.8680 C   0  0  0  0  0  0  0  0  0  0  0  0
  -25.6060  -30.5850   21.1100 C   0  0  0  0  0  2  0  0  0  0  0  0
  -25.3310  -29.3220   20.2950 C   0  0  0  0  0  0  0  0  0  0  0  0
  -26.3330  -28.3530   19.9740 C   0  0  0  0  0  3  0  0  0  0  0  0
  -24.6810  -27.0120   18.8210 C   0  0  0  0  0  3  0  0  0  0  0  0
  -23.6940  -27.9730   19.1220 C   0  0  0  0  0  3  0  0  0  0  0  0
  -22.9780  -30.1590   20.2470 C   0  0  0  0  0  2  0  0  0  0  0  0
  -24.5340  -30.9470   22.0830 N   0  0  0  0  0  0  0  0  0  0  0  0
  -23.8710  -31.9400   24.0170 O   0  0  0  0  0  0  0  0  0  0  0  0
  -22.4420  -29.6140   22.6520 C   0  0  0  0  0  0  0  0  0  0  0  0
  -21.1040  -29.5090   22.5830 N   0  0  0  0  0  0  0  0  0  0  0  0
  -23.1250  -28.9110   23.4010 O   0  0  0  0  0  0  0  0  0  0  0  0
  -20.6130  -30.1280   21.9540 H   0  0  0  0  0  0  0  0  0  0  0  0
  -17.7310  -28.2660   22.9950 C   0  0  0  0  0  0  0  0  0  0  0  0
  -20.2750  -28.5710   23.3420 C   0  0  0  0  0  3  0  0  0  0  0  0
  -20.4170  -27.1320   22.7940 C   0  0  0  0  0  2  0  0  0  0  0  0
  -19.3540  -26.7770   21.7490 C   0  0  0  0  0  2  0  0  0  0  0  0
  -17.9500  -26.9110   22.3440 C   0  0  0  0  0  2  0  0  0  0  0  0
  -18.8230  -29.0520   23.4490 C   0  0  0  0  0  0  0  0  0  0  0  0
  -18.5650  -30.3210   24.0130 C   0  0  0  0  0  3  0  0  0  0  0  0
  -17.2480  -30.8030   24.1290 C   0  0  0  0  0  3  0  0  0  0  0  0
  -16.1700  -30.0140   23.6920 C   0  0  0  0  0  3  0  0  0  0  0  0
  -16.4120  -28.7480   23.1300 C   0  0  0  0  0  3  0  0  0  0  0  0
  -26.2470  -31.9140   23.7150 C   0  0  0  0  0  3  0  0  0  0  0  0
  -26.2270  -33.2390   24.3510 N   0  0  0  0  0  0  0  0  0  0  0  0
  -26.6620  -34.3690   23.7770 C   0  0  0  0  0  0  0  0  0  0  0  0
  -27.1920  -34.3900   22.6640 O   0  0  0  0  0  0  0  0  0  0  0  0
  -25.7600  -33.3040   25.2430 H   0  0  0  0  0  0  0  0  0  0  0  0
  -25.2580  -36.4400   24.0270 C   0  0  0  0  0  1  0  0  0  0  0  0
  -26.4810  -35.6820   24.5640 C   0  0  0  0  0  3  0  0  0  0  0  0
  -28.8120  -36.0300   25.2570 C   0  0  0  0  0  1  0  0  0  0  0  0
  -27.6690  -36.5630   24.5190 N   0  0  0  0  0  0  0  0  0  0  0  0
  -27.4510  -37.4820   24.8940 H   0  0  0  0  0  0  0  0  0  0  0  0
  -26.8510  -30.8380   24.6970 C   0  0  1  0  0  0  0  0  0  0  0  0
  -25.9430  -30.5190   25.9080 C   0  0  0  0  0  1  0  0  0  0  0  0
  -27.1280  -29.5110   23.9530 C   0  0  0  0  0  1  0  0  0  0  0  0
  -28.2130  -31.3310   25.2400 C   0  0  0  0  0  1  0  0  0  0  0  0
  -29.8070  -19.1470   19.3760 C   0  0  0  0  0  2  0  0  0  0  0  0
  -30.8510  -17.8960   19.5520 C   0  0  0  0  0  2  0  0  0  0  0  0
  -31.2060  -15.2890   19.6570 C   0  0  0  0  0  0  0  0  0  0  0  0
  -31.0340  -12.8890   18.9910 C   0  0  0  0  0  2  0  0  0  0  0  0
  -30.0680  -12.7700   17.7920 C   0  0  0  0  0  2  0  0  0  0  0  0
  -28.6110  -12.6400   18.2770 C   0  0  0  0  0  2  0  0  0  0  0  0
  -28.2460  -13.6860   19.3640 C   0  0  0  0  0  3  0  0  0  0  0  0
  -29.3300  -13.7780   20.4590 C   0  0  0  0  0  2  0  0  0  0  0  0
  -30.6020  -14.0600   19.7850 N   0  0  0  0  0  0  0  0  0  0  0  0
  -32.3900  -15.3600   19.3160 O   0  0  0  0  0  0  0  0  0  0  0  0
  -30.4190  -16.4300   19.7070 N   0  0  0  0  0  0  0  0  0  0  0  0
  -29.4460  -16.2780   19.9290 H   0  0  0  0  0  0  0  0  0  0  0  0
  -25.9320  -14.3660   20.2350 C   0  0  0  0  0  0  0  0  0  0  0  0
  -24.8540  -13.6310   20.6480 C   0  0  0  0  0  0  0  0  0  0  0  0
  -25.2540  -12.2620   20.5640 C   0  0  0  0  0  0  0  0  0  0  0  0
  -26.9200  -13.4470   19.9230 N   0  0  0  0  0  0  0  0  0  0  0  0
  -26.5230  -12.1750   20.1850 N   0  0  0  0  0  0  0  0  0  0  0  0
  -24.4820  -11.0280   20.7650 C   0  0  0  0  0  0  0  0  0  0  0  0
  -24.8600  -10.0710   21.7320 C   0  0  0  0  0  3  0  0  0  0  0  0
  -24.0910   -8.9020   21.9220 C   0  0  0  0  0  3  0  0  0  0  0  0
  -22.9290   -8.6840   21.1440 C   0  0  0  0  0  0  0  0  0  0  0  0
  -22.5700   -9.6290   20.1670 C   0  0  0  0  0  3  0  0  0  0  0  0
  -23.3410  -10.7890   19.9760 C   0  0  0  0  0  3  0  0  0  0  0  0
  -22.1350   -7.5660   21.2410 O   0  0  0  0  0  0  0  0  0  0  0  0
  -21.9420   -6.9230   22.4360 C   0  0  0  0  0  0  0  0  0  0  0  0
  -21.3840   -7.5800   23.5540 C   0  0  0  0  0  3  0  0  0  0  0  0
  -21.1370   -6.8620   24.7420 C   0  0  0  0  0  3  0  0  0  0  0  0
  -21.4390   -5.4890   24.8120 C   0  0  0  0  0  0  0  0  0  0  0  0
  -21.9880   -4.8320   23.6980 C   0  0  0  0  0  3  0  0  0  0  0  0
  -22.2360   -5.5470   22.5120 C   0  0  0  0  0  0  0  0  0  0  0  0
  -22.7470   -4.9030   21.4340 F   0  0  0  0  0  0  0  0  0  0  0  0
  -21.1950   -4.7980   25.9490 F   0  0  0  0  0  0  0  0  0  0  0  0
  -23.4960  -14.1620   21.0040 C   0  0  0  0  0  0  0  0  0  0  0  0
  -22.7950  -13.4890   21.9090 N   0  0  0  0  0  0  0  0  0  0  0  0
  -23.0700  -15.2080   20.5140 O   0  0  0  0  0  0  0  0  0  0  0  0
  -23.1540  -12.6410   22.3210 H   0  0  0  0  0  0  0  0  0  0  0  0
  -21.8860  -13.8260   22.1920 H   0  0  0  0  0  0  0  0  0  0  0  0
  -26.1470  -15.7320   20.0760 N   0  0  0  0  0  0  0  0  0  0  0  0
  -25.4160  -16.4140   20.2470 H   0  0  0  0  0  0  0  0  0  0  0  0
  -26.9890  -16.1440   19.6970 H   0  0  0  0  0  0  0  0  0  0  0  0
  1  5  1  0
  2  1  2  0
  3  2  1  0
  3  6  2  0
  4  5  2  0
  4  9  1  0
  6  4  1  0
  7  9  1  0
  9  8  1  0
 10 11  1  0
 10  2  1  0
 12 13  1  0
 12 11  1  0
 13 15  1  0
 14 25  2  0
 15 20  1  0
 16 24  1  0
 16 26  1  0
 17 23  1  0
 17 19  1  0
 18 24  1  0
 19 18  1  0
 20 19  2  0
 21 22  1  0
 21 15  2  0
 22 17  2  0
 23 16  1  0
 24 14  1  0
 26 28  2  0
 27 26  1  0
 29 27  1  0
 30 39  2  0
 30 35  1  0
 31 27  1  0
 31 35  1  0
 32 31  1  0
 33 34  1  0
 33 32  1  0
 34 30  1  0
 35 36  2  0
 36 37  1  0
 38 37  2  0
 39 38  1  0
 40 14  1  0
 40 41  1  0
 40 50  1  0
 41 44  1  0
 42 41  1  0
 42 46  1  0
 43 42  2  0
 46 45  1  0
 48 46  1  0
 48 49  1  0
 48 47  1  0
 50 53  1  1
 50 51  1  0
 52 50  1  0
 54 55  1  0
 54  3  1  0
 55 64  1  0
 56 64  1  0
 56 62  1  0
 57 62  1  0
 58 59  1  0
 58 57  1  0
 60 59  1  0
 60 69  1  0
 60 61  1  0
 62 61  1  0
 63 56  2  0
 64 65  1  0
 66 67  2  0
 67 86  1  0
 68 67  1  0
 68 71  1  0
 69 70  1  0
 69 66  1  0
 70 68  2  0
 71 72  1  0
 72 73  2  0
 74 77  1  0
 74 73  1  0
 75 74  2  0
 76 75  1  0
 76 71  2  0
 77 78  1  0
 78 83  2  0
 78 79  1  0
 79 80  2  0
 80 81  1  0
 81 85  1  0
 82 81  2  0
 83 82  1  0
 84 83  1  0
 86 87  1  0
 87 90  1  0
 87 89  1  0
 88 86  2  0
 91 66  1  0
 91 92  1  0
 93 91  1  0
M  ISO  4  12 101  13 101  56 100  64 100
M  END
>  <TORSDO>  (80) 
F 22

>  <SCORE>  (80) 
-10.619

>  <name>  (80) 
80

>  <ligand_id>  (80) 
80

>  <original_smiles>  (80) 
[H]c1nc(C([H])(C([H])([H])[H])C([H])([H])[H])nc(C([H])([H])C([H])([H])N([H])C(=O)N2C([H])([H])C([H])([H])C([H])([H])C([H])(n3nc(-c4c([H])c([H])c(Oc5c([H])c([H])c(F)c([H])c5F)c([H])c4[H])c(C(=O)N([H])[H])c3N([H])[H])C2([H])[H])c1C([H])([H])C([H])([H])C([H])([H])Oc1c([H])c([H])c2c(c1[H])C([H])([H])N(C(=O)C([H])(N([H])C(=O)C([H])(N([H])C([H])([H])[H])C([H])([H])[H])C(C([H])([H])[H])(C([H])([H])[H])C([H])([H])[H])C([H])(C(=O)N([H])C1([H])c3c([H])c([H])c([H])c([H])c3C([H])([H])C([H])([H])C1([H])[H])C2([H])[H]

>  <smiles>  (80) 
[H]c1nc(C([H])(C([H])([H])[H])C([H])([H])[H])nc(C([H])([H])C([H])([H])N([H])C(=O)N2C([H])([H])C([H])([H])C([H])([H])C([H])(n3nc(-c4c([H])c([H])c(Oc5c([H])c([H])c(F)c([H])c5F)c([H])c4[H])c(C(=O)N([H])[H])c3N([H])[H])C2([H])[H])c1C([H])([H])C([H])([H])C([H])([H])Oc1c([H])c([H])c2c(c1[H])C([H])([H])N(C(=O)C([H])(N([H])C(=O)C([H])(N([H])C([H])([H])[H])C([H])([H])[H])C(C([H])([H])[H])(C([H])([H])[H])C([H])([H])[H])C([H])(C(=O)N([H])C1([H])c3c([H])c([H])c([H])c([H])c3C([H])([H])C([H])([H])C1([H])[H])C2([H])[H]

$$$$
81:0:0
     RDKit          3D

 95 90  0  0  1  0  0  0  0  0999 V2000
  -20.5860  -26.8220   22.0150 C   0  0  0  0  0  3  0  0  0  0  0  0
  -20.9770  -28.6490   22.3460 C   0  0  0  0  0  2  0  0  0  0  0  0
  -20.3520  -29.2570   21.2150 C   0  0  0  0  0  0  0  0  0  0  0  0
  -20.8840  -25.2790   22.4630 C   0  0  0  0  0  1  0  0  0  0  0  0
  -20.1010  -28.1540   20.3860 C   0  0  0  0  0  0  0  0  0  0  0  0
  -20.4660  -26.7770   21.1580 N   0  0  0  0  0  2  0  0  0  0  0  0
  -27.9070  -17.1650   20.8460 C   0  0  0  0  0  2  0  0  0  0  0  0
  -29.5820  -14.6280   19.7700 C   0  0  0  0  0  2  0  0  0  0  0  0
  -29.3790  -13.3910   18.6970 C   0  0  0  0  0  2  0  0  0  0  0  0
  -28.2310  -12.4580   19.0610 C   0  0  0  0  0  2  0  0  0  0  0  0
  -27.3550  -13.3760   19.8950 C   0  0  0  0  0  3  0  0  0  0  0  0
  -27.9720  -14.1560   21.0930 C   0  0  0  0  0  2  0  0  0  0  0  0
  -28.3190  -15.5210   20.5260 N   0  0  0  0  0  0  0  0  0  0  0  0
  -29.2370  -17.2040   20.6680 O   0  0  0  0  0  1  0  0  0  0  0  0
  -24.2820  -22.1310   21.1240 C   0  0  0  0  0  1  0  0  0  0  0  0
  -23.5740  -21.2760   22.4410 C   0  0  0  0  0  1  0  0  0  0  0  0
  -25.4380  -20.2710   20.6130 C   0  0  0  0  0  1  0  0  0  0  0  0
  -25.2580  -19.7970   22.2230 C   0  0  0  0  0  1  0  0  0  0  0  0
  -22.5370  -23.1340   21.9530 C   0  0  0  0  0 15  0  0  0  0  0  0
  -26.4220  -18.6370   21.1310 N   0  0  0  0  0 15  0  0  0  0  0  0
  -25.0770  -13.8050   20.5550 C   0  0  0  0  0  0  0  0  0  0  0  0
  -24.0630  -13.0070   20.9410 C   0  0  0  0  0  0  0  0  0  0  0  0
  -24.5650  -11.6680   20.8890 C   0  0  0  0  0  0  0  0  0  0  0  0
  -26.1050  -12.9340   20.3020 N   0  0  0  0  0  0  0  0  0  0  0  0
  -25.8470  -11.6420   20.5620 N   0  0  0  0  0  0  0  0  0  0  0  0
  -23.8680  -10.4050   21.0530 C   0  0  0  0  0  0  0  0  0  0  0  0
  -24.3410   -9.4050   21.9270 C   0  0  0  0  0  3  0  0  0  0  0  0
  -23.6170   -8.2060   22.0780 C   0  0  0  0  0  3  0  0  0  0  0  0
  -22.4160   -8.0100   21.3560 C   0  0  0  0  0  0  0  0  0  0  0  0
  -21.9710   -9.0010   20.4650 C   0  0  0  0  0  3  0  0  0  0  0  0
  -22.6950  -10.1900   20.3090 C   0  0  0  0  0  3  0  0  0  0  0  0
  -21.6540   -6.8720   21.4250 O   0  0  0  0  0  0  0  0  0  0  0  0
  -21.6790   -6.0640   22.5310 C   0  0  0  0  0  0  0  0  0  0  0  0
  -21.3960   -6.5590   23.8230 C   0  0  0  0  0  3  0  0  0  0  0  0
  -21.3640   -5.6760   24.9210 C   0  0  0  0  0  3  0  0  0  0  0  0
  -21.6050   -4.3020   24.7260 C   0  0  0  0  0  0  0  0  0  0  0  0
  -21.8830   -3.8090   23.4390 C   0  0  0  0  0  3  0  0  0  0  0  0
  -21.9170   -4.6890   22.3440 C   0  0  0  0  0  0  0  0  0  0  0  0
  -22.1650   -4.2080   21.1010 F   0  0  0  0  0  0  0  0  0  0  0  0
  -21.5630   -3.4520   25.7780 F   0  0  0  0  0  0  0  0  0  0  0  0
  -22.6810  -13.4860   21.2150 C   0  0  0  0  0  0  0  0  0  0  0  0
  -21.9600  -12.7910   22.0800 N   0  0  0  0  0  0  0  0  0  0  0  0
  -22.2630  -14.5240   20.7010 O   0  0  0  0  0  0  0  0  0  0  0  0
  -22.3230  -11.9590   22.5190 H   0  0  0  0  0  0  0  0  0  0  0  0
  -21.0270  -13.1000   22.3140 H   0  0  0  0  0  0  0  0  0  0  0  0
  -25.2030  -15.1850   20.3740 N   0  0  0  0  0  0  0  0  0  0  0  0
  -24.3550  -15.7410   20.3710 H   0  0  0  0  0  0  0  0  0  0  0  0
  -25.9010  -15.5340   19.7300 H   0  0  0  0  0  0  0  0  0  0  0  0
  -19.7980  -31.6640   21.9710 C   0  0  0  0  0  1  0  0  0  0  0  0
  -20.1210  -30.7140   20.8150 C   0  0  0  0  0  2  0  0  0  0  0  0
  -18.3720  -27.6910   18.5630 C   0  0  0  0  0  1  0  0  0  0  0  0
  -19.7900  -28.1640   18.8990 C   0  0  0  0  0  2  0  0  0  0  0  0
  -22.4850  -29.3310   23.5700 C   0  0  0  0  0 15  0  0  0  0  0  0
  -24.6180  -28.7550   23.5450 C   0  0  0  0  0 15  0  0  0  0  0  0
  -26.0070  -27.8570   22.5250 O   0  0  0  0  0  1  0  0  0  0  0  0
  -24.6180  -31.8460   23.0750 C   0  0  0  0  0  0  0  0  0  0  0  0
  -26.6590  -27.8190   21.1670 C   0  0  0  0  0  3  0  0  0  0  0  0
  -23.5280  -30.2380   21.2370 C   0  0  0  0  0  3  0  0  0  0  0  0
  -25.2350  -29.3490   19.5510 C   0  0  0  0  0  3  0  0  0  0  0  0
  -25.9460  -31.0950   21.1850 C   0  0  0  0  0  2  0  0  0  0  0  0
  -26.2170  -29.8430   20.4240 C   0  0  0  0  0  3  0  0  0  0  0  0
  -27.2450  -29.0220   20.8770 C   0  0  0  0  0  2  0  0  0  0  0  0
  -26.1690  -27.1540   19.9680 C   0  0  0  0  0  2  0  0  0  0  0  0
  -25.3740  -27.9850   19.1100 C   0  0  0  0  0  2  0  0  0  0  0  0
  -23.8890  -30.1070   19.7110 C   0  0  0  0  0  2  0  0  0  0  0  0
  -24.6830  -31.0290   21.9460 N   0  0  0  0  0  0  0  0  0  0  0  0
  -23.5480  -32.1650   23.5990 O   0  0  0  0  0  0  0  0  0  0  0  0
  -23.2830  -28.6240   21.2570 C   0  0  0  0  0  3  0  0  0  0  0  0
  -23.0640  -27.5530   22.1080 N   0  0  0  0  0  0  0  0  0  0  0  0
  -24.0820  -27.8580   21.2900 O   0  0  0  0  0  1  0  0  0  0  0  0
  -23.8050  -26.9520   21.7850 H   0  0  0  0  0  0  0  0  0  0  0  0
  -18.5590  -26.9680   23.2270 C   0  0  0  0  0  3  0  0  0  0  0  0
  -22.3110  -26.8940   23.3550 C   0  0  0  0  0  1  0  0  0  0  0  0
  -22.5230  -25.7180   21.1170 C   0  0  0  0  0 15  0  0  0  0  0  0
  -20.2670  -24.7280   20.3930 C   0  0  0  0  0 15  0  0  0  0  0  0
  -18.5280  -25.5360   21.7630 C   0  0  0  0  0 15  0  0  0  0  0  0
  -19.9790  -27.5000   24.1370 C   0  0  0  0  0  3  0  0  0  0  0  0
  -19.5260  -28.9240   24.5500 C   0  0  0  0  0  3  0  0  0  0  0  0
  -18.3040  -29.7090   24.3260 C   0  0  0  0  0  3  0  0  0  0  0  0
  -17.2010  -29.1810   23.6450 C   0  0  0  0  0  3  0  0  0  0  0  0
  -17.3660  -27.8590   23.1330 C   0  0  0  0  0  3  0  0  0  0  0  0
  -25.8960  -32.4750   23.7850 C   0  0  0  0  0  3  0  0  0  0  0  0
  -26.4690  -31.6830   25.0390 C   0  0  1  0  0  0  0  0  0  0  0  0
  -25.3970  -31.3520   26.1130 C   0  0  0  0  0  1  0  0  0  0  0  0
  -27.2350  -30.4040   24.6010 C   0  0  0  0  0  1  0  0  0  0  0  0
  -27.5520  -32.5270   25.7560 C   0  0  0  0  0  1  0  0  0  0  0  0
  -25.5540  -33.8480   24.1850 N   0  0  0  0  0  0  0  0  0  0  0  0
  -25.8950  -34.9480   23.4980 C   0  0  0  0  0  0  0  0  0  0  0  0
  -26.5690  -34.9060   22.4650 O   0  0  0  0  0  0  0  0  0  0  0  0
  -24.9520  -33.9480   24.9890 H   0  0  0  0  0  0  0  0  0  0  0  0
  -24.1440  -36.7360   23.2660 C   0  0  0  0  0  1  0  0  0  0  0  0
  -25.4050  -36.3060   24.0340 C   0  0  0  0  0  3  0  0  0  0  0  0
  -27.5550  -37.1770   24.8460 C   0  0  0  0  0  1  0  0  0  0  0  0
  -26.4230  -37.3770   23.9460 N   0  0  0  0  0  0  0  0  0  0  0  0
  -26.0120  -38.2830   24.1510 H   0  0  0  0  0  0  0  0  0  0  0  0
  1  2  1  0
  1  4  1  0
  3  2  1  0
  5  6  1  0
  5  3  2  0
  6  1  1  0
  8 13  1  0
  9 10  1  0
  9  8  1  0
 11 10  1  0
 11 24  1  0
 11 12  1  0
 13  7  1  0
 13 12  1  0
 14  7  1  0
 15 16  1  0
 17 18  1  0
 21 22  2  0
 22 41  1  0
 23 22  1  0
 23 26  1  0
 24 21  1  0
 24 25  1  0
 25 23  2  0
 26 27  1  0
 27 28  2  0
 29 32  1  0
 29 28  1  0
 30 29  2  0
 31 30  1  0
 31 26  2  0
 32 33  1  0
 33 34  1  0
 34 35  2  0
 36 35  1  0
 36 40  1  0
 37 36  2  0
 38 33  2  0
 38 37  1  0
 39 38  1  0
 41 42  1  0
 42 45  1  0
 42 44  1  0
 43 41  2  0
 46 21  1  0
 47 46  1  0
 48 46  1  0
 50  3  1  0
 50 49  1  0
 51 52  1  0
 52  5  1  0
 56 67  2  0
 57 55  1  0
 58 68  1  0
 58 66  1  0
 59 64  1  0
 59 65  1  0
 59 61  1  0
 60 66  1  0
 61 62  1  0
 61 60  1  0
 62 57  1  0
 63 57  1  0
 64 63  1  0
 65 58  1  0
 66 56  1  0
 68 70  1  0
 68 69  1  0
 69 73  1  0
 71 69  1  0
 72 77  1  0
 77 78  2  0
 79 78  1  0
 80 79  2  0
 81 72  2  0
 81 80  1  0
 82 56  1  0
 82 87  1  0
 82 83  1  0
 83 86  1  1
 83 84  1  0
 85 83  1  0
 87 90  1  0
 88 92  1  0
 88 87  1  0
 89 88  2  0
 92 91  1  0
 94 92  1  0
 94 95  1  0
 94 93  1  0
M  ISO  4   7 100  20 100  54 101  55 101
M  END
>  <TORSDO>  (81) 
F 20

>  <SCORE>  (81) 
46.756

>  <name>  (81) 
81

>  <ligand_id>  (81) 
81

>  <original_smiles>  (81) 
[H]c1c([H])c([H])c2c(c1[H])C([H])([H])C([H])([H])C([H])([H])C2([H])N([H])C(=O)C1([H])N(C(=O)C([H])(N([H])C(=O)C([H])(N([H])C([H])([H])[H])C([H])([H])[H])C(C([H])([H])[H])(C([H])([H])[H])C([H])([H])[H])C([H])([H])c2c([H])c(OC([H])([H])C([H])([H])c3c([H])c(C4([H])C([H])([H])C([H])([H])N(C(=O)N5C([H])([H])C([H])([H])C([H])([H])C([H])(n6nc(-c7c([H])c([H])c(Oc8c([H])c([H])c(F)c([H])c8F)c([H])c7[H])c(C(=O)N([H])[H])c6N([H])[H])C5([H])[H])C([H])([H])C4([H])[H])nc(C([H])([H])C([H])([H])[H])c3C([H])([H])C([H])([H])[H])c([H])c([H])c2C1([H])[H]

>  <smiles>  (81) 
[H]c1c([H])c([H])c2c(c1[H])C([H])([H])C([H])([H])C([H])([H])C2([H])N([H])C(=O)C1([H])N(C(=O)C([H])(N([H])C(=O)C([H])(N([H])C([H])([H])[H])C([H])([H])[H])C(C([H])([H])[H])(C([H])([H])[H])C([H])([H])[H])C([H])([H])c2c([H])c(OC([H])([H])C([H])([H])c3c([H])c(C4([H])C([H])([H])C([H])([H])N(C(=O)N5C([H])([H])C([H])([H])C([H])([H])C([H])(n6nc(-c7c([H])c([H])c(Oc8c([H])c([H])c(F)c([H])c8F)c([H])c7[H])c(C(=O)N([H])[H])c6N([H])[H])C5([H])[H])C([H])([H])C4([H])[H])nc(C([H])([H])C([H])([H])[H])c3C([H])([H])C([H])([H])[H])c([H])c([H])c2C1([H])[H]

$$$$
82:0:0
     RDKit          3D

 91 99  0  0  1  0  0  0  0  0999 V2000
  -27.3160  -20.5560   20.6340 C   0  0  0  0  0  3  0  0  0  0  0  0
  -28.6820  -20.3590   20.9730 C   0  0  0  0  0  0  0  0  0  0  0  0
  -27.1760  -21.9100   20.5110 C   0  0  0  0  0  0  0  0  0  0  0  0
  -25.9320  -22.7070   20.2770 C   0  0  0  0  0  1  0  0  0  0  0  0
  -29.3540  -21.5040   20.9560 N   0  0  0  0  0  0  0  0  0  0  0  0
  -28.4330  -22.4660   20.7030 N   0  0  0  0  0  0  0  0  0  0  0  0
  -29.3490  -19.0730   21.4210 C   0  0  0  0  0  2  0  0  0  0  0  0
  -29.7680  -18.0870   20.2760 C   0  0  0  0  0  2  0  0  0  0  0  0
  -31.0740  -17.2290   20.1160 C   0  0  0  0  0  2  0  0  0  0  0  0
  -31.5050  -14.7560   19.7080 C   0  0  0  0  0  0  0  0  0  0  0  0
  -31.2290  -12.4200   18.9530 C   0  0  0  0  0  2  0  0  0  0  0  0
  -30.2410  -12.3900   17.7690 C   0  0  0  0  0  2  0  0  0  0  0  0
  -28.7810  -12.3270   18.2660 C   0  0  0  0  0  2  0  0  0  0  0  0
  -28.4780  -13.3800   19.3640 C   0  0  0  0  0  3  0  0  0  0  0  0
  -29.5650  -13.3440   20.4620 C   0  0  0  0  0  2  0  0  0  0  0  0
  -30.8720  -13.5610   19.8090 N   0  0  0  0  0  0  0  0  0  0  0  0
  -32.5750  -14.9160   19.1110 O   0  0  0  0  0  0  0  0  0  0  0  0
  -30.8080  -15.7840   20.2190 N   0  0  0  0  0  0  0  0  0  0  0  0
  -29.9550  -15.5150   20.6890 H   0  0  0  0  0  0  0  0  0  0  0  0
  -26.1820  -14.1560   20.2350 C   0  0  0  0  0  0  0  0  0  0  0  0
  -25.0840  -13.4580   20.6620 C   0  0  0  0  0  0  0  0  0  0  0  0
  -25.4370  -12.0780   20.5760 C   0  0  0  0  0  0  0  0  0  0  0  0
  -27.1410  -13.2050   19.9240 N   0  0  0  0  0  0  0  0  0  0  0  0
  -26.6970  -11.9480   20.1820 N   0  0  0  0  0  0  0  0  0  0  0  0
  -24.6310  -10.8700   20.7910 C   0  0  0  0  0  0  0  0  0  0  0  0
  -24.9820   -9.9130   21.7690 C   0  0  0  0  0  3  0  0  0  0  0  0
  -24.1820   -8.7680   21.9690 C   0  0  0  0  0  3  0  0  0  0  0  0
  -23.0170   -8.5730   21.1880 C   0  0  0  0  0  0  0  0  0  0  0  0
  -22.6850   -9.5180   20.2010 C   0  0  0  0  0  3  0  0  0  0  0  0
  -23.4860  -10.6550   20.0000 C   0  0  0  0  0  3  0  0  0  0  0  0
  -22.1950   -7.4780   21.2930 O   0  0  0  0  0  0  0  0  0  0  0  0
  -21.9750   -6.8550   22.4950 C   0  0  0  0  0  0  0  0  0  0  0  0
  -21.4310   -7.5440   23.6010 C   0  0  0  0  0  3  0  0  0  0  0  0
  -21.1550   -6.8500   24.7960 C   0  0  0  0  0  3  0  0  0  0  0  0
  -21.4140   -5.4690   24.8850 C   0  0  0  0  0  0  0  0  0  0  0  0
  -21.9490   -4.7810   23.7820 C   0  0  0  0  0  3  0  0  0  0  0  0
  -22.2260   -5.4700   22.5890 C   0  0  0  0  0  0  0  0  0  0  0  0
  -22.7210   -4.7970   21.5230 F   0  0  0  0  0  0  0  0  0  0  0  0
  -21.1430   -4.8010   26.0310 F   0  0  0  0  0  0  0  0  0  0  0  0
  -23.7510  -14.0350   21.0410 C   0  0  0  0  0  0  0  0  0  0  0  0
  -23.0370  -13.3810   21.9500 N   0  0  0  0  0  0  0  0  0  0  0  0
  -23.3550  -15.1000   20.5670 O   0  0  0  0  0  0  0  0  0  0  0  0
  -23.3710  -12.5170   22.3510 H   0  0  0  0  0  0  0  0  0  0  0  0
  -22.1470  -13.7530   22.2510 H   0  0  0  0  0  0  0  0  0  0  0  0
  -26.4350  -15.5150   20.0700 N   0  0  0  0  0  0  0  0  0  0  0  0
  -25.7220  -16.2160   20.2400 H   0  0  0  0  0  0  0  0  0  0  0  0
  -27.2800  -15.9020   19.6690 H   0  0  0  0  0  0  0  0  0  0  0  0
  -28.8350  -23.8680   20.8130 C   0  0  0  0  0  2  0  0  0  0  0  0
  -28.4820  -24.7430   19.5930 C   0  0  0  0  0  2  0  0  0  0  0  0
  -28.8120  -26.2290   19.8260 C   0  0  0  0  0  2  0  0  0  0  0  0
  -28.3540  -27.0260   18.7340 O   0  0  0  0  0  0  0  0  0  0  0  0
  -24.6650  -31.4800   22.8760 C   0  0  0  0  0  0  0  0  0  0  0  0
  -27.1680  -27.6700   18.9730 C   0  0  0  0  0  0  0  0  0  0  0  0
  -23.3530  -30.2460   21.1780 C   0  0  0  0  0  3  0  0  0  0  0  0
  -24.7180  -28.9920   19.4270 C   0  0  0  0  0  0  0  0  0  0  0  0
  -25.8270  -30.7730   20.7930 C   0  0  0  0  0  2  0  0  0  0  0  0
  -25.9030  -29.5070   19.9690 C   0  0  0  0  0  0  0  0  0  0  0  0
  -27.1330  -28.8520   19.7400 C   0  0  0  0  0  3  0  0  0  0  0  0
  -25.9710  -27.1590   18.4300 C   0  0  0  0  0  3  0  0  0  0  0  0
  -24.7450  -27.8150   18.6560 C   0  0  0  0  0  3  0  0  0  0  0  0
  -23.4490  -29.7640   19.7060 C   0  0  0  0  0  2  0  0  0  0  0  0
  -24.6380  -30.8410   21.6740 N   0  0  0  0  0  0  0  0  0  0  0  0
  -23.6350  -31.6190   23.5500 O   0  0  0  0  0  0  0  0  0  0  0  0
  -22.8450  -29.0750   22.0480 C   0  0  0  0  0  0  0  0  0  0  0  0
  -21.5270  -28.8190   21.9980 N   0  0  0  0  0  0  0  0  0  0  0  0
  -23.6290  -28.4010   22.7210 O   0  0  0  0  0  0  0  0  0  0  0  0
  -20.9490  -29.4210   21.4260 H   0  0  0  0  0  0  0  0  0  0  0  0
  -18.2920  -27.3100   22.5320 C   0  0  0  0  0  0  0  0  0  0  0  0
  -20.8340  -27.7460   22.7070 C   0  0  0  0  0  3  0  0  0  0  0  0
  -21.0110  -26.3930   21.9840 C   0  0  0  0  0  2  0  0  0  0  0  0
  -19.8860  -26.0850   20.9880 C   0  0  0  0  0  2  0  0  0  0  0  0
  -18.5340  -26.0560   21.7090 C   0  0  0  0  0  2  0  0  0  0  0  0
  -19.3720  -28.1140   22.9850 C   0  0  0  0  0  0  0  0  0  0  0  0
  -19.0920  -29.2890   23.7140 C   0  0  0  0  0  3  0  0  0  0  0  0
  -17.7660  -29.6620   23.9990 C   0  0  0  0  0  3  0  0  0  0  0  0
  -16.7010  -28.8530   23.5660 C   0  0  0  0  0  3  0  0  0  0  0  0
  -16.9660  -27.6780   22.8380 C   0  0  0  0  0  3  0  0  0  0  0  0
  -25.9810  -32.0890   23.4510 C   0  0  0  0  0  3  0  0  0  0  0  0
  -25.6560  -33.4200   23.9810 N   0  0  0  0  0  0  0  0  0  0  0  0
  -25.9240  -34.5750   23.3550 C   0  0  0  0  0  0  0  0  0  0  0  0
  -26.5390  -34.6290   22.2880 O   0  0  0  0  0  0  0  0  0  0  0  0
  -25.0950  -33.4500   24.8190 H   0  0  0  0  0  0  0  0  0  0  0  0
  -24.1440  -36.3550   23.3140 C   0  0  0  0  0  1  0  0  0  0  0  0
  -25.4260  -35.8760   24.0160 C   0  0  0  0  0  3  0  0  0  0  0  0
  -27.5750  -36.6920   24.8790 C   0  0  0  0  0  1  0  0  0  0  0  0
  -26.4320  -36.9600   24.0090 N   0  0  0  0  0  0  0  0  0  0  0  0
  -26.0140  -37.8410   24.2960 H   0  0  0  0  0  0  0  0  0  0  0  0
  -26.6490  -31.1900   24.5630 C   0  0  1  0  0  0  0  0  0  0  0  0
  -25.6800  -30.7810   25.6940 C   0  0  0  0  0  1  0  0  0  0  0  0
  -27.2280  -29.8950   23.9430 C   0  0  0  0  0  1  0  0  0  0  0  0
  -27.8390  -31.9440   25.2020 C   0  0  0  0  0  1  0  0  0  0  0  0
  1  2  1  0
  2  7  1  0
  3  1  2  0
  3  6  1  0
  4  3  1  0
  5  2  2  0
  6 48  1  0
  6  5  1  0
  8  7  1  0
  9 18  1  0
  9  8  1  0
 10 16  1  0
 10 18  1  0
 11 16  1  0
 12 13  1  0
 12 11  1  0
 14 13  1  0
 14 23  1  0
 14 15  1  0
 16 15  1  0
 17 10  2  0
 18 19  1  0
 20 21  2  0
 21 40  1  0
 22 21  1  0
 22 25  1  0
 23 24  1  0
 23 20  1  0
 24 22  2  0
 25 26  1  0
 26 27  2  0
 28 31  1  0
 28 27  1  0
 29 28  2  0
 30 29  1  0
 30 25  2  0
 31 32  1  0
 32 37  2  0
 32 33  1  0
 33 34  2  0
 34 35  1  0
 35 39  1  0
 36 35  2  0
 37 36  1  0
 38 37  1  0
 40 41  1  0
 41 44  1  0
 41 43  1  0
 42 40  2  0
 45 20  1  0
 45 46  1  0
 47 45  1  0
 49 50  1  0
 49 48  1  0
 51 53  1  0
 51 50  1  0
 52 63  2  0
 53 58  1  0
 54 62  1  0
 54 64  1  0
 55 61  1  0
 55 57  1  0
 56 62  1  0
 57 56  1  0
 58 57  2  0
 59 60  1  0
 59 53  2  0
 60 55  2  0
 61 54  1  0
 62 52  1  0
 64 66  2  0
 65 64  1  0
 67 65  1  0
 68 77  2  0
 68 73  1  0
 69 65  1  0
 69 73  1  0
 70 69  1  0
 71 72  1  0
 71 70  1  0
 72 68  1  0
 73 74  2  0
 74 75  1  0
 76 75  2  0
 77 76  1  0
 78 52  1  0
 78 79  1  0
 78 88  1  0
 79 82  1  0
 80 79  1  0
 80 84  1  0
 81 80  2  0
 84 83  1  0
 86 84  1  0
 86 87  1  0
 86 85  1  0
 88 91  1  1
 88 89  1  0
 90 88  1  0
M  ISO  4  10 100  18 100  50 101  51 101
M  END
>  <TORSDO>  (82) 
F 22

>  <SCORE>  (82) 
-8.985

>  <name>  (82) 
82

>  <ligand_id>  (82) 
82

>  <original_smiles>  (82) 
[H]c1c([H])c([H])c2c(c1[H])C([H])([H])C([H])([H])C([H])([H])C2([H])N([H])C(=O)C1([H])N(C(=O)C([H])(N([H])C(=O)C([H])(N([H])C([H])([H])[H])C([H])([H])[H])C(C([H])([H])[H])(C([H])([H])[H])C([H])([H])[H])C([H])([H])c2c([H])c(OC([H])([H])C([H])([H])C([H])([H])n3nc(C([H])([H])C([H])([H])C([H])([H])N([H])C(=O)N4C([H])([H])C([H])([H])C([H])([H])C([H])(n5nc(-c6c([H])c([H])c(Oc7c([H])c([H])c(F)c([H])c7F)c([H])c6[H])c(C(=O)N([H])[H])c5N([H])[H])C4([H])[H])c([H])c3C([H])([H])[H])c([H])c([H])c2C1([H])[H]

>  <smiles>  (82) 
[H]c1c([H])c([H])c2c(c1[H])C([H])([H])C([H])([H])C([H])([H])C2([H])N([H])C(=O)C1([H])N(C(=O)C([H])(N([H])C(=O)C([H])(N([H])C([H])([H])[H])C([H])([H])[H])C(C([H])([H])[H])(C([H])([H])[H])C([H])([H])[H])C([H])([H])c2c([H])c(OC([H])([H])C([H])([H])C([H])([H])n3nc(C([H])([H])C([H])([H])C([H])([H])N([H])C(=O)N4C([H])([H])C([H])([H])C([H])([H])C([H])(n5nc(-c6c([H])c([H])c(Oc7c([H])c([H])c(F)c([H])c7F)c([H])c6[H])c(C(=O)N([H])[H])c5N([H])[H])C4([H])[H])c([H])c3C([H])([H])[H])c([H])c([H])c2C1([H])[H]

$$$$
83:0:0
     RDKit          3D

 90 98  0  0  1  0  0  0  0  0999 V2000
  -29.4020  -23.2570   20.7180 C   0  0  0  0  0  3  0  0  0  0  0  0
  -28.5870  -23.8730   19.7220 C   0  0  0  0  0  0  0  0  0  0  0  0
  -28.0080  -21.6890   19.0290 C   0  0  0  0  0  0  0  0  0  0  0  0
  -28.8140  -21.0650   20.0360 C   0  0  0  0  0  0  0  0  0  0  0  0
  -27.1750  -20.8810   18.0530 C   0  0  0  0  0  1  0  0  0  0  0  0
  -29.5000  -21.8880   20.8860 N   0  0  0  0  0  0  0  0  0  0  0  0
  -27.9010  -23.0470   18.8820 N   0  0  0  0  0  0  0  0  0  0  0  0
  -28.7340  -19.5080   20.3420 C   0  0  0  0  0  2  0  0  0  0  0  0
  -29.9360  -18.4700   20.1380 C   0  0  0  0  0  2  0  0  0  0  0  0
  -29.5290  -16.9300   19.8680 C   0  0  0  0  0  2  0  0  0  0  0  0
  -30.8360  -14.6880   20.0160 C   0  0  0  0  0  0  0  0  0  0  0  0
  -30.5210  -12.4550   18.9470 C   0  0  0  0  0  2  0  0  0  0  0  0
  -29.5200  -12.5800   17.7790 C   0  0  0  0  0  2  0  0  0  0  0  0
  -28.0720  -12.4290   18.2860 C   0  0  0  0  0  2  0  0  0  0  0  0
  -27.7850  -13.3010   19.5360 C   0  0  0  0  0  3  0  0  0  0  0  0
  -28.8960  -13.1530   20.5980 C   0  0  0  0  0  2  0  0  0  0  0  0
  -30.1740  -13.4850   19.9520 N   0  0  0  0  0  0  0  0  0  0  0  0
  -31.9390  -14.8280   19.4760 O   0  0  0  0  0  0  0  0  0  0  0  0
  -30.4570  -16.0350   22.0020 C   0  0  0  0  0  1  0  0  0  0  0  0
  -30.1940  -15.7710   20.5880 N   0  0  0  0  0  0  0  0  0  0  0  0
  -25.4460  -13.9180   20.3980 C   0  0  0  0  0  0  0  0  0  0  0  0
  -24.3900  -13.1530   20.8100 C   0  0  0  0  0  0  0  0  0  0  0  0
  -24.8280  -11.7960   20.7280 C   0  0  0  0  0  0  0  0  0  0  0  0
  -26.4620  -13.0280   20.0900 N   0  0  0  0  0  0  0  0  0  0  0  0
  -26.0990  -11.7440   20.3480 N   0  0  0  0  0  0  0  0  0  0  0  0
  -24.0920  -10.5420   20.9330 C   0  0  0  0  0  0  0  0  0  0  0  0
  -24.5250   -9.5740   21.8660 C   0  0  0  0  0  3  0  0  0  0  0  0
  -23.7910   -8.3850   22.0600 C   0  0  0  0  0  3  0  0  0  0  0  0
  -22.6070   -8.1530   21.3180 C   0  0  0  0  0  0  0  0  0  0  0  0
  -22.1930   -9.1080   20.3740 C   0  0  0  0  0  3  0  0  0  0  0  0
  -22.9280  -10.2890   20.1800 C   0  0  0  0  0  3  0  0  0  0  0  0
  -21.8440   -7.0160   21.4200 O   0  0  0  0  0  0  0  0  0  0  0  0
  -21.7570   -6.3100   22.5940 C   0  0  0  0  0  0  0  0  0  0  0  0
  -21.2870   -6.9010   23.7860 C   0  0  0  0  0  3  0  0  0  0  0  0
  -21.1490   -6.1210   24.9510 C   0  0  0  0  0  3  0  0  0  0  0  0
  -21.4690   -4.7510   24.9250 C   0  0  0  0  0  0  0  0  0  0  0  0
  -21.9330   -4.1580   23.7370 C   0  0  0  0  0  3  0  0  0  0  0  0
  -22.0730   -4.9360   22.5730 C   0  0  0  0  0  0  0  0  0  0  0  0
  -22.4990   -4.3560   21.4260 F   0  0  0  0  0  0  0  0  0  0  0  0
  -21.3300   -3.9990   26.0420 F   0  0  0  0  0  0  0  0  0  0  0  0
  -23.0170  -13.6460   21.1680 C   0  0  0  0  0  0  0  0  0  0  0  0
  -22.3260  -12.9430   22.0580 N   0  0  0  0  0  0  0  0  0  0  0  0
  -22.5680  -14.6890   20.6940 O   0  0  0  0  0  0  0  0  0  0  0  0
  -22.7020  -12.0990   22.4640 H   0  0  0  0  0  0  0  0  0  0  0  0
  -21.4080  -13.2550   22.3420 H   0  0  0  0  0  0  0  0  0  0  0  0
  -25.6230  -15.2890   20.2400 N   0  0  0  0  0  0  0  0  0  0  0  0
  -24.8760  -15.9530   20.4090 H   0  0  0  0  0  0  0  0  0  0  0  0
  -26.4690  -15.7220   19.8900 H   0  0  0  0  0  0  0  0  0  0  0  0
  -28.6300  -25.4030   19.3140 C   0  0  0  0  0  2  0  0  0  0  0  0
  -28.3530  -26.5100   20.2540 O   0  0  0  0  0  0  0  0  0  0  0  0
  -24.5790  -31.8910   23.1990 C   0  0  0  0  0  0  0  0  0  0  0  0
  -27.2130  -27.3250   20.1610 C   0  0  0  0  0  0  0  0  0  0  0  0
  -23.3790  -30.4790   21.5650 C   0  0  0  0  0  3  0  0  0  0  0  0
  -24.8350  -28.9220   20.1450 C   0  0  0  0  0  0  0  0  0  0  0  0
  -25.9160  -30.8030   21.3810 C   0  0  0  0  0  2  0  0  0  0  0  0
  -25.9980  -29.4210   20.7430 C   0  0  0  0  0  0  0  0  0  0  0  0
  -27.1840  -28.6290   20.7490 C   0  0  0  0  0  3  0  0  0  0  0  0
  -26.0230  -26.8710   19.5510 C   0  0  0  0  0  3  0  0  0  0  0  0
  -24.8490  -27.6520   19.5430 C   0  0  0  0  0  3  0  0  0  0  0  0
  -23.5950  -29.7920   20.1890 C   0  0  0  0  0  2  0  0  0  0  0  0
  -24.6430  -31.0760   22.1050 N   0  0  0  0  0  0  0  0  0  0  0  0
  -23.4960  -32.1690   23.7330 O   0  0  0  0  0  0  0  0  0  0  0  0
  -22.7200  -29.4670   22.5330 C   0  0  0  0  0  0  0  0  0  0  0  0
  -21.3930  -29.2930   22.4130 N   0  0  0  0  0  0  0  0  0  0  0  0
  -23.4000  -28.8420   23.3510 O   0  0  0  0  0  0  0  0  0  0  0  0
  -20.9030  -29.8490   21.7260 H   0  0  0  0  0  0  0  0  0  0  0  0
  -18.0110  -28.1250   22.9420 C   0  0  0  0  0  0  0  0  0  0  0  0
  -20.5740  -28.3590   23.1880 C   0  0  0  0  0  3  0  0  0  0  0  0
  -20.6590  -26.9290   22.6080 C   0  0  0  0  0  2  0  0  0  0  0  0
  -19.5450  -26.6200   21.6040 C   0  0  0  0  0  2  0  0  0  0  0  0
  -18.1690  -26.7750   22.2610 C   0  0  0  0  0  2  0  0  0  0  0  0
  -19.1410  -28.8750   23.3620 C   0  0  0  0  0  0  0  0  0  0  0  0
  -18.9390  -30.1380   23.9590 C   0  0  0  0  0  3  0  0  0  0  0  0
  -17.6400  -30.6510   24.1400 C   0  0  0  0  0  3  0  0  0  0  0  0
  -16.5250  -29.8960   23.7350 C   0  0  0  0  0  3  0  0  0  0  0  0
  -16.7120  -28.6350   23.1410 C   0  0  0  0  0  3  0  0  0  0  0  0
  -25.8610  -32.5300   23.8190 C   0  0  0  0  0  3  0  0  0  0  0  0
  -26.3840  -31.7620   25.0950 C   0  0  1  0  0  0  0  0  0  0  0  0
  -25.2930  -31.5180   26.1640 C   0  0  0  0  0  1  0  0  0  0  0  0
  -26.9760  -30.3880   24.7020 C   0  0  0  0  0  1  0  0  0  0  0  0
  -27.5300  -32.5640   25.7550 C   0  0  0  0  0  1  0  0  0  0  0  0
  -25.5460  -33.9260   24.1500 N   0  0  0  0  0  0  0  0  0  0  0  0
  -25.8870  -34.9820   23.4000 C   0  0  0  0  0  0  0  0  0  0  0  0
  -26.5700  -34.8850   22.3770 O   0  0  0  0  0  0  0  0  0  0  0  0
  -24.9430  -34.0760   24.9450 H   0  0  0  0  0  0  0  0  0  0  0  0
  -24.1720  -36.7840   23.0230 C   0  0  0  0  0  1  0  0  0  0  0  0
  -25.3930  -36.3680   23.8600 C   0  0  0  0  0  3  0  0  0  0  0  0
  -27.5080  -37.2420   24.7490 C   0  0  0  0  0  1  0  0  0  0  0  0
  -26.4300  -37.4200   23.7800 N   0  0  0  0  0  0  0  0  0  0  0  0
  -26.0220  -38.3400   23.9270 H   0  0  0  0  0  0  0  0  0  0  0  0
  1  6  1  0
  2  1  2  0
  3  4  1  0
  4  8  1  0
  4  6  2  0
  5  3  1  0
  7  3  2  0
  7  2  1  0
  9  8  1  0
 10  9  1  0
 10 20  1  0
 11 20  1  0
 12 17  1  0
 13 14  1  0
 13 12  1  0
 15 14  1  0
 15 24  1  0
 15 16  1  0
 17 11  1  0
 17 16  1  0
 18 11  2  0
 20 19  1  0
 21 22  2  0
 22 41  1  0
 23 22  1  0
 23 26  1  0
 24 25  1  0
 24 21  1  0
 25 23  2  0
 26 27  1  0
 27 28  2  0
 29 32  1  0
 29 28  1  0
 30 29  2  0
 31 30  1  0
 31 26  2  0
 32 33  1  0
 33 34  1  0
 34 35  2  0
 36 35  1  0
 36 40  1  0
 37 36  2  0
 38 33  2  0
 38 37  1  0
 39 38  1  0
 41 42  1  0
 42 45  1  0
 42 44  1  0
 43 41  2  0
 46 21  1  0
 46 47  1  0
 48 46  1  0
 49  2  1  0
 49 50  1  0
 51 62  2  0
 52 50  1  0
 52 57  1  0
 53 61  1  0
 53 63  1  0
 54 60  1  0
 54 56  1  0
 55 61  1  0
 56 57  2  0
 56 55  1  0
 58 52  2  0
 59 58  1  0
 59 54  2  0
 60 53  1  0
 61 51  1  0
 63 65  2  0
 64 63  1  0
 66 64  1  0
 67 76  2  0
 67 72  1  0
 68 64  1  0
 68 72  1  0
 69 68  1  0
 70 71  1  0
 70 69  1  0
 71 67  1  0
 72 73  2  0
 73 74  1  0
 75 74  2  0
 76 75  1  0
 77 51  1  0
 77 82  1  0
 77 78  1  0
 78 81  1  1
 78 79  1  0
 80 78  1  0
 82 85  1  0
 83 87  1  0
 83 82  1  0
 84 83  2  0
 87 86  1  0
 89 87  1  0
 89 90  1  0
 89 88  1  0
M  ISO  4  11 100  20 100  49 101  50 101
M  END
>  <TORSDO>  (83) 
F 20

>  <SCORE>  (83) 
-13.842

>  <name>  (83) 
83

>  <ligand_id>  (83) 
83

>  <original_smiles>  (83) 
[H]c1nc(C([H])([H])C([H])([H])C([H])([H])N(C(=O)N2C([H])([H])C([H])([H])C([H])([H])C([H])(n3nc(-c4c([H])c([H])c(Oc5c([H])c([H])c(F)c([H])c5F)c([H])c4[H])c(C(=O)N([H])[H])c3N([H])[H])C2([H])[H])C([H])([H])[H])c(C([H])([H])[H])nc1C([H])([H])Oc1c([H])c([H])c2c(c1[H])C([H])([H])N(C(=O)C([H])(N([H])C(=O)C([H])(N([H])C([H])([H])[H])C([H])([H])[H])C(C([H])([H])[H])(C([H])([H])[H])C([H])([H])[H])C([H])(C(=O)N([H])C1([H])c3c([H])c([H])c([H])c([H])c3C([H])([H])C([H])([H])C1([H])[H])C2([H])[H]

>  <smiles>  (83) 
[H]c1nc(C([H])([H])C([H])([H])C([H])([H])N(C(=O)N2C([H])([H])C([H])([H])C([H])([H])C([H])(n3nc(-c4c([H])c([H])c(Oc5c([H])c([H])c(F)c([H])c5F)c([H])c4[H])c(C(=O)N([H])[H])c3N([H])[H])C2([H])[H])C([H])([H])[H])c(C([H])([H])[H])nc1C([H])([H])Oc1c([H])c([H])c2c(c1[H])C([H])([H])N(C(=O)C([H])(N([H])C(=O)C([H])(N([H])C([H])([H])[H])C([H])([H])[H])C(C([H])([H])[H])(C([H])([H])[H])C([H])([H])[H])C([H])(C(=O)N([H])C1([H])c3c([H])c([H])c([H])c([H])c3C([H])([H])C([H])([H])C1([H])[H])C2([H])[H]

$$$$
84:0:0
     RDKit          3D

 91 99  0  0  1  0  0  0  0  0999 V2000
  -31.8180  -22.3880   20.6400 C   0  0  0  0  0  3  0  0  0  0  0  0
  -32.1360  -21.0590   20.5550 C   0  0  0  0  0  0  0  0  0  0  0  0
  -31.0450  -20.4810   19.8430 C   0  0  0  0  0  0  0  0  0  0  0  0
  -33.3710  -20.3650   21.0530 C   0  0  0  0  0  1  0  0  0  0  0  0
  -30.1240  -21.3890   19.5400 N   0  0  0  0  0  0  0  0  0  0  0  0
  -30.6120  -22.5690   19.9950 N   0  0  0  0  0  0  0  0  0  0  0  0
  -30.8740  -19.0540   19.3620 C   0  0  0  0  0  2  0  0  0  0  0  0
  -30.5310  -18.0060   20.4480 C   0  0  0  0  0  2  0  0  0  0  0  0
  -29.8960  -16.7520   19.7990 C   0  0  0  0  0  2  0  0  0  0  0  0
  -30.6320  -14.4800   20.4220 C   0  0  0  0  0  0  0  0  0  0  0  0
  -30.3370  -12.3070   19.3310 C   0  0  0  0  0  2  0  0  0  0  0  0
  -29.3940  -12.5290   18.1300 C   0  0  0  0  0  2  0  0  0  0  0  0
  -27.9210  -12.3950   18.5640 C   0  0  0  0  0  2  0  0  0  0  0  0
  -27.5890  -13.2380   19.8240 C   0  0  0  0  0  3  0  0  0  0  0  0
  -28.6460  -13.0160   20.9330 C   0  0  0  0  0  2  0  0  0  0  0  0
  -29.9760  -13.2930   20.3610 N   0  0  0  0  0  0  0  0  0  0  0  0
  -31.7830  -14.6430   20.0100 O   0  0  0  0  0  0  0  0  0  0  0  0
  -29.8320  -15.5410   20.6320 N   0  0  0  0  0  0  0  0  0  0  0  0
  -28.9210  -15.3160   21.0050 H   0  0  0  0  0  0  0  0  0  0  0  0
  -25.1950  -13.8570   20.5450 C   0  0  0  0  0  0  0  0  0  0  0  0
  -24.1240  -13.0870   20.9150 C   0  0  0  0  0  0  0  0  0  0  0  0
  -24.5800  -11.7330   20.8750 C   0  0  0  0  0  0  0  0  0  0  0  0
  -26.2360  -12.9720   20.3060 N   0  0  0  0  0  0  0  0  0  0  0  0
  -25.8690  -11.6890   20.5630 N   0  0  0  0  0  0  0  0  0  0  0  0
  -23.8520  -10.4720   21.0630 C   0  0  0  0  0  0  0  0  0  0  0  0
  -24.3070   -9.4860   21.9670 C   0  0  0  0  0  3  0  0  0  0  0  0
  -23.5790   -8.2890   22.1420 C   0  0  0  0  0  3  0  0  0  0  0  0
  -22.3860   -8.0700   21.4150 C   0  0  0  0  0  0  0  0  0  0  0  0
  -21.9510   -9.0450   20.5010 C   0  0  0  0  0  3  0  0  0  0  0  0
  -22.6770  -10.2340   20.3220 C   0  0  0  0  0  3  0  0  0  0  0  0
  -21.6280   -6.9270   21.5010 O   0  0  0  0  0  0  0  0  0  0  0  0
  -21.6280   -6.1480   22.6310 C   0  0  0  0  0  0  0  0  0  0  0  0
  -21.2890   -6.6720   23.8980 C   0  0  0  0  0  3  0  0  0  0  0  0
  -21.2330   -5.8210   25.0200 C   0  0  0  0  0  3  0  0  0  0  0  0
  -21.5080   -4.4470   24.8770 C   0  0  0  0  0  0  0  0  0  0  0  0
  -21.8400   -3.9230   23.6160 C   0  0  0  0  0  3  0  0  0  0  0  0
  -21.8970   -4.7710   22.4960 C   0  0  0  0  0  0  0  0  0  0  0  0
  -22.1990   -4.2580   21.2790 F   0  0  0  0  0  0  0  0  0  0  0  0
  -21.4470   -3.6280   25.9530 F   0  0  0  0  0  0  0  0  0  0  0  0
  -22.7300  -13.5670   21.1950 C   0  0  0  0  0  0  0  0  0  0  0  0
  -22.0070  -12.8690   22.0640 N   0  0  0  0  0  0  0  0  0  0  0  0
  -22.2920  -14.5920   20.6790 O   0  0  0  0  0  0  0  0  0  0  0  0
  -22.3740  -12.0390   22.5050 H   0  0  0  0  0  0  0  0  0  0  0  0
  -21.0690  -13.1700   22.2920 H   0  0  0  0  0  0  0  0  0  0  0  0
  -25.3680  -15.2280   20.3750 N   0  0  0  0  0  0  0  0  0  0  0  0
  -24.6150  -15.8930   20.5150 H   0  0  0  0  0  0  0  0  0  0  0  0
  -26.2240  -15.6660   20.0590 H   0  0  0  0  0  0  0  0  0  0  0  0
  -29.8940  -23.8100   19.7270 C   0  0  0  0  0  2  0  0  0  0  0  0
  -29.2690  -24.4260   20.9920 C   0  0  0  0  0  2  0  0  0  0  0  0
  -28.0560  -25.3360   20.7210 C   0  0  0  0  0  2  0  0  0  0  0  0
  -28.3440  -26.6510   20.2060 O   0  0  0  0  0  0  0  0  0  0  0  0
  -24.6010  -31.8960   23.2300 C   0  0  0  0  0  0  0  0  0  0  0  0
  -27.2120  -27.4410   20.1440 C   0  0  0  0  0  0  0  0  0  0  0  0
  -23.3820  -30.4930   21.6000 C   0  0  0  0  0  3  0  0  0  0  0  0
  -24.8250  -28.9590   20.1650 C   0  0  0  0  0  0  0  0  0  0  0  0
  -25.9080  -30.8490   21.3840 C   0  0  0  0  0  2  0  0  0  0  0  0
  -25.9900  -29.4780   20.7460 C   0  0  0  0  0  0  0  0  0  0  0  0
  -27.1890  -28.7270   20.7330 C   0  0  0  0  0  3  0  0  0  0  0  0
  -26.0350  -26.9540   19.5320 C   0  0  0  0  0  3  0  0  0  0  0  0
  -24.8430  -27.6960   19.5530 C   0  0  0  0  0  3  0  0  0  0  0  0
  -23.5820  -29.8170   20.2180 C   0  0  0  0  0  2  0  0  0  0  0  0
  -24.6490  -31.0930   22.1300 N   0  0  0  0  0  0  0  0  0  0  0  0
  -23.5240  -32.1710   23.7780 O   0  0  0  0  0  0  0  0  0  0  0  0
  -22.7360  -29.4720   22.5670 C   0  0  0  0  0  0  0  0  0  0  0  0
  -21.4110  -29.2920   22.4510 N   0  0  0  0  0  0  0  0  0  0  0  0
  -23.4250  -28.8470   23.3780 O   0  0  0  0  0  0  0  0  0  0  0  0
  -20.9140  -29.8510   21.7710 H   0  0  0  0  0  0  0  0  0  0  0  0
  -18.0420  -28.0920   22.9730 C   0  0  0  0  0  0  0  0  0  0  0  0
  -20.6010  -28.3560   23.2320 C   0  0  0  0  0  3  0  0  0  0  0  0
  -20.7030  -26.9220   22.6650 C   0  0  0  0  0  2  0  0  0  0  0  0
  -19.5980  -26.5910   21.6570 C   0  0  0  0  0  2  0  0  0  0  0  0
  -18.2190  -26.7370   22.3060 C   0  0  0  0  0  2  0  0  0  0  0  0
  -19.1620  -28.8580   23.3940 C   0  0  0  0  0  0  0  0  0  0  0  0
  -18.9450  -30.1250   23.9770 C   0  0  0  0  0  3  0  0  0  0  0  0
  -17.6410  -30.6270   24.1430 C   0  0  0  0  0  3  0  0  0  0  0  0
  -16.5360  -29.8610   23.7380 C   0  0  0  0  0  3  0  0  0  0  0  0
  -16.7370  -28.5950   23.1590 C   0  0  0  0  0  3  0  0  0  0  0  0
  -25.8930  -32.5280   23.8380 C   0  0  0  0  0  3  0  0  0  0  0  0
  -25.5840  -33.9230   24.1790 N   0  0  0  0  0  0  0  0  0  0  0  0
  -25.9010  -34.9790   23.4200 C   0  0  0  0  0  0  0  0  0  0  0  0
  -26.5590  -34.8830   22.3800 O   0  0  0  0  0  0  0  0  0  0  0  0
  -25.0000  -34.0720   24.9890 H   0  0  0  0  0  0  0  0  0  0  0  0
  -24.1610  -36.7640   23.0910 C   0  0  0  0  0  1  0  0  0  0  0  0
  -25.4120  -36.3630   23.8870 C   0  0  0  0  0  3  0  0  0  0  0  0
  -27.5560  -37.2500   24.6910 C   0  0  0  0  0  1  0  0  0  0  0  0
  -26.4380  -37.4220   23.7670 N   0  0  0  0  0  0  0  0  0  0  0  0
  -26.0290  -38.3380   23.9330 H   0  0  0  0  0  0  0  0  0  0  0  0
  -26.4310  -31.7470   25.0990 C   0  0  1  0  0  0  0  0  0  0  0  0
  -25.3550  -31.5010   26.1830 C   0  0  0  0  0  1  0  0  0  0  0  0
  -27.0060  -30.3720   24.6840 C   0  0  0  0  0  1  0  0  0  0  0  0
  -27.5900  -32.5360   25.7500 C   0  0  0  0  0  1  0  0  0  0  0  0
  2  1  2  0
  2  4  1  0
  3  2  1  0
  5  3  2  0
  5  6  1  0
  6  1  1  0
  7  3  1  0
  7  8  1  0
  9  8  1  0
  9 18  1  0
 10 18  1  0
 11 16  1  0
 12 13  1  0
 12 11  1  0
 14 13  1  0
 14 23  1  0
 14 15  1  0
 16 10  1  0
 16 15  1  0
 17 10  2  0
 18 19  1  0
 20 21  2  0
 21 40  1  0
 22 21  1  0
 22 25  1  0
 23 20  1  0
 23 24  1  0
 24 22  2  0
 25 26  1  0
 26 27  2  0
 28 31  1  0
 28 27  1  0
 29 28  2  0
 30 29  1  0
 30 25  2  0
 31 32  1  0
 32 33  1  0
 33 34  2  0
 35 34  1  0
 35 39  1  0
 36 35  2  0
 37 32  2  0
 37 36  1  0
 38 37  1  0
 40 41  1  0
 41 44  1  0
 41 43  1  0
 42 40  2  0
 45 46  1  0
 45 20  1  0
 47 45  1  0
 48  6  1  0
 48 49  1  0
 50 49  1  0
 51 50  1  0
 52 63  2  0
 53 51  1  0
 53 58  1  0
 54 62  1  0
 54 64  1  0
 55 61  1  0
 55 57  1  0
 56 62  1  0
 57 56  1  0
 58 57  2  0
 59 60  1  0
 59 53  2  0
 60 55  2  0
 61 54  1  0
 62 52  1  0
 64 66  2  0
 65 64  1  0
 67 65  1  0
 68 77  2  0
 68 73  1  0
 69 65  1  0
 69 73  1  0
 70 69  1  0
 71 72  1  0
 71 70  1  0
 72 68  1  0
 73 74  2  0
 74 75  1  0
 76 75  2  0
 77 76  1  0
 78 52  1  0
 78 79  1  0
 78 88  1  0
 79 82  1  0
 80 84  1  0
 80 79  1  0
 81 80  2  0
 84 83  1  0
 86 84  1  0
 86 87  1  0
 86 85  1  0
 88 91  1  1
 88 89  1  0
 90 88  1  0
M  ISO  4  10 100  18 100  50 101  51 101
M  END
>  <TORSDO>  (84) 
F 22

>  <SCORE>  (84) 
-13.066

>  <name>  (84) 
84

>  <ligand_id>  (84) 
84

>  <original_smiles>  (84) 
[H]c1c([H])c([H])c2c(c1[H])C([H])([H])C([H])([H])C([H])([H])C2([H])N([H])C(=O)C1([H])N(C(=O)C([H])(N([H])C(=O)C([H])(N([H])C([H])([H])[H])C([H])([H])[H])C(C([H])([H])[H])(C([H])([H])[H])C([H])([H])[H])C([H])([H])c2c([H])c(OC([H])([H])C([H])([H])C([H])([H])n3nc(C([H])([H])C([H])([H])C([H])([H])N([H])C(=O)N4C([H])([H])C([H])([H])C([H])([H])C([H])(n5nc(-c6c([H])c([H])c(Oc7c([H])c([H])c(F)c([H])c7F)c([H])c6[H])c(C(=O)N([H])[H])c5N([H])[H])C4([H])[H])c(C([H])([H])[H])c3[H])c([H])c([H])c2C1([H])[H]

>  <smiles>  (84) 
[H]c1c([H])c([H])c2c(c1[H])C([H])([H])C([H])([H])C([H])([H])C2([H])N([H])C(=O)C1([H])N(C(=O)C([H])(N([H])C(=O)C([H])(N([H])C([H])([H])[H])C([H])([H])[H])C(C([H])([H])[H])(C([H])([H])[H])C([H])([H])[H])C([H])([H])c2c([H])c(OC([H])([H])C([H])([H])C([H])([H])n3nc(C([H])([H])C([H])([H])C([H])([H])N([H])C(=O)N4C([H])([H])C([H])([H])C([H])([H])C([H])(n5nc(-c6c([H])c([H])c(Oc7c([H])c([H])c(F)c([H])c7F)c([H])c6[H])c(C(=O)N([H])[H])c5N([H])[H])C4([H])[H])c(C([H])([H])[H])c3[H])c([H])c([H])c2C1([H])[H]

$$$$
85:0:0
     RDKit          3D

 90 98  0  0  1  0  0  0  0  0999 V2000
  -30.3470  -22.0310   20.7540 C   0  0  0  0  0  3  0  0  0  0  0  0
  -29.2560  -22.9350   20.5890 C   0  0  0  0  0  0  0  0  0  0  0  0
  -29.8400  -20.7720   20.5460 C   0  0  0  0  0  0  0  0  0  0  0  0
  -27.4790  -19.9920   19.8690 C   0  0  0  0  0  1  0  0  0  0  0  0
  -28.1560  -22.2740   20.2530 N   0  0  0  0  0  0  0  0  0  0  0  0
  -28.5050  -20.9600   20.2080 N   0  0  0  0  0  0  0  0  0  0  0  0
  -29.2210  -24.4300   20.8990 C   0  0  0  0  0  2  0  0  0  0  0  0
  -28.5040  -25.3210   19.8580 C   0  0  0  0  0  2  0  0  0  0  0  0
  -28.5600  -26.7290   20.2050 O   0  0  0  0  0  0  0  0  0  0  0  0
  -24.5780  -31.8080   23.2450 C   0  0  0  0  0  0  0  0  0  0  0  0
  -27.3890  -27.4670   20.1400 C   0  0  0  0  0  0  0  0  0  0  0  0
  -23.4500  -30.4220   21.5380 C   0  0  0  0  0  3  0  0  0  0  0  0
  -24.9750  -28.9540   20.1160 C   0  0  0  0  0  0  0  0  0  0  0  0
  -25.9770  -30.8260   21.4290 C   0  0  0  0  0  2  0  0  0  0  0  0
  -26.1060  -29.4730   20.7560 C   0  0  0  0  0  0  0  0  0  0  0  0
  -27.3150  -28.7360   20.7670 C   0  0  0  0  0  3  0  0  0  0  0  0
  -26.2430  -26.9910   19.4610 C   0  0  0  0  0  3  0  0  0  0  0  0
  -25.0390  -27.7140   19.4640 C   0  0  0  0  0  3  0  0  0  0  0  0
  -23.7140  -29.7880   20.1480 C   0  0  0  0  0  2  0  0  0  0  0  0
  -24.6850  -31.0330   22.1280 N   0  0  0  0  0  0  0  0  0  0  0  0
  -23.4770  -32.0450   23.7590 O   0  0  0  0  0  0  0  0  0  0  0  0
  -22.7970  -29.3610   22.4520 C   0  0  0  0  0  0  0  0  0  0  0  0
  -21.4740  -29.1770   22.3070 N   0  0  0  0  0  0  0  0  0  0  0  0
  -23.4760  -28.7090   23.2490 O   0  0  0  0  0  0  0  0  0  0  0  0
  -20.9860  -29.7560   21.6380 H   0  0  0  0  0  0  0  0  0  0  0  0
  -18.0920  -27.9980   22.7820 C   0  0  0  0  0  0  0  0  0  0  0  0
  -20.6550  -28.2090   23.0370 C   0  0  0  0  0  3  0  0  0  0  0  0
  -20.7340  -26.8100   22.3860 C   0  0  0  0  0  2  0  0  0  0  0  0
  -19.6170  -26.5550   21.3680 C   0  0  0  0  0  2  0  0  0  0  0  0
  -18.2440  -26.6840   22.0350 C   0  0  0  0  0  2  0  0  0  0  0  0
  -19.2250  -28.7220   23.2390 C   0  0  0  0  0  0  0  0  0  0  0  0
  -19.0290  -29.9550   23.8980 C   0  0  0  0  0  3  0  0  0  0  0  0
  -17.7330  -30.4640   24.1020 C   0  0  0  0  0  3  0  0  0  0  0  0
  -16.6150  -29.7350   23.6620 C   0  0  0  0  0  3  0  0  0  0  0  0
  -16.7950  -28.5040   23.0080 C   0  0  0  0  0  3  0  0  0  0  0  0
  -25.8330  -32.4520   23.9130 C   0  0  0  0  0  3  0  0  0  0  0  0
  -25.5020  -33.8510   24.2200 N   0  0  0  0  0  0  0  0  0  0  0  0
  -25.8360  -34.8970   23.4530 C   0  0  0  0  0  0  0  0  0  0  0  0
  -26.5270  -34.7880   22.4360 O   0  0  0  0  0  0  0  0  0  0  0  0
  -24.8940  -34.0090   25.0110 H   0  0  0  0  0  0  0  0  0  0  0  0
  -24.0840  -36.6530   23.0490 C   0  0  0  0  0  1  0  0  0  0  0  0
  -25.3210  -36.2840   23.8820 C   0  0  0  0  0  3  0  0  0  0  0  0
  -27.4280  -37.2200   24.7280 C   0  0  0  0  0  1  0  0  0  0  0  0
  -26.3390  -37.3520   23.7640 N   0  0  0  0  0  0  0  0  0  0  0  0
  -25.9150  -38.2670   23.8870 H   0  0  0  0  0  0  0  0  0  0  0  0
  -26.3040  -31.6930   25.2130 C   0  0  1  0  0  0  0  0  0  0  0  0
  -25.1690  -31.4460   26.2330 C   0  0  0  0  0  1  0  0  0  0  0  0
  -26.9200  -30.3210   24.8520 C   0  0  0  0  0  1  0  0  0  0  0  0
  -27.4160  -32.5020   25.9200 C   0  0  0  0  0  1  0  0  0  0  0  0
  -30.5830  -19.4580   20.7420 C   0  0  0  0  0  2  0  0  0  0  0  0
  -29.9130  -18.0830   20.4470 C   0  0  0  0  0  2  0  0  0  0  0  0
  -30.8980  -16.9070   20.7030 C   0  0  0  0  0  2  0  0  0  0  0  0
  -30.9210  -14.5020   20.0190 C   0  0  0  0  0  0  0  0  0  0  0  0
  -30.5180  -12.3210   18.9380 C   0  0  0  0  0  2  0  0  0  0  0  0
  -29.5130  -12.5020   17.7820 C   0  0  0  0  0  2  0  0  0  0  0  0
  -28.0650  -12.3890   18.2980 C   0  0  0  0  0  2  0  0  0  0  0  0
  -27.8060  -13.2620   19.5550 C   0  0  0  0  0  3  0  0  0  0  0  0
  -28.9210  -13.0700   20.6070 C   0  0  0  0  0  2  0  0  0  0  0  0
  -30.2120  -13.3410   19.9540 N   0  0  0  0  0  0  0  0  0  0  0  0
  -32.0180  -14.6370   19.4730 O   0  0  0  0  0  0  0  0  0  0  0  0
  -30.3080  -15.5540   20.5960 N   0  0  0  0  0  0  0  0  0  0  0  0
  -29.3970  -15.3950   21.0010 H   0  0  0  0  0  0  0  0  0  0  0  0
  -25.4750  -13.9040   20.4370 C   0  0  0  0  0  0  0  0  0  0  0  0
  -24.4140  -13.1480   20.8560 C   0  0  0  0  0  0  0  0  0  0  0  0
  -24.8380  -11.7870   20.7660 C   0  0  0  0  0  0  0  0  0  0  0  0
  -26.4810  -13.0060   20.1180 N   0  0  0  0  0  0  0  0  0  0  0  0
  -26.1060  -11.7250   20.3740 N   0  0  0  0  0  0  0  0  0  0  0  0
  -24.0950  -10.5370   20.9750 C   0  0  0  0  0  0  0  0  0  0  0  0
  -24.5430   -9.5570   21.8890 C   0  0  0  0  0  3  0  0  0  0  0  0
  -23.8030   -8.3720   22.0880 C   0  0  0  0  0  3  0  0  0  0  0  0
  -22.6000   -8.1590   21.3720 C   0  0  0  0  0  0  0  0  0  0  0  0
  -22.1720   -9.1270   20.4470 C   0  0  0  0  0  3  0  0  0  0  0  0
  -22.9120  -10.3040   20.2460 C   0  0  0  0  0  3  0  0  0  0  0  0
  -21.8280   -7.0270   21.4810 O   0  0  0  0  0  0  0  0  0  0  0  0
  -21.7750   -6.3020   22.6440 C   0  0  0  0  0  0  0  0  0  0  0  0
  -21.3310   -6.8710   23.8580 C   0  0  0  0  0  3  0  0  0  0  0  0
  -21.2250   -6.0710   25.0130 C   0  0  0  0  0  3  0  0  0  0  0  0
  -21.5530   -4.7030   24.9560 C   0  0  0  0  0  0  0  0  0  0  0  0
  -21.9890   -4.1340   23.7470 C   0  0  0  0  0  3  0  0  0  0  0  0
  -22.0970   -4.9310   22.5950 C   0  0  0  0  0  0  0  0  0  0  0  0
  -22.4990   -4.3720   21.4280 F   0  0  0  0  0  0  0  0  0  0  0  0
  -21.4430   -3.9330   26.0650 F   0  0  0  0  0  0  0  0  0  0  0  0
  -23.0490  -13.6520   21.2300 C   0  0  0  0  0  0  0  0  0  0  0  0
  -22.3640  -12.9540   22.1300 N   0  0  0  0  0  0  0  0  0  0  0  0
  -22.6020  -14.6970   20.7610 O   0  0  0  0  0  0  0  0  0  0  0  0
  -22.7400  -12.1090   22.5330 H   0  0  0  0  0  0  0  0  0  0  0  0
  -21.4520  -13.2720   22.4230 H   0  0  0  0  0  0  0  0  0  0  0  0
  -25.6640  -15.2730   20.2790 N   0  0  0  0  0  0  0  0  0  0  0  0
  -24.9240  -15.9440   20.4580 H   0  0  0  0  0  0  0  0  0  0  0  0
  -26.5040  -15.6990   19.9060 H   0  0  0  0  0  0  0  0  0  0  0  0
  2  1  1  0
  2  7  1  0
  3 50  1  0
  3  1  2  0
  4  6  1  0
  5  2  2  0
  6  5  1  0
  6  3  1  0
  8  9  1  0
  8  7  1  0
 10 21  2  0
 11  9  1  0
 11 16  1  0
 12 20  1  0
 12 22  1  0
 13 19  1  0
 13 15  1  0
 14 20  1  0
 15 16  2  0
 15 14  1  0
 17 18  1  0
 17 11  2  0
 18 13  2  0
 19 12  1  0
 20 10  1  0
 22 24  2  0
 23 22  1  0
 25 23  1  0
 26 35  2  0
 26 31  1  0
 27 23  1  0
 27 31  1  0
 28 27  1  0
 29 30  1  0
 29 28  1  0
 30 26  1  0
 31 32  2  0
 32 33  1  0
 34 33  2  0
 35 34  1  0
 36 10  1  0
 36 37  1  0
 36 46  1  0
 37 40  1  0
 38 42  1  0
 38 37  1  0
 39 38  2  0
 42 41  1  0
 44 42  1  0
 44 45  1  0
 44 43  1  0
 46 49  1  1
 46 47  1  0
 48 46  1  0
 51 52  1  0
 51 50  1  0
 53 61  1  0
 54 59  1  0
 55 56  1  0
 55 54  1  0
 57 56  1  0
 57 66  1  0
 57 58  1  0
 59 53  1  0
 59 58  1  0
 60 53  2  0
 61 52  1  0
 61 62  1  0
 63 64  2  0
 64 83  1  0
 65 64  1  0
 65 68  1  0
 66 67  1  0
 66 63  1  0
 67 65  2  0
 68 69  1  0
 69 70  2  0
 71 74  1  0
 71 70  1  0
 72 71  2  0
 73 72  1  0
 73 68  2  0
 74 75  1  0
 75 76  1  0
 76 77  2  0
 78 77  1  0
 78 82  1  0
 79 78  2  0
 80 75  2  0
 80 79  1  0
 81 80  1  0
 83 84  1  0
 84 87  1  0
 84 86  1  0
 85 83  2  0
 88 63  1  0
 88 89  1  0
 90 88  1  0
M  ISO  4   8 101   9 101  53 100  61 100
M  END
>  <TORSDO>  (85) 
F 21

>  <SCORE>  (85) 
-13.123

>  <name>  (85) 
85

>  <ligand_id>  (85) 
85

>  <original_smiles>  (85) 
[H]c1c([H])c([H])c2c(c1[H])C([H])([H])C([H])([H])C([H])([H])C2([H])N([H])C(=O)C1([H])N(C(=O)C([H])(N([H])C(=O)C([H])(N([H])C([H])([H])[H])C([H])([H])[H])C(C([H])([H])[H])(C([H])([H])[H])C([H])([H])[H])C([H])([H])c2c([H])c(OC([H])([H])C([H])([H])c3nn(C([H])([H])[H])c(C([H])([H])C([H])([H])C([H])([H])N([H])C(=O)N4C([H])([H])C([H])([H])C([H])([H])C([H])(n5nc(-c6c([H])c([H])c(Oc7c([H])c([H])c(F)c([H])c7F)c([H])c6[H])c(C(=O)N([H])[H])c5N([H])[H])C4([H])[H])c3[H])c([H])c([H])c2C1([H])[H]

>  <smiles>  (85) 
[H]c1c([H])c([H])c2c(c1[H])C([H])([H])C([H])([H])C([H])([H])C2([H])N([H])C(=O)C1([H])N(C(=O)C([H])(N([H])C(=O)C([H])(N([H])C([H])([H])[H])C([H])([H])[H])C(C([H])([H])[H])(C([H])([H])[H])C([H])([H])[H])C([H])([H])c2c([H])c(OC([H])([H])C([H])([H])c3nn(C([H])([H])[H])c(C([H])([H])C([H])([H])C([H])([H])N([H])C(=O)N4C([H])([H])C([H])([H])C([H])([H])C([H])(n5nc(-c6c([H])c([H])c(Oc7c([H])c([H])c(F)c([H])c7F)c([H])c6[H])c(C(=O)N([H])[H])c5N([H])[H])C4([H])[H])c3[H])c([H])c([H])c2C1([H])[H]

$$$$
86:0:0
     RDKit          3D

 95 99  0  0  1  0  0  0  0  0999 V2000
  -19.8440  -25.9720   22.7040 C   0  0  0  0  0  1  0  0  0  0  0  0
  -21.4460  -26.7950   21.1650 C   0  0  0  0  0  3  0  0  0  0  0  0
  -19.2310  -24.7410   20.1920 C   0  0  0  0  0  0  0  0  0  0  0  0
  -20.6490  -24.9400   19.3340 C   0  0  0  0  0  3  0  0  0  0  0  0
  -18.8540  -25.0390   21.7470 N   0  0  0  0  0  0  0  0  0  0  0  0
  -21.2930  -26.2260   19.7460 N   0  0  0  0  0  2  0  0  0  0  0  0
  -18.1310  -24.0420   19.4070 C   0  0  0  0  0  2  0  0  0  0  0  0
  -15.8450  -23.5670   20.4510 C   0  0  0  0  0  1  0  0  0  0  0  0
  -17.2590  -23.0320   20.1820 C   0  0  0  0  0  2  0  0  0  0  0  0
  -21.9420  -23.5740   18.8010 C   0  0  0  0  0  1  0  0  0  0  0  0
  -23.7530  -22.7300   19.1910 C   0  0  0  0  0  1  0  0  0  0  0  0
  -24.7700  -21.2730   18.7400 N   0  0  0  0  0  4  0  0  0  0  0  0
  -24.8670  -21.3640   17.7420 H   0  0  0  0  0  0  0  0  0  0  0  0
  -24.0990  -20.5310   18.8590 H   0  0  0  0  0  0  0  0  0  0  0  0
  -26.3300  -20.4380   19.2260 C   0  0  0  0  0  1  0  0  0  0  0  0
  -27.2860  -18.6440   19.1010 C   0  0  0  0  0 15  0  0  0  0  0  0
  -28.7640  -17.4570   19.8770 C   0  0  0  0  0  1  0  0  0  0  0  0
  -30.0600  -15.9810   19.7460 C   0  0  0  0  0  0  0  0  0  0  0  0
  -30.8900  -13.4370   19.3400 C   0  0  0  0  0  2  0  0  0  0  0  0
  -30.1340  -12.8140   18.1290 C   0  0  0  0  0  2  0  0  0  0  0  0
  -28.6870  -12.4520   18.5170 C   0  0  0  0  0  2  0  0  0  0  0  0
  -28.0880  -13.5420   19.4350 C   0  0  0  0  0  3  0  0  0  0  0  0
  -28.9680  -13.8690   20.6230 C   0  0  0  0  0  2  0  0  0  0  0  0
  -30.0400  -14.5540   19.9710 N   0  0  0  0  0  0  0  0  0  0  0  0
  -31.2910  -16.1630   19.4920 O   0  0  0  0  0  0  0  0  0  0  0  0
  -25.8070  -14.2370   20.1780 C   0  0  0  0  0  0  0  0  0  0  0  0
  -24.7170  -13.5360   20.5700 C   0  0  0  0  0  0  0  0  0  0  0  0
  -25.1170  -12.1660   20.5620 C   0  0  0  0  0  0  0  0  0  0  0  0
  -26.7740  -13.2960   19.9170 N   0  0  0  0  0  0  0  0  0  0  0  0
  -26.3940  -12.0430   20.2340 N   0  0  0  0  0  0  0  0  0  0  0  0
  -24.3430  -10.9540   20.7670 C   0  0  0  0  0  0  0  0  0  0  0  0
  -24.7180   -9.9990   21.7330 C   0  0  0  0  0  3  0  0  0  0  0  0
  -23.9420   -8.8370   21.9100 C   0  0  0  0  0  3  0  0  0  0  0  0
  -22.7840   -8.6320   21.1240 C   0  0  0  0  0  0  0  0  0  0  0  0
  -22.4340   -9.5800   20.1490 C   0  0  0  0  0  3  0  0  0  0  0  0
  -23.2090  -10.7320   19.9680 C   0  0  0  0  0  3  0  0  0  0  0  0
  -21.9800   -7.5240   21.2150 O   0  0  0  0  0  0  0  0  0  0  0  0
  -21.7590   -6.9010   22.4140 C   0  0  0  0  0  0  0  0  0  0  0  0
  -21.2510   -7.5970   23.5330 C   0  0  0  0  0  3  0  0  0  0  0  0
  -20.9740   -6.9020   24.7260 C   0  0  0  0  0  3  0  0  0  0  0  0
  -21.1890   -5.5130   24.7970 C   0  0  0  0  0  0  0  0  0  0  0  0
  -21.6890   -4.8170   23.6830 C   0  0  0  0  0  3  0  0  0  0  0  0
  -21.9710   -5.5110   22.4930 C   0  0  0  0  0  0  0  0  0  0  0  0
  -22.4360   -4.8380   21.4130 F   0  0  0  0  0  0  0  0  0  0  0  0
  -20.9120   -4.8380   25.9390 F   0  0  0  0  0  0  0  0  0  0  0  0
  -23.3570  -14.1050   20.8250 C   0  0  0  0  0  0  0  0  0  0  0  0
  -22.6070  -13.5130   21.7450 N   0  0  0  0  0  0  0  0  0  0  0  0
  -22.9700  -15.1160   20.2370 O   0  0  0  0  0  0  0  0  0  0  0  0
  -22.9330  -12.7020   22.2480 H   0  0  0  0  0  0  0  0  0  0  0  0
  -21.6900  -13.8880   21.9520 H   0  0  0  0  0  0  0  0  0  0  0  0
  -26.0470  -15.5830   19.9810 N   0  0  0  0  0  0  0  0  0  0  0  0
  -25.3000  -16.2640   20.0510 H   0  0  0  0  0  0  0  0  0  0  0  0
  -26.8970  -15.9600   19.5870 H   0  0  0  0  0  0  0  0  0  0  0  0
  -23.3220  -27.2870   20.8630 C   0  0  0  0  0  2  0  0  0  0  0  0
  -25.1400  -27.0760   21.0690 O   0  0  0  0  0  0  0  0  0  0  0  0
  -27.4390  -30.6820   24.6260 C   0  0  0  0  0  0  0  0  0  0  0  0
  -26.3120  -27.3640   20.2240 C   0  0  0  0  0  3  0  0  0  0  0  0
  -25.6200  -30.7990   23.0050 C   0  0  0  0  0  3  0  0  0  0  0  0
  -26.0130  -29.8810   20.6430 C   0  0  0  0  0  3  0  0  0  0  0  0
  -27.9290  -30.1280   22.2260 C   0  0  0  0  0  2  0  0  0  0  0  0
  -27.1880  -29.3350   21.1650 C   0  0  0  0  0  3  0  0  0  0  0  0
  -27.4550  -28.0020   20.8170 C   0  0  0  0  0  2  0  0  0  0  0  0
  -25.8370  -28.0120   19.1040 C   0  0  0  0  0  2  0  0  0  0  0  0
  -25.4120  -29.2880   19.5010 C   0  0  0  0  0  2  0  0  0  0  0  0
  -25.3780  -30.9740   21.4640 C   0  0  0  0  0  2  0  0  0  0  0  0
  -27.0470  -30.5700   23.3270 N   0  0  0  0  0  0  0  0  0  0  0  0
  -26.6440  -31.0180   25.5200 O   0  0  0  0  0  0  0  0  0  0  0  0
  -24.8450  -29.6570   23.6670 C   0  0  0  0  0  0  0  0  0  0  0  0
  -23.6260  -29.9370   24.0350 N   0  0  0  0  0  0  0  0  0  0  0  0
  -25.3550  -28.5580   23.8470 O   0  0  0  0  0  0  0  0  0  0  0  0
  -23.2870  -30.8720   23.8650 H   0  0  0  0  0  0  0  0  0  0  0  0
  -21.1730  -27.9970   22.5830 C   0  0  0  0  0  0  0  0  0  0  0  0
  -22.7320  -29.0700   24.7300 C   0  0  0  0  0  3  0  0  0  0  0  0
  -23.4250  -27.6290   25.4950 C   0  0  0  0  0  3  0  0  0  0  0  0
  -23.4760  -25.9390   25.0400 C   0  0  0  0  0  3  0  0  0  0  0  0
  -22.6290  -25.3140   23.7430 C   0  0  0  0  0  1  0  0  0  0  0  0
  -21.5290  -29.1970   23.6300 C   0  0  0  0  0  0  0  0  0  0  0  0
  -20.8070  -30.3460   24.1760 C   0  0  0  0  0  3  0  0  0  0  0  0
  -19.4430  -30.5140   24.0900 C   0  0  0  0  0  3  0  0  0  0  0  0
  -18.8730  -29.4870   23.3340 C   0  0  0  0  0  3  0  0  0  0  0  0
  -19.6580  -28.4020   22.6670 C   0  0  0  0  0  3  0  0  0  0  0  0
  -28.9080  -30.4280   25.0330 C   0  0  0  0  0  3  0  0  0  0  0  0
  -29.1170  -29.0860   25.8270 C   0  0  1  0  0  0  0  0  0  0  0  0
  -28.1630  -28.9090   27.0310 C   0  0  0  0  0  1  0  0  0  0  0  0
  -28.9370  -27.8650   24.8970 C   0  0  0  0  0  1  0  0  0  0  0  0
  -30.5690  -29.0380   26.3510 C   0  0  0  0  0  1  0  0  0  0  0  0
  -29.3050  -31.5850   25.8400 N   0  0  0  0  0  0  0  0  0  0  0  0
  -29.8960  -32.6750   25.3430 C   0  0  0  0  0  0  0  0  0  0  0  0
  -30.2510  -32.7640   24.1650 O   0  0  0  0  0  0  0  0  0  0  0  0
  -29.0100  -31.5920   26.8050 H   0  0  0  0  0  0  0  0  0  0  0  0
  -29.0960  -34.9440   26.0660 C   0  0  0  0  0  1  0  0  0  0  0  0
  -30.1420  -33.8460   26.3100 C   0  0  0  0  0  3  0  0  0  0  0  0
  -32.5460  -33.5140   26.6850 C   0  0  0  0  0  1  0  0  0  0  0  0
  -31.5030  -34.4160   26.2020 N   0  0  0  0  0  0  0  0  0  0  0  0
  -31.5710  -35.2890   26.7210 H   0  0  0  0  0  0  0  0  0  0  0  0
  2  6  1  0
  2 72  1  0
  3  5  2  0
  4 10  1  0
  4  6  1  0
  4  3  1  0
  5  1  1  0
  7  9  1  0
  7  3  1  0
  9  8  1  0
 12 14  1  0
 12 11  1  0
 12 15  1  0
 13 12  1  0
 18 17  1  0
 18 24  1  0
 19 24  1  0
 20 21  1  0
 20 19  1  0
 22 21  1  0
 22 29  1  0
 22 23  1  0
 24 23  1  0
 25 18  2  0
 26 27  2  0
 27 46  1  0
 28 27  1  0
 28 31  1  0
 29 26  1  0
 29 30  1  0
 30 28  2  0
 31 32  1  0
 32 33  2  0
 34 37  1  0
 34 33  1  0
 35 34  2  0
 36 35  1  0
 36 31  2  0
 37 38  1  0
 38 43  2  0
 38 39  1  0
 39 40  2  0
 40 41  1  0
 41 45  1  0
 42 41  2  0
 43 42  1  0
 44 43  1  0
 46 47  1  0
 47 50  1  0
 47 49  1  0
 48 46  2  0
 51 52  1  0
 51 26  1  0
 53 51  1  0
 54 55  1  0
 54  2  1  0
 56 67  2  0
 57 63  1  0
 57 62  1  0
 57 55  1  0
 58 65  1  0
 58 66  1  0
 58 68  1  0
 59 64  1  0
 59 61  1  0
 59 65  1  0
 60 66  1  0
 61 62  1  0
 61 60  1  0
 63 64  1  0
 66 56  1  0
 68 70  2  0
 68 69  1  0
 69 73  1  0
 71 69  1  0
 72 81  2  0
 72 77  1  0
 73 74  1  0
 75 74  2  0
 76 75  1  0
 77 78  2  0
 77 73  1  0
 79 78  1  0
 80 79  2  0
 81 80  1  0
 82 56  1  0
 82 83  1  0
 82 87  1  0
 83 86  1  1
 83 84  1  0
 85 83  1  0
 87 90  1  0
 88 87  1  0
 88 92  1  0
 89 88  2  0
 92 91  1  0
 94 92  1  0
 94 93  1  0
 94 95  1  0
M  ISO  4  17 100  18 100  54 101  55 101
M  END
>  <TORSDO>  (86) 
F 25

>  <SCORE>  (86) 
-9.721

>  <name>  (86) 
86

>  <ligand_id>  (86) 
86

>  <original_smiles>  (86) 
[H]c1nc(C([H])([H])C([H])([H])C([H])([H])[H])c(C([H])([H])C([H])([H])[N+]([H])([H])C([H])([H])C([H])([H])C([H])([H])C(=O)N2C([H])([H])C([H])([H])C([H])([H])C([H])(n3nc(-c4c([H])c([H])c(Oc5c([H])c([H])c(F)c([H])c5F)c([H])c4[H])c(C(=O)N([H])[H])c3N([H])[H])C2([H])[H])nc1C([H])([H])Oc1c([H])c([H])c2c(c1[H])C([H])([H])N(C(=O)C([H])(N([H])C(=O)C([H])(N([H])C([H])([H])[H])C([H])([H])[H])C(C([H])([H])[H])(C([H])([H])[H])C([H])([H])[H])C([H])(C(=O)N([H])C1([H])c3c([H])c([H])c([H])c([H])c3C([H])([H])C([H])([H])C1([H])[H])C2([H])[H]

>  <smiles>  (86) 
[H]c1nc(C([H])([H])C([H])([H])C([H])([H])[H])c(C([H])([H])C([H])([H])[N+]([H])([H])C([H])([H])C([H])([H])C([H])([H])C(=O)N2C([H])([H])C([H])([H])C([H])([H])C([H])(n3nc(-c4c([H])c([H])c(Oc5c([H])c([H])c(F)c([H])c5F)c([H])c4[H])c(C(=O)N([H])[H])c3N([H])[H])C2([H])[H])nc1C([H])([H])Oc1c([H])c([H])c2c(c1[H])C([H])([H])N(C(=O)C([H])(N([H])C(=O)C([H])(N([H])C([H])([H])[H])C([H])([H])[H])C(C([H])([H])[H])(C([H])([H])[H])C([H])([H])[H])C([H])(C(=O)N([H])C1([H])c3c([H])c([H])c([H])c([H])c3C([H])([H])C([H])([H])C1([H])[H])C2([H])[H]

$$$$
87:0:0
     RDKit          3D

 88 96  0  0  1  0  0  0  0  0999 V2000
  -29.0080  -17.4790   19.3440 C   0  0  0  0  0  3  0  0  0  0  0  0
  -29.9590  -16.8810   20.2510 C   0  0  0  0  0  0  0  0  0  0  0  0
  -30.4510  -18.0160   21.0200 C   0  0  0  0  0  0  0  0  0  0  0  0
  -29.1230  -19.8430   20.0360 C   0  0  0  0  0  0  0  0  0  0  0  0
  -28.6200  -18.8400   19.2560 N   0  0  0  0  0  0  0  0  0  0  0  0
  -30.0280  -19.3690   20.9370 N   0  0  0  0  0  0  0  0  0  0  0  0
  -30.5980  -15.3520   20.1820 C   0  0  0  0  0  0  0  0  0  0  0  0
  -30.5050  -12.9120   19.3810 C   0  0  0  0  0  2  0  0  0  0  0  0
  -29.5790  -12.7190   18.1560 C   0  0  0  0  0  2  0  0  0  0  0  0
  -28.1330  -12.4670   18.6140 C   0  0  0  0  0  2  0  0  0  0  0  0
  -27.6920  -13.4520   19.7260 C   0  0  0  0  0  3  0  0  0  0  0  0
  -28.7490  -13.6330   20.8320 C   0  0  0  0  0  2  0  0  0  0  0  0
  -29.9890  -14.0760   20.1820 N   0  0  0  0  0  0  0  0  0  0  0  0
  -31.8110  -15.2960   19.9470 O   0  0  0  0  0  0  0  0  0  0  0  0
  -25.3420  -13.9970   20.5510 C   0  0  0  0  0  0  0  0  0  0  0  0
  -24.2890  -13.2140   20.9310 C   0  0  0  0  0  0  0  0  0  0  0  0
  -24.7560  -11.8650   20.8680 C   0  0  0  0  0  0  0  0  0  0  0  0
  -26.3780  -13.1270   20.2660 N   0  0  0  0  0  0  0  0  0  0  0  0
  -26.0390  -11.8370   20.5260 N   0  0  0  0  0  0  0  0  0  0  0  0
  -24.0330  -10.5990   21.0550 C   0  0  0  0  0  0  0  0  0  0  0  0
  -24.4610   -9.6320   21.9900 C   0  0  0  0  0  3  0  0  0  0  0  0
  -23.7350   -8.4340   22.1660 C   0  0  0  0  0  3  0  0  0  0  0  0
  -22.5660   -8.1940   21.4060 C   0  0  0  0  0  0  0  0  0  0  0  0
  -22.1560   -9.1500   20.4590 C   0  0  0  0  0  3  0  0  0  0  0  0
  -22.8830  -10.3390   20.2810 C   0  0  0  0  0  3  0  0  0  0  0  0
  -21.8120   -7.0480   21.4900 O   0  0  0  0  0  0  0  0  0  0  0  0
  -21.7110   -6.3380   22.6590 C   0  0  0  0  0  0  0  0  0  0  0  0
  -21.2140   -6.9210   23.8450 C   0  0  0  0  0  3  0  0  0  0  0  0
  -21.0620   -6.1350   25.0050 C   0  0  0  0  0  3  0  0  0  0  0  0
  -21.3960   -4.7680   24.9800 C   0  0  0  0  0  0  0  0  0  0  0  0
  -21.8870   -4.1840   23.7980 C   0  0  0  0  0  3  0  0  0  0  0  0
  -22.0400   -4.9670   22.6410 C   0  0  0  0  0  0  0  0  0  0  0  0
  -22.4920   -4.3950   21.4990 F   0  0  0  0  0  0  0  0  0  0  0  0
  -21.2440   -4.0110   26.0920 F   0  0  0  0  0  0  0  0  0  0  0  0
  -22.8980  -13.6860   21.2370 C   0  0  0  0  0  0  0  0  0  0  0  0
  -22.1920  -12.9820   22.1140 N   0  0  0  0  0  0  0  0  0  0  0  0
  -22.4490  -14.7160   20.7350 O   0  0  0  0  0  0  0  0  0  0  0  0
  -22.5700  -12.1490   22.5390 H   0  0  0  0  0  0  0  0  0  0  0  0
  -21.2600  -13.2820   22.3650 H   0  0  0  0  0  0  0  0  0  0  0  0
  -25.5010  -15.3710   20.3950 N   0  0  0  0  0  0  0  0  0  0  0  0
  -24.7410  -16.0250   20.5510 H   0  0  0  0  0  0  0  0  0  0  0  0
  -26.3500  -15.8200   20.0800 H   0  0  0  0  0  0  0  0  0  0  0  0
  -30.9130  -17.8060   23.4990 C   0  0  0  0  0  1  0  0  0  0  0  0
  -31.5120  -17.8030   22.0870 C   0  0  0  0  0  2  0  0  0  0  0  0
  -28.3800  -21.3930   20.1130 C   0  0  0  0  0  2  0  0  0  0  0  0
  -28.8520  -23.0620   19.8380 C   0  0  0  0  0  3  0  0  0  0  0  0
  -27.8490  -24.5130   19.8560 C   0  0  0  0  0  3  0  0  0  0  0  0
  -28.1440  -26.1050   19.8680 O   0  0  0  0  0  0  0  0  0  0  0  0
  -24.5950  -31.8740   23.0800 C   0  0  0  0  0  0  0  0  0  0  0  0
  -27.1150  -27.1600   19.8680 C   0  0  0  0  0  0  0  0  0  0  0  0
  -23.3770  -30.5310   21.4190 C   0  0  0  0  0  3  0  0  0  0  0  0
  -24.8020  -28.9840   19.9240 C   0  0  0  0  0  0  0  0  0  0  0  0
  -25.9350  -30.7720   21.2290 C   0  0  0  0  0  2  0  0  0  0  0  0
  -25.9980  -29.3890   20.5300 C   0  0  0  0  0  0  0  0  0  0  0  0
  -27.1530  -28.4980   20.4790 C   0  0  0  0  0  3  0  0  0  0  0  0
  -25.8880  -26.8910   19.2230 C   0  0  0  0  0  3  0  0  0  0  0  0
  -24.7680  -27.7540   19.2520 C   0  0  0  0  0  3  0  0  0  0  0  0
  -23.5790  -29.8880   20.0200 C   0  0  0  0  0  2  0  0  0  0  0  0
  -24.6590  -31.0820   21.9630 N   0  0  0  0  0  0  0  0  0  0  0  0
  -23.5140  -32.1410   23.6310 O   0  0  0  0  0  0  0  0  0  0  0  0
  -22.7070  -29.5060   22.3680 C   0  0  0  0  0  0  0  0  0  0  0  0
  -21.3720  -29.3670   22.2790 N   0  0  0  0  0  0  0  0  0  0  0  0
  -23.3900  -28.8360   23.1460 O   0  0  0  0  0  0  0  0  0  0  0  0
  -20.8730  -29.9630   21.6330 H   0  0  0  0  0  0  0  0  0  0  0  0
  -17.9800  -28.1270   22.7870 C   0  0  0  0  0  0  0  0  0  0  0  0
  -20.5730  -28.3680   22.9920 C   0  0  0  0  0  0  0  0  0  0  0  0
  -20.7420  -26.9880   22.2980 C   0  0  0  0  0  3  0  0  0  0  0  0
  -19.4950  -26.4500   21.5640 C   0  0  0  0  0  3  0  0  0  0  0  0
  -18.0610  -26.8640   21.9420 C   0  0  0  0  0  3  0  0  0  0  0  0
  -19.1280  -28.8460   23.2260 C   0  0  0  0  0  0  0  0  0  0  0  0
  -18.9360  -30.0740   23.9000 C   0  0  0  0  0  3  0  0  0  0  0  0
  -17.6440  -30.5810   24.1360 C   0  0  0  0  0  3  0  0  0  0  0  0
  -16.5170  -29.8520   23.7220 C   0  0  0  0  0  3  0  0  0  0  0  0
  -16.6890  -28.6260   23.0580 C   0  0  0  0  0  3  0  0  0  0  0  0
  -25.8760  -32.4970   23.7100 C   0  0  0  0  0  3  0  0  0  0  0  0
  -26.3990  -31.6970   24.9660 C   0  0  1  0  0  0  0  0  0  0  0  0
  -25.3160  -31.4440   26.0410 C   0  0  0  0  0  1  0  0  0  0  0  0
  -26.9700  -30.3220   24.5460 C   0  0  0  0  0  1  0  0  0  0  0  0
  -27.5620  -32.4700   25.6320 C   0  0  0  0  0  1  0  0  0  0  0  0
  -25.5620  -33.8860   24.0870 N   0  0  0  0  0  0  0  0  0  0  0  0
  -25.8750  -34.9670   23.3600 C   0  0  0  0  0  0  0  0  0  0  0  0
  -26.5260  -34.9000   22.3140 O   0  0  0  0  0  0  0  0  0  0  0  0
  -24.9810  -34.0100   24.9030 H   0  0  0  0  0  0  0  0  0  0  0  0
  -24.1370  -36.7700   23.1050 C   0  0  0  0  0  1  0  0  0  0  0  0
  -25.3960  -36.3390   23.8750 C   0  0  0  0  0  3  0  0  0  0  0  0
  -27.5430  -37.2080   24.6960 C   0  0  0  0  0  1  0  0  0  0  0  0
  -26.4230  -37.3990   23.7760 N   0  0  0  0  0  0  0  0  0  0  0  0
  -26.0180  -38.3130   23.9550 H   0  0  0  0  0  0  0  0  0  0  0  0
  1  2  2  0
  2  3  1  0
  3 44  1  0
  4 45  1  0
  4  6  1  0
  5  1  1  0
  5  4  2  0
  6  3  2  0
  7 13  1  0
  7  2  1  0
  8 13  1  0
  9 10  1  0
  9  8  1  0
 11 10  1  0
 11 18  1  0
 11 12  1  0
 13 12  1  0
 14  7  2  0
 15 16  2  0
 16 35  1  0
 17 16  1  0
 17 20  1  0
 18 19  1  0
 18 15  1  0
 19 17  2  0
 20 21  1  0
 21 22  2  0
 23 26  1  0
 23 22  1  0
 24 23  2  0
 25 24  1  0
 25 20  2  0
 26 27  1  0
 27 28  1  0
 28 29  2  0
 30 29  1  0
 30 34  1  0
 31 30  2  0
 32 27  2  0
 32 31  1  0
 33 32  1  0
 35 36  1  0
 36 39  1  0
 36 38  1  0
 37 35  2  0
 40 15  1  0
 40 41  1  0
 42 40  1  0
 44 43  1  0
 46 47  2  0
 46 45  1  0
 47 48  1  0
 49 60  2  0
 50 48  1  0
 50 55  1  0
 51 59  1  0
 51 61  1  0
 52 58  1  0
 52 54  1  0
 53 59  1  0
 54 53  1  0
 55 54  2  0
 56 57  1  0
 56 50  2  0
 57 52  2  0
 58 51  1  0
 59 49  1  0
 61 63  2  0
 62 61  1  0
 62 66  1  0
 64 62  1  0
 65 74  2  0
 65 70  1  0
 66 70  1  0
 67 66  2  0
 68 69  2  0
 68 67  1  0
 69 65  1  0
 70 71  2  0
 71 72  1  0
 73 72  2  0
 74 73  1  0
 75 49  1  0
 75 80  1  0
 75 76  1  0
 76 79  1  1
 76 77  1  0
 78 76  1  0
 80 83  1  0
 81 85  1  0
 81 80  1  0
 82 81  2  0
 85 84  1  0
 87 85  1  0
 87 88  1  0
 87 86  1  0
M  ISO  4   2 100   7 100  47 101  48 101
M  END
>  <TORSDO>  (87) 
F 20

>  <SCORE>  (87) 
-14.426

>  <name>  (87) 
87

>  <ligand_id>  (87) 
87

>  <original_smiles>  (87) 
[H]c1nc(C([H])([H])C([H])([H])C([H])([H])Oc2c([H])c([H])c3c(c2[H])C([H])([H])N(C(=O)C([H])(N([H])C(=O)C([H])(N([H])C([H])([H])[H])C([H])([H])[H])C(C([H])([H])[H])(C([H])([H])[H])C([H])([H])[H])C([H])(C(=O)N([H])C2([H])c4c([H])c([H])c([H])c([H])c4C([H])([H])C([H])([H])C2([H])[H])C3([H])[H])nc(C([H])([H])C([H])([H])[H])c1C(=O)N1C([H])([H])C([H])([H])C([H])([H])C([H])(n2nc(-c3c([H])c([H])c(Oc4c([H])c([H])c(F)c([H])c4F)c([H])c3[H])c(C(=O)N([H])[H])c2N([H])[H])C1([H])[H]

>  <smiles>  (87) 
[H]c1nc(C([H])([H])C([H])([H])C([H])([H])Oc2c([H])c([H])c3c(c2[H])C([H])([H])N(C(=O)C([H])(N([H])C(=O)C([H])(N([H])C([H])([H])[H])C([H])([H])[H])C(C([H])([H])[H])(C([H])([H])[H])C([H])([H])[H])C([H])(C(=O)N([H])C2([H])c4c([H])c([H])c([H])c([H])c4C([H])([H])C([H])([H])C2([H])[H])C3([H])[H])nc(C([H])([H])C([H])([H])[H])c1C(=O)N1C([H])([H])C([H])([H])C([H])([H])C([H])(n2nc(-c3c([H])c([H])c(Oc4c([H])c([H])c(F)c([H])c4F)c([H])c3[H])c(C(=O)N([H])[H])c2N([H])[H])C1([H])[H]

$$$$
88:0:0
     RDKit          3D

 94103  0  0  1  0  0  0  0  0999 V2000
  -29.8030  -21.7780   20.6030 C   0  0  0  0  0  3  0  0  0  0  0  0
  -29.8820  -20.3970   20.3400 C   0  0  0  0  0  3  0  0  0  0  0  0
  -30.0340  -19.9550   22.7210 C   0  0  0  0  0  3  0  0  0  0  0  0
  -29.8210  -22.2730   21.9270 C   0  0  0  0  0  0  0  0  0  0  0  0
  -29.9590  -21.3390   22.9890 C   0  0  0  0  0  0  0  0  0  0  0  0
  -30.0000  -19.4730   21.3980 C   0  0  0  0  0  0  0  0  0  0  0  0
  -30.0470  -21.8050   24.4310 C   0  0  0  0  0  2  0  0  0  0  0  0
  -30.6030  -23.2250   24.5360 C   0  0  0  0  0  2  0  0  0  0  0  0
  -29.7650  -24.1750   23.6790 C   0  0  0  0  0  2  0  0  0  0  0  0
  -29.7580  -23.7930   22.1810 C   0  0  0  0  0  3  0  0  0  0  0  0
  -30.0700  -17.9760   21.1150 C   0  0  0  0  0  2  0  0  0  0  0  0
  -31.3120  -17.2740   21.7110 C   0  0  0  0  0  2  0  0  0  0  0  0
  -31.9870  -16.2700   20.7600 C   0  0  0  0  0  2  0  0  0  0  0  0
  -31.6150  -14.0290   19.7920 C   0  0  0  0  0  0  0  0  0  0  0  0
  -31.1140  -11.7620   18.9600 C   0  0  0  0  0  2  0  0  0  0  0  0
  -30.1220  -11.8190   17.7840 C   0  0  0  0  0  2  0  0  0  0  0  0
  -28.6680  -11.8360   18.2950 C   0  0  0  0  0  2  0  0  0  0  0  0
  -28.4360  -12.8920   19.4080 C   0  0  0  0  0  3  0  0  0  0  0  0
  -29.5300  -12.7920   20.4930 C   0  0  0  0  0  2  0  0  0  0  0  0
  -30.8410  -12.9140   19.8330 N   0  0  0  0  0  0  0  0  0  0  0  0
  -32.6530  -14.1060   19.1280 O   0  0  0  0  0  0  0  0  0  0  0  0
  -31.1910  -15.0650   20.5270 N   0  0  0  0  0  0  0  0  0  0  0  0
  -30.3080  -14.9660   21.0050 H   0  0  0  0  0  0  0  0  0  0  0  0
  -26.2010  -13.7810   20.3260 C   0  0  0  0  0  0  0  0  0  0  0  0
  -25.0650  -13.1400   20.7450 C   0  0  0  0  0  0  0  0  0  0  0  0
  -25.3310  -11.7430   20.6200 C   0  0  0  0  0  0  0  0  0  0  0  0
  -27.0950  -12.7790   19.9780 N   0  0  0  0  0  0  0  0  0  0  0  0
  -26.5770  -11.5460   20.2080 N   0  0  0  0  0  0  0  0  0  0  0  0
  -24.4530  -10.5810   20.8130 C   0  0  0  0  0  0  0  0  0  0  0  0
  -24.7700   -9.5620   21.7370 C   0  0  0  0  0  3  0  0  0  0  0  0
  -23.9010   -8.4650   21.9200 C   0  0  0  0  0  3  0  0  0  0  0  0
  -22.7010   -8.3790   21.1770 C   0  0  0  0  0  0  0  0  0  0  0  0
  -22.4000   -9.3840   20.2410 C   0  0  0  0  0  3  0  0  0  0  0  0
  -23.2680  -10.4730   20.0570 C   0  0  0  0  0  3  0  0  0  0  0  0
  -21.8090   -7.3370   21.2670 O   0  0  0  0  0  0  0  0  0  0  0  0
  -21.6070   -6.6640   22.4450 C   0  0  0  0  0  0  0  0  0  0  0  0
  -21.1730   -7.3250   23.6160 C   0  0  0  0  0  3  0  0  0  0  0  0
  -20.9090   -6.5830   24.7860 C   0  0  0  0  0  3  0  0  0  0  0  0
  -21.0730   -5.1850   24.7860 C   0  0  0  0  0  0  0  0  0  0  0  0
  -21.5000   -4.5260   23.6200 C   0  0  0  0  0  3  0  0  0  0  0  0
  -21.7640   -5.2630   22.4530 C   0  0  0  0  0  0  0  0  0  0  0  0
  -22.1560   -4.6200   21.3260 F   0  0  0  0  0  0  0  0  0  0  0  0
  -20.8130   -4.4720   25.9070 F   0  0  0  0  0  0  0  0  0  0  0  0
  -23.7710  -13.7860   21.1490 C   0  0  0  0  0  0  0  0  0  0  0  0
  -23.0300  -13.1600   22.0570 N   0  0  0  0  0  0  0  0  0  0  0  0
  -23.4330  -14.8780   20.6970 O   0  0  0  0  0  0  0  0  0  0  0  0
  -23.3160  -12.2730   22.4430 H   0  0  0  0  0  0  0  0  0  0  0  0
  -22.1630  -13.5750   22.3690 H   0  0  0  0  0  0  0  0  0  0  0  0
  -26.5360  -15.1260   20.1940 N   0  0  0  0  0  0  0  0  0  0  0  0
  -25.8740  -15.8670   20.3990 H   0  0  0  0  0  0  0  0  0  0  0  0
  -27.4100  -15.4680   19.8120 H   0  0  0  0  0  0  0  0  0  0  0  0
  -28.5830  -24.4880   21.4420 C   0  0  0  0  0  2  0  0  0  0  0  0
  -28.7220  -26.0190   21.3110 C   0  0  0  0  0  2  0  0  0  0  0  0
  -28.0660  -26.4340   20.1170 O   0  0  0  0  0  0  0  0  0  0  0  0
  -24.4510  -31.7630   23.2340 C   0  0  0  0  0  0  0  0  0  0  0  0
  -26.9240  -27.1860   20.2370 C   0  0  0  0  0  0  0  0  0  0  0  0
  -23.1800  -30.3620   21.6410 C   0  0  0  0  0  3  0  0  0  0  0  0
  -24.5690  -28.7400   20.2450 C   0  0  0  0  0  0  0  0  0  0  0  0
  -25.7080  -30.6380   21.4020 C   0  0  0  0  0  2  0  0  0  0  0  0
  -25.7440  -29.2450   20.8160 C   0  0  0  0  0  0  0  0  0  0  0  0
  -26.9240  -28.4700   20.8260 C   0  0  0  0  0  3  0  0  0  0  0  0
  -25.7410  -26.6930   19.6570 C   0  0  0  0  0  3  0  0  0  0  0  0
  -24.5560  -27.4550   19.6720 C   0  0  0  0  0  3  0  0  0  0  0  0
  -23.3510  -29.6370   20.2800 C   0  0  0  0  0  2  0  0  0  0  0  0
  -24.4650  -30.9360   22.1500 N   0  0  0  0  0  0  0  0  0  0  0  0
  -23.3860  -32.0840   23.7810 O   0  0  0  0  0  0  0  0  0  0  0  0
  -22.5090  -29.3870   22.6350 C   0  0  0  0  0  0  0  0  0  0  0  0
  -21.1850  -29.2080   22.4970 N   0  0  0  0  0  0  0  0  0  0  0  0
  -23.1770  -28.7860   23.4820 O   0  0  0  0  0  0  0  0  0  0  0  0
  -20.7080  -29.7320   21.7760 H   0  0  0  0  0  0  0  0  0  0  0  0
  -17.8030  -28.0370   22.9730 C   0  0  0  0  0  0  0  0  0  0  0  0
  -20.3530  -28.3120   23.2990 C   0  0  0  0  0  3  0  0  0  0  0  0
  -20.4740  -26.8540   22.8010 C   0  0  0  0  0  2  0  0  0  0  0  0
  -19.3980  -26.4790   21.7760 C   0  0  0  0  0  2  0  0  0  0  0  0
  -17.9980  -26.6560   22.3730 C   0  0  0  0  0  2  0  0  0  0  0  0
  -18.9100  -28.8210   23.3930 C   0  0  0  0  0  0  0  0  0  0  0  0
  -18.6780  -30.1130   23.9120 C   0  0  0  0  0  3  0  0  0  0  0  0
  -17.3710  -30.6220   24.0190 C   0  0  0  0  0  3  0  0  0  0  0  0
  -16.2770  -29.8350   23.6180 C   0  0  0  0  0  3  0  0  0  0  0  0
  -16.4940  -28.5460   23.1010 C   0  0  0  0  0  3  0  0  0  0  0  0
  -25.7650  -32.3660   23.8210 C   0  0  0  0  0  3  0  0  0  0  0  0
  -25.4920  -33.7660   24.1700 N   0  0  0  0  0  0  0  0  0  0  0  0
  -25.8430  -34.8180   23.4180 C   0  0  0  0  0  0  0  0  0  0  0  0
  -26.4990  -34.7100   22.3780 O   0  0  0  0  0  0  0  0  0  0  0  0
  -24.9080  -33.9260   24.9780 H   0  0  0  0  0  0  0  0  0  0  0  0
  -24.1500  -36.6450   23.0980 C   0  0  0  0  0  1  0  0  0  0  0  0
  -25.3910  -36.2110   23.8950 C   0  0  0  0  0  3  0  0  0  0  0  0
  -27.5510  -37.0390   24.7130 C   0  0  0  0  0  1  0  0  0  0  0  0
  -26.4450  -37.2410   23.7810 N   0  0  0  0  0  0  0  0  0  0  0  0
  -26.0630  -38.1700   23.9380 H   0  0  0  0  0  0  0  0  0  0  0  0
  -26.3070  -31.5740   25.0720 C   0  0  1  0  0  0  0  0  0  0  0  0
  -25.2370  -31.3390   26.1640 C   0  0  0  0  0  1  0  0  0  0  0  0
  -26.8630  -30.1950   24.6450 C   0  0  0  0  0  1  0  0  0  0  0  0
  -27.4880  -32.3440   25.7090 C   0  0  0  0  0  1  0  0  0  0  0  0
  1  4  1  0
  2  1  2  0
  2  6  1  0
  3  5  1  0
  4 10  1  0
  4  5  2  0
  5  7  1  0
  6  3  2  0
  7  8  1  0
  9  8  1  0
 10 52  1  0
 10  9  1  0
 11  6  1  0
 11 12  1  0
 13 12  1  0
 14 20  1  0
 14 22  1  0
 15 20  1  0
 16 17  1  0
 16 15  1  0
 18 17  1  0
 18 27  1  0
 18 19  1  0
 20 19  1  0
 21 14  2  0
 22 13  1  0
 22 23  1  0
 24 25  2  0
 25 44  1  0
 26 25  1  0
 26 29  1  0
 27 28  1  0
 27 24  1  0
 28 26  2  0
 29 30  1  0
 30 31  2  0
 32 35  1  0
 32 31  1  0
 33 32  2  0
 34 33  1  0
 34 29  2  0
 35 36  1  0
 36 41  2  0
 36 37  1  0
 37 38  2  0
 39 38  1  0
 39 43  1  0
 40 39  2  0
 41 40  1  0
 42 41  1  0
 44 45  1  0
 45 48  1  0
 45 47  1  0
 46 44  2  0
 49 24  1  0
 49 50  1  0
 51 49  1  0
 53 52  1  0
 54 56  1  0
 54 53  1  0
 55 66  2  0
 56 61  1  0
 57 65  1  0
 57 67  1  0
 58 64  1  0
 58 60  1  0
 59 65  1  0
 60 61  2  0
 60 59  1  0
 62 63  1  0
 62 56  2  0
 63 58  2  0
 64 57  1  0
 65 55  1  0
 67 69  2  0
 68 67  1  0
 70 68  1  0
 71 80  2  0
 71 76  1  0
 72 68  1  0
 72 76  1  0
 73 72  1  0
 74 75  1  0
 74 73  1  0
 75 71  1  0
 76 77  2  0
 77 78  1  0
 79 78  2  0
 80 79  1  0
 81 55  1  0
 81 82  1  0
 81 91  1  0
 82 85  1  0
 83 87  1  0
 83 82  1  0
 84 83  2  0
 87 86  1  0
 89 87  1  0
 89 90  1  0
 89 88  1  0
 91 94  1  1
 91 92  1  0
 93 91  1  0
M  ISO  4  14 100  22 100  53 101  54 101
M  END
>  <TORSDO>  (88) 
F 21

>  <SCORE>  (88) 
-11.003

>  <name>  (88) 
88

>  <ligand_id>  (88) 
88

>  <original_smiles>  (88) 
[H]c1c([H])c([H])c2c(c1[H])C([H])([H])C([H])([H])C([H])([H])C2([H])N([H])C(=O)C1([H])N(C(=O)C([H])(N([H])C(=O)C([H])(N([H])C([H])([H])[H])C([H])([H])[H])C(C([H])([H])[H])(C([H])([H])[H])C([H])([H])[H])C([H])([H])c2c([H])c(OC([H])([H])C([H])([H])C3([H])c4c([H])c([H])c(C([H])([H])C([H])([H])C([H])([H])N([H])C(=O)N5C([H])([H])C([H])([H])C([H])([H])C([H])(n6nc(-c7c([H])c([H])c(Oc8c([H])c([H])c(F)c([H])c8F)c([H])c7[H])c(C(=O)N([H])[H])c6N([H])[H])C5([H])[H])c([H])c4C([H])([H])C([H])([H])C3([H])[H])c([H])c([H])c2C1([H])[H]

>  <smiles>  (88) 
[H]c1c([H])c([H])c2c(c1[H])C([H])([H])C([H])([H])C([H])([H])C2([H])N([H])C(=O)C1([H])N(C(=O)C([H])(N([H])C(=O)C([H])(N([H])C([H])([H])[H])C([H])([H])[H])C(C([H])([H])[H])(C([H])([H])[H])C([H])([H])[H])C([H])([H])c2c([H])c(OC([H])([H])C([H])([H])C3([H])c4c([H])c([H])c(C([H])([H])C([H])([H])C([H])([H])N([H])C(=O)N5C([H])([H])C([H])([H])C([H])([H])C([H])(n6nc(-c7c([H])c([H])c(Oc8c([H])c([H])c(F)c([H])c8F)c([H])c7[H])c(C(=O)N([H])[H])c6N([H])[H])C5([H])[H])c([H])c4C([H])([H])C([H])([H])C3([H])[H])c([H])c([H])c2C1([H])[H]

$$$$
89:0:0
     RDKit          3D

 90 98  0  0  1  0  0  0  0  0999 V2000
  -29.2150  -22.7310   19.0550 C   0  0  0  0  0  3  0  0  0  0  0  0
  -28.8460  -23.9390   19.7690 C   0  0  0  0  0  0  0  0  0  0  0  0
  -29.4450  -21.6380   19.8780 C   0  0  0  0  0  0  0  0  0  0  0  0
  -28.7990  -23.5090   21.0750 C   0  0  0  0  0  0  0  0  0  0  0  0
  -28.4190  -24.2880   22.3000 C   0  0  0  0  0  1  0  0  0  0  0  0
  -29.2640  -21.3570   22.3780 C   0  0  0  0  0  1  0  0  0  0  0  0
  -29.1760  -22.1440   21.1530 N   0  0  0  0  0  0  0  0  0  0  0  0
  -28.5100  -25.3460   19.1000 C   0  0  0  0  0  2  0  0  0  0  0  0
  -28.4390  -26.6440   19.8400 O   0  0  0  0  0  0  0  0  0  0  0  0
  -24.6490  -31.8410   23.1540 C   0  0  0  0  0  0  0  0  0  0  0  0
  -27.2940  -27.4710   19.8310 C   0  0  0  0  0  0  0  0  0  0  0  0
  -23.4390  -30.4870   21.4850 C   0  0  0  0  0  3  0  0  0  0  0  0
  -24.8890  -29.0430   19.9600 C   0  0  0  0  0  0  0  0  0  0  0  0
  -25.9700  -30.8760   21.2580 C   0  0  0  0  0  2  0  0  0  0  0  0
  -26.0670  -29.5330   20.5380 C   0  0  0  0  0  0  0  0  0  0  0  0
  -27.2690  -28.7600   20.4640 C   0  0  0  0  0  3  0  0  0  0  0  0
  -26.0800  -27.0300   19.2600 C   0  0  0  0  0  3  0  0  0  0  0  0
  -24.8990  -27.7960   19.3170 C   0  0  0  0  0  3  0  0  0  0  0  0
  -23.6380  -29.8900   20.0690 C   0  0  0  0  0  2  0  0  0  0  0  0
  -24.7050  -31.0850   22.0200 N   0  0  0  0  0  0  0  0  0  0  0  0
  -23.5760  -32.0630   23.7280 O   0  0  0  0  0  0  0  0  0  0  0  0
  -22.8360  -29.4060   22.4130 C   0  0  0  0  0  0  0  0  0  0  0  0
  -21.5250  -29.1440   22.2690 N   0  0  0  0  0  0  0  0  0  0  0  0
  -23.5460  -28.8070   23.2260 O   0  0  0  0  0  0  0  0  0  0  0  0
  -21.0020  -29.6860   21.5940 H   0  0  0  0  0  0  0  0  0  0  0  0
  -18.2420  -27.6790   22.6840 C   0  0  0  0  0  0  0  0  0  0  0  0
  -20.7640  -28.1420   23.0230 C   0  0  0  0  0  3  0  0  0  0  0  0
  -20.9930  -26.7210   22.4570 C   0  0  0  0  0  2  0  0  0  0  0  0
  -19.9510  -26.3130   21.4110 C   0  0  0  0  0  2  0  0  0  0  0  0
  -18.5450  -26.3480   22.0130 C   0  0  0  0  0  2  0  0  0  0  0  0
  -19.2850  -28.5260   23.1450 C   0  0  0  0  0  0  0  0  0  0  0  0
  -18.9530  -29.7660   23.7330 C   0  0  0  0  0  3  0  0  0  0  0  0
  -17.6080  -30.1620   23.8650 C   0  0  0  0  0  3  0  0  0  0  0  0
  -16.5800  -29.3150   23.4190 C   0  0  0  0  0  3  0  0  0  0  0  0
  -16.8960  -28.0760   22.8360 C   0  0  0  0  0  3  0  0  0  0  0  0
  -25.9320  -32.4890   23.7640 C   0  0  0  0  0  3  0  0  0  0  0  0
  -26.4760  -31.7160   25.0270 C   0  0  1  0  0  0  0  0  0  0  0  0
  -25.4050  -31.4540   26.1110 C   0  0  0  0  0  1  0  0  0  0  0  0
  -27.0830  -30.3500   24.6280 C   0  0  0  0  0  1  0  0  0  0  0  0
  -27.6160  -32.5290   25.6810 C   0  0  0  0  0  1  0  0  0  0  0  0
  -25.6020  -33.8790   24.1100 N   0  0  0  0  0  0  0  0  0  0  0  0
  -25.9200  -34.9490   23.3660 C   0  0  0  0  0  0  0  0  0  0  0  0
  -26.5970  -34.8690   22.3360 O   0  0  0  0  0  0  0  0  0  0  0  0
  -25.0070  -34.0120   24.9140 H   0  0  0  0  0  0  0  0  0  0  0  0
  -24.1920  -36.7410   23.0070 C   0  0  0  0  0  1  0  0  0  0  0  0
  -25.4150  -36.3250   23.8410 C   0  0  0  0  0  3  0  0  0  0  0  0
  -27.5140  -37.2140   24.7490 C   0  0  0  0  0  1  0  0  0  0  0  0
  -26.4430  -37.3860   23.7750 N   0  0  0  0  0  0  0  0  0  0  0  0
  -26.0230  -38.3010   23.9220 H   0  0  0  0  0  0  0  0  0  0  0  0
  -29.9440  -20.1940   19.4670 C   0  0  0  0  0  2  0  0  0  0  0  0
  -29.9180  -18.8370   20.3430 C   0  0  0  0  0  3  0  0  0  0  0  0
  -30.5430  -17.5180   19.6650 C   0  0  0  0  0  3  0  0  0  0  0  0
  -30.9620  -14.9710   20.0960 C   0  0  0  0  0  0  0  0  0  0  0  0
  -30.7130  -12.6940   19.1390 C   0  0  0  0  0  2  0  0  0  0  0  0
  -29.7700  -12.7870   17.9190 C   0  0  0  0  0  2  0  0  0  0  0  0
  -28.2930  -12.6640   18.3520 C   0  0  0  0  0  2  0  0  0  0  0  0
  -27.9460  -13.5500   19.5790 C   0  0  0  0  0  3  0  0  0  0  0  0
  -29.0170  -13.4330   20.6860 C   0  0  0  0  0  2  0  0  0  0  0  0
  -30.3150  -13.7590   20.0860 N   0  0  0  0  0  0  0  0  0  0  0  0
  -32.1490  -15.0400   19.7730 O   0  0  0  0  0  0  0  0  0  0  0  0
  -30.1990  -16.1220   20.1790 N   0  0  0  0  0  0  0  0  0  0  0  0
  -29.2180  -15.9670   20.3410 H   0  0  0  0  0  0  0  0  0  0  0  0
  -25.5800  -14.1800   20.3590 C   0  0  0  0  0  0  0  0  0  0  0  0
  -24.5110  -13.4210   20.7470 C   0  0  0  0  0  0  0  0  0  0  0  0
  -24.9510  -12.0630   20.7050 C   0  0  0  0  0  0  0  0  0  0  0  0
  -26.6030  -13.2830   20.0930 N   0  0  0  0  0  0  0  0  0  0  0  0
  -26.2350  -12.0040   20.3730 N   0  0  0  0  0  0  0  0  0  0  0  0
  -24.2090  -10.8110   20.9030 C   0  0  0  0  0  0  0  0  0  0  0  0
  -24.6150   -9.8560   21.8610 C   0  0  0  0  0  3  0  0  0  0  0  0
  -23.8750   -8.6700   22.0480 C   0  0  0  0  0  3  0  0  0  0  0  0
  -22.7130   -8.4300   21.2740 C   0  0  0  0  0  0  0  0  0  0  0  0
  -22.3270   -9.3730   20.3070 C   0  0  0  0  0  3  0  0  0  0  0  0
  -23.0680  -10.5510   20.1190 C   0  0  0  0  0  3  0  0  0  0  0  0
  -21.9450   -7.2930   21.3690 O   0  0  0  0  0  0  0  0  0  0  0  0
  -21.8400   -6.5920   22.5420 C   0  0  0  0  0  0  0  0  0  0  0  0
  -21.3260   -7.1780   23.7170 C   0  0  0  0  0  3  0  0  0  0  0  0
  -21.1720   -6.4010   24.8830 C   0  0  0  0  0  3  0  0  0  0  0  0
  -21.5170   -5.0360   24.8680 C   0  0  0  0  0  0  0  0  0  0  0  0
  -22.0260   -4.4500   23.6950 C   0  0  0  0  0  3  0  0  0  0  0  0
  -22.1800   -5.2250   22.5340 C   0  0  0  0  0  0  0  0  0  0  0  0
  -22.6500   -4.6500   21.4000 F   0  0  0  0  0  0  0  0  0  0  0  0
  -21.3600   -4.2840   25.9830 F   0  0  0  0  0  0  0  0  0  0  0  0
  -23.1220  -13.9180   21.0330 C   0  0  0  0  0  0  0  0  0  0  0  0
  -22.3950  -13.2370   21.9130 N   0  0  0  0  0  0  0  0  0  0  0  0
  -22.6940  -14.9450   20.5090 O   0  0  0  0  0  0  0  0  0  0  0  0
  -22.7570  -12.4110   22.3650 H   0  0  0  0  0  0  0  0  0  0  0  0
  -21.4590  -13.5480   22.1300 H   0  0  0  0  0  0  0  0  0  0  0  0
  -25.7490  -15.5480   20.1820 N   0  0  0  0  0  0  0  0  0  0  0  0
  -24.9800  -16.1930   20.3220 H   0  0  0  0  0  0  0  0  0  0  0  0
  -26.5700  -15.9990   19.8010 H   0  0  0  0  0  0  0  0  0  0  0  0
  1  2  1  0
  1  3  2  0
  2  4  2  0
  3  7  1  0
  4  7  1  0
  4  5  1  0
  7  6  1  0
  8  2  1  0
  8  9  1  0
 10 21  2  0
 11  9  1  0
 11 16  1  0
 12 20  1  0
 12 22  1  0
 13 19  1  0
 13 15  1  0
 14 20  1  0
 15 14  1  0
 16 15  2  0
 17 18  1  0
 17 11  2  0
 18 13  2  0
 19 12  1  0
 20 10  1  0
 22 24  2  0
 23 22  1  0
 25 23  1  0
 26 35  2  0
 26 31  1  0
 27 23  1  0
 27 31  1  0
 28 27  1  0
 29 30  1  0
 29 28  1  0
 30 26  1  0
 31 32  2  0
 32 33  1  0
 34 33  2  0
 35 34  1  0
 36 10  1  0
 36 41  1  0
 36 37  1  0
 37 40  1  1
 37 38  1  0
 39 37  1  0
 41 44  1  0
 42 46  1  0
 42 41  1  0
 43 42  2  0
 46 45  1  0
 48 46  1  0
 48 49  1  0
 48 47  1  0
 50  3  1  0
 50 51  1  0
 52 61  1  0
 52 51  2  0
 53 61  1  0
 54 59  1  0
 55 56  1  0
 55 54  1  0
 57 56  1  0
 57 66  1  0
 57 58  1  0
 59 53  1  0
 59 58  1  0
 60 53  2  0
 61 62  1  0
 63 64  2  0
 64 83  1  0
 65 64  1  0
 65 68  1  0
 66 63  1  0
 66 67  1  0
 67 65  2  0
 68 69  1  0
 69 70  2  0
 71 74  1  0
 71 70  1  0
 72 71  2  0
 73 72  1  0
 73 68  2  0
 74 75  1  0
 75 76  1  0
 76 77  2  0
 78 77  1  0
 78 82  1  0
 79 78  2  0
 80 75  2  0
 80 79  1  0
 81 80  1  0
 83 84  1  0
 84 87  1  0
 84 86  1  0
 85 83  2  0
 88 89  1  0
 88 63  1  0
 90 88  1  0
M  ISO  4   8 101   9 101  53 100  61 100
M  END
>  <TORSDO>  (89) 
F 20

>  <SCORE>  (89) 
-13.061

>  <name>  (89) 
89

>  <ligand_id>  (89) 
89

>  <original_smiles>  (89) 
[H]c1c([H])c([H])c2c(c1[H])C([H])([H])C([H])([H])C([H])([H])C2([H])N([H])C(=O)C1([H])N(C(=O)C([H])(N([H])C(=O)C([H])(N([H])C([H])([H])[H])C([H])([H])[H])C(C([H])([H])[H])(C([H])([H])[H])C([H])([H])[H])C([H])([H])c2c([H])c(OC([H])([H])c3c([H])c(C([H])([H])C([H])([H])C([H])([H])N([H])C(=O)N4C([H])([H])C([H])([H])C([H])([H])C([H])(n5nc(-c6c([H])c([H])c(Oc7c([H])c([H])c(F)c([H])c7F)c([H])c6[H])c(C(=O)N([H])[H])c5N([H])[H])C4([H])[H])n(C([H])([H])[H])c3C([H])([H])[H])c([H])c([H])c2C1([H])[H]

>  <smiles>  (89) 
[H]c1c([H])c([H])c2c(c1[H])C([H])([H])C([H])([H])C([H])([H])C2([H])N([H])C(=O)C1([H])N(C(=O)C([H])(N([H])C(=O)C([H])(N([H])C([H])([H])[H])C([H])([H])[H])C(C([H])([H])[H])(C([H])([H])[H])C([H])([H])[H])C([H])([H])c2c([H])c(OC([H])([H])c3c([H])c(C([H])([H])C([H])([H])C([H])([H])N([H])C(=O)N4C([H])([H])C([H])([H])C([H])([H])C([H])(n5nc(-c6c([H])c([H])c(Oc7c([H])c([H])c(F)c([H])c7F)c([H])c6[H])c(C(=O)N([H])[H])c5N([H])[H])C4([H])[H])n(C([H])([H])[H])c3C([H])([H])[H])c([H])c([H])c2C1([H])[H]

$$$$
90:0:0
     RDKit          3D

 95 95  0  0  1  0  0  0  0  0999 V2000
  -28.2080  -18.0010   21.3040 C   0  0  0  0  0  3  0  0  0  0  0  0
  -28.7620  -18.9510   20.1950 C   0  0  0  0  0  3  0  0  0  0  0  0
  -29.4620  -15.7300   19.8370 C   0  0  0  0  0  3  0  0  0  0  0  0
  -28.7040  -15.1910   21.1780 C   0  0  0  0  0  3  0  0  0  0  0  0
  -28.1920  -16.5030   21.6950 N   0  0  0  0  0  0  0  0  0  0  0  0
  -29.3090  -17.4700   19.6080 N   0  0  0  0  0  0  0  0  0  0  0  0
  -31.6180  -14.3050   16.7510 C   0  0  0  0  0  1  0  0  0  0  0  0
  -30.8360  -14.0900   18.1970 C   0  0  0  0  0  1  0  0  0  0  0  0
  -28.5070  -13.1740   21.9890 C   0  0  0  0  0  1  0  0  0  0  0  0
  -28.6630  -10.1370   21.5750 C   0  0  0  0  0  1  0  0  0  0  0  0
  -28.3710  -11.4130   20.8800 N   0  0  0  0  0  2  0  0  0  0  0  0
  -27.3570  -11.4460   20.9860 H   0  0  0  0  0  0  0  0  0  0  0  0
  -28.1510  -11.5290   18.7470 C   0  0  0  0  0 15  0  0  0  0  0  0
  -28.3570  -13.5230   17.5080 C   0  0  0  0  0 15  0  0  0  0  0  0
  -29.3410  -15.6620   17.5440 C   0  0  0  0  0 15  0  0  0  0  0  0
  -32.2110  -15.4650   19.6670 C   0  0  0  0  0  0  0  0  0  0  0  0
  -32.5630  -12.8720   20.3330 C   0  0  0  0  0  2  0  0  0  0  0  0
  -31.7620  -11.8470   19.5410 C   0  0  0  0  0  2  0  0  0  0  0  0
  -30.2920  -11.9890   19.8670 C   0  0  0  0  0  2  0  0  0  0  0  0
  -29.3780  -13.5480   20.2710 C   0  0  0  0  0  3  0  0  0  0  0  0
  -30.6990  -13.8360   21.2240 C   0  0  0  0  0  2  0  0  0  0  0  0
  -31.8790  -14.2210   20.4670 N   0  0  0  0  0  0  0  0  0  0  0  0
  -33.3760  -15.6430   20.0090 O   0  0  0  0  0  0  0  0  0  0  0  0
  -31.3640  -16.1460   18.3040 N   0  0  0  0  0  2  0  0  0  0  0  0
  -31.8400  -16.9020   17.8320 H   0  0  0  0  0  0  0  0  0  0  0  0
  -26.3140  -14.5970   19.9400 C   0  0  0  0  0  3  0  0  0  0  0  0
  -25.1590  -13.7930   20.0930 C   0  0  2  0  0  0  0  0  0  0  0  0
  -25.4510  -12.4950   20.4920 C   0  0  0  0  0  3  0  0  0  0  0  0
  -27.3700  -13.9190   20.4060 N   0  0  0  0  0  2  0  0  0  0  0  0
  -26.3420  -13.1190   21.1520 N   0  0  0  0  0  0  0  0  0  0  0  0
  -24.7970  -11.1260   20.7580 C   0  0  0  0  0  0  0  0  0  0  0  0
  -25.1420  -10.1410   21.7410 C   0  0  0  0  0  3  0  0  0  0  0  0
  -24.3660   -8.9510   21.9270 C   0  0  0  0  0  3  0  0  0  0  0  0
  -23.2230   -8.7050   21.1240 C   0  0  0  0  0  0  0  0  0  0  0  0
  -22.9400   -9.6230   20.1000 C   0  0  0  0  0  3  0  0  0  0  0  0
  -23.7160  -10.7860   19.9150 C   0  0  0  0  0  3  0  0  0  0  0  0
  -22.3830   -7.6090   21.2170 O   0  0  0  0  0  0  0  0  0  0  0  0
  -22.0960   -6.9710   22.4030 C   0  0  0  0  0  0  0  0  0  0  0  0
  -21.5750   -7.6540   23.5240 C   0  0  0  0  0  3  0  0  0  0  0  0
  -21.2450   -6.9430   24.6970 C   0  0  0  0  0  3  0  0  0  0  0  0
  -21.4240   -5.5470   24.7520 C   0  0  0  0  0  0  0  0  0  0  0  0
  -21.9200   -4.8600   23.6320 C   0  0  0  0  0  3  0  0  0  0  0  0
  -22.2480   -5.5670   22.4610 C   0  0  0  0  0  0  0  0  0  0  0  0
  -22.7010   -4.8900   21.3790 F   0  0  0  0  0  0  0  0  0  0  0  0
  -21.1160   -4.8650   25.8820 F   0  0  0  0  0  0  0  0  0  0  0  0
  -23.7830  -14.2590   20.1300 C   0  0  0  0  0  0  0  0  0  0  0  0
  -22.9680  -13.6710   21.0060 N   0  0  0  0  0  0  0  0  0  0  0  0
  -23.4790  -15.2150   19.4470 O   0  0  0  0  0  0  0  0  0  0  0  0
  -23.2890  -12.9210   21.6020 H   0  0  0  0  0  0  0  0  0  0  0  0
  -22.0150  -13.9930   21.0960 H   0  0  0  0  0  0  0  0  0  0  0  0
  -26.5910  -15.8730   19.5620 N   0  0  0  0  0  0  0  0  0  0  0  0
  -25.8360  -16.5030   19.3210 H   0  0  0  0  0  0  0  0  0  0  0  0
  -27.4530  -16.3580   19.7810 H   0  0  0  0  0  0  0  0  0  0  0  0
  -28.4560  -21.2450   19.6430 C   0  0  0  0  0 15  0  0  0  0  0  0
  -28.6390  -23.4980   19.7490 O   0  0  0  0  0  1  0  0  0  0  0  0
  -25.4390  -31.0550   22.3080 C   0  0  0  0  0  0  0  0  0  0  0  0
  -27.9300  -25.1750   19.5900 C   0  0  0  0  0  0  0  0  0  0  0  0
  -24.3720  -29.5890   20.6630 C   0  0  0  0  0  3  0  0  0  0  0  0
  -25.8800  -27.8050   19.3380 C   0  0  0  0  0  0  0  0  0  0  0  0
  -26.9640  -29.5160   20.7320 C   0  0  0  0  0  2  0  0  0  0  0  0
  -27.0360  -27.9800   20.0970 C   0  0  0  0  0  0  0  0  0  0  0  0
  -28.0130  -26.7210   20.1700 C   0  0  0  0  0  3  0  0  0  0  0  0
  -26.8140  -25.4780   18.7030 C   0  0  0  0  0  3  0  0  0  0  0  0
  -25.8740  -26.5990   18.6030 C   0  0  0  0  0  3  0  0  0  0  0  0
  -24.7070  -28.8480   19.3200 C   0  0  0  0  0  2  0  0  0  0  0  0
  -25.6290  -30.1170   21.2840 N   0  0  0  0  0  0  0  0  0  0  0  0
  -24.3060  -31.3530   22.7370 O   0  0  0  0  0  0  0  0  0  0  0  0
  -23.6010  -28.6510   21.6380 C   0  0  0  0  0  0  0  0  0  0  0  0
  -22.2540  -28.6080   21.5910 N   0  0  0  0  0  0  0  0  0  0  0  0
  -24.2440  -27.9510   22.4230 O   0  0  0  0  0  0  0  0  0  0  0  0
  -21.7740  -29.2210   20.9460 H   0  0  0  0  0  0  0  0  0  0  0  0
  -18.8310  -27.6080   22.3590 C   0  0  0  0  0  0  0  0  0  0  0  0
  -21.4200  -27.6690   22.3600 C   0  0  0  0  0  3  0  0  0  0  0  0
  -21.3390  -26.2980   21.6470 C   0  0  0  0  0  2  0  0  0  0  0  0
  -20.1210  -26.1690   20.7270 C   0  0  0  0  0  2  0  0  0  0  0  0
  -18.8270  -26.3370   21.5260 C   0  0  0  0  0  2  0  0  0  0  0  0
  -20.0460  -28.2430   22.7370 C   0  0  0  0  0  0  0  0  0  0  0  0
  -19.9860  -29.4340   23.4930 C   0  0  0  0  0  3  0  0  0  0  0  0
  -18.7470  -29.9900   23.8670 C   0  0  0  0  0  3  0  0  0  0  0  0
  -17.5500  -29.3510   23.4980 C   0  0  0  0  0  3  0  0  0  0  0  0
  -17.5930  -28.1610   22.7510 C   0  0  0  0  0  3  0  0  0  0  0  0
  -26.6130  -31.8140   23.0050 C   0  0  0  0  0  3  0  0  0  0  0  0
  -26.1350  -33.1420   23.4780 N   0  0  0  0  0  0  0  0  0  0  0  0
  -26.4890  -34.3370   22.9810 C   0  0  0  0  0  0  0  0  0  0  0  0
  -27.2910  -34.4470   22.0530 O   0  0  0  0  0  0  0  0  0  0  0  0
  -25.4240  -33.1240   24.1950 H   0  0  0  0  0  0  0  0  0  0  0  0
  -24.7040  -36.1090   22.7290 C   0  0  0  0  0  1  0  0  0  0  0  0
  -25.8660  -35.6110   23.6050 C   0  0  0  0  0  3  0  0  0  0  0  0
  -27.8210  -36.4490   24.8410 C   0  0  0  0  0  1  0  0  0  0  0  0
  -26.8320  -36.7170   23.8020 N   0  0  0  0  0  0  0  0  0  0  0  0
  -26.3470  -37.5780   24.0420 H   0  0  0  0  0  0  0  0  0  0  0  0
  -27.2030  -31.0260   24.2420 C   0  0  1  0  0  0  0  0  0  0  0  0
  -26.1400  -30.6150   25.2900 C   0  0  0  0  0  1  0  0  0  0  0  0
  -27.9230  -29.7380   23.7990 C   0  0  0  0  0  1  0  0  0  0  0  0
  -28.2720  -31.8890   24.9550 C   0  0  0  0  0  1  0  0  0  0  0  0
  1  5  1  0
  2  1  2  0
  3  4  1  0
  4  5  2  0
  6  3  2  0
  6  2  1  0
  7  8  1  0
 11 12  1  0
 11 10  1  0
 16 23  2  0
 16 22  1  0
 17 22  1  0
 18 19  1  0
 18 17  1  0
 19 20  1  0
 20 21  1  0
 20  9  1  0
 22 21  1  0
 24 16  1  0
 25 24  1  0
 26 51  1  0
 26 27  1  0
 26 29  1  0
 27 46  1  6
 27 28  1  0
 27 30  1  0
 28 31  1  0
 28 30  1  0
 30 29  1  0
 31 32  1  0
 32 33  2  0
 34 37  1  0
 34 33  1  0
 35 34  2  0
 36 35  1  0
 36 31  2  0
 37 38  1  0
 38 43  2  0
 38 39  1  0
 39 40  2  0
 40 41  1  0
 41 45  1  0
 42 41  2  0
 43 42  1  0
 44 43  1  0
 46 47  1  0
 47 50  1  0
 47 49  1  0
 48 46  2  0
 51 53  1  0
 52 51  1  0
 56 67  2  0
 57 55  1  0
 57 62  1  0
 58 66  1  0
 58 68  1  0
 59 61  1  0
 60 66  1  0
 61 62  2  0
 61 60  1  0
 63 57  2  0
 64 63  1  0
 64 59  2  0
 65 59  1  0
 65 58  1  0
 66 56  1  0
 68 70  2  0
 69 68  1  0
 71 69  1  0
 72 77  2  0
 72 81  1  0
 73 69  1  0
 73 77  1  0
 74 73  1  0
 75 76  1  0
 75 74  1  0
 76 72  1  0
 77 78  1  0
 78 79  2  0
 80 79  1  0
 81 80  2  0
 82 56  1  0
 82 83  1  0
 82 92  1  0
 83 86  1  0
 84 83  1  0
 84 88  1  0
 85 84  2  0
 88 87  1  0
 88 90  1  0
 90 91  1  0
 90 89  1  0
 92 95  1  1
 92 93  1  0
 94 92  1  0
M  ISO  4  16 100  24 100  54 101  55 101
M  END
>  <TORSDO>  (90) 
F 23

>  <SCORE>  (90) 
-4.046

>  <name>  (90) 
90

>  <ligand_id>  (90) 
90

>  <original_smiles>  (90) 
[H]c1nc(C([H])([H])[N+]([H])(C([H])([H])[H])C([H])([H])C([H])([H])C([H])([H])N([H])C(=O)N2C([H])([H])C([H])([H])C([H])([H])C([H])(n3nc(-c4c([H])c([H])c(Oc5c([H])c([H])c(F)c([H])c5F)c([H])c4[H])c(C(=O)N([H])[H])c3N([H])[H])C2([H])[H])c(C([H])([H])C([H])([H])[H])nc1C([H])([H])Oc1c([H])c([H])c2c(c1[H])C([H])([H])N(C(=O)C([H])(N([H])C(=O)C([H])(N([H])C([H])([H])[H])C([H])([H])[H])C(C([H])([H])[H])(C([H])([H])[H])C([H])([H])[H])C([H])(C(=O)N([H])C1([H])c3c([H])c([H])c([H])c([H])c3C([H])([H])C([H])([H])C1([H])[H])C2([H])[H]

>  <smiles>  (90) 
[H]c1nc(C([H])([H])[N+]([H])(C([H])([H])[H])C([H])([H])C([H])([H])C([H])([H])N([H])C(=O)N2C([H])([H])C([H])([H])C([H])([H])C([H])(n3nc(-c4c([H])c([H])c(Oc5c([H])c([H])c(F)c([H])c5F)c([H])c4[H])c(C(=O)N([H])[H])c3N([H])[H])C2([H])[H])c(C([H])([H])C([H])([H])[H])nc1C([H])([H])Oc1c([H])c([H])c2c(c1[H])C([H])([H])N(C(=O)C([H])(N([H])C(=O)C([H])(N([H])C([H])([H])[H])C([H])([H])[H])C(C([H])([H])[H])(C([H])([H])[H])C([H])([H])[H])C([H])(C(=O)N([H])C1([H])c3c([H])c([H])c([H])c([H])c3C([H])([H])C([H])([H])C1([H])[H])C2([H])[H]

$$$$
91:0:0
     RDKit          3D

 91 99  0  0  1  0  0  0  0  0999 V2000
  -30.6400  -21.9750   22.5670 C   0  0  0  0  0  3  0  0  0  0  0  0
  -31.2380  -20.8880   23.2430 C   0  0  0  0  0  3  0  0  0  0  0  0
  -29.8580  -21.4340   21.5780 C   0  0  0  0  0  0  0  0  0  0  0  0
  -30.8860  -19.7350   22.7210 N   0  0  0  0  0  0  0  0  0  0  0  0
  -30.0640  -20.0010   21.6760 N   0  0  0  0  0  0  0  0  0  0  0  0
  -28.9720  -22.3350   20.6520 C   0  0  0  0  0  2  0  0  0  0  0  0
  -29.2010  -23.9460   20.7150 C   0  0  0  0  0  3  0  0  0  0  0  0
  -28.1290  -24.9800   20.1170 C   0  0  0  0  0  3  0  0  0  0  0  0
  -28.3520  -26.4590   20.2110 O   0  0  0  0  0  0  0  0  0  0  0  0
  -24.5700  -31.8800   23.1460 C   0  0  0  0  0  0  0  0  0  0  0  0
  -27.2400  -27.3250   20.1230 C   0  0  0  0  0  0  0  0  0  0  0  0
  -23.3890  -30.4710   21.5010 C   0  0  0  0  0  3  0  0  0  0  0  0
  -24.8650  -28.9350   20.0800 C   0  0  0  0  0  0  0  0  0  0  0  0
  -25.9260  -30.8110   21.3300 C   0  0  0  0  0  2  0  0  0  0  0  0
  -26.0260  -29.4300   20.6890 C   0  0  0  0  0  0  0  0  0  0  0  0
  -27.2160  -28.6380   20.6990 C   0  0  0  0  0  3  0  0  0  0  0  0
  -26.0580  -26.8980   19.4760 C   0  0  0  0  0  3  0  0  0  0  0  0
  -24.8860  -27.6760   19.4610 C   0  0  0  0  0  3  0  0  0  0  0  0
  -23.6190  -29.8000   20.1200 C   0  0  0  0  0  2  0  0  0  0  0  0
  -24.6470  -31.0710   22.0490 N   0  0  0  0  0  0  0  0  0  0  0  0
  -23.4810  -32.1460   23.6760 O   0  0  0  0  0  0  0  0  0  0  0  0
  -22.7310  -29.4460   22.4560 C   0  0  0  0  0  0  0  0  0  0  0  0
  -21.4030  -29.2730   22.3390 N   0  0  0  0  0  0  0  0  0  0  0  0
  -23.4140  -28.8110   23.2640 O   0  0  0  0  0  0  0  0  0  0  0  0
  -20.9090  -29.8350   21.6590 H   0  0  0  0  0  0  0  0  0  0  0  0
  -18.0250  -28.0960   22.8720 C   0  0  0  0  0  0  0  0  0  0  0  0
  -20.5880  -28.3330   23.1100 C   0  0  0  0  0  3  0  0  0  0  0  0
  -20.6740  -26.9070   22.5160 C   0  0  0  0  0  2  0  0  0  0  0  0
  -19.5570  -26.6040   21.5130 C   0  0  0  0  0  2  0  0  0  0  0  0
  -18.1830  -26.7530   22.1760 C   0  0  0  0  0  2  0  0  0  0  0  0
  -19.1550  -28.8440   23.2950 C   0  0  0  0  0  0  0  0  0  0  0  0
  -18.9540  -30.1000   23.9070 C   0  0  0  0  0  3  0  0  0  0  0  0
  -17.6570  -30.6110   24.0970 C   0  0  0  0  0  3  0  0  0  0  0  0
  -16.5400  -29.8590   23.6890 C   0  0  0  0  0  3  0  0  0  0  0  0
  -16.7250  -28.6030   23.0840 C   0  0  0  0  0  3  0  0  0  0  0  0
  -25.8430  -32.5280   23.7740 C   0  0  0  0  0  3  0  0  0  0  0  0
  -25.5080  -33.9150   24.1260 N   0  0  0  0  0  0  0  0  0  0  0  0
  -25.8400  -34.9880   23.3950 C   0  0  0  0  0  0  0  0  0  0  0  0
  -26.5290  -34.9150   22.3740 O   0  0  0  0  0  0  0  0  0  0  0  0
  -24.8990  -34.0420   24.9200 H   0  0  0  0  0  0  0  0  0  0  0  0
  -24.1140  -36.7830   23.0210 C   0  0  0  0  0  1  0  0  0  0  0  0
  -25.3240  -36.3620   23.8700 C   0  0  0  0  0  3  0  0  0  0  0  0
  -27.4140  -37.2390   24.8150 C   0  0  0  0  0  1  0  0  0  0  0  0
  -26.3530  -37.4240   23.8290 N   0  0  0  0  0  0  0  0  0  0  0  0
  -25.9330  -38.3360   23.9840 H   0  0  0  0  0  0  0  0  0  0  0  0
  -26.3770  -31.7440   25.0350 C   0  0  1  0  0  0  0  0  0  0  0  0
  -25.2910  -31.4720   26.1030 C   0  0  0  0  0  1  0  0  0  0  0  0
  -26.9800  -30.3820   24.6210 C   0  0  0  0  0  1  0  0  0  0  0  0
  -27.5170  -32.5440   25.7080 C   0  0  0  0  0  1  0  0  0  0  0  0
  -29.6080  -18.7590   20.9390 C   0  0  0  0  0  2  0  0  0  0  0  0
  -30.3170  -17.3210   21.3500 C   0  0  0  0  0  2  0  0  0  0  0  0
  -30.9730  -14.8900   20.8090 C   0  0  0  0  0  0  0  0  0  0  0  0
  -30.8160  -12.5620   19.9280 C   0  0  0  0  0  2  0  0  0  0  0  0
  -29.9500  -12.4690   18.6540 C   0  0  0  0  0  2  0  0  0  0  0  0
  -28.4620  -12.3270   19.0010 C   0  0  0  0  0  2  0  0  0  0  0  0
  -27.9980  -13.3120   20.1070 C   0  0  0  0  0  3  0  0  0  0  0  0
  -28.9820  -13.3630   21.2920 C   0  0  0  0  0  2  0  0  0  0  0  0
  -30.3000  -13.6900   20.7320 N   0  0  0  0  0  0  0  0  0  0  0  0
  -32.2060  -14.8790   20.8380 O   0  0  0  0  0  0  0  0  0  0  0  0
  -30.3260  -16.0820   20.4380 N   0  0  0  0  0  0  0  0  0  0  0  0
  -25.5690  -13.9210   20.6500 C   0  0  0  0  0  0  0  0  0  0  0  0
  -24.4780  -13.1530   20.9470 C   0  0  0  0  0  0  0  0  0  0  0  0
  -24.9420  -11.8020   20.9890 C   0  0  0  0  0  0  0  0  0  0  0  0
  -26.6280  -13.0380   20.5200 N   0  0  0  0  0  0  0  0  0  0  0  0
  -26.2530  -11.7610   20.7920 N   0  0  0  0  0  0  0  0  0  0  0  0
  -24.2080  -10.5410   21.1450 C   0  0  0  0  0  0  0  0  0  0  0  0
  -24.5730   -9.5890   22.1220 C   0  0  0  0  0  3  0  0  0  0  0  0
  -23.8390   -8.3910   22.2650 C   0  0  0  0  0  3  0  0  0  0  0  0
  -22.7240   -8.1390   21.4310 C   0  0  0  0  0  0  0  0  0  0  0  0
  -22.3790   -9.0790   20.4420 C   0  0  0  0  0  3  0  0  0  0  0  0
  -23.1150  -10.2670   20.2980 C   0  0  0  0  0  3  0  0  0  0  0  0
  -21.9650   -6.9950   21.4820 O   0  0  0  0  0  0  0  0  0  0  0  0
  -21.8300   -6.2740   22.6420 C   0  0  0  0  0  0  0  0  0  0  0  0
  -21.3030   -6.8480   23.8180 C   0  0  0  0  0  3  0  0  0  0  0  0
  -21.1170   -6.0530   24.9680 C   0  0  0  0  0  3  0  0  0  0  0  0
  -21.4480   -4.6860   24.9390 C   0  0  0  0  0  0  0  0  0  0  0  0
  -21.9700   -4.1110   23.7660 C   0  0  0  0  0  3  0  0  0  0  0  0
  -22.1560   -4.9030   22.6190 C   0  0  0  0  0  0  0  0  0  0  0  0
  -22.6400   -4.3410   21.4870 F   0  0  0  0  0  0  0  0  0  0  0  0
  -21.2630   -3.9190   26.0390 F   0  0  0  0  0  0  0  0  0  0  0  0
  -23.0620  -13.6300   21.0930 C   0  0  0  0  0  0  0  0  0  0  0  0
  -22.2700  -12.9540   21.9150 N   0  0  0  0  0  0  0  0  0  0  0  0
  -22.6660  -14.6390   20.5110 O   0  0  0  0  0  0  0  0  0  0  0  0
  -22.6050  -12.1390   22.4100 H   0  0  0  0  0  0  0  0  0  0  0  0
  -21.3160  -13.2560   22.0570 H   0  0  0  0  0  0  0  0  0  0  0  0
  -25.7520  -15.2870   20.4500 N   0  0  0  0  0  0  0  0  0  0  0  0
  -24.9890  -15.9540   20.4840 H   0  0  0  0  0  0  0  0  0  0  0  0
  -26.6380  -15.7090   20.2030 H   0  0  0  0  0  0  0  0  0  0  0  0
  -31.4960  -15.9260   18.0780 C   0  0  0  0  0  1  0  0  0  0  0  0
  -29.1070  -16.7500   18.3570 C   0  0  0  0  0  1  0  0  0  0  0  0
  -30.4810  -16.5900   19.0350 C   0  0  0  0  0  3  0  0  0  0  0  0
  1  2  1  0
  3  5  1  0
  3  1  2  0
  4  2  2  0
  5  4  1  0
  6  7  1  0
  6  3  1  0
  8  9  1  0
  8  7  2  0
 10 21  2  0
 11  9  1  0
 11 16  1  0
 12 20  1  0
 12 22  1  0
 13 19  1  0
 13 15  1  0
 14 20  1  0
 15 16  2  0
 15 14  1  0
 17 11  2  0
 18 17  1  0
 18 13  2  0
 19 12  1  0
 20 10  1  0
 22 24  2  0
 23 22  1  0
 25 23  1  0
 26 35  2  0
 26 31  1  0
 27 23  1  0
 27 31  1  0
 28 27  1  0
 29 30  1  0
 29 28  1  0
 30 26  1  0
 31 32  2  0
 32 33  1  0
 34 33  2  0
 35 34  1  0
 36 10  1  0
 36 37  1  0
 36 46  1  0
 37 40  1  0
 38 42  1  0
 38 37  1  0
 39 38  2  0
 42 41  1  0
 44 42  1  0
 44 45  1  0
 44 43  1  0
 46 49  1  1
 46 47  1  0
 48 46  1  0
 50 51  1  0
 50  5  1  0
 52 59  2  0
 53 58  1  0
 54 55  1  0
 54 53  1  0
 56 55  1  0
 56 64  1  0
 56 57  1  0
 58 52  1  0
 58 57  1  0
 60 52  1  0
 60 51  1  0
 61 62  2  0
 62 63  1  0
 62 81  1  0
 63 66  1  0
 64 61  1  0
 64 65  1  0
 65 63  2  0
 66 67  1  0
 67 68  2  0
 69 72  1  0
 69 68  1  0
 70 69  2  0
 71 70  1  0
 71 66  2  0
 72 73  1  0
 73 74  1  0
 74 75  2  0
 76 75  1  0
 76 80  1  0
 77 76  2  0
 78 73  2  0
 78 77  1  0
 79 78  1  0
 81 82  1  0
 82 85  1  0
 82 84  1  0
 83 81  2  0
 86 87  1  0
 86 61  1  0
 88 86  1  0
 89 91  1  0
 90 91  1  0
 91 60  1  0
M  ISO  4   8 101   9 101  52 100  60 100
M  END
>  <TORSDO>  (91) 
F 22

>  <SCORE>  (91) 
-12.552

>  <name>  (91) 
91

>  <ligand_id>  (91) 
91

>  <original_smiles>  (91) 
[H]c1nn(C([H])([H])C([H])([H])N(C(=O)N2C([H])([H])C([H])([H])C([H])([H])C([H])(n3nc(-c4c([H])c([H])c(Oc5c([H])c([H])c(F)c([H])c5F)c([H])c4[H])c(C(=O)N([H])[H])c3N([H])[H])C2([H])[H])C([H])(C([H])([H])[H])C([H])([H])[H])c(C([H])([H])C([H])([H])C([H])([H])Oc2c([H])c([H])c3c(c2[H])C([H])([H])N(C(=O)C([H])(N([H])C(=O)C([H])(N([H])C([H])([H])[H])C([H])([H])[H])C(C([H])([H])[H])(C([H])([H])[H])C([H])([H])[H])C([H])(C(=O)N([H])C2([H])c4c([H])c([H])c([H])c([H])c4C([H])([H])C([H])([H])C2([H])[H])C3([H])[H])c1[H]

>  <smiles>  (91) 
[H]c1nn(C([H])([H])C([H])([H])N(C(=O)N2C([H])([H])C([H])([H])C([H])([H])C([H])(n3nc(-c4c([H])c([H])c(Oc5c([H])c([H])c(F)c([H])c5F)c([H])c4[H])c(C(=O)N([H])[H])c3N([H])[H])C2([H])[H])C([H])(C([H])([H])[H])C([H])([H])[H])c(C([H])([H])C([H])([H])C([H])([H])Oc2c([H])c([H])c3c(c2[H])C([H])([H])N(C(=O)C([H])(N([H])C(=O)C([H])(N([H])C([H])([H])[H])C([H])([H])[H])C(C([H])([H])[H])(C([H])([H])[H])C([H])([H])[H])C([H])(C(=O)N([H])C2([H])c4c([H])c([H])c([H])c([H])c4C([H])([H])C([H])([H])C2([H])[H])C3([H])[H])c1[H]

$$$$
92:0:0
     RDKit          3D

 86 94  0  0  1  0  0  0  0  0999 V2000
  -28.7140  -21.7090   20.5150 C   0  0  0  0  0  3  0  0  0  0  0  0
  -29.0520  -23.3700   20.3490 C   0  0  0  0  0  3  0  0  0  0  0  0
  -27.9540  -24.6580   20.3300 C   0  0  0  0  0  3  0  0  0  0  0  0
  -28.2440  -26.1940   20.2890 O   0  0  0  0  0  0  0  0  0  0  0  0
  -24.6200  -31.8950   23.2400 C   0  0  0  0  0  0  0  0  0  0  0  0
  -27.1860  -27.1760   20.2250 C   0  0  0  0  0  0  0  0  0  0  0  0
  -23.4160  -30.5030   21.6000 C   0  0  0  0  0  3  0  0  0  0  0  0
  -24.8620  -28.9260   20.1810 C   0  0  0  0  0  0  0  0  0  0  0  0
  -25.9710  -30.7670   21.4310 C   0  0  0  0  0  2  0  0  0  0  0  0
  -26.0420  -29.3740   20.7840 C   0  0  0  0  0  0  0  0  0  0  0  0
  -27.2090  -28.5170   20.7830 C   0  0  0  0  0  3  0  0  0  0  0  0
  -25.9740  -26.8290   19.5860 C   0  0  0  0  0  3  0  0  0  0  0  0
  -24.8400  -27.6670   19.5650 C   0  0  0  0  0  3  0  0  0  0  0  0
  -23.6380  -29.8260   20.2220 C   0  0  0  0  0  2  0  0  0  0  0  0
  -24.6890  -31.0770   22.1450 N   0  0  0  0  0  0  0  0  0  0  0  0
  -23.5350  -32.1820   23.7680 O   0  0  0  0  0  0  0  0  0  0  0  0
  -22.7360  -29.4970   22.5660 C   0  0  0  0  0  0  0  0  0  0  0  0
  -21.4060  -29.3260   22.4410 N   0  0  0  0  0  0  0  0  0  0  0  0
  -23.4070  -28.8690   23.3900 O   0  0  0  0  0  0  0  0  0  0  0  0
  -20.9200  -29.8880   21.7580 H   0  0  0  0  0  0  0  0  0  0  0  0
  -18.0240  -28.1210   22.9330 C   0  0  0  0  0  0  0  0  0  0  0  0
  -20.5820  -28.3920   23.2140 C   0  0  0  0  0  3  0  0  0  0  0  0
  -20.6910  -26.9570   22.6480 C   0  0  0  0  0  2  0  0  0  0  0  0
  -19.5970  -26.6220   21.6320 C   0  0  0  0  0  2  0  0  0  0  0  0
  -18.2100  -26.7670   22.2660 C   0  0  0  0  0  2  0  0  0  0  0  0
  -19.1390  -28.8900   23.3640 C   0  0  0  0  0  0  0  0  0  0  0  0
  -18.9120  -30.1530   23.9500 C   0  0  0  0  0  3  0  0  0  0  0  0
  -17.6040  -30.6500   24.1100 C   0  0  0  0  0  3  0  0  0  0  0  0
  -16.5050  -29.8780   23.6950 C   0  0  0  0  0  3  0  0  0  0  0  0
  -16.7150  -28.6180   23.1120 C   0  0  0  0  0  3  0  0  0  0  0  0
  -25.9010  -32.5280   23.8660 C   0  0  0  0  0  3  0  0  0  0  0  0
  -26.4110  -31.7580   25.1470 C   0  0  1  0  0  0  0  0  0  0  0  0
  -25.3150  -31.5340   26.2150 C   0  0  0  0  0  1  0  0  0  0  0  0
  -26.9890  -30.3750   24.7660 C   0  0  0  0  0  1  0  0  0  0  0  0
  -27.5590  -32.5520   25.8130 C   0  0  0  0  0  1  0  0  0  0  0  0
  -25.5900  -33.9260   24.2000 N   0  0  0  0  0  0  0  0  0  0  0  0
  -25.9010  -34.9840   23.4410 C   0  0  0  0  0  0  0  0  0  0  0  0
  -26.5510  -34.8880   22.3970 O   0  0  0  0  0  0  0  0  0  0  0  0
  -25.0110  -34.0760   25.0140 H   0  0  0  0  0  0  0  0  0  0  0  0
  -24.1520  -36.7730   23.1470 C   0  0  0  0  0  1  0  0  0  0  0  0
  -25.4200  -36.3700   23.9150 C   0  0  0  0  0  3  0  0  0  0  0  0
  -27.5750  -37.2740   24.6750 C   0  0  0  0  0  1  0  0  0  0  0  0
  -26.4400  -37.4310   23.7680 N   0  0  0  0  0  0  0  0  0  0  0  0
  -26.0300  -38.3480   23.9240 H   0  0  0  0  0  0  0  0  0  0  0  0
  -29.7760  -20.4470   20.1370 C   0  0  0  0  0  3  0  0  0  0  0  0
  -28.5670  -16.8970   20.5340 C   0  0  0  0  0  3  0  0  0  0  0  0
  -30.5100  -17.7610   20.1280 C   0  0  0  0  0  3  0  0  0  0  0  0
  -29.9100  -16.4840   20.2620 C   0  0  0  0  0  0  0  0  0  0  0  0
  -28.3810  -18.2530   20.5200 N   0  0  0  0  0  0  0  0  0  0  0  0
  -29.5830  -18.8680   20.2860 N   0  0  0  0  0  0  0  0  0  0  0  0
  -30.5450  -15.0100   20.0970 C   0  0  0  0  0  0  0  0  0  0  0  0
  -30.3180  -12.6680   19.1600 C   0  0  0  0  0  2  0  0  0  0  0  0
  -29.3720  -12.6560   17.9400 C   0  0  0  0  0  2  0  0  0  0  0  0
  -27.9130  -12.4540   18.3890 C   0  0  0  0  0  2  0  0  0  0  0  0
  -27.5310  -13.3530   19.5960 C   0  0  0  0  0  3  0  0  0  0  0  0
  -28.6160  -13.3890   20.6910 C   0  0  0  0  0  2  0  0  0  0  0  0
  -29.8850  -13.7770   20.0610 N   0  0  0  0  0  0  0  0  0  0  0  0
  -31.7390  -14.9820   19.7850 O   0  0  0  0  0  0  0  0  0  0  0  0
  -25.1760  -13.8860   20.4400 C   0  0  0  0  0  0  0  0  0  0  0  0
  -24.1360  -13.0950   20.8450 C   0  0  0  0  0  0  0  0  0  0  0  0
  -24.6110  -11.7520   20.7730 C   0  0  0  0  0  0  0  0  0  0  0  0
  -26.2160  -13.0260   20.1390 N   0  0  0  0  0  0  0  0  0  0  0  0
  -25.8910  -11.7330   20.4100 N   0  0  0  0  0  0  0  0  0  0  0  0
  -23.8970  -10.4810   20.9700 C   0  0  0  0  0  0  0  0  0  0  0  0
  -24.3560   -9.5090   21.8840 C   0  0  0  0  0  3  0  0  0  0  0  0
  -23.6380   -8.3090   22.0740 C   0  0  0  0  0  3  0  0  0  0  0  0
  -22.4470   -8.0710   21.3480 C   0  0  0  0  0  0  0  0  0  0  0  0
  -22.0060   -9.0340   20.4210 C   0  0  0  0  0  3  0  0  0  0  0  0
  -22.7270  -10.2250   20.2310 C   0  0  0  0  0  3  0  0  0  0  0  0
  -21.6990   -6.9240   21.4430 O   0  0  0  0  0  0  0  0  0  0  0  0
  -21.6700   -6.1760   22.5940 C   0  0  0  0  0  0  0  0  0  0  0  0
  -21.2560   -6.7250   23.8270 C   0  0  0  0  0  3  0  0  0  0  0  0
  -21.1740   -5.9080   24.9700 C   0  0  0  0  0  3  0  0  0  0  0  0
  -21.4950   -4.5400   24.8840 C   0  0  0  0  0  0  0  0  0  0  0  0
  -21.8990   -3.9890   23.6550 C   0  0  0  0  0  3  0  0  0  0  0  0
  -21.9840   -4.8040   22.5140 C   0  0  0  0  0  0  0  0  0  0  0  0
  -22.3530   -4.2650   21.3270 F   0  0  0  0  0  0  0  0  0  0  0  0
  -21.4070   -3.7510   25.9790 F   0  0  0  0  0  0  0  0  0  0  0  0
  -22.7460  -13.5590   21.1720 C   0  0  0  0  0  0  0  0  0  0  0  0
  -22.0600  -12.8500   22.0610 N   0  0  0  0  0  0  0  0  0  0  0  0
  -22.2820  -14.5840   20.6750 O   0  0  0  0  0  0  0  0  0  0  0  0
  -22.4570  -12.0240   22.4840 H   0  0  0  0  0  0  0  0  0  0  0  0
  -21.1220  -13.1300   22.3150 H   0  0  0  0  0  0  0  0  0  0  0  0
  -25.3090  -15.2610   20.2810 N   0  0  0  0  0  0  0  0  0  0  0  0
  -24.5350  -15.8900   20.4730 H   0  0  0  0  0  0  0  0  0  0  0  0
  -26.1000  -15.7330   19.8670 H   0  0  0  0  0  0  0  0  0  0  0  0
  2  1  1  0
  3  2  2  0
  4  3  1  0
  5 16  2  0
  6  4  1  0
  6 11  1  0
  7 15  1  0
  7 17  1  0
  8 14  1  0
  8 10  1  0
  9 15  1  0
 10  9  1  0
 11 10  2  0
 12  6  2  0
 13 12  1  0
 13  8  2  0
 14  7  1  0
 15  5  1  0
 17 19  2  0
 18 17  1  0
 20 18  1  0
 21 30  2  0
 21 26  1  0
 22 18  1  0
 22 26  1  0
 23 22  1  0
 24 25  1  0
 24 23  1  0
 25 21  1  0
 26 27  2  0
 27 28  1  0
 29 28  2  0
 30 29  1  0
 31  5  1  0
 31 36  1  0
 31 32  1  0
 32 35  1  1
 32 33  1  0
 34 32  1  0
 36 39  1  0
 37 41  1  0
 37 36  1  0
 38 37  2  0
 41 40  1  0
 43 41  1  0
 43 44  1  0
 43 42  1  0
 45 50  1  0
 45  1  2  0
 47 48  2  0
 47 50  1  0
 48 46  1  0
 49 46  2  0
 50 49  1  0
 51 48  1  0
 52 57  1  0
 53 54  1  0
 53 52  1  0
 55 54  1  0
 55 62  1  0
 55 56  1  0
 57 51  1  0
 57 56  1  0
 58 51  2  0
 59 60  2  0
 60 79  1  0
 61 60  1  0
 61 64  1  0
 62 63  1  0
 62 59  1  0
 63 61  2  0
 64 65  1  0
 65 66  2  0
 67 70  1  0
 67 66  1  0
 68 67  2  0
 69 68  1  0
 69 64  2  0
 70 71  1  0
 71 72  1  0
 72 73  2  0
 74 73  1  0
 74 78  1  0
 75 74  2  0
 76 71  2  0
 76 75  1  0
 77 76  1  0
 79 80  1  0
 80 83  1  0
 80 82  1  0
 81 79  2  0
 84 59  1  0
 84 85  1  0
 86 84  1  0
M  ISO  4   3 101   4 101  48 100  51 100
M  END
>  <TORSDO>  (92) 
F 20

>  <SCORE>  (92) 
-14.573

>  <name>  (92) 
92

>  <ligand_id>  (92) 
92

>  <original_smiles>  (92) 
[H]c1nn(C([H])([H])C([H])([H])C([H])([H])C([H])([H])Oc2c([H])c([H])c3c(c2[H])C([H])([H])N(C(=O)C([H])(N([H])C(=O)C([H])(N([H])C([H])([H])[H])C([H])([H])[H])C(C([H])([H])[H])(C([H])([H])[H])C([H])([H])[H])C([H])(C(=O)N([H])C2([H])c4c([H])c([H])c([H])c([H])c4C([H])([H])C([H])([H])C2([H])[H])C3([H])[H])c([H])c1C(=O)N1C([H])([H])C([H])([H])C([H])([H])C([H])(n2nc(-c3c([H])c([H])c(Oc4c([H])c([H])c(F)c([H])c4F)c([H])c3[H])c(C(=O)N([H])[H])c2N([H])[H])C1([H])[H]

>  <smiles>  (92) 
[H]c1nn(C([H])([H])C([H])([H])C([H])([H])C([H])([H])Oc2c([H])c([H])c3c(c2[H])C([H])([H])N(C(=O)C([H])(N([H])C(=O)C([H])(N([H])C([H])([H])[H])C([H])([H])[H])C(C([H])([H])[H])(C([H])([H])[H])C([H])([H])[H])C([H])(C(=O)N([H])C2([H])c4c([H])c([H])c([H])c([H])c4C([H])([H])C([H])([H])C2([H])[H])C3([H])[H])c([H])c1C(=O)N1C([H])([H])C([H])([H])C([H])([H])C([H])(n2nc(-c3c([H])c([H])c(Oc4c([H])c([H])c(F)c([H])c4F)c([H])c3[H])c(C(=O)N([H])[H])c2N([H])[H])C1([H])[H]

$$$$
93:0:0
     RDKit          3D

 90 98  0  0  1  0  0  0  0  0999 V2000
  -29.6910  -21.7440   19.1640 C   0  0  0  0  0  3  0  0  0  0  0  0
  -28.0090  -21.7450   20.8030 C   0  0  0  0  0  3  0  0  0  0  0  0
  -28.7420  -22.5150   19.8770 C   0  0  0  0  0  0  0  0  0  0  0  0
  -29.0560  -19.7510   20.1840 C   0  0  0  0  0  0  0  0  0  0  0  0
  -29.8300  -20.3950   19.3070 N   0  0  0  0  0  0  0  0  0  0  0  0
  -28.1750  -20.4000   20.9530 N   0  0  0  0  0  0  0  0  0  0  0  0
  -28.4520  -24.0280   19.5200 C   0  0  0  0  0  2  0  0  0  0  0  0
  -27.4840  -24.9400   21.7730 C   0  0  0  0  0  1  0  0  0  0  0  0
  -28.4740  -25.1790   20.6170 C   0  0  0  0  0  3  0  0  0  0  0  0
  -28.4660  -26.5940   20.1640 O   0  0  0  0  0  0  0  0  0  0  0  0
  -24.6290  -31.8730   23.2350 C   0  0  0  0  0  0  0  0  0  0  0  0
  -27.3070  -27.3780   20.1620 C   0  0  0  0  0  0  0  0  0  0  0  0
  -23.4490  -30.4770   21.5740 C   0  0  0  0  0  3  0  0  0  0  0  0
  -24.9200  -28.9440   20.1510 C   0  0  0  0  0  0  0  0  0  0  0  0
  -25.9820  -30.8250   21.4060 C   0  0  0  0  0  2  0  0  0  0  0  0
  -26.0790  -29.4530   20.7520 C   0  0  0  0  0  0  0  0  0  0  0  0
  -27.2770  -28.6830   20.7410 C   0  0  0  0  0  3  0  0  0  0  0  0
  -26.1260  -26.9070   19.5530 C   0  0  0  0  0  3  0  0  0  0  0  0
  -24.9440  -27.6750   19.5460 C   0  0  0  0  0  3  0  0  0  0  0  0
  -23.6760  -29.8070   20.1940 C   0  0  0  0  0  2  0  0  0  0  0  0
  -24.7060  -31.0760   22.1300 N   0  0  0  0  0  0  0  0  0  0  0  0
  -23.5420  -32.1400   23.7660 O   0  0  0  0  0  0  0  0  0  0  0  0
  -22.7860  -29.4510   22.5250 C   0  0  0  0  0  0  0  0  0  0  0  0
  -21.4600  -29.2750   22.3920 N   0  0  0  0  0  0  0  0  0  0  0  0
  -23.4620  -28.8170   23.3390 O   0  0  0  0  0  0  0  0  0  0  0  0
  -20.9730  -29.8370   21.7090 H   0  0  0  0  0  0  0  0  0  0  0  0
  -18.0800  -28.0820   22.8850 C   0  0  0  0  0  0  0  0  0  0  0  0
  -20.6400  -28.3300   23.1520 C   0  0  0  0  0  3  0  0  0  0  0  0
  -20.7370  -26.9080   22.5540 C   0  0  0  0  0  2  0  0  0  0  0  0
  -19.6320  -26.6030   21.5380 C   0  0  0  0  0  2  0  0  0  0  0  0
  -18.2520  -26.7420   22.1860 C   0  0  0  0  0  2  0  0  0  0  0  0
  -19.2030  -28.8330   23.3230 C   0  0  0  0  0  0  0  0  0  0  0  0
  -18.9910  -30.0880   23.9370 C   0  0  0  0  0  3  0  0  0  0  0  0
  -17.6880  -30.5920   24.1130 C   0  0  0  0  0  3  0  0  0  0  0  0
  -16.5800  -29.8370   23.6910 C   0  0  0  0  0  3  0  0  0  0  0  0
  -16.7780  -28.5840   23.0830 C   0  0  0  0  0  3  0  0  0  0  0  0
  -25.9010  -32.5090   23.8710 C   0  0  0  0  0  3  0  0  0  0  0  0
  -26.4000  -31.7480   25.1600 C   0  0  1  0  0  0  0  0  0  0  0  0
  -25.2930  -31.5100   26.2150 C   0  0  0  0  0  1  0  0  0  0  0  0
  -26.9890  -30.3680   24.7840 C   0  0  0  0  0  1  0  0  0  0  0  0
  -27.5430  -32.5450   25.8300 C   0  0  0  0  0  1  0  0  0  0  0  0
  -25.5870  -33.9110   24.1870 N   0  0  0  0  0  0  0  0  0  0  0  0
  -25.9330  -34.9590   23.4270 C   0  0  0  0  0  0  0  0  0  0  0  0
  -26.6180  -34.8480   22.4060 O   0  0  0  0  0  0  0  0  0  0  0  0
  -24.9740  -34.0710   24.9720 H   0  0  0  0  0  0  0  0  0  0  0  0
  -24.2130  -36.7550   23.0380 C   0  0  0  0  0  1  0  0  0  0  0  0
  -25.4390  -36.3500   23.8710 C   0  0  0  0  0  3  0  0  0  0  0  0
  -27.5580  -37.2390   24.7350 C   0  0  0  0  0  1  0  0  0  0  0  0
  -26.4750  -37.4000   23.7700 N   0  0  0  0  0  0  0  0  0  0  0  0
  -26.0660  -38.3210   23.9020 H   0  0  0  0  0  0  0  0  0  0  0  0
  -28.9600  -18.1740   20.1250 C   0  0  0  0  0  3  0  0  0  0  0  0
  -30.1200  -17.2250   20.6590 C   0  0  0  0  0  3  0  0  0  0  0  0
  -30.6040  -14.6770   20.3150 C   0  0  0  0  0  0  0  0  0  0  0  0
  -30.3760  -12.4600   19.2160 C   0  0  0  0  0  2  0  0  0  0  0  0
  -29.4130  -12.6020   18.0160 C   0  0  0  0  0  2  0  0  0  0  0  0
  -27.9480  -12.4430   18.4640 C   0  0  0  0  0  2  0  0  0  0  0  0
  -27.6080  -13.2940   19.7160 C   0  0  0  0  0  3  0  0  0  0  0  0
  -28.6780  -13.1190   20.8170 C   0  0  0  0  0  2  0  0  0  0  0  0
  -29.9790  -13.4620   20.2240 N   0  0  0  0  0  0  0  0  0  0  0  0
  -31.7650  -14.8370   19.9260 O   0  0  0  0  0  0  0  0  0  0  0  0
  -29.8150  -15.7420   20.6600 N   0  0  0  0  0  0  0  0  0  0  0  0
  -28.8830  -15.4840   20.9500 H   0  0  0  0  0  0  0  0  0  0  0  0
  -25.2190  -13.8900   20.4480 C   0  0  0  0  0  0  0  0  0  0  0  0
  -24.1570  -13.1170   20.8300 C   0  0  0  0  0  0  0  0  0  0  0  0
  -24.6230  -11.7650   20.7990 C   0  0  0  0  0  0  0  0  0  0  0  0
  -26.2640  -13.0130   20.2100 N   0  0  0  0  0  0  0  0  0  0  0  0
  -25.9100  -11.7310   20.4820 N   0  0  0  0  0  0  0  0  0  0  0  0
  -23.9030  -10.5020   20.9950 C   0  0  0  0  0  0  0  0  0  0  0  0
  -24.3370   -9.5420   21.9370 C   0  0  0  0  0  3  0  0  0  0  0  0
  -23.6150   -8.3420   22.1190 C   0  0  0  0  0  3  0  0  0  0  0  0
  -22.4480   -8.0940   21.3600 C   0  0  0  0  0  0  0  0  0  0  0  0
  -22.0350   -9.0410   20.4060 C   0  0  0  0  0  3  0  0  0  0  0  0
  -22.7570  -10.2320   20.2220 C   0  0  0  0  0  3  0  0  0  0  0  0
  -21.6990   -6.9450   21.4530 O   0  0  0  0  0  0  0  0  0  0  0  0
  -21.6360   -6.2180   22.6140 C   0  0  0  0  0  0  0  0  0  0  0  0
  -21.1640   -6.7810   23.8210 C   0  0  0  0  0  3  0  0  0  0  0  0
  -21.0510   -5.9790   24.9740 C   0  0  0  0  0  3  0  0  0  0  0  0
  -21.4000   -4.6160   24.9220 C   0  0  0  0  0  0  0  0  0  0  0  0
  -21.8640   -4.0540   23.7210 C   0  0  0  0  0  3  0  0  0  0  0  0
  -21.9790   -4.8520   22.5690 C   0  0  0  0  0  0  0  0  0  0  0  0
  -22.4070   -4.3000   21.4090 F   0  0  0  0  0  0  0  0  0  0  0  0
  -21.2830   -3.8440   26.0280 F   0  0  0  0  0  0  0  0  0  0  0  0
  -22.7600  -13.5890   21.1120 C   0  0  0  0  0  0  0  0  0  0  0  0
  -22.0380  -12.8850   21.9770 N   0  0  0  0  0  0  0  0  0  0  0  0
  -22.3170  -14.6150   20.5980 O   0  0  0  0  0  0  0  0  0  0  0  0
  -22.4100  -12.0530   22.4110 H   0  0  0  0  0  0  0  0  0  0  0  0
  -21.1030  -13.1840   22.2110 H   0  0  0  0  0  0  0  0  0  0  0  0
  -25.3770  -15.2610   20.2590 N   0  0  0  0  0  0  0  0  0  0  0  0
  -24.6050  -15.9100   20.3590 H   0  0  0  0  0  0  0  0  0  0  0  0
  -26.1990  -15.6860   19.8480 H   0  0  0  0  0  0  0  0  0  0  0  0
  1  5  1  0
  1  3  2  0
  2  6  2  0
  3  2  1  0
  4  6  1  0
  5  4  2  0
  7  3  1  0
  7  9  1  0
  9  8  1  0
 10  9  1  0
 11 22  2  0
 12 10  1  0
 12 17  1  0
 13 21  1  0
 13 23  1  0
 14 20  1  0
 14 16  1  0
 15 21  1  0
 16 15  1  0
 17 16  2  0
 18 12  2  0
 19 18  1  0
 19 14  2  0
 20 13  1  0
 21 11  1  0
 23 25  2  0
 24 23  1  0
 26 24  1  0
 27 36  2  0
 27 32  1  0
 28 24  1  0
 28 32  1  0
 29 28  1  0
 30 31  1  0
 30 29  1  0
 31 27  1  0
 32 33  2  0
 33 34  1  0
 35 34  2  0
 36 35  1  0
 37 11  1  0
 37 42  1  0
 37 38  1  0
 38 41  1  1
 38 39  1  0
 40 38  1  0
 42 45  1  0
 43 47  1  0
 43 42  1  0
 44 43  2  0
 47 46  1  0
 49 47  1  0
 49 50  1  0
 49 48  1  0
 51  4  1  0
 51 52  2  0
 52 61  1  0
 53 61  1  0
 54 59  1  0
 55 56  1  0
 55 54  1  0
 57 56  1  0
 57 66  1  0
 57 58  1  0
 59 53  1  0
 59 58  1  0
 60 53  2  0
 61 62  1  0
 63 64  2  0
 64 83  1  0
 65 64  1  0
 65 68  1  0
 66 63  1  0
 66 67  1  0
 67 65  2  0
 68 69  1  0
 69 70  2  0
 71 74  1  0
 71 70  1  0
 72 71  2  0
 73 72  1  0
 73 68  2  0
 74 75  1  0
 75 76  1  0
 76 77  2  0
 78 77  1  0
 78 82  1  0
 79 78  2  0
 80 75  2  0
 80 79  1  0
 81 80  1  0
 83 84  1  0
 84 87  1  0
 84 86  1  0
 85 83  2  0
 88 89  1  0
 88 63  1  0
 90 88  1  0
M  ISO  4   9 101  10 101  53 100  61 100
M  END
>  <TORSDO>  (93) 
F 20

>  <SCORE>  (93) 
-13.831

>  <name>  (93) 
93

>  <ligand_id>  (93) 
93

>  <original_smiles>  (93) 
[H]c1nc(C([H])([H])C([H])([H])N([H])C(=O)N2C([H])([H])C([H])([H])C([H])([H])C([H])(n3nc(-c4c([H])c([H])c(Oc5c([H])c([H])c(F)c([H])c5F)c([H])c4[H])c(C(=O)N([H])[H])c3N([H])[H])C2([H])[H])nc([H])c1C([H])([H])C([H])(Oc1c([H])c([H])c2c(c1[H])C([H])([H])N(C(=O)C([H])(N([H])C(=O)C([H])(N([H])C([H])([H])[H])C([H])([H])[H])C(C([H])([H])[H])(C([H])([H])[H])C([H])([H])[H])C([H])(C(=O)N([H])C1([H])c3c([H])c([H])c([H])c([H])c3C([H])([H])C([H])([H])C1([H])[H])C2([H])[H])C([H])([H])[H]

>  <smiles>  (93) 
[H]c1nc(C([H])([H])C([H])([H])N([H])C(=O)N2C([H])([H])C([H])([H])C([H])([H])C([H])(n3nc(-c4c([H])c([H])c(Oc5c([H])c([H])c(F)c([H])c5F)c([H])c4[H])c(C(=O)N([H])[H])c3N([H])[H])C2([H])[H])nc([H])c1C([H])([H])C([H])(Oc1c([H])c([H])c2c(c1[H])C([H])([H])N(C(=O)C([H])(N([H])C(=O)C([H])(N([H])C([H])([H])[H])C([H])([H])[H])C(C([H])([H])[H])(C([H])([H])[H])C([H])([H])[H])C([H])(C(=O)N([H])C1([H])c3c([H])c([H])c([H])c([H])c3C([H])([H])C([H])([H])C1([H])[H])C2([H])[H])C([H])([H])[H]

$$$$
