0:0:0
     RDKit          3D

 84 90  0  0  1  0  0  0  0  0999 V2000
  -29.7260  -19.1290   19.0430 C   0  0  0  0  0  3  0  0  0  0  0  0
  -29.5120  -17.9860   20.0400 C   0  0  0  0  0  0  0  0  0  0  0  0
  -28.7320  -21.4580   19.9960 C   0  0  0  0  0  3  0  0  0  0  0  0
  -29.3640  -20.6010   19.0180 N   0  0  0  0  0  0  0  0  0  0  0  0
  -28.8740  -18.9220   20.9940 N   0  0  0  0  0  0  0  0  0  0  0  0
  -28.5040  -20.3860   20.9700 N   0  0  0  0  0  0  0  0  0  0  0  0
  -30.1510  -16.1920   20.0840 C   0  0  0  0  0  0  0  0  0  0  0  0
  -30.3620  -13.5020   19.4610 C   0  0  0  0  0  2  0  0  0  0  0  0
  -29.5350  -12.8700   18.2890 C   0  0  0  0  0  2  0  0  0  0  0  0
  -28.1400  -12.4430   18.7600 C   0  0  0  0  0  2  0  0  0  0  0  0
  -27.5560  -13.5010   19.7150 C   0  0  0  0  0  3  0  0  0  0  0  0
  -28.5420  -14.0420   20.7890 C   0  0  0  0  0  2  0  0  0  0  0  0
  -29.6690  -14.7530   20.1040 N   0  0  0  0  0  0  0  0  0  0  0  0
  -31.3870  -16.0080   19.9350 O   0  0  0  0  0  0  0  0  0  0  0  0
  -25.2140  -13.9920   20.5180 C   0  0  0  0  0  0  0  0  0  0  0  0
  -24.1590  -13.2080   20.8830 C   0  0  0  0  0  0  0  0  0  0  0  0
  -24.6300  -11.8570   20.8320 C   0  0  0  0  0  0  0  0  0  0  0  0
  -26.2560  -13.1290   20.2540 N   0  0  0  0  0  0  0  0  0  0  0  0
  -25.9230  -11.8330   20.5070 N   0  0  0  0  0  0  0  0  0  0  0  0
  -23.8980  -10.5950   21.0130 C   0  0  0  0  0  0  0  0  0  0  0  0
  -24.2960   -9.6350   21.9700 C   0  0  0  0  0  3  0  0  0  0  0  0
  -23.5580   -8.4440   22.1420 C   0  0  0  0  0  3  0  0  0  0  0  0
  -22.4060   -8.2040   21.3580 C   0  0  0  0  0  0  0  0  0  0  0  0
  -22.0230   -9.1510   20.3930 C   0  0  0  0  0  3  0  0  0  0  0  0
  -22.7630  -10.3340   20.2200 C   0  0  0  0  0  3  0  0  0  0  0  0
  -21.6430   -7.0610   21.4350 O   0  0  0  0  0  0  0  0  0  0  0  0
  -21.5190   -6.3570   22.6060 C   0  0  0  0  0  0  0  0  0  0  0  0
  -20.9760   -6.9390   23.7720 C   0  0  0  0  0  3  0  0  0  0  0  0
  -20.8010   -6.1610   24.9340 C   0  0  0  0  0  3  0  0  0  0  0  0
  -21.1610   -4.8000   24.9290 C   0  0  0  0  0  0  0  0  0  0  0  0
  -21.6980   -4.2160   23.7680 C   0  0  0  0  0  3  0  0  0  0  0  0
  -21.8730   -4.9930   22.6090 C   0  0  0  0  0  0  0  0  0  0  0  0
  -22.3710   -4.4200   21.4860 F   0  0  0  0  0  0  0  0  0  0  0  0
  -20.9890   -4.0490   26.0420 F   0  0  0  0  0  0  0  0  0  0  0  0
  -22.7650  -13.6840   21.1600 C   0  0  0  0  0  0  0  0  0  0  0  0
  -22.0370  -12.9860   22.0230 N   0  0  0  0  0  0  0  0  0  0  0  0
  -22.3280  -14.7140   20.6470 O   0  0  0  0  0  0  0  0  0  0  0  0
  -22.4020  -12.1510   22.4590 H   0  0  0  0  0  0  0  0  0  0  0  0
  -21.1040  -13.2930   22.2580 H   0  0  0  0  0  0  0  0  0  0  0  0
  -25.3760  -15.3680   20.3540 N   0  0  0  0  0  0  0  0  0  0  0  0
  -24.6180  -16.0280   20.5000 H   0  0  0  0  0  0  0  0  0  0  0  0
  -26.2280  -15.8100   20.0350 H   0  0  0  0  0  0  0  0  0  0  0  0
  -27.9340  -23.3150   19.8600 C   0  0  0  0  0 15  0  0  0  0  0  0
  -28.1110  -25.2060   20.0230 O   0  0  0  0  0  1  0  0  0  0  0  0
  -24.6260  -31.7890   23.0790 C   0  0  0  0  0  0  0  0  0  0  0  0
  -27.1750  -26.5490   20.0090 C   0  0  0  0  0  0  0  0  0  0  0  0
  -23.4600  -30.4090   21.4180 C   0  0  0  0  0  3  0  0  0  0  0  0
  -24.9220  -28.7460   19.9910 C   0  0  0  0  0  0  0  0  0  0  0  0
  -26.0510  -30.4940   21.3290 C   0  0  0  0  0  2  0  0  0  0  0  0
  -26.1210  -29.0430   20.6470 C   0  0  0  0  0  0  0  0  0  0  0  0
  -27.2170  -27.9830   20.6170 C   0  0  0  0  0  3  0  0  0  0  0  0
  -25.9350  -26.5420   19.2970 C   0  0  0  0  0  3  0  0  0  0  0  0
  -24.8830  -27.5270   19.2920 C   0  0  0  0  0  3  0  0  0  0  0  0
  -23.7220  -29.7220   20.0440 C   0  0  0  0  0  2  0  0  0  0  0  0
  -24.7410  -30.9360   21.9960 N   0  0  0  0  0  0  0  0  0  0  0  0
  -23.5270  -32.0830   23.5790 O   0  0  0  0  0  0  0  0  0  0  0  0
  -22.7230  -29.4320   22.3770 C   0  0  0  0  0  0  0  0  0  0  0  0
  -21.3870  -29.2950   22.2590 N   0  0  0  0  0  0  0  0  0  0  0  0
  -23.3730  -28.7900   23.2050 O   0  0  0  0  0  0  0  0  0  0  0  0
  -20.9050  -29.8680   21.5790 H   0  0  0  0  0  0  0  0  0  0  0  0
  -17.9910  -28.1050   22.8140 C   0  0  0  0  0  0  0  0  0  0  0  0
  -20.5610  -28.3420   23.0160 C   0  0  0  0  0  3  0  0  0  0  0  0
  -20.6320  -26.9300   22.3860 C   0  0  0  0  0  2  0  0  0  0  0  0
  -19.5010  -26.6570   21.3900 C   0  0  0  0  0  2  0  0  0  0  0  0
  -18.1390  -26.7840   22.0780 C   0  0  0  0  0  2  0  0  0  0  0  0
  -19.1270  -28.8450   23.2400 C   0  0  0  0  0  0  0  0  0  0  0  0
  -18.9300  -30.0770   23.8980 C   0  0  0  0  0  3  0  0  0  0  0  0
  -17.6320  -30.5730   24.1290 C   0  0  0  0  0  3  0  0  0  0  0  0
  -16.5130  -29.8330   23.7130 C   0  0  0  0  0  3  0  0  0  0  0  0
  -16.6930  -28.6010   23.0600 C   0  0  0  0  0  3  0  0  0  0  0  0
  -25.8730  -32.4520   23.7450 C   0  0  0  0  0  3  0  0  0  0  0  0
  -25.5240  -33.8400   24.1230 N   0  0  0  0  0  0  0  0  0  0  0  0
  -25.8300  -34.9380   23.4180 C   0  0  0  0  0  0  0  0  0  0  0  0
  -26.4820  -34.8910   22.3730 O   0  0  0  0  0  0  0  0  0  0  0  0
  -24.9350  -33.9450   24.9360 H   0  0  0  0  0  0  0  0  0  0  0  0
  -24.0740  -36.7380   23.1970 C   0  0  0  0  0  1  0  0  0  0  0  0
  -25.3420  -36.3050   23.9510 C   0  0  0  0  0  3  0  0  0  0  0  0
  -27.4800  -37.2060   24.7630 C   0  0  0  0  0  1  0  0  0  0  0  0
  -26.3560  -37.3780   23.8470 N   0  0  0  0  0  0  0  0  0  0  0  0
  -25.9390  -38.2880   24.0230 H   0  0  0  0  0  0  0  0  0  0  0  0
  -26.3770  -31.6690   25.0220 C   0  0  1  0  0  0  0  0  0  0  0  0
  -25.2770  -31.4060   26.0780 C   0  0  0  0  0  1  0  0  0  0  0  0
  -26.9790  -30.3020   24.6340 C   0  0  0  0  0  1  0  0  0  0  0  0
  -27.5090  -32.4660   25.7130 C   0  0  0  0  0  1  0  0  0  0  0  0
  1  2  1  0
  2  7  1  0
  2  5  2  0
  3  6  2  0
  4  1  2  0
  4  3  1  0
  6  5  1  0
  7 13  1  0
  8 13  1  0
  9 10  1  0
  9  8  1  0
 11 10  1  0
 11 18  1  0
 11 12  1  0
 13 12  1  0
 14  7  2  0
 15 16  2  0
 16 35  1  0
 17 16  1  0
 17 20  1  0
 18 19  1  0
 18 15  1  0
 19 17  2  0
 20 21  1  0
 21 22  2  0
 23 26  1  0
 23 22  1  0
 24 23  2  0
 25 24  1  0
 25 20  2  0
 26 27  1  0
 27 32  2  0
 27 28  1  0
 28 29  2  0
 30 29  1  0
 30 34  1  0
 31 30  2  0
 32 31  1  0
 33 32  1  0
 35 36  1  0
 36 39  1  0
 36 38  1  0
 37 35  2  0
 40 41  1  0
 40 15  1  0
 42 40  1  0
 45 56  2  0
 46 44  1  0
 46 51  1  0
 47 55  1  0
 47 57  1  0
 48 54  1  0
 48 50  1  0
 49 55  1  0
 50 49  1  0
 51 50  2  0
 52 46  2  0
 53 52  1  0
 53 48  2  0
 54 47  1  0
 55 45  1  0
 57 59  2  0
 58 57  1  0
 60 58  1  0
 61 70  2  0
 61 66  1  0
 62 58  1  0
 62 66  1  0
 63 62  1  0
 64 65  1  0
 64 63  1  0
 65 61  1  0
 66 67  2  0
 67 68  1  0
 69 68  2  0
 70 69  1  0
 71 45  1  0
 71 72  1  0
 71 81  1  0
 72 75  1  0
 73 77  1  0
 73 72  1  0
 74 73  2  0
 77 76  1  0
 79 77  1  0
 79 80  1  0
 79 78  1  0
 81 84  1  1
 81 82  1  0
 83 81  1  0
M  ISO  4   2 100   7 100  43 101  44 101
M  END
>  <TORSDO>  (1) 
F 17

>  <SCORE>  (1) 
-15.983

>  <name>  (1) 
0

>  <ligand_id>  (1) 
0

>  <original_smiles>  (1) 
[H]c1nc(C([H])([H])Oc2c([H])c([H])c3c(c2[H])C([H])([H])N(C(=O)C([H])(N([H])C(=O)C([H])(N([H])C([H])([H])[H])C([H])([H])[H])C(C([H])([H])[H])(C([H])([H])[H])C([H])([H])[H])C([H])(C(=O)N([H])C2([H])c4c([H])c([H])c([H])c([H])c4C([H])([H])C([H])([H])C2([H])[H])C3([H])[H])nnc1C(=O)N1C([H])([H])C([H])([H])C([H])([H])C([H])(n2nc(-c3c([H])c([H])c(Oc4c([H])c([H])c(F)c([H])c4F)c([H])c3[H])c(C(=O)N([H])[H])c2N([H])[H])C1([H])[H]

>  <smiles>  (1) 
[H]c1nc(C([H])([H])Oc2c([H])c([H])c3c(c2[H])C([H])([H])N(C(=O)C([H])(N([H])C(=O)C([H])(N([H])C([H])([H])[H])C([H])([H])[H])C(C([H])([H])[H])(C([H])([H])[H])C([H])([H])[H])C([H])(C(=O)N([H])C2([H])c4c([H])c([H])c([H])c([H])c4C([H])([H])C([H])([H])C2([H])[H])C3([H])[H])nnc1C(=O)N1C([H])([H])C([H])([H])C([H])([H])C([H])(n2nc(-c3c([H])c([H])c(Oc4c([H])c([H])c(F)c([H])c4F)c([H])c3[H])c(C(=O)N([H])[H])c2N([H])[H])C1([H])[H]

$$$$
1:0:0
     RDKit          3D

 90 98  0  0  1  0  0  0  0  0999 V2000
  -30.1590  -20.2240   20.1140 C   0  0  0  0  0  3  0  0  0  0  0  0
  -29.3960  -19.0010   20.2560 C   0  0  0  0  0  0  0  0  0  0  0  0
  -29.3040  -21.3240   20.0620 C   0  0  0  0  0  0  0  0  0  0  0  0
  -26.7110  -21.3150   20.0450 C   0  0  0  0  0  1  0  0  0  0  0  0
  -28.1070  -19.3500   20.2460 N   0  0  0  0  0  0  0  0  0  0  0  0
  -28.0380  -20.7210   20.1040 N   0  0  0  0  0  0  0  0  0  0  0  0
  -29.8840  -17.5280   20.6470 C   0  0  0  0  0  2  0  0  0  0  0  0
  -30.5180  -15.1030   20.0790 C   0  0  0  0  0  0  0  0  0  0  0  0
  -30.4440  -12.7470   19.2420 C   0  0  0  0  0  2  0  0  0  0  0  0
  -29.5030  -12.6450   18.0230 C   0  0  0  0  0  2  0  0  0  0  0  0
  -28.0170  -12.5410   18.4460 C   0  0  0  0  0  2  0  0  0  0  0  0
  -27.6170  -13.4500   19.6440 C   0  0  0  0  0  3  0  0  0  0  0  0
  -28.6970  -13.4610   20.7390 C   0  0  0  0  0  2  0  0  0  0  0  0
  -29.9540  -13.8440   20.1000 N   0  0  0  0  0  0  0  0  0  0  0  0
  -31.7430  -15.2030   19.9360 O   0  0  0  0  0  0  0  0  0  0  0  0
  -29.6890  -16.2190   19.8510 N   0  0  0  0  0  0  0  0  0  0  0  0
  -25.2580  -14.0100   20.4510 C   0  0  0  0  0  0  0  0  0  0  0  0
  -24.2120  -13.2170   20.8430 C   0  0  0  0  0  0  0  0  0  0  0  0
  -24.6930  -11.8740   20.7880 C   0  0  0  0  0  0  0  0  0  0  0  0
  -26.3000  -13.1390   20.1800 N   0  0  0  0  0  0  0  0  0  0  0  0
  -25.9750  -11.8510   20.4520 N   0  0  0  0  0  0  0  0  0  0  0  0
  -23.9970  -10.5990   20.9900 C   0  0  0  0  0  0  0  0  0  0  0  0
  -24.4490   -9.6460   21.9300 C   0  0  0  0  0  3  0  0  0  0  0  0
  -23.7460   -8.4380   22.1150 C   0  0  0  0  0  3  0  0  0  0  0  0
  -22.5810   -8.1720   21.3580 C   0  0  0  0  0  0  0  0  0  0  0  0
  -22.1510   -9.1130   20.4060 C   0  0  0  0  0  3  0  0  0  0  0  0
  -22.8520  -10.3140   20.2200 C   0  0  0  0  0  3  0  0  0  0  0  0
  -21.8520   -7.0090   21.4460 O   0  0  0  0  0  0  0  0  0  0  0  0
  -21.7980   -6.2790   22.6050 C   0  0  0  0  0  0  0  0  0  0  0  0
  -21.3000   -6.8280   23.8080 C   0  0  0  0  0  3  0  0  0  0  0  0
  -21.1970   -6.0230   24.9620 C   0  0  0  0  0  3  0  0  0  0  0  0
  -21.5840   -4.6700   24.9120 C   0  0  0  0  0  0  0  0  0  0  0  0
  -22.0720   -4.1180   23.7160 C   0  0  0  0  0  3  0  0  0  0  0  0
  -22.1770   -4.9210   22.5660 C   0  0  0  0  0  0  0  0  0  0  0  0
  -22.6280   -4.3800   21.4090 F   0  0  0  0  0  0  0  0  0  0  0  0
  -21.4770   -3.8980   26.0190 F   0  0  0  0  0  0  0  0  0  0  0  0
  -22.8140  -13.6740   21.1450 C   0  0  0  0  0  0  0  0  0  0  0  0
  -22.1100  -12.9620   22.0180 N   0  0  0  0  0  0  0  0  0  0  0  0
  -22.3500  -14.6960   20.6430 O   0  0  0  0  0  0  0  0  0  0  0  0
  -22.4890  -12.1400   22.4640 H   0  0  0  0  0  0  0  0  0  0  0  0
  -21.1710  -13.2560   22.2430 H   0  0  0  0  0  0  0  0  0  0  0  0
  -25.4020  -15.3860   20.2740 N   0  0  0  0  0  0  0  0  0  0  0  0
  -24.6480  -16.0510   20.4150 H   0  0  0  0  0  0  0  0  0  0  0  0
  -26.2640  -15.8300   19.9740 H   0  0  0  0  0  0  0  0  0  0  0  0
  -28.3830  -17.4390   17.8670 C   0  0  0  0  0  1  0  0  0  0  0  0
  -29.3250  -16.3260   18.4020 C   0  0  0  0  0  2  0  0  0  0  0  0
  -29.7170  -22.8550   19.9960 C   0  0  0  0  0  2  0  0  0  0  0  0
  -28.7780  -24.1590   20.2030 C   0  0  0  0  0  2  0  0  0  0  0  0
  -29.2580  -25.5370   19.5280 C   0  0  0  0  0  2  0  0  0  0  0  0
  -29.0620  -26.8710   20.1570 O   0  0  0  0  0  0  0  0  0  0  0  0
  -24.8820  -31.8170   23.3230 C   0  0  0  0  0  0  0  0  0  0  0  0
  -27.8760  -27.6180   20.0890 C   0  0  0  0  0  0  0  0  0  0  0  0
  -23.8210  -30.4500   21.5590 C   0  0  0  0  0  3  0  0  0  0  0  0
  -25.4110  -29.0730   20.0970 C   0  0  0  0  0  0  0  0  0  0  0  0
  -26.3390  -30.9330   21.4810 C   0  0  0  0  0  2  0  0  0  0  0  0
  -26.5240  -29.6020   20.7560 C   0  0  0  0  0  0  0  0  0  0  0  0
  -27.7570  -28.8890   20.7420 C   0  0  0  0  0  3  0  0  0  0  0  0
  -26.7370  -27.1340   19.4170 C   0  0  0  0  0  3  0  0  0  0  0  0
  -25.5190  -27.8410   19.4180 C   0  0  0  0  0  3  0  0  0  0  0  0
  -24.1150  -29.8560   20.1550 C   0  0  0  0  0  2  0  0  0  0  0  0
  -25.0320  -31.0810   22.1820 N   0  0  0  0  0  0  0  0  0  0  0  0
  -23.7680  -32.0010   23.8270 O   0  0  0  0  0  0  0  0  0  0  0  0
  -23.1850  -29.3460   22.4330 C   0  0  0  0  0  0  0  0  0  0  0  0
  -21.8750  -29.1160   22.2500 N   0  0  0  0  0  0  0  0  0  0  0  0
  -23.8720  -28.6990   23.2290 O   0  0  0  0  0  0  0  0  0  0  0  0
  -21.3840  -29.6960   21.5820 H   0  0  0  0  0  0  0  0  0  0  0  0
  -18.5380  -27.7530   22.5790 C   0  0  0  0  0  0  0  0  0  0  0  0
  -21.0760  -28.0870   22.9200 C   0  0  0  0  0  3  0  0  0  0  0  0
  -21.2450  -26.7120   22.2320 C   0  0  0  0  0  2  0  0  0  0  0  0
  -20.1740  -26.4300   21.1740 C   0  0  0  0  0  2  0  0  0  0  0  0
  -18.7770  -26.4730   21.7960 C   0  0  0  0  0  2  0  0  0  0  0  0
  -19.6180  -28.5220   23.0890 C   0  0  0  0  0  0  0  0  0  0  0  0
  -19.3410  -29.7250   23.7750 C   0  0  0  0  0  3  0  0  0  0  0  0
  -18.0160  -30.1600   23.9560 C   0  0  0  0  0  3  0  0  0  0  0  0
  -16.9480  -29.3890   23.4650 C   0  0  0  0  0  3  0  0  0  0  0  0
  -17.2100  -28.1850   22.7860 C   0  0  0  0  0  3  0  0  0  0  0  0
  -26.1040  -32.4750   24.0400 C   0  0  0  0  0  3  0  0  0  0  0  0
  -25.7230  -33.8480   24.3990 N   0  0  0  0  0  0  0  0  0  0  0  0
  -26.0220  -34.9360   23.6750 C   0  0  0  0  0  0  0  0  0  0  0  0
  -26.7190  -34.8880   22.6580 O   0  0  0  0  0  0  0  0  0  0  0  0
  -25.1180  -33.9610   25.1990 H   0  0  0  0  0  0  0  0  0  0  0  0
  -24.2150  -36.6520   23.3360 C   0  0  0  0  0  1  0  0  0  0  0  0
  -25.4590  -36.2870   24.1600 C   0  0  0  0  0  3  0  0  0  0  0  0
  -27.5250  -37.2530   25.0620 C   0  0  0  0  0  1  0  0  0  0  0  0
  -26.4420  -37.3920   24.0940 N   0  0  0  0  0  0  0  0  0  0  0  0
  -25.9880  -38.2880   24.2520 H   0  0  0  0  0  0  0  0  0  0  0  0
  -26.5800  -31.6880   25.3210 C   0  0  1  0  0  0  0  0  0  0  0  0
  -25.4380  -31.3740   26.3190 C   0  0  0  0  0  1  0  0  0  0  0  0
  -27.2480  -30.3530   24.9210 C   0  0  0  0  0  1  0  0  0  0  0  0
  -27.6630  -32.5080   26.0660 C   0  0  0  0  0  1  0  0  0  0  0  0
  1  2  1  0
  2  7  1  0
  3  6  1  0
  3  1  2  0
  4  6  1  0
  5  2  2  0
  6  5  1  0
  8 14  1  0
  9 14  1  0
 10 11  1  0
 10  9  1  0
 12 11  1  0
 12 20  1  0
 12 13  1  0
 14 13  1  0
 15  8  2  0
 16  8  1  0
 16  7  1  0
 17 18  2  0
 18 37  1  0
 19 18  1  0
 19 22  1  0
 20 17  1  0
 20 21  1  0
 21 19  2  0
 22 23  1  0
 23 24  2  0
 25 28  1  0
 25 24  1  0
 26 25  2  0
 27 26  1  0
 27 22  2  0
 28 29  1  0
 29 30  1  0
 30 31  2  0
 32 31  1  0
 32 36  1  0
 33 32  2  0
 34 29  2  0
 34 33  1  0
 35 34  1  0
 37 38  1  0
 38 41  1  0
 38 40  1  0
 39 37  2  0
 42 43  1  0
 42 17  1  0
 44 42  1  0
 45 46  1  0
 46 16  1  0
 47  3  1  0
 47 48  1  0
 49 50  1  0
 49 48  1  0
 51 62  2  0
 52 50  1  0
 52 57  1  0
 53 61  1  0
 53 63  1  0
 54 60  1  0
 54 56  1  0
 55 61  1  0
 56 55  1  0
 57 56  2  0
 58 59  1  0
 58 52  2  0
 59 54  2  0
 60 53  1  0
 61 51  1  0
 63 65  2  0
 64 63  1  0
 66 64  1  0
 67 76  2  0
 67 72  1  0
 68 64  1  0
 68 72  1  0
 69 68  1  0
 70 71  1  0
 70 69  1  0
 71 67  1  0
 72 73  2  0
 73 74  1  0
 75 74  2  0
 76 75  1  0
 77 51  1  0
 77 78  1  0
 77 87  1  0
 78 81  1  0
 79 83  1  0
 79 78  1  0
 80 79  2  0
 83 82  1  0
 85 83  1  0
 85 86  1  0
 85 84  1  0
 87 90  1  1
 87 88  1  0
 89 87  1  0
M  ISO  4   8 100  16 100  49 101  50 101
M  END
>  <TORSDO>  (2) 
F 21

>  <SCORE>  (2) 
-11.606

>  <name>  (2) 
1

>  <ligand_id>  (2) 
1

>  <original_smiles>  (2) 
[H]c1c([H])c([H])c2c(c1[H])C([H])([H])C([H])([H])C([H])([H])C2([H])N([H])C(=O)C1([H])N(C(=O)C([H])(N([H])C(=O)C([H])(N([H])C([H])([H])[H])C([H])([H])[H])C(C([H])([H])[H])(C([H])([H])[H])C([H])([H])[H])C([H])([H])c2c([H])c(OC([H])([H])C([H])([H])C([H])([H])c3c([H])c(C([H])([H])N(C(=O)N4C([H])([H])C([H])([H])C([H])([H])C([H])(n5nc(-c6c([H])c([H])c(Oc7c([H])c([H])c(F)c([H])c7F)c([H])c6[H])c(C(=O)N([H])[H])c5N([H])[H])C4([H])[H])C([H])([H])C([H])([H])[H])nn3C([H])([H])[H])c([H])c([H])c2C1([H])[H]

>  <smiles>  (2) 
[H]c1c([H])c([H])c2c(c1[H])C([H])([H])C([H])([H])C([H])([H])C2([H])N([H])C(=O)C1([H])N(C(=O)C([H])(N([H])C(=O)C([H])(N([H])C([H])([H])[H])C([H])([H])[H])C(C([H])([H])[H])(C([H])([H])[H])C([H])([H])[H])C([H])([H])c2c([H])c(OC([H])([H])C([H])([H])C([H])([H])c3c([H])c(C([H])([H])N(C(=O)N4C([H])([H])C([H])([H])C([H])([H])C([H])(n5nc(-c6c([H])c([H])c(Oc7c([H])c([H])c(F)c([H])c7F)c([H])c6[H])c(C(=O)N([H])[H])c5N([H])[H])C4([H])[H])C([H])([H])C([H])([H])[H])nn3C([H])([H])[H])c([H])c([H])c2C1([H])[H]

$$$$
2:0:0
     RDKit          3D

 85 93  0  0  1  0  0  0  0  0999 V2000
  -28.9820  -22.1580   20.4020 C   0  0  0  0  0  2  0  0  0  0  0  0
  -29.4440  -20.3690   19.7990 C   0  0  0  0  0  2  0  0  0  0  0  0
  -30.1140  -16.7780   21.6810 C   0  0  0  0  0  3  0  0  0  0  0  0
  -29.4950  -18.8210   21.7450 C   0  0  0  0  0  3  0  0  0  0  0  0
  -30.1650  -17.1180   20.3450 C   0  0  0  0  0  0  0  0  0  0  0  0
  -29.6810  -17.7790   22.5220 N   0  0  0  0  0  0  0  0  0  0  0  0
  -29.7620  -18.7390   20.4220 N   0  0  0  0  0  0  0  0  0  0  0  0
  -30.7560  -15.6450   19.5200 C   0  0  0  0  0  0  0  0  0  0  0  0
  -30.6110  -13.1860   18.4700 C   0  0  0  0  0  2  0  0  0  0  0  0
  -29.5170  -12.9990   17.3790 C   0  0  0  0  0  2  0  0  0  0  0  0
  -28.1510  -12.6730   18.0060 C   0  0  0  0  0  2  0  0  0  0  0  0
  -27.8840  -13.5640   19.2380 C   0  0  0  0  0  3  0  0  0  0  0  0
  -29.0850  -13.6690   20.2010 C   0  0  0  0  0  2  0  0  0  0  0  0
  -30.2110  -14.2880   19.4580 N   0  0  0  0  0  0  0  0  0  0  0  0
  -31.8480  -15.6490   18.9250 O   0  0  0  0  0  0  0  0  0  0  0  0
  -25.7160  -14.1040   20.4550 C   0  0  0  0  0  0  0  0  0  0  0  0
  -24.6840  -13.3320   20.9040 C   0  0  0  0  0  0  0  0  0  0  0  0
  -25.0510  -11.9770   20.6320 C   0  0  0  0  0  0  0  0  0  0  0  0
  -26.6450  -13.2250   19.9280 N   0  0  0  0  0  0  0  0  0  0  0  0
  -26.2680  -11.9300   20.0950 N   0  0  0  0  0  0  0  0  0  0  0  0
  -24.2840  -10.7340   20.7940 C   0  0  0  0  0  0  0  0  0  0  0  0
  -24.7770   -9.6510   21.5550 C   0  0  0  0  0  3  0  0  0  0  0  0
  -24.0060   -8.4790   21.7130 C   0  0  0  0  0  3  0  0  0  0  0  0
  -22.7290   -8.3810   21.1140 C   0  0  0  0  0  0  0  0  0  0  0  0
  -22.2520   -9.4540   20.3400 C   0  0  0  0  0  3  0  0  0  0  0  0
  -23.0210  -10.6180   20.1790 C   0  0  0  0  0  3  0  0  0  0  0  0
  -21.9230   -7.2710   21.1900 O   0  0  0  0  0  0  0  0  0  0  0  0
  -21.9600   -6.4290   22.2740 C   0  0  0  0  0  0  0  0  0  0  0  0
  -21.7390   -6.8950   23.5880 C   0  0  0  0  0  3  0  0  0  0  0  0
  -21.7190   -5.9830   24.6630 C   0  0  0  0  0  3  0  0  0  0  0  0
  -21.9080   -4.6090   24.4250 C   0  0  0  0  0  0  0  0  0  0  0  0
  -22.1230   -4.1430   23.1160 C   0  0  0  0  0  3  0  0  0  0  0  0
  -22.1460   -5.0520   22.0430 C   0  0  0  0  0  0  0  0  0  0  0  0
  -22.3340   -4.5950   20.7810 F   0  0  0  0  0  0  0  0  0  0  0  0
  -21.8820   -3.7320   25.4570 F   0  0  0  0  0  0  0  0  0  0  0  0
  -23.3860  -13.8320   21.4650 C   0  0  0  0  0  0  0  0  0  0  0  0
  -22.7770  -13.0760   22.3690 N   0  0  0  0  0  0  0  0  0  0  0  0
  -22.9300  -14.9270   21.1360 O   0  0  0  0  0  0  0  0  0  0  0  0
  -23.1680  -12.1910   22.6560 H   0  0  0  0  0  0  0  0  0  0  0  0
  -21.9100  -13.3870   22.7830 H   0  0  0  0  0  0  0  0  0  0  0  0
  -25.9370  -15.4780   20.4220 N   0  0  0  0  0  0  0  0  0  0  0  0
  -25.2510  -16.1410   20.7640 H   0  0  0  0  0  0  0  0  0  0  0  0
  -26.7470  -15.9250   20.0150 H   0  0  0  0  0  0  0  0  0  0  0  0
  -28.1520  -23.8110   19.8920 C   0  0  0  0  0  2  0  0  0  0  0  0
  -28.1410  -25.5040   20.3050 O   0  0  0  0  0  0  0  0  0  0  0  0
  -24.4250  -31.6620   23.0640 C   0  0  0  0  0  0  0  0  0  0  0  0
  -27.1360  -26.6640   20.1690 C   0  0  0  0  0  0  0  0  0  0  0  0
  -23.3030  -30.2190   21.4190 C   0  0  0  0  0  3  0  0  0  0  0  0
  -24.8190  -28.6090   20.0420 C   0  0  0  0  0  0  0  0  0  0  0  0
  -25.8740  -30.4450   21.3360 C   0  0  0  0  0  2  0  0  0  0  0  0
  -25.9890  -29.0120   20.6960 C   0  0  0  0  0  0  0  0  0  0  0  0
  -27.1320  -28.0620   20.7300 C   0  0  0  0  0  3  0  0  0  0  0  0
  -25.9310  -26.4580   19.4490 C   0  0  0  0  0  3  0  0  0  0  0  0
  -24.8260  -27.3590   19.3960 C   0  0  0  0  0  3  0  0  0  0  0  0
  -23.5840  -29.5210   20.0570 C   0  0  0  0  0  2  0  0  0  0  0  0
  -24.5580  -30.8060   21.9940 N   0  0  0  0  0  0  0  0  0  0  0  0
  -23.3170  -31.9360   23.5550 O   0  0  0  0  0  0  0  0  0  0  0  0
  -22.5980  -29.2290   22.3860 C   0  0  0  0  0  0  0  0  0  0  0  0
  -21.2730  -29.0380   22.2380 N   0  0  0  0  0  0  0  0  0  0  0  0
  -23.2550  -28.6330   23.2410 O   0  0  0  0  0  0  0  0  0  0  0  0
  -20.7920  -29.5720   21.5270 H   0  0  0  0  0  0  0  0  0  0  0  0
  -17.9150  -27.7260   22.6720 C   0  0  0  0  0  0  0  0  0  0  0  0
  -20.4550  -28.0900   23.0040 C   0  0  0  0  0  3  0  0  0  0  0  0
  -20.6230  -26.6510   22.4630 C   0  0  0  0  0  2  0  0  0  0  0  0
  -19.5630  -26.2700   21.4230 C   0  0  0  0  0  2  0  0  0  0  0  0
  -18.1590  -26.3750   22.0220 C   0  0  0  0  0  2  0  0  0  0  0  0
  -18.9920  -28.5390   23.1170 C   0  0  0  0  0  0  0  0  0  0  0  0
  -18.7050  -29.7980   23.6890 C   0  0  0  0  0  3  0  0  0  0  0  0
  -17.3770  -30.2480   23.8130 C   0  0  0  0  0  3  0  0  0  0  0  0
  -16.3150  -29.4350   23.3790 C   0  0  0  0  0  3  0  0  0  0  0  0
  -16.5840  -28.1760   22.8160 C   0  0  0  0  0  3  0  0  0  0  0  0
  -25.6610  -32.3470   23.7220 C   0  0  0  0  0  3  0  0  0  0  0  0
  -26.1620  -31.6010   25.0210 C   0  0  1  0  0  0  0  0  0  0  0  0
  -25.0480  -31.3420   26.0620 C   0  0  0  0  0  1  0  0  0  0  0  0
  -26.7910  -30.2360   24.6640 C   0  0  0  0  0  1  0  0  0  0  0  0
  -27.2750  -32.4290   25.7070 C   0  0  0  0  0  1  0  0  0  0  0  0
  -25.2950  -33.7380   24.0550 N   0  0  0  0  0  0  0  0  0  0  0  0
  -25.6060  -34.8140   23.3210 C   0  0  0  0  0  0  0  0  0  0  0  0
  -26.2890  -34.7420   22.2960 O   0  0  0  0  0  0  0  0  0  0  0  0
  -24.6840  -33.8650   24.8500 H   0  0  0  0  0  0  0  0  0  0  0  0
  -23.8290  -36.5690   22.9840 C   0  0  0  0  0  1  0  0  0  0  0  0
  -25.0800  -36.1860   23.7920 C   0  0  0  0  0  3  0  0  0  0  0  0
  -27.1870  -37.1300   24.6330 C   0  0  0  0  0  1  0  0  0  0  0  0
  -26.0830  -37.2700   23.6890 N   0  0  0  0  0  0  0  0  0  0  0  0
  -25.6510  -38.1790   23.8370 H   0  0  0  0  0  0  0  0  0  0  0  0
  2  1  1  0
  2  7  1  0
  3  6  1  0
  4  6  2  0
  5  7  1  0
  5  3  2  0
  7  4  1  0
  8  5  1  0
  9 14  1  0
 10 11  1  0
 10  9  1  0
 12 11  1  0
 12 19  1  0
 12 13  1  0
 14  8  1  0
 14 13  1  0
 15  8  2  0
 16 17  2  0
 17 36  1  0
 18 21  1  0
 18 17  1  0
 19 20  1  0
 19 16  1  0
 20 18  2  0
 21 22  1  0
 22 23  2  0
 24 27  1  0
 24 23  1  0
 25 24  2  0
 26 25  1  0
 26 21  2  0
 27 28  1  0
 28 29  1  0
 29 30  2  0
 31 30  1  0
 31 35  1  0
 32 31  2  0
 33 28  2  0
 33 32  1  0
 34 33  1  0
 36 37  1  0
 37 39  1  0
 37 40  1  0
 38 36  2  0
 41 16  1  0
 41 42  1  0
 43 41  1  0
 44 45  1  0
 44  1  1  0
 46 57  2  0
 47 45  1  0
 47 52  1  0
 48 56  1  0
 48 58  1  0
 49 55  1  0
 49 51  1  0
 50 56  1  0
 51 52  2  0
 51 50  1  0
 53 47  2  0
 54 53  1  0
 54 49  2  0
 55 48  1  0
 56 46  1  0
 58 60  2  0
 59 58  1  0
 61 59  1  0
 62 71  2  0
 62 67  1  0
 63 59  1  0
 63 67  1  0
 64 63  1  0
 65 66  1  0
 65 64  1  0
 66 62  1  0
 67 68  2  0
 68 69  1  0
 70 69  2  0
 71 70  1  0
 72 46  1  0
 72 77  1  0
 72 73  1  0
 73 76  1  1
 73 74  1  0
 75 73  1  0
 77 80  1  0
 78 82  1  0
 78 77  1  0
 79 78  2  0
 82 81  1  0
 84 82  1  0
 84 85  1  0
 84 83  1  0
M  ISO  4   5 100   8 100  44 101  45 101
M  END
>  <TORSDO>  (3) 
F 19

>  <SCORE>  (3) 
-12.347

>  <name>  (3) 
2

>  <ligand_id>  (3) 
2

>  <original_smiles>  (3) 
[H]c1nc([H])n(C([H])([H])C([H])([H])C([H])([H])Oc2c([H])c([H])c3c(c2[H])C([H])([H])N(C(=O)C([H])(N([H])C(=O)C([H])(N([H])C([H])([H])[H])C([H])([H])[H])C(C([H])([H])[H])(C([H])([H])[H])C([H])([H])[H])C([H])(C(=O)N([H])C2([H])c4c([H])c([H])c([H])c([H])c4C([H])([H])C([H])([H])C2([H])[H])C3([H])[H])c1C(=O)N1C([H])([H])C([H])([H])C([H])([H])C([H])(n2nc(-c3c([H])c([H])c(Oc4c([H])c([H])c(F)c([H])c4F)c([H])c3[H])c(C(=O)N([H])[H])c2N([H])[H])C1([H])[H]

>  <smiles>  (3) 
[H]c1nc([H])n(C([H])([H])C([H])([H])C([H])([H])Oc2c([H])c([H])c3c(c2[H])C([H])([H])N(C(=O)C([H])(N([H])C(=O)C([H])(N([H])C([H])([H])[H])C([H])([H])[H])C(C([H])([H])[H])(C([H])([H])[H])C([H])([H])[H])C([H])(C(=O)N([H])C2([H])c4c([H])c([H])c([H])c([H])c4C([H])([H])C([H])([H])C2([H])[H])C3([H])[H])c1C(=O)N1C([H])([H])C([H])([H])C([H])([H])C([H])(n2nc(-c3c([H])c([H])c(Oc4c([H])c([H])c(F)c([H])c4F)c([H])c3[H])c(C(=O)N([H])[H])c2N([H])[H])C1([H])[H]

$$$$
3:0:0
     RDKit          3D

 92100  0  0  1  0  0  0  0  0999 V2000
  -32.4540  -20.8450   19.7220 C   0  0  0  0  0  3  0  0  0  0  0  0
  -30.4860  -18.9510   19.5140 C   0  0  0  0  0  0  0  0  0  0  0  0
  -31.7880  -18.8200   18.9530 C   0  0  0  0  0  0  0  0  0  0  0  0
  -30.1800  -20.4130   19.8430 C   0  0  0  0  0  0  0  0  0  0  0  0
  -32.7600  -19.7270   19.1110 N   0  0  0  0  0  0  0  0  0  0  0  0
  -31.2330  -21.2340   20.0220 N   0  0  0  0  0  0  0  0  0  0  0  0
  -32.3360  -18.2220   16.5320 C   0  0  0  0  0  1  0  0  0  0  0  0
  -32.1920  -17.7190   17.9740 C   0  0  0  0  0  2  0  0  0  0  0  0
  -29.6980  -17.4910   19.5620 C   0  0  0  0  0  2  0  0  0  0  0  0
  -30.7710  -14.8480   19.6320 C   0  0  0  0  0  0  0  0  0  0  0  0
  -30.4030  -12.5060   18.7060 C   0  0  0  0  0  2  0  0  0  0  0  0
  -29.3690  -12.4930   17.5560 C   0  0  0  0  0  2  0  0  0  0  0  0
  -27.9430  -12.3570   18.1180 C   0  0  0  0  0  2  0  0  0  0  0  0
  -27.6920  -13.3170   19.3100 C   0  0  0  0  0  3  0  0  0  0  0  0
  -28.8340  -13.2920   20.3410 C   0  0  0  0  0  2  0  0  0  0  0  0
  -30.0690  -13.6390   19.6290 N   0  0  0  0  0  0  0  0  0  0  0  0
  -31.9030  -14.8000   19.1350 O   0  0  0  0  0  0  0  0  0  0  0  0
  -30.2640  -16.0990   20.1560 N   0  0  0  0  0  0  0  0  0  0  0  0
  -25.4580  -14.0230   20.3240 C   0  0  0  0  0  0  0  0  0  0  0  0
  -24.3850  -13.3080   20.7790 C   0  0  0  0  0  0  0  0  0  0  0  0
  -24.7450  -11.9300   20.6510 C   0  0  0  0  0  0  0  0  0  0  0  0
  -26.3980  -13.0860   19.9370 N   0  0  0  0  0  0  0  0  0  0  0  0
  -25.9890  -11.8180   20.2010 N   0  0  0  0  0  0  0  0  0  0  0  0
  -23.9530  -10.7140   20.8740 C   0  0  0  0  0  0  0  0  0  0  0  0
  -24.3650   -9.7180   21.7860 C   0  0  0  0  0  3  0  0  0  0  0  0
  -23.5740   -8.5680   21.9980 C   0  0  0  0  0  3  0  0  0  0  0  0
  -22.3550   -8.4070   21.2970 C   0  0  0  0  0  0  0  0  0  0  0  0
  -21.9600   -9.3890   20.3710 C   0  0  0  0  0  3  0  0  0  0  0  0
  -22.7520  -10.5300   20.1580 C   0  0  0  0  0  3  0  0  0  0  0  0
  -21.5350   -7.3110   21.4170 O   0  0  0  0  0  0  0  0  0  0  0  0
  -21.4530   -6.5980   22.5860 C   0  0  0  0  0  0  0  0  0  0  0  0
  -21.0650   -7.2040   23.8020 C   0  0  0  0  0  3  0  0  0  0  0  0
  -20.9280   -6.4230   24.9650 C   0  0  0  0  0  3  0  0  0  0  0  0
  -21.1660   -5.0350   24.9150 C   0  0  0  0  0  0  0  0  0  0  0  0
  -21.5470   -4.4310   23.7050 C   0  0  0  0  0  3  0  0  0  0  0  0
  -21.6870   -5.2090   22.5420 C   0  0  0  0  0  0  0  0  0  0  0  0
  -22.0330   -4.6180   21.3730 F   0  0  0  0  0  0  0  0  0  0  0  0
  -21.0260   -4.2820   26.0300 F   0  0  0  0  0  0  0  0  0  0  0  0
  -23.0640  -13.8670   21.2170 C   0  0  0  0  0  0  0  0  0  0  0  0
  -22.3990  -13.2010   22.1530 N   0  0  0  0  0  0  0  0  0  0  0  0
  -22.6380  -14.9270   20.7610 O   0  0  0  0  0  0  0  0  0  0  0  0
  -22.7650  -12.3410   22.5370 H   0  0  0  0  0  0  0  0  0  0  0  0
  -21.5160  -13.5510   22.4940 H   0  0  0  0  0  0  0  0  0  0  0  0
  -25.7070  -15.3850   20.1830 N   0  0  0  0  0  0  0  0  0  0  0  0
  -25.0160  -16.0930   20.4110 H   0  0  0  0  0  0  0  0  0  0  0  0
  -26.5570  -15.7720   19.7930 H   0  0  0  0  0  0  0  0  0  0  0  0
  -29.8880  -16.0810   22.6480 C   0  0  0  0  0  1  0  0  0  0  0  0
  -30.8340  -16.4200   21.4830 C   0  0  0  0  0  2  0  0  0  0  0  0
  -28.8920  -21.4410   19.9490 C   0  0  0  0  0  2  0  0  0  0  0  0
  -29.1170  -23.1500   19.9980 C   0  0  0  0  0  3  0  0  0  0  0  0
  -27.9860  -24.4210   19.9420 C   0  0  0  0  0  3  0  0  0  0  0  0
  -28.2380  -25.9730   20.0300 O   0  0  0  0  0  0  0  0  0  0  0  0
  -24.4120  -31.5900   22.9770 C   0  0  0  0  0  0  0  0  0  0  0  0
  -27.1660  -26.9490   19.9590 C   0  0  0  0  0  0  0  0  0  0  0  0
  -23.2830  -30.1720   21.3100 C   0  0  0  0  0  3  0  0  0  0  0  0
  -24.8000  -28.6510   19.8990 C   0  0  0  0  0  0  0  0  0  0  0  0
  -25.8330  -30.5050   21.1920 C   0  0  0  0  0  2  0  0  0  0  0  0
  -25.9570  -29.1180   20.5320 C   0  0  0  0  0  0  0  0  0  0  0  0
  -27.1450  -28.2850   20.5410 C   0  0  0  0  0  3  0  0  0  0  0  0
  -25.9790  -26.5950   19.2810 C   0  0  0  0  0  3  0  0  0  0  0  0
  -24.8260  -27.4090   19.2530 C   0  0  0  0  0  3  0  0  0  0  0  0
  -23.5460  -29.5140   19.9310 C   0  0  0  0  0  2  0  0  0  0  0  0
  -24.5280  -30.7790   21.8810 N   0  0  0  0  0  0  0  0  0  0  0  0
  -23.3090  -31.8410   23.4870 O   0  0  0  0  0  0  0  0  0  0  0  0
  -22.6170  -29.1400   22.2550 C   0  0  0  0  0  0  0  0  0  0  0  0
  -21.2880  -28.9660   22.1400 N   0  0  0  0  0  0  0  0  0  0  0  0
  -23.3000  -28.4980   23.0570 O   0  0  0  0  0  0  0  0  0  0  0  0
  -20.7940  -29.5340   21.4660 H   0  0  0  0  0  0  0  0  0  0  0  0
  -17.9110  -27.7690   22.6870 C   0  0  0  0  0  0  0  0  0  0  0  0
  -20.4780  -28.0090   22.9010 C   0  0  0  0  0  3  0  0  0  0  0  0
  -20.5570  -26.5960   22.2750 C   0  0  0  0  0  2  0  0  0  0  0  0
  -19.4280  -26.3160   21.2780 C   0  0  0  0  0  2  0  0  0  0  0  0
  -18.0620  -26.4440   21.9590 C   0  0  0  0  0  2  0  0  0  0  0  0
  -19.0440  -28.5110   23.1160 C   0  0  0  0  0  0  0  0  0  0  0  0
  -18.8440  -29.7510   23.7620 C   0  0  0  0  0  3  0  0  0  0  0  0
  -17.5450  -30.2490   23.9780 C   0  0  0  0  0  3  0  0  0  0  0  0
  -16.4280  -29.5050   23.5610 C   0  0  0  0  0  3  0  0  0  0  0  0
  -16.6120  -28.2660   22.9230 C   0  0  0  0  0  3  0  0  0  0  0  0
  -25.6570  -32.2610   23.6300 C   0  0  0  0  0  3  0  0  0  0  0  0
  -25.2840  -33.6360   23.9970 N   0  0  0  0  0  0  0  0  0  0  0  0
  -25.6090  -34.7300   23.2960 C   0  0  0  0  0  0  0  0  0  0  0  0
  -26.3200  -34.6890   22.2890 O   0  0  0  0  0  0  0  0  0  0  0  0
  -24.6410  -33.7380   24.7690 H   0  0  0  0  0  0  0  0  0  0  0  0
  -23.8390  -36.4940   22.9520 C   0  0  0  0  0  1  0  0  0  0  0  0
  -25.0630  -36.0870   23.7890 C   0  0  0  0  0  3  0  0  0  0  0  0
  -27.1350  -37.0090   24.7310 C   0  0  0  0  0  1  0  0  0  0  0  0
  -26.0640  -37.1730   23.7520 N   0  0  0  0  0  0  0  0  0  0  0  0
  -25.6250  -38.0750   23.9120 H   0  0  0  0  0  0  0  0  0  0  0  0
  -26.1890  -31.4790   24.8950 C   0  0  1  0  0  0  0  0  0  0  0  0
  -25.0940  -31.1660   25.9430 C   0  0  0  0  0  1  0  0  0  0  0  0
  -26.8350  -30.1360   24.4820 C   0  0  0  0  0  1  0  0  0  0  0  0
  -27.2970  -32.3050   25.5890 C   0  0  0  0  0  1  0  0  0  0  0  0
  1  6  1  0
  2  9  1  0
  2  4  1  0
  3  5  1  0
  3  2  2  0
  4 49  1  0
  4  6  2  0
  5  1  2  0
  7  8  1  0
  8  3  1  0
  9 18  1  0
 10 18  1  0
 11 16  1  0
 12 13  1  0
 12 11  1  0
 14 13  1  0
 14 22  1  0
 14 15  1  0
 16 10  1  0
 16 15  1  0
 17 10  2  0
 18 48  1  0
 19 20  2  0
 20 39  1  0
 21 20  1  0
 21 24  1  0
 22 23  1  0
 22 19  1  0
 23 21  2  0
 24 25  1  0
 25 26  2  0
 27 30  1  0
 27 26  1  0
 28 27  2  0
 29 28  1  0
 29 24  2  0
 30 31  1  0
 31 32  1  0
 32 33  2  0
 34 33  1  0
 34 38  1  0
 35 34  2  0
 36 31  2  0
 36 35  1  0
 37 36  1  0
 39 40  1  0
 40 43  1  0
 40 42  1  0
 41 39  2  0
 44 19  1  0
 44 45  1  0
 46 44  1  0
 48 47  1  0
 49 50  1  0
 51 50  2  0
 51 52  1  0
 53 64  2  0
 54 52  1  0
 54 59  1  0
 55 63  1  0
 55 65  1  0
 56 62  1  0
 56 58  1  0
 57 63  1  0
 58 59  2  0
 58 57  1  0
 60 54  2  0
 61 60  1  0
 61 56  2  0
 62 55  1  0
 63 53  1  0
 65 67  2  0
 66 65  1  0
 68 66  1  0
 69 78  2  0
 69 74  1  0
 70 66  1  0
 70 74  1  0
 71 70  1  0
 72 73  1  0
 72 71  1  0
 73 69  1  0
 74 75  2  0
 75 76  1  0
 77 76  2  0
 78 77  1  0
 79 53  1  0
 79 80  1  0
 79 89  1  0
 80 83  1  0
 81 85  1  0
 81 80  1  0
 82 81  2  0
 85 84  1  0
 87 85  1  0
 87 88  1  0
 87 86  1  0
 89 92  1  1
 89 90  1  0
 91 89  1  0
M  ISO  4  10 100  18 100  51 101  52 101
M  END
>  <TORSDO>  (4) 
F 22

>  <SCORE>  (4) 
-12.028

>  <name>  (4) 
3

>  <ligand_id>  (4) 
3

>  <original_smiles>  (4) 
[H]c1nc(C([H])([H])C([H])([H])[H])c(C([H])([H])N(C(=O)N2C([H])([H])C([H])([H])C([H])([H])C([H])(n3nc(-c4c([H])c([H])c(Oc5c([H])c([H])c(F)c([H])c5F)c([H])c4[H])c(C(=O)N([H])[H])c3N([H])[H])C2([H])[H])C([H])([H])C([H])([H])[H])c(C([H])([H])C([H])([H])C([H])([H])Oc2c([H])c([H])c3c(c2[H])C([H])([H])N(C(=O)C([H])(N([H])C(=O)C([H])(N([H])C([H])([H])[H])C([H])([H])[H])C(C([H])([H])[H])(C([H])([H])[H])C([H])([H])[H])C([H])(C(=O)N([H])C2([H])c4c([H])c([H])c([H])c([H])c4C([H])([H])C([H])([H])C2([H])[H])C3([H])[H])n1

>  <smiles>  (4) 
[H]c1nc(C([H])([H])C([H])([H])[H])c(C([H])([H])N(C(=O)N2C([H])([H])C([H])([H])C([H])([H])C([H])(n3nc(-c4c([H])c([H])c(Oc5c([H])c([H])c(F)c([H])c5F)c([H])c4[H])c(C(=O)N([H])[H])c3N([H])[H])C2([H])[H])C([H])([H])C([H])([H])[H])c(C([H])([H])C([H])([H])C([H])([H])Oc2c([H])c([H])c3c(c2[H])C([H])([H])N(C(=O)C([H])(N([H])C(=O)C([H])(N([H])C([H])([H])[H])C([H])([H])[H])C(C([H])([H])[H])(C([H])([H])[H])C([H])([H])[H])C([H])(C(=O)N([H])C2([H])c4c([H])c([H])c([H])c([H])c4C([H])([H])C([H])([H])C2([H])[H])C3([H])[H])n1

$$$$
4:0:0
     RDKit          3D

 89 97  0  0  1  0  0  0  0  0999 V2000
  -28.1230  -22.6080   20.4250 C   0  0  0  0  0  3  0  0  0  0  0  0
  -27.8660  -21.2380   20.6980 C   0  0  0  0  0  0  0  0  0  0  0  0
  -29.2610  -23.0260   19.7140 C   0  0  0  0  0  0  0  0  0  0  0  0
  -29.8090  -20.4020   19.6970 C   0  0  0  0  0  0  0  0  0  0  0  0
  -26.5650  -20.8580   21.3780 C   0  0  0  0  0  1  0  0  0  0  0  0
  -28.6690  -20.1950   20.3510 N   0  0  0  0  0  0  0  0  0  0  0  0
  -30.0760  -21.8160   19.3760 N   0  0  0  0  0  0  0  0  0  0  0  0
  -30.7950  -18.8670   17.8070 C   0  0  0  0  0  1  0  0  0  0  0  0
  -30.7090  -18.9010   19.3440 C   0  0  0  0  0  3  0  0  0  0  0  0
  -31.3110  -15.9650   19.6950 C   0  0  0  0  0  0  0  0  0  0  0  0
  -31.3130  -13.4530   18.9490 C   0  0  0  0  0  2  0  0  0  0  0  0
  -30.3540  -13.1550   17.7660 C   0  0  0  0  0  2  0  0  0  0  0  0
  -28.9410  -12.8580   18.2890 C   0  0  0  0  0  2  0  0  0  0  0  0
  -28.5140  -13.8660   19.3820 C   0  0  0  0  0  3  0  0  0  0  0  0
  -29.6000  -14.1110   20.4530 C   0  0  0  0  0  2  0  0  0  0  0  0
  -30.7800  -14.6320   19.7430 N   0  0  0  0  0  0  0  0  0  0  0  0
  -32.5140  -15.9480   19.3880 O   0  0  0  0  0  0  0  0  0  0  0  0
  -30.5440  -17.2590   19.7820 N   0  0  0  0  0  0  0  0  0  0  0  0
  -29.6040  -17.0960   20.1120 H   0  0  0  0  0  0  0  0  0  0  0  0
  -26.2010  -14.4260   20.2840 C   0  0  0  0  0  0  0  0  0  0  0  0
  -25.1520  -13.6510   20.6850 C   0  0  0  0  0  0  0  0  0  0  0  0
  -25.5950  -12.2960   20.5840 C   0  0  0  0  0  0  0  0  0  0  0  0
  -27.2160  -13.5460   19.9560 N   0  0  0  0  0  0  0  0  0  0  0  0
  -26.8670  -12.2550   20.2030 N   0  0  0  0  0  0  0  0  0  0  0  0
  -24.8590  -11.0390   20.7700 C   0  0  0  0  0  0  0  0  0  0  0  0
  -25.1860  -10.1350   21.8040 C   0  0  0  0  0  3  0  0  0  0  0  0
  -24.4470   -8.9440   21.9750 C   0  0  0  0  0  3  0  0  0  0  0  0
  -23.3670   -8.6470   21.1100 C   0  0  0  0  0  0  0  0  0  0  0  0
  -23.0620   -9.5390   20.0660 C   0  0  0  0  0  3  0  0  0  0  0  0
  -23.8010  -10.7210   19.8950 C   0  0  0  0  0  3  0  0  0  0  0  0
  -22.6090   -7.5030   21.1850 O   0  0  0  0  0  0  0  0  0  0  0  0
  -22.2150   -6.9790   22.3910 C   0  0  0  0  0  0  0  0  0  0  0  0
  -21.4090   -7.7090   23.2910 C   0  0  0  0  0  3  0  0  0  0  0  0
  -20.9670   -7.1080   24.4860 C   0  0  0  0  0  3  0  0  0  0  0  0
  -21.3230   -5.7780   24.7810 C   0  0  0  0  0  0  0  0  0  0  0  0
  -22.1220   -5.0490   23.8820 C   0  0  0  0  0  3  0  0  0  0  0  0
  -22.5640   -5.6480   22.6890 C   0  0  0  0  0  0  0  0  0  0  0  0
  -23.3160   -4.9330   21.8180 F   0  0  0  0  0  0  0  0  0  0  0  0
  -20.8950   -5.1980   25.9250 F   0  0  0  0  0  0  0  0  0  0  0  0
  -23.7800  -14.1370   21.0460 C   0  0  0  0  0  0  0  0  0  0  0  0
  -23.1040  -13.4400   21.9520 N   0  0  0  0  0  0  0  0  0  0  0  0
  -23.3210  -15.1710   20.5610 O   0  0  0  0  0  0  0  0  0  0  0  0
  -23.4880  -12.5990   22.3560 H   0  0  0  0  0  0  0  0  0  0  0  0
  -22.1880  -13.7520   22.2460 H   0  0  0  0  0  0  0  0  0  0  0  0
  -26.3720  -15.8000   20.1420 N   0  0  0  0  0  0  0  0  0  0  0  0
  -25.6190  -16.4560   20.3200 H   0  0  0  0  0  0  0  0  0  0  0  0
  -27.1970  -16.2430   19.7580 H   0  0  0  0  0  0  0  0  0  0  0  0
  -29.2950  -24.7340   19.1590 C   0  0  0  0  0  2  0  0  0  0  0  0
  -29.0560  -26.2750   19.8110 O   0  0  0  0  0  0  0  0  0  0  0  0
  -24.8140  -31.7030   23.0240 C   0  0  0  0  0  0  0  0  0  0  0  0
  -27.9550  -27.3110   19.7250 C   0  0  0  0  0  0  0  0  0  0  0  0
  -23.8180  -30.3060   21.2600 C   0  0  0  0  0  3  0  0  0  0  0  0
  -25.4640  -28.9750   19.7560 C   0  0  0  0  0  0  0  0  0  0  0  0
  -26.3520  -30.7910   21.2040 C   0  0  0  0  0  2  0  0  0  0  0  0
  -26.5890  -29.4430   20.4470 C   0  0  0  0  0  0  0  0  0  0  0  0
  -27.8160  -28.6270   20.4170 C   0  0  0  0  0  3  0  0  0  0  0  0
  -26.7870  -27.0200   18.9830 C   0  0  0  0  0  3  0  0  0  0  0  0
  -25.5900  -27.7910   19.0100 C   0  0  0  0  0  3  0  0  0  0  0  0
  -24.1510  -29.7560   19.8430 C   0  0  0  0  0  2  0  0  0  0  0  0
  -25.0130  -30.9620   21.8850 N   0  0  0  0  0  0  0  0  0  0  0  0
  -23.6890  -31.8330   23.5310 O   0  0  0  0  0  0  0  0  0  0  0  0
  -23.2200  -29.1770   22.1390 C   0  0  0  0  0  0  0  0  0  0  0  0
  -21.9190  -28.8720   21.9660 N   0  0  0  0  0  0  0  0  0  0  0  0
  -23.9330  -28.5780   22.9480 O   0  0  0  0  0  0  0  0  0  0  0  0
  -21.3890  -29.4140   21.2980 H   0  0  0  0  0  0  0  0  0  0  0  0
  -18.6880  -27.2460   22.3110 C   0  0  0  0  0  0  0  0  0  0  0  0
  -21.1970  -27.7910   22.6470 C   0  0  0  0  0  3  0  0  0  0  0  0
  -21.4750  -26.4280   21.9720 C   0  0  0  0  0  2  0  0  0  0  0  0
  -20.4290  -26.0570   20.9150 C   0  0  0  0  0  2  0  0  0  0  0  0
  -19.0370  -25.9810   21.5440 C   0  0  0  0  0  2  0  0  0  0  0  0
  -19.7040  -28.1030   22.8170 C   0  0  0  0  0  0  0  0  0  0  0  0
  -19.3250  -29.2800   23.4990 C   0  0  0  0  0  3  0  0  0  0  0  0
  -17.9680  -29.6060   23.6770 C   0  0  0  0  0  3  0  0  0  0  0  0
  -16.9690  -28.7470   23.1880 C   0  0  0  0  0  3  0  0  0  0  0  0
  -17.3300  -27.5690   22.5110 C   0  0  0  0  0  3  0  0  0  0  0  0
  -25.9890  -32.4410   23.7340 C   0  0  0  0  0  3  0  0  0  0  0  0
  -25.5240  -33.7910   24.1040 N   0  0  0  0  0  0  0  0  0  0  0  0
  -25.7920  -34.9130   23.4200 C   0  0  0  0  0  0  0  0  0  0  0  0
  -26.5160  -34.9240   22.4220 O   0  0  0  0  0  0  0  0  0  0  0  0
  -24.8740  -33.8490   24.8740 H   0  0  0  0  0  0  0  0  0  0  0  0
  -23.9130  -36.5570   23.0920 C   0  0  0  0  0  1  0  0  0  0  0  0
  -25.1620  -36.2290   23.9250 C   0  0  0  0  0  3  0  0  0  0  0  0
  -27.1680  -37.2810   24.8760 C   0  0  0  0  0  1  0  0  0  0  0  0
  -26.0930  -37.3790   23.8920 N   0  0  0  0  0  0  0  0  0  0  0  0
  -25.5920  -38.2490   24.0540 H   0  0  0  0  0  0  0  0  0  0  0  0
  -26.5120  -31.6810   25.0160 C   0  0  1  0  0  0  0  0  0  0  0  0
  -25.3930  -31.2950   26.0130 C   0  0  0  0  0  1  0  0  0  0  0  0
  -27.2540  -30.3850   24.6250 C   0  0  0  0  0  1  0  0  0  0  0  0
  -27.5370  -32.5630   25.7680 C   0  0  0  0  0  1  0  0  0  0  0  0
  1  2  2  0
  2  5  1  0
  3  1  1  0
  4  6  2  0
  6  2  1  0
  7  4  1  0
  7  3  2  0
  9  8  1  0
  9  4  1  0
  9 18  1  0
 10 16  1  0
 10 18  1  0
 11 16  1  0
 12 13  1  0
 12 11  1  0
 14 13  1  0
 14 23  1  0
 14 15  1  0
 16 15  1  0
 17 10  2  0
 18 19  1  0
 20 21  2  0
 21 40  1  0
 22 21  1  0
 22 25  1  0
 23 24  1  0
 23 20  1  0
 24 22  2  0
 25 26  1  0
 26 27  2  0
 28 31  1  0
 28 27  1  0
 29 28  2  0
 30 29  1  0
 30 25  2  0
 31 32  1  0
 32 37  2  0
 32 33  1  0
 33 34  2  0
 34 35  1  0
 35 39  1  0
 36 35  2  0
 37 36  1  0
 38 37  1  0
 40 41  1  0
 41 44  1  0
 41 43  1  0
 42 40  2  0
 45 20  1  0
 45 46  1  0
 47 45  1  0
 48  3  1  0
 48 49  1  0
 50 61  2  0
 51 49  1  0
 51 56  1  0
 52 60  1  0
 52 62  1  0
 53 59  1  0
 53 55  1  0
 54 60  1  0
 55 54  1  0
 56 55  2  0
 57 58  1  0
 57 51  2  0
 58 53  2  0
 59 52  1  0
 60 50  1  0
 62 64  2  0
 63 62  1  0
 65 63  1  0
 66 75  2  0
 66 71  1  0
 67 63  1  0
 67 71  1  0
 68 67  1  0
 69 70  1  0
 69 68  1  0
 70 66  1  0
 71 72  2  0
 72 73  1  0
 74 73  2  0
 75 74  1  0
 76 50  1  0
 76 77  1  0
 76 86  1  0
 77 80  1  0
 78 82  1  0
 78 77  1  0
 79 78  2  0
 82 81  1  0
 84 82  1  0
 84 85  1  0
 84 83  1  0
 86 89  1  1
 86 87  1  0
 88 86  1  0
M  ISO  4  10 100  18 100  48 101  49 101
M  END
>  <TORSDO>  (5) 
F 18

>  <SCORE>  (5) 
-9.362

>  <name>  (5) 
4

>  <ligand_id>  (5) 
4

>  <original_smiles>  (5) 
[H]c1c(C([H])([H])[H])nc(C([H])(N([H])C(=O)N2C([H])([H])C([H])([H])C([H])([H])C([H])(n3nc(-c4c([H])c([H])c(Oc5c([H])c([H])c(F)c([H])c5F)c([H])c4[H])c(C(=O)N([H])[H])c3N([H])[H])C2([H])[H])C([H])([H])[H])nc1C([H])([H])Oc1c([H])c([H])c2c(c1[H])C([H])([H])N(C(=O)C([H])(N([H])C(=O)C([H])(N([H])C([H])([H])[H])C([H])([H])[H])C(C([H])([H])[H])(C([H])([H])[H])C([H])([H])[H])C([H])(C(=O)N([H])C1([H])c3c([H])c([H])c([H])c([H])c3C([H])([H])C([H])([H])C1([H])[H])C2([H])[H]

>  <smiles>  (5) 
[H]c1c(C([H])([H])[H])nc(C([H])(N([H])C(=O)N2C([H])([H])C([H])([H])C([H])([H])C([H])(n3nc(-c4c([H])c([H])c(Oc5c([H])c([H])c(F)c([H])c5F)c([H])c4[H])c(C(=O)N([H])[H])c3N([H])[H])C2([H])[H])C([H])([H])[H])nc1C([H])([H])Oc1c([H])c([H])c2c(c1[H])C([H])([H])N(C(=O)C([H])(N([H])C(=O)C([H])(N([H])C([H])([H])[H])C([H])([H])[H])C(C([H])([H])[H])(C([H])([H])[H])C([H])([H])[H])C([H])(C(=O)N([H])C1([H])c3c([H])c([H])c([H])c([H])c3C([H])([H])C([H])([H])C1([H])[H])C2([H])[H]

$$$$
5:0:0
     RDKit          3D

 90 98  0  0  1  0  0  0  0  0999 V2000
  -29.7270  -21.4950   19.6210 C   0  0  0  0  0  3  0  0  0  0  0  0
  -28.2560  -19.4390   20.0910 C   0  0  0  0  0  2  0  0  0  0  0  0
  -29.7060  -18.0690   20.6790 C   0  0  0  0  0  0  0  0  0  0  0  0
  -28.3600  -18.1600   20.4540 N   0  0  0  0  0  0  0  0  0  0  0  0
  -30.3910  -19.1940   20.3950 N   0  0  0  0  0  2  0  0  0  0  0  0
  -29.4150  -20.1060   20.0620 N   0  0  0  0  0  0  0  0  0  0  0  0
  -31.7910  -17.0280   21.7680 C   0  0  0  0  0  1  0  0  0  0  0  0
  -30.3150  -16.8320   21.3490 C   0  0  0  0  0  0  0  0  0  0  0  0
  -30.5790  -14.5620   20.0620 C   0  0  0  0  0  0  0  0  0  0  0  0
  -30.2940  -12.3800   18.8860 C   0  0  0  0  0  2  0  0  0  0  0  0
  -29.2600  -12.4760   17.7480 C   0  0  0  0  0  2  0  0  0  0  0  0
  -27.8260  -12.2830   18.2730 C   0  0  0  0  0  2  0  0  0  0  0  0
  -27.5320  -13.1360   19.5330 C   0  0  0  0  0  3  0  0  0  0  0  0
  -28.6600  -13.0040   20.5820 C   0  0  0  0  0  2  0  0  0  0  0  0
  -29.9290  -13.3660   19.9250 N   0  0  0  0  0  0  0  0  0  0  0  0
  -31.6570  -14.7850   19.5030 O   0  0  0  0  0  0  0  0  0  0  0  0
  -29.9320  -15.4980   20.7960 N   0  0  0  0  0  4  0  0  0  0  0  0
  -29.0130  -15.2110   21.0920 H   0  0  0  0  0  0  0  0  0  0  0  0
  -25.1810  -13.7080   20.4060 C   0  0  0  0  0  0  0  0  0  0  0  0
  -24.1510  -12.9200   20.8420 C   0  0  0  0  0  0  0  0  0  0  0  0
  -24.6230  -11.5740   20.7680 C   0  0  0  0  0  0  0  0  0  0  0  0
  -26.2170  -12.8380   20.0960 N   0  0  0  0  0  0  0  0  0  0  0  0
  -25.8900  -11.5500   20.3740 N   0  0  0  0  0  0  0  0  0  0  0  0
  -23.9240  -10.3010   20.9960 C   0  0  0  0  0  0  0  0  0  0  0  0
  -24.3580   -9.3900   21.9850 C   0  0  0  0  0  3  0  0  0  0  0  0
  -23.6610   -8.1820   22.2030 C   0  0  0  0  0  3  0  0  0  0  0  0
  -22.5160   -7.8750   21.4310 C   0  0  0  0  0  0  0  0  0  0  0  0
  -22.1000   -8.7750   20.4330 C   0  0  0  0  0  3  0  0  0  0  0  0
  -22.7980   -9.9740   20.2150 C   0  0  0  0  0  3  0  0  0  0  0  0
  -21.7920   -6.7140   21.5530 O   0  0  0  0  0  0  0  0  0  0  0  0
  -21.6730   -6.0590   22.7530 C   0  0  0  0  0  0  0  0  0  0  0  0
  -21.0760   -6.6720   23.8790 C   0  0  0  0  0  3  0  0  0  0  0  0
  -20.9120   -5.9400   25.0730 C   0  0  0  0  0  3  0  0  0  0  0  0
  -21.3330   -4.5990   25.1400 C   0  0  0  0  0  0  0  0  0  0  0  0
  -21.9220   -3.9880   24.0210 C   0  0  0  0  0  3  0  0  0  0  0  0
  -22.0890   -4.7150   22.8300 C   0  0  0  0  0  0  0  0  0  0  0  0
  -22.6370   -4.1150   21.7440 F   0  0  0  0  0  0  0  0  0  0  0  0
  -21.1700   -3.8950   26.2840 F   0  0  0  0  0  0  0  0  0  0  0  0
  -22.7680  -13.3710   21.2190 C   0  0  0  0  0  0  0  0  0  0  0  0
  -22.1070  -12.6480   22.1160 N   0  0  0  0  0  0  0  0  0  0  0  0
  -22.2820  -14.4020   20.7510 O   0  0  0  0  0  0  0  0  0  0  0  0
  -22.5120  -11.8130   22.5120 H   0  0  0  0  0  0  0  0  0  0  0  0
  -21.1840  -12.9290   22.4110 H   0  0  0  0  0  0  0  0  0  0  0  0
  -25.3240  -15.0810   20.2270 N   0  0  0  0  0  0  0  0  0  0  0  0
  -24.5850  -15.7400   20.4440 H   0  0  0  0  0  0  0  0  0  0  0  0
  -26.1620  -15.5280   19.8710 H   0  0  0  0  0  0  0  0  0  0  0  0
  -28.8830  -22.6530   20.2750 C   0  0  0  0  0  3  0  0  0  0  0  0
  -29.1840  -24.1360   19.8260 C   0  0  0  0  0  2  0  0  0  0  0  0
  -28.2590  -25.2170   20.5020 C   0  0  0  0  0  2  0  0  0  0  0  0
  -28.4520  -26.6260   20.1680 O   0  0  0  0  0  0  0  0  0  0  0  0
  -24.6750  -31.9350   23.2370 C   0  0  0  0  0  0  0  0  0  0  0  0
  -27.3130  -27.4270   20.1760 C   0  0  0  0  0  0  0  0  0  0  0  0
  -23.4800  -30.5510   21.5750 C   0  0  0  0  0  3  0  0  0  0  0  0
  -24.9380  -28.9980   20.1680 C   0  0  0  0  0  0  0  0  0  0  0  0
  -26.0180  -30.8740   21.4140 C   0  0  0  0  0  2  0  0  0  0  0  0
  -26.1020  -29.4980   20.7680 C   0  0  0  0  0  0  0  0  0  0  0  0
  -27.2950  -28.7240   20.7600 C   0  0  0  0  0  3  0  0  0  0  0  0
  -26.1290  -26.9620   19.5600 C   0  0  0  0  0  3  0  0  0  0  0  0
  -24.9480  -27.7310   19.5610 C   0  0  0  0  0  3  0  0  0  0  0  0
  -23.7050  -29.8720   20.1990 C   0  0  0  0  0  2  0  0  0  0  0  0
  -24.7420  -31.1370   22.1340 N   0  0  0  0  0  0  0  0  0  0  0  0
  -23.5890  -32.2170   23.7620 O   0  0  0  0  0  0  0  0  0  0  0  0
  -22.8000  -29.5370   22.5270 C   0  0  0  0  0  0  0  0  0  0  0  0
  -21.4770  -29.3580   22.3680 N   0  0  0  0  0  0  0  0  0  0  0  0
  -23.4610  -28.9140   23.3630 O   0  0  0  0  0  0  0  0  0  0  0  0
  -21.0090  -29.8960   21.6530 H   0  0  0  0  0  0  0  0  0  0  0  0
  -18.0860  -28.1890   22.8080 C   0  0  0  0  0  0  0  0  0  0  0  0
  -20.6400  -28.4320   23.1270 C   0  0  0  0  0  3  0  0  0  0  0  0
  -20.7440  -27.0000   22.5560 C   0  0  0  0  0  2  0  0  0  0  0  0
  -19.6550  -26.6810   21.5220 C   0  0  0  0  0  2  0  0  0  0  0  0
  -18.2660  -26.8330   22.1490 C   0  0  0  0  0  2  0  0  0  0  0  0
  -19.2020  -28.9470   23.2550 C   0  0  0  0  0  0  0  0  0  0  0  0
  -18.9840  -30.2110   23.8410 C   0  0  0  0  0  3  0  0  0  0  0  0
  -17.6780  -30.7180   23.9950 C   0  0  0  0  0  3  0  0  0  0  0  0
  -16.5780  -29.9600   23.5600 C   0  0  0  0  0  3  0  0  0  0  0  0
  -16.7820  -28.6980   22.9720 C   0  0  0  0  0  3  0  0  0  0  0  0
  -25.9570  -32.5520   23.8780 C   0  0  0  0  0  3  0  0  0  0  0  0
  -25.6630  -33.9580   24.1860 N   0  0  0  0  0  0  0  0  0  0  0  0
  -26.0310  -34.9970   23.4250 C   0  0  0  0  0  0  0  0  0  0  0  0
  -26.7230  -34.8700   22.4130 O   0  0  0  0  0  0  0  0  0  0  0  0
  -25.0470  -34.1300   24.9660 H   0  0  0  0  0  0  0  0  0  0  0  0
  -24.3520  -36.8240   23.0080 C   0  0  0  0  0  1  0  0  0  0  0  0
  -25.5590  -36.3990   23.8580 C   0  0  0  0  0  3  0  0  0  0  0  0
  -27.6770  -37.2630   24.7530 C   0  0  0  0  0  1  0  0  0  0  0  0
  -26.6150  -37.4310   23.7660 N   0  0  0  0  0  0  0  0  0  0  0  0
  -26.2200  -38.3610   23.8810 H   0  0  0  0  0  0  0  0  0  0  0  0
  -26.4350  -31.7840   25.1720 C   0  0  1  0  0  0  0  0  0  0  0  0
  -25.3150  -31.5630   26.2160 C   0  0  0  0  0  1  0  0  0  0  0  0
  -27.0140  -30.3980   24.8000 C   0  0  0  0  0  1  0  0  0  0  0  0
  -27.5720  -32.5780   25.8590 C   0  0  0  0  0  1  0  0  0  0  0  0
  1  6  1  0
  1 47  2  0
  2  4  1  0
  3  8  1  0
  4  3  2  0
  5  3  1  0
  6  2  1  0
  6  5  1  0
  8  7  1  0
  9 17  1  0
 10 15  1  0
 11 12  1  0
 11 10  1  0
 13 12  1  0
 13 22  1  0
 13 14  1  0
 15  9  1  0
 15 14  1  0
 16  9  2  0
 17 18  1  0
 17  8  2  0
 19 20  2  0
 20 39  1  0
 21 20  1  0
 21 24  1  0
 22 23  1  0
 22 19  1  0
 23 21  2  0
 24 25  1  0
 25 26  2  0
 27 30  1  0
 27 26  1  0
 28 27  2  0
 29 28  1  0
 29 24  2  0
 30 31  1  0
 31 36  2  0
 31 32  1  0
 32 33  2  0
 33 34  1  0
 34 38  1  0
 35 34  2  0
 36 35  1  0
 37 36  1  0
 39 40  1  0
 40 43  1  0
 40 42  1  0
 41 39  2  0
 44 19  1  0
 44 45  1  0
 46 44  1  0
 48 47  1  0
 48 49  1  0
 50 52  1  0
 50 49  1  0
 51 62  2  0
 52 57  1  0
 53 61  1  0
 53 63  1  0
 54 60  1  0
 54 56  1  0
 55 61  1  0
 56 55  1  0
 57 56  2  0
 58 59  1  0
 58 52  2  0
 59 54  2  0
 60 53  1  0
 61 51  1  0
 63 65  2  0
 64 63  1  0
 66 64  1  0
 67 76  2  0
 67 72  1  0
 68 64  1  0
 68 72  1  0
 69 68  1  0
 70 71  1  0
 70 69  1  0
 71 67  1  0
 72 73  2  0
 73 74  1  0
 75 74  2  0
 76 75  1  0
 77 51  1  0
 77 78  1  0
 77 87  1  0
 78 81  1  0
 79 83  1  0
 79 78  1  0
 80 79  2  0
 83 82  1  0
 85 83  1  0
 85 86  1  0
 85 84  1  0
 87 90  1  1
 87 88  1  0
 89 87  1  0
M  ISO  4   9 100  17 100  49 101  50 101
M  END
>  <TORSDO>  (6) 
F 21

>  <SCORE>  (6) 
-12.734

>  <name>  (6) 
5

>  <ligand_id>  (6) 
5

>  <original_smiles>  (6) 
[H]c1c([H])c([H])c2c(c1[H])C([H])([H])C([H])([H])C([H])([H])C2([H])N([H])C(=O)C1([H])N(C(=O)C([H])(N([H])C(=O)C([H])(N([H])C([H])([H])[H])C([H])([H])[H])C(C([H])([H])[H])(C([H])([H])[H])C([H])([H])[H])C([H])([H])c2c([H])c(OC([H])([H])C([H])([H])C([H])([H])C([H])([H])n3nc(C([H])(N([H])C(=O)N4C([H])([H])C([H])([H])C([H])([H])C([H])(n5nc(-c6c([H])c([H])c(Oc7c([H])c([H])c(F)c([H])c7F)c([H])c6[H])c(C(=O)N([H])[H])c5N([H])[H])C4([H])[H])C([H])([H])[H])nc3[H])c([H])c([H])c2C1([H])[H]

>  <smiles>  (6) 
[H]c1c([H])c([H])c2c(c1[H])C([H])([H])C([H])([H])C([H])([H])C2([H])N([H])C(=O)C1([H])N(C(=O)C([H])(N([H])C(=O)C([H])(N([H])C([H])([H])[H])C([H])([H])[H])C(C([H])([H])[H])(C([H])([H])[H])C([H])([H])[H])C([H])([H])c2c([H])c(OC([H])([H])C([H])([H])C([H])([H])C([H])([H])n3nc(C([H])(N([H])C(=O)N4C([H])([H])C([H])([H])C([H])([H])C([H])(n5nc(-c6c([H])c([H])c(Oc7c([H])c([H])c(F)c([H])c7F)c([H])c6[H])c(C(=O)N([H])[H])c5N([H])[H])C4([H])[H])C([H])([H])[H])nc3[H])c([H])c([H])c2C1([H])[H]

$$$$
6:0:0
     RDKit          3D

 93101  0  0  1  0  0  0  0  0999 V2000
  -29.6050  -23.5130   22.6190 C   0  0  0  0  0  0  0  0  0  0  0  0
  -29.6850  -22.1120   20.8950 C   0  0  0  0  0  0  0  0  0  0  0  0
  -29.0810  -24.2530   20.5870 C   0  0  0  0  0  0  0  0  0  0  0  0
  -29.7910  -23.7720   24.0990 C   0  0  0  0  0  1  0  0  0  0  0  0
  -29.8280  -22.2650   22.2080 N   0  0  0  0  0  4  0  0  0  0  0  0
  -29.2240  -24.5480   21.8760 N   0  0  0  0  0  0  0  0  0  0  0  0
  -29.3180  -23.0620   20.0350 N   0  0  0  0  0  2  0  0  0  0  0  0
  -29.9130  -20.7210   20.2870 C   0  0  0  0  0  2  0  0  0  0  0  0
  -31.6080  -19.6040   21.7240 C   0  0  0  0  0  1  0  0  0  0  0  0
  -30.2110  -19.5870   21.2210 N   0  0  2  0  0  4  0  0  0  0  0  0
  -29.6130  -19.7600   22.0170 H   0  0  0  0  0  0  0  0  0  0  0  0
  -29.8240  -18.2930   20.5660 C   0  0  0  0  0  3  0  0  0  0  0  0
  -30.3260  -16.9190   21.1600 C   0  0  0  0  0  3  0  0  0  0  0  0
  -30.6520  -14.5410   20.4550 C   0  0  0  0  0  0  0  0  0  0  0  0
  -30.3630  -12.2990   19.4640 C   0  0  0  0  0  2  0  0  0  0  0  0
  -29.4470  -12.3870   18.2240 C   0  0  0  0  0  2  0  0  0  0  0  0
  -27.9560  -12.3310   18.6270 C   0  0  0  0  0  2  0  0  0  0  0  0
  -27.5890  -13.2070   19.8590 C   0  0  0  0  0  3  0  0  0  0  0  0
  -28.6410  -13.0970   20.9840 C   0  0  0  0  0  2  0  0  0  0  0  0
  -29.9600  -13.3650   20.3940 N   0  0  0  0  0  0  0  0  0  0  0  0
  -31.8670  -14.6040   20.2570 O   0  0  0  0  0  0  0  0  0  0  0  0
  -29.3850  -15.9980   19.0530 C   0  0  0  0  0  1  0  0  0  0  0  0
  -29.9170  -15.6920   20.3950 N   0  0  0  0  0  0  0  0  0  0  0  0
  -25.1920  -13.8330   20.5330 C   0  0  0  0  0  0  0  0  0  0  0  0
  -24.1140  -13.0680   20.8880 C   0  0  0  0  0  0  0  0  0  0  0  0
  -24.5730  -11.7150   20.8840 C   0  0  0  0  0  0  0  0  0  0  0  0
  -26.2360  -12.9420   20.3310 N   0  0  0  0  0  0  0  0  0  0  0  0
  -25.8680  -11.6660   20.6030 N   0  0  0  0  0  0  0  0  0  0  0  0
  -23.8410  -10.4570   21.0730 C   0  0  0  0  0  0  0  0  0  0  0  0
  -24.2760   -9.4850   21.9990 C   0  0  0  0  0  3  0  0  0  0  0  0
  -23.5470   -8.2900   22.1770 C   0  0  0  0  0  3  0  0  0  0  0  0
  -22.3690   -8.0590   21.4300 C   0  0  0  0  0  0  0  0  0  0  0  0
  -21.9550   -9.0190   20.4900 C   0  0  0  0  0  3  0  0  0  0  0  0
  -22.6840  -10.2060   20.3110 C   0  0  0  0  0  3  0  0  0  0  0  0
  -21.6130   -6.9150   21.5160 O   0  0  0  0  0  0  0  0  0  0  0  0
  -21.5900   -6.1550   22.6570 C   0  0  0  0  0  0  0  0  0  0  0  0
  -21.2230   -6.6970   23.9080 C   0  0  0  0  0  3  0  0  0  0  0  0
  -21.1470   -5.8640   25.0420 C   0  0  0  0  0  3  0  0  0  0  0  0
  -21.4240   -4.4880   24.9270 C   0  0  0  0  0  0  0  0  0  0  0  0
  -21.7810   -3.9450   23.6810 C   0  0  0  0  0  3  0  0  0  0  0  0
  -21.8600   -4.7760   22.5490 C   0  0  0  0  0  0  0  0  0  0  0  0
  -22.1860   -4.2430   21.3470 F   0  0  0  0  0  0  0  0  0  0  0  0
  -21.3420   -3.6870   26.0150 F   0  0  0  0  0  0  0  0  0  0  0  0
  -22.7130  -13.5520   21.1280 C   0  0  0  0  0  0  0  0  0  0  0  0
  -21.9710  -12.8650   21.9890 N   0  0  0  0  0  0  0  0  0  0  0  0
  -22.2850  -14.5700   20.5860 O   0  0  0  0  0  0  0  0  0  0  0  0
  -22.3330  -12.0400   22.4450 H   0  0  0  0  0  0  0  0  0  0  0  0
  -21.0290  -13.1640   22.1930 H   0  0  0  0  0  0  0  0  0  0  0  0
  -25.3660  -15.2010   20.3440 N   0  0  0  0  0  0  0  0  0  0  0  0
  -24.6010  -15.8620   20.4280 H   0  0  0  0  0  0  0  0  0  0  0  0
  -26.2330  -15.6340   20.0550 H   0  0  0  0  0  0  0  0  0  0  0  0
  -28.4720  -25.3090   19.6470 C   0  0  0  0  0  2  0  0  0  0  0  0
  -28.4080  -26.6700   20.1460 O   0  0  0  0  0  0  0  0  0  0  0  0
  -24.6200  -31.8680   23.2000 C   0  0  0  0  0  0  0  0  0  0  0  0
  -27.2250  -27.3970   20.0920 C   0  0  0  0  0  0  0  0  0  0  0  0
  -23.3990  -30.4730   21.5680 C   0  0  0  0  0  3  0  0  0  0  0  0
  -24.8360  -28.9400   20.1230 C   0  0  0  0  0  0  0  0  0  0  0  0
  -25.9270  -30.8180   21.3530 C   0  0  0  0  0  2  0  0  0  0  0  0
  -26.0020  -29.4470   20.7070 C   0  0  0  0  0  0  0  0  0  0  0  0
  -27.1940  -28.6820   20.6890 C   0  0  0  0  0  3  0  0  0  0  0  0
  -26.0330  -26.9270   19.4820 C   0  0  0  0  0  3  0  0  0  0  0  0
  -24.8490  -27.6820   19.5090 C   0  0  0  0  0  3  0  0  0  0  0  0
  -23.5950  -29.8010   20.1830 C   0  0  0  0  0  2  0  0  0  0  0  0
  -24.6680  -31.0670   22.0980 N   0  0  0  0  0  0  0  0  0  0  0  0
  -23.5440  -32.1420   23.7480 O   0  0  0  0  0  0  0  0  0  0  0  0
  -22.7550  -29.4480   22.5290 C   0  0  0  0  0  0  0  0  0  0  0  0
  -21.4290  -29.2690   22.4150 N   0  0  0  0  0  0  0  0  0  0  0  0
  -23.4450  -28.8160   23.3330 O   0  0  0  0  0  0  0  0  0  0  0  0
  -20.9320  -29.8310   21.7380 H   0  0  0  0  0  0  0  0  0  0  0  0
  -18.0560  -28.0800   22.9420 C   0  0  0  0  0  0  0  0  0  0  0  0
  -20.6170  -28.3330   23.1930 C   0  0  0  0  0  3  0  0  0  0  0  0
  -20.7110  -26.9020   22.6160 C   0  0  0  0  0  2  0  0  0  0  0  0
  -19.6000  -26.5810   21.6110 C   0  0  0  0  0  2  0  0  0  0  0  0
  -18.2230  -26.7300   22.2660 C   0  0  0  0  0  2  0  0  0  0  0  0
  -19.1790  -28.8390   23.3630 C   0  0  0  0  0  0  0  0  0  0  0  0
  -18.9670  -30.1040   23.9540 C   0  0  0  0  0  3  0  0  0  0  0  0
  -17.6650  -30.6080   24.1290 C   0  0  0  0  0  3  0  0  0  0  0  0
  -16.5570  -29.8450   23.7230 C   0  0  0  0  0  3  0  0  0  0  0  0
  -16.7530  -28.5830   23.1360 C   0  0  0  0  0  3  0  0  0  0  0  0
  -25.9110  -32.4970   23.8080 C   0  0  0  0  0  3  0  0  0  0  0  0
  -25.6000  -33.8880   24.1650 N   0  0  0  0  0  0  0  0  0  0  0  0
  -25.9140  -34.9530   23.4140 C   0  0  0  0  0  0  0  0  0  0  0  0
  -26.5680  -34.8670   22.3710 O   0  0  0  0  0  0  0  0  0  0  0  0
  -25.0170  -34.0260   24.9770 H   0  0  0  0  0  0  0  0  0  0  0  0
  -24.1660  -36.7350   23.1160 C   0  0  0  0  0  1  0  0  0  0  0  0
  -25.4240  -36.3300   23.9000 C   0  0  0  0  0  3  0  0  0  0  0  0
  -27.5700  -37.2150   24.7000 C   0  0  0  0  0  1  0  0  0  0  0  0
  -26.4470  -37.3930   23.7830 N   0  0  0  0  0  0  0  0  0  0  0  0
  -26.0380  -38.3070   23.9540 H   0  0  0  0  0  0  0  0  0  0  0  0
  -26.4570  -31.7080   25.0610 C   0  0  1  0  0  0  0  0  0  0  0  0
  -25.3840  -31.4460   26.1450 C   0  0  0  0  0  1  0  0  0  0  0  0
  -27.0380  -30.3400   24.6360 C   0  0  0  0  0  1  0  0  0  0  0  0
  -27.6160  -32.4960   25.7130 C   0  0  0  0  0  1  0  0  0  0  0  0
  1  4  1  0
  2  5  2  0
  3  6  2  0
  5  1  2  0
  6  1  1  0
  7  3  1  0
  7  2  1  0
  8  2  1  0
  8 10  1  0
 10  9  1  0
 10 11  1  1
 12 13  2  0
 12 10  1  0
 15 20  1  0
 16 17  1  0
 16 15  1  0
 18 17  1  0
 18 27  1  0
 18 19  1  0
 20 14  1  0
 20 19  1  0
 21 14  2  0
 22 23  1  0
 23 14  1  0
 23 13  1  0
 24 25  2  0
 25 44  1  0
 26 25  1  0
 26 29  1  0
 27 24  1  0
 27 28  1  0
 28 26  2  0
 29 30  1  0
 30 31  2  0
 32 35  1  0
 32 31  1  0
 33 32  2  0
 34 33  1  0
 34 29  2  0
 35 36  1  0
 36 37  1  0
 37 38  2  0
 39 38  1  0
 39 43  1  0
 40 39  2  0
 41 36  2  0
 41 40  1  0
 42 41  1  0
 44 45  1  0
 45 48  1  0
 45 47  1  0
 46 44  2  0
 49 50  1  0
 49 24  1  0
 51 49  1  0
 52 53  1  0
 52  3  1  0
 54 65  2  0
 55 53  1  0
 55 60  1  0
 56 64  1  0
 56 66  1  0
 57 63  1  0
 57 59  1  0
 58 64  1  0
 59 58  1  0
 60 59  2  0
 61 62  1  0
 61 55  2  0
 62 57  2  0
 63 56  1  0
 64 54  1  0
 66 68  2  0
 67 66  1  0
 69 67  1  0
 70 79  2  0
 70 75  1  0
 71 67  1  0
 71 75  1  0
 72 71  1  0
 73 74  1  0
 73 72  1  0
 74 70  1  0
 75 76  2  0
 76 77  1  0
 78 77  2  0
 79 78  1  0
 80 54  1  0
 80 81  1  0
 80 90  1  0
 81 84  1  0
 82 86  1  0
 82 81  1  0
 83 82  2  0
 86 85  1  0
 88 86  1  0
 88 89  1  0
 88 87  1  0
 90 93  1  1
 90 91  1  0
 92 90  1  0
M  ISO  4  14 100  23 100  52 101  53 101
M  END
>  <TORSDO>  (7) 
F 21

>  <SCORE>  (7) 
-13.285

>  <name>  (7) 
6

>  <ligand_id>  (7) 
6

>  <original_smiles>  (7) 
[H]c1c([H])c([H])c2c(c1[H])C([H])([H])C([H])([H])C([H])([H])C2([H])N([H])C(=O)C1([H])N(C(=O)C([H])(N([H])C(=O)C([H])(N([H])C([H])([H])[H])C([H])([H])[H])C(C([H])([H])[H])(C([H])([H])[H])C([H])([H])[H])C([H])([H])c2c([H])c(OC([H])([H])c3nc(C([H])([H])[H])nc(C([H])([H])[N+]([H])(C([H])([H])[H])C([H])([H])C([H])([H])N(C(=O)N4C([H])([H])C([H])([H])C([H])([H])C([H])(n5nc(-c6c([H])c([H])c(Oc7c([H])c([H])c(F)c([H])c7F)c([H])c6[H])c(C(=O)N([H])[H])c5N([H])[H])C4([H])[H])C([H])([H])[H])n3)c([H])c([H])c2C1([H])[H]

>  <smiles>  (7) 
[H]c1c([H])c([H])c2c(c1[H])C([H])([H])C([H])([H])C([H])([H])C2([H])N([H])C(=O)C1([H])N(C(=O)C([H])(N([H])C(=O)C([H])(N([H])C([H])([H])[H])C([H])([H])[H])C(C([H])([H])[H])(C([H])([H])[H])C([H])([H])[H])C([H])([H])c2c([H])c(OC([H])([H])c3nc(C([H])([H])[H])nc(C([H])([H])[N+]([H])(C([H])([H])[H])C([H])([H])C([H])([H])N(C(=O)N4C([H])([H])C([H])([H])C([H])([H])C([H])(n5nc(-c6c([H])c([H])c(Oc7c([H])c([H])c(F)c([H])c7F)c([H])c6[H])c(C(=O)N([H])[H])c5N([H])[H])C4([H])[H])C([H])([H])[H])n3)c([H])c([H])c2C1([H])[H]

$$$$
7:0:0
     RDKit          3D

 91 99  0  0  1  0  0  0  0  0999 V2000
  -29.2730  -20.4440   20.4550 C   0  0  0  0  0  2  0  0  0  0  0  0
  -29.7770  -17.8300   17.0040 C   0  0  0  0  0  3  0  0  0  0  0  0
  -29.7500  -19.3560   19.3000 C   0  0  0  0  0  0  0  0  0  0  0  0
  -29.9490  -19.8790   17.9770 C   0  0  0  0  0  0  0  0  0  0  0  0
  -29.8960  -17.8380   19.3130 C   0  0  0  0  0  0  0  0  0  0  0  0
  -30.2490  -21.3210   17.6190 C   0  0  0  0  0  1  0  0  0  0  0  0
  -29.9390  -19.1220   16.8710 N   0  0  0  0  0  0  0  0  0  0  0  0
  -29.7940  -17.1790   18.1440 N   0  0  0  0  0  0  0  0  0  0  0  0
  -28.7890  -16.6060   21.2640 C   0  0  0  0  0  1  0  0  0  0  0  0
  -30.0770  -16.6570   20.4330 C   0  0  0  0  0  3  0  0  0  0  0  0
  -30.7020  -15.1340   20.0140 C   0  0  0  0  0  0  0  0  0  0  0  0
  -30.5000  -12.8150   18.9870 C   0  0  0  0  0  2  0  0  0  0  0  0
  -29.5340  -12.8630   17.7800 C   0  0  0  0  0  2  0  0  0  0  0  0
  -28.0850  -12.6410   18.2510 C   0  0  0  0  0  2  0  0  0  0  0  0
  -27.7300  -13.4870   19.4970 C   0  0  0  0  0  3  0  0  0  0  0  0
  -28.8310  -13.4290   20.5730 C   0  0  0  0  0  2  0  0  0  0  0  0
  -30.0850  -13.8750   19.9540 N   0  0  0  0  0  0  0  0  0  0  0  0
  -31.8830  -15.1250   19.6180 O   0  0  0  0  0  0  0  0  0  0  0  0
  -25.3750  -14.0220   20.3370 C   0  0  0  0  0  0  0  0  0  0  0  0
  -24.3370  -13.2320   20.7530 C   0  0  0  0  0  0  0  0  0  0  0  0
  -24.8120  -11.8860   20.6850 C   0  0  0  0  0  0  0  0  0  0  0  0
  -26.4140  -13.1570   20.0390 N   0  0  0  0  0  0  0  0  0  0  0  0
  -26.0880  -11.8670   20.3130 N   0  0  0  0  0  0  0  0  0  0  0  0
  -24.1000  -10.6140   20.8860 C   0  0  0  0  0  0  0  0  0  0  0  0
  -24.5330   -9.6650   21.8390 C   0  0  0  0  0  3  0  0  0  0  0  0
  -23.8140   -8.4660   22.0340 C   0  0  0  0  0  3  0  0  0  0  0  0
  -22.6520   -8.2060   21.2740 C   0  0  0  0  0  0  0  0  0  0  0  0
  -22.2440   -9.1360   20.3020 C   0  0  0  0  0  3  0  0  0  0  0  0
  -22.9610  -10.3270   20.1080 C   0  0  0  0  0  3  0  0  0  0  0  0
  -21.9060   -7.0540   21.3760 O   0  0  0  0  0  0  0  0  0  0  0  0
  -21.7870   -6.3720   22.5590 C   0  0  0  0  0  0  0  0  0  0  0  0
  -21.2600   -6.9780   23.7210 C   0  0  0  0  0  3  0  0  0  0  0  0
  -21.0850   -6.2180   24.8950 C   0  0  0  0  0  3  0  0  0  0  0  0
  -21.4380   -4.8550   24.9080 C   0  0  0  0  0  0  0  0  0  0  0  0
  -21.9640   -4.2500   23.7530 C   0  0  0  0  0  3  0  0  0  0  0  0
  -22.1360   -5.0070   22.5800 C   0  0  0  0  0  0  0  0  0  0  0  0
  -22.6210   -4.4140   21.4610 F   0  0  0  0  0  0  0  0  0  0  0  0
  -21.2670   -4.1210   26.0310 F   0  0  0  0  0  0  0  0  0  0  0  0
  -22.9510  -13.7010   21.0880 C   0  0  0  0  0  0  0  0  0  0  0  0
  -22.2640  -13.0010   21.9830 N   0  0  0  0  0  0  0  0  0  0  0  0
  -22.4870  -14.7280   20.5960 O   0  0  0  0  0  0  0  0  0  0  0  0
  -22.6450  -12.1720   22.4130 H   0  0  0  0  0  0  0  0  0  0  0  0
  -21.3450  -13.3230   22.2510 H   0  0  0  0  0  0  0  0  0  0  0  0
  -25.5020  -15.3980   20.1700 N   0  0  0  0  0  0  0  0  0  0  0  0
  -24.7230  -16.0240   20.3480 H   0  0  0  0  0  0  0  0  0  0  0  0
  -26.3260  -15.8760   19.8240 H   0  0  0  0  0  0  0  0  0  0  0  0
  -30.4850  -22.4280   21.6090 C   0  0  0  0  0  1  0  0  0  0  0  0
  -29.4530  -22.1560   20.5160 C   0  0  0  0  0  3  0  0  0  0  0  0
  -28.2340  -23.3210   20.5480 C   0  0  0  0  0  2  0  0  0  0  0  0
  -28.2700  -24.9370   21.0730 C   0  0  0  0  0  2  0  0  0  0  0  0
  -28.3120  -26.3160   20.3750 O   0  0  0  0  0  0  0  0  0  0  0  0
  -24.5630  -31.9710   23.2760 C   0  0  0  0  0  0  0  0  0  0  0  0
  -27.2170  -27.2470   20.3800 C   0  0  0  0  0  0  0  0  0  0  0  0
  -23.3860  -30.5260   21.6580 C   0  0  0  0  0  3  0  0  0  0  0  0
  -24.8610  -28.9330   20.2840 C   0  0  0  0  0  0  0  0  0  0  0  0
  -25.9340  -30.8310   21.4930 C   0  0  0  0  0  2  0  0  0  0  0  0
  -26.0280  -29.4250   20.8820 C   0  0  0  0  0  0  0  0  0  0  0  0
  -27.2120  -28.5950   20.9090 C   0  0  0  0  0  3  0  0  0  0  0  0
  -26.0220  -26.8420   19.7520 C   0  0  0  0  0  3  0  0  0  0  0  0
  -24.8680  -27.6560   19.6970 C   0  0  0  0  0  3  0  0  0  0  0  0
  -23.6220  -29.8120   20.2980 C   0  0  0  0  0  2  0  0  0  0  0  0
  -24.6460  -31.1330   22.1970 N   0  0  0  0  0  0  0  0  0  0  0  0
  -23.4720  -32.2530   23.7970 O   0  0  0  0  0  0  0  0  0  0  0  0
  -22.7090  -29.5390   22.6420 C   0  0  0  0  0  0  0  0  0  0  0  0
  -21.3880  -29.3430   22.5030 N   0  0  0  0  0  0  0  0  0  0  0  0
  -23.3800  -28.9480   23.4930 O   0  0  0  0  0  0  0  0  0  0  0  0
  -20.9050  -29.8690   21.7880 H   0  0  0  0  0  0  0  0  0  0  0  0
  -18.0190  -28.0930   22.9880 C   0  0  0  0  0  0  0  0  0  0  0  0
  -20.5680  -28.4150   23.2890 C   0  0  0  0  0  3  0  0  0  0  0  0
  -20.7060  -26.9700   22.7610 C   0  0  0  0  0  2  0  0  0  0  0  0
  -19.6310  -26.5930   21.7370 C   0  0  0  0  0  2  0  0  0  0  0  0
  -18.2350  -26.7270   22.3550 C   0  0  0  0  0  2  0  0  0  0  0  0
  -19.1160  -28.8920   23.4120 C   0  0  0  0  0  0  0  0  0  0  0  0
  -18.8620  -30.1620   23.9710 C   0  0  0  0  0  3  0  0  0  0  0  0
  -17.5460  -30.6400   24.1090 C   0  0  0  0  0  3  0  0  0  0  0  0
  -16.4620  -29.8420   23.6990 C   0  0  0  0  0  3  0  0  0  0  0  0
  -16.7010  -28.5710   23.1460 C   0  0  0  0  0  3  0  0  0  0  0  0
  -25.8330  -32.6350   23.8900 C   0  0  0  0  0  3  0  0  0  0  0  0
  -25.5010  -34.0360   24.1950 N   0  0  0  0  0  0  0  0  0  0  0  0
  -25.8410  -35.0850   23.4370 C   0  0  0  0  0  0  0  0  0  0  0  0
  -26.5280  -34.9760   22.4170 O   0  0  0  0  0  0  0  0  0  0  0  0
  -24.8750  -34.1890   24.9730 H   0  0  0  0  0  0  0  0  0  0  0  0
  -24.1110  -36.8780   23.0410 C   0  0  0  0  0  1  0  0  0  0  0  0
  -25.3380  -36.4760   23.8740 C   0  0  0  0  0  3  0  0  0  0  0  0
  -27.4500  -37.3850   24.7370 C   0  0  0  0  0  1  0  0  0  0  0  0
  -26.3670  -37.5330   23.7710 N   0  0  0  0  0  0  0  0  0  0  0  0
  -25.9530  -38.4520   23.8970 H   0  0  0  0  0  0  0  0  0  0  0  0
  -26.3480  -31.8950   25.1870 C   0  0  1  0  0  0  0  0  0  0  0  0
  -25.2450  -31.6500   26.2440 C   0  0  0  0  0  1  0  0  0  0  0  0
  -26.9710  -30.5260   24.8270 C   0  0  0  0  0  1  0  0  0  0  0  0
  -27.4720  -32.7230   25.8520 C   0  0  0  0  0  1  0  0  0  0  0  0
  1 48  1  0
  2  8  1  0
  3  5  1  0
  3  1  1  0
  4  3  2  0
  5 10  1  0
  6  4  1  0
  7  2  2  0
  7  4  1  0
  8  5  2  0
 10  9  1  0
 11 10  1  0
 12 17  1  0
 13 14  1  0
 13 12  1  0
 15 14  1  0
 15 22  1  0
 15 16  1  0
 17 11  1  0
 17 16  1  0
 18 11  2  0
 19 20  2  0
 20 39  1  0
 21 20  1  0
 21 24  1  0
 22 23  1  0
 22 19  1  0
 23 21  2  0
 24 25  1  0
 25 26  2  0
 27 30  1  0
 27 26  1  0
 28 27  2  0
 29 28  1  0
 29 24  2  0
 30 31  1  0
 31 36  2  0
 31 32  1  0
 32 33  2  0
 33 34  1  0
 34 38  1  0
 35 34  2  0
 36 35  1  0
 37 36  1  0
 39 40  1  0
 40 43  1  0
 40 42  1  0
 41 39  2  0
 44 19  1  0
 44 45  1  0
 46 44  1  0
 48 49  1  0
 48 47  1  0
 49 50  1  0
 51 53  1  0
 51 50  1  0
 52 63  2  0
 53 58  1  0
 54 62  1  0
 54 64  1  0
 55 61  1  0
 55 57  1  0
 56 62  1  0
 57 58  2  0
 57 56  1  0
 59 53  2  0
 60 59  1  0
 60 55  2  0
 61 54  1  0
 62 52  1  0
 64 66  2  0
 65 64  1  0
 67 65  1  0
 68 77  2  0
 68 73  1  0
 69 65  1  0
 69 73  1  0
 70 69  1  0
 71 72  1  0
 71 70  1  0
 72 68  1  0
 73 74  2  0
 74 75  1  0
 76 75  2  0
 77 76  1  0
 78 52  1  0
 78 79  1  0
 78 88  1  0
 79 82  1  0
 80 84  1  0
 80 79  1  0
 81 80  2  0
 84 83  1  0
 86 84  1  0
 86 87  1  0
 86 85  1  0
 88 91  1  1
 88 89  1  0
 90 88  1  0
M  ISO  4  10 100  11 100  50 101  51 101
M  END
>  <TORSDO>  (8) 
F 21

>  <SCORE>  (8) 
-14.213

>  <name>  (8) 
7

>  <ligand_id>  (8) 
7

>  <original_smiles>  (8) 
[H]c1nc(C([H])([H])[H])c(C([H])([H])C([H])(C([H])([H])[H])C([H])([H])C([H])([H])Oc2c([H])c([H])c3c(c2[H])C([H])([H])N(C(=O)C([H])(N([H])C(=O)C([H])(N([H])C([H])([H])[H])C([H])([H])[H])C(C([H])([H])[H])(C([H])([H])[H])C([H])([H])[H])C([H])(C(=O)N([H])C2([H])c4c([H])c([H])c([H])c([H])c4C([H])([H])C([H])([H])C2([H])[H])C3([H])[H])c(C([H])(C(=O)N2C([H])([H])C([H])([H])C([H])([H])C([H])(n3nc(-c4c([H])c([H])c(Oc5c([H])c([H])c(F)c([H])c5F)c([H])c4[H])c(C(=O)N([H])[H])c3N([H])[H])C2([H])[H])C([H])([H])[H])n1

>  <smiles>  (8) 
[H]c1nc(C([H])([H])[H])c(C([H])([H])C([H])(C([H])([H])[H])C([H])([H])C([H])([H])Oc2c([H])c([H])c3c(c2[H])C([H])([H])N(C(=O)C([H])(N([H])C(=O)C([H])(N([H])C([H])([H])[H])C([H])([H])[H])C(C([H])([H])[H])(C([H])([H])[H])C([H])([H])[H])C([H])(C(=O)N([H])C2([H])c4c([H])c([H])c([H])c([H])c4C([H])([H])C([H])([H])C2([H])[H])C3([H])[H])c(C([H])(C(=O)N2C([H])([H])C([H])([H])C([H])([H])C([H])(n3nc(-c4c([H])c([H])c(Oc5c([H])c([H])c(F)c([H])c5F)c([H])c4[H])c(C(=O)N([H])[H])c3N([H])[H])C2([H])[H])C([H])([H])[H])n1

$$$$
8:0:0
     RDKit          3D

 86 93  0  0  1  0  0  0  0  0999 V2000
  -29.2900  -22.6710   20.1390 C   0  0  0  0  0  2  0  0  0  0  0  0
  -27.5780  -21.5510   20.0580 C   0  0  0  0  0  2  0  0  0  0  0  0
  -28.2910  -23.8330   20.1780 C   0  0  0  0  0  0  0  0  0  0  0  0
  -27.2010  -22.9070   20.1170 N   0  0  0  0  0  0  0  0  0  0  0  0
  -28.8950  -21.1350   20.0630 N   0  0  0  0  0  0  0  0  0  0  0  0
  -28.2750  -25.4430   20.2670 O   0  0  0  0  0  0  0  0  0  0  0  0
  -24.7610  -31.8140   23.2380 C   0  0  0  0  0  0  0  0  0  0  0  0
  -27.2830  -26.6700   20.2550 C   0  0  0  0  0  0  0  0  0  0  0  0
  -23.5820  -30.4260   21.5900 C   0  0  0  0  0  3  0  0  0  0  0  0
  -25.0290  -28.7610   20.1860 C   0  0  0  0  0  0  0  0  0  0  0  0
  -26.1640  -30.5330   21.4970 C   0  0  0  0  0  2  0  0  0  0  0  0
  -26.2220  -29.0950   20.8380 C   0  0  0  0  0  0  0  0  0  0  0  0
  -27.3280  -28.0790   20.8400 C   0  0  0  0  0  3  0  0  0  0  0  0
  -26.0600  -26.5710   19.5380 C   0  0  0  0  0  3  0  0  0  0  0  0
  -24.9920  -27.5280   19.5130 C   0  0  0  0  0  3  0  0  0  0  0  0
  -23.8300  -29.7290   20.2200 C   0  0  0  0  0  2  0  0  0  0  0  0
  -24.8600  -30.9610   22.1590 N   0  0  0  0  0  0  0  0  0  0  0  0
  -23.6650  -32.1200   23.7390 O   0  0  0  0  0  0  0  0  0  0  0  0
  -22.8480  -29.4530   22.5540 C   0  0  0  0  0  0  0  0  0  0  0  0
  -21.5160  -29.3030   22.4140 N   0  0  0  0  0  0  0  0  0  0  0  0
  -23.4920  -28.8300   23.4020 O   0  0  0  0  0  0  0  0  0  0  0  0
  -21.0460  -29.8560   21.7110 H   0  0  0  0  0  0  0  0  0  0  0  0
  -18.1220  -28.0910   22.8920 C   0  0  0  0  0  0  0  0  0  0  0  0
  -20.6800  -28.3660   23.1760 C   0  0  0  0  0  3  0  0  0  0  0  0
  -20.7890  -26.9330   22.6040 C   0  0  0  0  0  2  0  0  0  0  0  0
  -19.6970  -26.6090   21.5770 C   0  0  0  0  0  2  0  0  0  0  0  0
  -18.3090  -26.7460   22.2100 C   0  0  0  0  0  2  0  0  0  0  0  0
  -19.2350  -28.8580   23.3300 C   0  0  0  0  0  0  0  0  0  0  0  0
  -19.0030  -30.1120   23.9350 C   0  0  0  0  0  3  0  0  0  0  0  0
  -17.6930  -30.6030   24.0990 C   0  0  0  0  0  3  0  0  0  0  0  0
  -16.5960  -29.8340   23.6730 C   0  0  0  0  0  3  0  0  0  0  0  0
  -16.8110  -28.5800   23.0760 C   0  0  0  0  0  3  0  0  0  0  0  0
  -26.0200  -32.4600   23.8930 C   0  0  0  0  0  3  0  0  0  0  0  0
  -25.7020  -33.8660   24.2200 N   0  0  0  0  0  0  0  0  0  0  0  0
  -26.0320  -34.9280   23.4710 C   0  0  0  0  0  0  0  0  0  0  0  0
  -26.6890  -34.8260   22.4330 O   0  0  0  0  0  0  0  0  0  0  0  0
  -25.1130  -34.0160   25.0250 H   0  0  0  0  0  0  0  0  0  0  0  0
  -24.2940  -36.7310   23.1790 C   0  0  0  0  0  1  0  0  0  0  0  0
  -25.5610  -36.3200   23.9450 C   0  0  0  0  0  3  0  0  0  0  0  0
  -27.7170  -37.2170   24.7080 C   0  0  0  0  0  1  0  0  0  0  0  0
  -26.5890  -37.3740   23.7950 N   0  0  0  0  0  0  0  0  0  0  0  0
  -26.1860  -38.2950   23.9440 H   0  0  0  0  0  0  0  0  0  0  0  0
  -26.4910  -31.7060   25.2000 C   0  0  1  0  0  0  0  0  0  0  0  0
  -25.3660  -31.4990   26.2420 C   0  0  0  0  0  1  0  0  0  0  0  0
  -27.0720  -30.3160   24.8620 C   0  0  0  0  0  1  0  0  0  0  0  0
  -27.6310  -32.5020   25.8810 C   0  0  0  0  0  1  0  0  0  0  0  0
  -29.7170  -19.4880   19.9680 C   0  0  0  0  0  1  0  0  0  0  0  0
  -28.2820  -17.4450   18.9230 C   0  0  0  0  0  1  0  0  0  0  0  0
  -28.7310  -17.3820   21.3700 C   0  0  0  0  0  1  0  0  0  0  0  0
  -29.3900  -17.5290   19.9860 C   0  0  0  0  0  3  0  0  0  0  0  0
  -30.2940  -15.8280   19.7720 C   0  0  0  0  0  0  0  0  0  0  0  0
  -30.4720  -13.2530   18.9330 C   0  0  0  0  0  2  0  0  0  0  0  0
  -29.5130  -12.8000   17.7890 C   0  0  0  0  0  2  0  0  0  0  0  0
  -28.1310  -12.3930   18.3280 C   0  0  0  0  0  2  0  0  0  0  0  0
  -27.6690  -13.3640   19.4360 C   0  0  0  0  0  3  0  0  0  0  0  0
  -28.7690  -13.6950   20.4680 C   0  0  0  0  0  2  0  0  0  0  0  0
  -29.8660  -14.4070   19.7570 N   0  0  0  0  0  0  0  0  0  0  0  0
  -31.5080  -15.7920   19.4780 O   0  0  0  0  0  0  0  0  0  0  0  0
  -25.3820  -13.8440   20.4240 C   0  0  0  0  0  0  0  0  0  0  0  0
  -24.3600  -13.0420   20.8430 C   0  0  0  0  0  0  0  0  0  0  0  0
  -24.8330  -11.6990   20.7160 C   0  0  0  0  0  0  0  0  0  0  0  0
  -26.4040  -12.9920   20.0510 N   0  0  0  0  0  0  0  0  0  0  0  0
  -26.0940  -11.6910   20.2920 N   0  0  0  0  0  0  0  0  0  0  0  0
  -24.1290  -10.4250   20.9140 C   0  0  0  0  0  0  0  0  0  0  0  0
  -24.5760   -9.4710   21.8530 C   0  0  0  0  0  3  0  0  0  0  0  0
  -23.8670   -8.2640   22.0410 C   0  0  0  0  0  3  0  0  0  0  0  0
  -22.6970   -8.0030   21.2890 C   0  0  0  0  0  0  0  0  0  0  0  0
  -22.2690   -8.9460   20.3380 C   0  0  0  0  0  3  0  0  0  0  0  0
  -22.9780  -10.1450   20.1500 C   0  0  0  0  0  3  0  0  0  0  0  0
  -21.9590   -6.8490   21.3860 O   0  0  0  0  0  0  0  0  0  0  0  0
  -21.8350   -6.1700   22.5710 C   0  0  0  0  0  0  0  0  0  0  0  0
  -21.3000   -6.7810   23.7270 C   0  0  0  0  0  3  0  0  0  0  0  0
  -21.1280   -6.0280   24.9060 C   0  0  0  0  0  3  0  0  0  0  0  0
  -21.4760   -4.6630   24.9270 C   0  0  0  0  0  0  0  0  0  0  0  0
  -22.0010   -4.0530   23.7770 C   0  0  0  0  0  3  0  0  0  0  0  0
  -22.1780   -4.8030   22.6010 C   0  0  0  0  0  0  0  0  0  0  0  0
  -22.6650   -4.2040   21.4880 F   0  0  0  0  0  0  0  0  0  0  0  0
  -21.3020   -3.9380   26.0570 F   0  0  0  0  0  0  0  0  0  0  0  0
  -22.9870  -13.4980   21.2420 C   0  0  0  0  0  0  0  0  0  0  0  0
  -22.3370  -12.7710   22.1450 N   0  0  0  0  0  0  0  0  0  0  0  0
  -22.5030  -14.5340   20.7900 O   0  0  0  0  0  0  0  0  0  0  0  0
  -22.7480  -11.9360   22.5350 H   0  0  0  0  0  0  0  0  0  0  0  0
  -21.4170  -13.0550   22.4530 H   0  0  0  0  0  0  0  0  0  0  0  0
  -25.5190  -15.2230   20.2990 N   0  0  0  0  0  0  0  0  0  0  0  0
  -24.7630  -15.8600   20.5240 H   0  0  0  0  0  0  0  0  0  0  0  0
  -26.3460  -15.6950   19.9580 H   0  0  0  0  0  0  0  0  0  0  0  0
  1  3  1  0
  2  5  1  0
  2  4  1  0
  3  6  1  0
  4  3  2  0
  5  1  1  0
  7 18  2  0
  8  6  1  0
  8 13  1  0
  9 17  1  0
  9 19  1  0
 10 16  1  0
 10 12  1  0
 11 17  1  0
 12 13  2  0
 12 11  1  0
 14  8  2  0
 15 14  1  0
 15 10  2  0
 16  9  1  0
 17  7  1  0
 19 21  2  0
 20 19  1  0
 22 20  1  0
 23 32  2  0
 23 28  1  0
 24 20  1  0
 24 28  1  0
 25 24  1  0
 26 27  1  0
 26 25  1  0
 27 23  1  0
 28 29  2  0
 29 30  1  0
 31 30  2  0
 32 31  1  0
 33  7  1  0
 33 34  1  0
 33 43  1  0
 34 37  1  0
 35 39  1  0
 35 34  1  0
 36 35  2  0
 39 38  1  0
 41 42  1  0
 41 39  1  0
 41 40  1  0
 43 46  1  1
 43 44  1  0
 45 43  1  0
 47  5  1  0
 48 50  1  0
 50 49  1  0
 51 50  1  0
 52 57  1  0
 53 54  1  0
 53 52  1  0
 55 54  1  0
 55 62  1  0
 55 56  1  0
 57 51  1  0
 57 56  1  0
 58 51  2  0
 59 60  2  0
 60 79  1  0
 61 60  1  0
 61 64  1  0
 62 63  1  0
 62 59  1  0
 63 61  2  0
 64 65  1  0
 65 66  2  0
 67 70  1  0
 67 66  1  0
 68 67  2  0
 69 68  1  0
 69 64  2  0
 70 71  1  0
 71 76  2  0
 71 72  1  0
 72 73  2  0
 73 74  1  0
 74 78  1  0
 75 74  2  0
 76 75  1  0
 77 76  1  0
 79 80  1  0
 80 83  1  0
 80 82  1  0
 81 79  2  0
 84 59  1  0
 84 85  1  0
 86 84  1  0
M  ISO  4   3 101   6 101  50 100  51 100
M  END
>  <TORSDO>  (9) 
F 18

>  <SCORE>  (9) 
-14.731

>  <name>  (9) 
8

>  <ligand_id>  (9) 
8

>  <original_smiles>  (9) 
[H]c1c([H])c([H])c2c(c1[H])C([H])([H])C([H])([H])C([H])([H])C2([H])N([H])C(=O)C1([H])N(C(=O)C([H])(N([H])C(=O)C([H])(N([H])C([H])([H])[H])C([H])([H])[H])C(C([H])([H])[H])(C([H])([H])[H])C([H])([H])[H])C([H])([H])c2c([H])c(Oc3nc([H])n(C([H])([H])C(C(=O)N4C([H])([H])C([H])([H])C([H])([H])C([H])(n5nc(-c6c([H])c([H])c(Oc7c([H])c([H])c(F)c([H])c7F)c([H])c6[H])c(C(=O)N([H])[H])c5N([H])[H])C4([H])[H])(C([H])([H])[H])C([H])([H])[H])c3[H])c([H])c([H])c2C1([H])[H]

>  <smiles>  (9) 
[H]c1c([H])c([H])c2c(c1[H])C([H])([H])C([H])([H])C([H])([H])C2([H])N([H])C(=O)C1([H])N(C(=O)C([H])(N([H])C(=O)C([H])(N([H])C([H])([H])[H])C([H])([H])[H])C(C([H])([H])[H])(C([H])([H])[H])C([H])([H])[H])C([H])([H])c2c([H])c(Oc3nc([H])n(C([H])([H])C(C(=O)N4C([H])([H])C([H])([H])C([H])([H])C([H])(n5nc(-c6c([H])c([H])c(Oc7c([H])c([H])c(F)c([H])c7F)c([H])c6[H])c(C(=O)N([H])[H])c5N([H])[H])C4([H])[H])(C([H])([H])[H])C([H])([H])[H])c3[H])c([H])c([H])c2C1([H])[H]

$$$$
9:0:0
     RDKit          3D

 91 99  0  0  1  0  0  0  0  0999 V2000
  -29.2870  -23.4300   19.9840 C   0  0  1  0  0  0  0  0  0  0  0  0
  -30.0770  -20.7230   20.2180 C   0  0  0  0  0  3  0  0  0  0  0  0
  -28.0190  -21.0310   19.8810 C   0  0  0  0  0  3  0  0  0  0  0  0
  -29.5640  -19.3880   20.0910 C   0  0  0  0  0  0  0  0  0  0  0  0
  -28.2030  -19.6750   19.8680 N   0  0  0  0  0  0  0  0  0  0  0  0
  -29.1030  -21.8180   20.0870 N   0  0  0  0  0  0  0  0  0  0  0  0
  -30.3220  -17.8830   20.0340 C   0  0  0  0  0  2  0  0  0  0  0  0
  -30.4890  -15.1220   20.0820 C   0  0  0  0  0  0  0  0  0  0  0  0
  -30.3690  -12.7720   19.0700 C   0  0  0  0  0  2  0  0  0  0  0  0
  -29.3650  -12.6820   17.8940 C   0  0  0  0  0  2  0  0  0  0  0  0
  -27.9280  -12.4360   18.3950 C   0  0  0  0  0  2  0  0  0  0  0  0
  -27.5730  -13.3230   19.6160 C   0  0  0  0  0  3  0  0  0  0  0  0
  -28.6990  -13.2790   20.6710 C   0  0  0  0  0  2  0  0  0  0  0  0
  -29.8930  -13.8410   20.0090 N   0  0  0  0  0  0  0  0  0  0  0  0
  -31.6850  -15.1390   19.7600 O   0  0  0  0  0  0  0  0  0  0  0  0
  -28.4140  -16.4960   20.7550 C   0  0  0  0  0  1  0  0  0  0  0  0
  -29.7800  -16.3900   20.2490 N   0  0  0  0  0  0  0  0  0  0  0  0
  -25.2230  -13.8750   20.4660 C   0  0  0  0  0  0  0  0  0  0  0  0
  -24.1790  -13.0880   20.8640 C   0  0  0  0  0  0  0  0  0  0  0  0
  -24.6480  -11.7410   20.7810 C   0  0  0  0  0  0  0  0  0  0  0  0
  -26.2620  -13.0080   20.1680 N   0  0  0  0  0  0  0  0  0  0  0  0
  -25.9250  -11.7170   20.4180 N   0  0  0  0  0  0  0  0  0  0  0  0
  -23.9340  -10.4720   20.9680 C   0  0  0  0  0  0  0  0  0  0  0  0
  -24.3690   -9.5110   21.9060 C   0  0  0  0  0  3  0  0  0  0  0  0
  -23.6520   -8.3090   22.0830 C   0  0  0  0  0  3  0  0  0  0  0  0
  -22.4860   -8.0600   21.3200 C   0  0  0  0  0  0  0  0  0  0  0  0
  -22.0690   -9.0110   20.3710 C   0  0  0  0  0  3  0  0  0  0  0  0
  -22.7880  -10.2040   20.1930 C   0  0  0  0  0  3  0  0  0  0  0  0
  -21.7390   -6.9110   21.4090 O   0  0  0  0  0  0  0  0  0  0  0  0
  -21.6380   -6.2060   22.5810 C   0  0  0  0  0  0  0  0  0  0  0  0
  -21.1170   -6.7870   23.7570 C   0  0  0  0  0  3  0  0  0  0  0  0
  -20.9680   -6.0060   24.9210 C   0  0  0  0  0  3  0  0  0  0  0  0
  -21.3290   -4.6460   24.9080 C   0  0  0  0  0  0  0  0  0  0  0  0
  -21.8430   -4.0640   23.7350 C   0  0  0  0  0  3  0  0  0  0  0  0
  -21.9930   -4.8420   22.5730 C   0  0  0  0  0  0  0  0  0  0  0  0
  -22.4690   -4.2730   21.4410 F   0  0  0  0  0  0  0  0  0  0  0  0
  -21.1770   -3.8930   26.0210 F   0  0  0  0  0  0  0  0  0  0  0  0
  -22.7940  -13.5550   21.2050 C   0  0  0  0  0  0  0  0  0  0  0  0
  -22.1080  -12.8400   22.0880 N   0  0  0  0  0  0  0  0  0  0  0  0
  -22.3330  -14.5900   20.7260 O   0  0  0  0  0  0  0  0  0  0  0  0
  -22.4940  -12.0020   22.4990 H   0  0  0  0  0  0  0  0  0  0  0  0
  -21.1800  -13.1350   22.3600 H   0  0  0  0  0  0  0  0  0  0  0  0
  -25.3570  -15.2490   20.3080 N   0  0  0  0  0  0  0  0  0  0  0  0
  -24.5860  -15.8880   20.4730 H   0  0  0  0  0  0  0  0  0  0  0  0
  -26.1870  -15.7120   19.9620 H   0  0  0  0  0  0  0  0  0  0  0  0
  -31.8530  -23.7190   20.6990 C   0  0  0  0  0  1  0  0  0  0  0  0
  -30.3550  -23.8550   21.0430 C   0  0  0  0  0  2  0  0  0  0  0  0
  -30.0770  -25.0610   18.0430 C   0  0  0  0  0  1  0  0  0  0  0  0
  -29.8010  -23.6230   18.5250 C   0  0  0  0  0  2  0  0  0  0  0  0
  -28.0560  -24.6070   20.1880 C   0  0  0  0  0  2  0  0  0  0  0  0
  -28.2600  -26.1790   20.2190 O   0  0  0  0  0  0  0  0  0  0  0  0
  -24.6430  -31.8990   23.2570 C   0  0  0  0  0  0  0  0  0  0  0  0
  -27.1940  -27.1630   20.1900 C   0  0  0  0  0  0  0  0  0  0  0  0
  -23.4350  -30.5180   21.6110 C   0  0  0  0  0  3  0  0  0  0  0  0
  -24.8730  -28.9380   20.1780 C   0  0  0  0  0  0  0  0  0  0  0  0
  -25.9920  -30.7640   21.4470 C   0  0  0  0  0  2  0  0  0  0  0  0
  -26.0570  -29.3720   20.7840 C   0  0  0  0  0  0  0  0  0  0  0  0
  -27.2170  -28.5020   20.7690 C   0  0  0  0  0  3  0  0  0  0  0  0
  -25.9780  -26.8380   19.5500 C   0  0  0  0  0  3  0  0  0  0  0  0
  -24.8470  -27.6850   19.5460 C   0  0  0  0  0  3  0  0  0  0  0  0
  -23.6520  -29.8450   20.2300 C   0  0  0  0  0  2  0  0  0  0  0  0
  -24.7100  -31.0820   22.1600 N   0  0  0  0  0  0  0  0  0  0  0  0
  -23.5580  -32.1870   23.7860 O   0  0  0  0  0  0  0  0  0  0  0  0
  -22.7490  -29.5120   22.5690 C   0  0  0  0  0  0  0  0  0  0  0  0
  -21.4240  -29.3330   22.4280 N   0  0  0  0  0  0  0  0  0  0  0  0
  -23.4140  -28.8940   23.4050 O   0  0  0  0  0  0  0  0  0  0  0  0
  -20.9430  -29.8830   21.7290 H   0  0  0  0  0  0  0  0  0  0  0  0
  -18.0460  -28.1010   22.8850 C   0  0  0  0  0  0  0  0  0  0  0  0
  -20.5980  -28.3930   23.1920 C   0  0  0  0  0  3  0  0  0  0  0  0
  -20.7240  -26.9580   22.6280 C   0  0  0  0  0  2  0  0  0  0  0  0
  -19.6410  -26.6180   21.5980 C   0  0  0  0  0  2  0  0  0  0  0  0
  -18.2480  -26.7510   22.2200 C   0  0  0  0  0  2  0  0  0  0  0  0
  -19.1500  -28.8800   23.3280 C   0  0  0  0  0  0  0  0  0  0  0  0
  -18.9070  -30.1420   23.9110 C   0  0  0  0  0  3  0  0  0  0  0  0
  -17.5940  -30.6270   24.0580 C   0  0  0  0  0  3  0  0  0  0  0  0
  -16.5050  -29.8470   23.6310 C   0  0  0  0  0  3  0  0  0  0  0  0
  -16.7320  -28.5870   23.0500 C   0  0  0  0  0  3  0  0  0  0  0  0
  -25.9240  -32.5240   23.8880 C   0  0  0  0  0  3  0  0  0  0  0  0
  -25.6210  -33.9250   24.2250 N   0  0  0  0  0  0  0  0  0  0  0  0
  -25.9330  -34.9800   23.4610 C   0  0  0  0  0  0  0  0  0  0  0  0
  -26.5730  -34.8780   22.4110 O   0  0  0  0  0  0  0  0  0  0  0  0
  -25.0510  -34.0780   25.0430 H   0  0  0  0  0  0  0  0  0  0  0  0
  -24.1840  -36.7700   23.1820 C   0  0  0  0  0  1  0  0  0  0  0  0
  -25.4620  -36.3700   23.9370 C   0  0  0  0  0  3  0  0  0  0  0  0
  -27.6260  -37.2720   24.6710 C   0  0  0  0  0  1  0  0  0  0  0  0
  -26.4850  -37.4270   23.7730 N   0  0  0  0  0  0  0  0  0  0  0  0
  -26.0810  -38.3470   23.9270 H   0  0  0  0  0  0  0  0  0  0  0  0
  -26.4260  -31.7480   25.1680 C   0  0  1  0  0  0  0  0  0  0  0  0
  -25.3260  -31.5190   26.2300 C   0  0  0  0  0  1  0  0  0  0  0  0
  -27.0020  -30.3650   24.7850 C   0  0  0  0  0  1  0  0  0  0  0  0
  -27.5790  -32.5330   25.8370 C   0  0  0  0  0  1  0  0  0  0  0  0
  1  6  1  0
  1 50  1  6
  1 47  1  0
  3  6  1  0
  4  2  2  0
  5  3  2  0
  5  4  1  0
  6  2  1  0
  7  4  1  0
  7 17  1  0
  8 17  1  0
  9 14  1  0
 10 11  1  0
 10  9  1  0
 12 11  1  0
 12 21  1  0
 12 13  1  0
 14  8  1  0
 14 13  1  0
 15  8  2  0
 17 16  1  0
 18 19  2  0
 19 38  1  0
 20 19  1  0
 20 23  1  0
 21 22  1  0
 21 18  1  0
 22 20  2  0
 23 24  1  0
 24 25  2  0
 26 29  1  0
 26 25  1  0
 27 26  2  0
 28 27  1  0
 28 23  2  0
 29 30  1  0
 30 31  1  0
 31 32  2  0
 33 32  1  0
 33 37  1  0
 34 33  2  0
 35 30  2  0
 35 34  1  0
 36 35  1  0
 38 39  1  0
 39 42  1  0
 39 41  1  0
 40 38  2  0
 43 18  1  0
 43 44  1  0
 45 43  1  0
 46 47  1  0
 48 49  1  0
 49  1  1  0
 50 51  1  0
 52 63  2  0
 53 51  1  0
 53 58  1  0
 54 62  1  0
 54 64  1  0
 55 61  1  0
 55 57  1  0
 56 62  1  0
 57 56  1  0
 58 57  2  0
 59 53  2  0
 60 59  1  0
 60 55  2  0
 61 54  1  0
 62 52  1  0
 64 66  2  0
 65 64  1  0
 67 65  1  0
 68 77  2  0
 68 73  1  0
 69 65  1  0
 69 73  1  0
 70 69  1  0
 71 72  1  0
 71 70  1  0
 72 68  1  0
 73 74  2  0
 74 75  1  0
 76 75  2  0
 77 76  1  0
 78 52  1  0
 78 79  1  0
 78 88  1  0
 79 82  1  0
 80 84  1  0
 80 79  1  0
 81 80  2  0
 84 83  1  0
 86 87  1  0
 86 84  1  0
 86 85  1  0
 88 91  1  1
 88 89  1  0
 90 88  1  0
M  ISO  4   8 100  17 100  50 101  51 101
M  END
>  <TORSDO>  (10) 
F 21

>  <SCORE>  (10) 
-13.843

>  <name>  (10) 
9

>  <ligand_id>  (10) 
9

>  <original_smiles>  (10) 
[H]c1c([H])c([H])c2c(c1[H])C([H])([H])C([H])([H])C([H])([H])C2([H])N([H])C(=O)C1([H])N(C(=O)C([H])(N([H])C(=O)C([H])(N([H])C([H])([H])[H])C([H])([H])[H])C(C([H])([H])[H])(C([H])([H])[H])C([H])([H])[H])C([H])([H])c2c([H])c(OC([H])([H])C(n3c([H])nc(C([H])([H])N(C(=O)N4C([H])([H])C([H])([H])C([H])([H])C([H])(n5nc(-c6c([H])c([H])c(Oc7c([H])c([H])c(F)c([H])c7F)c([H])c6[H])c(C(=O)N([H])[H])c5N([H])[H])C4([H])[H])C([H])([H])[H])c3[H])(C([H])([H])C([H])([H])[H])C([H])([H])C([H])([H])[H])c([H])c([H])c2C1([H])[H]

>  <smiles>  (10) 
[H]c1c([H])c([H])c2c(c1[H])C([H])([H])C([H])([H])C([H])([H])C2([H])N([H])C(=O)C1([H])N(C(=O)C([H])(N([H])C(=O)C([H])(N([H])C([H])([H])[H])C([H])([H])[H])C(C([H])([H])[H])(C([H])([H])[H])C([H])([H])[H])C([H])([H])c2c([H])c(OC([H])([H])C(n3c([H])nc(C([H])([H])N(C(=O)N4C([H])([H])C([H])([H])C([H])([H])C([H])(n5nc(-c6c([H])c([H])c(Oc7c([H])c([H])c(F)c([H])c7F)c([H])c6[H])c(C(=O)N([H])[H])c5N([H])[H])C4([H])[H])C([H])([H])[H])c3[H])(C([H])([H])C([H])([H])[H])C([H])([H])C([H])([H])[H])c([H])c([H])c2C1([H])[H]

$$$$
10:0:0
     RDKit          3D

 89 97  0  0  1  0  0  0  0  0999 V2000
  -30.4540  -19.6920   19.3190 C   0  0  0  0  0  3  0  0  0  0  0  0
  -29.8370  -19.0120   20.4170 C   0  0  0  0  0  0  0  0  0  0  0  0
  -30.1380  -20.9760   19.2580 N   0  0  0  0  0  0  0  0  0  0  0  0
  -29.1550  -19.9820   21.0540 N   0  0  0  0  0  0  0  0  0  0  0  0
  -29.3440  -21.1810   20.3380 N   0  0  0  0  0  0  0  0  0  0  0  0
  -30.1110  -17.5190   20.9630 C   0  0  0  0  0  2  0  0  0  0  0  0
  -30.6450  -14.9820   20.4450 C   0  0  0  0  0  0  0  0  0  0  0  0
  -30.5120  -12.6250   19.6040 C   0  0  0  0  0  2  0  0  0  0  0  0
  -29.6200  -12.5450   18.3490 C   0  0  0  0  0  2  0  0  0  0  0  0
  -28.1310  -12.3920   18.7350 C   0  0  0  0  0  2  0  0  0  0  0  0
  -27.6820  -13.3210   19.8960 C   0  0  0  0  0  3  0  0  0  0  0  0
  -28.7200  -13.3900   21.0340 C   0  0  0  0  0  2  0  0  0  0  0  0
  -30.0090  -13.7500   20.4230 N   0  0  0  0  0  0  0  0  0  0  0  0
  -31.8780  -15.0020   20.4290 O   0  0  0  0  0  0  0  0  0  0  0  0
  -29.9210  -16.1770   20.2100 N   0  0  0  0  0  0  0  0  0  0  0  0
  -25.2780  -13.9090   20.5410 C   0  0  0  0  0  0  0  0  0  0  0  0
  -24.2040  -13.1340   20.8750 C   0  0  0  0  0  0  0  0  0  0  0  0
  -24.6820  -11.7860   20.8880 C   0  0  0  0  0  0  0  0  0  0  0  0
  -26.3360  -13.0300   20.3610 N   0  0  0  0  0  0  0  0  0  0  0  0
  -25.9830  -11.7510   20.6340 N   0  0  0  0  0  0  0  0  0  0  0  0
  -23.9620  -10.5220   21.0710 C   0  0  0  0  0  0  0  0  0  0  0  0
  -24.3740   -9.5710   22.0300 C   0  0  0  0  0  3  0  0  0  0  0  0
  -23.6540   -8.3690   22.1980 C   0  0  0  0  0  3  0  0  0  0  0  0
  -22.5090   -8.1130   21.4070 C   0  0  0  0  0  0  0  0  0  0  0  0
  -22.1180   -9.0520   20.4360 C   0  0  0  0  0  3  0  0  0  0  0  0
  -22.8390  -10.2450   20.2650 C   0  0  0  0  0  3  0  0  0  0  0  0
  -21.7620   -6.9630   21.4870 O   0  0  0  0  0  0  0  0  0  0  0  0
  -21.6890   -6.2310   22.6450 C   0  0  0  0  0  0  0  0  0  0  0  0
  -21.2270   -6.7960   23.8540 C   0  0  0  0  0  3  0  0  0  0  0  0
  -21.0980   -5.9910   25.0030 C   0  0  0  0  0  3  0  0  0  0  0  0
  -21.4240   -4.6220   24.9460 C   0  0  0  0  0  0  0  0  0  0  0  0
  -21.8820   -4.0580   23.7420 C   0  0  0  0  0  3  0  0  0  0  0  0
  -22.0110   -4.8600   22.5940 C   0  0  0  0  0  0  0  0  0  0  0  0
  -22.4290   -4.3080   21.4320 F   0  0  0  0  0  0  0  0  0  0  0  0
  -21.2940   -3.8460   26.0460 F   0  0  0  0  0  0  0  0  0  0  0  0
  -22.7940  -13.6040   21.0750 C   0  0  0  0  0  0  0  0  0  0  0  0
  -22.0330  -12.9210   21.9220 N   0  0  0  0  0  0  0  0  0  0  0  0
  -22.3730  -14.6170   20.5150 O   0  0  0  0  0  0  0  0  0  0  0  0
  -22.3850  -12.1070   22.4050 H   0  0  0  0  0  0  0  0  0  0  0  0
  -21.0860  -13.2260   22.1020 H   0  0  0  0  0  0  0  0  0  0  0  0
  -25.4410  -15.2790   20.3480 N   0  0  0  0  0  0  0  0  0  0  0  0
  -24.6760  -15.9390   20.4270 H   0  0  0  0  0  0  0  0  0  0  0  0
  -26.3120  -15.7160   20.0850 H   0  0  0  0  0  0  0  0  0  0  0  0
  -29.8230  -17.0720   17.7990 C   0  0  0  0  0  1  0  0  0  0  0  0
  -29.1500  -16.3000   18.9500 C   0  0  0  0  0  2  0  0  0  0  0  0
  -29.0410  -22.6020   20.8470 C   0  0  0  0  0  2  0  0  0  0  0  0
  -28.1520  -23.6850   20.0160 C   0  0  0  0  0  2  0  0  0  0  0  0
  -28.5990  -25.2090   19.6200 C   0  0  0  0  0  2  0  0  0  0  0  0
  -28.3840  -26.5130   20.3380 O   0  0  0  0  0  0  0  0  0  0  0  0
  -24.6010  -31.9400   23.2700 C   0  0  0  0  0  0  0  0  0  0  0  0
  -27.2570  -27.3610   20.2190 C   0  0  0  0  0  0  0  0  0  0  0  0
  -23.4120  -30.5280   21.6300 C   0  0  0  0  0  3  0  0  0  0  0  0
  -24.8780  -28.9790   20.1990 C   0  0  0  0  0  0  0  0  0  0  0  0
  -25.9470  -30.8610   21.4450 C   0  0  0  0  0  2  0  0  0  0  0  0
  -26.0390  -29.4760   20.8020 C   0  0  0  0  0  0  0  0  0  0  0  0
  -27.2240  -28.6730   20.8060 C   0  0  0  0  0  3  0  0  0  0  0  0
  -26.0750  -26.9300   19.5830 C   0  0  0  0  0  3  0  0  0  0  0  0
  -24.9000  -27.7190   19.5730 C   0  0  0  0  0  3  0  0  0  0  0  0
  -23.6270  -29.8380   20.2550 C   0  0  0  0  0  2  0  0  0  0  0  0
  -24.6730  -31.1280   22.1720 N   0  0  0  0  0  0  0  0  0  0  0  0
  -23.5140  -32.2090   23.8040 O   0  0  0  0  0  0  0  0  0  0  0  0
  -22.7530  -29.5140   22.5980 C   0  0  0  0  0  0  0  0  0  0  0  0
  -21.4270  -29.3270   22.4680 N   0  0  0  0  0  0  0  0  0  0  0  0
  -23.4330  -28.8950   23.4200 O   0  0  0  0  0  0  0  0  0  0  0  0
  -20.9390  -29.8770   21.7730 H   0  0  0  0  0  0  0  0  0  0  0  0
  -18.0590  -28.0920   22.9510 C   0  0  0  0  0  0  0  0  0  0  0  0
  -20.6140  -28.3830   23.2340 C   0  0  0  0  0  3  0  0  0  0  0  0
  -20.7360  -26.9520   22.6640 C   0  0  0  0  0  2  0  0  0  0  0  0
  -19.6430  -26.6140   21.6430 C   0  0  0  0  0  2  0  0  0  0  0  0
  -18.2570  -26.7440   22.2800 C   0  0  0  0  0  2  0  0  0  0  0  0
  -19.1670  -28.8690   23.3840 C   0  0  0  0  0  0  0  0  0  0  0  0
  -18.9300  -30.1300   23.9730 C   0  0  0  0  0  3  0  0  0  0  0  0
  -17.6180  -30.6160   24.1310 C   0  0  0  0  0  3  0  0  0  0  0  0
  -16.5250  -29.8370   23.7140 C   0  0  0  0  0  3  0  0  0  0  0  0
  -16.7470  -28.5770   23.1300 C   0  0  0  0  0  3  0  0  0  0  0  0
  -25.8760  -32.5850   23.8960 C   0  0  0  0  0  3  0  0  0  0  0  0
  -25.5580  -33.9840   24.2180 N   0  0  0  0  0  0  0  0  0  0  0  0
  -25.8960  -35.0360   23.4610 C   0  0  0  0  0  0  0  0  0  0  0  0
  -26.5750  -34.9300   22.4360 O   0  0  0  0  0  0  0  0  0  0  0  0
  -24.9470  -34.1390   25.0070 H   0  0  0  0  0  0  0  0  0  0  0  0
  -24.1660  -36.8260   23.0900 C   0  0  0  0  0  1  0  0  0  0  0  0
  -25.4030  -36.4250   23.9090 C   0  0  0  0  0  3  0  0  0  0  0  0
  -27.5300  -37.3170   24.7500 C   0  0  0  0  0  1  0  0  0  0  0  0
  -26.4330  -37.4820   23.7990 N   0  0  0  0  0  0  0  0  0  0  0  0
  -26.0250  -38.4000   23.9440 H   0  0  0  0  0  0  0  0  0  0  0  0
  -26.3890  -31.8250   25.1830 C   0  0  1  0  0  0  0  0  0  0  0  0
  -25.2890  -31.5970   26.2480 C   0  0  0  0  0  1  0  0  0  0  0  0
  -26.9760  -30.4450   24.8060 C   0  0  0  0  0  1  0  0  0  0  0  0
  -27.5330  -32.6280   25.8450 C   0  0  0  0  0  1  0  0  0  0  0  0
  1  2  1  0
  2  6  1  0
  2  4  2  0
  3  1  2  0
  3  5  1  0
  5 46  1  0
  5  4  1  0
  8 13  1  0
  9 10  1  0
  9  8  1  0
 11 10  1  0
 11 19  1  0
 11 12  1  0
 13  7  1  0
 13 12  1  0
 14  7  2  0
 15  7  1  0
 15  6  1  0
 16 17  2  0
 17 18  1  0
 17 36  1  0
 18 21  1  0
 19 16  1  0
 19 20  1  0
 20 18  2  0
 21 22  1  0
 22 23  2  0
 24 27  1  0
 24 23  1  0
 25 24  2  0
 26 25  1  0
 26 21  2  0
 27 28  1  0
 28 29  1  0
 29 30  2  0
 31 30  1  0
 31 35  1  0
 32 31  2  0
 33 28  2  0
 33 32  1  0
 34 33  1  0
 36 37  1  0
 37 40  1  0
 37 39  1  0
 38 36  2  0
 41 42  1  0
 41 16  1  0
 43 41  1  0
 44 45  1  0
 45 15  1  0
 47 46  1  0
 48 47  1  0
 48 49  1  0
 50 61  2  0
 51 49  1  0
 51 56  1  0
 52 60  1  0
 52 62  1  0
 53 59  1  0
 53 55  1  0
 54 60  1  0
 55 56  2  0
 55 54  1  0
 57 51  2  0
 58 57  1  0
 58 53  2  0
 59 52  1  0
 60 50  1  0
 62 64  2  0
 63 62  1  0
 65 63  1  0
 66 75  2  0
 66 71  1  0
 67 63  1  0
 67 71  1  0
 68 67  1  0
 69 70  1  0
 69 68  1  0
 70 66  1  0
 71 72  2  0
 72 73  1  0
 74 73  2  0
 75 74  1  0
 76 50  1  0
 76 77  1  0
 76 86  1  0
 77 80  1  0
 78 82  1  0
 78 77  1  0
 79 78  2  0
 82 81  1  0
 84 82  1  0
 84 85  1  0
 84 83  1  0
 86 89  1  1
 86 87  1  0
 88 86  1  0
M  ISO  4   7 100  15 100  48 101  49 101
M  END
>  <TORSDO>  (11) 
F 21

>  <SCORE>  (11) 
-12.720

>  <name>  (11) 
10

>  <ligand_id>  (11) 
10

>  <original_smiles>  (11) 
[H]c1nn(C([H])([H])C([H])([H])C([H])([H])Oc2c([H])c([H])c3c(c2[H])C([H])([H])N(C(=O)C([H])(N([H])C(=O)C([H])(N([H])C([H])([H])[H])C([H])([H])[H])C(C([H])([H])[H])(C([H])([H])[H])C([H])([H])[H])C([H])(C(=O)N([H])C2([H])c4c([H])c([H])c([H])c([H])c4C([H])([H])C([H])([H])C2([H])[H])C3([H])[H])nc1C([H])([H])N(C(=O)N1C([H])([H])C([H])([H])C([H])([H])C([H])(n2nc(-c3c([H])c([H])c(Oc4c([H])c([H])c(F)c([H])c4F)c([H])c3[H])c(C(=O)N([H])[H])c2N([H])[H])C1([H])[H])C([H])([H])C([H])([H])[H]

>  <smiles>  (11) 
[H]c1nn(C([H])([H])C([H])([H])C([H])([H])Oc2c([H])c([H])c3c(c2[H])C([H])([H])N(C(=O)C([H])(N([H])C(=O)C([H])(N([H])C([H])([H])[H])C([H])([H])[H])C(C([H])([H])[H])(C([H])([H])[H])C([H])([H])[H])C([H])(C(=O)N([H])C2([H])c4c([H])c([H])c([H])c([H])c4C([H])([H])C([H])([H])C2([H])[H])C3([H])[H])nc1C([H])([H])N(C(=O)N1C([H])([H])C([H])([H])C([H])([H])C([H])(n2nc(-c3c([H])c([H])c(Oc4c([H])c([H])c(F)c([H])c4F)c([H])c3[H])c(C(=O)N([H])[H])c2N([H])[H])C1([H])[H])C([H])([H])C([H])([H])[H]

$$$$
11:0:0
     RDKit          3D

 94102  0  0  1  0  0  0  0  0999 V2000
  -30.9080  -21.6930   18.5330 C   0  0  0  0  0  2  0  0  0  0  0  0
  -31.4430  -20.4060   20.6820 C   0  0  0  0  0  3  0  0  0  0  0  0
  -30.8810  -19.1400   18.7010 C   0  0  0  0  0  3  0  0  0  0  0  0
  -31.0500  -20.3930   19.3260 C   0  0  0  0  0  0  0  0  0  0  0  0
  -31.6430  -19.1830   21.3490 C   0  0  0  0  0  0  0  0  0  0  0  0
  -31.4530  -17.9740   20.6350 C   0  0  0  0  0  0  0  0  0  0  0  0
  -31.0740  -17.9620   19.3320 N   0  0  0  0  0  0  0  0  0  0  0  0
  -32.1140  -19.1970   23.0120 Cl  0  0  0  0  0  0  0  0  0  0  0  0
  -31.6780  -16.6170   21.3190 C   0  0  0  0  0  2  0  0  0  0  0  0
  -31.0240  -14.5790   20.1070 C   0  0  0  0  0  0  0  0  0  0  0  0
  -30.6540  -12.3790   19.0250 C   0  0  0  0  0  2  0  0  0  0  0  0
  -29.6930  -12.5070   17.8260 C   0  0  0  0  0  2  0  0  0  0  0  0
  -28.2190  -12.4140   18.2730 C   0  0  0  0  0  2  0  0  0  0  0  0
  -27.9140  -13.2980   19.5090 C   0  0  0  0  0  3  0  0  0  0  0  0
  -28.9860  -13.0760   20.5990 C   0  0  0  0  0  2  0  0  0  0  0  0
  -30.3000  -13.4150   20.0240 N   0  0  0  0  0  0  0  0  0  0  0  0
  -32.0650  -14.7010   19.4500 O   0  0  0  0  0  0  0  0  0  0  0  0
  -29.3570  -15.9430   21.4930 C   0  0  0  0  0  1  0  0  0  0  0  0
  -30.6900  -15.5600   21.0020 N   0  0  0  0  0  0  0  0  0  0  0  0
  -25.5560  -13.9720   20.2940 C   0  0  0  0  0  0  0  0  0  0  0  0
  -24.4760  -13.2290   20.6910 C   0  0  0  0  0  0  0  0  0  0  0  0
  -24.8960  -11.8640   20.6320 C   0  0  0  0  0  0  0  0  0  0  0  0
  -26.5670  -13.0620   20.0230 N   0  0  0  0  0  0  0  0  0  0  0  0
  -26.1720  -11.7880   20.2770 N   0  0  0  0  0  0  0  0  0  0  0  0
  -24.1390  -10.6240   20.8390 C   0  0  0  0  0  0  0  0  0  0  0  0
  -24.5040   -9.6960   21.8380 C   0  0  0  0  0  3  0  0  0  0  0  0
  -23.7530   -8.5170   22.0300 C   0  0  0  0  0  3  0  0  0  0  0  0
  -22.6230   -8.2580   21.2200 C   0  0  0  0  0  0  0  0  0  0  0  0
  -22.2780   -9.1730   20.2110 C   0  0  0  0  0  3  0  0  0  0  0  0
  -23.0290  -10.3430   20.0180 C   0  0  0  0  0  3  0  0  0  0  0  0
  -21.8480   -7.1260   21.3160 O   0  0  0  0  0  0  0  0  0  0  0  0
  -21.6590   -6.4810   22.5120 C   0  0  0  0  0  0  0  0  0  0  0  0
  -21.0290   -7.1110   23.6080 C   0  0  0  0  0  3  0  0  0  0  0  0
  -20.7930   -6.3880   24.7940 C   0  0  0  0  0  3  0  0  0  0  0  0
  -21.1760   -5.0370   24.8830 C   0  0  0  0  0  0  0  0  0  0  0  0
  -21.7960   -4.4060   23.7910 C   0  0  0  0  0  3  0  0  0  0  0  0
  -22.0350   -5.1260   22.6070 C   0  0  0  0  0  0  0  0  0  0  0  0
  -22.6140   -4.5090   21.5500 F   0  0  0  0  0  0  0  0  0  0  0  0
  -20.9410   -4.3400   26.0200 F   0  0  0  0  0  0  0  0  0  0  0  0
  -23.1060  -13.7450   21.0150 C   0  0  0  0  0  0  0  0  0  0  0  0
  -22.3920  -13.0720   21.9110 N   0  0  0  0  0  0  0  0  0  0  0  0
  -22.6740  -14.7800   20.5060 O   0  0  0  0  0  0  0  0  0  0  0  0
  -22.7530  -12.2370   22.3480 H   0  0  0  0  0  0  0  0  0  0  0  0
  -21.4710  -13.4010   22.1650 H   0  0  0  0  0  0  0  0  0  0  0  0
  -25.7530  -15.3400   20.1250 N   0  0  0  0  0  0  0  0  0  0  0  0
  -25.0070  -16.0110   20.2750 H   0  0  0  0  0  0  0  0  0  0  0  0
  -26.6030  -15.7680   19.7800 H   0  0  0  0  0  0  0  0  0  0  0  0
  -28.4850  -22.0400   18.9300 C   0  0  0  0  0  1  0  0  0  0  0  0
  -29.8470  -22.6260   19.0130 N   0  0  2  0  0  4  0  0  0  0  0  0
  -30.0380  -22.7950   19.9900 H   0  0  0  0  0  0  0  0  0  0  0  0
  -29.9490  -23.9590   18.3470 C   0  0  0  0  0  2  0  0  0  0  0  0
  -29.7070  -25.1630   19.2910 C   0  0  0  0  0  2  0  0  0  0  0  0
  -28.2520  -25.6750   19.3220 C   0  0  0  0  0  2  0  0  0  0  0  0
  -28.2060  -26.9240   20.0000 O   0  0  0  0  0  0  0  0  0  0  0  0
  -24.5070  -31.9460   23.3600 C   0  0  0  0  0  0  0  0  0  0  0  0
  -27.0020  -27.5940   20.0560 C   0  0  0  0  0  0  0  0  0  0  0  0
  -23.2280  -30.6160   21.7130 C   0  0  0  0  0  3  0  0  0  0  0  0
  -24.6120  -29.1030   20.1960 C   0  0  0  0  0  0  0  0  0  0  0  0
  -25.7490  -30.9470   21.4500 C   0  0  0  0  0  2  0  0  0  0  0  0
  -25.7900  -29.5990   20.7660 C   0  0  0  0  0  0  0  0  0  0  0  0
  -26.9830  -28.8510   20.6940 C   0  0  0  0  0  3  0  0  0  0  0  0
  -25.7980  -27.0970   19.5000 C   0  0  0  0  0  3  0  0  0  0  0  0
  -24.6110  -27.8490   19.5640 C   0  0  0  0  0  3  0  0  0  0  0  0
  -23.3810  -29.9730   20.3060 C   0  0  0  0  0  2  0  0  0  0  0  0
  -24.5150  -31.1850   22.2310 N   0  0  0  0  0  0  0  0  0  0  0  0
  -23.4500  -32.2160   23.9470 O   0  0  0  0  0  0  0  0  0  0  0  0
  -22.5950  -29.5740   22.6620 C   0  0  0  0  0  0  0  0  0  0  0  0
  -21.2780  -29.3610   22.5190 N   0  0  0  0  0  0  0  0  0  0  0  0
  -23.2880  -28.9610   23.4800 O   0  0  0  0  0  0  0  0  0  0  0  0
  -20.7850  -29.9120   21.8320 H   0  0  0  0  0  0  0  0  0  0  0  0
  -17.9290  -28.0700   22.9480 C   0  0  0  0  0  0  0  0  0  0  0  0
  -20.4730  -28.3990   23.2710 C   0  0  0  0  0  3  0  0  0  0  0  0
  -20.6270  -26.9730   22.6990 C   0  0  0  0  0  2  0  0  0  0  0  0
  -19.5540  -26.6180   21.6640 C   0  0  0  0  0  2  0  0  0  0  0  0
  -18.1570  -26.7240   22.2790 C   0  0  0  0  0  2  0  0  0  0  0  0
  -19.0170  -28.8630   23.3990 C   0  0  0  0  0  0  0  0  0  0  0  0
  -18.7530  -30.1210   23.9830 C   0  0  0  0  0  3  0  0  0  0  0  0
  -17.4320  -30.5850   24.1240 C   0  0  0  0  0  3  0  0  0  0  0  0
  -16.3570  -29.7900   23.6890 C   0  0  0  0  0  3  0  0  0  0  0  0
  -16.6070  -28.5340   23.1070 C   0  0  0  0  0  3  0  0  0  0  0  0
  -25.8250  -32.5370   23.9590 C   0  0  0  0  0  3  0  0  0  0  0  0
  -25.5590  -33.9340   24.3200 N   0  0  0  0  0  0  0  0  0  0  0  0
  -25.9260  -34.9930   23.5840 C   0  0  0  0  0  0  0  0  0  0  0  0
  -26.6040  -34.8910   22.5570 O   0  0  0  0  0  0  0  0  0  0  0  0
  -24.9640  -34.0860   25.1220 H   0  0  0  0  0  0  0  0  0  0  0  0
  -24.2900  -36.8690   23.2180 C   0  0  0  0  0  1  0  0  0  0  0  0
  -25.4740  -36.3840   24.0690 C   0  0  0  0  0  3  0  0  0  0  0  0
  -27.5930  -37.1600   25.0380 C   0  0  0  0  0  1  0  0  0  0  0  0
  -26.5530  -37.3960   24.0390 N   0  0  0  0  0  0  0  0  0  0  0  0
  -26.1780  -38.3280   24.1880 H   0  0  0  0  0  0  0  0  0  0  0  0
  -26.3540  -31.7320   25.2100 C   0  0  1  0  0  0  0  0  0  0  0  0
  -25.2810  -31.4890   26.2960 C   0  0  0  0  0  1  0  0  0  0  0  0
  -26.9140  -30.3550   24.7800 C   0  0  0  0  0  1  0  0  0  0  0  0
  -27.5250  -32.5000   25.8680 C   0  0  0  0  0  1  0  0  0  0  0  0
  1 49  1  0
  1  4  1  0
  2  5  1  0
  3  4  1  0
  3  7  2  0
  4  2  2  0
  5  8  1  0
  6  9  1  0
  6  5  2  0
  7  6  1  0
 10 19  1  0
 11 16  1  0
 12 13  1  0
 12 11  1  0
 14 13  1  0
 14 23  1  0
 14 15  1  0
 16 10  1  0
 16 15  1  0
 17 10  2  0
 19  9  1  0
 19 18  1  0
 20 21  2  0
 21 40  1  0
 22 21  1  0
 22 25  1  0
 23 24  1  0
 23 20  1  0
 24 22  2  0
 25 26  1  0
 26 27  2  0
 28 31  1  0
 28 27  1  0
 29 28  2  0
 30 29  1  0
 30 25  2  0
 31 32  1  0
 32 37  2  0
 32 33  1  0
 33 34  2  0
 34 35  1  0
 35 39  1  0
 36 35  2  0
 37 36  1  0
 38 37  1  0
 40 41  1  0
 41 44  1  0
 41 43  1  0
 42 40  2  0
 45 46  1  0
 45 20  1  0
 47 45  1  0
 48 49  1  0
 49 50  1  1
 51 49  1  0
 51 52  1  0
 52 53  1  0
 53 54  1  0
 54 56  1  0
 55 66  2  0
 56 61  1  0
 57 65  1  0
 57 67  1  0
 58 64  1  0
 58 60  1  0
 59 65  1  0
 60 59  1  0
 61 60  2  0
 62 63  1  0
 62 56  2  0
 63 58  2  0
 64 57  1  0
 65 55  1  0
 67 69  2  0
 68 67  1  0
 70 68  1  0
 71 80  2  0
 71 76  1  0
 72 68  1  0
 72 76  1  0
 73 72  1  0
 74 75  1  0
 74 73  1  0
 75 71  1  0
 76 77  2  0
 77 78  1  0
 79 78  2  0
 80 79  1  0
 81 55  1  0
 81 82  1  0
 81 91  1  0
 82 85  1  0
 83 87  1  0
 83 82  1  0
 84 83  2  0
 87 86  1  0
 89 87  1  0
 89 90  1  0
 89 88  1  0
 91 94  1  1
 91 92  1  0
 93 91  1  0
M  ISO  4  10 100  19 100  53 101  54 101
M  END
>  <TORSDO>  (12) 
F 22

>  <SCORE>  (12) 
-12.233

>  <name>  (12) 
11

>  <ligand_id>  (12) 
11

>  <original_smiles>  (12) 
[H]c1nc(C([H])([H])N(C(=O)N2C([H])([H])C([H])([H])C([H])([H])C([H])(n3nc(-c4c([H])c([H])c(Oc5c([H])c([H])c(F)c([H])c5F)c([H])c4[H])c(C(=O)N([H])[H])c3N([H])[H])C2([H])[H])C([H])([H])[H])c(Cl)c([H])c1C([H])([H])[N+]([H])(C([H])([H])[H])C([H])([H])C([H])([H])C([H])([H])Oc1c([H])c([H])c2c(c1[H])C([H])([H])N(C(=O)C([H])(N([H])C(=O)C([H])(N([H])C([H])([H])[H])C([H])([H])[H])C(C([H])([H])[H])(C([H])([H])[H])C([H])([H])[H])C([H])(C(=O)N([H])C1([H])c3c([H])c([H])c([H])c([H])c3C([H])([H])C([H])([H])C1([H])[H])C2([H])[H]

>  <smiles>  (12) 
[H]c1nc(C([H])([H])N(C(=O)N2C([H])([H])C([H])([H])C([H])([H])C([H])(n3nc(-c4c([H])c([H])c(Oc5c([H])c([H])c(F)c([H])c5F)c([H])c4[H])c(C(=O)N([H])[H])c3N([H])[H])C2([H])[H])C([H])([H])[H])c(Cl)c([H])c1C([H])([H])[N+]([H])(C([H])([H])[H])C([H])([H])C([H])([H])C([H])([H])Oc1c([H])c([H])c2c(c1[H])C([H])([H])N(C(=O)C([H])(N([H])C(=O)C([H])(N([H])C([H])([H])[H])C([H])([H])[H])C(C([H])([H])[H])(C([H])([H])[H])C([H])([H])[H])C([H])(C(=O)N([H])C1([H])c3c([H])c([H])c([H])c([H])c3C([H])([H])C([H])([H])C1([H])[H])C2([H])[H]

$$$$
12:0:0
     RDKit          3D

 90 98  0  0  1  0  0  0  0  0999 V2000
  -30.6680  -15.3630   20.1060 C   0  0  0  0  0  0  0  0  0  0  0  0
  -30.5380  -12.9030   19.1900 C   0  0  0  0  0  2  0  0  0  0  0  0
  -29.5970  -12.6740   17.9810 C   0  0  0  0  0  2  0  0  0  0  0  0
  -28.1450  -12.4520   18.4440 C   0  0  0  0  0  2  0  0  0  0  0  0
  -27.7390  -13.4440   19.5610 C   0  0  0  0  0  3  0  0  0  0  0  0
  -28.8110  -13.5870   20.6620 C   0  0  0  0  0  2  0  0  0  0  0  0
  -30.0270  -14.0830   19.9890 N   0  0  0  0  0  0  0  0  0  0  0  0
  -31.9000  -15.2400   19.9800 O   0  0  0  0  0  0  0  0  0  0  0  0
  -30.6500  -19.5060   22.3600 C   0  0  0  0  0  3  0  0  0  0  0  0
  -30.2390  -20.7740   21.8620 C   0  0  0  0  0  0  0  0  0  0  0  0
  -29.7330  -20.8800   20.5370 C   0  0  0  0  0  0  0  0  0  0  0  0
  -30.1290  -18.2250   20.4850 C   0  0  0  0  0  0  0  0  0  0  0  0
  -30.6200  -18.3180   21.7090 N   0  0  0  0  0  0  0  0  0  0  0  0
  -29.6890  -19.5150   19.9140 N   0  0  0  0  0  0  0  0  0  0  0  0
  -29.9900  -16.7130   20.0310 N   0  0  0  0  0  0  0  0  0  0  0  0
  -29.0650  -16.5660   19.6650 H   0  0  0  0  0  0  0  0  0  0  0  0
  -25.4030  -14.1040   20.3300 C   0  0  0  0  0  0  0  0  0  0  0  0
  -24.3150  -13.3770   20.7200 C   0  0  0  0  0  0  0  0  0  0  0  0
  -24.7300  -12.0090   20.7150 C   0  0  0  0  0  0  0  0  0  0  0  0
  -26.4090  -13.1850   20.0940 N   0  0  0  0  0  0  0  0  0  0  0  0
  -26.0190  -11.9190   20.3960 N   0  0  0  0  0  0  0  0  0  0  0  0
  -23.9530  -10.7810   20.9310 C   0  0  0  0  0  0  0  0  0  0  0  0
  -24.3410   -9.8200   21.8890 C   0  0  0  0  0  3  0  0  0  0  0  0
  -23.5640   -8.6600   22.0940 C   0  0  0  0  0  3  0  0  0  0  0  0
  -22.3850   -8.4520   21.3400 C   0  0  0  0  0  0  0  0  0  0  0  0
  -22.0150   -9.4010   20.3690 C   0  0  0  0  0  3  0  0  0  0  0  0
  -22.7940  -10.5520   20.1630 C   0  0  0  0  0  3  0  0  0  0  0  0
  -21.5810   -7.3440   21.4540 O   0  0  0  0  0  0  0  0  0  0  0  0
  -21.5050   -6.6250   22.6210 C   0  0  0  0  0  0  0  0  0  0  0  0
  -21.0940   -7.2190   23.8350 C   0  0  0  0  0  3  0  0  0  0  0  0
  -20.9620   -6.4300   24.9950 C   0  0  0  0  0  3  0  0  0  0  0  0
  -21.2310   -5.0480   24.9420 C   0  0  0  0  0  0  0  0  0  0  0  0
  -21.6340   -4.4550   23.7330 C   0  0  0  0  0  3  0  0  0  0  0  0
  -21.7680   -5.2410   22.5750 C   0  0  0  0  0  0  0  0  0  0  0  0
  -22.1360   -4.6610   21.4080 F   0  0  0  0  0  0  0  0  0  0  0  0
  -21.0970   -4.2880   26.0540 F   0  0  0  0  0  0  0  0  0  0  0  0
  -22.9390  -13.9140   20.9800 C   0  0  0  0  0  0  0  0  0  0  0  0
  -22.1900  -13.2800   21.8750 N   0  0  0  0  0  0  0  0  0  0  0  0
  -22.5380  -14.9360   20.4230 O   0  0  0  0  0  0  0  0  0  0  0  0
  -22.5260  -12.4560   22.3510 H   0  0  0  0  0  0  0  0  0  0  0  0
  -21.2650  -13.6250   22.0890 H   0  0  0  0  0  0  0  0  0  0  0  0
  -25.6150  -15.4650   20.1250 N   0  0  0  0  0  0  0  0  0  0  0  0
  -24.8690  -16.1440   20.2300 H   0  0  0  0  0  0  0  0  0  0  0  0
  -26.4680  -15.8700   19.7660 H   0  0  0  0  0  0  0  0  0  0  0  0
  -31.4040  -21.8820   23.8930 C   0  0  0  0  0  1  0  0  0  0  0  0
  -28.9850  -22.3840   23.3520 C   0  0  0  0  0  1  0  0  0  0  0  0
  -30.3580  -22.0050   22.7690 C   0  0  0  0  0  3  0  0  0  0  0  0
  -29.4830  -22.5290   19.8710 C   0  0  0  0  0  2  0  0  0  0  0  0
  -28.6030  -24.1050   20.3260 C   0  0  0  0  0  2  0  0  0  0  0  0
  -28.6970  -25.7640   20.0200 O   0  0  0  0  0  0  0  0  0  0  0  0
  -24.7270  -31.5460   23.0460 C   0  0  0  0  0  0  0  0  0  0  0  0
  -27.6300  -26.8320   20.0170 C   0  0  0  0  0  0  0  0  0  0  0  0
  -23.6750  -30.1540   21.3110 C   0  0  0  0  0  3  0  0  0  0  0  0
  -25.2600  -28.6510   19.9140 C   0  0  0  0  0  0  0  0  0  0  0  0
  -26.2380  -30.4680   21.2970 C   0  0  0  0  0  2  0  0  0  0  0  0
  -26.4030  -29.0770   20.6030 C   0  0  0  0  0  0  0  0  0  0  0  0
  -27.5840  -28.1950   20.6200 C   0  0  0  0  0  3  0  0  0  0  0  0
  -26.4490  -26.5700   19.2880 C   0  0  0  0  0  3  0  0  0  0  0  0
  -25.3120  -27.4220   19.2360 C   0  0  0  0  0  3  0  0  0  0  0  0
  -24.0020  -29.5240   19.9290 C   0  0  0  0  0  2  0  0  0  0  0  0
  -24.9000  -30.7510   21.9400 N   0  0  0  0  0  0  0  0  0  0  0  0
  -23.6020  -31.7730   23.5220 O   0  0  0  0  0  0  0  0  0  0  0  0
  -22.9800  -29.1010   22.2130 C   0  0  0  0  0  0  0  0  0  0  0  0
  -21.6580  -28.9090   22.0460 N   0  0  0  0  0  0  0  0  0  0  0  0
  -23.6390  -28.4570   23.0330 O   0  0  0  0  0  0  0  0  0  0  0  0
  -21.1780  -29.4810   21.3640 H   0  0  0  0  0  0  0  0  0  0  0  0
  -18.2880  -27.6240   22.4550 C   0  0  0  0  0  0  0  0  0  0  0  0
  -20.8410  -27.9150   22.7510 C   0  0  0  0  0  3  0  0  0  0  0  0
  -20.9690  -26.5220   22.0920 C   0  0  0  0  0  2  0  0  0  0  0  0
  -19.8790  -26.2450   21.0520 C   0  0  0  0  0  2  0  0  0  0  0  0
  -18.4910  -26.3250   21.6950 C   0  0  0  0  0  2  0  0  0  0  0  0
  -19.3910  -28.3790   22.9380 C   0  0  0  0  0  0  0  0  0  0  0  0
  -19.1440  -29.5940   23.6120 C   0  0  0  0  0  3  0  0  0  0  0  0
  -17.8290  -30.0550   23.8090 C   0  0  0  0  0  3  0  0  0  0  0  0
  -16.7410  -29.2990   23.3390 C   0  0  0  0  0  3  0  0  0  0  0  0
  -16.9710  -28.0860   22.6670 C   0  0  0  0  0  3  0  0  0  0  0  0
  -25.9350  -32.2260   23.7590 C   0  0  0  0  0  3  0  0  0  0  0  0
  -25.5250  -33.5880   24.1500 N   0  0  0  0  0  0  0  0  0  0  0  0
  -25.8210  -34.7050   23.4710 C   0  0  0  0  0  0  0  0  0  0  0  0
  -26.5280  -34.7010   22.4600 O   0  0  0  0  0  0  0  0  0  0  0  0
  -24.8960  -33.6610   24.9360 H   0  0  0  0  0  0  0  0  0  0  0  0
  -23.9970  -36.4190   23.1810 C   0  0  0  0  0  1  0  0  0  0  0  0
  -25.2460  -36.0390   23.9940 C   0  0  0  0  0  3  0  0  0  0  0  0
  -27.3030  -37.0050   24.9240 C   0  0  0  0  0  1  0  0  0  0  0  0
  -26.2150  -37.1550   23.9610 N   0  0  0  0  0  0  0  0  0  0  0  0
  -25.7520  -38.0410   24.1410 H   0  0  0  0  0  0  0  0  0  0  0  0
  -26.4330  -31.4270   25.0270 C   0  0  1  0  0  0  0  0  0  0  0  0
  -25.3090  -31.0960   26.0380 C   0  0  0  0  0  1  0  0  0  0  0  0
  -27.0960  -30.0920   24.6180 C   0  0  0  0  0  1  0  0  0  0  0  0
  -27.5150  -32.2460   25.7700 C   0  0  0  0  0  1  0  0  0  0  0  0
  2  7  1  0
  3  4  1  0
  3  2  1  0
  5  4  1  0
  5 20  1  0
  5  6  1  0
  7  1  1  0
  7  6  1  0
  8  1  2  0
 10  9  2  0
 10 47  1  0
 11 10  1  0
 12 13  2  0
 13  9  1  0
 14 12  1  0
 14 11  2  0
 15  1  1  0
 15 12  1  0
 16 15  1  0
 17 18  2  0
 18 37  1  0
 19 18  1  0
 19 22  1  0
 20 17  1  0
 20 21  1  0
 21 19  2  0
 22 23  1  0
 23 24  2  0
 25 28  1  0
 25 24  1  0
 26 25  2  0
 27 26  1  0
 27 22  2  0
 28 29  1  0
 29 30  1  0
 30 31  2  0
 32 31  1  0
 32 36  1  0
 33 32  2  0
 34 29  2  0
 34 33  1  0
 35 34  1  0
 37 38  1  0
 38 41  1  0
 38 40  1  0
 39 37  2  0
 42 43  1  0
 42 17  1  0
 44 42  1  0
 47 46  1  0
 47 45  1  0
 48 49  1  0
 48 11  1  0
 50 49  1  0
 51 62  2  0
 52 50  1  0
 52 57  1  0
 53 61  1  0
 53 63  1  0
 54 60  1  0
 54 56  1  0
 55 61  1  0
 56 57  2  0
 56 55  1  0
 58 52  2  0
 59 58  1  0
 59 54  2  0
 60 53  1  0
 61 51  1  0
 63 65  2  0
 64 63  1  0
 66 64  1  0
 67 76  2  0
 67 72  1  0
 68 64  1  0
 68 72  1  0
 69 68  1  0
 70 71  1  0
 70 69  1  0
 71 67  1  0
 72 73  2  0
 73 74  1  0
 75 74  2  0
 76 75  1  0
 77 51  1  0
 77 78  1  0
 77 87  1  0
 78 81  1  0
 79 83  1  0
 79 78  1  0
 80 79  2  0
 83 82  1  0
 85 83  1  0
 85 86  1  0
 85 84  1  0
 87 90  1  1
 87 88  1  0
 89 87  1  0
M  ISO  4   1 100  15 100  49 101  50 101
M  END
>  <TORSDO>  (13) 
F 18

>  <SCORE>  (13) 
-14.454

>  <name>  (13) 
12

>  <ligand_id>  (13) 
12

>  <original_smiles>  (13) 
[H]c1nc(N([H])C(=O)N2C([H])([H])C([H])([H])C([H])([H])C([H])(n3nc(-c4c([H])c([H])c(Oc5c([H])c([H])c(F)c([H])c5F)c([H])c4[H])c(C(=O)N([H])[H])c3N([H])[H])C2([H])[H])nc(C([H])([H])C([H])([H])Oc2c([H])c([H])c3c(c2[H])C([H])([H])N(C(=O)C([H])(N([H])C(=O)C([H])(N([H])C([H])([H])[H])C([H])([H])[H])C(C([H])([H])[H])(C([H])([H])[H])C([H])([H])[H])C([H])(C(=O)N([H])C2([H])c4c([H])c([H])c([H])c([H])c4C([H])([H])C([H])([H])C2([H])[H])C3([H])[H])c1C([H])(C([H])([H])[H])C([H])([H])[H]

>  <smiles>  (13) 
[H]c1nc(N([H])C(=O)N2C([H])([H])C([H])([H])C([H])([H])C([H])(n3nc(-c4c([H])c([H])c(Oc5c([H])c([H])c(F)c([H])c5F)c([H])c4[H])c(C(=O)N([H])[H])c3N([H])[H])C2([H])[H])nc(C([H])([H])C([H])([H])Oc2c([H])c([H])c3c(c2[H])C([H])([H])N(C(=O)C([H])(N([H])C(=O)C([H])(N([H])C([H])([H])[H])C([H])([H])[H])C(C([H])([H])[H])(C([H])([H])[H])C([H])([H])[H])C([H])(C(=O)N([H])C2([H])c4c([H])c([H])c([H])c([H])c4C([H])([H])C([H])([H])C2([H])[H])C3([H])[H])c1C([H])(C([H])([H])[H])C([H])([H])[H]

$$$$
13:0:0
     RDKit          3D

 92100  0  0  1  0  0  0  0  0999 V2000
  -28.4140  -22.2780   19.1270 C   0  0  0  0  0  3  0  0  0  0  0  0
  -29.4140  -21.4860   21.4620 C   0  0  0  0  0  3  0  0  0  0  0  0
  -28.5840  -23.3060   20.1220 C   0  0  0  0  0  0  0  0  0  0  0  0
  -29.1960  -20.4510   20.4750 C   0  0  0  0  0  0  0  0  0  0  0  0
  -29.1130  -22.8450   21.3060 N   0  0  0  0  0  0  0  0  0  0  0  0
  -28.6910  -20.9230   19.2890 N   0  0  0  0  0  0  0  0  0  0  0  0
  -27.8060  -24.7430   19.9480 C   0  0  0  0  0  2  0  0  0  0  0  0
  -28.2150  -26.2030   20.2420 O   0  0  0  0  0  0  0  0  0  0  0  0
  -24.6380  -31.8890   23.2430 C   0  0  0  0  0  0  0  0  0  0  0  0
  -27.1810  -27.2070   20.1640 C   0  0  0  0  0  0  0  0  0  0  0  0
  -23.4220  -30.5060   21.6070 C   0  0  0  0  0  3  0  0  0  0  0  0
  -24.8590  -28.9540   20.1590 C   0  0  0  0  0  0  0  0  0  0  0  0
  -25.9770  -30.7740   21.4260 C   0  0  0  0  0  2  0  0  0  0  0  0
  -26.0440  -29.3890   20.7650 C   0  0  0  0  0  0  0  0  0  0  0  0
  -27.2060  -28.5320   20.7570 C   0  0  0  0  0  3  0  0  0  0  0  0
  -25.9690  -26.8860   19.5050 C   0  0  0  0  0  3  0  0  0  0  0  0
  -24.8330  -27.7150   19.5120 C   0  0  0  0  0  3  0  0  0  0  0  0
  -23.6330  -29.8480   20.2200 C   0  0  0  0  0  2  0  0  0  0  0  0
  -24.6990  -31.0760   22.1470 N   0  0  0  0  0  0  0  0  0  0  0  0
  -23.5560  -32.1710   23.7810 O   0  0  0  0  0  0  0  0  0  0  0  0
  -22.7530  -29.4870   22.5640 C   0  0  0  0  0  0  0  0  0  0  0  0
  -21.4240  -29.3120   22.4430 N   0  0  0  0  0  0  0  0  0  0  0  0
  -23.4300  -28.8590   23.3810 O   0  0  0  0  0  0  0  0  0  0  0  0
  -20.9320  -29.8730   21.7610 H   0  0  0  0  0  0  0  0  0  0  0  0
  -18.0500  -28.1010   22.9510 C   0  0  0  0  0  0  0  0  0  0  0  0
  -20.6090  -28.3700   23.2140 C   0  0  0  0  0  3  0  0  0  0  0  0
  -20.7140  -26.9390   22.6400 C   0  0  0  0  0  2  0  0  0  0  0  0
  -19.6110  -26.6120   21.6290 C   0  0  0  0  0  2  0  0  0  0  0  0
  -18.2300  -26.7530   22.2740 C   0  0  0  0  0  2  0  0  0  0  0  0
  -19.1670  -28.8670   23.3780 C   0  0  0  0  0  0  0  0  0  0  0  0
  -18.9450  -30.1270   23.9710 C   0  0  0  0  0  3  0  0  0  0  0  0
  -17.6380  -30.6240   24.1420 C   0  0  0  0  0  3  0  0  0  0  0  0
  -16.5360  -29.8550   23.7290 C   0  0  0  0  0  3  0  0  0  0  0  0
  -16.7430  -28.5970   23.1380 C   0  0  0  0  0  3  0  0  0  0  0  0
  -25.9210  -32.5180   23.8600 C   0  0  0  0  0  3  0  0  0  0  0  0
  -26.4400  -31.7440   25.1350 C   0  0  1  0  0  0  0  0  0  0  0  0
  -25.3500  -31.5070   26.2060 C   0  0  0  0  0  1  0  0  0  0  0  0
  -27.0200  -30.3650   24.7440 C   0  0  0  0  0  1  0  0  0  0  0  0
  -27.5930  -32.5370   25.7940 C   0  0  0  0  0  1  0  0  0  0  0  0
  -25.6150  -33.9170   24.1970 N   0  0  0  0  0  0  0  0  0  0  0  0
  -25.9320  -34.9730   23.4370 C   0  0  0  0  0  0  0  0  0  0  0  0
  -26.5820  -34.8720   22.3930 O   0  0  0  0  0  0  0  0  0  0  0  0
  -25.0360  -34.0680   25.0110 H   0  0  0  0  0  0  0  0  0  0  0  0
  -24.1970  -36.7680   23.1240 C   0  0  0  0  0  1  0  0  0  0  0  0
  -25.4540  -36.3610   23.9090 C   0  0  0  0  0  3  0  0  0  0  0  0
  -27.6020  -37.2480   24.7040 C   0  0  0  0  0  1  0  0  0  0  0  0
  -26.4850  -37.4150   23.7780 N   0  0  0  0  0  0  0  0  0  0  0  0
  -26.0800  -38.3350   23.9320 H   0  0  0  0  0  0  0  0  0  0  0  0
  -29.1330  -18.8360   20.8080 C   0  0  0  0  0  3  0  0  0  0  0  0
  -27.7370  -18.4340   20.5910 N   0  0  0  0  0  4  0  0  0  0  0  0
  -27.5390  -17.5420   21.0020 H   0  0  0  0  0  0  0  0  0  0  0  0
  -27.5430  -18.4150   19.6050 H   0  0  0  0  0  0  0  0  0  0  0  0
  -27.1330  -19.1140   21.0120 H   0  0  0  0  0  0  0  0  0  0  0  0
  -30.1400  -17.6180   20.2610 C   0  0  0  0  0  2  0  0  0  0  0  0
  -30.6030  -14.9300   20.1740 C   0  0  0  0  0  0  0  0  0  0  0  0
  -30.4230  -12.6300   19.1500 C   0  0  0  0  0  2  0  0  0  0  0  0
  -29.4560  -12.6610   17.9440 C   0  0  0  0  0  2  0  0  0  0  0  0
  -28.0010  -12.4540   18.4070 C   0  0  0  0  0  2  0  0  0  0  0  0
  -27.6400  -13.3310   19.6350 C   0  0  0  0  0  3  0  0  0  0  0  0
  -28.7270  -13.2770   20.7310 C   0  0  0  0  0  2  0  0  0  0  0  0
  -29.9950  -13.6840   20.1100 N   0  0  0  0  0  0  0  0  0  0  0  0
  -31.7710  -15.0300   19.7860 O   0  0  0  0  0  0  0  0  0  0  0  0
  -29.8450  -16.0820   20.4710 N   0  0  0  0  0  0  0  0  0  0  0  0
  -28.9210  -15.8530   20.8020 H   0  0  0  0  0  0  0  0  0  0  0  0
  -25.2690  -13.8870   20.4260 C   0  0  0  0  0  0  0  0  0  0  0  0
  -24.2210  -13.1010   20.8190 C   0  0  0  0  0  0  0  0  0  0  0  0
  -24.6940  -11.7530   20.7660 C   0  0  0  0  0  0  0  0  0  0  0  0
  -26.3130  -13.0190   20.1570 N   0  0  0  0  0  0  0  0  0  0  0  0
  -25.9770  -11.7310   20.4240 N   0  0  0  0  0  0  0  0  0  0  0  0
  -23.9820  -10.4830   20.9600 C   0  0  0  0  0  0  0  0  0  0  0  0
  -24.4230   -9.5280   21.9040 C   0  0  0  0  0  3  0  0  0  0  0  0
  -23.7090   -8.3240   22.0890 C   0  0  0  0  0  3  0  0  0  0  0  0
  -22.5420   -8.0670   21.3310 C   0  0  0  0  0  0  0  0  0  0  0  0
  -22.1210   -9.0110   20.3780 C   0  0  0  0  0  3  0  0  0  0  0  0
  -22.8350  -10.2060   20.1900 C   0  0  0  0  0  3  0  0  0  0  0  0
  -21.8010   -6.9130   21.4230 O   0  0  0  0  0  0  0  0  0  0  0  0
  -21.7250   -6.1980   22.5920 C   0  0  0  0  0  0  0  0  0  0  0  0
  -21.2290   -6.7690   23.7840 C   0  0  0  0  0  3  0  0  0  0  0  0
  -21.1040   -5.9800   24.9430 C   0  0  0  0  0  3  0  0  0  0  0  0
  -21.4650   -4.6190   24.9130 C   0  0  0  0  0  0  0  0  0  0  0  0
  -21.9540   -4.0480   23.7250 C   0  0  0  0  0  3  0  0  0  0  0  0
  -22.0810   -4.8350   22.5680 C   0  0  0  0  0  0  0  0  0  0  0  0
  -22.5330   -4.2730   21.4190 F   0  0  0  0  0  0  0  0  0  0  0  0
  -21.3390   -3.8590   26.0250 F   0  0  0  0  0  0  0  0  0  0  0  0
  -22.8250  -13.5640   21.1220 C   0  0  0  0  0  0  0  0  0  0  0  0
  -22.1200  -12.8580   21.9990 N   0  0  0  0  0  0  0  0  0  0  0  0
  -22.3710  -14.5890   20.6140 O   0  0  0  0  0  0  0  0  0  0  0  0
  -22.5020  -12.0290   22.4300 H   0  0  0  0  0  0  0  0  0  0  0  0
  -21.1840  -13.1470   22.2420 H   0  0  0  0  0  0  0  0  0  0  0  0
  -25.4140  -15.2590   20.2360 N   0  0  0  0  0  0  0  0  0  0  0  0
  -24.5520  -15.7940   20.2110 H   0  0  0  0  0  0  0  0  0  0  0  0
  -26.0580  -15.5510   19.5130 H   0  0  0  0  0  0  0  0  0  0  0  0
  1  6  2  0
  1  3  1  0
  3  5  2  0
  4 49  1  0
  4  2  2  0
  5  2  1  0
  6  4  1  0
  7  3  1  0
  7  8  1  0
  9 20  2  0
 10  8  1  0
 10 15  1  0
 11 19  1  0
 11 21  1  0
 12 18  1  0
 12 14  1  0
 13 19  1  0
 14 13  1  0
 15 14  2  0
 16 17  1  0
 16 10  2  0
 17 12  2  0
 18 11  1  0
 19  9  1  0
 21 23  2  0
 22 21  1  0
 24 22  1  0
 25 34  2  0
 25 30  1  0
 26 22  1  0
 26 30  1  0
 27 26  1  0
 28 29  1  0
 28 27  1  0
 29 25  1  0
 30 31  2  0
 31 32  1  0
 33 32  2  0
 34 33  1  0
 35  9  1  0
 35 40  1  0
 35 36  1  0
 36 39  1  1
 36 37  1  0
 38 36  1  0
 40 43  1  0
 41 45  1  0
 41 40  1  0
 42 41  2  0
 45 44  1  0
 47 45  1  0
 47 48  1  0
 47 46  1  0
 49 54  1  0
 50 49  1  0
 50 51  1  0
 50 53  1  0
 52 50  1  0
 54 63  1  0
 55 63  1  0
 56 61  1  0
 57 58  1  0
 57 56  1  0
 59 58  1  0
 59 68  1  0
 59 60  1  0
 61 55  1  0
 61 60  1  0
 62 55  2  0
 63 64  1  0
 65 66  2  0
 66 85  1  0
 67 66  1  0
 67 70  1  0
 68 69  1  0
 68 65  1  0
 69 67  2  0
 70 71  1  0
 71 72  2  0
 73 76  1  0
 73 72  1  0
 74 73  2  0
 75 74  1  0
 75 70  2  0
 76 77  1  0
 77 78  1  0
 78 79  2  0
 80 79  1  0
 80 84  1  0
 81 80  2  0
 82 77  2  0
 82 81  1  0
 83 82  1  0
 85 86  1  0
 86 89  1  0
 86 88  1  0
 87 85  2  0
 90 65  1  0
 91 90  1  0
 92 90  1  0
M  ISO  4   7 101   8 101  55 100  63 100
M  END
>  <TORSDO>  (14) 
F 20

>  <SCORE>  (14) 
-14.081

>  <name>  (14) 
13

>  <ligand_id>  (14) 
13

>  <original_smiles>  (14) 
[H]c1nc(C([H])(C([H])([H])N([H])C(=O)N2C([H])([H])C([H])([H])C([H])([H])C([H])(n3nc(-c4c([H])c([H])c(Oc5c([H])c([H])c(F)c([H])c5F)c([H])c4[H])c(C(=O)N([H])[H])c3N([H])[H])C2([H])[H])[N+]([H])([H])[H])c([H])nc1C([H])([H])Oc1c([H])c([H])c2c(c1[H])C([H])([H])N(C(=O)C([H])(N([H])C(=O)C([H])(N([H])C([H])([H])[H])C([H])([H])[H])C(C([H])([H])[H])(C([H])([H])[H])C([H])([H])[H])C([H])(C(=O)N([H])C1([H])c3c([H])c([H])c([H])c([H])c3C([H])([H])C([H])([H])C1([H])[H])C2([H])[H]

>  <smiles>  (14) 
[H]c1nc(C([H])(C([H])([H])N([H])C(=O)N2C([H])([H])C([H])([H])C([H])([H])C([H])(n3nc(-c4c([H])c([H])c(Oc5c([H])c([H])c(F)c([H])c5F)c([H])c4[H])c(C(=O)N([H])[H])c3N([H])[H])C2([H])[H])[N+]([H])([H])[H])c([H])nc1C([H])([H])Oc1c([H])c([H])c2c(c1[H])C([H])([H])N(C(=O)C([H])(N([H])C(=O)C([H])(N([H])C([H])([H])[H])C([H])([H])[H])C(C([H])([H])[H])(C([H])([H])[H])C([H])([H])[H])C([H])(C(=O)N([H])C1([H])c3c([H])c([H])c([H])c([H])c3C([H])([H])C([H])([H])C1([H])[H])C2([H])[H]

$$$$
14:0:0
     RDKit          3D

 87 95  0  0  1  0  0  0  0  0999 V2000
  -29.2610  -20.6870   18.9890 C   0  0  0  0  0  3  0  0  0  0  0  0
  -28.9640  -21.9980   21.2750 C   0  0  0  0  0  3  0  0  0  0  0  0
  -29.5200  -19.8280   20.1410 C   0  0  0  0  0  0  0  0  0  0  0  0
  -28.7040  -22.8550   20.1170 C   0  0  0  0  0  0  0  0  0  0  0  0
  -29.3650  -20.6210   21.2860 N   0  0  0  0  0  0  0  0  0  0  0  0
  -28.8700  -22.0580   18.9790 N   0  0  0  0  0  0  0  0  0  0  0  0
  -30.2790  -18.2560   20.1060 C   0  0  0  0  0  2  0  0  0  0  0  0
  -30.5160  -15.3710   20.1220 C   0  0  0  0  0  0  0  0  0  0  0  0
  -30.4200  -12.9690   19.1350 C   0  0  0  0  0  2  0  0  0  0  0  0
  -29.4310  -12.7850   17.9560 C   0  0  0  0  0  2  0  0  0  0  0  0
  -28.0110  -12.4840   18.4650 C   0  0  0  0  0  2  0  0  0  0  0  0
  -27.6160  -13.4080   19.6400 C   0  0  0  0  0  3  0  0  0  0  0  0
  -28.7320  -13.5030   20.7100 C   0  0  0  0  0  2  0  0  0  0  0  0
  -29.9160  -14.0730   20.0350 N   0  0  0  0  0  0  0  0  0  0  0  0
  -31.7140  -15.3490   19.8030 O   0  0  0  0  0  0  0  0  0  0  0  0
  -28.5310  -16.7090   20.9880 C   0  0  0  0  0  1  0  0  0  0  0  0
  -29.8190  -16.6810   20.3100 N   0  0  0  0  0  0  0  0  0  0  0  0
  -25.2680  -13.9330   20.5050 C   0  0  0  0  0  0  0  0  0  0  0  0
  -24.2350  -13.1390   20.9090 C   0  0  0  0  0  0  0  0  0  0  0  0
  -24.7140  -11.7960   20.8230 C   0  0  0  0  0  0  0  0  0  0  0  0
  -26.3130  -13.0760   20.2020 N   0  0  0  0  0  0  0  0  0  0  0  0
  -25.9910  -11.7810   20.4590 N   0  0  0  0  0  0  0  0  0  0  0  0
  -24.0040  -10.5240   21.0070 C   0  0  0  0  0  0  0  0  0  0  0  0
  -24.4550   -9.5530   21.9280 C   0  0  0  0  0  3  0  0  0  0  0  0
  -23.7430   -8.3480   22.1030 C   0  0  0  0  0  3  0  0  0  0  0  0
  -22.5640   -8.1060   21.3580 C   0  0  0  0  0  0  0  0  0  0  0  0
  -22.1320   -9.0660   20.4250 C   0  0  0  0  0  3  0  0  0  0  0  0
  -22.8460  -10.2620   20.2480 C   0  0  0  0  0  3  0  0  0  0  0  0
  -21.8200   -6.9530   21.4460 O   0  0  0  0  0  0  0  0  0  0  0  0
  -21.7510   -6.2290   22.6090 C   0  0  0  0  0  0  0  0  0  0  0  0
  -21.2430   -6.7830   23.8050 C   0  0  0  0  0  3  0  0  0  0  0  0
  -21.1250   -5.9820   24.9580 C   0  0  0  0  0  3  0  0  0  0  0  0
  -21.5050   -4.6270   24.9170 C   0  0  0  0  0  0  0  0  0  0  0  0
  -22.0060   -4.0710   23.7270 C   0  0  0  0  0  3  0  0  0  0  0  0
  -22.1270   -4.8700   22.5750 C   0  0  0  0  0  0  0  0  0  0  0  0
  -22.5890   -4.3240   21.4250 F   0  0  0  0  0  0  0  0  0  0  0  0
  -21.3840   -3.8550   26.0220 F   0  0  0  0  0  0  0  0  0  0  0  0
  -22.8480  -13.5980   21.2480 C   0  0  0  0  0  0  0  0  0  0  0  0
  -22.1670  -12.8830   22.1350 N   0  0  0  0  0  0  0  0  0  0  0  0
  -22.3800  -14.6300   20.7660 O   0  0  0  0  0  0  0  0  0  0  0  0
  -22.5620  -12.0500   22.5470 H   0  0  0  0  0  0  0  0  0  0  0  0
  -21.2390  -13.1720   22.4060 H   0  0  0  0  0  0  0  0  0  0  0  0
  -25.3860  -15.3070   20.3360 N   0  0  0  0  0  0  0  0  0  0  0  0
  -24.5990  -15.9320   20.4710 H   0  0  0  0  0  0  0  0  0  0  0  0
  -26.1810  -15.7610   19.9070 H   0  0  0  0  0  0  0  0  0  0  0  0
  -27.8730  -24.3880   20.0340 C   0  0  0  0  0  2  0  0  0  0  0  0
  -28.2270  -25.9680   20.2480 O   0  0  0  0  0  0  0  0  0  0  0  0
  -24.6530  -31.8870   23.2540 C   0  0  0  0  0  0  0  0  0  0  0  0
  -27.2160  -27.0590   20.1960 C   0  0  0  0  0  0  0  0  0  0  0  0
  -23.4550  -30.5010   21.6110 C   0  0  0  0  0  3  0  0  0  0  0  0
  -24.9030  -28.9140   20.1760 C   0  0  0  0  0  0  0  0  0  0  0  0
  -26.0200  -30.7250   21.4570 C   0  0  0  0  0  2  0  0  0  0  0  0
  -26.0920  -29.3230   20.7920 C   0  0  0  0  0  0  0  0  0  0  0  0
  -27.2440  -28.4170   20.7780 C   0  0  0  0  0  3  0  0  0  0  0  0
  -25.9890  -26.7950   19.5410 C   0  0  0  0  0  3  0  0  0  0  0  0
  -24.8740  -27.6690   19.5300 C   0  0  0  0  0  3  0  0  0  0  0  0
  -23.6810  -29.8270   20.2300 C   0  0  0  0  0  2  0  0  0  0  0  0
  -24.7320  -31.0640   22.1610 N   0  0  0  0  0  0  0  0  0  0  0  0
  -23.5650  -32.1740   23.7790 O   0  0  0  0  0  0  0  0  0  0  0  0
  -22.7640  -29.4980   22.5720 C   0  0  0  0  0  0  0  0  0  0  0  0
  -21.4360  -29.3250   22.4410 N   0  0  0  0  0  0  0  0  0  0  0  0
  -23.4310  -28.8770   23.4040 O   0  0  0  0  0  0  0  0  0  0  0  0
  -20.9540  -29.8780   21.7460 H   0  0  0  0  0  0  0  0  0  0  0  0
  -18.0570  -28.0970   22.9330 C   0  0  0  0  0  0  0  0  0  0  0  0
  -20.6140  -28.3810   23.2070 C   0  0  0  0  0  3  0  0  0  0  0  0
  -20.7280  -26.9500   22.6310 C   0  0  0  0  0  2  0  0  0  0  0  0
  -19.6320  -26.6200   21.6140 C   0  0  0  0  0  2  0  0  0  0  0  0
  -18.2470  -26.7520   22.2520 C   0  0  0  0  0  2  0  0  0  0  0  0
  -19.1680  -28.8700   23.3660 C   0  0  0  0  0  0  0  0  0  0  0  0
  -18.9350  -30.1260   23.9660 C   0  0  0  0  0  3  0  0  0  0  0  0
  -17.6250  -30.6110   24.1370 C   0  0  0  0  0  3  0  0  0  0  0  0
  -16.5290  -29.8370   23.7160 C   0  0  0  0  0  3  0  0  0  0  0  0
  -16.7450  -28.5820   23.1200 C   0  0  0  0  0  3  0  0  0  0  0  0
  -25.9240  -32.5260   23.8880 C   0  0  0  0  0  3  0  0  0  0  0  0
  -25.6110  -33.9280   24.2190 N   0  0  0  0  0  0  0  0  0  0  0  0
  -25.9210  -34.9850   23.4590 C   0  0  0  0  0  0  0  0  0  0  0  0
  -26.5670  -34.8850   22.4110 O   0  0  0  0  0  0  0  0  0  0  0  0
  -25.0340  -34.0790   25.0350 H   0  0  0  0  0  0  0  0  0  0  0  0
  -24.1750  -36.7770   23.1690 C   0  0  0  0  0  1  0  0  0  0  0  0
  -25.4460  -36.3750   23.9330 C   0  0  0  0  0  3  0  0  0  0  0  0
  -27.5990  -37.2820   24.6910 C   0  0  0  0  0  1  0  0  0  0  0  0
  -26.4680  -37.4330   23.7800 N   0  0  0  0  0  0  0  0  0  0  0  0
  -26.0620  -38.3520   23.9300 H   0  0  0  0  0  0  0  0  0  0  0  0
  -26.4230  -31.7630   25.1790 C   0  0  1  0  0  0  0  0  0  0  0  0
  -25.3170  -31.5360   26.2360 C   0  0  0  0  0  1  0  0  0  0  0  0
  -27.0080  -30.3800   24.8110 C   0  0  0  0  0  1  0  0  0  0  0  0
  -27.5680  -32.5610   25.8470 C   0  0  0  0  0  1  0  0  0  0  0  0
  1  3  1  0
  2  5  1  0
  3  5  2  0
  4  2  2  0
  6  1  2  0
  6  4  1  0
  7  3  1  0
  7 17  1  0
  8 17  1  0
  9 14  1  0
 10 11  1  0
 10  9  1  0
 12 11  1  0
 12 21  1  0
 12 13  1  0
 14  8  1  0
 14 13  1  0
 15  8  2  0
 17 16  1  0
 18 19  2  0
 19 38  1  0
 20 19  1  0
 20 23  1  0
 21 22  1  0
 21 18  1  0
 22 20  2  0
 23 24  1  0
 24 25  2  0
 26 29  1  0
 26 25  1  0
 27 26  2  0
 28 27  1  0
 28 23  2  0
 29 30  1  0
 30 31  1  0
 31 32  2  0
 33 32  1  0
 33 37  1  0
 34 33  2  0
 35 30  2  0
 35 34  1  0
 36 35  1  0
 38 39  1  0
 39 42  1  0
 39 41  1  0
 40 38  2  0
 43 44  1  0
 43 18  1  0
 45 43  1  0
 46  4  1  0
 46 47  1  0
 48 59  2  0
 49 47  1  0
 49 54  1  0
 50 58  1  0
 50 60  1  0
 51 57  1  0
 51 53  1  0
 52 58  1  0
 53 52  1  0
 54 53  2  0
 55 49  2  0
 56 55  1  0
 56 51  2  0
 57 50  1  0
 58 48  1  0
 60 62  2  0
 61 60  1  0
 63 61  1  0
 64 73  2  0
 64 69  1  0
 65 61  1  0
 65 69  1  0
 66 65  1  0
 67 68  1  0
 67 66  1  0
 68 64  1  0
 69 70  2  0
 70 71  1  0
 72 71  2  0
 73 72  1  0
 74 48  1  0
 74 75  1  0
 74 84  1  0
 75 78  1  0
 76 80  1  0
 76 75  1  0
 77 76  2  0
 80 79  1  0
 82 83  1  0
 82 80  1  0
 82 81  1  0
 84 87  1  1
 84 85  1  0
 86 84  1  0
M  ISO  4   8 100  17 100  46 101  47 101
M  END
>  <TORSDO>  (15) 
F 18

>  <SCORE>  (15) 
-15.748

>  <name>  (15) 
14

>  <ligand_id>  (15) 
14

>  <original_smiles>  (15) 
[H]c1nc(C([H])([H])N(C(=O)N2C([H])([H])C([H])([H])C([H])([H])C([H])(n3nc(-c4c([H])c([H])c(Oc5c([H])c([H])c(F)c([H])c5F)c([H])c4[H])c(C(=O)N([H])[H])c3N([H])[H])C2([H])[H])C([H])([H])[H])c([H])nc1C([H])([H])Oc1c([H])c([H])c2c(c1[H])C([H])([H])N(C(=O)C([H])(N([H])C(=O)C([H])(N([H])C([H])([H])[H])C([H])([H])[H])C(C([H])([H])[H])(C([H])([H])[H])C([H])([H])[H])C([H])(C(=O)N([H])C1([H])c3c([H])c([H])c([H])c([H])c3C([H])([H])C([H])([H])C1([H])[H])C2([H])[H]

>  <smiles>  (15) 
[H]c1nc(C([H])([H])N(C(=O)N2C([H])([H])C([H])([H])C([H])([H])C([H])(n3nc(-c4c([H])c([H])c(Oc5c([H])c([H])c(F)c([H])c5F)c([H])c4[H])c(C(=O)N([H])[H])c3N([H])[H])C2([H])[H])C([H])([H])[H])c([H])nc1C([H])([H])Oc1c([H])c([H])c2c(c1[H])C([H])([H])N(C(=O)C([H])(N([H])C(=O)C([H])(N([H])C([H])([H])[H])C([H])([H])[H])C(C([H])([H])[H])(C([H])([H])[H])C([H])([H])[H])C([H])(C(=O)N([H])C1([H])c3c([H])c([H])c([H])c([H])c3C([H])([H])C([H])([H])C1([H])[H])C2([H])[H]

$$$$
15:0:0
     RDKit          3D

 96104  0  0  1  0  0  0  0  0999 V2000
  -30.0770  -23.2490   22.0020 C   0  0  0  0  0  3  0  0  0  0  0  0
  -29.0420  -21.4590   21.4270 C   0  0  0  0  0  0  0  0  0  0  0  0
  -28.7880  -22.4100   20.4510 C   0  0  0  0  0  0  0  0  0  0  0  0
  -29.8770  -22.0000   22.4070 N   0  0  0  0  0  0  0  0  0  0  0  0
  -29.4690  -23.5640   20.8520 N   0  0  0  0  0  0  0  0  0  0  0  0
  -27.9910  -22.3380   19.1770 C   0  0  1  0  0  0  0  0  0  0  0  0
  -27.4790  -21.1290   18.9640 F   0  0  0  0  0  0  0  0  0  0  0  0
  -26.9740  -23.2000   19.1920 F   0  0  0  0  0  0  0  0  0  0  0  0
  -28.7480  -22.6240   18.1170 F   0  0  0  0  0  0  0  0  0  0  0  0
  -28.6220  -20.0170   21.5200 C   0  0  0  0  0  2  0  0  0  0  0  0
  -29.7040  -19.1560   21.0080 N   0  0  0  0  0  4  0  0  0  0  0  0
  -30.5210  -19.3210   21.5760 H   0  0  0  0  0  0  0  0  0  0  0  0
  -29.9200  -19.4610   20.0740 H   0  0  0  0  0  0  0  0  0  0  0  0
  -29.3790  -17.7160   20.9750 C   0  0  0  0  0  2  0  0  0  0  0  0
  -30.5860  -16.8560   20.5560 C   0  0  0  0  0  2  0  0  0  0  0  0
  -30.8380  -14.4810   19.8720 C   0  0  0  0  0  0  0  0  0  0  0  0
  -30.5480  -12.2220   18.9340 C   0  0  0  0  0  2  0  0  0  0  0  0
  -29.5420  -12.2650   17.7670 C   0  0  0  0  0  2  0  0  0  0  0  0
  -28.0930  -12.1440   18.2790 C   0  0  0  0  0  2  0  0  0  0  0  0
  -27.7890  -13.1060   19.4590 C   0  0  0  0  0  3  0  0  0  0  0  0
  -28.8980  -13.0110   20.5310 C   0  0  0  0  0  2  0  0  0  0  0  0
  -30.1930  -13.2870   19.8790 N   0  0  0  0  0  0  0  0  0  0  0  0
  -31.8540  -14.7090   19.2100 O   0  0  0  0  0  0  0  0  0  0  0  0
  -30.2420  -15.4380   20.5920 N   0  0  0  0  0  0  0  0  0  0  0  0
  -29.4150  -15.1640   21.1020 H   0  0  0  0  0  0  0  0  0  0  0  0
  -25.4570  -13.7490   20.3450 C   0  0  0  0  0  0  0  0  0  0  0  0
  -24.4040  -12.9920   20.7810 C   0  0  0  0  0  0  0  0  0  0  0  0
  -24.8340  -11.6320   20.6950 C   0  0  0  0  0  0  0  0  0  0  0  0
  -26.4660  -12.8530   20.0260 N   0  0  0  0  0  0  0  0  0  0  0  0
  -26.0960  -11.5730   20.2900 N   0  0  0  0  0  0  0  0  0  0  0  0
  -24.1010  -10.3800   20.9200 C   0  0  0  0  0  0  0  0  0  0  0  0
  -24.5280   -9.4350   21.8790 C   0  0  0  0  0  3  0  0  0  0  0  0
  -23.7950   -8.2470   22.0900 C   0  0  0  0  0  3  0  0  0  0  0  0
  -22.6210   -7.9960   21.3410 C   0  0  0  0  0  0  0  0  0  0  0  0
  -22.2130   -8.9300   20.3710 C   0  0  0  0  0  3  0  0  0  0  0  0
  -22.9470  -10.1090   20.1600 C   0  0  0  0  0  3  0  0  0  0  0  0
  -21.8600   -6.8580   21.4600 O   0  0  0  0  0  0  0  0  0  0  0  0
  -21.7270   -6.2030   22.6560 C   0  0  0  0  0  0  0  0  0  0  0  0
  -21.2110   -6.8440   23.8040 C   0  0  0  0  0  3  0  0  0  0  0  0
  -21.0250   -6.1140   24.9950 C   0  0  0  0  0  3  0  0  0  0  0  0
  -21.3460   -4.7440   25.0390 C   0  0  0  0  0  0  0  0  0  0  0  0
  -21.8560   -4.1030   23.8960 C   0  0  0  0  0  3  0  0  0  0  0  0
  -22.0430   -4.8300   22.7080 C   0  0  0  0  0  0  0  0  0  0  0  0
  -22.5130   -4.2030   21.6040 F   0  0  0  0  0  0  0  0  0  0  0  0
  -21.1610   -4.0400   26.1800 F   0  0  0  0  0  0  0  0  0  0  0  0
  -23.0400  -13.4900   21.1640 C   0  0  0  0  0  0  0  0  0  0  0  0
  -22.3690  -12.7980   22.0780 N   0  0  0  0  0  0  0  0  0  0  0  0
  -22.5800  -14.5260   20.6860 O   0  0  0  0  0  0  0  0  0  0  0  0
  -22.7550  -11.9580   22.4840 H   0  0  0  0  0  0  0  0  0  0  0  0
  -21.4570  -13.1130   22.3760 H   0  0  0  0  0  0  0  0  0  0  0  0
  -25.6360  -15.1190   20.1780 N   0  0  0  0  0  0  0  0  0  0  0  0
  -24.8870  -15.7810   20.3500 H   0  0  0  0  0  0  0  0  0  0  0  0
  -26.4500  -15.5440   19.7530 H   0  0  0  0  0  0  0  0  0  0  0  0
  -29.5710  -24.8430   20.1610 C   0  0  0  0  0  2  0  0  0  0  0  0
  -28.9480  -25.9950   20.9580 C   0  0  0  0  0  2  0  0  0  0  0  0
  -28.9220  -27.1620   20.1380 O   0  0  0  0  0  0  0  0  0  0  0  0
  -24.6680  -31.8630   23.3000 C   0  0  0  0  0  0  0  0  0  0  0  0
  -27.7110  -27.7990   20.1240 C   0  0  0  0  0  0  0  0  0  0  0  0
  -23.6140  -30.4650   21.5490 C   0  0  0  0  0  3  0  0  0  0  0  0
  -25.2170  -29.1040   20.1080 C   0  0  0  0  0  0  0  0  0  0  0  0
  -26.1080  -31.0170   21.4540 C   0  0  0  0  0  2  0  0  0  0  0  0
  -26.3110  -29.6890   20.7590 C   0  0  0  0  0  0  0  0  0  0  0  0
  -27.5640  -29.0440   20.7650 C   0  0  0  0  0  3  0  0  0  0  0  0
  -26.6080  -27.2130   19.4680 C   0  0  0  0  0  3  0  0  0  0  0  0
  -25.3580  -27.8640   19.4590 C   0  0  0  0  0  3  0  0  0  0  0  0
  -23.9130  -29.8680   20.1480 C   0  0  0  0  0  2  0  0  0  0  0  0
  -24.8110  -31.1270   22.1620 N   0  0  0  0  0  0  0  0  0  0  0  0
  -23.5540  -32.0330   23.8150 O   0  0  0  0  0  0  0  0  0  0  0  0
  -23.0050  -29.3560   22.4370 C   0  0  0  0  0  0  0  0  0  0  0  0
  -21.6990  -29.1020   22.2650 N   0  0  0  0  0  0  0  0  0  0  0  0
  -23.7070  -28.7280   23.2360 O   0  0  0  0  0  0  0  0  0  0  0  0
  -21.1930  -29.6660   21.5940 H   0  0  0  0  0  0  0  0  0  0  0  0
  -18.3820  -27.7230   22.6320 C   0  0  0  0  0  0  0  0  0  0  0  0
  -20.9210  -28.0800   22.9610 C   0  0  0  0  0  3  0  0  0  0  0  0
  -21.0990  -26.6960   22.2940 C   0  0  0  0  0  2  0  0  0  0  0  0
  -20.0250  -26.3890   21.2460 C   0  0  0  0  0  2  0  0  0  0  0  0
  -18.6300  -26.4280   21.8750 C   0  0  0  0  0  2  0  0  0  0  0  0
  -19.4580  -28.5050   23.1280 C   0  0  0  0  0  0  0  0  0  0  0  0
  -19.1710  -29.7160   23.7950 C   0  0  0  0  0  3  0  0  0  0  0  0
  -17.8430  -30.1450   23.9720 C   0  0  0  0  0  3  0  0  0  0  0  0
  -16.7820  -29.3580   23.4930 C   0  0  0  0  0  3  0  0  0  0  0  0
  -17.0520  -28.1480   22.8290 C   0  0  0  0  0  3  0  0  0  0  0  0
  -25.8870  -32.5450   23.9950 C   0  0  0  0  0  3  0  0  0  0  0  0
  -25.4920  -33.9190   24.3310 N   0  0  0  0  0  0  0  0  0  0  0  0
  -25.8020  -34.9990   23.6030 C   0  0  0  0  0  0  0  0  0  0  0  0
  -26.5240  -34.9470   22.6030 O   0  0  0  0  0  0  0  0  0  0  0  0
  -24.8530  -34.0300   25.1040 H   0  0  0  0  0  0  0  0  0  0  0  0
  -23.9980  -36.7020   23.1940 C   0  0  0  0  0  1  0  0  0  0  0  0
  -25.2210  -36.3520   24.0560 C   0  0  0  0  0  3  0  0  0  0  0  0
  -27.2620  -37.3350   24.9980 C   0  0  0  0  0  1  0  0  0  0  0  0
  -26.1980  -37.4600   24.0060 N   0  0  0  0  0  0  0  0  0  0  0  0
  -25.7370  -38.3540   24.1460 H   0  0  0  0  0  0  0  0  0  0  0  0
  -26.3830  -31.7740   25.2790 C   0  0  1  0  0  0  0  0  0  0  0  0
  -25.2510  -31.4470   26.2820 C   0  0  0  0  0  1  0  0  0  0  0  0
  -27.0650  -30.4450   24.8830 C   0  0  0  0  0  1  0  0  0  0  0  0
  -27.4500  -32.6170   26.0150 C   0  0  0  0  0  1  0  0  0  0  0  0
  1  4  2  0
  2 10  1  0
  2  4  1  0
  3  5  1  0
  3  2  2  0
  5  1  1  0
  6  8  1  1
  6  3  1  0
  7  6  1  0
  9  6  1  0
 11 10  1  0
 11 12  1  0
 13 11  1  0
 14 11  1  0
 15 24  1  0
 15 14  1  0
 16 22  1  0
 16 24  1  0
 17 22  1  0
 18 19  1  0
 18 17  1  0
 20 19  1  0
 20 29  1  0
 20 21  1  0
 22 21  1  0
 23 16  2  0
 24 25  1  0
 26 27  2  0
 27 46  1  0
 28 27  1  0
 28 31  1  0
 29 30  1  0
 29 26  1  0
 30 28  2  0
 31 32  1  0
 32 33  2  0
 34 37  1  0
 34 33  1  0
 35 34  2  0
 36 35  1  0
 36 31  2  0
 37 38  1  0
 38 43  2  0
 38 39  1  0
 39 40  2  0
 40 41  1  0
 41 45  1  0
 42 41  2  0
 43 42  1  0
 44 43  1  0
 46 47  1  0
 47 50  1  0
 47 49  1  0
 48 46  2  0
 51 26  1  0
 51 52  1  0
 53 51  1  0
 54  5  1  0
 54 55  1  0
 56 55  1  0
 57 68  2  0
 58 56  1  0
 58 63  1  0
 59 67  1  0
 59 69  1  0
 60 66  1  0
 60 62  1  0
 61 67  1  0
 62 63  2  0
 62 61  1  0
 64 58  2  0
 65 64  1  0
 65 60  2  0
 66 59  1  0
 67 57  1  0
 69 71  2  0
 70 69  1  0
 72 70  1  0
 73 82  2  0
 73 78  1  0
 74 70  1  0
 74 78  1  0
 75 74  1  0
 76 77  1  0
 76 75  1  0
 77 73  1  0
 78 79  2  0
 79 80  1  0
 81 80  2  0
 82 81  1  0
 83 57  1  0
 83 84  1  0
 83 93  1  0
 84 87  1  0
 85 89  1  0
 85 84  1  0
 86 85  2  0
 89 88  1  0
 91 89  1  0
 91 92  1  0
 91 90  1  0
 93 96  1  1
 93 94  1  0
 95 93  1  0
M  ISO  4  16 100  24 100  55 101  56 101
M  END
>  <TORSDO>  (16) 
F 23

>  <SCORE>  (16) 
-11.755

>  <name>  (16) 
15

>  <ligand_id>  (16) 
15

>  <original_smiles>  (16) 
[H]c1c([H])c([H])c2c(c1[H])C([H])([H])C([H])([H])C([H])([H])C2([H])N([H])C(=O)C1([H])N(C(=O)C([H])(N([H])C(=O)C([H])(N([H])C([H])([H])[H])C([H])([H])[H])C(C([H])([H])[H])(C([H])([H])[H])C([H])([H])[H])C([H])([H])c2c([H])c(OC([H])([H])C([H])([H])n3c([H])nc(C([H])([H])[N+]([H])([H])C([H])([H])C([H])([H])N([H])C(=O)N4C([H])([H])C([H])([H])C([H])([H])C([H])(n5nc(-c6c([H])c([H])c(Oc7c([H])c([H])c(F)c([H])c7F)c([H])c6[H])c(C(=O)N([H])[H])c5N([H])[H])C4([H])[H])c3C(F)(F)F)c([H])c([H])c2C1([H])[H]

>  <smiles>  (16) 
[H]c1c([H])c([H])c2c(c1[H])C([H])([H])C([H])([H])C([H])([H])C2([H])N([H])C(=O)C1([H])N(C(=O)C([H])(N([H])C(=O)C([H])(N([H])C([H])([H])[H])C([H])([H])[H])C(C([H])([H])[H])(C([H])([H])[H])C([H])([H])[H])C([H])([H])c2c([H])c(OC([H])([H])C([H])([H])n3c([H])nc(C([H])([H])[N+]([H])([H])C([H])([H])C([H])([H])N([H])C(=O)N4C([H])([H])C([H])([H])C([H])([H])C([H])(n5nc(-c6c([H])c([H])c(Oc7c([H])c([H])c(F)c([H])c7F)c([H])c6[H])c(C(=O)N([H])[H])c5N([H])[H])C4([H])[H])c3C(F)(F)F)c([H])c([H])c2C1([H])[H]

$$$$
16:0:0
     RDKit          3D

 88 96  0  0  1  0  0  0  0  0999 V2000
  -29.1200  -20.4000   20.6500 C   0  0  0  0  0  2  0  0  0  0  0  0
  -31.5210  -19.9830   20.0130 C   0  0  0  0  0  3  0  0  0  0  0  0
  -32.4660  -18.9480   19.8780 C   0  0  0  0  0  3  0  0  0  0  0  0
  -30.3280  -19.3880   20.3260 C   0  0  0  0  0  0  0  0  0  0  0  0
  -31.9260  -17.7660   20.0650 N   0  0  0  0  0  0  0  0  0  0  0  0
  -30.6020  -17.9090   20.3310 N   0  0  0  0  0  0  0  0  0  0  0  0
  -28.4580  -16.6450   20.1210 C   0  0  0  0  0  1  0  0  0  0  0  0
  -29.8940  -16.5260   20.6430 C   0  0  0  0  0  3  0  0  0  0  0  0
  -30.5720  -15.0130   20.2910 C   0  0  0  0  0  0  0  0  0  0  0  0
  -30.3890  -12.6670   19.3210 C   0  0  0  0  0  2  0  0  0  0  0  0
  -29.4500  -12.6500   18.0920 C   0  0  0  0  0  2  0  0  0  0  0  0
  -27.9970  -12.4070   18.5320 C   0  0  0  0  0  2  0  0  0  0  0  0
  -27.5930  -13.3200   19.7160 C   0  0  0  0  0  3  0  0  0  0  0  0
  -28.6610  -13.3470   20.8370 C   0  0  0  0  0  2  0  0  0  0  0  0
  -29.9380  -13.7620   20.2360 N   0  0  0  0  0  0  0  0  0  0  0  0
  -31.7620  -14.9700   19.9600 O   0  0  0  0  0  0  0  0  0  0  0  0
  -25.2070  -13.8850   20.4670 C   0  0  0  0  0  0  0  0  0  0  0  0
  -24.1560  -13.1010   20.8550 C   0  0  0  0  0  0  0  0  0  0  0  0
  -24.6360  -11.7560   20.8240 C   0  0  0  0  0  0  0  0  0  0  0  0
  -26.2610  -13.0160   20.2280 N   0  0  0  0  0  0  0  0  0  0  0  0
  -25.9250  -11.7320   20.5070 N   0  0  0  0  0  0  0  0  0  0  0  0
  -23.9210  -10.4880   21.0120 C   0  0  0  0  0  0  0  0  0  0  0  0
  -24.3520   -9.5310   21.9560 C   0  0  0  0  0  3  0  0  0  0  0  0
  -23.6330   -8.3280   22.1340 C   0  0  0  0  0  3  0  0  0  0  0  0
  -22.4710   -8.0750   21.3650 C   0  0  0  0  0  0  0  0  0  0  0  0
  -22.0610   -9.0230   20.4100 C   0  0  0  0  0  3  0  0  0  0  0  0
  -22.7800  -10.2160   20.2310 C   0  0  0  0  0  3  0  0  0  0  0  0
  -21.7270   -6.9240   21.4490 O   0  0  0  0  0  0  0  0  0  0  0  0
  -21.6590   -6.1980   22.6120 C   0  0  0  0  0  0  0  0  0  0  0  0
  -21.1760   -6.7590   23.8140 C   0  0  0  0  0  3  0  0  0  0  0  0
  -21.0600   -5.9580   24.9680 C   0  0  0  0  0  3  0  0  0  0  0  0
  -21.4120   -4.5960   24.9190 C   0  0  0  0  0  0  0  0  0  0  0  0
  -21.8840   -4.0330   23.7210 C   0  0  0  0  0  3  0  0  0  0  0  0
  -22.0040   -4.8320   22.5690 C   0  0  0  0  0  0  0  0  0  0  0  0
  -22.4430   -4.2800   21.4130 F   0  0  0  0  0  0  0  0  0  0  0  0
  -21.2910   -3.8230   26.0240 F   0  0  0  0  0  0  0  0  0  0  0  0
  -22.7570  -13.5670   21.1340 C   0  0  0  0  0  0  0  0  0  0  0  0
  -22.0390  -12.8620   22.0000 N   0  0  0  0  0  0  0  0  0  0  0  0
  -22.3100  -14.5920   20.6190 O   0  0  0  0  0  0  0  0  0  0  0  0
  -22.4120  -12.0310   22.4330 H   0  0  0  0  0  0  0  0  0  0  0  0
  -21.1030  -13.1620   22.2340 H   0  0  0  0  0  0  0  0  0  0  0  0
  -25.3370  -15.2540   20.2660 N   0  0  0  0  0  0  0  0  0  0  0  0
  -24.5490  -15.8840   20.3540 H   0  0  0  0  0  0  0  0  0  0  0  0
  -26.1520  -15.6950   19.8600 H   0  0  0  0  0  0  0  0  0  0  0  0
  -28.9230  -21.9100   19.9240 C   0  0  0  0  0  2  0  0  0  0  0  0
  -28.9010  -23.4410   20.6100 C   0  0  0  0  0  3  0  0  0  0  0  0
  -28.1450  -24.7690   19.9210 C   0  0  0  0  0  3  0  0  0  0  0  0
  -28.2850  -26.2630   20.3070 O   0  0  0  0  0  0  0  0  0  0  0  0
  -24.6050  -31.9030   23.2200 C   0  0  0  0  0  0  0  0  0  0  0  0
  -27.2120  -27.2170   20.1990 C   0  0  0  0  0  0  0  0  0  0  0  0
  -23.4130  -30.5060   21.5740 C   0  0  0  0  0  3  0  0  0  0  0  0
  -24.8710  -28.9380   20.1540 C   0  0  0  0  0  0  0  0  0  0  0  0
  -25.9660  -30.7770   21.4250 C   0  0  0  0  0  2  0  0  0  0  0  0
  -26.0430  -29.3890   20.7720 C   0  0  0  0  0  0  0  0  0  0  0  0
  -27.2110  -28.5430   20.7840 C   0  0  0  0  0  3  0  0  0  0  0  0
  -26.0190  -26.8690   19.5250 C   0  0  0  0  0  3  0  0  0  0  0  0
  -24.8710  -27.6880   19.5150 C   0  0  0  0  0  3  0  0  0  0  0  0
  -23.6380  -29.8270   20.1980 C   0  0  0  0  0  2  0  0  0  0  0  0
  -24.6800  -31.0830   22.1270 N   0  0  0  0  0  0  0  0  0  0  0  0
  -23.5170  -32.1880   23.7420 O   0  0  0  0  0  0  0  0  0  0  0  0
  -22.7320  -29.4980   22.5350 C   0  0  0  0  0  0  0  0  0  0  0  0
  -21.4040  -29.3300   22.4060 N   0  0  0  0  0  0  0  0  0  0  0  0
  -23.4010  -28.8700   23.3580 O   0  0  0  0  0  0  0  0  0  0  0  0
  -20.9210  -29.8880   21.7160 H   0  0  0  0  0  0  0  0  0  0  0  0
  -18.0150  -28.1610   22.9190 C   0  0  0  0  0  0  0  0  0  0  0  0
  -20.5780  -28.3970   23.1740 C   0  0  0  0  0  3  0  0  0  0  0  0
  -20.6630  -26.9680   22.5900 C   0  0  0  0  0  2  0  0  0  0  0  0
  -19.5520  -26.6630   21.5790 C   0  0  0  0  0  2  0  0  0  0  0  0
  -18.1750  -26.8160   22.2310 C   0  0  0  0  0  2  0  0  0  0  0  0
  -19.1430  -28.9110   23.3460 C   0  0  0  0  0  0  0  0  0  0  0  0
  -18.9380  -30.1710   23.9500 C   0  0  0  0  0  3  0  0  0  0  0  0
  -17.6380  -30.6820   24.1280 C   0  0  0  0  0  3  0  0  0  0  0  0
  -16.5250  -29.9300   23.7160 C   0  0  0  0  0  3  0  0  0  0  0  0
  -16.7150  -28.6710   23.1180 C   0  0  0  0  0  3  0  0  0  0  0  0
  -25.8830  -32.5370   23.8510 C   0  0  0  0  0  3  0  0  0  0  0  0
  -25.5690  -33.9360   24.1790 N   0  0  0  0  0  0  0  0  0  0  0  0
  -25.9000  -34.9930   23.4230 C   0  0  0  0  0  0  0  0  0  0  0  0
  -26.5700  -34.8920   22.3910 O   0  0  0  0  0  0  0  0  0  0  0  0
  -24.9770  -34.0880   24.9830 H   0  0  0  0  0  0  0  0  0  0  0  0
  -24.1740  -36.7920   23.0750 C   0  0  0  0  0  1  0  0  0  0  0  0
  -25.4150  -36.3820   23.8850 C   0  0  0  0  0  3  0  0  0  0  0  0
  -27.5480  -37.2680   24.7210 C   0  0  0  0  0  1  0  0  0  0  0  0
  -26.4490  -37.4350   23.7730 N   0  0  0  0  0  0  0  0  0  0  0  0
  -26.0430  -38.3560   23.9160 H   0  0  0  0  0  0  0  0  0  0  0  0
  -26.3870  -31.7690   25.1340 C   0  0  1  0  0  0  0  0  0  0  0  0
  -25.2850  -31.5350   26.1940 C   0  0  0  0  0  1  0  0  0  0  0  0
  -26.9740  -30.3890   24.7590 C   0  0  0  0  0  1  0  0  0  0  0  0
  -27.5310  -32.5660   25.8040 C   0  0  0  0  0  1  0  0  0  0  0  0
  2  4  2  0
  3  2  1  0
  3  5  2  0
  4  6  1  0
  4  1  1  0
  5  6  1  0
  6  8  1  0
  8  7  1  0
  9  8  1  0
 10 15  1  0
 11 12  1  0
 11 10  1  0
 13 12  1  0
 13 20  1  0
 13 14  1  0
 15  9  1  0
 15 14  1  0
 16  9  2  0
 17 18  2  0
 18 37  1  0
 19 18  1  0
 19 22  1  0
 20 17  1  0
 20 21  1  0
 21 19  2  0
 22 23  1  0
 23 24  2  0
 25 28  1  0
 25 24  1  0
 26 25  2  0
 27 26  1  0
 27 22  2  0
 28 29  1  0
 29 30  1  0
 30 31  2  0
 32 31  1  0
 32 36  1  0
 33 32  2  0
 34 29  2  0
 34 33  1  0
 35 34  1  0
 37 38  1  0
 38 41  1  0
 38 40  1  0
 39 37  2  0
 42 43  1  0
 42 17  1  0
 44 42  1  0
 45 46  1  0
 45  1  1  0
 47 48  1  0
 47 46  2  0
 49 60  2  0
 50 48  1  0
 50 55  1  0
 51 59  1  0
 51 61  1  0
 52 58  1  0
 52 54  1  0
 53 59  1  0
 54 55  2  0
 54 53  1  0
 56 50  2  0
 57 56  1  0
 57 52  2  0
 58 51  1  0
 59 49  1  0
 61 63  2  0
 62 61  1  0
 64 62  1  0
 65 74  2  0
 65 70  1  0
 66 62  1  0
 66 70  1  0
 67 66  1  0
 68 69  1  0
 68 67  1  0
 69 65  1  0
 70 71  2  0
 71 72  1  0
 73 72  2  0
 74 73  1  0
 75 49  1  0
 75 76  1  0
 75 85  1  0
 76 79  1  0
 77 81  1  0
 77 76  1  0
 78 77  2  0
 81 80  1  0
 83 81  1  0
 83 84  1  0
 83 82  1  0
 85 88  1  1
 85 86  1  0
 87 85  1  0
M  ISO  4   8 100   9 100  47 101  48 101
M  END
>  <TORSDO>  (17) 
F 21

>  <SCORE>  (17) 
-13.907

>  <name>  (17) 
16

>  <ligand_id>  (17) 
16

>  <original_smiles>  (17) 
[H]c1nn(C([H])(C(=O)N2C([H])([H])C([H])([H])C([H])([H])C([H])(n3nc(-c4c([H])c([H])c(Oc5c([H])c([H])c(F)c([H])c5F)c([H])c4[H])c(C(=O)N([H])[H])c3N([H])[H])C2([H])[H])C([H])([H])[H])c(C([H])([H])C([H])([H])C([H])([H])C([H])([H])Oc2c([H])c([H])c3c(c2[H])C([H])([H])N(C(=O)C([H])(N([H])C(=O)C([H])(N([H])C([H])([H])[H])C([H])([H])[H])C(C([H])([H])[H])(C([H])([H])[H])C([H])([H])[H])C([H])(C(=O)N([H])C2([H])c4c([H])c([H])c([H])c([H])c4C([H])([H])C([H])([H])C2([H])[H])C3([H])[H])c1[H]

>  <smiles>  (17) 
[H]c1nn(C([H])(C(=O)N2C([H])([H])C([H])([H])C([H])([H])C([H])(n3nc(-c4c([H])c([H])c(Oc5c([H])c([H])c(F)c([H])c5F)c([H])c4[H])c(C(=O)N([H])[H])c3N([H])[H])C2([H])[H])C([H])([H])[H])c(C([H])([H])C([H])([H])C([H])([H])C([H])([H])Oc2c([H])c([H])c3c(c2[H])C([H])([H])N(C(=O)C([H])(N([H])C(=O)C([H])(N([H])C([H])([H])[H])C([H])([H])[H])C(C([H])([H])[H])(C([H])([H])[H])C([H])([H])[H])C([H])(C(=O)N([H])C2([H])c4c([H])c([H])c([H])c([H])c4C([H])([H])C([H])([H])C2([H])[H])C3([H])[H])c1[H]

$$$$
17:0:0
     RDKit          3D

 95103  0  0  1  0  0  0  0  0999 V2000
  -28.7510  -21.7700   21.7590 C   0  0  0  0  0  3  0  0  0  0  0  0
  -29.2480  -22.4440   20.6650 C   0  0  0  0  0  0  0  0  0  0  0  0
  -29.6790  -20.1580   20.4840 C   0  0  0  0  0  3  0  0  0  0  0  0
  -29.7720  -21.3980   19.8670 N   0  0  0  0  0  0  0  0  0  0  0  0
  -29.0350  -20.4250   21.6260 N   0  0  0  0  0  0  0  0  0  0  0  0
  -28.8060  -19.7270   22.3220 H   0  0  0  0  0  0  0  0  0  0  0  0
  -30.0680  -20.6610   17.4310 C   0  0  0  0  0  1  0  0  0  0  0  0
  -31.9320  -21.8940   18.6870 C   0  0  0  0  0  1  0  0  0  0  0  0
  -30.4190  -21.6530   18.5530 C   0  0  0  0  0  3  0  0  0  0  0  0
  -29.3880  -24.0080   20.4400 C   0  0  0  0  0  3  0  0  0  0  0  0
  -28.1290  -24.9780   20.1980 C   0  0  0  0  0  3  0  0  0  0  0  0
  -28.3330  -26.4660   20.1970 O   0  0  0  0  0  0  0  0  0  0  0  0
  -24.5920  -31.8890   23.2240 C   0  0  0  0  0  0  0  0  0  0  0  0
  -27.2120  -27.3260   20.1510 C   0  0  0  0  0  0  0  0  0  0  0  0
  -23.3890  -30.4900   21.5830 C   0  0  0  0  0  3  0  0  0  0  0  0
  -24.8410  -28.9480   20.1460 C   0  0  0  0  0  0  0  0  0  0  0  0
  -25.9280  -30.8150   21.3920 C   0  0  0  0  0  2  0  0  0  0  0  0
  -26.0120  -29.4380   20.7390 C   0  0  0  0  0  0  0  0  0  0  0  0
  -27.2000  -28.6400   20.7250 C   0  0  0  0  0  3  0  0  0  0  0  0
  -26.0130  -26.8980   19.5330 C   0  0  0  0  0  3  0  0  0  0  0  0
  -24.8470  -27.6870   19.5320 C   0  0  0  0  0  3  0  0  0  0  0  0
  -23.6010  -29.8200   20.2010 C   0  0  0  0  0  2  0  0  0  0  0  0
  -24.6550  -31.0820   22.1230 N   0  0  0  0  0  0  0  0  0  0  0  0
  -23.5090  -32.1600   23.7630 O   0  0  0  0  0  0  0  0  0  0  0  0
  -22.7320  -29.4690   22.5430 C   0  0  0  0  0  0  0  0  0  0  0  0
  -21.4060  -29.2860   22.4190 N   0  0  0  0  0  0  0  0  0  0  0  0
  -23.4150  -28.8450   23.3590 O   0  0  0  0  0  0  0  0  0  0  0  0
  -20.9140  -29.8420   21.7340 H   0  0  0  0  0  0  0  0  0  0  0  0
  -18.0350  -28.0720   22.9260 C   0  0  0  0  0  0  0  0  0  0  0  0
  -20.5930  -28.3430   23.1890 C   0  0  0  0  0  3  0  0  0  0  0  0
  -20.7010  -26.9140   22.6100 C   0  0  0  0  0  2  0  0  0  0  0  0
  -19.5970  -26.5890   21.5980 C   0  0  0  0  0  2  0  0  0  0  0  0
  -18.2160  -26.7250   22.2460 C   0  0  0  0  0  2  0  0  0  0  0  0
  -19.1510  -28.8380   23.3550 C   0  0  0  0  0  0  0  0  0  0  0  0
  -18.9270  -30.0980   23.9530 C   0  0  0  0  0  3  0  0  0  0  0  0
  -17.6210  -30.5910   24.1250 C   0  0  0  0  0  3  0  0  0  0  0  0
  -16.5190  -29.8230   23.7120 C   0  0  0  0  0  3  0  0  0  0  0  0
  -16.7280  -28.5640   23.1180 C   0  0  0  0  0  3  0  0  0  0  0  0
  -25.8740  -32.5250   23.8440 C   0  0  0  0  0  3  0  0  0  0  0  0
  -25.5620  -33.9240   24.1720 N   0  0  0  0  0  0  0  0  0  0  0  0
  -25.8970  -34.9770   23.4150 C   0  0  0  0  0  0  0  0  0  0  0  0
  -26.5680  -34.8740   22.3850 O   0  0  0  0  0  0  0  0  0  0  0  0
  -24.9660  -34.0780   24.9730 H   0  0  0  0  0  0  0  0  0  0  0  0
  -24.1730  -36.7740   23.0530 C   0  0  0  0  0  1  0  0  0  0  0  0
  -25.4090  -36.3660   23.8710 C   0  0  0  0  0  3  0  0  0  0  0  0
  -27.5390  -37.2460   24.7160 C   0  0  0  0  0  1  0  0  0  0  0  0
  -26.4430  -37.4180   23.7660 N   0  0  0  0  0  0  0  0  0  0  0  0
  -26.0380  -38.3380   23.9120 H   0  0  0  0  0  0  0  0  0  0  0  0
  -26.3910  -31.7590   25.1230 C   0  0  1  0  0  0  0  0  0  0  0  0
  -25.2990  -31.5240   26.1920 C   0  0  0  0  0  1  0  0  0  0  0  0
  -26.9740  -30.3790   24.7370 C   0  0  0  0  0  1  0  0  0  0  0  0
  -27.5420  -32.5560   25.7810 C   0  0  0  0  0  1  0  0  0  0  0  0
  -30.1840  -18.7170   20.0360 C   0  0  0  0  0  3  0  0  0  0  0  0
  -31.6260  -18.6780   19.8780 N   0  0  0  0  0  0  0  0  0  0  0  0
  -32.0170  -18.0020   20.5230 H   0  0  0  0  0  0  0  0  0  0  0  0
  -32.0190  -19.5670   20.1630 H   0  0  0  0  0  0  0  0  0  0  0  0
  -29.8490  -17.3430   20.8430 C   0  0  0  0  0  2  0  0  0  0  0  0
  -30.6320  -14.8460   20.3140 C   0  0  0  0  0  0  0  0  0  0  0  0
  -30.4470  -12.5350   19.3710 C   0  0  0  0  0  2  0  0  0  0  0  0
  -29.5240  -12.5230   18.1320 C   0  0  0  0  0  2  0  0  0  0  0  0
  -28.0370  -12.4310   18.5400 C   0  0  0  0  0  2  0  0  0  0  0  0
  -27.6460  -13.3390   19.7390 C   0  0  0  0  0  3  0  0  0  0  0  0
  -28.6990  -13.2910   20.8660 C   0  0  0  0  0  2  0  0  0  0  0  0
  -29.9950  -13.6240   20.2620 N   0  0  0  0  0  0  0  0  0  0  0  0
  -31.8590  -14.9050   20.2060 O   0  0  0  0  0  0  0  0  0  0  0  0
  -29.4000  -16.1980   18.7230 C   0  0  0  0  0  1  0  0  0  0  0  0
  -29.8590  -15.9930   20.1050 N   0  0  0  0  0  0  0  0  0  0  0  0
  -25.2600  -13.9550   20.4440 C   0  0  0  0  0  0  0  0  0  0  0  0
  -24.1820  -13.1910   20.7950 C   0  0  0  0  0  0  0  0  0  0  0  0
  -24.6370  -11.8360   20.7770 C   0  0  0  0  0  0  0  0  0  0  0  0
  -26.2990  -13.0650   20.2240 N   0  0  0  0  0  0  0  0  0  0  0  0
  -25.9320  -11.7870   20.4920 N   0  0  0  0  0  0  0  0  0  0  0  0
  -23.9000  -10.5800   20.9550 C   0  0  0  0  0  0  0  0  0  0  0  0
  -24.3180   -9.6060   21.8900 C   0  0  0  0  0  3  0  0  0  0  0  0
  -23.5820   -8.4140   22.0560 C   0  0  0  0  0  3  0  0  0  0  0  0
  -22.4160   -8.1860   21.2880 C   0  0  0  0  0  0  0  0  0  0  0  0
  -22.0190   -9.1470   20.3410 C   0  0  0  0  0  3  0  0  0  0  0  0
  -22.7550  -10.3320   20.1730 C   0  0  0  0  0  3  0  0  0  0  0  0
  -21.6530   -7.0460   21.3640 O   0  0  0  0  0  0  0  0  0  0  0  0
  -21.5900   -6.2980   22.5120 C   0  0  0  0  0  0  0  0  0  0  0  0
  -21.1600   -6.8490   23.7380 C   0  0  0  0  0  3  0  0  0  0  0  0
  -21.0440   -6.0280   24.8770 C   0  0  0  0  0  3  0  0  0  0  0  0
  -21.3490   -4.6570   24.7910 C   0  0  0  0  0  0  0  0  0  0  0  0
  -21.7720   -4.1040   23.5690 C   0  0  0  0  0  3  0  0  0  0  0  0
  -21.8900   -4.9230   22.4320 C   0  0  0  0  0  0  0  0  0  0  0  0
  -22.2780   -4.3820   21.2530 F   0  0  0  0  0  0  0  0  0  0  0  0
  -21.2300   -3.8650   25.8820 F   0  0  0  0  0  0  0  0  0  0  0  0
  -22.7840  -13.6790   21.0390 C   0  0  0  0  0  0  0  0  0  0  0  0
  -22.0350  -12.9890   21.8930 N   0  0  0  0  0  0  0  0  0  0  0  0
  -22.3630  -14.7050   20.5090 O   0  0  0  0  0  0  0  0  0  0  0  0
  -22.3890  -12.1580   22.3440 H   0  0  0  0  0  0  0  0  0  0  0  0
  -21.0960  -13.2960   22.0980 H   0  0  0  0  0  0  0  0  0  0  0  0
  -25.4390  -15.3250   20.2670 N   0  0  0  0  0  0  0  0  0  0  0  0
  -24.6800  -15.9900   20.3700 H   0  0  0  0  0  0  0  0  0  0  0  0
  -26.3070  -15.7560   19.9740 H   0  0  0  0  0  0  0  0  0  0  0  0
  2  1  2  0
  3 53  1  0
  3  5  1  0
  4  3  1  0
  4  2  1  0
  5  1  1  0
  5  6  1  0
  7  9  1  0
  9  8  1  0
  9  4  1  0
 10  2  1  0
 11 10  2  0
 12 11  1  0
 13 24  2  0
 14 12  1  0
 14 19  1  0
 15 23  1  0
 15 25  1  0
 16 22  1  0
 16 18  1  0
 17 23  1  0
 18 17  1  0
 19 18  2  0
 20 14  2  0
 21 20  1  0
 21 16  2  0
 22 15  1  0
 23 13  1  0
 25 27  2  0
 26 25  1  0
 28 26  1  0
 29 38  2  0
 29 34  1  0
 30 26  1  0
 30 34  1  0
 31 30  1  0
 32 33  1  0
 32 31  1  0
 33 29  1  0
 34 35  2  0
 35 36  1  0
 37 36  2  0
 38 37  1  0
 39 13  1  0
 39 40  1  0
 39 49  1  0
 40 43  1  0
 41 45  1  0
 41 40  1  0
 42 41  2  0
 45 44  1  0
 47 45  1  0
 47 48  1  0
 47 46  1  0
 49 52  1  1
 49 50  1  0
 51 49  1  0
 53 57  1  0
 54 53  1  0
 54 56  1  0
 54 55  1  0
 59 64  1  0
 60 61  1  0
 60 59  1  0
 62 61  1  0
 62 71  1  0
 62 63  1  0
 64 58  1  0
 64 63  1  0
 65 58  2  0
 66 67  1  0
 67 58  1  0
 67 57  1  0
 68 69  2  0
 69 88  1  0
 70 69  1  0
 70 73  1  0
 71 68  1  0
 71 72  1  0
 72 70  2  0
 73 74  1  0
 74 75  2  0
 76 79  1  0
 76 75  1  0
 77 76  2  0
 78 77  1  0
 78 73  2  0
 79 80  1  0
 80 81  1  0
 81 82  2  0
 83 82  1  0
 83 87  1  0
 84 83  2  0
 85 80  2  0
 85 84  1  0
 86 85  1  0
 88 89  1  0
 89 92  1  0
 89 91  1  0
 90 88  2  0
 93 94  1  0
 93 68  1  0
 95 93  1  0
M  ISO  4  11 101  12 101  58 100  67 100
M  END
>  <TORSDO>  (18) 
F 22

>  <SCORE>  (18) 
-13.260

>  <name>  (18) 
17

>  <ligand_id>  (18) 
17

>  <original_smiles>  (18) 
[H]c1c([H])c([H])c2c(c1[H])C([H])([H])C([H])([H])C([H])([H])C2([H])N([H])C(=O)C1([H])N(C(=O)C([H])(N([H])C(=O)C([H])(N([H])C([H])([H])[H])C([H])([H])[H])C(C([H])([H])[H])(C([H])([H])[H])C([H])([H])[H])C([H])([H])c2c([H])c(OC([H])([H])C([H])([H])c3c([H])[n+]([H])c(C([H])(N([H])[H])C([H])([H])N(C(=O)N4C([H])([H])C([H])([H])C([H])([H])C([H])(n5nc(-c6c([H])c([H])c(Oc7c([H])c([H])c(F)c([H])c7F)c([H])c6[H])c(C(=O)N([H])[H])c5N([H])[H])C4([H])[H])C([H])([H])[H])n3C([H])(C([H])([H])[H])C([H])([H])[H])c([H])c([H])c2C1([H])[H]

>  <smiles>  (18) 
[H]c1c([H])c([H])c2c(c1[H])C([H])([H])C([H])([H])C([H])([H])C2([H])N([H])C(=O)C1([H])N(C(=O)C([H])(N([H])C(=O)C([H])(N([H])C([H])([H])[H])C([H])([H])[H])C(C([H])([H])[H])(C([H])([H])[H])C([H])([H])[H])C([H])([H])c2c([H])c(OC([H])([H])C([H])([H])c3c([H])[n+]([H])c(C([H])(N([H])[H])C([H])([H])N(C(=O)N4C([H])([H])C([H])([H])C([H])([H])C([H])(n5nc(-c6c([H])c([H])c(Oc7c([H])c([H])c(F)c([H])c7F)c([H])c6[H])c(C(=O)N([H])[H])c5N([H])[H])C4([H])[H])C([H])([H])[H])n3C([H])(C([H])([H])[H])C([H])([H])[H])c([H])c([H])c2C1([H])[H]

$$$$
18:0:0
     RDKit          3D

 93101  0  0  1  0  0  0  0  0999 V2000
  -27.4080  -22.8210   22.3740 C   0  0  0  0  0  3  0  0  0  0  0  0
  -27.4460  -24.9890   21.6040 C   0  0  0  0  0  3  0  0  0  0  0  0
  -28.3330  -22.4370   21.3740 C   0  0  0  0  0  0  0  0  0  0  0  0
  -28.3620  -24.6240   20.5840 C   0  0  0  0  0  0  0  0  0  0  0  0
  -26.9650  -24.0920   22.4950 N   0  0  0  0  0  0  0  0  0  0  0  0
  -28.8140  -23.3420   20.4730 N   0  0  0  0  0  0  0  0  0  0  0  0
  -28.8010  -20.9780   21.2860 C   0  0  0  0  0  2  0  0  0  0  0  0
  -27.6360  -20.8380   19.0820 C   0  0  0  0  0  1  0  0  0  0  0  0
  -28.7700  -20.3740   19.9230 N   0  0  2  0  0  4  0  0  0  0  0  0
  -29.5980  -20.7230   19.4630 H   0  0  0  0  0  0  0  0  0  0  0  0
  -28.8320  -18.8750   19.9080 C   0  0  0  0  0  2  0  0  0  0  0  0
  -29.9350  -18.1750   20.7860 C   0  0  0  0  0  2  0  0  0  0  0  0
  -30.9810  -17.0730   20.3710 C   0  0  0  0  0  2  0  0  0  0  0  0
  -31.4680  -14.6370   20.4600 C   0  0  0  0  0  0  0  0  0  0  0  0
  -31.1540  -12.4120   19.4570 C   0  0  0  0  0  2  0  0  0  0  0  0
  -30.2620  -12.5750   18.2090 C   0  0  0  0  0  2  0  0  0  0  0  0
  -28.7700  -12.5070   18.5910 C   0  0  0  0  0  2  0  0  0  0  0  0
  -28.4170  -13.4370   19.7840 C   0  0  0  0  0  3  0  0  0  0  0  0
  -29.4220  -13.2490   20.9440 C   0  0  0  0  0  2  0  0  0  0  0  0
  -30.7800  -13.4650   20.4130 N   0  0  0  0  0  0  0  0  0  0  0  0
  -32.5980  -14.7810   19.9830 O   0  0  0  0  0  0  0  0  0  0  0  0
  -30.7460  -15.6960   20.8580 N   0  0  0  0  0  0  0  0  0  0  0  0
  -29.8460  -15.4880   21.2660 H   0  0  0  0  0  0  0  0  0  0  0  0
  -26.0430  -14.1810   20.4520 C   0  0  0  0  0  0  0  0  0  0  0  0
  -24.9230  -13.4700   20.7890 C   0  0  0  0  0  0  0  0  0  0  0  0
  -25.3030  -12.0920   20.7430 C   0  0  0  0  0  0  0  0  0  0  0  0
  -27.0380  -13.2410   20.2270 N   0  0  0  0  0  0  0  0  0  0  0  0
  -26.5930  -11.9800   20.4570 N   0  0  0  0  0  0  0  0  0  0  0  0
  -24.5000  -10.8740   20.8980 C   0  0  0  0  0  0  0  0  0  0  0  0
  -24.8410   -9.8810   21.8430 C   0  0  0  0  0  3  0  0  0  0  0  0
  -24.0440   -8.7250   21.9860 C   0  0  0  0  0  3  0  0  0  0  0  0
  -22.8920   -8.5540   21.1830 C   0  0  0  0  0  0  0  0  0  0  0  0
  -22.5700   -9.5350   20.2270 C   0  0  0  0  0  3  0  0  0  0  0  0
  -23.3680  -10.6820   20.0820 C   0  0  0  0  0  3  0  0  0  0  0  0
  -22.0740   -7.4520   21.2330 O   0  0  0  0  0  0  0  0  0  0  0  0
  -21.9010   -6.7350   22.3900 C   0  0  0  0  0  0  0  0  0  0  0  0
  -21.4130   -7.3340   23.5720 C   0  0  0  0  0  3  0  0  0  0  0  0
  -21.1850   -6.5470   24.7180 C   0  0  0  0  0  3  0  0  0  0  0  0
  -21.4340   -5.1630   24.6840 C   0  0  0  0  0  0  0  0  0  0  0  0
  -21.9150   -4.5630   23.5060 C   0  0  0  0  0  3  0  0  0  0  0  0
  -22.1450   -5.3470   22.3620 C   0  0  0  0  0  0  0  0  0  0  0  0
  -22.5880   -4.7600   21.2240 F   0  0  0  0  0  0  0  0  0  0  0  0
  -21.2080   -4.4050   25.7810 F   0  0  0  0  0  0  0  0  0  0  0  0
  -23.5530  -14.0250   21.0440 C   0  0  0  0  0  0  0  0  0  0  0  0
  -22.7750  -13.3680   21.8950 N   0  0  0  0  0  0  0  0  0  0  0  0
  -23.1830  -15.0780   20.5230 O   0  0  0  0  0  0  0  0  0  0  0  0
  -23.0900  -12.5160   22.3350 H   0  0  0  0  0  0  0  0  0  0  0  0
  -21.8530  -13.7210   22.1090 H   0  0  0  0  0  0  0  0  0  0  0  0
  -26.2940  -15.5410   20.2970 N   0  0  0  0  0  0  0  0  0  0  0  0
  -25.5480  -16.2260   20.3590 H   0  0  0  0  0  0  0  0  0  0  0  0
  -27.1460  -15.9100   19.8990 H   0  0  0  0  0  0  0  0  0  0  0  0
  -28.8910  -25.6390   19.5600 C   0  0  0  0  0  2  0  0  0  0  0  0
  -28.7770  -27.0230   19.9320 O   0  0  0  0  0  0  0  0  0  0  0  0
  -24.6640  -31.7740   23.2380 C   0  0  0  0  0  0  0  0  0  0  0  0
  -27.5510  -27.6600   19.9230 C   0  0  0  0  0  0  0  0  0  0  0  0
  -23.5460  -30.4330   21.4870 C   0  0  0  0  0  3  0  0  0  0  0  0
  -25.0860  -29.0510   19.9960 C   0  0  0  0  0  0  0  0  0  0  0  0
  -26.0550  -30.9110   21.3590 C   0  0  0  0  0  2  0  0  0  0  0  0
  -26.2090  -29.5890   20.6340 C   0  0  0  0  0  0  0  0  0  0  0  0
  -27.4420  -28.9000   20.5930 C   0  0  0  0  0  3  0  0  0  0  0  0
  -26.4020  -27.1300   19.2910 C   0  0  0  0  0  3  0  0  0  0  0  0
  -25.1760  -27.8210   19.3250 C   0  0  0  0  0  3  0  0  0  0  0  0
  -23.8060  -29.8510   20.0710 C   0  0  0  0  0  2  0  0  0  0  0  0
  -24.7720  -31.0500   22.0890 N   0  0  0  0  0  0  0  0  0  0  0  0
  -23.5640  -31.9650   23.7750 O   0  0  0  0  0  0  0  0  0  0  0  0
  -22.9220  -29.3270   22.3690 C   0  0  0  0  0  0  0  0  0  0  0  0
  -21.6080  -29.1060   22.2100 N   0  0  0  0  0  0  0  0  0  0  0  0
  -23.6190  -28.6740   23.1500 O   0  0  0  0  0  0  0  0  0  0  0  0
  -21.1060  -29.6880   21.5530 H   0  0  0  0  0  0  0  0  0  0  0  0
  -18.2730  -27.7660   22.5880 C   0  0  0  0  0  0  0  0  0  0  0  0
  -20.8190  -28.0860   22.9000 C   0  0  0  0  0  3  0  0  0  0  0  0
  -20.9730  -26.7070   22.2170 C   0  0  0  0  0  2  0  0  0  0  0  0
  -19.8870  -26.4260   21.1740 C   0  0  0  0  0  2  0  0  0  0  0  0
  -18.4990  -26.4760   21.8200 C   0  0  0  0  0  2  0  0  0  0  0  0
  -19.3630  -28.5300   23.0820 C   0  0  0  0  0  0  0  0  0  0  0  0
  -19.1000  -29.7400   23.7600 C   0  0  0  0  0  3  0  0  0  0  0  0
  -17.7790  -30.1890   23.9450 C   0  0  0  0  0  3  0  0  0  0  0  0
  -16.7030  -29.4210   23.4690 C   0  0  0  0  0  3  0  0  0  0  0  0
  -16.9500  -28.2110   22.7980 C   0  0  0  0  0  3  0  0  0  0  0  0
  -25.9120  -32.4160   23.9210 C   0  0  0  0  0  3  0  0  0  0  0  0
  -25.5680  -33.8050   24.2560 N   0  0  0  0  0  0  0  0  0  0  0  0
  -25.9140  -34.8710   23.5230 C   0  0  0  0  0  0  0  0  0  0  0  0
  -26.6270  -34.7910   22.5190 O   0  0  0  0  0  0  0  0  0  0  0  0
  -24.9400  -33.9390   25.0340 H   0  0  0  0  0  0  0  0  0  0  0  0
  -24.1650  -36.6330   23.1270 C   0  0  0  0  0  1  0  0  0  0  0  0
  -25.3860  -36.2450   23.9760 C   0  0  0  0  0  3  0  0  0  0  0  0
  -27.4730  -37.1610   24.8870 C   0  0  0  0  0  1  0  0  0  0  0  0
  -26.4010  -37.3180   23.9080 N   0  0  0  0  0  0  0  0  0  0  0  0
  -25.9730  -38.2290   24.0510 H   0  0  0  0  0  0  0  0  0  0  0  0
  -26.3920  -31.6340   25.2050 C   0  0  1  0  0  0  0  0  0  0  0  0
  -25.2550  -31.3370   26.2110 C   0  0  0  0  0  1  0  0  0  0  0  0
  -27.0360  -30.2850   24.8110 C   0  0  0  0  0  1  0  0  0  0  0  0
  -27.4830  -32.4470   25.9400 C   0  0  0  0  0  1  0  0  0  0  0  0
  1  5  1  0
  2  5  2  0
  3  1  2  0
  4  2  1  0
  6  4  2  0
  6  3  1  0
  7  3  1  0
  8  9  1  0
  9  7  1  0
  9 10  1  6
 11  9  1  0
 11 12  1  0
 13 12  1  0
 13 22  1  0
 14 22  1  0
 15 20  1  0
 16 17  1  0
 16 15  1  0
 18 17  1  0
 18 27  1  0
 18 19  1  0
 20 14  1  0
 20 19  1  0
 21 14  2  0
 22 23  1  0
 24 25  2  0
 25 44  1  0
 26 25  1  0
 26 29  1  0
 27 24  1  0
 27 28  1  0
 28 26  2  0
 29 30  1  0
 30 31  2  0
 32 35  1  0
 32 31  1  0
 33 32  2  0
 34 33  1  0
 34 29  2  0
 35 36  1  0
 36 37  1  0
 37 38  2  0
 39 38  1  0
 39 43  1  0
 40 39  2  0
 41 36  2  0
 41 40  1  0
 42 41  1  0
 44 45  1  0
 45 48  1  0
 45 47  1  0
 46 44  2  0
 49 50  1  0
 49 24  1  0
 51 49  1  0
 52 53  1  0
 52  4  1  0
 54 65  2  0
 55 53  1  0
 55 60  1  0
 56 64  1  0
 56 66  1  0
 57 63  1  0
 57 59  1  0
 58 64  1  0
 59 58  1  0
 60 59  2  0
 61 62  1  0
 61 55  2  0
 62 57  2  0
 63 56  1  0
 64 54  1  0
 66 68  2  0
 67 66  1  0
 69 67  1  0
 70 79  2  0
 70 75  1  0
 71 67  1  0
 71 75  1  0
 72 71  1  0
 73 74  1  0
 73 72  1  0
 74 70  1  0
 75 76  2  0
 76 77  1  0
 78 77  2  0
 79 78  1  0
 80 54  1  0
 80 81  1  0
 80 90  1  0
 81 84  1  0
 82 86  1  0
 82 81  1  0
 83 82  2  0
 86 85  1  0
 88 86  1  0
 88 89  1  0
 88 87  1  0
 90 93  1  1
 90 91  1  0
 92 90  1  0
M  ISO  4  14 100  22 100  52 101  53 101
M  END
>  <TORSDO>  (19) 
F 22

>  <SCORE>  (19) 
-11.393

>  <name>  (19) 
18

>  <ligand_id>  (19) 
18

>  <original_smiles>  (19) 
[H]c1nc([H])c(C([H])([H])[N+]([H])(C([H])([H])[H])C([H])([H])C([H])([H])C([H])([H])N([H])C(=O)N2C([H])([H])C([H])([H])C([H])([H])C([H])(n3nc(-c4c([H])c([H])c(Oc5c([H])c([H])c(F)c([H])c5F)c([H])c4[H])c(C(=O)N([H])[H])c3N([H])[H])C2([H])[H])nc1C([H])([H])Oc1c([H])c([H])c2c(c1[H])C([H])([H])N(C(=O)C([H])(N([H])C(=O)C([H])(N([H])C([H])([H])[H])C([H])([H])[H])C(C([H])([H])[H])(C([H])([H])[H])C([H])([H])[H])C([H])(C(=O)N([H])C1([H])c3c([H])c([H])c([H])c([H])c3C([H])([H])C([H])([H])C1([H])[H])C2([H])[H]

>  <smiles>  (19) 
[H]c1nc([H])c(C([H])([H])[N+]([H])(C([H])([H])[H])C([H])([H])C([H])([H])C([H])([H])N([H])C(=O)N2C([H])([H])C([H])([H])C([H])([H])C([H])(n3nc(-c4c([H])c([H])c(Oc5c([H])c([H])c(F)c([H])c5F)c([H])c4[H])c(C(=O)N([H])[H])c3N([H])[H])C2([H])[H])nc1C([H])([H])Oc1c([H])c([H])c2c(c1[H])C([H])([H])N(C(=O)C([H])(N([H])C(=O)C([H])(N([H])C([H])([H])[H])C([H])([H])[H])C(C([H])([H])[H])(C([H])([H])[H])C([H])([H])[H])C([H])(C(=O)N([H])C1([H])c3c([H])c([H])c([H])c([H])c3C([H])([H])C([H])([H])C1([H])[H])C2([H])[H]

$$$$
19:0:0
     RDKit          3D

 90 98  0  0  1  0  0  0  0  0999 V2000
  -28.9930  -22.6070   21.7850 C   0  0  0  0  0  3  0  0  0  0  0  0
  -28.6890  -22.7550   20.4160 C   0  0  0  0  0  3  0  0  0  0  0  0
  -29.2970  -20.1440   20.3980 C   0  0  0  0  0  0  0  0  0  0  0  0
  -29.3790  -21.4250   22.3720 N   0  0  0  0  0  0  0  0  0  0  0  0
  -28.8830  -21.4140   19.7560 N   0  0  0  0  0  0  0  0  0  0  0  0
  -29.5240  -20.2440   21.7190 N   0  0  0  0  0  2  0  0  0  0  0  0
  -27.9210  -24.3060   19.9040 C   0  0  2  0  0  0  0  0  0  0  0  0
  -26.6450  -23.9920   20.2460 F   0  0  0  0  0  0  0  0  0  0  0  0
  -27.9730  -24.2310   18.5490 F   0  0  0  0  0  0  0  0  0  0  0  0
  -28.1150  -25.7980   20.2690 O   0  0  0  0  0  0  0  0  0  0  0  0
  -24.6140  -31.9210   23.1990 C   0  0  0  0  0  0  0  0  0  0  0  0
  -27.1440  -26.9670   20.1550 C   0  0  0  0  0  0  0  0  0  0  0  0
  -23.4080  -30.5150   21.5830 C   0  0  0  0  0  3  0  0  0  0  0  0
  -24.8480  -28.9080   20.1340 C   0  0  0  0  0  0  0  0  0  0  0  0
  -25.9770  -30.7110   21.4120 C   0  0  0  0  0  2  0  0  0  0  0  0
  -26.0430  -29.2930   20.7530 C   0  0  0  0  0  0  0  0  0  0  0  0
  -27.1760  -28.3420   20.7470 C   0  0  0  0  0  3  0  0  0  0  0  0
  -25.9260  -26.7800   19.4570 C   0  0  0  0  0  3  0  0  0  0  0  0
  -24.8210  -27.6760   19.4630 C   0  0  0  0  0  3  0  0  0  0  0  0
  -23.6260  -29.8300   20.2030 C   0  0  0  0  0  2  0  0  0  0  0  0
  -24.6890  -31.0790   22.1160 N   0  0  0  0  0  0  0  0  0  0  0  0
  -23.5290  -32.2080   23.7330 O   0  0  0  0  0  0  0  0  0  0  0  0
  -22.7270  -29.5200   22.5620 C   0  0  0  0  0  0  0  0  0  0  0  0
  -21.4000  -29.3300   22.4400 N   0  0  0  0  0  0  0  0  0  0  0  0
  -23.4040  -28.9210   23.4010 O   0  0  0  0  0  0  0  0  0  0  0  0
  -20.9050  -29.8650   21.7410 H   0  0  0  0  0  0  0  0  0  0  0  0
  -18.0440  -28.0450   22.9680 C   0  0  0  0  0  0  0  0  0  0  0  0
  -20.5970  -28.3840   23.2250 C   0  0  0  0  0  3  0  0  0  0  0  0
  -20.7350  -26.9460   22.6720 C   0  0  0  0  0  2  0  0  0  0  0  0
  -19.6420  -26.5800   21.6620 C   0  0  0  0  0  2  0  0  0  0  0  0
  -18.2570  -26.6940   22.3060 C   0  0  0  0  0  2  0  0  0  0  0  0
  -19.1430  -28.8450   23.3860 C   0  0  0  0  0  0  0  0  0  0  0  0
  -18.8860  -30.1040   23.9700 C   0  0  0  0  0  3  0  0  0  0  0  0
  -17.5670  -30.5670   24.1380 C   0  0  0  0  0  3  0  0  0  0  0  0
  -16.4850  -29.7660   23.7340 C   0  0  0  0  0  3  0  0  0  0  0  0
  -16.7240  -28.5070   23.1550 C   0  0  0  0  0  3  0  0  0  0  0  0
  -25.8860  -32.5780   23.8140 C   0  0  0  0  0  3  0  0  0  0  0  0
  -25.5640  -33.9800   24.1410 N   0  0  0  0  0  0  0  0  0  0  0  0
  -25.8960  -35.0410   23.3930 C   0  0  0  0  0  0  0  0  0  0  0  0
  -26.5660  -34.9440   22.3630 O   0  0  0  0  0  0  0  0  0  0  0  0
  -24.9670  -34.1280   24.9410 H   0  0  0  0  0  0  0  0  0  0  0  0
  -24.1830  -36.8550   23.0420 C   0  0  0  0  0  1  0  0  0  0  0  0
  -25.4120  -36.4300   23.8610 C   0  0  0  0  0  3  0  0  0  0  0  0
  -27.5340  -37.3070   24.7360 C   0  0  0  0  0  1  0  0  0  0  0  0
  -26.4520  -37.4800   23.7710 N   0  0  0  0  0  0  0  0  0  0  0  0
  -26.0460  -38.4020   23.9100 H   0  0  0  0  0  0  0  0  0  0  0  0
  -26.4060  -31.8300   25.1050 C   0  0  1  0  0  0  0  0  0  0  0  0
  -25.3120  -31.5980   26.1740 C   0  0  0  0  0  1  0  0  0  0  0  0
  -27.0060  -30.4520   24.7450 C   0  0  0  0  0  1  0  0  0  0  0  0
  -27.5460  -32.6460   25.7580 C   0  0  0  0  0  1  0  0  0  0  0  0
  -29.2180  -18.5260   18.2980 C   0  0  0  0  0  1  0  0  0  0  0  0
  -29.7920  -18.5540   19.7210 C   0  0  0  0  0  0  0  0  0  0  0  0
  -30.5110  -15.6090   20.0100 C   0  0  0  0  0  0  0  0  0  0  0  0
  -30.5240  -13.1230   19.1670 C   0  0  0  0  0  2  0  0  0  0  0  0
  -29.5710  -12.8510   17.9700 C   0  0  0  0  0  2  0  0  0  0  0  0
  -28.1540  -12.5280   18.4670 C   0  0  0  0  0  2  0  0  0  0  0  0
  -27.7160  -13.4890   19.5980 C   0  0  0  0  0  3  0  0  0  0  0  0
  -28.7980  -13.7040   20.6820 C   0  0  0  0  0  2  0  0  0  0  0  0
  -29.9800  -14.2690   20.0060 N   0  0  0  0  0  0  0  0  0  0  0  0
  -31.7030  -15.6030   19.6650 O   0  0  0  0  0  0  0  0  0  0  0  0
  -29.7520  -16.9050   20.2020 N   0  0  0  0  0  4  0  0  0  0  0  0
  -28.8500  -16.7070   20.6070 H   0  0  0  0  0  0  0  0  0  0  0  0
  -25.3890  -13.9990   20.4940 C   0  0  0  0  0  0  0  0  0  0  0  0
  -24.3490  -13.2050   20.8840 C   0  0  0  0  0  0  0  0  0  0  0  0
  -24.8140  -11.8580   20.7740 C   0  0  0  0  0  0  0  0  0  0  0  0
  -26.4180  -13.1390   20.1620 N   0  0  0  0  0  0  0  0  0  0  0  0
  -26.0900  -11.8410   20.3970 N   0  0  0  0  0  0  0  0  0  0  0  0
  -24.0960  -10.5880   20.9480 C   0  0  0  0  0  0  0  0  0  0  0  0
  -24.5330   -9.6100   21.8690 C   0  0  0  0  0  3  0  0  0  0  0  0
  -23.8120   -8.4080   22.0330 C   0  0  0  0  0  3  0  0  0  0  0  0
  -22.6390   -8.1750   21.2780 C   0  0  0  0  0  0  0  0  0  0  0  0
  -22.2200   -9.1420   20.3460 C   0  0  0  0  0  3  0  0  0  0  0  0
  -22.9430  -10.3350   20.1790 C   0  0  0  0  0  3  0  0  0  0  0  0
  -21.8890   -7.0260   21.3520 O   0  0  0  0  0  0  0  0  0  0  0  0
  -21.8040   -6.2950   22.5110 C   0  0  0  0  0  0  0  0  0  0  0  0
  -21.2820   -6.8440   23.7010 C   0  0  0  0  0  3  0  0  0  0  0  0
  -21.1480   -6.0370   24.8490 C   0  0  0  0  0  3  0  0  0  0  0  0
  -21.5270   -4.6830   24.8060 C   0  0  0  0  0  0  0  0  0  0  0  0
  -22.0430   -4.1330   23.6200 C   0  0  0  0  0  3  0  0  0  0  0  0
  -22.1780   -4.9370   22.4740 C   0  0  0  0  0  0  0  0  0  0  0  0
  -22.6550   -4.3970   21.3280 F   0  0  0  0  0  0  0  0  0  0  0  0
  -21.3920   -3.9050   25.9060 F   0  0  0  0  0  0  0  0  0  0  0  0
  -22.9660  -13.6680   21.2370 C   0  0  0  0  0  0  0  0  0  0  0  0
  -22.2780  -12.9370   22.1060 N   0  0  0  0  0  0  0  0  0  0  0  0
  -22.5080  -14.7150   20.7800 O   0  0  0  0  0  0  0  0  0  0  0  0
  -22.6640  -12.0900   22.4970 H   0  0  0  0  0  0  0  0  0  0  0  0
  -21.3520  -13.2300   22.3860 H   0  0  0  0  0  0  0  0  0  0  0  0
  -25.5390  -15.3770   20.3620 N   0  0  0  0  0  0  0  0  0  0  0  0
  -24.7710  -16.0190   20.5280 H   0  0  0  0  0  0  0  0  0  0  0  0
  -26.3520  -15.8280   19.9660 H   0  0  0  0  0  0  0  0  0  0  0  0
  1  4  2  0
  2  7  1  0
  2  1  1  0
  3  6  1  0
  5  3  2  0
  5  2  1  0
  6  4  1  0
  7  8  1  6
  7 10  1  0
  9  7  1  0
 11 22  2  0
 12 10  1  0
 12 17  1  0
 13 21  1  0
 13 23  1  0
 14 20  1  0
 14 16  1  0
 15 21  1  0
 16 15  1  0
 17 16  2  0
 18 19  1  0
 18 12  2  0
 19 14  2  0
 20 13  1  0
 21 11  1  0
 23 25  2  0
 24 23  1  0
 26 24  1  0
 27 36  2  0
 27 32  1  0
 28 24  1  0
 28 32  1  0
 29 28  1  0
 30 31  1  0
 30 29  1  0
 31 27  1  0
 32 33  2  0
 33 34  1  0
 35 34  2  0
 36 35  1  0
 37 11  1  0
 37 38  1  0
 37 47  1  0
 38 41  1  0
 39 43  1  0
 39 38  1  0
 40 39  2  0
 43 42  1  0
 45 43  1  0
 45 46  1  0
 45 44  1  0
 47 50  1  1
 47 48  1  0
 49 47  1  0
 51 52  1  0
 52 61  2  3
 52  3  1  0
 53 61  1  0
 54 59  1  0
 55 56  1  0
 55 54  1  0
 57 56  1  0
 57 66  1  0
 57 58  1  0
 59 53  1  0
 59 58  1  0
 60 53  2  0
 61 62  1  0
 63 64  2  0
 64 83  1  0
 65 64  1  0
 65 68  1  0
 66 67  1  0
 66 63  1  0
 67 65  2  0
 68 69  1  0
 69 70  2  0
 71 74  1  0
 71 70  1  0
 72 71  2  0
 73 72  1  0
 73 68  2  0
 74 75  1  0
 75 76  1  0
 76 77  2  0
 78 77  1  0
 78 82  1  0
 79 78  2  0
 80 75  2  0
 80 79  1  0
 81 80  1  0
 83 84  1  0
 84 87  1  0
 84 86  1  0
 85 83  2  0
 88 63  1  0
 88 89  1  0
 90 88  1  0
M  ISO  4   7 101  10 101  53 100  61 100
M  END
>  <TORSDO>  (20) 
F 18

>  <SCORE>  (20) 
-15.723

>  <name>  (20) 
19

>  <ligand_id>  (20) 
19

>  <original_smiles>  (20) 
[H]c1nnc(C([H])(N([H])C(=O)N2C([H])([H])C([H])([H])C([H])([H])C([H])(n3nc(-c4c([H])c([H])c(Oc5c([H])c([H])c(F)c([H])c5F)c([H])c4[H])c(C(=O)N([H])[H])c3N([H])[H])C2([H])[H])C([H])([H])[H])nc1C(F)(F)Oc1c([H])c([H])c2c(c1[H])C([H])([H])N(C(=O)C([H])(N([H])C(=O)C([H])(N([H])C([H])([H])[H])C([H])([H])[H])C(C([H])([H])[H])(C([H])([H])[H])C([H])([H])[H])C([H])(C(=O)N([H])C1([H])c3c([H])c([H])c([H])c([H])c3C([H])([H])C([H])([H])C1([H])[H])C2([H])[H]

>  <smiles>  (20) 
[H]c1nnc(C([H])(N([H])C(=O)N2C([H])([H])C([H])([H])C([H])([H])C([H])(n3nc(-c4c([H])c([H])c(Oc5c([H])c([H])c(F)c([H])c5F)c([H])c4[H])c(C(=O)N([H])[H])c3N([H])[H])C2([H])[H])C([H])([H])[H])nc1C(F)(F)Oc1c([H])c([H])c2c(c1[H])C([H])([H])N(C(=O)C([H])(N([H])C(=O)C([H])(N([H])C([H])([H])[H])C([H])([H])[H])C(C([H])([H])[H])(C([H])([H])[H])C([H])([H])[H])C([H])(C(=O)N([H])C1([H])c3c([H])c([H])c([H])c([H])c3C([H])([H])C([H])([H])C1([H])[H])C2([H])[H]

$$$$
20:0:0
     RDKit          3D

 91 99  0  0  1  0  0  0  0  0999 V2000
  -29.0670  -18.8700   19.5170 C   0  0  0  0  0  3  0  0  0  0  0  0
  -29.8070  -17.8550   20.0920 C   0  0  0  0  0  0  0  0  0  0  0  0
  -30.8360  -18.4950   20.7950 N   0  0  0  0  0  0  0  0  0  0  0  0
  -30.7600  -19.7930   20.6540 N   0  0  0  0  0  0  0  0  0  0  0  0
  -29.6700  -20.0700   19.8960 N   0  0  0  0  0  0  0  0  0  0  0  0
  -29.3600  -21.4650   19.4760 C   0  0  0  0  0  3  0  0  0  0  0  0
  -29.1270  -22.5520   20.5930 C   0  0  0  0  0  3  0  0  0  0  0  0
  -29.0150  -24.0450   20.0880 C   0  0  0  0  0  3  0  0  0  0  0  0
  -28.5130  -25.1030   21.1380 C   0  0  0  0  0  3  0  0  0  0  0  0
  -28.6590  -26.5150   20.7910 O   0  0  0  0  0  0  0  0  0  0  0  0
  -24.5370  -31.8380   23.2940 C   0  0  0  0  0  0  0  0  0  0  0  0
  -27.4910  -27.2630   20.6790 C   0  0  0  0  0  0  0  0  0  0  0  0
  -23.4840  -30.3060   21.6670 C   0  0  0  0  0  3  0  0  0  0  0  0
  -25.0710  -28.7330   20.4300 C   0  0  0  0  0  0  0  0  0  0  0  0
  -26.0130  -30.7210   21.6150 C   0  0  0  0  0  2  0  0  0  0  0  0
  -26.1770  -29.3150   21.0610 C   0  0  0  0  0  0  0  0  0  0  0  0
  -27.3930  -28.5900   21.1760 C   0  0  0  0  0  3  0  0  0  0  0  0
  -26.3680  -26.7070   20.0340 C   0  0  0  0  0  3  0  0  0  0  0  0
  -25.1650  -27.4310   19.9080 C   0  0  0  0  0  3  0  0  0  0  0  0
  -23.8030  -29.5560   20.3460 C   0  0  0  0  0  2  0  0  0  0  0  0
  -24.6920  -30.9750   22.2500 N   0  0  0  0  0  0  0  0  0  0  0  0
  -23.4130  -32.1060   23.7430 O   0  0  0  0  0  0  0  0  0  0  0  0
  -22.7980  -29.3220   22.6430 C   0  0  0  0  0  0  0  0  0  0  0  0
  -21.4920  -29.0800   22.4340 N   0  0  0  0  0  0  0  0  0  0  0  0
  -23.4400  -28.7750   23.5420 O   0  0  0  0  0  0  0  0  0  0  0  0
  -21.0320  -29.5710   21.6800 H   0  0  0  0  0  0  0  0  0  0  0  0
  -18.1320  -27.7950   22.7730 C   0  0  0  0  0  0  0  0  0  0  0  0
  -20.6540  -28.1610   23.2040 C   0  0  0  0  0  3  0  0  0  0  0  0
  -20.8450  -26.7030   22.7240 C   0  0  0  0  0  2  0  0  0  0  0  0
  -19.8280  -26.2820   21.6600 C   0  0  0  0  0  2  0  0  0  0  0  0
  -18.3990  -26.4140   22.1950 C   0  0  0  0  0  2  0  0  0  0  0  0
  -19.1910  -28.6190   23.2330 C   0  0  0  0  0  0  0  0  0  0  0  0
  -18.8920  -29.9080   23.7280 C   0  0  0  0  0  3  0  0  0  0  0  0
  -17.5630  -30.3700   23.7710 C   0  0  0  0  0  3  0  0  0  0  0  0
  -16.5160  -29.5420   23.3320 C   0  0  0  0  0  3  0  0  0  0  0  0
  -16.8010  -28.2560   22.8390 C   0  0  0  0  0  3  0  0  0  0  0  0
  -25.7580  -32.5460   23.9570 C   0  0  0  0  0  3  0  0  0  0  0  0
  -25.3980  -33.9590   24.1530 N   0  0  0  0  0  0  0  0  0  0  0  0
  -25.7430  -34.9520   23.3240 C   0  0  0  0  0  0  0  0  0  0  0  0
  -26.4650  -34.7830   22.3370 O   0  0  0  0  0  0  0  0  0  0  0  0
  -24.7610  -34.1640   24.9080 H   0  0  0  0  0  0  0  0  0  0  0  0
  -23.9850  -36.6540   22.7470 C   0  0  0  0  0  1  0  0  0  0  0  0
  -25.1990  -36.3590   23.6400 C   0  0  0  0  0  3  0  0  0  0  0  0
  -27.2710  -37.3740   24.4800 C   0  0  0  0  0  1  0  0  0  0  0  0
  -26.2090  -37.4300   23.4790 N   0  0  0  0  0  0  0  0  0  0  0  0
  -25.7720  -38.3470   23.5330 H   0  0  0  0  0  0  0  0  0  0  0  0
  -26.1910  -31.8890   25.3240 C   0  0  1  0  0  0  0  0  0  0  0  0
  -25.0160  -31.6750   26.3080 C   0  0  0  0  0  1  0  0  0  0  0  0
  -26.8610  -30.5160   25.0780 C   0  0  0  0  0  1  0  0  0  0  0  0
  -27.2460  -32.7780   26.0230 C   0  0  0  0  0  1  0  0  0  0  0  0
  -29.4970  -16.3300   20.1580 C   0  0  0  0  0  3  0  0  0  0  0  0
  -30.9420  -14.2560   19.7010 C   0  0  0  0  0  0  0  0  0  0  0  0
  -30.5840  -11.8780   19.0510 C   0  0  0  0  0  2  0  0  0  0  0  0
  -29.6340  -11.7810   17.8400 C   0  0  0  0  0  2  0  0  0  0  0  0
  -28.1740  -11.7140   18.3210 C   0  0  0  0  0  2  0  0  0  0  0  0
  -27.8470  -12.8220   19.3550 C   0  0  0  0  0  3  0  0  0  0  0  0
  -28.9210  -12.8980   20.4640 C   0  0  0  0  0  2  0  0  0  0  0  0
  -30.2310  -13.0870   19.8300 N   0  0  0  0  0  0  0  0  0  0  0  0
  -31.9930  -14.2680   19.0500 O   0  0  0  0  0  0  0  0  0  0  0  0
  -31.7330  -15.9210   21.2220 C   0  0  0  0  0  1  0  0  0  0  0  0
  -30.6100  -15.3540   20.4570 N   0  0  0  0  0  0  0  0  0  0  0  0
  -25.5570  -13.6220   20.1970 C   0  0  0  0  0  0  0  0  0  0  0  0
  -24.4500  -12.9440   20.6260 C   0  0  0  0  0  0  0  0  0  0  0  0
  -24.7900  -11.5590   20.5720 C   0  0  0  0  0  0  0  0  0  0  0  0
  -26.5070  -12.6560   19.9110 N   0  0  0  0  0  0  0  0  0  0  0  0
  -26.0540  -11.4080   20.1930 N   0  0  0  0  0  0  0  0  0  0  0  0
  -23.9660  -10.3650   20.8010 C   0  0  0  0  0  0  0  0  0  0  0  0
  -24.3590   -9.3600   21.7140 C   0  0  0  0  0  3  0  0  0  0  0  0
  -23.5410   -8.2320   21.9290 C   0  0  0  0  0  3  0  0  0  0  0  0
  -22.3150   -8.1000   21.2350 C   0  0  0  0  0  0  0  0  0  0  0  0
  -21.9390   -9.0930   20.3120 C   0  0  0  0  0  3  0  0  0  0  0  0
  -22.7570  -10.2130   20.0940 C   0  0  0  0  0  3  0  0  0  0  0  0
  -21.4670   -7.0270   21.3630 O   0  0  0  0  0  0  0  0  0  0  0  0
  -21.4180   -6.2850   22.5150 C   0  0  0  0  0  0  0  0  0  0  0  0
  -21.0940   -6.8650   23.7610 C   0  0  0  0  0  3  0  0  0  0  0  0
  -20.9860   -6.0520   24.9080 C   0  0  0  0  0  3  0  0  0  0  0  0
  -21.1920   -4.6620   24.8100 C   0  0  0  0  0  0  0  0  0  0  0  0
  -21.5090   -4.0840   23.5680 C   0  0  0  0  0  3  0  0  0  0  0  0
  -21.6190   -4.8930   22.4240 C   0  0  0  0  0  0  0  0  0  0  0  0
  -21.9060   -4.3280   21.2270 F   0  0  0  0  0  0  0  0  0  0  0  0
  -21.0810   -3.8800   25.9090 F   0  0  0  0  0  0  0  0  0  0  0  0
  -23.1200  -13.5430   20.9780 C   0  0  0  0  0  0  0  0  0  0  0  0
  -22.3930  -12.9220   21.9000 N   0  0  0  0  0  0  0  0  0  0  0  0
  -22.7380  -14.5970   20.4700 O   0  0  0  0  0  0  0  0  0  0  0  0
  -22.7140  -12.0660   22.3270 H   0  0  0  0  0  0  0  0  0  0  0  0
  -21.5060  -13.3110   22.1850 H   0  0  0  0  0  0  0  0  0  0  0  0
  -25.8280  -14.9710   20.0100 N   0  0  0  0  0  0  0  0  0  0  0  0
  -25.1370  -15.6890   20.1990 H   0  0  0  0  0  0  0  0  0  0  0  0
  -26.7220  -15.3460   19.7220 H   0  0  0  0  0  0  0  0  0  0  0  0
  -26.9540  -16.6320   20.7660 C   0  0  0  0  0  1  0  0  0  0  0  0
  -28.3290  -16.0670   21.1580 C   0  0  0  0  0  2  0  0  0  0  0  0
  1  5  1  0
  1  2  2  0
  2 51  1  0
  2  3  1  0
  4  3  2  0
  5  4  1  0
  6  5  1  0
  6  7  2  0
  8  7  1  0
  8  9  2  0
 10  9  1  0
 11 22  2  0
 12 10  1  0
 12 17  1  0
 13 21  1  0
 13 23  1  0
 14 16  1  0
 15 21  1  0
 16 17  2  0
 16 15  1  0
 18 12  2  0
 19 18  1  0
 19 14  2  0
 20 14  1  0
 20 13  1  0
 21 11  1  0
 23 25  2  0
 24 23  1  0
 26 24  1  0
 27 36  2  0
 27 32  1  0
 28 24  1  0
 28 32  1  0
 29 28  1  0
 30 31  1  0
 30 29  1  0
 31 27  1  0
 32 33  2  0
 33 34  1  0
 35 34  2  0
 36 35  1  0
 37 11  1  0
 37 38  1  0
 37 47  1  0
 38 41  1  0
 39 43  1  0
 39 38  1  0
 40 39  2  0
 43 42  1  0
 45 46  1  0
 45 43  1  0
 45 44  1  0
 47 50  1  1
 47 48  1  0
 49 47  1  0
 51 61  1  0
 51 91  1  0
 52 58  1  0
 52 61  1  0
 53 58  1  0
 54 55  1  0
 54 53  1  0
 56 55  1  0
 56 65  1  0
 56 57  1  0
 58 57  1  0
 59 52  2  0
 61 60  1  0
 62 63  2  0
 63 82  1  0
 64 63  1  0
 64 67  1  0
 65 66  1  0
 65 62  1  0
 66 64  2  0
 67 68  1  0
 68 69  2  0
 70 73  1  0
 70 69  1  0
 71 70  2  0
 72 71  1  0
 72 67  2  0
 73 74  1  0
 74 75  1  0
 75 76  2  0
 77 76  1  0
 77 81  1  0
 78 77  2  0
 79 74  2  0
 79 78  1  0
 80 79  1  0
 82 83  1  0
 83 86  1  0
 83 85  1  0
 84 82  2  0
 87 62  1  0
 87 88  1  0
 89 87  1  0
 90 91  1  0
M  ISO  4   9 101  10 101  52 100  61 100
M  END
>  <TORSDO>  (21) 
F 22

>  <SCORE>  (21) 
-11.442

>  <name>  (21) 
20

>  <ligand_id>  (21) 
20

>  <original_smiles>  (21) 
[H]c1c([H])c([H])c2c(c1[H])C([H])([H])C([H])([H])C([H])([H])C2([H])N([H])C(=O)C1([H])N(C(=O)C([H])(N([H])C(=O)C([H])(N([H])C([H])([H])[H])C([H])([H])[H])C(C([H])([H])[H])(C([H])([H])[H])C([H])([H])[H])C([H])([H])c2c([H])c(OC([H])([H])C([H])([H])C([H])([H])C([H])([H])n3nnc(C([H])(N(C(=O)N4C([H])([H])C([H])([H])C([H])([H])C([H])(n5nc(-c6c([H])c([H])c(Oc7c([H])c([H])c(F)c([H])c7F)c([H])c6[H])c(C(=O)N([H])[H])c5N([H])[H])C4([H])[H])C([H])([H])[H])C([H])([H])C([H])([H])[H])c3[H])c([H])c([H])c2C1([H])[H]

>  <smiles>  (21) 
[H]c1c([H])c([H])c2c(c1[H])C([H])([H])C([H])([H])C([H])([H])C2([H])N([H])C(=O)C1([H])N(C(=O)C([H])(N([H])C(=O)C([H])(N([H])C([H])([H])[H])C([H])([H])[H])C(C([H])([H])[H])(C([H])([H])[H])C([H])([H])[H])C([H])([H])c2c([H])c(OC([H])([H])C([H])([H])C([H])([H])C([H])([H])n3nnc(C([H])(N(C(=O)N4C([H])([H])C([H])([H])C([H])([H])C([H])(n5nc(-c6c([H])c([H])c(Oc7c([H])c([H])c(F)c([H])c7F)c([H])c6[H])c(C(=O)N([H])[H])c5N([H])[H])C4([H])[H])C([H])([H])[H])C([H])([H])C([H])([H])[H])c3[H])c([H])c([H])c2C1([H])[H]

$$$$
21:0:0
     RDKit          3D

 91 99  0  0  1  0  0  0  0  0999 V2000
  -29.7710  -19.5330   19.4810 C   0  0  0  0  0  3  0  0  0  0  0  0
  -29.6740  -20.8500   20.1130 C   0  0  0  0  0  0  0  0  0  0  0  0
  -30.2000  -18.5900   20.4260 C   0  0  0  0  0  0  0  0  0  0  0  0
  -30.7030  -18.9960   22.9110 C   0  0  0  0  0  1  0  0  0  0  0  0
  -30.0760  -20.7170   21.3640 N   0  0  0  0  0  0  0  0  0  0  0  0
  -30.3680  -19.3970   21.5550 N   0  0  0  0  0  0  0  0  0  0  0  0
  -28.9280  -22.1900   19.6950 C   0  0  0  0  0  2  0  0  0  0  0  0
  -29.4740  -23.6970   19.9350 C   0  0  0  0  0  3  0  0  0  0  0  0
  -28.3910  -24.8790   19.6960 C   0  0  0  0  0  3  0  0  0  0  0  0
  -28.6210  -26.3580   19.8710 O   0  0  0  0  0  0  0  0  0  0  0  0
  -24.6720  -31.5620   23.0450 C   0  0  0  0  0  0  0  0  0  0  0  0
  -27.5000  -27.2240   19.8140 C   0  0  0  0  0  0  0  0  0  0  0  0
  -23.5510  -30.2010   21.3220 C   0  0  0  0  0  3  0  0  0  0  0  0
  -25.0820  -28.7890   19.8380 C   0  0  0  0  0  0  0  0  0  0  0  0
  -26.0840  -30.6200   21.1940 C   0  0  0  0  0  2  0  0  0  0  0  0
  -26.2290  -29.2770   20.4770 C   0  0  0  0  0  0  0  0  0  0  0  0
  -27.4390  -28.5100   20.4560 C   0  0  0  0  0  3  0  0  0  0  0  0
  -26.3240  -26.8120   19.1410 C   0  0  0  0  0  3  0  0  0  0  0  0
  -25.1360  -27.5630   19.1650 C   0  0  0  0  0  3  0  0  0  0  0  0
  -23.8140  -29.6170   19.9120 C   0  0  0  0  0  2  0  0  0  0  0  0
  -24.7870  -30.8090   21.9120 N   0  0  0  0  0  0  0  0  0  0  0  0
  -23.5710  -31.7640   23.5800 O   0  0  0  0  0  0  0  0  0  0  0  0
  -22.9180  -29.1060   22.2160 C   0  0  0  0  0  0  0  0  0  0  0  0
  -21.6030  -28.8750   22.0630 N   0  0  0  0  0  0  0  0  0  0  0  0
  -23.6110  -28.4730   23.0150 O   0  0  0  0  0  0  0  0  0  0  0  0
  -21.0970  -29.4340   21.3920 H   0  0  0  0  0  0  0  0  0  0  0  0
  -18.2800  -27.5010   22.4650 C   0  0  0  0  0  0  0  0  0  0  0  0
  -20.8210  -27.8670   22.7830 C   0  0  0  0  0  3  0  0  0  0  0  0
  -20.9980  -26.4680   22.1440 C   0  0  0  0  0  2  0  0  0  0  0  0
  -19.9210  -26.1410   21.1040 C   0  0  0  0  0  2  0  0  0  0  0  0
  -18.5270  -26.1950   21.7310 C   0  0  0  0  0  2  0  0  0  0  0  0
  -19.3570  -28.2940   22.9460 C   0  0  0  0  0  0  0  0  0  0  0  0
  -19.0690  -29.5160   23.5910 C   0  0  0  0  0  3  0  0  0  0  0  0
  -17.7390  -29.9450   23.7620 C   0  0  0  0  0  3  0  0  0  0  0  0
  -16.6800  -29.1510   23.2930 C   0  0  0  0  0  3  0  0  0  0  0  0
  -16.9500  -27.9320   22.6470 C   0  0  0  0  0  3  0  0  0  0  0  0
  -25.9150  -32.2200   23.7160 C   0  0  0  0  0  3  0  0  0  0  0  0
  -25.5340  -33.5810   24.1200 N   0  0  0  0  0  0  0  0  0  0  0  0
  -25.8200  -34.6910   23.4260 C   0  0  0  0  0  0  0  0  0  0  0  0
  -26.4980  -34.6770   22.3960 O   0  0  0  0  0  0  0  0  0  0  0  0
  -24.9320  -33.6650   24.9280 H   0  0  0  0  0  0  0  0  0  0  0  0
  -24.0050  -36.4150   23.1630 C   0  0  0  0  0  1  0  0  0  0  0  0
  -25.2630  -36.0280   23.9580 C   0  0  0  0  0  3  0  0  0  0  0  0
  -27.3450  -36.9740   24.8500 C   0  0  0  0  0  1  0  0  0  0  0  0
  -26.2410  -37.1340   23.9060 N   0  0  0  0  0  0  0  0  0  0  0  0
  -25.7930  -38.0240   24.0990 H   0  0  0  0  0  0  0  0  0  0  0  0
  -26.4560  -31.4070   24.9540 C   0  0  1  0  0  0  0  0  0  0  0  0
  -25.3630  -31.0580   25.9920 C   0  0  0  0  0  1  0  0  0  0  0  0
  -27.1080  -30.0830   24.4940 C   0  0  0  0  0  1  0  0  0  0  0  0
  -27.5610  -32.2200   25.6670 C   0  0  0  0  0  1  0  0  0  0  0  0
  -30.3770  -17.0000   20.5810 C   0  0  0  0  0  2  0  0  0  0  0  0
  -31.6300  -14.7920   19.8980 C   0  0  0  0  0  0  0  0  0  0  0  0
  -31.1410  -12.5620   18.8900 C   0  0  0  0  0  2  0  0  0  0  0  0
  -30.1760  -12.7010   17.6980 C   0  0  0  0  0  2  0  0  0  0  0  0
  -28.7200  -12.6220   18.1890 C   0  0  0  0  0  2  0  0  0  0  0  0
  -28.4450  -13.5360   19.4130 C   0  0  0  0  0  3  0  0  0  0  0  0
  -29.5480  -13.4260   20.4870 C   0  0  0  0  0  2  0  0  0  0  0  0
  -30.8270  -13.6760   19.8160 N   0  0  0  0  0  0  0  0  0  0  0  0
  -32.8330  -14.6390   19.6740 O   0  0  0  0  0  0  0  0  0  0  0  0
  -31.0960  -16.0590   19.6210 N   0  0  0  0  0  0  0  0  0  0  0  0
  -26.1300  -14.2490   20.2520 C   0  0  0  0  0  0  0  0  0  0  0  0
  -25.0370  -13.5320   20.6550 C   0  0  0  0  0  0  0  0  0  0  0  0
  -25.4230  -12.1560   20.6000 C   0  0  0  0  0  0  0  0  0  0  0  0
  -27.1120  -13.3150   19.9670 N   0  0  0  0  0  0  0  0  0  0  0  0
  -26.6970  -12.0510   20.2440 N   0  0  0  0  0  0  0  0  0  0  0  0
  -24.6320  -10.9360   20.8100 C   0  0  0  0  0  0  0  0  0  0  0  0
  -24.9830   -9.9890   21.7970 C   0  0  0  0  0  3  0  0  0  0  0  0
  -24.1970   -8.8330   21.9940 C   0  0  0  0  0  3  0  0  0  0  0  0
  -23.0450   -8.6160   21.2030 C   0  0  0  0  0  0  0  0  0  0  0  0
  -22.7140   -9.5480   20.2030 C   0  0  0  0  0  3  0  0  0  0  0  0
  -23.4990  -10.6960   20.0060 C   0  0  0  0  0  3  0  0  0  0  0  0
  -22.2360   -7.5080   21.3040 O   0  0  0  0  0  0  0  0  0  0  0  0
  -22.0130   -6.8890   22.5070 C   0  0  0  0  0  0  0  0  0  0  0  0
  -21.4480   -7.5720   23.6060 C   0  0  0  0  0  3  0  0  0  0  0  0
  -21.1740   -6.8770   24.8010 C   0  0  0  0  0  3  0  0  0  0  0  0
  -21.4520   -5.5010   24.8960 C   0  0  0  0  0  0  0  0  0  0  0  0
  -22.0100   -4.8180   23.8000 C   0  0  0  0  0  3  0  0  0  0  0  0
  -22.2860   -5.5090   22.6080 C   0  0  0  0  0  0  0  0  0  0  0  0
  -22.8030   -4.8420   21.5490 F   0  0  0  0  0  0  0  0  0  0  0  0
  -21.1810   -4.8300   26.0410 F   0  0  0  0  0  0  0  0  0  0  0  0
  -23.6770  -14.0830   20.9720 C   0  0  0  0  0  0  0  0  0  0  0  0
  -22.9480  -13.4360   21.8740 N   0  0  0  0  0  0  0  0  0  0  0  0
  -23.2720  -15.1240   20.4510 O   0  0  0  0  0  0  0  0  0  0  0  0
  -23.2930  -12.6000   22.3210 H   0  0  0  0  0  0  0  0  0  0  0  0
  -22.0320  -13.7820   22.1240 H   0  0  0  0  0  0  0  0  0  0  0  0
  -26.3630  -15.6100   20.0800 N   0  0  0  0  0  0  0  0  0  0  0  0
  -25.6340  -16.2980   20.2400 H   0  0  0  0  0  0  0  0  0  0  0  0
  -27.2080  -16.0090   19.6950 H   0  0  0  0  0  0  0  0  0  0  0  0
  -31.5470  -16.7160   18.3770 C   0  0  0  0  0  2  0  0  0  0  0  0
  -33.2560  -18.2600   17.2390 C   0  0  0  0  0  1  0  0  0  0  0  0
  -32.9200  -17.4250   18.4830 C   0  0  0  0  0  2  0  0  0  0  0  0
  1  2  1  0
  1  3  2  0
  2  5  2  0
  3 51  1  0
  3  6  1  0
  5  6  1  0
  6  4  1  0
  7  8  1  0
  7  2  1  0
  9 10  1  0
  9  8  2  0
 11 22  2  0
 12 10  1  0
 12 17  1  0
 13 21  1  0
 13 23  1  0
 14 20  1  0
 14 16  1  0
 15 21  1  0
 16 15  1  0
 17 16  2  0
 18 19  1  0
 18 12  2  0
 19 14  2  0
 20 13  1  0
 21 11  1  0
 23 25  2  0
 24 23  1  0
 26 24  1  0
 27 36  2  0
 27 32  1  0
 28 24  1  0
 28 32  1  0
 29 28  1  0
 30 31  1  0
 30 29  1  0
 31 27  1  0
 32 33  2  0
 33 34  1  0
 35 34  2  0
 36 35  1  0
 37 11  1  0
 37 38  1  0
 37 47  1  0
 38 41  1  0
 39 43  1  0
 39 38  1  0
 40 39  2  0
 43 42  1  0
 45 43  1  0
 45 46  1  0
 45 44  1  0
 47 50  1  1
 47 48  1  0
 49 47  1  0
 53 58  1  0
 54 55  1  0
 54 53  1  0
 56 55  1  0
 56 64  1  0
 56 57  1  0
 58 52  1  0
 58 57  1  0
 59 52  2  0
 60 52  1  0
 60 51  1  0
 61 62  2  0
 62 81  1  0
 63 62  1  0
 63 66  1  0
 64 65  1  0
 64 61  1  0
 65 63  2  0
 66 67  1  0
 67 68  2  0
 69 72  1  0
 69 68  1  0
 70 69  2  0
 71 70  1  0
 71 66  2  0
 72 73  1  0
 73 78  2  0
 73 74  1  0
 74 75  2  0
 75 76  1  0
 76 80  1  0
 77 76  2  0
 78 77  1  0
 79 78  1  0
 81 82  1  0
 82 85  1  0
 82 84  1  0
 83 81  2  0
 86 87  1  0
 86 61  1  0
 88 86  1  0
 89 91  1  0
 89 60  1  0
 90 91  1  0
M  ISO  4   9 101  10 101  52 100  60 100
M  END
>  <TORSDO>  (22) 
F 22

>  <SCORE>  (22) 
-11.225

>  <name>  (22) 
21

>  <ligand_id>  (22) 
21

>  <original_smiles>  (22) 
[H]c1c([H])c([H])c2c(c1[H])C([H])([H])C([H])([H])C([H])([H])C2([H])N([H])C(=O)C1([H])N(C(=O)C([H])(N([H])C(=O)C([H])(N([H])C([H])([H])[H])C([H])([H])[H])C(C([H])([H])[H])(C([H])([H])[H])C([H])([H])[H])C([H])([H])c2c([H])c(OC([H])([H])C([H])([H])C([H])([H])c3nn(C([H])([H])[H])c(C([H])([H])N(C(=O)N4C([H])([H])C([H])([H])C([H])([H])C([H])(n5nc(-c6c([H])c([H])c(Oc7c([H])c([H])c(F)c([H])c7F)c([H])c6[H])c(C(=O)N([H])[H])c5N([H])[H])C4([H])[H])C([H])([H])C([H])([H])C([H])([H])[H])c3[H])c([H])c([H])c2C1([H])[H]

>  <smiles>  (22) 
[H]c1c([H])c([H])c2c(c1[H])C([H])([H])C([H])([H])C([H])([H])C2([H])N([H])C(=O)C1([H])N(C(=O)C([H])(N([H])C(=O)C([H])(N([H])C([H])([H])[H])C([H])([H])[H])C(C([H])([H])[H])(C([H])([H])[H])C([H])([H])[H])C([H])([H])c2c([H])c(OC([H])([H])C([H])([H])C([H])([H])c3nn(C([H])([H])[H])c(C([H])([H])N(C(=O)N4C([H])([H])C([H])([H])C([H])([H])C([H])(n5nc(-c6c([H])c([H])c(Oc7c([H])c([H])c(F)c([H])c7F)c([H])c6[H])c(C(=O)N([H])[H])c5N([H])[H])C4([H])[H])C([H])([H])C([H])([H])C([H])([H])[H])c3[H])c([H])c([H])c2C1([H])[H]

$$$$
22:0:0
     RDKit          3D

 91 99  0  0  1  0  0  0  0  0999 V2000
  -28.1650  -20.8570   20.0280 C   0  0  0  0  0  3  0  0  0  0  0  0
  -29.0980  -21.9480   19.9840 C   0  0  0  0  0  0  0  0  0  0  0  0
  -30.4190  -21.3940   20.0270 C   0  0  0  0  0  0  0  0  0  0  0  0
  -29.7690  -19.0780   20.0550 C   0  0  0  0  0  0  0  0  0  0  0  0
  -28.4880  -19.5000   20.0240 N   0  0  0  0  0  0  0  0  0  0  0  0
  -30.7120  -20.0430   20.0720 N   0  0  0  0  0  0  0  0  0  0  0  0
  -31.9740  -22.4030   18.3120 C   0  0  0  0  0  1  0  0  0  0  0  0
  -31.6500  -22.2640   19.8100 C   0  0  0  0  0  2  0  0  0  0  0  0
  -27.8750  -23.5220   18.3320 C   0  0  0  0  0  1  0  0  0  0  0  0
  -28.7510  -23.5270   19.5940 C   0  0  0  0  0  3  0  0  0  0  0  0
  -28.1710  -24.7600   20.5550 C   0  0  0  0  0  2  0  0  0  0  0  0
  -28.3370  -26.2700   20.2490 O   0  0  0  0  0  0  0  0  0  0  0  0
  -24.6040  -31.8880   23.2110 C   0  0  0  0  0  0  0  0  0  0  0  0
  -27.2470  -27.2000   20.2310 C   0  0  0  0  0  0  0  0  0  0  0  0
  -23.4320  -30.4810   21.5610 C   0  0  0  0  0  3  0  0  0  0  0  0
  -24.9040  -28.9050   20.1690 C   0  0  0  0  0  0  0  0  0  0  0  0
  -25.9890  -30.7640   21.4270 C   0  0  0  0  0  2  0  0  0  0  0  0
  -26.0750  -29.3730   20.7790 C   0  0  0  0  0  0  0  0  0  0  0  0
  -27.2520  -28.5400   20.7830 C   0  0  0  0  0  3  0  0  0  0  0  0
  -26.0490  -26.8140   19.5970 C   0  0  0  0  0  3  0  0  0  0  0  0
  -24.9010  -27.6360   19.5670 C   0  0  0  0  0  3  0  0  0  0  0  0
  -23.6740  -29.7960   20.1900 C   0  0  0  0  0  2  0  0  0  0  0  0
  -24.6960  -31.0670   22.1210 N   0  0  0  0  0  0  0  0  0  0  0  0
  -23.5080  -32.1710   23.7200 O   0  0  0  0  0  0  0  0  0  0  0  0
  -22.7440  -29.4770   22.5180 C   0  0  0  0  0  0  0  0  0  0  0  0
  -21.4170  -29.3170   22.3840 N   0  0  0  0  0  0  0  0  0  0  0  0
  -23.4100  -28.8420   23.3410 O   0  0  0  0  0  0  0  0  0  0  0  0
  -20.9410  -29.8820   21.6960 H   0  0  0  0  0  0  0  0  0  0  0  0
  -18.0200  -28.1550   22.8720 C   0  0  0  0  0  0  0  0  0  0  0  0
  -20.5830  -28.3830   23.1450 C   0  0  0  0  0  3  0  0  0  0  0  0
  -20.6680  -26.9540   22.5590 C   0  0  0  0  0  2  0  0  0  0  0  0
  -19.5650  -26.6510   21.5430 C   0  0  0  0  0  2  0  0  0  0  0  0
  -18.1820  -26.8070   22.1860 C   0  0  0  0  0  2  0  0  0  0  0  0
  -19.1460  -28.9010   23.3100 C   0  0  0  0  0  0  0  0  0  0  0  0
  -18.9420  -30.1600   23.9140 C   0  0  0  0  0  3  0  0  0  0  0  0
  -17.6440  -30.6720   24.0890 C   0  0  0  0  0  3  0  0  0  0  0  0
  -16.5320  -29.9220   23.6710 C   0  0  0  0  0  3  0  0  0  0  0  0
  -16.7190  -28.6680   23.0660 C   0  0  0  0  0  3  0  0  0  0  0  0
  -25.8710  -32.5310   23.8570 C   0  0  0  0  0  3  0  0  0  0  0  0
  -26.3650  -31.7690   25.1490 C   0  0  1  0  0  0  0  0  0  0  0  0
  -25.2510  -31.5370   26.1970 C   0  0  0  0  0  1  0  0  0  0  0  0
  -26.9610  -30.3920   24.7800 C   0  0  0  0  0  1  0  0  0  0  0  0
  -27.5000  -32.5730   25.8260 C   0  0  0  0  0  1  0  0  0  0  0  0
  -25.5510  -33.9300   24.1780 N   0  0  0  0  0  0  0  0  0  0  0  0
  -25.8910  -34.9870   23.4290 C   0  0  0  0  0  0  0  0  0  0  0  0
  -26.5730  -34.8890   22.4060 O   0  0  0  0  0  0  0  0  0  0  0  0
  -24.9500  -34.0870   24.9760 H   0  0  0  0  0  0  0  0  0  0  0  0
  -24.1620  -36.7760   23.0610 C   0  0  0  0  0  1  0  0  0  0  0  0
  -25.3940  -36.3720   23.8860 C   0  0  0  0  0  3  0  0  0  0  0  0
  -27.5150  -37.2600   24.7450 C   0  0  0  0  0  1  0  0  0  0  0  0
  -26.4260  -37.4280   23.7900 N   0  0  0  0  0  0  0  0  0  0  0  0
  -26.0120  -38.3460   23.9400 H   0  0  0  0  0  0  0  0  0  0  0  0
  -30.2580  -17.5450   19.6850 C   0  0  0  0  0  2  0  0  0  0  0  0
  -30.6140  -14.9290   20.0470 C   0  0  0  0  0  0  0  0  0  0  0  0
  -30.4140  -12.6400   18.9600 C   0  0  0  0  0  2  0  0  0  0  0  0
  -29.3990  -12.6850   17.7940 C   0  0  0  0  0  2  0  0  0  0  0  0
  -27.9560  -12.4810   18.3010 C   0  0  0  0  0  2  0  0  0  0  0  0
  -27.6500  -13.3290   19.5650 C   0  0  0  0  0  3  0  0  0  0  0  0
  -28.7790  -13.1620   20.6030 C   0  0  0  0  0  2  0  0  0  0  0  0
  -30.0030  -13.6700   19.9630 N   0  0  0  0  0  0  0  0  0  0  0  0
  -31.7730  -14.9930   19.6140 O   0  0  0  0  0  0  0  0  0  0  0  0
  -28.9030  -16.2220   21.3670 C   0  0  0  0  0  1  0  0  0  0  0  0
  -29.8980  -16.1400   20.2950 N   0  0  0  0  0  0  0  0  0  0  0  0
  -25.3030  -13.9120   20.4200 C   0  0  0  0  0  0  0  0  0  0  0  0
  -24.2580  -13.1320   20.8300 C   0  0  0  0  0  0  0  0  0  0  0  0
  -24.7160  -11.7820   20.7490 C   0  0  0  0  0  0  0  0  0  0  0  0
  -26.3330  -13.0360   20.1200 N   0  0  0  0  0  0  0  0  0  0  0  0
  -25.9920  -11.7470   20.3780 N   0  0  0  0  0  0  0  0  0  0  0  0
  -23.9960  -10.5180   20.9470 C   0  0  0  0  0  0  0  0  0  0  0  0
  -24.4500   -9.5470   21.8670 C   0  0  0  0  0  3  0  0  0  0  0  0
  -23.7320   -8.3490   22.0540 C   0  0  0  0  0  3  0  0  0  0  0  0
  -22.5450   -8.1110   21.3220 C   0  0  0  0  0  0  0  0  0  0  0  0
  -22.1090   -9.0680   20.3880 C   0  0  0  0  0  3  0  0  0  0  0  0
  -22.8300  -10.2600   20.2000 C   0  0  0  0  0  3  0  0  0  0  0  0
  -21.7950   -6.9640   21.4200 O   0  0  0  0  0  0  0  0  0  0  0  0
  -21.7380   -6.2400   22.5830 C   0  0  0  0  0  0  0  0  0  0  0  0
  -21.2880   -6.8090   23.7940 C   0  0  0  0  0  3  0  0  0  0  0  0
  -21.1790   -6.0100   24.9490 C   0  0  0  0  0  3  0  0  0  0  0  0
  -21.5110   -4.6420   24.8950 C   0  0  0  0  0  0  0  0  0  0  0  0
  -21.9530   -4.0730   23.6880 C   0  0  0  0  0  3  0  0  0  0  0  0
  -22.0640   -4.8700   22.5340 C   0  0  0  0  0  0  0  0  0  0  0  0
  -22.4720   -4.3120   21.3690 F   0  0  0  0  0  0  0  0  0  0  0  0
  -21.3980   -3.8710   26.0010 F   0  0  0  0  0  0  0  0  0  0  0  0
  -22.8760  -13.6050   21.1780 C   0  0  0  0  0  0  0  0  0  0  0  0
  -22.1920  -12.8940   22.0670 N   0  0  0  0  0  0  0  0  0  0  0  0
  -22.4120  -14.6400   20.6980 O   0  0  0  0  0  0  0  0  0  0  0  0
  -22.5810  -12.0600   22.4790 H   0  0  0  0  0  0  0  0  0  0  0  0
  -21.2640  -13.1870   22.3380 H   0  0  0  0  0  0  0  0  0  0  0  0
  -25.4480  -15.2840   20.2490 N   0  0  0  0  0  0  0  0  0  0  0  0
  -24.6740  -15.9210   20.4010 H   0  0  0  0  0  0  0  0  0  0  0  0
  -26.2600  -15.7350   19.8460 H   0  0  0  0  0  0  0  0  0  0  0  0
  2  3  1  0
  2  1  2  0
  3  6  2  0
  4  6  1  0
  5  1  1  0
  5  4  2  0
  7  8  1  0
  8  3  1  0
 10  9  1  0
 10  2  1  0
 10 11  1  0
 12 11  1  0
 13 24  2  0
 14 12  1  0
 14 19  1  0
 15 23  1  0
 15 25  1  0
 16 22  1  0
 16 18  1  0
 17 23  1  0
 18 19  2  0
 18 17  1  0
 20 14  2  0
 21 20  1  0
 21 16  2  0
 22 15  1  0
 23 13  1  0
 25 27  2  0
 26 25  1  0
 28 26  1  0
 29 38  2  0
 29 34  1  0
 30 26  1  0
 30 34  1  0
 31 30  1  0
 32 33  1  0
 32 31  1  0
 33 29  1  0
 34 35  2  0
 35 36  1  0
 37 36  2  0
 38 37  1  0
 39 13  1  0
 39 44  1  0
 39 40  1  0
 40 43  1  1
 40 41  1  0
 42 40  1  0
 44 47  1  0
 45 49  1  0
 45 44  1  0
 46 45  2  0
 49 48  1  0
 51 49  1  0
 51 52  1  0
 51 50  1  0
 53  4  1  0
 53 63  1  0
 54 63  1  0
 55 60  1  0
 56 57  1  0
 56 55  1  0
 58 57  1  0
 58 67  1  0
 58 59  1  0
 60 54  1  0
 60 59  1  0
 61 54  2  0
 63 62  1  0
 64 65  2  0
 65 84  1  0
 66 65  1  0
 66 69  1  0
 67 68  1  0
 67 64  1  0
 68 66  2  0
 69 70  1  0
 70 71  2  0
 72 75  1  0
 72 71  1  0
 73 72  2  0
 74 73  1  0
 74 69  2  0
 75 76  1  0
 76 77  1  0
 77 78  2  0
 79 78  1  0
 79 83  1  0
 80 79  2  0
 81 76  2  0
 81 80  1  0
 82 81  1  0
 84 85  1  0
 85 88  1  0
 85 87  1  0
 86 84  2  0
 89 90  1  0
 89 64  1  0
 91 89  1  0
M  ISO  4  11 101  12 101  54 100  63 100
M  END
>  <TORSDO>  (23) 
F 20

>  <SCORE>  (23) 
-13.608

>  <name>  (23) 
22

>  <ligand_id>  (23) 
22

>  <original_smiles>  (23) 
[H]c1nc(C([H])([H])N(C(=O)N2C([H])([H])C([H])([H])C([H])([H])C([H])(n3nc(-c4c([H])c([H])c(Oc5c([H])c([H])c(F)c([H])c5F)c([H])c4[H])c(C(=O)N([H])[H])c3N([H])[H])C2([H])[H])C([H])([H])[H])nc(C([H])([H])C([H])([H])[H])c1C([H])(C([H])([H])[H])C([H])([H])Oc1c([H])c([H])c2c(c1[H])C([H])([H])N(C(=O)C([H])(N([H])C(=O)C([H])(N([H])C([H])([H])[H])C([H])([H])[H])C(C([H])([H])[H])(C([H])([H])[H])C([H])([H])[H])C([H])(C(=O)N([H])C1([H])c3c([H])c([H])c([H])c([H])c3C([H])([H])C([H])([H])C1([H])[H])C2([H])[H]

>  <smiles>  (23) 
[H]c1nc(C([H])([H])N(C(=O)N2C([H])([H])C([H])([H])C([H])([H])C([H])(n3nc(-c4c([H])c([H])c(Oc5c([H])c([H])c(F)c([H])c5F)c([H])c4[H])c(C(=O)N([H])[H])c3N([H])[H])C2([H])[H])C([H])([H])[H])nc(C([H])([H])C([H])([H])[H])c1C([H])(C([H])([H])[H])C([H])([H])Oc1c([H])c([H])c2c(c1[H])C([H])([H])N(C(=O)C([H])(N([H])C(=O)C([H])(N([H])C([H])([H])[H])C([H])([H])[H])C(C([H])([H])[H])(C([H])([H])[H])C([H])([H])[H])C([H])(C(=O)N([H])C1([H])c3c([H])c([H])c([H])c([H])c3C([H])([H])C([H])([H])C1([H])[H])C2([H])[H]

$$$$
23:0:0
     RDKit          3D

 90 98  0  0  1  0  0  0  0  0999 V2000
  -29.4670  -20.8760   20.1710 C   0  0  0  0  0  0  0  0  0  0  0  0
  -30.2940  -18.8470   20.0210 C   0  0  0  0  0  3  0  0  0  0  0  0
  -29.1210  -19.5120   20.2590 N   0  0  0  0  0  0  0  0  0  0  0  0
  -30.7490  -21.0470   19.8820 N   0  0  0  0  0  2  0  0  0  0  0  0
  -31.2530  -19.7820   19.7860 N   0  0  0  0  0  0  0  0  0  0  0  0
  -33.5990  -19.9660   20.5670 C   0  0  0  0  0  1  0  0  0  0  0  0
  -32.6550  -19.6630   19.3950 C   0  0  0  0  0  2  0  0  0  0  0  0
  -28.5040  -22.1250   20.1510 C   0  0  0  0  0  2  0  0  0  0  0  0
  -29.0210  -23.6550   20.3730 C   0  0  0  0  0  3  0  0  0  0  0  0
  -27.9890  -24.8740   20.0820 C   0  0  0  0  0  3  0  0  0  0  0  0
  -28.2830  -26.3460   20.2650 O   0  0  0  0  0  0  0  0  0  0  0  0
  -24.6270  -31.9000   23.2290 C   0  0  0  0  0  0  0  0  0  0  0  0
  -27.2010  -27.2640   20.1950 C   0  0  0  0  0  0  0  0  0  0  0  0
  -23.4190  -30.5060   21.5950 C   0  0  0  0  0  3  0  0  0  0  0  0
  -24.8600  -28.9410   20.1720 C   0  0  0  0  0  0  0  0  0  0  0  0
  -25.9660  -30.7900   21.4200 C   0  0  0  0  0  2  0  0  0  0  0  0
  -26.0370  -29.4070   20.7720 C   0  0  0  0  0  0  0  0  0  0  0  0
  -27.2110  -28.5830   20.7700 C   0  0  0  0  0  3  0  0  0  0  0  0
  -25.9980  -26.8760   19.5620 C   0  0  0  0  0  3  0  0  0  0  0  0
  -24.8460  -27.6840   19.5540 C   0  0  0  0  0  3  0  0  0  0  0  0
  -23.6310  -29.8280   20.2170 C   0  0  0  0  0  2  0  0  0  0  0  0
  -24.6900  -31.0840   22.1360 N   0  0  0  0  0  0  0  0  0  0  0  0
  -23.5440  -32.1880   23.7600 O   0  0  0  0  0  0  0  0  0  0  0  0
  -22.7460  -29.4960   22.5560 C   0  0  0  0  0  0  0  0  0  0  0  0
  -21.4180  -29.3270   22.4290 N   0  0  0  0  0  0  0  0  0  0  0  0
  -23.4180  -28.8660   23.3770 O   0  0  0  0  0  0  0  0  0  0  0  0
  -20.9330  -29.8850   21.7410 H   0  0  0  0  0  0  0  0  0  0  0  0
  -18.0310  -28.1620   22.9450 C   0  0  0  0  0  0  0  0  0  0  0  0
  -20.5940  -28.3980   23.2060 C   0  0  0  0  0  3  0  0  0  0  0  0
  -20.6780  -26.9650   22.6310 C   0  0  0  0  0  2  0  0  0  0  0  0
  -19.5700  -26.6520   21.6220 C   0  0  0  0  0  2  0  0  0  0  0  0
  -18.1920  -26.8100   22.2700 C   0  0  0  0  0  2  0  0  0  0  0  0
  -19.1580  -28.9130   23.3710 C   0  0  0  0  0  0  0  0  0  0  0  0
  -18.9530  -30.1780   23.9620 C   0  0  0  0  0  3  0  0  0  0  0  0
  -17.6530  -30.6930   24.1340 C   0  0  0  0  0  3  0  0  0  0  0  0
  -16.5400  -29.9370   23.7240 C   0  0  0  0  0  3  0  0  0  0  0  0
  -16.7310  -28.6730   23.1370 C   0  0  0  0  0  3  0  0  0  0  0  0
  -25.9120  -32.5290   23.8510 C   0  0  0  0  0  3  0  0  0  0  0  0
  -25.6010  -33.9260   24.1900 N   0  0  0  0  0  0  0  0  0  0  0  0
  -25.9220  -34.9860   23.4340 C   0  0  0  0  0  0  0  0  0  0  0  0
  -26.5780  -34.8890   22.3940 O   0  0  0  0  0  0  0  0  0  0  0  0
  -25.0170  -34.0750   25.0000 H   0  0  0  0  0  0  0  0  0  0  0  0
  -24.1850  -36.7780   23.1170 C   0  0  0  0  0  1  0  0  0  0  0  0
  -25.4390  -36.3700   23.9080 C   0  0  0  0  0  3  0  0  0  0  0  0
  -27.5820  -37.2560   24.7140 C   0  0  0  0  0  1  0  0  0  0  0  0
  -26.4670  -37.4260   23.7860 N   0  0  0  0  0  0  0  0  0  0  0  0
  -26.0620  -38.3440   23.9430 H   0  0  0  0  0  0  0  0  0  0  0  0
  -26.4310  -31.7520   25.1220 C   0  0  1  0  0  0  0  0  0  0  0  0
  -25.3390  -31.5090   26.1900 C   0  0  0  0  0  1  0  0  0  0  0  0
  -27.0150  -30.3760   24.7250 C   0  0  0  0  0  1  0  0  0  0  0  0
  -27.5810  -32.5450   25.7860 C   0  0  0  0  0  1  0  0  0  0  0  0
  -30.6840  -17.3100   19.7870 C   0  0  0  0  0  2  0  0  0  0  0  0
  -30.7130  -14.7890   20.1440 C   0  0  0  0  0  0  0  0  0  0  0  0
  -30.3940  -12.5680   19.0240 C   0  0  0  0  0  2  0  0  0  0  0  0
  -29.4030  -12.6850   17.8460 C   0  0  0  0  0  2  0  0  0  0  0  0
  -27.9550  -12.4980   18.3360 C   0  0  0  0  0  2  0  0  0  0  0  0
  -27.6450  -13.3280   19.6110 C   0  0  0  0  0  3  0  0  0  0  0  0
  -28.7580  -13.1710   20.6690 C   0  0  0  0  0  2  0  0  0  0  0  0
  -30.0140  -13.5950   20.0320 N   0  0  0  0  0  0  0  0  0  0  0  0
  -31.8710  -14.8040   19.7160 O   0  0  0  0  0  0  0  0  0  0  0  0
  -29.1450  -16.2290   21.4920 C   0  0  0  0  0  1  0  0  0  0  0  0
  -30.0800  -16.0270   20.3840 N   0  0  0  0  0  0  0  0  0  0  0  0
  -25.2840  -13.8890   20.4400 C   0  0  0  0  0  0  0  0  0  0  0  0
  -24.2400  -13.1010   20.8390 C   0  0  0  0  0  0  0  0  0  0  0  0
  -24.7100  -11.7550   20.7690 C   0  0  0  0  0  0  0  0  0  0  0  0
  -26.3240  -13.0220   20.1510 N   0  0  0  0  0  0  0  0  0  0  0  0
  -25.9890  -11.7320   20.4100 N   0  0  0  0  0  0  0  0  0  0  0  0
  -23.9990  -10.4840   20.9660 C   0  0  0  0  0  0  0  0  0  0  0  0
  -24.4510   -9.5210   21.8940 C   0  0  0  0  0  3  0  0  0  0  0  0
  -23.7370   -8.3160   22.0800 C   0  0  0  0  0  3  0  0  0  0  0  0
  -22.5590   -8.0670   21.3360 C   0  0  0  0  0  0  0  0  0  0  0  0
  -22.1270   -9.0200   20.3980 C   0  0  0  0  0  3  0  0  0  0  0  0
  -22.8390  -10.2160   20.2110 C   0  0  0  0  0  3  0  0  0  0  0  0
  -21.8150   -6.9160   21.4320 O   0  0  0  0  0  0  0  0  0  0  0  0
  -21.7530   -6.1950   22.5970 C   0  0  0  0  0  0  0  0  0  0  0  0
  -21.2910   -6.7650   23.8030 C   0  0  0  0  0  3  0  0  0  0  0  0
  -21.1760   -5.9690   24.9600 C   0  0  0  0  0  3  0  0  0  0  0  0
  -21.5130   -4.6040   24.9120 C   0  0  0  0  0  0  0  0  0  0  0  0
  -21.9690   -4.0320   23.7110 C   0  0  0  0  0  3  0  0  0  0  0  0
  -22.0860   -4.8260   22.5570 C   0  0  0  0  0  0  0  0  0  0  0  0
  -22.5040   -4.2640   21.3970 F   0  0  0  0  0  0  0  0  0  0  0  0
  -21.3960   -3.8370   26.0220 F   0  0  0  0  0  0  0  0  0  0  0  0
  -22.8510  -13.5650   21.1720 C   0  0  0  0  0  0  0  0  0  0  0  0
  -22.1630  -12.8520   22.0570 N   0  0  0  0  0  0  0  0  0  0  0  0
  -22.3870  -14.5940   20.6830 O   0  0  0  0  0  0  0  0  0  0  0  0
  -22.5530  -12.0190   22.4740 H   0  0  0  0  0  0  0  0  0  0  0  0
  -21.2330  -13.1450   22.3220 H   0  0  0  0  0  0  0  0  0  0  0  0
  -25.4290  -15.2620   20.2760 N   0  0  0  0  0  0  0  0  0  0  0  0
  -24.6620  -15.9070   20.4280 H   0  0  0  0  0  0  0  0  0  0  0  0
  -26.2570  -15.7140   19.9100 H   0  0  0  0  0  0  0  0  0  0  0  0
  1  3  2  0
  2 52  1  0
  2  3  1  0
  4  1  1  0
  5  4  1  0
  5  2  1  0
  7  5  1  0
  7  6  1  0
  8  1  1  0
  8  9  1  0
 10 11  1  0
 10  9  2  0
 12 23  2  0
 13 11  1  0
 13 18  1  0
 14 22  1  0
 14 24  1  0
 15 21  1  0
 15 17  1  0
 16 22  1  0
 17 16  1  0
 18 17  2  0
 19 13  2  0
 20 19  1  0
 20 15  2  0
 21 14  1  0
 22 12  1  0
 24 26  2  0
 25 24  1  0
 27 25  1  0
 28 37  2  0
 28 33  1  0
 29 25  1  0
 29 33  1  0
 30 29  1  0
 31 32  1  0
 31 30  1  0
 32 28  1  0
 33 34  2  0
 34 35  1  0
 36 35  2  0
 37 36  1  0
 38 12  1  0
 38 39  1  0
 38 48  1  0
 39 42  1  0
 40 44  1  0
 40 39  1  0
 41 40  2  0
 44 43  1  0
 46 44  1  0
 46 47  1  0
 46 45  1  0
 48 51  1  1
 48 49  1  0
 50 48  1  0
 52 62  1  0
 53 62  1  0
 54 59  1  0
 55 56  1  0
 55 54  1  0
 57 56  1  0
 57 66  1  0
 57 58  1  0
 59 53  1  0
 59 58  1  0
 60 53  2  0
 62 61  1  0
 63 64  2  0
 64 83  1  0
 65 64  1  0
 65 68  1  0
 66 67  1  0
 66 63  1  0
 67 65  2  0
 68 69  1  0
 69 70  2  0
 71 74  1  0
 71 70  1  0
 72 71  2  0
 73 72  1  0
 73 68  2  0
 74 75  1  0
 75 76  1  0
 76 77  2  0
 78 77  1  0
 78 82  1  0
 79 78  2  0
 80 75  2  0
 80 79  1  0
 81 80  1  0
 83 84  1  0
 84 87  1  0
 84 86  1  0
 85 83  2  0
 88 89  1  0
 88 63  1  0
 90 88  1  0
M  ISO  4  10 101  11 101  53 100  62 100
M  END
>  <TORSDO>  (24) 
F 21

>  <SCORE>  (24) 
-13.223

>  <name>  (24) 
23

>  <ligand_id>  (24) 
23

>  <original_smiles>  (24) 
[H]c1c([H])c([H])c2c(c1[H])C([H])([H])C([H])([H])C([H])([H])C2([H])N([H])C(=O)C1([H])N(C(=O)C([H])(N([H])C(=O)C([H])(N([H])C([H])([H])[H])C([H])([H])[H])C(C([H])([H])[H])(C([H])([H])[H])C([H])([H])[H])C([H])([H])c2c([H])c(OC([H])([H])C([H])([H])C([H])([H])c3nc(C([H])([H])N(C(=O)N4C([H])([H])C([H])([H])C([H])([H])C([H])(n5nc(-c6c([H])c([H])c(Oc7c([H])c([H])c(F)c([H])c7F)c([H])c6[H])c(C(=O)N([H])[H])c5N([H])[H])C4([H])[H])C([H])([H])[H])n(C([H])([H])C([H])([H])[H])n3)c([H])c([H])c2C1([H])[H]

>  <smiles>  (24) 
[H]c1c([H])c([H])c2c(c1[H])C([H])([H])C([H])([H])C([H])([H])C2([H])N([H])C(=O)C1([H])N(C(=O)C([H])(N([H])C(=O)C([H])(N([H])C([H])([H])[H])C([H])([H])[H])C(C([H])([H])[H])(C([H])([H])[H])C([H])([H])[H])C([H])([H])c2c([H])c(OC([H])([H])C([H])([H])C([H])([H])c3nc(C([H])([H])N(C(=O)N4C([H])([H])C([H])([H])C([H])([H])C([H])(n5nc(-c6c([H])c([H])c(Oc7c([H])c([H])c(F)c([H])c7F)c([H])c6[H])c(C(=O)N([H])[H])c5N([H])[H])C4([H])[H])C([H])([H])[H])n(C([H])([H])C([H])([H])[H])n3)c([H])c([H])c2C1([H])[H]

$$$$
24:0:0
     RDKit          3D

 87 93  0  0  1  0  0  0  0  0999 V2000
  -28.0390  -22.3360   18.8310 C   0  0  0  0  0  3  0  0  0  0  0  0
  -28.3190  -23.1270   19.9760 C   0  0  0  0  0  0  0  0  0  0  0  0
  -29.0030  -20.3070   19.9540 C   0  0  0  0  0  2  0  0  0  0  0  0
  -28.1130  -20.0220   17.7000 C   0  0  0  0  0  1  0  0  0  0  0  0
  -28.3980  -20.8920   18.8440 N   0  0  0  0  0  0  0  0  0  0  0  0
  -28.9350  -21.7450   20.6040 N   0  0  0  0  0  0  0  0  0  0  0  0
  -29.3080  -21.8280   21.5410 H   0  0  0  0  0  0  0  0  0  0  0  0
  -27.9510  -17.8340   20.7660 C   0  0  0  0  0  1  0  0  0  0  0  0
  -30.2300  -18.4340   21.6030 C   0  0  0  0  0  1  0  0  0  0  0  0
  -29.3720  -18.2390   20.3370 C   0  0  0  0  0  2  0  0  0  0  0  0
  -30.1080  -16.3090   19.8620 C   0  0  0  0  0  2  0  0  0  0  0  0
  -30.3710  -13.6020   19.0570 C   0  0  0  0  0  2  0  0  0  0  0  0
  -29.4840  -12.9510   17.9290 C   0  0  0  0  0  2  0  0  0  0  0  0
  -28.1430  -12.4480   18.4730 C   0  0  0  0  0  2  0  0  0  0  0  0
  -27.6040  -13.4540   19.5050 C   0  0  0  0  0  3  0  0  0  0  0  0
  -28.6540  -13.9800   20.5340 C   0  0  0  0  0  2  0  0  0  0  0  0
  -29.6980  -14.8130   19.8230 N   0  0  0  0  0  0  0  0  0  0  0  0
  -31.3160  -16.1490   19.5360 O   0  0  0  0  0  1  0  0  0  0  0  0
  -25.3090  -13.8990   20.4550 C   0  0  0  0  0  0  0  0  0  0  0  0
  -24.2800  -13.1000   20.8610 C   0  0  0  0  0  0  0  0  0  0  0  0
  -24.7500  -11.7550   20.7420 C   0  0  0  0  0  0  0  0  0  0  0  0
  -26.3390  -13.0510   20.1070 N   0  0  0  0  0  0  0  0  0  0  0  0
  -26.0230  -11.7450   20.3380 N   0  0  0  0  0  0  0  0  0  0  0  0
  -24.0290  -10.4860   20.9340 C   0  0  0  0  0  0  0  0  0  0  0  0
  -24.4730   -9.5110   21.8550 C   0  0  0  0  0  3  0  0  0  0  0  0
  -23.7440   -8.3160   22.0410 C   0  0  0  0  0  3  0  0  0  0  0  0
  -22.5560   -8.0850   21.3090 C   0  0  0  0  0  0  0  0  0  0  0  0
  -22.1290   -9.0480   20.3770 C   0  0  0  0  0  3  0  0  0  0  0  0
  -22.8580  -10.2350   20.1900 C   0  0  0  0  0  3  0  0  0  0  0  0
  -21.7990   -6.9410   21.4040 O   0  0  0  0  0  0  0  0  0  0  0  0
  -21.7190   -6.2250   22.5700 C   0  0  0  0  0  0  0  0  0  0  0  0
  -21.2430   -6.8020   23.7690 C   0  0  0  0  0  3  0  0  0  0  0  0
  -21.1130   -6.0110   24.9270 C   0  0  0  0  0  3  0  0  0  0  0  0
  -21.4470   -4.6440   24.8900 C   0  0  0  0  0  0  0  0  0  0  0  0
  -21.9130   -4.0660   23.6960 C   0  0  0  0  0  3  0  0  0  0  0  0
  -22.0470   -4.8530   22.5400 C   0  0  0  0  0  0  0  0  0  0  0  0
  -22.4780   -4.2870   21.3870 F   0  0  0  0  0  0  0  0  0  0  0  0
  -21.3140   -3.8820   26.0010 F   0  0  0  0  0  0  0  0  0  0  0  0
  -22.9050  -13.5660   21.2350 C   0  0  0  0  0  0  0  0  0  0  0  0
  -22.2360  -12.8480   22.1290 N   0  0  0  0  0  0  0  0  0  0  0  0
  -22.4370  -14.6060   20.7720 O   0  0  0  0  0  0  0  0  0  0  0  0
  -22.6300  -12.0070   22.5250 H   0  0  0  0  0  0  0  0  0  0  0  0
  -21.3170  -13.1430   22.4230 H   0  0  0  0  0  0  0  0  0  0  0  0
  -25.4470  -15.2760   20.3180 N   0  0  0  0  0  0  0  0  0  0  0  0
  -24.6820  -15.9130   20.5110 H   0  0  0  0  0  0  0  0  0  0  0  0
  -26.2610  -15.7370   19.9360 H   0  0  0  0  0  0  0  0  0  0  0  0
  -28.1950  -24.8800   20.2700 O   0  0  0  0  0  0  0  0  0  0  0  0
  -24.7080  -31.7120   23.1150 C   0  0  0  0  0  0  0  0  0  0  0  0
  -27.2740  -26.2870   20.1710 C   0  0  0  0  0  0  0  0  0  0  0  0
  -23.5700  -30.3160   21.4490 C   0  0  0  0  0  3  0  0  0  0  0  0
  -25.0480  -28.5920   20.0760 C   0  0  0  0  0  0  0  0  0  0  0  0
  -26.1640  -30.3290   21.4330 C   0  0  0  0  0  2  0  0  0  0  0  0
  -26.2340  -28.8570   20.7660 C   0  0  0  0  0  0  0  0  0  0  0  0
  -27.3020  -27.7460   20.7770 C   0  0  0  0  0  3  0  0  0  0  0  0
  -26.0550  -26.3490   19.4080 C   0  0  0  0  0  3  0  0  0  0  0  0
  -25.0240  -27.3680   19.3710 C   0  0  0  0  0  3  0  0  0  0  0  0
  -23.8590  -29.5930   20.0920 C   0  0  0  0  0  2  0  0  0  0  0  0
  -24.8420  -30.8300   22.0520 N   0  0  0  0  0  0  0  0  0  0  0  0
  -23.5980  -32.0290   23.5810 O   0  0  0  0  0  0  0  0  0  0  0  0
  -22.7910  -29.3730   22.4090 C   0  0  0  0  0  0  0  0  0  0  0  0
  -21.4520  -29.2630   22.2710 N   0  0  0  0  0  0  0  0  0  0  0  0
  -23.4110  -28.7300   23.2580 O   0  0  0  0  0  0  0  0  0  0  0  0
  -20.9950  -29.8310   21.5720 H   0  0  0  0  0  0  0  0  0  0  0  0
  -18.0310  -28.1060   22.7630 C   0  0  0  0  0  0  0  0  0  0  0  0
  -20.5990  -28.3330   23.0250 C   0  0  0  0  0  3  0  0  0  0  0  0
  -20.6720  -26.9070   22.4270 C   0  0  0  0  0  2  0  0  0  0  0  0
  -19.5670  -26.6260   21.4040 C   0  0  0  0  0  2  0  0  0  0  0  0
  -18.1870  -26.7740   22.0490 C   0  0  0  0  0  2  0  0  0  0  0  0
  -19.1610  -28.8460   23.2060 C   0  0  0  0  0  0  0  0  0  0  0  0
  -18.9560  -30.0890   23.8420 C   0  0  0  0  0  3  0  0  0  0  0  0
  -17.6570  -30.5960   24.0330 C   0  0  0  0  0  3  0  0  0  0  0  0
  -16.5430  -29.8560   23.6000 C   0  0  0  0  0  3  0  0  0  0  0  0
  -16.7310  -28.6120   22.9720 C   0  0  0  0  0  3  0  0  0  0  0  0
  -25.9400  -32.3790   23.8020 C   0  0  0  0  0  3  0  0  0  0  0  0
  -25.5960  -33.7790   24.1450 N   0  0  0  0  0  0  0  0  0  0  0  0
  -25.9260  -34.8620   23.4260 C   0  0  0  0  0  0  0  0  0  0  0  0
  -26.5950  -34.7890   22.3940 O   0  0  0  0  0  0  0  0  0  0  0  0
  -24.9950  -33.9070   24.9450 H   0  0  0  0  0  0  0  0  0  0  0  0
  -24.1780  -36.6650   23.1600 C   0  0  0  0  0  1  0  0  0  0  0  0
  -25.4440  -36.2450   23.9250 C   0  0  0  0  0  3  0  0  0  0  0  0
  -27.5810  -37.1560   24.7280 C   0  0  0  0  0  1  0  0  0  0  0  0
  -26.4670  -37.3080   23.7950 N   0  0  0  0  0  0  0  0  0  0  0  0
  -26.0570  -38.2270   23.9370 H   0  0  0  0  0  0  0  0  0  0  0  0
  -26.3970  -31.6210   25.1120 C   0  0  1  0  0  0  0  0  0  0  0  0
  -25.2590  -31.3980   26.1360 C   0  0  0  0  0  1  0  0  0  0  0  0
  -26.9950  -30.2370   24.7790 C   0  0  0  0  0  1  0  0  0  0  0  0
  -27.5200  -32.4210   25.8150 C   0  0  0  0  0  1  0  0  0  0  0  0
  1  5  1  0
  1  2  2  0
  2 47  1  0
  2  6  1  0
  3  6  1  0
  4  5  1  0
  5  3  1  0
  6  7  1  0
 10  8  1  0
 10  9  1  0
 12 17  1  0
 13 14  1  0
 13 12  1  0
 15 14  1  0
 15 22  1  0
 15 16  1  0
 17 11  1  0
 17 16  1  0
 18 11  1  0
 19 20  2  0
 20 39  1  0
 21 20  1  0
 21 24  1  0
 22 23  1  0
 22 19  1  0
 23 21  2  0
 24 25  1  0
 25 26  2  0
 27 30  1  0
 27 26  1  0
 28 27  2  0
 29 28  1  0
 29 24  2  0
 30 31  1  0
 31 32  1  0
 32 33  2  0
 34 33  1  0
 34 38  1  0
 35 34  2  0
 36 31  2  0
 36 35  1  0
 37 36  1  0
 39 40  1  0
 40 43  1  0
 40 42  1  0
 41 39  2  0
 44 19  1  0
 44 45  1  0
 46 44  1  0
 48 59  2  0
 49 47  1  0
 49 54  1  0
 50 58  1  0
 50 60  1  0
 51 57  1  0
 51 53  1  0
 52 58  1  0
 53 54  2  0
 53 52  1  0
 55 49  2  0
 56 55  1  0
 56 51  2  0
 57 50  1  0
 58 48  1  0
 60 62  2  0
 61 60  1  0
 63 61  1  0
 64 73  2  0
 64 69  1  0
 65 61  1  0
 65 69  1  0
 66 65  1  0
 67 68  1  0
 67 66  1  0
 68 64  1  0
 69 70  2  0
 70 71  1  0
 72 71  2  0
 73 72  1  0
 74 48  1  0
 74 75  1  0
 74 84  1  0
 75 78  1  0
 76 80  1  0
 76 75  1  0
 77 76  2  0
 80 79  1  0
 82 80  1  0
 82 83  1  0
 82 81  1  0
 84 87  1  1
 84 85  1  0
 86 84  1  0
M  ISO  4   2 101  10 100  11 100  47 101
M  END
>  <TORSDO>  (25) 
F 17

>  <SCORE>  (25) 
-16.093

>  <name>  (25) 
24

>  <ligand_id>  (25) 
24

>  <original_smiles>  (25) 
[H]c1c([H])c([H])c2c(c1[H])C([H])([H])C([H])([H])C([H])([H])C2([H])N([H])C(=O)C1([H])N(C(=O)C([H])(N([H])C(=O)C([H])(N([H])C([H])([H])[H])C([H])([H])[H])C(C([H])([H])[H])(C([H])([H])[H])C([H])([H])[H])C([H])([H])c2c([H])c(Oc3c([H])n(C([H])([H])[H])c(C(C(=O)N4C([H])([H])C([H])([H])C([H])([H])C([H])(n5nc(-c6c([H])c([H])c(Oc7c([H])c([H])c(F)c([H])c7F)c([H])c6[H])c(C(=O)N([H])[H])c5N([H])[H])C4([H])[H])(C([H])([H])[H])C([H])([H])[H])[n+]3[H])c([H])c([H])c2C1([H])[H]

>  <smiles>  (25) 
[H]c1c([H])c([H])c2c(c1[H])C([H])([H])C([H])([H])C([H])([H])C2([H])N([H])C(=O)C1([H])N(C(=O)C([H])(N([H])C(=O)C([H])(N([H])C([H])([H])[H])C([H])([H])[H])C(C([H])([H])[H])(C([H])([H])[H])C([H])([H])[H])C([H])([H])c2c([H])c(Oc3c([H])n(C([H])([H])[H])c(C(C(=O)N4C([H])([H])C([H])([H])C([H])([H])C([H])(n5nc(-c6c([H])c([H])c(Oc7c([H])c([H])c(F)c([H])c7F)c([H])c6[H])c(C(=O)N([H])[H])c5N([H])[H])C4([H])[H])(C([H])([H])[H])C([H])([H])[H])[n+]3[H])c([H])c([H])c2C1([H])[H]

$$$$
25:0:0
     RDKit          3D

 89 97  0  0  1  0  0  0  0  0999 V2000
  -29.3620  -22.1720   19.3010 C   0  0  0  0  0  3  0  0  0  0  0  0
  -28.4880  -22.0840   21.3780 C   0  0  0  0  0  3  0  0  0  0  0  0
  -28.6730  -23.0030   20.2710 C   0  0  0  0  0  0  0  0  0  0  0  0
  -29.5390  -20.0190   20.5120 C   0  0  0  0  0  0  0  0  0  0  0  0
  -29.7730  -20.8170   19.4250 N   0  0  0  0  0  0  0  0  0  0  0  0
  -28.9050  -20.7310   21.4950 N   0  0  0  0  0  0  0  0  0  0  0  0
  -27.8580  -24.5160   20.0200 C   0  0  0  0  0  2  0  0  0  0  0  0
  -28.1950  -26.1000   20.1810 O   0  0  0  0  0  0  0  0  0  0  0  0
  -24.5860  -31.9570   23.2450 C   0  0  0  0  0  0  0  0  0  0  0  0
  -27.1700  -27.1760   20.1390 C   0  0  0  0  0  0  0  0  0  0  0  0
  -23.3830  -30.5640   21.6080 C   0  0  0  0  0  3  0  0  0  0  0  0
  -24.8350  -29.0000   20.1510 C   0  0  0  0  0  0  0  0  0  0  0  0
  -25.9440  -30.8170   21.4280 C   0  0  0  0  0  2  0  0  0  0  0  0
  -26.0240  -29.4190   20.7570 C   0  0  0  0  0  0  0  0  0  0  0  0
  -27.1870  -28.5290   20.7290 C   0  0  0  0  0  3  0  0  0  0  0  0
  -25.9440  -26.9020   19.4860 C   0  0  0  0  0  3  0  0  0  0  0  0
  -24.8170  -27.7600   19.4960 C   0  0  0  0  0  3  0  0  0  0  0  0
  -23.6030  -29.8990   20.2220 C   0  0  0  0  0  2  0  0  0  0  0  0
  -24.6590  -31.1400   22.1470 N   0  0  0  0  0  0  0  0  0  0  0  0
  -23.5010  -32.2280   23.7870 O   0  0  0  0  0  0  0  0  0  0  0  0
  -22.7170  -29.5500   22.5720 C   0  0  0  0  0  0  0  0  0  0  0  0
  -21.3910  -29.3530   22.4490 N   0  0  0  0  0  0  0  0  0  0  0  0
  -23.3990  -28.9380   23.3990 O   0  0  0  0  0  0  0  0  0  0  0  0
  -20.8940  -29.8990   21.7580 H   0  0  0  0  0  0  0  0  0  0  0  0
  -18.0400  -28.0520   22.9430 C   0  0  0  0  0  0  0  0  0  0  0  0
  -20.5910  -28.3960   23.2200 C   0  0  0  0  0  3  0  0  0  0  0  0
  -20.7370  -26.9640   22.6540 C   0  0  0  0  0  2  0  0  0  0  0  0
  -19.6500  -26.6030   21.6350 C   0  0  0  0  0  2  0  0  0  0  0  0
  -18.2620  -26.7080   22.2720 C   0  0  0  0  0  2  0  0  0  0  0  0
  -19.1340  -28.8520   23.3740 C   0  0  0  0  0  0  0  0  0  0  0  0
  -18.8710  -30.1060   23.9660 C   0  0  0  0  0  3  0  0  0  0  0  0
  -17.5500  -30.5640   24.1290 C   0  0  0  0  0  3  0  0  0  0  0  0
  -16.4720  -29.7630   23.7120 C   0  0  0  0  0  3  0  0  0  0  0  0
  -16.7190  -28.5090   23.1260 C   0  0  0  0  0  3  0  0  0  0  0  0
  -25.8590  -32.6050   23.8660 C   0  0  0  0  0  3  0  0  0  0  0  0
  -26.3760  -31.8480   25.1520 C   0  0  1  0  0  0  0  0  0  0  0  0
  -25.2820  -31.6210   26.2220 C   0  0  0  0  0  1  0  0  0  0  0  0
  -26.9630  -30.4670   24.7820 C   0  0  0  0  0  1  0  0  0  0  0  0
  -27.5240  -32.6530   25.8070 C   0  0  0  0  0  1  0  0  0  0  0  0
  -25.5410  -34.0050   24.1960 N   0  0  0  0  0  0  0  0  0  0  0  0
  -25.8580  -35.0630   23.4380 C   0  0  0  0  0  0  0  0  0  0  0  0
  -26.5140  -34.9650   22.3980 O   0  0  0  0  0  0  0  0  0  0  0  0
  -24.9550  -34.1540   25.0050 H   0  0  0  0  0  0  0  0  0  0  0  0
  -24.1200  -36.8580   23.1150 C   0  0  0  0  0  1  0  0  0  0  0  0
  -25.3740  -36.4510   23.9060 C   0  0  0  0  0  3  0  0  0  0  0  0
  -27.5120  -37.3490   24.7150 C   0  0  0  0  0  1  0  0  0  0  0  0
  -26.4020  -37.5080   23.7810 N   0  0  0  0  0  0  0  0  0  0  0  0
  -25.9930  -38.4270   23.9300 H   0  0  0  0  0  0  0  0  0  0  0  0
  -30.2280  -18.4310   20.7380 C   0  0  0  0  0  2  0  0  0  0  0  0
  -30.4790  -15.5530   20.5770 C   0  0  0  0  0  0  0  0  0  0  0  0
  -30.5300  -13.0800   19.7650 C   0  0  0  0  0  2  0  0  0  0  0  0
  -29.6800  -12.7450   18.5150 C   0  0  0  0  0  2  0  0  0  0  0  0
  -28.2390  -12.3840   18.9210 C   0  0  0  0  0  2  0  0  0  0  0  0
  -27.6700  -13.4010   19.9290 C   0  0  0  0  0  3  0  0  0  0  0  0
  -28.6570  -13.7240   21.0840 C   0  0  0  0  0  2  0  0  0  0  0  0
  -29.9010  -14.2480   20.4830 N   0  0  0  0  0  0  0  0  0  0  0  0
  -31.7180  -15.5100   20.5790 O   0  0  0  0  0  0  0  0  0  0  0  0
  -29.7550  -16.8690   20.4830 N   0  0  0  0  0  0  0  0  0  0  0  0
  -25.2730  -13.9700   20.6030 C   0  0  0  0  0  0  0  0  0  0  0  0
  -24.2000  -13.1920   20.9250 C   0  0  0  0  0  0  0  0  0  0  0  0
  -24.6860  -11.8490   20.9290 C   0  0  0  0  0  0  0  0  0  0  0  0
  -26.3320  -13.0990   20.4050 N   0  0  0  0  0  0  0  0  0  0  0  0
  -25.9890  -11.8180   20.6790 N   0  0  0  0  0  0  0  0  0  0  0  0
  -23.9680  -10.5850   21.0890 C   0  0  0  0  0  0  0  0  0  0  0  0
  -24.3650   -9.6370   22.0560 C   0  0  0  0  0  3  0  0  0  0  0  0
  -23.6480   -8.4320   22.2060 C   0  0  0  0  0  3  0  0  0  0  0  0
  -22.5220   -8.1690   21.3910 C   0  0  0  0  0  0  0  0  0  0  0  0
  -22.1460   -9.1080   20.4140 C   0  0  0  0  0  3  0  0  0  0  0  0
  -22.8640  -10.3060   20.2610 C   0  0  0  0  0  3  0  0  0  0  0  0
  -21.7790   -7.0150   21.4510 O   0  0  0  0  0  0  0  0  0  0  0  0
  -21.6720   -6.2910   22.6110 C   0  0  0  0  0  0  0  0  0  0  0  0
  -21.1310   -6.8480   23.7890 C   0  0  0  0  0  3  0  0  0  0  0  0
  -20.9750   -6.0470   24.9380 C   0  0  0  0  0  3  0  0  0  0  0  0
  -21.3480   -4.6890   24.9060 C   0  0  0  0  0  0  0  0  0  0  0  0
  -21.8790   -4.1320   23.7300 C   0  0  0  0  0  3  0  0  0  0  0  0
  -22.0380   -4.9310   22.5840 C   0  0  0  0  0  0  0  0  0  0  0  0
  -22.5320   -4.3850   21.4470 F   0  0  0  0  0  0  0  0  0  0  0  0
  -21.1890   -3.9160   26.0060 F   0  0  0  0  0  0  0  0  0  0  0  0
  -22.7880  -13.6620   21.1150 C   0  0  0  0  0  0  0  0  0  0  0  0
  -22.0220  -12.9760   21.9560 N   0  0  0  0  0  0  0  0  0  0  0  0
  -22.3680  -14.6730   20.5500 O   0  0  0  0  0  0  0  0  0  0  0  0
  -22.3740  -12.1670   22.4440 H   0  0  0  0  0  0  0  0  0  0  0  0
  -21.0710  -13.2710   22.1190 H   0  0  0  0  0  0  0  0  0  0  0  0
  -25.4150  -15.3380   20.4300 N   0  0  0  0  0  0  0  0  0  0  0  0
  -24.6280  -15.9680   20.5180 H   0  0  0  0  0  0  0  0  0  0  0  0
  -26.2730  -15.8040   20.1670 H   0  0  0  0  0  0  0  0  0  0  0  0
  -27.3490  -17.7770   20.2180 C   0  0  0  0  0  1  0  0  0  0  0  0
  -28.7890  -17.1580   18.2020 C   0  0  0  0  0  1  0  0  0  0  0  0
  -28.5070  -16.9040   19.6930 C   0  0  0  0  0  3  0  0  0  0  0  0
  1  5  1  0
  1  3  2  0
  2  6  2  0
  3  2  1  0
  4 49  1  0
  4  6  1  0
  5  4  2  0
  7  8  1  0
  7  3  1  0
  9 20  2  0
 10  8  1  0
 10 15  1  0
 11 19  1  0
 11 21  1  0
 12 18  1  0
 12 14  1  0
 13 19  1  0
 14 13  1  0
 15 14  2  0
 16 17  1  0
 16 10  2  0
 17 12  2  0
 18 11  1  0
 19  9  1  0
 21 23  2  0
 22 21  1  0
 24 22  1  0
 25 34  2  0
 25 30  1  0
 26 22  1  0
 26 30  1  0
 27 26  1  0
 28 29  1  0
 28 27  1  0
 29 25  1  0
 30 31  2  0
 31 32  1  0
 33 32  2  0
 34 33  1  0
 35  9  1  0
 35 40  1  0
 35 36  1  0
 36 39  1  1
 36 37  1  0
 38 36  1  0
 40 43  1  0
 41 45  1  0
 41 40  1  0
 42 41  2  0
 45 44  1  0
 47 45  1  0
 47 48  1  0
 47 46  1  0
 50 57  2  0
 51 56  1  0
 52 53  1  0
 52 51  1  0
 54 53  1  0
 54 62  1  0
 54 55  1  0
 56 50  1  0
 56 55  1  0
 58 50  1  0
 58 49  1  0
 59 60  2  0
 60 61  1  0
 60 79  1  0
 61 64  1  0
 62 59  1  0
 62 63  1  0
 63 61  2  0
 64 65  1  0
 65 66  2  0
 67 70  1  0
 67 66  1  0
 68 67  2  0
 69 68  1  0
 69 64  2  0
 70 71  1  0
 71 72  1  0
 72 73  2  0
 74 73  1  0
 74 78  1  0
 75 74  2  0
 76 71  2  0
 76 75  1  0
 77 76  1  0
 79 80  1  0
 80 83  1  0
 80 82  1  0
 81 79  2  0
 84 85  1  0
 84 59  1  0
 86 84  1  0
 88 89  1  0
 89 87  1  0
 89 58  1  0
M  ISO  4   7 101   8 101  50 100  58 100
M  END
>  <TORSDO>  (26) 
F 19

>  <SCORE>  (26) 
-15.330

>  <name>  (26) 
25

>  <ligand_id>  (26) 
25

>  <original_smiles>  (26) 
[H]c1nc(C([H])([H])N(C(=O)N2C([H])([H])C([H])([H])C([H])([H])C([H])(n3nc(-c4c([H])c([H])c(Oc5c([H])c([H])c(F)c([H])c5F)c([H])c4[H])c(C(=O)N([H])[H])c3N([H])[H])C2([H])[H])C([H])(C([H])([H])[H])C([H])([H])[H])nc([H])c1C([H])([H])Oc1c([H])c([H])c2c(c1[H])C([H])([H])N(C(=O)C([H])(N([H])C(=O)C([H])(N([H])C([H])([H])[H])C([H])([H])[H])C(C([H])([H])[H])(C([H])([H])[H])C([H])([H])[H])C([H])(C(=O)N([H])C1([H])c3c([H])c([H])c([H])c([H])c3C([H])([H])C([H])([H])C1([H])[H])C2([H])[H]

>  <smiles>  (26) 
[H]c1nc(C([H])([H])N(C(=O)N2C([H])([H])C([H])([H])C([H])([H])C([H])(n3nc(-c4c([H])c([H])c(Oc5c([H])c([H])c(F)c([H])c5F)c([H])c4[H])c(C(=O)N([H])[H])c3N([H])[H])C2([H])[H])C([H])(C([H])([H])[H])C([H])([H])[H])nc([H])c1C([H])([H])Oc1c([H])c([H])c2c(c1[H])C([H])([H])N(C(=O)C([H])(N([H])C(=O)C([H])(N([H])C([H])([H])[H])C([H])([H])[H])C(C([H])([H])[H])(C([H])([H])[H])C([H])([H])[H])C([H])(C(=O)N([H])C1([H])c3c([H])c([H])c([H])c([H])c3C([H])([H])C([H])([H])C1([H])[H])C2([H])[H]

$$$$
26:0:0
     RDKit          3D

 87 95  0  0  1  0  0  0  0  0999 V2000
  -29.2610  -20.6870   18.9890 C   0  0  0  0  0  3  0  0  0  0  0  0
  -28.9640  -21.9980   21.2750 C   0  0  0  0  0  3  0  0  0  0  0  0
  -29.5200  -19.8280   20.1410 C   0  0  0  0  0  0  0  0  0  0  0  0
  -28.7040  -22.8550   20.1170 C   0  0  0  0  0  0  0  0  0  0  0  0
  -29.3650  -20.6210   21.2860 N   0  0  0  0  0  0  0  0  0  0  0  0
  -28.8700  -22.0580   18.9790 N   0  0  0  0  0  0  0  0  0  0  0  0
  -30.2790  -18.2560   20.1060 C   0  0  0  0  0  2  0  0  0  0  0  0
  -30.5160  -15.3710   20.1220 C   0  0  0  0  0  0  0  0  0  0  0  0
  -30.4200  -12.9690   19.1350 C   0  0  0  0  0  2  0  0  0  0  0  0
  -29.4310  -12.7850   17.9560 C   0  0  0  0  0  2  0  0  0  0  0  0
  -28.0110  -12.4840   18.4650 C   0  0  0  0  0  2  0  0  0  0  0  0
  -27.6160  -13.4080   19.6400 C   0  0  0  0  0  3  0  0  0  0  0  0
  -28.7320  -13.5030   20.7100 C   0  0  0  0  0  2  0  0  0  0  0  0
  -29.9160  -14.0730   20.0350 N   0  0  0  0  0  0  0  0  0  0  0  0
  -31.7140  -15.3490   19.8030 O   0  0  0  0  0  0  0  0  0  0  0  0
  -28.5310  -16.7090   20.9880 C   0  0  0  0  0  1  0  0  0  0  0  0
  -29.8190  -16.6810   20.3100 N   0  0  0  0  0  0  0  0  0  0  0  0
  -25.2680  -13.9330   20.5050 C   0  0  0  0  0  0  0  0  0  0  0  0
  -24.2350  -13.1390   20.9090 C   0  0  0  0  0  0  0  0  0  0  0  0
  -24.7140  -11.7960   20.8230 C   0  0  0  0  0  0  0  0  0  0  0  0
  -26.3130  -13.0760   20.2020 N   0  0  0  0  0  0  0  0  0  0  0  0
  -25.9910  -11.7810   20.4590 N   0  0  0  0  0  0  0  0  0  0  0  0
  -24.0040  -10.5240   21.0070 C   0  0  0  0  0  0  0  0  0  0  0  0
  -24.4550   -9.5530   21.9280 C   0  0  0  0  0  3  0  0  0  0  0  0
  -23.7430   -8.3480   22.1030 C   0  0  0  0  0  3  0  0  0  0  0  0
  -22.5640   -8.1060   21.3580 C   0  0  0  0  0  0  0  0  0  0  0  0
  -22.1320   -9.0660   20.4250 C   0  0  0  0  0  3  0  0  0  0  0  0
  -22.8460  -10.2620   20.2480 C   0  0  0  0  0  3  0  0  0  0  0  0
  -21.8200   -6.9530   21.4460 O   0  0  0  0  0  0  0  0  0  0  0  0
  -21.7510   -6.2290   22.6090 C   0  0  0  0  0  0  0  0  0  0  0  0
  -21.2430   -6.7830   23.8050 C   0  0  0  0  0  3  0  0  0  0  0  0
  -21.1250   -5.9820   24.9580 C   0  0  0  0  0  3  0  0  0  0  0  0
  -21.5050   -4.6270   24.9170 C   0  0  0  0  0  0  0  0  0  0  0  0
  -22.0060   -4.0710   23.7270 C   0  0  0  0  0  3  0  0  0  0  0  0
  -22.1270   -4.8700   22.5750 C   0  0  0  0  0  0  0  0  0  0  0  0
  -22.5890   -4.3240   21.4250 F   0  0  0  0  0  0  0  0  0  0  0  0
  -21.3840   -3.8550   26.0220 F   0  0  0  0  0  0  0  0  0  0  0  0
  -22.8480  -13.5980   21.2480 C   0  0  0  0  0  0  0  0  0  0  0  0
  -22.1670  -12.8830   22.1350 N   0  0  0  0  0  0  0  0  0  0  0  0
  -22.3800  -14.6300   20.7660 O   0  0  0  0  0  0  0  0  0  0  0  0
  -22.5620  -12.0500   22.5470 H   0  0  0  0  0  0  0  0  0  0  0  0
  -21.2390  -13.1720   22.4060 H   0  0  0  0  0  0  0  0  0  0  0  0
  -25.3860  -15.3070   20.3360 N   0  0  0  0  0  0  0  0  0  0  0  0
  -24.5990  -15.9320   20.4710 H   0  0  0  0  0  0  0  0  0  0  0  0
  -26.1810  -15.7610   19.9070 H   0  0  0  0  0  0  0  0  0  0  0  0
  -27.8730  -24.3880   20.0340 C   0  0  0  0  0  2  0  0  0  0  0  0
  -28.2270  -25.9680   20.2480 O   0  0  0  0  0  0  0  0  0  0  0  0
  -24.6530  -31.8870   23.2540 C   0  0  0  0  0  0  0  0  0  0  0  0
  -27.2160  -27.0590   20.1960 C   0  0  0  0  0  0  0  0  0  0  0  0
  -23.4550  -30.5010   21.6110 C   0  0  0  0  0  3  0  0  0  0  0  0
  -24.9030  -28.9140   20.1760 C   0  0  0  0  0  0  0  0  0  0  0  0
  -26.0200  -30.7250   21.4570 C   0  0  0  0  0  2  0  0  0  0  0  0
  -26.0920  -29.3230   20.7920 C   0  0  0  0  0  0  0  0  0  0  0  0
  -27.2440  -28.4170   20.7780 C   0  0  0  0  0  3  0  0  0  0  0  0
  -25.9890  -26.7950   19.5410 C   0  0  0  0  0  3  0  0  0  0  0  0
  -24.8740  -27.6690   19.5300 C   0  0  0  0  0  3  0  0  0  0  0  0
  -23.6810  -29.8270   20.2300 C   0  0  0  0  0  2  0  0  0  0  0  0
  -24.7320  -31.0640   22.1610 N   0  0  0  0  0  0  0  0  0  0  0  0
  -23.5650  -32.1740   23.7790 O   0  0  0  0  0  0  0  0  0  0  0  0
  -22.7640  -29.4980   22.5720 C   0  0  0  0  0  0  0  0  0  0  0  0
  -21.4360  -29.3250   22.4410 N   0  0  0  0  0  0  0  0  0  0  0  0
  -23.4310  -28.8770   23.4040 O   0  0  0  0  0  0  0  0  0  0  0  0
  -20.9540  -29.8780   21.7460 H   0  0  0  0  0  0  0  0  0  0  0  0
  -18.0570  -28.0970   22.9330 C   0  0  0  0  0  0  0  0  0  0  0  0
  -20.6140  -28.3810   23.2070 C   0  0  0  0  0  3  0  0  0  0  0  0
  -20.7280  -26.9500   22.6310 C   0  0  0  0  0  2  0  0  0  0  0  0
  -19.6320  -26.6200   21.6140 C   0  0  0  0  0  2  0  0  0  0  0  0
  -18.2470  -26.7520   22.2520 C   0  0  0  0  0  2  0  0  0  0  0  0
  -19.1680  -28.8700   23.3660 C   0  0  0  0  0  0  0  0  0  0  0  0
  -18.9350  -30.1260   23.9660 C   0  0  0  0  0  3  0  0  0  0  0  0
  -17.6250  -30.6110   24.1370 C   0  0  0  0  0  3  0  0  0  0  0  0
  -16.5290  -29.8370   23.7160 C   0  0  0  0  0  3  0  0  0  0  0  0
  -16.7450  -28.5820   23.1200 C   0  0  0  0  0  3  0  0  0  0  0  0
  -25.9240  -32.5260   23.8880 C   0  0  0  0  0  3  0  0  0  0  0  0
  -25.6110  -33.9280   24.2190 N   0  0  0  0  0  0  0  0  0  0  0  0
  -25.9210  -34.9850   23.4590 C   0  0  0  0  0  0  0  0  0  0  0  0
  -26.5670  -34.8850   22.4110 O   0  0  0  0  0  0  0  0  0  0  0  0
  -25.0340  -34.0790   25.0350 H   0  0  0  0  0  0  0  0  0  0  0  0
  -24.1750  -36.7770   23.1690 C   0  0  0  0  0  1  0  0  0  0  0  0
  -25.4460  -36.3750   23.9330 C   0  0  0  0  0  3  0  0  0  0  0  0
  -27.5990  -37.2820   24.6910 C   0  0  0  0  0  1  0  0  0  0  0  0
  -26.4680  -37.4330   23.7800 N   0  0  0  0  0  0  0  0  0  0  0  0
  -26.0620  -38.3520   23.9300 H   0  0  0  0  0  0  0  0  0  0  0  0
  -26.4230  -31.7630   25.1790 C   0  0  1  0  0  0  0  0  0  0  0  0
  -25.3170  -31.5360   26.2360 C   0  0  0  0  0  1  0  0  0  0  0  0
  -27.0080  -30.3800   24.8110 C   0  0  0  0  0  1  0  0  0  0  0  0
  -27.5680  -32.5610   25.8470 C   0  0  0  0  0  1  0  0  0  0  0  0
  1  3  1  0
  2  5  1  0
  3  5  2  0
  4  2  2  0
  6  1  2  0
  6  4  1  0
  7  3  1  0
  7 17  1  0
  8 17  1  0
  9 14  1  0
 10 11  1  0
 10  9  1  0
 12 11  1  0
 12 21  1  0
 12 13  1  0
 14  8  1  0
 14 13  1  0
 15  8  2  0
 17 16  1  0
 18 19  2  0
 19 38  1  0
 20 19  1  0
 20 23  1  0
 21 22  1  0
 21 18  1  0
 22 20  2  0
 23 24  1  0
 24 25  2  0
 26 29  1  0
 26 25  1  0
 27 26  2  0
 28 27  1  0
 28 23  2  0
 29 30  1  0
 30 31  1  0
 31 32  2  0
 33 32  1  0
 33 37  1  0
 34 33  2  0
 35 30  2  0
 35 34  1  0
 36 35  1  0
 38 39  1  0
 39 42  1  0
 39 41  1  0
 40 38  2  0
 43 44  1  0
 43 18  1  0
 45 43  1  0
 46  4  1  0
 46 47  1  0
 48 59  2  0
 49 47  1  0
 49 54  1  0
 50 58  1  0
 50 60  1  0
 51 57  1  0
 51 53  1  0
 52 58  1  0
 53 52  1  0
 54 53  2  0
 55 49  2  0
 56 55  1  0
 56 51  2  0
 57 50  1  0
 58 48  1  0
 60 62  2  0
 61 60  1  0
 63 61  1  0
 64 73  2  0
 64 69  1  0
 65 61  1  0
 65 69  1  0
 66 65  1  0
 67 68  1  0
 67 66  1  0
 68 64  1  0
 69 70  2  0
 70 71  1  0
 72 71  2  0
 73 72  1  0
 74 48  1  0
 74 75  1  0
 74 84  1  0
 75 78  1  0
 76 80  1  0
 76 75  1  0
 77 76  2  0
 80 79  1  0
 82 83  1  0
 82 80  1  0
 82 81  1  0
 84 87  1  1
 84 85  1  0
 86 84  1  0
M  ISO  4   8 100  17 100  46 101  47 101
M  END
>  <TORSDO>  (27) 
F 18

>  <SCORE>  (27) 
-15.748

>  <name>  (27) 
26

>  <ligand_id>  (27) 
26

>  <original_smiles>  (27) 
[H]c1nc(C([H])([H])N(C(=O)N2C([H])([H])C([H])([H])C([H])([H])C([H])(n3nc(-c4c([H])c([H])c(Oc5c([H])c([H])c(F)c([H])c5F)c([H])c4[H])c(C(=O)N([H])[H])c3N([H])[H])C2([H])[H])C([H])([H])[H])c([H])nc1C([H])([H])Oc1c([H])c([H])c2c(c1[H])C([H])([H])N(C(=O)C([H])(N([H])C(=O)C([H])(N([H])C([H])([H])[H])C([H])([H])[H])C(C([H])([H])[H])(C([H])([H])[H])C([H])([H])[H])C([H])(C(=O)N([H])C1([H])c3c([H])c([H])c([H])c([H])c3C([H])([H])C([H])([H])C1([H])[H])C2([H])[H]

>  <smiles>  (27) 
[H]c1nc(C([H])([H])N(C(=O)N2C([H])([H])C([H])([H])C([H])([H])C([H])(n3nc(-c4c([H])c([H])c(Oc5c([H])c([H])c(F)c([H])c5F)c([H])c4[H])c(C(=O)N([H])[H])c3N([H])[H])C2([H])[H])C([H])([H])[H])c([H])nc1C([H])([H])Oc1c([H])c([H])c2c(c1[H])C([H])([H])N(C(=O)C([H])(N([H])C(=O)C([H])(N([H])C([H])([H])[H])C([H])([H])[H])C(C([H])([H])[H])(C([H])([H])[H])C([H])([H])[H])C([H])(C(=O)N([H])C1([H])c3c([H])c([H])c([H])c([H])c3C([H])([H])C([H])([H])C1([H])[H])C2([H])[H]

$$$$
27:0:0
     RDKit          3D

 85 93  0  0  1  0  0  0  0  0999 V2000
  -28.8280  -22.1370   19.8050 C   0  0  0  0  0  2  0  0  0  0  0  0
  -30.2600  -20.9860   21.5280 C   0  0  0  0  0  3  0  0  0  0  0  0
  -29.8580  -19.0750   20.4990 C   0  0  0  0  0  0  0  0  0  0  0  0
  -30.9430  -20.0530   22.1760 N   0  0  0  0  0  0  0  0  0  0  0  0
  -30.6930  -18.8780   21.5360 N   0  0  0  0  0  0  0  0  0  0  0  0
  -29.5180  -20.6400   20.4620 N   0  0  0  0  0  0  0  0  0  0  0  0
  -29.6160  -17.3690   19.8580 C   0  0  0  0  0  2  0  0  0  0  0  0
  -30.4350  -15.6860   19.9850 C   0  0  0  0  0  0  0  0  0  0  0  0
  -30.4880  -13.1430   19.1660 C   0  0  0  0  0  2  0  0  0  0  0  0
  -29.5360  -12.7900   17.9860 C   0  0  0  0  0  2  0  0  0  0  0  0
  -28.1220  -12.4580   18.4910 C   0  0  0  0  0  2  0  0  0  0  0  0
  -27.6740  -13.4470   19.5910 C   0  0  0  0  0  3  0  0  0  0  0  0
  -28.7560  -13.7190   20.6590 C   0  0  0  0  0  2  0  0  0  0  0  0
  -29.9230  -14.3160   19.9710 N   0  0  0  0  0  0  0  0  0  0  0  0
  -31.6670  -15.6000   19.8050 O   0  0  0  0  0  0  0  0  0  0  0  0
  -25.3640  -13.9850   20.4990 C   0  0  0  0  0  0  0  0  0  0  0  0
  -24.3150  -13.2080   20.9010 C   0  0  0  0  0  0  0  0  0  0  0  0
  -24.7670  -11.8540   20.8100 C   0  0  0  0  0  0  0  0  0  0  0  0
  -26.3820  -13.1090   20.1720 N   0  0  0  0  0  0  0  0  0  0  0  0
  -26.0420  -11.8180   20.4300 N   0  0  0  0  0  0  0  0  0  0  0  0
  -24.0340  -10.5950   21.0040 C   0  0  0  0  0  0  0  0  0  0  0  0
  -24.4830   -9.6080   21.9090 C   0  0  0  0  0  3  0  0  0  0  0  0
  -23.7460   -8.4180   22.0950 C   0  0  0  0  0  3  0  0  0  0  0  0
  -22.5460   -8.2060   21.3750 C   0  0  0  0  0  0  0  0  0  0  0  0
  -22.1150   -9.1810   20.4580 C   0  0  0  0  0  3  0  0  0  0  0  0
  -22.8530  -10.3620   20.2710 C   0  0  0  0  0  3  0  0  0  0  0  0
  -21.7790   -7.0700   21.4710 O   0  0  0  0  0  0  0  0  0  0  0  0
  -21.7420   -6.3200   22.6200 C   0  0  0  0  0  0  0  0  0  0  0  0
  -21.3230   -6.8670   23.8520 C   0  0  0  0  0  3  0  0  0  0  0  0
  -21.2330   -6.0440   24.9930 C   0  0  0  0  0  3  0  0  0  0  0  0
  -21.5530   -4.6770   24.9020 C   0  0  0  0  0  0  0  0  0  0  0  0
  -21.9640   -4.1290   23.6740 C   0  0  0  0  0  3  0  0  0  0  0  0
  -22.0550   -4.9490   22.5360 C   0  0  0  0  0  0  0  0  0  0  0  0
  -22.4320   -4.4110   21.3510 F   0  0  0  0  0  0  0  0  0  0  0  0
  -21.4600   -3.8840   25.9960 F   0  0  0  0  0  0  0  0  0  0  0  0
  -22.9390  -13.6920   21.2470 C   0  0  0  0  0  0  0  0  0  0  0  0
  -22.2440  -12.9840   22.1290 N   0  0  0  0  0  0  0  0  0  0  0  0
  -22.4910  -14.7340   20.7690 O   0  0  0  0  0  0  0  0  0  0  0  0
  -22.6210  -12.1410   22.5370 H   0  0  0  0  0  0  0  0  0  0  0  0
  -21.3200  -13.2900   22.4030 H   0  0  0  0  0  0  0  0  0  0  0  0
  -25.5310  -15.3590   20.3500 N   0  0  0  0  0  0  0  0  0  0  0  0
  -24.7770  -16.0140   20.5250 H   0  0  0  0  0  0  0  0  0  0  0  0
  -26.3630  -15.8000   19.9820 H   0  0  0  0  0  0  0  0  0  0  0  0
  -28.2960  -23.8760   20.4840 C   0  0  0  0  0  2  0  0  0  0  0  0
  -28.3630  -25.6120   20.2120 O   0  0  0  0  0  0  0  0  0  0  0  0
  -24.7000  -31.8180   23.1490 C   0  0  0  0  0  0  0  0  0  0  0  0
  -27.3430  -26.7790   20.2240 C   0  0  0  0  0  0  0  0  0  0  0  0
  -23.5520  -30.3920   21.5090 C   0  0  0  0  0  3  0  0  0  0  0  0
  -25.0390  -28.7590   20.1290 C   0  0  0  0  0  0  0  0  0  0  0  0
  -26.1280  -30.5830   21.4100 C   0  0  0  0  0  2  0  0  0  0  0  0
  -26.2240  -29.1480   20.7670 C   0  0  0  0  0  0  0  0  0  0  0  0
  -27.3640  -28.1870   20.7740 C   0  0  0  0  0  3  0  0  0  0  0  0
  -26.1170  -26.5930   19.5370 C   0  0  0  0  0  3  0  0  0  0  0  0
  -25.0240  -27.5080   19.4900 C   0  0  0  0  0  3  0  0  0  0  0  0
  -23.8170  -29.6910   20.1470 C   0  0  0  0  0  2  0  0  0  0  0  0
  -24.8160  -30.9640   22.0760 N   0  0  0  0  0  0  0  0  0  0  0  0
  -23.5970  -32.1020   23.6470 O   0  0  0  0  0  0  0  0  0  0  0  0
  -22.8420  -29.4080   22.4780 C   0  0  0  0  0  0  0  0  0  0  0  0
  -21.5160  -29.2220   22.3310 N   0  0  0  0  0  0  0  0  0  0  0  0
  -23.4980  -28.8080   23.3340 O   0  0  0  0  0  0  0  0  0  0  0  0
  -21.0370  -29.7560   21.6200 H   0  0  0  0  0  0  0  0  0  0  0  0
  -18.1560  -27.9100   22.7700 C   0  0  0  0  0  0  0  0  0  0  0  0
  -20.6970  -28.2740   23.0990 C   0  0  0  0  0  3  0  0  0  0  0  0
  -20.8640  -26.8330   22.5610 C   0  0  0  0  0  2  0  0  0  0  0  0
  -19.8040  -26.4510   21.5220 C   0  0  0  0  0  2  0  0  0  0  0  0
  -18.4010  -26.5560   22.1230 C   0  0  0  0  0  2  0  0  0  0  0  0
  -19.2330  -28.7230   23.2120 C   0  0  0  0  0  0  0  0  0  0  0  0
  -18.9490  -29.9840   23.7810 C   0  0  0  0  0  3  0  0  0  0  0  0
  -17.6210  -30.4340   23.9080 C   0  0  0  0  0  3  0  0  0  0  0  0
  -16.5590  -29.6200   23.4780 C   0  0  0  0  0  3  0  0  0  0  0  0
  -16.8270  -28.3600   22.9150 C   0  0  0  0  0  3  0  0  0  0  0  0
  -25.9460  -32.4910   23.8010 C   0  0  0  0  0  3  0  0  0  0  0  0
  -26.4390  -31.7470   25.1040 C   0  0  1  0  0  0  0  0  0  0  0  0
  -25.3230  -31.5090   26.1490 C   0  0  0  0  0  1  0  0  0  0  0  0
  -27.0520  -30.3720   24.7600 C   0  0  0  0  0  1  0  0  0  0  0  0
  -27.5620  -32.5680   25.7820 C   0  0  0  0  0  1  0  0  0  0  0  0
  -25.5970  -33.8880   24.1260 N   0  0  0  0  0  0  0  0  0  0  0  0
  -25.9300  -34.9580   23.3910 C   0  0  0  0  0  0  0  0  0  0  0  0
  -26.6200  -34.8740   22.3720 O   0  0  0  0  0  0  0  0  0  0  0  0
  -24.9830  -34.0250   24.9150 H   0  0  0  0  0  0  0  0  0  0  0  0
  -24.1870  -36.7440   23.0310 C   0  0  0  0  0  1  0  0  0  0  0  0
  -25.4210  -36.3400   23.8550 C   0  0  0  0  0  3  0  0  0  0  0  0
  -27.5270  -37.2520   24.7310 C   0  0  0  0  0  1  0  0  0  0  0  0
  -26.4420  -37.4070   23.7660 N   0  0  0  0  0  0  0  0  0  0  0  0
  -26.0210  -38.3220   23.9070 H   0  0  0  0  0  0  0  0  0  0  0  0
  1  6  1  0
  1 44  1  0
  2  4  2  0
  3  5  2  0
  5  4  1  0
  6  3  1  0
  6  2  1  0
  7  8  1  0
  7  3  1  0
  9 14  1  0
 10 11  1  0
 10  9  1  0
 12 11  1  0
 12 19  1  0
 12 13  1  0
 14  8  1  0
 14 13  1  0
 15  8  2  0
 16 17  2  0
 17 36  1  0
 18 17  1  0
 18 21  1  0
 19 20  1  0
 19 16  1  0
 20 18  2  0
 21 22  1  0
 22 23  2  0
 24 27  1  0
 24 23  1  0
 25 24  2  0
 26 25  1  0
 26 21  2  0
 27 28  1  0
 28 29  1  0
 29 30  2  0
 31 30  1  0
 31 35  1  0
 32 31  2  0
 33 28  2  0
 33 32  1  0
 34 33  1  0
 36 37  1  0
 37 40  1  0
 37 39  1  0
 38 36  2  0
 41 16  1  0
 41 42  1  0
 43 41  1  0
 45 47  1  0
 45 44  1  0
 46 57  2  0
 47 52  1  0
 48 56  1  0
 48 58  1  0
 49 55  1  0
 49 51  1  0
 50 56  1  0
 51 52  2  0
 51 50  1  0
 53 47  2  0
 54 53  1  0
 54 49  2  0
 55 48  1  0
 56 46  1  0
 58 60  2  0
 59 58  1  0
 61 59  1  0
 62 71  2  0
 62 67  1  0
 63 59  1  0
 63 67  1  0
 64 63  1  0
 65 66  1  0
 65 64  1  0
 66 62  1  0
 67 68  2  0
 68 69  1  0
 70 69  2  0
 71 70  1  0
 72 46  1  0
 72 77  1  0
 72 73  1  0
 73 76  1  1
 73 74  1  0
 75 73  1  0
 77 80  1  0
 78 82  1  0
 78 77  1  0
 79 78  2  0
 82 81  1  0
 84 82  1  0
 84 85  1  0
 84 83  1  0
M  ISO  4   7 100   8 100  44 101  45 101
M  END
>  <TORSDO>  (28) 
F 19

>  <SCORE>  (28) 
-16.477

>  <name>  (28) 
27

>  <ligand_id>  (28) 
27

>  <original_smiles>  (28) 
[H]c1c([H])c([H])c2c(c1[H])C([H])([H])C([H])([H])C([H])([H])C2([H])N([H])C(=O)C1([H])N(C(=O)C([H])(N([H])C(=O)C([H])(N([H])C([H])([H])[H])C([H])([H])[H])C(C([H])([H])[H])(C([H])([H])[H])C([H])([H])[H])C([H])([H])c2c([H])c(OC([H])([H])C([H])([H])n3c([H])nnc3C([H])([H])C(=O)N3C([H])([H])C([H])([H])C([H])([H])C([H])(n4nc(-c5c([H])c([H])c(Oc6c([H])c([H])c(F)c([H])c6F)c([H])c5[H])c(C(=O)N([H])[H])c4N([H])[H])C3([H])[H])c([H])c([H])c2C1([H])[H]

>  <smiles>  (28) 
[H]c1c([H])c([H])c2c(c1[H])C([H])([H])C([H])([H])C([H])([H])C2([H])N([H])C(=O)C1([H])N(C(=O)C([H])(N([H])C(=O)C([H])(N([H])C([H])([H])[H])C([H])([H])[H])C(C([H])([H])[H])(C([H])([H])[H])C([H])([H])[H])C([H])([H])c2c([H])c(OC([H])([H])C([H])([H])n3c([H])nnc3C([H])([H])C(=O)N3C([H])([H])C([H])([H])C([H])([H])C([H])(n4nc(-c5c([H])c([H])c(Oc6c([H])c([H])c(F)c([H])c6F)c([H])c5[H])c(C(=O)N([H])[H])c4N([H])[H])C3([H])[H])c([H])c([H])c2C1([H])[H]

$$$$
28:0:0
     RDKit          3D

 94102  0  0  1  0  0  0  0  0999 V2000
  -31.3990  -21.3640   19.8640 C   0  0  0  0  0  3  0  0  0  0  0  0
  -31.8320  -19.9370   20.3370 C   0  0  0  0  0  2  0  0  0  0  0  0
  -31.1690  -18.7100   19.6770 C   0  0  0  0  0  2  0  0  0  0  0  0
  -28.5930  -16.2480   20.6950 C   0  0  0  0  0  3  0  0  0  0  0  0
  -28.1750  -17.3380   21.4150 C   0  0  0  0  0  3  0  0  0  0  0  0
  -30.0990  -17.8740   20.3750 C   0  0  0  0  0  3  0  0  0  0  0  0
  -29.8220  -16.5720   20.1130 N   0  0  0  0  0  0  0  0  0  0  0  0
  -29.1260  -18.3060   21.2040 N   0  0  0  0  0  0  0  0  0  0  0  0
  -29.0670  -19.2330   21.5940 H   0  0  0  0  0  0  0  0  0  0  0  0
  -31.2390  -16.3050   17.9220 C   0  0  0  0  0  1  0  0  0  0  0  0
  -30.6320  -15.6720   19.2130 C   0  0  0  0  0  3  0  0  0  0  0  0
  -31.6000  -14.5600   19.8280 C   0  0  0  0  0  0  0  0  0  0  0  0
  -31.5340  -12.1500   19.4150 C   0  0  0  0  0  2  0  0  0  0  0  0
  -30.6350  -11.8840   18.1770 C   0  0  0  0  0  2  0  0  0  0  0  0
  -29.1420  -11.7870   18.5660 C   0  0  0  0  0  2  0  0  0  0  0  0
  -28.7060  -12.9830   19.4270 C   0  0  0  0  0  3  0  0  0  0  0  0
  -29.6810  -13.2000   20.6130 C   0  0  0  0  0  2  0  0  0  0  0  0
  -31.0420  -13.3510   20.1030 N   0  0  0  0  0  0  0  0  0  0  0  0
  -32.8220  -14.6790   19.6810 O   0  0  0  0  0  0  0  0  0  0  0  0
  -26.4240  -13.9460   20.0780 C   0  0  0  0  0  0  0  0  0  0  0  0
  -25.2760  -13.3480   20.5200 C   0  0  0  0  0  0  0  0  0  0  0  0
  -25.5760  -11.9560   20.5760 C   0  0  0  0  0  0  0  0  0  0  0  0
  -27.3430  -12.9180   19.9100 N   0  0  0  0  0  0  0  0  0  0  0  0
  -26.8490  -11.7210   20.2820 N   0  0  0  0  0  0  0  0  0  0  0  0
  -24.7050  -10.7980   20.7990 C   0  0  0  0  0  0  0  0  0  0  0  0
  -25.0180   -9.8380   21.7830 C   0  0  0  0  0  3  0  0  0  0  0  0
  -24.1690   -8.7310   21.9780 C   0  0  0  0  0  3  0  0  0  0  0  0
  -22.9960   -8.5890   21.1930 C   0  0  0  0  0  0  0  0  0  0  0  0
  -22.7070   -9.5370   20.1930 C   0  0  0  0  0  3  0  0  0  0  0  0
  -23.5570  -10.6350   19.9980 C   0  0  0  0  0  3  0  0  0  0  0  0
  -22.1160   -7.5400   21.3050 O   0  0  0  0  0  0  0  0  0  0  0  0
  -21.9350   -6.8810   22.4950 C   0  0  0  0  0  0  0  0  0  0  0  0
  -21.5280   -7.5630   23.6650 C   0  0  0  0  0  3  0  0  0  0  0  0
  -21.2840   -6.8430   24.8490 C   0  0  0  0  0  3  0  0  0  0  0  0
  -21.4300   -5.4430   24.8620 C   0  0  0  0  0  0  0  0  0  0  0  0
  -21.8260   -4.7630   23.6960 C   0  0  0  0  0  3  0  0  0  0  0  0
  -22.0750   -5.4800   22.5160 C   0  0  0  0  0  0  0  0  0  0  0  0
  -22.4370   -4.8230   21.3900 F   0  0  0  0  0  0  0  0  0  0  0  0
  -21.1850   -4.7470   26.0000 F   0  0  0  0  0  0  0  0  0  0  0  0
  -23.9580  -14.0130   20.7330 C   0  0  0  0  0  0  0  0  0  0  0  0
  -23.1390  -13.4560   21.6230 N   0  0  0  0  0  0  0  0  0  0  0  0
  -23.6620  -15.0490   20.1510 O   0  0  0  0  0  0  0  0  0  0  0  0
  -23.4130  -12.6020   22.0960 H   0  0  0  0  0  0  0  0  0  0  0  0
  -22.2290  -13.8590   21.8070 H   0  0  0  0  0  0  0  0  0  0  0  0
  -26.7100  -15.2520   19.7400 N   0  0  0  0  0  0  0  0  0  0  0  0
  -25.8080  -15.7250   19.6950 H   0  0  0  0  0  0  0  0  0  0  0  0
  -27.0760  -15.2120   18.7890 H   0  0  0  0  0  0  0  0  0  0  0  0
  -30.4460  -22.1310   20.8160 C   0  0  0  0  0  3  0  0  0  0  0  0
  -30.8190  -24.3430   19.6970 C   0  0  0  0  0  1  0  0  0  0  0  0
  -29.8350  -23.3790   20.2500 N   0  0  2  0  0  4  0  0  0  0  0  0
  -29.2680  -23.0680   19.4690 H   0  0  0  0  0  0  0  0  0  0  0  0
  -28.9170  -24.0530   21.2210 C   0  0  0  0  0  2  0  0  0  0  0  0
  -27.8420  -24.9560   20.5730 C   0  0  0  0  0  2  0  0  0  0  0  0
  -28.2310  -26.3120   20.2390 O   0  0  0  0  0  0  0  0  0  0  0  0
  -24.5190  -31.6530   23.1210 C   0  0  0  0  0  0  0  0  0  0  0  0
  -27.1320  -27.1440   20.1070 C   0  0  0  0  0  0  0  0  0  0  0  0
  -23.3220  -30.2550   21.4780 C   0  0  0  0  0  3  0  0  0  0  0  0
  -24.7720  -28.7040   20.0650 C   0  0  0  0  0  0  0  0  0  0  0  0
  -25.8550  -30.5870   21.3020 C   0  0  0  0  0  2  0  0  0  0  0  0
  -25.9330  -29.2120   20.6630 C   0  0  0  0  0  0  0  0  0  0  0  0
  -27.1240  -28.4450   20.6690 C   0  0  0  0  0  3  0  0  0  0  0  0
  -25.9590  -26.6780   19.4700 C   0  0  0  0  0  3  0  0  0  0  0  0
  -24.7820  -27.4420   19.4580 C   0  0  0  0  0  3  0  0  0  0  0  0
  -23.5410  -29.5710   20.0990 C   0  0  0  0  0  2  0  0  0  0  0  0
  -24.5840  -30.8460   22.0240 N   0  0  0  0  0  0  0  0  0  0  0  0
  -23.4340  -31.9360   23.6450 O   0  0  0  0  0  0  0  0  0  0  0  0
  -22.6480  -29.2420   22.4310 C   0  0  0  0  0  0  0  0  0  0  0  0
  -21.3220  -29.0860   22.3010 N   0  0  0  0  0  0  0  0  0  0  0  0
  -23.3180  -28.6050   23.2460 O   0  0  0  0  0  0  0  0  0  0  0  0
  -20.8470  -29.6580   21.6200 H   0  0  0  0  0  0  0  0  0  0  0  0
  -17.9210  -27.9520   22.7920 C   0  0  0  0  0  0  0  0  0  0  0  0
  -20.4840  -28.1630   23.0670 C   0  0  0  0  0  3  0  0  0  0  0  0
  -20.5550  -26.7290   22.4890 C   0  0  0  0  0  2  0  0  0  0  0  0
  -19.4500  -26.4290   21.4710 C   0  0  0  0  0  2  0  0  0  0  0  0
  -18.0730  -26.6010   22.1150 C   0  0  0  0  0  2  0  0  0  0  0  0
  -19.0540  -28.6940   23.2250 C   0  0  0  0  0  0  0  0  0  0  0  0
  -18.8580  -29.9610   23.8180 C   0  0  0  0  0  3  0  0  0  0  0  0
  -17.5630  -30.4860   23.9820 C   0  0  0  0  0  3  0  0  0  0  0  0
  -16.4450  -29.7440   23.5650 C   0  0  0  0  0  3  0  0  0  0  0  0
  -16.6250  -28.4780   22.9770 C   0  0  0  0  0  3  0  0  0  0  0  0
  -25.8010  -32.2750   23.7540 C   0  0  0  0  0  3  0  0  0  0  0  0
  -25.4870  -33.6700   24.0990 N   0  0  0  0  0  0  0  0  0  0  0  0
  -25.8170  -34.7330   23.3510 C   0  0  0  0  0  0  0  0  0  0  0  0
  -26.4860  -34.6410   22.3180 O   0  0  0  0  0  0  0  0  0  0  0  0
  -24.8850  -33.8140   24.8970 H   0  0  0  0  0  0  0  0  0  0  0  0
  -24.0750  -36.5210   23.0280 C   0  0  0  0  0  1  0  0  0  0  0  0
  -25.3250  -36.1150   23.8250 C   0  0  0  0  0  3  0  0  0  0  0  0
  -27.4660  -36.9980   24.6430 C   0  0  0  0  0  1  0  0  0  0  0  0
  -26.3530  -37.1730   23.7140 N   0  0  0  0  0  0  0  0  0  0  0  0
  -25.9450  -38.0900   23.8770 H   0  0  0  0  0  0  0  0  0  0  0  0
  -26.3150  -31.4930   25.0210 C   0  0  1  0  0  0  0  0  0  0  0  0
  -25.2210  -31.2420   26.0880 C   0  0  0  0  0  1  0  0  0  0  0  0
  -26.8940  -30.1190   24.6120 C   0  0  0  0  0  1  0  0  0  0  0  0
  -27.4650  -32.2770   25.6960 C   0  0  0  0  0  1  0  0  0  0  0  0
  1  2  1  0
  1 48  2  0
  3  2  1  0
  4  5  2  0
  6  3  1  0
  6  8  1  0
  7  6  1  0
  7  4  1  0
  8  5  1  0
  8  9  1  0
 11 10  1  0
 11 12  1  0
 11  7  1  0
 12 18  1  0
 13 18  1  0
 14 15  1  0
 14 13  1  0
 16 15  1  0
 16 23  1  0
 16 17  1  0
 18 17  1  0
 19 12  2  0
 20 21  2  0
 21 22  1  0
 21 40  1  0
 22 25  1  0
 23 20  1  0
 23 24  1  0
 24 22  2  0
 25 26  1  0
 26 27  2  0
 28 31  1  0
 28 27  1  0
 29 28  2  0
 30 29  1  0
 30 25  2  0
 31 32  1  0
 32 37  2  0
 32 33  1  0
 33 34  2  0
 34 35  1  0
 35 39  1  0
 36 35  2  0
 37 36  1  0
 38 37  1  0
 40 41  1  0
 41 44  1  0
 41 43  1  0
 42 40  2  0
 45 20  1  0
 46 45  1  0
 47 45  1  0
 49 50  1  0
 50 48  1  0
 50 52  1  0
 50 51  1  6
 53 52  1  0
 54 53  1  0
 55 66  2  0
 56 54  1  0
 56 61  1  0
 57 65  1  0
 57 67  1  0
 58 64  1  0
 58 60  1  0
 59 65  1  0
 60 61  2  0
 60 59  1  0
 62 56  2  0
 63 62  1  0
 63 58  2  0
 64 57  1  0
 65 55  1  0
 67 69  2  0
 68 67  1  0
 70 68  1  0
 71 80  2  0
 71 76  1  0
 72 68  1  0
 72 76  1  0
 73 72  1  0
 74 75  1  0
 74 73  1  0
 75 71  1  0
 76 77  2  0
 77 78  1  0
 79 78  2  0
 80 79  1  0
 81 55  1  0
 81 82  1  0
 81 91  1  0
 82 85  1  0
 83 87  1  0
 83 82  1  0
 84 83  2  0
 87 86  1  0
 89 87  1  0
 89 90  1  0
 89 88  1  0
 91 94  1  1
 91 92  1  0
 93 91  1  0
M  ISO  4  11 100  12 100  53 101  54 101
M  END
>  <TORSDO>  (29) 
F 24

>  <SCORE>  (29) 
-10.167

>  <name>  (29) 
28

>  <ligand_id>  (29) 
28

>  <original_smiles>  (29) 
[H]c1c([H])c([H])c2c(c1[H])C([H])([H])C([H])([H])C([H])([H])C2([H])N([H])C(=O)C1([H])N(C(=O)C([H])(N([H])C(=O)C([H])(N([H])C([H])([H])[H])C([H])([H])[H])C(C([H])([H])[H])(C([H])([H])[H])C([H])([H])[H])C([H])([H])c2c([H])c(OC([H])([H])C([H])([H])[N+]([H])(C([H])([H])[H])C([H])([H])C([H])([H])C([H])([H])C([H])([H])c3n(C([H])(C(=O)N4C([H])([H])C([H])([H])C([H])([H])C([H])(n5nc(-c6c([H])c([H])c(Oc7c([H])c([H])c(F)c([H])c7F)c([H])c6[H])c(C(=O)N([H])[H])c5N([H])[H])C4([H])[H])C([H])([H])[H])c([H])c([H])[n+]3[H])c([H])c([H])c2C1([H])[H]

>  <smiles>  (29) 
[H]c1c([H])c([H])c2c(c1[H])C([H])([H])C([H])([H])C([H])([H])C2([H])N([H])C(=O)C1([H])N(C(=O)C([H])(N([H])C(=O)C([H])(N([H])C([H])([H])[H])C([H])([H])[H])C(C([H])([H])[H])(C([H])([H])[H])C([H])([H])[H])C([H])([H])c2c([H])c(OC([H])([H])C([H])([H])[N+]([H])(C([H])([H])[H])C([H])([H])C([H])([H])C([H])([H])C([H])([H])c3n(C([H])(C(=O)N4C([H])([H])C([H])([H])C([H])([H])C([H])(n5nc(-c6c([H])c([H])c(Oc7c([H])c([H])c(F)c([H])c7F)c([H])c6[H])c(C(=O)N([H])[H])c5N([H])[H])C4([H])[H])C([H])([H])[H])c([H])c([H])[n+]3[H])c([H])c([H])c2C1([H])[H]

$$$$
29:0:0
     RDKit          3D

 87 95  0  0  1  0  0  0  0  0999 V2000
  -28.1260  -19.7600   19.8590 C   0  0  0  0  0  3  0  0  0  0  0  0
  -29.4880  -19.4360   20.2010 C   0  0  0  0  0  0  0  0  0  0  0  0
  -27.8400  -21.0680   19.8610 N   0  0  0  0  0  0  0  0  0  0  0  0
  -30.0030  -20.6890   20.4040 N   0  0  0  0  0  0  0  0  0  0  0  0
  -29.0010  -21.7060   20.1910 N   0  0  0  0  0  0  0  0  0  0  0  0
  -30.3100  -17.9570   20.2500 C   0  0  0  0  0  2  0  0  0  0  0  0
  -30.5110  -15.1710   20.2960 C   0  0  0  0  0  0  0  0  0  0  0  0
  -30.4410  -12.8050   19.3030 C   0  0  0  0  0  2  0  0  0  0  0  0
  -29.4800  -12.6920   18.0940 C   0  0  0  0  0  2  0  0  0  0  0  0
  -28.0280  -12.4420   18.5470 C   0  0  0  0  0  2  0  0  0  0  0  0
  -27.6260  -13.3420   19.7440 C   0  0  0  0  0  3  0  0  0  0  0  0
  -28.7140  -13.3190   20.8400 C   0  0  0  0  0  2  0  0  0  0  0  0
  -29.9250  -13.8830   20.2140 N   0  0  0  0  0  0  0  0  0  0  0  0
  -31.7200  -15.1870   20.0250 O   0  0  0  0  0  0  0  0  0  0  0  0
  -28.3920  -16.5330   20.8430 C   0  0  0  0  0  1  0  0  0  0  0  0
  -29.7880  -16.4430   20.4240 N   0  0  0  0  0  0  0  0  0  0  0  0
  -25.2440  -13.9020   20.4950 C   0  0  0  0  0  0  0  0  0  0  0  0
  -24.1900  -13.1210   20.8690 C   0  0  0  0  0  0  0  0  0  0  0  0
  -24.6640  -11.7740   20.8290 C   0  0  0  0  0  0  0  0  0  0  0  0
  -26.2960  -13.0340   20.2510 N   0  0  0  0  0  0  0  0  0  0  0  0
  -25.9540  -11.7460   20.5140 N   0  0  0  0  0  0  0  0  0  0  0  0
  -23.9460  -10.5080   21.0140 C   0  0  0  0  0  0  0  0  0  0  0  0
  -24.3760   -9.5460   21.9540 C   0  0  0  0  0  3  0  0  0  0  0  0
  -23.6560   -8.3450   22.1290 C   0  0  0  0  0  3  0  0  0  0  0  0
  -22.4910   -8.1000   21.3630 C   0  0  0  0  0  0  0  0  0  0  0  0
  -22.0800   -9.0500   20.4130 C   0  0  0  0  0  3  0  0  0  0  0  0
  -22.8010  -10.2420   20.2360 C   0  0  0  0  0  3  0  0  0  0  0  0
  -21.7420   -6.9510   21.4490 O   0  0  0  0  0  0  0  0  0  0  0  0
  -21.6660   -6.2260   22.6110 C   0  0  0  0  0  0  0  0  0  0  0  0
  -21.1740   -6.7880   23.8090 C   0  0  0  0  0  3  0  0  0  0  0  0
  -21.0480   -5.9870   24.9620 C   0  0  0  0  0  3  0  0  0  0  0  0
  -21.4040   -4.6260   24.9180 C   0  0  0  0  0  0  0  0  0  0  0  0
  -21.8910   -4.0640   23.7240 C   0  0  0  0  0  3  0  0  0  0  0  0
  -22.0180   -4.8610   22.5730 C   0  0  0  0  0  0  0  0  0  0  0  0
  -22.4670   -4.3100   21.4200 F   0  0  0  0  0  0  0  0  0  0  0  0
  -21.2770   -3.8550   26.0220 F   0  0  0  0  0  0  0  0  0  0  0  0
  -22.7910  -13.5890   21.1480 C   0  0  0  0  0  0  0  0  0  0  0  0
  -22.0740  -12.8930   22.0210 N   0  0  0  0  0  0  0  0  0  0  0  0
  -22.3440  -14.6110   20.6270 O   0  0  0  0  0  0  0  0  0  0  0  0
  -22.4500  -12.0680   22.4640 H   0  0  0  0  0  0  0  0  0  0  0  0
  -21.1370  -13.1910   22.2520 H   0  0  0  0  0  0  0  0  0  0  0  0
  -25.3810  -15.2740   20.3150 N   0  0  0  0  0  0  0  0  0  0  0  0
  -24.6020  -15.9110   20.4320 H   0  0  0  0  0  0  0  0  0  0  0  0
  -26.2200  -15.7270   19.9820 H   0  0  0  0  0  0  0  0  0  0  0  0
  -29.1770  -23.3070   20.3410 C   0  0  0  0  0  3  0  0  0  0  0  0
  -28.0700  -24.5910   20.0450 C   0  0  0  0  0  3  0  0  0  0  0  0
  -28.2820  -26.1560   20.2400 O   0  0  0  0  0  0  0  0  0  0  0  0
  -24.6540  -31.9000   23.2420 C   0  0  0  0  0  0  0  0  0  0  0  0
  -27.2250  -27.1570   20.1850 C   0  0  0  0  0  0  0  0  0  0  0  0
  -23.4510  -30.5130   21.5990 C   0  0  0  0  0  3  0  0  0  0  0  0
  -24.8960  -28.9330   20.1650 C   0  0  0  0  0  0  0  0  0  0  0  0
  -26.0070  -30.7640   21.4340 C   0  0  0  0  0  2  0  0  0  0  0  0
  -26.0800  -29.3700   20.7740 C   0  0  0  0  0  0  0  0  0  0  0  0
  -27.2420  -28.5000   20.7620 C   0  0  0  0  0  3  0  0  0  0  0  0
  -26.0100  -26.8330   19.5400 C   0  0  0  0  0  3  0  0  0  0  0  0
  -24.8770  -27.6800   19.5320 C   0  0  0  0  0  3  0  0  0  0  0  0
  -23.6700  -29.8370   20.2180 C   0  0  0  0  0  2  0  0  0  0  0  0
  -24.7240  -31.0820   22.1470 N   0  0  0  0  0  0  0  0  0  0  0  0
  -23.5690  -32.1850   23.7730 O   0  0  0  0  0  0  0  0  0  0  0  0
  -22.7690  -29.5070   22.5600 C   0  0  0  0  0  0  0  0  0  0  0  0
  -21.4400  -29.3370   22.4330 N   0  0  0  0  0  0  0  0  0  0  0  0
  -23.4380  -28.8800   23.3850 O   0  0  0  0  0  0  0  0  0  0  0  0
  -20.9550  -29.8930   21.7440 H   0  0  0  0  0  0  0  0  0  0  0  0
  -18.0580  -28.1380   22.9420 C   0  0  0  0  0  0  0  0  0  0  0  0
  -20.6190  -28.3970   23.2020 C   0  0  0  0  0  3  0  0  0  0  0  0
  -20.7160  -26.9680   22.6190 C   0  0  0  0  0  2  0  0  0  0  0  0
  -19.6110  -26.6520   21.6070 C   0  0  0  0  0  2  0  0  0  0  0  0
  -18.2310  -26.7940   22.2560 C   0  0  0  0  0  2  0  0  0  0  0  0
  -19.1780  -28.8970   23.3720 C   0  0  0  0  0  0  0  0  0  0  0  0
  -18.9600  -30.1550   23.9760 C   0  0  0  0  0  3  0  0  0  0  0  0
  -17.6560  -30.6530   24.1530 C   0  0  0  0  0  3  0  0  0  0  0  0
  -16.5500  -29.8910   23.7380 C   0  0  0  0  0  3  0  0  0  0  0  0
  -16.7520  -28.6350   23.1390 C   0  0  0  0  0  3  0  0  0  0  0  0
  -25.9330  -32.5340   23.8710 C   0  0  0  0  0  3  0  0  0  0  0  0
  -26.4430  -31.7600   25.1500 C   0  0  1  0  0  0  0  0  0  0  0  0
  -25.3450  -31.5220   26.2140 C   0  0  0  0  0  1  0  0  0  0  0  0
  -27.0260  -30.3820   24.7640 C   0  0  0  0  0  1  0  0  0  0  0  0
  -27.5920  -32.5520   25.8180 C   0  0  0  0  0  1  0  0  0  0  0  0
  -25.6210  -33.9310   24.2120 N   0  0  0  0  0  0  0  0  0  0  0  0
  -25.9240  -34.9920   23.4520 C   0  0  0  0  0  0  0  0  0  0  0  0
  -26.5630  -34.8970   22.4010 O   0  0  0  0  0  0  0  0  0  0  0  0
  -25.0490  -34.0780   25.0320 H   0  0  0  0  0  0  0  0  0  0  0  0
  -24.1660  -36.7730   23.1820 C   0  0  0  0  0  1  0  0  0  0  0  0
  -25.4480  -36.3780   23.9330 C   0  0  0  0  0  3  0  0  0  0  0  0
  -27.6070  -37.2890   24.6680 C   0  0  0  0  0  1  0  0  0  0  0  0
  -26.4640  -37.4400   23.7710 N   0  0  0  0  0  0  0  0  0  0  0  0
  -26.0550  -38.3570   23.9290 H   0  0  0  0  0  0  0  0  0  0  0  0
  1  3  2  0
  1  2  1  0
  2  6  1  0
  2  4  2  0
  3  5  1  0
  5 45  1  0
  5  4  1  0
  6 16  1  0
  7 16  1  0
  8 13  1  0
  9 10  1  0
  9  8  1  0
 11 10  1  0
 11 20  1  0
 11 12  1  0
 13  7  1  0
 13 12  1  0
 14  7  2  0
 16 15  1  0
 17 18  2  0
 18 37  1  0
 19 18  1  0
 19 22  1  0
 20 17  1  0
 20 21  1  0
 21 19  2  0
 22 23  1  0
 23 24  2  0
 25 28  1  0
 25 24  1  0
 26 25  2  0
 27 26  1  0
 27 22  2  0
 28 29  1  0
 29 30  1  0
 30 31  2  0
 32 31  1  0
 32 36  1  0
 33 32  2  0
 34 29  2  0
 34 33  1  0
 35 34  1  0
 37 38  1  0
 38 41  1  0
 38 40  1  0
 39 37  2  0
 42 43  1  0
 42 17  1  0
 44 42  1  0
 46 47  1  0
 46 45  2  0
 48 59  2  0
 49 47  1  0
 49 54  1  0
 50 58  1  0
 50 60  1  0
 51 57  1  0
 51 53  1  0
 52 58  1  0
 53 52  1  0
 54 53  2  0
 55 49  2  0
 56 55  1  0
 56 51  2  0
 57 50  1  0
 58 48  1  0
 60 62  2  0
 61 60  1  0
 63 61  1  0
 64 73  2  0
 64 69  1  0
 65 61  1  0
 65 69  1  0
 66 65  1  0
 67 68  1  0
 67 66  1  0
 68 64  1  0
 69 70  2  0
 70 71  1  0
 72 71  2  0
 73 72  1  0
 74 48  1  0
 74 79  1  0
 74 75  1  0
 75 78  1  1
 75 76  1  0
 77 75  1  0
 79 82  1  0
 80 84  1  0
 80 79  1  0
 81 80  2  0
 84 83  1  0
 86 87  1  0
 86 84  1  0
 86 85  1  0
M  ISO  4   7 100  16 100  46 101  47 101
M  END
>  <TORSDO>  (30) 
F 19

>  <SCORE>  (30) 
-14.869

>  <name>  (30) 
29

>  <ligand_id>  (30) 
29

>  <original_smiles>  (30) 
[H]c1nn(C([H])([H])C([H])([H])Oc2c([H])c([H])c3c(c2[H])C([H])([H])N(C(=O)C([H])(N([H])C(=O)C([H])(N([H])C([H])([H])[H])C([H])([H])[H])C(C([H])([H])[H])(C([H])([H])[H])C([H])([H])[H])C([H])(C(=O)N([H])C2([H])c4c([H])c([H])c([H])c([H])c4C([H])([H])C([H])([H])C2([H])[H])C3([H])[H])nc1C([H])([H])N(C(=O)N1C([H])([H])C([H])([H])C([H])([H])C([H])(n2nc(-c3c([H])c([H])c(Oc4c([H])c([H])c(F)c([H])c4F)c([H])c3[H])c(C(=O)N([H])[H])c2N([H])[H])C1([H])[H])C([H])([H])[H]

>  <smiles>  (30) 
[H]c1nn(C([H])([H])C([H])([H])Oc2c([H])c([H])c3c(c2[H])C([H])([H])N(C(=O)C([H])(N([H])C(=O)C([H])(N([H])C([H])([H])[H])C([H])([H])[H])C(C([H])([H])[H])(C([H])([H])[H])C([H])([H])[H])C([H])(C(=O)N([H])C2([H])c4c([H])c([H])c([H])c([H])c4C([H])([H])C([H])([H])C2([H])[H])C3([H])[H])nc1C([H])([H])N(C(=O)N1C([H])([H])C([H])([H])C([H])([H])C([H])(n2nc(-c3c([H])c([H])c(Oc4c([H])c([H])c(F)c([H])c4F)c([H])c3[H])c(C(=O)N([H])[H])c2N([H])[H])C1([H])[H])C([H])([H])[H]

$$$$
30:0:0
     RDKit          3D

 89 97  0  0  1  0  0  0  0  0999 V2000
  -29.7470  -22.7670   20.9730 C   0  0  0  0  0  3  0  0  0  0  0  0
  -28.5980  -23.3640   20.3690 C   0  0  0  0  0  0  0  0  0  0  0  0
  -27.8680  -22.3410   19.6810 C   0  0  0  0  0  0  0  0  0  0  0  0
  -29.2760  -20.5110   20.3210 C   0  0  0  0  0  0  0  0  0  0  0  0
  -26.5530  -22.6620   19.0010 C   0  0  0  0  0  1  0  0  0  0  0  0
  -30.0570  -21.4110   20.9540 N   0  0  0  0  0  0  0  0  0  0  0  0
  -28.2050  -20.9960   19.6620 N   0  0  0  0  0  0  0  0  0  0  0  0
  -27.9800  -24.8420   20.7570 C   0  0  0  0  0  2  0  0  0  0  0  0
  -28.3090  -26.2420   20.2150 O   0  0  0  0  0  0  0  0  0  0  0  0
  -24.6270  -31.8690   23.2200 C   0  0  0  0  0  0  0  0  0  0  0  0
  -27.2560  -27.2180   20.1900 C   0  0  0  0  0  0  0  0  0  0  0  0
  -23.4420  -30.4660   21.5780 C   0  0  0  0  0  3  0  0  0  0  0  0
  -24.9080  -28.9130   20.1530 C   0  0  0  0  0  0  0  0  0  0  0  0
  -25.9910  -30.7670   21.4140 C   0  0  0  0  0  2  0  0  0  0  0  0
  -26.0820  -29.3790   20.7620 C   0  0  0  0  0  0  0  0  0  0  0  0
  -27.2600  -28.5470   20.7640 C   0  0  0  0  0  3  0  0  0  0  0  0
  -26.0610  -26.8480   19.5380 C   0  0  0  0  0  3  0  0  0  0  0  0
  -24.9090  -27.6590   19.5240 C   0  0  0  0  0  3  0  0  0  0  0  0
  -23.6680  -29.7920   20.2000 C   0  0  0  0  0  2  0  0  0  0  0  0
  -24.7050  -31.0540   22.1260 N   0  0  0  0  0  0  0  0  0  0  0  0
  -23.5390  -32.1430   23.7480 O   0  0  0  0  0  0  0  0  0  0  0  0
  -22.7720  -29.4500   22.5380 C   0  0  0  0  0  0  0  0  0  0  0  0
  -21.4450  -29.2720   22.4110 N   0  0  0  0  0  0  0  0  0  0  0  0
  -23.4490  -28.8250   23.3580 O   0  0  0  0  0  0  0  0  0  0  0  0
  -20.9550  -29.8240   21.7220 H   0  0  0  0  0  0  0  0  0  0  0  0
  -18.0720  -28.0490   22.9090 C   0  0  0  0  0  0  0  0  0  0  0  0
  -20.6290  -28.3290   23.1800 C   0  0  0  0  0  3  0  0  0  0  0  0
  -20.7430  -26.8970   22.6070 C   0  0  0  0  0  2  0  0  0  0  0  0
  -19.6450  -26.5670   21.5910 C   0  0  0  0  0  2  0  0  0  0  0  0
  -18.2620  -26.7010   22.2340 C   0  0  0  0  0  2  0  0  0  0  0  0
  -19.1850  -28.8190   23.3400 C   0  0  0  0  0  0  0  0  0  0  0  0
  -18.9550  -30.0790   23.9340 C   0  0  0  0  0  3  0  0  0  0  0  0
  -17.6470  -30.5700   24.1010 C   0  0  0  0  0  3  0  0  0  0  0  0
  -16.5490  -29.7950   23.6870 C   0  0  0  0  0  3  0  0  0  0  0  0
  -16.7630  -28.5370   23.0960 C   0  0  0  0  0  3  0  0  0  0  0  0
  -25.9000  -32.5150   23.8490 C   0  0  0  0  0  3  0  0  0  0  0  0
  -26.4120  -31.7530   25.1330 C   0  0  1  0  0  0  0  0  0  0  0  0
  -25.3150  -31.5170   26.1960 C   0  0  0  0  0  1  0  0  0  0  0  0
  -27.0050  -30.3760   24.7560 C   0  0  0  0  0  1  0  0  0  0  0  0
  -27.5560  -32.5550   25.7970 C   0  0  0  0  0  1  0  0  0  0  0  0
  -25.5780  -33.9120   24.1770 N   0  0  0  0  0  0  0  0  0  0  0  0
  -25.9150  -34.9700   23.4260 C   0  0  0  0  0  0  0  0  0  0  0  0
  -26.5960  -34.8720   22.4020 O   0  0  0  0  0  0  0  0  0  0  0  0
  -24.9740  -34.0620   24.9710 H   0  0  0  0  0  0  0  0  0  0  0  0
  -24.1860  -36.7620   23.0630 C   0  0  0  0  0  1  0  0  0  0  0  0
  -25.4200  -36.3560   23.8860 C   0  0  0  0  0  3  0  0  0  0  0  0
  -27.5430  -37.2440   24.7410 C   0  0  0  0  0  1  0  0  0  0  0  0
  -26.4510  -37.4130   23.7870 N   0  0  0  0  0  0  0  0  0  0  0  0
  -26.0410  -38.3310   23.9350 H   0  0  0  0  0  0  0  0  0  0  0  0
  -29.3430  -18.9110   20.7010 C   0  0  0  0  0  3  0  0  0  0  0  0
  -30.0970  -17.6170   19.9450 C   0  0  0  0  0  3  0  0  0  0  0  0
  -30.6530  -14.9490   20.0080 C   0  0  0  0  0  0  0  0  0  0  0  0
  -30.4160  -12.6660   18.9280 C   0  0  0  0  0  2  0  0  0  0  0  0
  -29.3950  -12.6930   17.7660 C   0  0  0  0  0  2  0  0  0  0  0  0
  -27.9650  -12.4670   18.2860 C   0  0  0  0  0  2  0  0  0  0  0  0
  -27.6520  -13.3450   19.5230 C   0  0  0  0  0  3  0  0  0  0  0  0
  -28.7760  -13.2420   20.5720 C   0  0  0  0  0  2  0  0  0  0  0  0
  -30.0210  -13.7030   19.9300 N   0  0  0  0  0  0  0  0  0  0  0  0
  -31.7630  -15.0460   19.4710 O   0  0  0  0  0  0  0  0  0  0  0  0
  -29.4580  -16.0910   21.8350 C   0  0  0  0  0  1  0  0  0  0  0  0
  -29.9800  -16.1230   20.4630 N   0  0  0  0  0  0  0  0  0  0  0  0
  -25.3230  -13.9280   20.4170 C   0  0  0  0  0  0  0  0  0  0  0  0
  -24.2780  -13.1500   20.8350 C   0  0  0  0  0  0  0  0  0  0  0  0
  -24.7320  -11.7980   20.7450 C   0  0  0  0  0  0  0  0  0  0  0  0
  -26.3420  -13.0480   20.0910 N   0  0  0  0  0  0  0  0  0  0  0  0
  -25.9990  -11.7610   20.3520 N   0  0  0  0  0  0  0  0  0  0  0  0
  -24.0140  -10.5330   20.9540 C   0  0  0  0  0  0  0  0  0  0  0  0
  -24.4750   -9.5620   21.8710 C   0  0  0  0  0  3  0  0  0  0  0  0
  -23.7560   -8.3640   22.0680 C   0  0  0  0  0  3  0  0  0  0  0  0
  -22.5620   -8.1270   21.3470 C   0  0  0  0  0  0  0  0  0  0  0  0
  -22.1200   -9.0850   20.4180 C   0  0  0  0  0  3  0  0  0  0  0  0
  -22.8390  -10.2740   20.2200 C   0  0  0  0  0  3  0  0  0  0  0  0
  -21.8130   -6.9800   21.4540 O   0  0  0  0  0  0  0  0  0  0  0  0
  -21.7610   -6.2600   22.6200 C   0  0  0  0  0  0  0  0  0  0  0  0
  -21.3400   -6.8410   23.8360 C   0  0  0  0  0  3  0  0  0  0  0  0
  -21.2350   -6.0480   24.9960 C   0  0  0  0  0  3  0  0  0  0  0  0
  -21.5400   -4.6750   24.9410 C   0  0  0  0  0  0  0  0  0  0  0  0
  -21.9540   -4.0940   23.7300 C   0  0  0  0  0  3  0  0  0  0  0  0
  -22.0610   -4.8840   22.5730 C   0  0  0  0  0  0  0  0  0  0  0  0
  -22.4400   -4.3150   21.4020 F   0  0  0  0  0  0  0  0  0  0  0  0
  -21.4320   -3.9110   26.0530 F   0  0  0  0  0  0  0  0  0  0  0  0
  -22.9030  -13.6250   21.2060 C   0  0  0  0  0  0  0  0  0  0  0  0
  -22.2320  -12.9120   22.1030 N   0  0  0  0  0  0  0  0  0  0  0  0
  -22.4350  -14.6610   20.7340 O   0  0  0  0  0  0  0  0  0  0  0  0
  -22.6240  -12.0680   22.4940 H   0  0  0  0  0  0  0  0  0  0  0  0
  -21.3150  -13.2120   22.4020 H   0  0  0  0  0  0  0  0  0  0  0  0
  -25.4900  -15.3010   20.2650 N   0  0  0  0  0  0  0  0  0  0  0  0
  -24.7510  -15.9680   20.4550 H   0  0  0  0  0  0  0  0  0  0  0  0
  -26.3380  -15.7330   19.9190 H   0  0  0  0  0  0  0  0  0  0  0  0
  2  8  1  0
  2  1  2  0
  3  2  1  0
  4 50  1  0
  4  6  2  0
  5  3  1  0
  6  1  1  0
  7  3  2  0
  7  4  1  0
  9  8  1  0
 10 21  2  0
 11  9  1  0
 11 16  1  0
 12 20  1  0
 12 22  1  0
 13 19  1  0
 13 15  1  0
 14 20  1  0
 15 16  2  0
 15 14  1  0
 17 11  2  0
 18 17  1  0
 18 13  2  0
 19 12  1  0
 20 10  1  0
 22 24  2  0
 23 22  1  0
 25 23  1  0
 26 35  2  0
 26 31  1  0
 27 23  1  0
 27 31  1  0
 28 27  1  0
 29 30  1  0
 29 28  1  0
 30 26  1  0
 31 32  2  0
 32 33  1  0
 34 33  2  0
 35 34  1  0
 36 10  1  0
 36 41  1  0
 36 37  1  0
 37 40  1  1
 37 38  1  0
 39 37  1  0
 41 44  1  0
 42 46  1  0
 42 41  1  0
 43 42  2  0
 46 45  1  0
 48 46  1  0
 48 49  1  0
 48 47  1  0
 51 61  1  0
 51 50  2  0
 52 61  1  0
 53 58  1  0
 54 55  1  0
 54 53  1  0
 56 55  1  0
 56 65  1  0
 56 57  1  0
 58 52  1  0
 58 57  1  0
 59 52  2  0
 61 60  1  0
 62 63  2  0
 63 82  1  0
 64 63  1  0
 64 67  1  0
 65 66  1  0
 65 62  1  0
 66 64  2  0
 67 68  1  0
 68 69  2  0
 70 73  1  0
 70 69  1  0
 71 70  2  0
 72 71  1  0
 72 67  2  0
 73 74  1  0
 74 75  1  0
 75 76  2  0
 77 76  1  0
 77 81  1  0
 78 77  2  0
 79 74  2  0
 79 78  1  0
 80 79  1  0
 82 83  1  0
 83 86  1  0
 83 85  1  0
 84 82  2  0
 87 62  1  0
 87 88  1  0
 89 87  1  0
M  ISO  4   8 101   9 101  52 100  61 100
M  END
>  <TORSDO>  (31) 
F 19

>  <SCORE>  (31) 
-13.648

>  <name>  (31) 
30

>  <ligand_id>  (31) 
30

>  <original_smiles>  (31) 
[H]c1nc(C([H])([H])C([H])([H])N(C(=O)N2C([H])([H])C([H])([H])C([H])([H])C([H])(n3nc(-c4c([H])c([H])c(Oc5c([H])c([H])c(F)c([H])c5F)c([H])c4[H])c(C(=O)N([H])[H])c3N([H])[H])C2([H])[H])C([H])([H])[H])nc(C([H])([H])[H])c1C([H])([H])Oc1c([H])c([H])c2c(c1[H])C([H])([H])N(C(=O)C([H])(N([H])C(=O)C([H])(N([H])C([H])([H])[H])C([H])([H])[H])C(C([H])([H])[H])(C([H])([H])[H])C([H])([H])[H])C([H])(C(=O)N([H])C1([H])c3c([H])c([H])c([H])c([H])c3C([H])([H])C([H])([H])C1([H])[H])C2([H])[H]

>  <smiles>  (31) 
[H]c1nc(C([H])([H])C([H])([H])N(C(=O)N2C([H])([H])C([H])([H])C([H])([H])C([H])(n3nc(-c4c([H])c([H])c(Oc5c([H])c([H])c(F)c([H])c5F)c([H])c4[H])c(C(=O)N([H])[H])c3N([H])[H])C2([H])[H])C([H])([H])[H])nc(C([H])([H])[H])c1C([H])([H])Oc1c([H])c([H])c2c(c1[H])C([H])([H])N(C(=O)C([H])(N([H])C(=O)C([H])(N([H])C([H])([H])[H])C([H])([H])[H])C(C([H])([H])[H])(C([H])([H])[H])C([H])([H])[H])C([H])(C(=O)N([H])C1([H])c3c([H])c([H])c([H])c([H])c3C([H])([H])C([H])([H])C1([H])[H])C2([H])[H]

$$$$
31:0:0
     RDKit          3D

 95103  0  0  1  0  0  0  0  0999 V2000
  -27.6840  -22.6360   20.4910 C   0  0  0  0  0  2  0  0  0  0  0  0
  -25.7020  -23.0230   21.9120 C   0  0  0  0  0  1  0  0  0  0  0  0
  -27.1320  -23.3530   21.6720 N   0  0  2  0  0  4  0  0  0  0  0  0
  -27.6290  -23.0210   22.4880 H   0  0  0  0  0  0  0  0  0  0  0  0
  -27.3770  -24.8190   21.6070 C   0  0  0  0  0  2  0  0  0  0  0  0
  -28.8740  -25.2310   21.7060 C   0  0  0  0  0  2  0  0  0  0  0  0
  -29.0870  -26.7240   21.4210 C   0  0  0  0  0  2  0  0  0  0  0  0
  -28.6660  -27.0250   20.0850 O   0  0  0  0  0  0  0  0  0  0  0  0
  -24.6900  -31.8360   23.3770 C   0  0  0  0  0  0  0  0  0  0  0  0
  -27.5120  -27.7610   20.0430 C   0  0  0  0  0  0  0  0  0  0  0  0
  -23.5490  -30.5530   21.5840 C   0  0  0  0  0  3  0  0  0  0  0  0
  -25.0790  -29.1750   20.0730 C   0  0  0  0  0  0  0  0  0  0  0  0
  -26.0590  -31.0020   21.4750 C   0  0  0  0  0  2  0  0  0  0  0  0
  -26.1980  -29.6930   20.7330 C   0  0  0  0  0  0  0  0  0  0  0  0
  -27.4180  -28.9990   20.7130 C   0  0  0  0  0  3  0  0  0  0  0  0
  -26.3880  -27.2480   19.3650 C   0  0  0  0  0  3  0  0  0  0  0  0
  -25.1650  -27.9510   19.3840 C   0  0  0  0  0  3  0  0  0  0  0  0
  -23.8040  -29.9850   20.1610 C   0  0  0  0  0  2  0  0  0  0  0  0
  -24.7800  -31.1410   22.2060 N   0  0  0  0  0  0  0  0  0  0  0  0
  -23.5920  -32.0440   23.9080 O   0  0  0  0  0  0  0  0  0  0  0  0
  -22.9030  -29.4420   22.4420 C   0  0  0  0  0  0  0  0  0  0  0  0
  -21.5860  -29.2610   22.2810 N   0  0  0  0  0  0  0  0  0  0  0  0
  -23.5870  -28.7490   23.2030 O   0  0  0  0  0  0  0  0  0  0  0  0
  -21.0950  -29.8860   21.6540 H   0  0  0  0  0  0  0  0  0  0  0  0
  -18.2090  -28.0380   22.6460 C   0  0  0  0  0  0  0  0  0  0  0  0
  -20.7670  -28.2520   22.9500 C   0  0  0  0  0  3  0  0  0  0  0  0
  -20.8590  -26.8850   22.2320 C   0  0  0  0  0  2  0  0  0  0  0  0
  -19.7580  -26.6730   21.1880 C   0  0  0  0  0  2  0  0  0  0  0  0
  -18.3770  -26.7630   21.8410 C   0  0  0  0  0  2  0  0  0  0  0  0
  -19.3310  -28.7460   23.1560 C   0  0  0  0  0  0  0  0  0  0  0  0
  -19.1200  -29.9450   23.8680 C   0  0  0  0  0  3  0  0  0  0  0  0
  -17.8200  -30.4370   24.0840 C   0  0  0  0  0  3  0  0  0  0  0  0
  -16.7120  -29.7240   23.5910 C   0  0  0  0  0  3  0  0  0  0  0  0
  -16.9080  -28.5290   22.8810 C   0  0  0  0  0  3  0  0  0  0  0  0
  -25.9550  -32.4290   24.0780 C   0  0  0  0  0  3  0  0  0  0  0  0
  -25.6460  -33.8160   24.4440 N   0  0  0  0  0  0  0  0  0  0  0  0
  -26.0050  -34.8880   23.7320 C   0  0  0  0  0  0  0  0  0  0  0  0
  -26.7160  -34.8200   22.7240 O   0  0  0  0  0  0  0  0  0  0  0  0
  -25.0320  -33.9510   25.2340 H   0  0  0  0  0  0  0  0  0  0  0  0
  -24.2980  -36.6990   23.3680 C   0  0  0  0  0  1  0  0  0  0  0  0
  -25.4980  -36.2580   24.2180 C   0  0  0  0  0  3  0  0  0  0  0  0
  -27.5840  -37.1080   25.1880 C   0  0  0  0  0  1  0  0  0  0  0  0
  -26.5320  -37.3110   24.1960 N   0  0  0  0  0  0  0  0  0  0  0  0
  -26.1170  -38.2250   24.3590 H   0  0  0  0  0  0  0  0  0  0  0  0
  -26.4130  -31.6010   25.3430 C   0  0  1  0  0  0  0  0  0  0  0  0
  -25.2710  -31.3250   26.3470 C   0  0  0  0  0  1  0  0  0  0  0  0
  -27.0110  -30.2370   24.9150 C   0  0  0  0  0  1  0  0  0  0  0  0
  -27.5310  -32.3630   26.0940 C   0  0  0  0  0  1  0  0  0  0  0  0
  -28.0350  -21.1670   20.7870 C   0  0  0  0  0  2  0  0  0  0  0  0
  -29.2270  -20.6440   19.9600 C   0  0  0  0  0  2  0  0  0  0  0  0
  -30.9780  -17.5300   22.1840 C   0  0  0  0  0  3  0  0  0  0  0  0
  -30.7840  -19.8010   21.8120 C   0  0  0  0  0  0  0  0  0  0  0  0
  -29.9420  -19.5310   20.7110 C   0  0  0  0  0  0  0  0  0  0  0  0
  -30.2340  -17.2240   21.0050 C   0  0  0  0  0  0  0  0  0  0  0  0
  -31.1820  -21.2220   22.1930 C   0  0  0  0  0  1  0  0  0  0  0  0
  -31.2670  -18.7960   22.5790 N   0  0  0  0  0  0  0  0  0  0  0  0
  -29.6560  -18.2630   20.3310 N   0  0  0  0  0  0  0  0  0  0  0  0
  -30.7980  -14.8210   21.0390 C   0  0  0  0  0  0  0  0  0  0  0  0
  -30.6290  -12.5280   20.2180 C   0  0  0  0  0  2  0  0  0  0  0  0
  -29.8150  -12.4770   18.9050 C   0  0  0  0  0  2  0  0  0  0  0  0
  -28.2990  -12.4280   19.1760 C   0  0  0  0  0  2  0  0  0  0  0  0
  -27.7980  -13.4080   20.2740 C   0  0  0  0  0  3  0  0  0  0  0  0
  -28.7430  -13.4200   21.4960 C   0  0  0  0  0  2  0  0  0  0  0  0
  -30.1140  -13.6460   21.0150 N   0  0  0  0  0  0  0  0  0  0  0  0
  -32.0300  -14.8540   21.0620 O   0  0  0  0  0  0  0  0  0  0  0  0
  -30.0980  -15.8260   18.9760 C   0  0  0  0  0  1  0  0  0  0  0  0
  -30.1650  -15.8840   20.4640 N   0  0  0  0  0  0  0  0  0  0  0  0
  -25.3420  -14.0210   20.7220 C   0  0  0  0  0  0  0  0  0  0  0  0
  -24.2410  -13.2510   20.9810 C   0  0  0  0  0  0  0  0  0  0  0  0
  -24.7050  -11.9000   21.0290 C   0  0  0  0  0  0  0  0  0  0  0  0
  -26.4100  -13.1370   20.6340 N   0  0  0  0  0  0  0  0  0  0  0  0
  -26.0240  -11.8590   20.8830 N   0  0  0  0  0  0  0  0  0  0  0  0
  -23.9610  -10.6400   21.1600 C   0  0  0  0  0  0  0  0  0  0  0  0
  -24.3080   -9.6840   22.1370 C   0  0  0  0  0  3  0  0  0  0  0  0
  -23.5690   -8.4860   22.2540 C   0  0  0  0  0  3  0  0  0  0  0  0
  -22.4720   -8.2360   21.3940 C   0  0  0  0  0  0  0  0  0  0  0  0
  -22.1480   -9.1840   20.4050 C   0  0  0  0  0  3  0  0  0  0  0  0
  -22.8860  -10.3730   20.2870 C   0  0  0  0  0  3  0  0  0  0  0  0
  -21.7180   -7.0880   21.4210 O   0  0  0  0  0  0  0  0  0  0  0  0
  -21.5860   -6.3400   22.5640 C   0  0  0  0  0  0  0  0  0  0  0  0
  -21.0610   -6.8900   23.7550 C   0  0  0  0  0  3  0  0  0  0  0  0
  -20.8730   -6.0670   24.8860 C   0  0  0  0  0  3  0  0  0  0  0  0
  -21.2000   -4.6980   24.8250 C   0  0  0  0  0  0  0  0  0  0  0  0
  -21.7190   -4.1500   23.6370 C   0  0  0  0  0  3  0  0  0  0  0  0
  -21.9110   -4.9690   22.5110 C   0  0  0  0  0  0  0  0  0  0  0  0
  -22.3890   -4.4300   21.3630 F   0  0  0  0  0  0  0  0  0  0  0  0
  -21.0100   -3.9100   25.9100 F   0  0  0  0  0  0  0  0  0  0  0  0
  -22.8200  -13.7270   21.0650 C   0  0  0  0  0  0  0  0  0  0  0  0
  -21.9980  -13.0580   21.8670 N   0  0  0  0  0  0  0  0  0  0  0  0
  -22.4420  -14.7220   20.4480 O   0  0  0  0  0  0  0  0  0  0  0  0
  -22.3020  -12.2440   22.3840 H   0  0  0  0  0  0  0  0  0  0  0  0
  -21.0410  -13.3630   21.9670 H   0  0  0  0  0  0  0  0  0  0  0  0
  -25.5190  -15.3870   20.5240 N   0  0  0  0  0  0  0  0  0  0  0  0
  -24.7370  -16.0320   20.5360 H   0  0  0  0  0  0  0  0  0  0  0  0
  -26.4020  -15.8170   20.2820 H   0  0  0  0  0  0  0  0  0  0  0  0
  1 49  1  0
  1  3  1  0
  3  2  1  0
  3  4  1  1
  5  3  1  0
  5  6  1  0
  7  6  1  0
  8  7  1  0
  9 20  2  0
 10  8  1  0
 10 15  1  0
 11 19  1  0
 11 21  1  0
 12 18  1  0
 12 14  1  0
 13 19  1  0
 14 13  1  0
 15 14  2  0
 16 17  1  0
 16 10  2  0
 17 12  2  0
 18 11  1  0
 19  9  1  0
 21 23  2  0
 22 21  1  0
 24 22  1  0
 25 34  2  0
 25 30  1  0
 26 22  1  0
 26 30  1  0
 27 26  1  0
 28 29  1  0
 28 27  1  0
 29 25  1  0
 30 31  2  0
 31 32  1  0
 33 32  2  0
 34 33  1  0
 35  9  1  0
 35 36  1  0
 35 45  1  0
 36 39  1  0
 37 41  1  0
 37 36  1  0
 38 37  2  0
 41 40  1  0
 43 41  1  0
 43 44  1  0
 43 42  1  0
 45 48  1  1
 45 46  1  0
 47 45  1  0
 50 53  1  0
 50 49  1  0
 51 56  1  0
 52 55  1  0
 52 56  2  0
 53 52  1  0
 54 51  2  0
 57 53  2  0
 57 54  1  0
 58 65  2  0
 59 64  1  0
 60 61  1  0
 60 59  1  0
 62 61  1  0
 62 71  1  0
 62 63  1  0
 64 58  1  0
 64 63  1  0
 66 67  1  0
 67 54  1  0
 67 58  1  0
 68 69  2  0
 69 70  1  0
 69 88  1  0
 70 73  1  0
 71 68  1  0
 71 72  1  0
 72 70  2  0
 73 74  1  0
 74 75  2  0
 76 79  1  0
 76 75  1  0
 77 76  2  0
 78 77  1  0
 78 73  2  0
 79 80  1  0
 80 81  1  0
 81 82  2  0
 83 82  1  0
 83 87  1  0
 84 83  2  0
 85 80  2  0
 85 84  1  0
 86 85  1  0
 88 89  1  0
 89 92  1  0
 89 91  1  0
 90 88  2  0
 93 94  1  0
 93 68  1  0
 95 93  1  0
M  ISO  4   7 101   8 101  58 100  67 100
M  END
>  <TORSDO>  (32) 
F 23

>  <SCORE>  (32) 
-12.226

>  <name>  (32) 
31

>  <ligand_id>  (32) 
31

>  <original_smiles>  (32) 
[H]c1nc(C([H])([H])[H])c(C([H])([H])C([H])([H])C([H])([H])[N+]([H])(C([H])([H])[H])C([H])([H])C([H])([H])C([H])([H])Oc2c([H])c([H])c3c(c2[H])C([H])([H])N(C(=O)C([H])(N([H])C(=O)C([H])(N([H])C([H])([H])[H])C([H])([H])[H])C(C([H])([H])[H])(C([H])([H])[H])C([H])([H])[H])C([H])(C(=O)N([H])C2([H])c4c([H])c([H])c([H])c([H])c4C([H])([H])C([H])([H])C2([H])[H])C3([H])[H])nc1N(C(=O)N1C([H])([H])C([H])([H])C([H])([H])C([H])(n2nc(-c3c([H])c([H])c(Oc4c([H])c([H])c(F)c([H])c4F)c([H])c3[H])c(C(=O)N([H])[H])c2N([H])[H])C1([H])[H])C([H])([H])[H]

>  <smiles>  (32) 
[H]c1nc(C([H])([H])[H])c(C([H])([H])C([H])([H])C([H])([H])[N+]([H])(C([H])([H])[H])C([H])([H])C([H])([H])C([H])([H])Oc2c([H])c([H])c3c(c2[H])C([H])([H])N(C(=O)C([H])(N([H])C(=O)C([H])(N([H])C([H])([H])[H])C([H])([H])[H])C(C([H])([H])[H])(C([H])([H])[H])C([H])([H])[H])C([H])(C(=O)N([H])C2([H])c4c([H])c([H])c([H])c([H])c4C([H])([H])C([H])([H])C2([H])[H])C3([H])[H])nc1N(C(=O)N1C([H])([H])C([H])([H])C([H])([H])C([H])(n2nc(-c3c([H])c([H])c(Oc4c([H])c([H])c(F)c([H])c4F)c([H])c3[H])c(C(=O)N([H])[H])c2N([H])[H])C1([H])[H])C([H])([H])[H]

$$$$
32:0:0
     RDKit          3D

 88 96  0  0  1  0  0  0  0  0999 V2000
  -29.3650  -20.2700   20.0940 C   0  0  0  0  0  0  0  0  0  0  0  0
  -28.8030  -22.6700   19.9970 C   0  0  0  0  0  3  0  0  0  0  0  0
  -26.4390  -22.2300   20.7900 C   0  0  0  0  0  1  0  0  0  0  0  0
  -29.8010  -21.6500   19.7370 N   0  0  0  0  0  0  0  0  0  0  0  0
  -28.1220  -20.4630   20.5580 N   0  0  0  0  0  2  0  0  0  0  0  0
  -27.8060  -21.8520   20.4750 N   0  0  0  0  0  0  0  0  0  0  0  0
  -30.3660  -18.6000   18.3580 C   0  0  0  0  0  1  0  0  0  0  0  0
  -30.1410  -18.6590   19.8790 C   0  0  0  0  0  3  0  0  0  0  0  0
  -30.5740  -15.6850   20.2520 C   0  0  0  0  0  0  0  0  0  0  0  0
  -30.5810  -13.1670   19.5160 C   0  0  0  0  0  2  0  0  0  0  0  0
  -29.7080  -12.8800   18.2670 C   0  0  0  0  0  2  0  0  0  0  0  0
  -28.2530  -12.6010   18.6760 C   0  0  0  0  0  2  0  0  0  0  0  0
  -27.7600  -13.6140   19.7390 C   0  0  0  0  0  3  0  0  0  0  0  0
  -28.7690  -13.8510   20.8840 C   0  0  0  0  0  2  0  0  0  0  0  0
  -30.0050  -14.3610   20.2590 N   0  0  0  0  0  0  0  0  0  0  0  0
  -31.7970  -15.6230   20.0380 O   0  0  0  0  0  0  0  0  0  0  0  0
  -29.8510  -17.0170   20.2830 N   0  0  0  0  0  0  0  0  0  0  0  0
  -28.8770  -16.8900   20.5150 H   0  0  0  0  0  0  0  0  0  0  0  0
  -25.3960  -14.2180   20.4560 C   0  0  0  0  0  0  0  0  0  0  0  0
  -24.3070  -13.4660   20.7960 C   0  0  0  0  0  0  0  0  0  0  0  0
  -24.7380  -12.1050   20.7570 C   0  0  0  0  0  0  0  0  0  0  0  0
  -26.4190  -13.3190   20.2200 N   0  0  0  0  0  0  0  0  0  0  0  0
  -26.0350  -12.0390   20.4670 N   0  0  0  0  0  0  0  0  0  0  0  0
  -23.9710  -10.8630   20.9190 C   0  0  0  0  0  0  0  0  0  0  0  0
  -24.3660   -9.8650   21.8370 C   0  0  0  0  0  3  0  0  0  0  0  0
  -23.6010   -8.6880   21.9900 C   0  0  0  0  0  3  0  0  0  0  0  0
  -22.4240   -8.5040   21.2260 C   0  0  0  0  0  0  0  0  0  0  0  0
  -22.0460   -9.4910   20.2980 C   0  0  0  0  0  3  0  0  0  0  0  0
  -22.8120  -10.6590   20.1430 C   0  0  0  0  0  3  0  0  0  0  0  0
  -21.6310   -7.3830   21.2900 O   0  0  0  0  0  0  0  0  0  0  0  0
  -21.5860   -6.5960   22.4130 C   0  0  0  0  0  0  0  0  0  0  0  0
  -21.1820   -7.1080   23.6660 C   0  0  0  0  0  3  0  0  0  0  0  0
  -21.0820   -6.2500   24.7790 C   0  0  0  0  0  3  0  0  0  0  0  0
  -21.3740   -4.8800   24.6410 C   0  0  0  0  0  0  0  0  0  0  0  0
  -21.7700   -4.3670   23.3940 C   0  0  0  0  0  3  0  0  0  0  0  0
  -21.8720   -5.2220   22.2830 C   0  0  0  0  0  0  0  0  0  0  0  0
  -22.2340   -4.7170   21.0790 F   0  0  0  0  0  0  0  0  0  0  0  0
  -21.2710   -4.0550   25.7090 F   0  0  0  0  0  0  0  0  0  0  0  0
  -22.9200  -13.9820   21.0420 C   0  0  0  0  0  0  0  0  0  0  0  0
  -22.1540  -13.3090   21.8930 N   0  0  0  0  0  0  0  0  0  0  0  0
  -22.5200  -15.0170   20.5100 O   0  0  0  0  0  0  0  0  0  0  0  0
  -22.4840  -12.4700   22.3470 H   0  0  0  0  0  0  0  0  0  0  0  0
  -21.2200  -13.6370   22.0950 H   0  0  0  0  0  0  0  0  0  0  0  0
  -25.5970  -15.5860   20.2960 N   0  0  0  0  0  0  0  0  0  0  0  0
  -24.8460  -16.2570   20.4140 H   0  0  0  0  0  0  0  0  0  0  0  0
  -26.4450  -16.0060   19.9410 H   0  0  0  0  0  0  0  0  0  0  0  0
  -28.4540  -24.3620   19.4360 C   0  0  0  0  0  2  0  0  0  0  0  0
  -28.4810  -25.9260   20.0930 O   0  0  0  0  0  0  0  0  0  0  0  0
  -24.5670  -31.7760   23.0790 C   0  0  0  0  0  0  0  0  0  0  0  0
  -27.4720  -27.0610   19.9800 C   0  0  0  0  0  0  0  0  0  0  0  0
  -23.5100  -30.3710   21.3620 C   0  0  0  0  0  3  0  0  0  0  0  0
  -25.0920  -28.8950   19.9270 C   0  0  0  0  0  0  0  0  0  0  0  0
  -26.0700  -30.7020   21.3150 C   0  0  0  0  0  2  0  0  0  0  0  0
  -26.2390  -29.3120   20.6130 C   0  0  0  0  0  0  0  0  0  0  0  0
  -27.4150  -28.4150   20.6220 C   0  0  0  0  0  3  0  0  0  0  0  0
  -26.2900  -26.8370   19.2350 C   0  0  0  0  0  3  0  0  0  0  0  0
  -25.1480  -27.6830   19.2210 C   0  0  0  0  0  3  0  0  0  0  0  0
  -23.8230  -29.7470   19.9730 C   0  0  0  0  0  2  0  0  0  0  0  0
  -24.7350  -30.9790   21.9730 N   0  0  0  0  0  0  0  0  0  0  0  0
  -23.4470  -31.9880   23.5720 O   0  0  0  0  0  0  0  0  0  0  0  0
  -22.8370  -29.3110   22.2750 C   0  0  0  0  0  0  0  0  0  0  0  0
  -21.5140  -29.1070   22.1320 N   0  0  0  0  0  0  0  0  0  0  0  0
  -23.5170  -28.6700   23.0800 O   0  0  0  0  0  0  0  0  0  0  0  0
  -21.0140  -29.6750   21.4620 H   0  0  0  0  0  0  0  0  0  0  0  0
  -18.1620  -27.8030   22.6200 C   0  0  0  0  0  0  0  0  0  0  0  0
  -20.7200  -28.1050   22.8550 C   0  0  0  0  0  3  0  0  0  0  0  0
  -20.8380  -26.7170   22.1820 C   0  0  0  0  0  2  0  0  0  0  0  0
  -19.7250  -26.4430   21.1670 C   0  0  0  0  0  2  0  0  0  0  0  0
  -18.3530  -26.5120   21.8430 C   0  0  0  0  0  2  0  0  0  0  0  0
  -19.2710  -28.5610   23.0810 C   0  0  0  0  0  0  0  0  0  0  0  0
  -19.0360  -29.7690   23.7710 C   0  0  0  0  0  3  0  0  0  0  0  0
  -17.7230  -30.2230   24.0010 C   0  0  0  0  0  3  0  0  0  0  0  0
  -16.6290  -29.4630   23.5510 C   0  0  0  0  0  3  0  0  0  0  0  0
  -16.8490  -28.2540   22.8690 C   0  0  0  0  0  3  0  0  0  0  0  0
  -25.7780  -32.4730   23.7720 C   0  0  0  0  0  3  0  0  0  0  0  0
  -25.3810  -33.8550   24.1050 N   0  0  0  0  0  0  0  0  0  0  0  0
  -25.6890  -34.9390   23.3790 C   0  0  0  0  0  0  0  0  0  0  0  0
  -26.3950  -34.8830   22.3690 O   0  0  0  0  0  0  0  0  0  0  0  0
  -24.7480  -33.9680   24.8830 H   0  0  0  0  0  0  0  0  0  0  0  0
  -23.8880  -36.6610   23.0110 C   0  0  0  0  0  1  0  0  0  0  0  0
  -25.1290  -36.3000   23.8440 C   0  0  0  0  0  3  0  0  0  0  0  0
  -27.1930  -37.2820   24.7440 C   0  0  0  0  0  1  0  0  0  0  0  0
  -26.1140  -37.4020   23.7660 N   0  0  0  0  0  0  0  0  0  0  0  0
  -25.6600  -38.3000   23.9070 H   0  0  0  0  0  0  0  0  0  0  0  0
  -26.2560  -31.7220   25.0750 C   0  0  1  0  0  0  0  0  0  0  0  0
  -25.1160  -31.4420   26.0810 C   0  0  0  0  0  1  0  0  0  0  0  0
  -26.9130  -30.3680   24.7270 C   0  0  0  0  0  1  0  0  0  0  0  0
  -27.3400  -32.5590   25.7960 C   0  0  0  0  0  1  0  0  0  0  0  0
  1  5  1  0
  2 47  1  0
  2  6  1  0
  4  2  1  0
  4  1  2  0
  6  5  1  0
  6  3  1  0
  8  7  1  0
  8  1  1  0
  8 17  1  0
  9 15  1  0
  9 17  1  0
 10 15  1  0
 11 12  1  0
 11 10  1  0
 13 12  1  0
 13 22  1  0
 13 14  1  0
 15 14  1  0
 16  9  2  0
 17 18  1  0
 19 20  2  0
 20 39  1  0
 21 20  1  0
 21 24  1  0
 22 19  1  0
 22 23  1  0
 23 21  2  0
 24 25  1  0
 25 26  2  0
 27 30  1  0
 27 26  1  0
 28 27  2  0
 29 28  1  0
 29 24  2  0
 30 31  1  0
 31 32  1  0
 32 33  2  0
 34 33  1  0
 34 38  1  0
 35 34  2  0
 36 31  2  0
 36 35  1  0
 37 36  1  0
 39 40  1  0
 40 43  1  0
 40 42  1  0
 41 39  2  0
 44 45  1  0
 44 19  1  0
 46 44  1  0
 47 48  1  0
 49 60  2  0
 50 48  1  0
 50 55  1  0
 51 59  1  0
 51 61  1  0
 52 58  1  0
 52 54  1  0
 53 59  1  0
 54 55  2  0
 54 53  1  0
 56 50  2  0
 57 56  1  0
 57 52  2  0
 58 51  1  0
 59 49  1  0
 61 63  2  0
 62 61  1  0
 64 62  1  0
 65 74  2  0
 65 70  1  0
 66 62  1  0
 66 70  1  0
 67 66  1  0
 68 69  1  0
 68 67  1  0
 69 65  1  0
 70 71  2  0
 71 72  1  0
 73 72  2  0
 74 73  1  0
 75 49  1  0
 75 76  1  0
 75 85  1  0
 76 79  1  0
 77 81  1  0
 77 76  1  0
 78 77  2  0
 81 80  1  0
 83 81  1  0
 83 84  1  0
 83 82  1  0
 85 88  1  1
 85 86  1  0
 87 85  1  0
M  ISO  4   9 100  17 100  47 101  48 101
M  END
>  <TORSDO>  (33) 
F 18

>  <SCORE>  (33) 
-15.490

>  <name>  (33) 
32

>  <ligand_id>  (33) 
32

>  <original_smiles>  (33) 
[H]c1c([H])c([H])c2c(c1[H])C([H])([H])C([H])([H])C([H])([H])C2([H])N([H])C(=O)C1([H])N(C(=O)C([H])(N([H])C(=O)C([H])(N([H])C([H])([H])[H])C([H])([H])[H])C(C([H])([H])[H])(C([H])([H])[H])C([H])([H])[H])C([H])([H])c2c([H])c(OC([H])([H])c3nc(C([H])(N([H])C(=O)N4C([H])([H])C([H])([H])C([H])([H])C([H])(n5nc(-c6c([H])c([H])c(Oc7c([H])c([H])c(F)c([H])c7F)c([H])c6[H])c(C(=O)N([H])[H])c5N([H])[H])C4([H])[H])C([H])([H])[H])nn3C([H])([H])[H])c([H])c([H])c2C1([H])[H]

>  <smiles>  (33) 
[H]c1c([H])c([H])c2c(c1[H])C([H])([H])C([H])([H])C([H])([H])C2([H])N([H])C(=O)C1([H])N(C(=O)C([H])(N([H])C(=O)C([H])(N([H])C([H])([H])[H])C([H])([H])[H])C(C([H])([H])[H])(C([H])([H])[H])C([H])([H])[H])C([H])([H])c2c([H])c(OC([H])([H])c3nc(C([H])(N([H])C(=O)N4C([H])([H])C([H])([H])C([H])([H])C([H])(n5nc(-c6c([H])c([H])c(Oc7c([H])c([H])c(F)c([H])c7F)c([H])c6[H])c(C(=O)N([H])[H])c5N([H])[H])C4([H])[H])C([H])([H])[H])nn3C([H])([H])[H])c([H])c([H])c2C1([H])[H]

$$$$
33:0:0
     RDKit          3D

 91 99  0  0  1  0  0  0  0  0999 V2000
  -28.2720  -20.9870   21.4330 C   0  0  0  0  0  3  0  0  0  0  0  0
  -29.6230  -20.4710   19.8050 C   0  0  0  0  0  3  0  0  0  0  0  0
  -28.8490  -21.5380   20.2430 C   0  0  0  0  0  0  0  0  0  0  0  0
  -28.7130  -19.7500   21.7060 N   0  0  0  0  0  0  0  0  0  0  0  0
  -29.6050  -19.4190   20.7280 N   0  0  0  0  0  0  0  0  0  0  0  0
  -31.9460  -18.7480   20.5460 C   0  0  0  0  0  1  0  0  0  0  0  0
  -30.5520  -17.6780   22.3080 C   0  0  0  0  0  1  0  0  0  0  0  0
  -30.5220  -18.2110   20.8480 C   0  0  1  0  0  0  0  0  0  0  0  0
  -30.1470  -16.9480   19.9460 C   0  0  0  0  0  2  0  0  0  0  0  0
  -31.8160  -14.8700   19.5930 C   0  0  0  0  0  0  0  0  0  0  0  0
  -31.3630  -12.5710   18.8180 C   0  0  0  0  0  2  0  0  0  0  0  0
  -30.3820  -12.5810   17.6310 C   0  0  0  0  0  2  0  0  0  0  0  0
  -28.9320  -12.5290   18.1440 C   0  0  0  0  0  2  0  0  0  0  0  0
  -28.6560  -13.5770   19.2540 C   0  0  0  0  0  3  0  0  0  0  0  0
  -29.7570  -13.5560   20.3360 C   0  0  0  0  0  2  0  0  0  0  0  0
  -31.0320  -13.7510   19.6450 N   0  0  0  0  0  0  0  0  0  0  0  0
  -32.9870  -14.7970   19.2370 O   0  0  0  0  0  0  0  0  0  0  0  0
  -31.2940  -16.1250   19.4810 N   0  0  0  0  0  0  0  0  0  0  0  0
  -32.0250  -16.7210   19.1220 H   0  0  0  0  0  0  0  0  0  0  0  0
  -26.3840  -14.3810   20.1340 C   0  0  0  0  0  0  0  0  0  0  0  0
  -25.2740  -13.7020   20.5590 C   0  0  0  0  0  0  0  0  0  0  0  0
  -25.6050  -12.3140   20.4780 C   0  0  0  0  0  0  0  0  0  0  0  0
  -27.3220  -13.4130   19.8220 N   0  0  0  0  0  0  0  0  0  0  0  0
  -26.8650  -12.1630   20.0900 N   0  0  0  0  0  0  0  0  0  0  0  0
  -24.7740  -11.1200   20.6910 C   0  0  0  0  0  0  0  0  0  0  0  0
  -25.1080  -10.1540   21.6640 C   0  0  0  0  0  3  0  0  0  0  0  0
  -24.2830   -9.0280   21.8680 C   0  0  0  0  0  3  0  0  0  0  0  0
  -23.1090   -8.8620   21.0940 C   0  0  0  0  0  0  0  0  0  0  0  0
  -22.7930   -9.8140   20.1090 C   0  0  0  0  0  3  0  0  0  0  0  0
  -23.6190  -10.9320   19.9070 C   0  0  0  0  0  3  0  0  0  0  0  0
  -22.2640   -7.7850   21.2010 O   0  0  0  0  0  0  0  0  0  0  0  0
  -22.0330   -7.1670   22.4030 C   0  0  0  0  0  0  0  0  0  0  0  0
  -21.5290   -7.8710   23.5180 C   0  0  0  0  0  3  0  0  0  0  0  0
  -21.2390   -7.1830   24.7120 C   0  0  0  0  0  3  0  0  0  0  0  0
  -21.4510   -5.7940   24.7950 C   0  0  0  0  0  0  0  0  0  0  0  0
  -21.9510   -5.0900   23.6850 C   0  0  0  0  0  3  0  0  0  0  0  0
  -22.2370   -5.7750   22.4910 C   0  0  0  0  0  0  0  0  0  0  0  0
  -22.6980   -5.0880   21.4180 F   0  0  0  0  0  0  0  0  0  0  0  0
  -21.1650   -5.1320   25.9400 F   0  0  0  0  0  0  0  0  0  0  0  0
  -23.9480  -14.3040   20.9210 C   0  0  0  0  0  0  0  0  0  0  0  0
  -23.2220  -13.6730   21.8410 N   0  0  0  0  0  0  0  0  0  0  0  0
  -23.5660  -15.3590   20.4230 O   0  0  0  0  0  0  0  0  0  0  0  0
  -23.5450  -12.8140   22.2600 H   0  0  0  0  0  0  0  0  0  0  0  0
  -22.3320  -14.0540   22.1220 H   0  0  0  0  0  0  0  0  0  0  0  0
  -26.6600  -15.7330   19.9620 N   0  0  0  0  0  0  0  0  0  0  0  0
  -25.9690  -16.4510   20.1460 H   0  0  0  0  0  0  0  0  0  0  0  0
  -27.4840  -16.0880   19.4980 H   0  0  0  0  0  0  0  0  0  0  0  0
  -28.7700  -22.9520   19.5670 C   0  0  0  0  0  2  0  0  0  0  0  0
  -27.7090  -24.0790   19.9620 C   0  0  0  0  0  2  0  0  0  0  0  0
  -28.2120  -25.4760   20.5420 C   0  0  0  0  0  2  0  0  0  0  0  0
  -28.0970  -26.7320   19.7780 O   0  0  0  0  0  0  0  0  0  0  0  0
  -24.5370  -31.9580   23.2450 C   0  0  0  0  0  0  0  0  0  0  0  0
  -26.9680  -27.5300   19.9040 C   0  0  0  0  0  0  0  0  0  0  0  0
  -23.2500  -30.6250   21.6110 C   0  0  0  0  0  3  0  0  0  0  0  0
  -24.6180  -29.1260   20.0630 C   0  0  0  0  0  0  0  0  0  0  0  0
  -25.7740  -30.9560   21.3060 C   0  0  0  0  0  2  0  0  0  0  0  0
  -25.8160  -29.5980   20.6140 C   0  0  0  0  0  0  0  0  0  0  0  0
  -27.0010  -28.8220   20.5070 C   0  0  0  0  0  3  0  0  0  0  0  0
  -25.7520  -27.0910   19.3460 C   0  0  0  0  0  3  0  0  0  0  0  0
  -24.5860  -27.8790   19.4160 C   0  0  0  0  0  3  0  0  0  0  0  0
  -23.3970  -30.0130   20.1940 C   0  0  0  0  0  2  0  0  0  0  0  0
  -24.5440  -31.1920   22.1130 N   0  0  0  0  0  0  0  0  0  0  0  0
  -23.4810  -32.2140   23.8400 O   0  0  0  0  0  0  0  0  0  0  0  0
  -22.6350  -29.5700   22.5600 C   0  0  0  0  0  0  0  0  0  0  0  0
  -21.3230  -29.3190   22.4130 N   0  0  0  0  0  0  0  0  0  0  0  0
  -23.3350  -28.9840   23.3910 O   0  0  0  0  0  0  0  0  0  0  0  0
  -20.8140  -29.8460   21.7170 H   0  0  0  0  0  0  0  0  0  0  0  0
  -18.0480  -27.8290   22.7720 C   0  0  0  0  0  0  0  0  0  0  0  0
  -20.5490  -28.3400   23.1790 C   0  0  0  0  0  3  0  0  0  0  0  0
  -20.8220  -26.9040   22.6740 C   0  0  0  0  0  2  0  0  0  0  0  0
  -19.8190  -26.4350   21.6170 C   0  0  0  0  0  2  0  0  0  0  0  0
  -18.3920  -26.4780   22.1680 C   0  0  0  0  0  2  0  0  0  0  0  0
  -19.0630  -28.7090   23.2330 C   0  0  0  0  0  0  0  0  0  0  0  0
  -18.6890  -29.9650   23.7570 C   0  0  0  0  0  3  0  0  0  0  0  0
  -17.3350  -30.3440   23.8310 C   0  0  0  0  0  3  0  0  0  0  0  0
  -16.3350  -29.4640   23.3820 C   0  0  0  0  0  3  0  0  0  0  0  0
  -16.6920  -28.2100   22.8540 C   0  0  0  0  0  3  0  0  0  0  0  0
  -25.8470  -32.5710   23.8260 C   0  0  0  0  0  3  0  0  0  0  0  0
  -25.5670  -33.9740   24.1680 N   0  0  0  0  0  0  0  0  0  0  0  0
  -25.9050  -35.0250   23.4100 C   0  0  0  0  0  0  0  0  0  0  0  0
  -26.5530  -34.9140   22.3660 O   0  0  0  0  0  0  0  0  0  0  0  0
  -24.9980  -34.1380   24.9860 H   0  0  0  0  0  0  0  0  0  0  0  0
  -24.2070  -36.8600   23.1040 C   0  0  0  0  0  1  0  0  0  0  0  0
  -25.4540  -36.4190   23.8880 C   0  0  0  0  0  3  0  0  0  0  0  0
  -27.6250  -37.2510   24.6850 C   0  0  0  0  0  1  0  0  0  0  0  0
  -26.5060  -37.4520   23.7660 N   0  0  0  0  0  0  0  0  0  0  0  0
  -26.1210  -38.3750   23.9380 H   0  0  0  0  0  0  0  0  0  0  0  0
  -26.3910  -31.7930   25.0850 C   0  0  1  0  0  0  0  0  0  0  0  0
  -25.3230  -31.5470   26.1750 C   0  0  0  0  0  1  0  0  0  0  0  0
  -26.9690  -30.4230   24.6650 C   0  0  0  0  0  1  0  0  0  0  0  0
  -27.5510  -32.5870   25.7300 C   0  0  0  0  0  1  0  0  0  0  0  0
  1  4  2  0
  2  3  2  0
  2  5  1  0
  3  1  1  0
  5  8  1  0
  5  4  1  0
  8  6  1  6
  8  7  1  0
  9  8  1  0
 10 16  1  0
 11 16  1  0
 12 13  1  0
 12 11  1  0
 14 13  1  0
 14 23  1  0
 14 15  1  0
 16 15  1  0
 17 10  2  0
 18 10  1  0
 18  9  1  0
 19 18  1  0
 20 21  2  0
 21 40  1  0
 22 21  1  0
 22 25  1  0
 23 24  1  0
 23 20  1  0
 24 22  2  0
 25 26  1  0
 26 27  2  0
 28 31  1  0
 28 27  1  0
 29 28  2  0
 30 29  1  0
 30 25  2  0
 31 32  1  0
 32 37  2  0
 32 33  1  0
 33 34  2  0
 34 35  1  0
 35 39  1  0
 36 35  2  0
 37 36  1  0
 38 37  1  0
 40 41  1  0
 41 44  1  0
 41 43  1  0
 42 40  2  0
 45 20  1  0
 45 46  1  0
 47 45  1  0
 48 49  1  0
 48  3  1  0
 49 50  1  0
 51 53  1  0
 51 50  1  0
 52 63  2  0
 53 58  1  0
 54 62  1  0
 54 64  1  0
 55 61  1  0
 55 57  1  0
 56 62  1  0
 57 56  1  0
 58 57  2  0
 59 60  1  0
 59 53  2  0
 60 55  2  0
 61 54  1  0
 62 52  1  0
 64 66  2  0
 65 64  1  0
 67 65  1  0
 68 77  2  0
 68 73  1  0
 69 65  1  0
 69 73  1  0
 70 69  1  0
 71 72  1  0
 71 70  1  0
 72 68  1  0
 73 74  2  0
 74 75  1  0
 76 75  2  0
 77 76  1  0
 78 52  1  0
 78 79  1  0
 78 88  1  0
 79 82  1  0
 80 84  1  0
 80 79  1  0
 81 80  2  0
 84 83  1  0
 86 84  1  0
 86 87  1  0
 86 85  1  0
 88 91  1  1
 88 89  1  0
 90 88  1  0
M  ISO  4  10 100  18 100  50 101  51 101
M  END
>  <TORSDO>  (34) 
F 21

>  <SCORE>  (34) 
-10.818

>  <name>  (34) 
33

>  <ligand_id>  (34) 
33

>  <original_smiles>  (34) 
[H]c1nn(C(C([H])([H])[H])(C([H])([H])[H])C([H])([H])N([H])C(=O)N2C([H])([H])C([H])([H])C([H])([H])C([H])(n3nc(-c4c([H])c([H])c(Oc5c([H])c([H])c(F)c([H])c5F)c([H])c4[H])c(C(=O)N([H])[H])c3N([H])[H])C2([H])[H])c([H])c1C([H])([H])C([H])([H])C([H])([H])Oc1c([H])c([H])c2c(c1[H])C([H])([H])N(C(=O)C([H])(N([H])C(=O)C([H])(N([H])C([H])([H])[H])C([H])([H])[H])C(C([H])([H])[H])(C([H])([H])[H])C([H])([H])[H])C([H])(C(=O)N([H])C1([H])c3c([H])c([H])c([H])c([H])c3C([H])([H])C([H])([H])C1([H])[H])C2([H])[H]

>  <smiles>  (34) 
[H]c1nn(C(C([H])([H])[H])(C([H])([H])[H])C([H])([H])N([H])C(=O)N2C([H])([H])C([H])([H])C([H])([H])C([H])(n3nc(-c4c([H])c([H])c(Oc5c([H])c([H])c(F)c([H])c5F)c([H])c4[H])c(C(=O)N([H])[H])c3N([H])[H])C2([H])[H])c([H])c1C([H])([H])C([H])([H])C([H])([H])Oc1c([H])c([H])c2c(c1[H])C([H])([H])N(C(=O)C([H])(N([H])C(=O)C([H])(N([H])C([H])([H])[H])C([H])([H])[H])C(C([H])([H])[H])(C([H])([H])[H])C([H])([H])[H])C([H])(C(=O)N([H])C1([H])c3c([H])c([H])c([H])c([H])c3C([H])([H])C([H])([H])C1([H])[H])C2([H])[H]

$$$$
34:0:0
     RDKit          3D

 91 99  0  0  1  0  0  0  0  0999 V2000
  -28.9910  -20.7850   21.3410 C   0  0  0  0  0  0  0  0  0  0  0  0
  -29.7190  -19.5640   19.5800 C   0  0  0  0  0  0  0  0  0  0  0  0
  -29.1010  -21.9280   19.4060 C   0  0  0  0  0  0  0  0  0  0  0  0
  -28.6780  -20.8090   22.8220 C   0  0  0  0  0  1  0  0  0  0  0  0
  -29.4000  -19.6100   20.8650 N   0  0  0  0  0  4  0  0  0  0  0  0
  -28.8250  -21.9420   20.6990 N   0  0  0  0  0  0  0  0  0  0  0  0
  -29.5720  -20.7370   18.8070 N   0  0  0  0  0  2  0  0  0  0  0  0
  -28.0130  -23.1610   17.4130 C   0  0  0  0  0  1  0  0  0  0  0  0
  -30.3010  -23.8590   18.1810 C   0  0  0  0  0  1  0  0  0  0  0  0
  -28.9010  -23.4190   18.6420 C   0  0  2  0  0  0  0  0  0  0  0  0
  -28.1900  -24.8200   19.3500 C   0  0  0  0  0  2  0  0  0  0  0  0
  -28.1880  -26.3240   18.8440 O   0  0  0  0  0  0  0  0  0  0  0  0
  -24.7230  -31.5550   22.8290 C   0  0  0  0  0  0  0  0  0  0  0  0
  -27.1050  -27.2700   19.0530 C   0  0  0  0  0  0  0  0  0  0  0  0
  -23.4050  -30.3100   21.1590 C   0  0  0  0  0  3  0  0  0  0  0  0
  -24.7460  -28.9470   19.4340 C   0  0  0  0  0  0  0  0  0  0  0  0
  -25.9240  -30.6740   20.7850 C   0  0  0  0  0  2  0  0  0  0  0  0
  -25.9700  -29.3610   19.9760 C   0  0  0  0  0  0  0  0  0  0  0  0
  -27.1490  -28.5450   19.7640 C   0  0  0  0  0  3  0  0  0  0  0  0
  -25.8500  -26.9680   18.4890 C   0  0  0  0  0  3  0  0  0  0  0  0
  -24.6970  -27.7660   18.6740 C   0  0  0  0  0  3  0  0  0  0  0  0
  -23.5110  -29.7970   19.6970 C   0  0  0  0  0  2  0  0  0  0  0  0
  -24.7090  -30.8640   21.6460 N   0  0  0  0  0  0  0  0  0  0  0  0
  -23.6860  -31.7410   23.4870 O   0  0  0  0  0  0  0  0  0  0  0  0
  -22.8450  -29.1820   22.0600 C   0  0  0  0  0  0  0  0  0  0  0  0
  -21.5200  -28.9590   22.0150 N   0  0  0  0  0  0  0  0  0  0  0  0
  -23.6040  -28.5110   22.7640 O   0  0  0  0  0  0  0  0  0  0  0  0
  -20.9580  -29.5590   21.4280 H   0  0  0  0  0  0  0  0  0  0  0  0
  -18.2520  -27.5050   22.5910 C   0  0  0  0  0  0  0  0  0  0  0  0
  -20.8030  -27.9020   22.7360 C   0  0  0  0  0  3  0  0  0  0  0  0
  -20.9490  -26.5410   22.0160 C   0  0  0  0  0  2  0  0  0  0  0  0
  -19.8060  -26.2490   21.0400 C   0  0  0  0  0  2  0  0  0  0  0  0
  -18.4610  -26.2420   21.7730 C   0  0  0  0  0  2  0  0  0  0  0  0
  -19.3490  -28.2930   23.0280 C   0  0  0  0  0  0  0  0  0  0  0  0
  -19.0950  -29.4760   23.7550 C   0  0  0  0  0  3  0  0  0  0  0  0
  -17.7760  -29.8730   24.0450 C   0  0  0  0  0  3  0  0  0  0  0  0
  -16.6930  -29.0830   23.6210 C   0  0  0  0  0  3  0  0  0  0  0  0
  -16.9320  -27.8980   22.9010 C   0  0  0  0  0  3  0  0  0  0  0  0
  -26.0400  -32.1590   23.4050 C   0  0  0  0  0  3  0  0  0  0  0  0
  -26.7040  -31.2530   24.5170 C   0  0  1  0  0  0  0  0  0  0  0  0
  -25.7280  -30.8300   25.6410 C   0  0  0  0  0  1  0  0  0  0  0  0
  -27.2950  -29.9650   23.9010 C   0  0  0  0  0  1  0  0  0  0  0  0
  -27.8820  -32.0090   25.1740 C   0  0  0  0  0  1  0  0  0  0  0  0
  -25.7220  -33.4870   23.9550 N   0  0  0  0  0  0  0  0  0  0  0  0
  -25.9620  -34.6490   23.3310 C   0  0  0  0  0  0  0  0  0  0  0  0
  -26.5390  -34.7150   22.2430 O   0  0  0  0  0  0  0  0  0  0  0  0
  -25.2000  -33.5030   24.8180 H   0  0  0  0  0  0  0  0  0  0  0  0
  -24.1700  -36.4170   23.3850 C   0  0  0  0  0  1  0  0  0  0  0  0
  -25.4870  -35.9440   24.0220 C   0  0  0  0  0  3  0  0  0  0  0  0
  -27.6620  -36.7840   24.7960 C   0  0  0  0  0  1  0  0  0  0  0  0
  -26.4820  -37.0380   23.9730 N   0  0  0  0  0  0  0  0  0  0  0  0
  -26.0670  -37.9160   24.2740 H   0  0  0  0  0  0  0  0  0  0  0  0
  -30.3170  -18.0810   19.0360 C   0  0  0  0  0  2  0  0  0  0  0  0
  -31.0290  -15.4120   19.3260 C   0  0  0  0  0  0  0  0  0  0  0  0
  -30.9120  -12.9980   18.4830 C   0  0  0  0  0  2  0  0  0  0  0  0
  -29.8190  -12.8100   17.4000 C   0  0  0  0  0  2  0  0  0  0  0  0
  -28.4420  -12.5450   18.0390 C   0  0  0  0  0  2  0  0  0  0  0  0
  -28.1590  -13.5090   19.2170 C   0  0  0  0  0  3  0  0  0  0  0  0
  -29.3540  -13.5990   20.1840 C   0  0  0  0  0  2  0  0  0  0  0  0
  -30.4970  -14.1080   19.4040 N   0  0  0  0  0  0  0  0  0  0  0  0
  -32.1090  -15.4990   18.7280 O   0  0  0  0  0  0  0  0  0  0  0  0
  -29.9280  -16.6640   21.1230 C   0  0  0  0  0  1  0  0  0  0  0  0
  -30.3050  -16.6070   19.7050 N   0  0  0  0  0  0  0  0  0  0  0  0
  -25.9860  -14.0580   20.4490 C   0  0  0  0  0  0  0  0  0  0  0  0
  -24.9660  -13.2760   20.9130 C   0  0  0  0  0  0  0  0  0  0  0  0
  -25.3460  -11.9250   20.6360 C   0  0  0  0  0  0  0  0  0  0  0  0
  -26.9180  -13.1870   19.9110 N   0  0  0  0  0  0  0  0  0  0  0  0
  -26.5560  -11.8890   20.0870 N   0  0  0  0  0  0  0  0  0  0  0  0
  -24.6020  -10.6720   20.8050 C   0  0  0  0  0  0  0  0  0  0  0  0
  -25.0060   -9.6920   21.7380 C   0  0  0  0  0  3  0  0  0  0  0  0
  -24.2590   -8.5040   21.8980 C   0  0  0  0  0  3  0  0  0  0  0  0
  -23.0960   -8.2880   21.1220 C   0  0  0  0  0  0  0  0  0  0  0  0
  -22.7110   -9.2580   20.1790 C   0  0  0  0  0  3  0  0  0  0  0  0
  -23.4570  -10.4350   20.0190 C   0  0  0  0  0  3  0  0  0  0  0  0
  -22.3260   -7.1520   21.1880 O   0  0  0  0  0  0  0  0  0  0  0  0
  -22.0260   -6.5540   22.3860 C   0  0  0  0  0  0  0  0  0  0  0  0
  -21.3220   -7.2360   23.4030 C   0  0  0  0  0  3  0  0  0  0  0  0
  -20.9720   -6.5630   24.5910 C   0  0  0  0  0  3  0  0  0  0  0  0
  -21.3170   -5.2090   24.7600 C   0  0  0  0  0  0  0  0  0  0  0  0
  -22.0110   -4.5260   23.7460 C   0  0  0  0  0  3  0  0  0  0  0  0
  -22.3620   -5.1970   22.5620 C   0  0  0  0  0  0  0  0  0  0  0  0
  -23.0120   -4.5290   21.5790 F   0  0  0  0  0  0  0  0  0  0  0  0
  -20.9750   -4.5600   25.8980 F   0  0  0  0  0  0  0  0  0  0  0  0
  -23.6690  -13.7570   21.4940 C   0  0  0  0  0  0  0  0  0  0  0  0
  -23.0860  -12.9920   22.4080 N   0  0  0  0  0  0  0  0  0  0  0  0
  -23.1920  -14.8450   21.1720 O   0  0  0  0  0  0  0  0  0  0  0  0
  -23.4900  -12.1110   22.6890 H   0  0  0  0  0  0  0  0  0  0  0  0
  -22.2240  -13.2970   22.8390 H   0  0  0  0  0  0  0  0  0  0  0  0
  -26.1890  -15.4350   20.4170 N   0  0  0  0  0  0  0  0  0  0  0  0
  -25.4950  -16.0860   20.7660 H   0  0  0  0  0  0  0  0  0  0  0  0
  -26.9980  -15.8910   20.0150 H   0  0  0  0  0  0  0  0  0  0  0  0
  1  4  1  0
  2  5  2  0
  3  6  2  0
  5  1  2  0
  6  1  1  0
  7  3  1  0
  7  2  1  0
 10  8  1  6
  9 10  1  0
 10 11  1  0
 10  3  1  0
 12 14  1  0
 12 11  1  0
 13 24  2  0
 14 19  1  0
 15 23  1  0
 15 25  1  0
 16 22  1  0
 16 18  1  0
 17 23  1  0
 18 17  1  0
 19 18  2  0
 20 21  1  0
 20 14  2  0
 21 16  2  0
 22 15  1  0
 23 13  1  0
 25 27  2  0
 26 25  1  0
 28 26  1  0
 29 38  2  0
 29 34  1  0
 30 26  1  0
 30 34  1  0
 31 30  1  0
 32 33  1  0
 32 31  1  0
 33 29  1  0
 34 35  2  0
 35 36  1  0
 37 36  2  0
 38 37  1  0
 39 13  1  0
 39 44  1  0
 39 40  1  0
 40 43  1  1
 40 41  1  0
 42 40  1  0
 44 47  1  0
 45 44  1  0
 45 49  1  0
 46 45  2  0
 49 48  1  0
 51 49  1  0
 51 52  1  0
 51 50  1  0
 53  2  1  0
 53 63  1  0
 54 60  1  0
 54 63  1  0
 55 60  1  0
 56 57  1  0
 56 55  1  0
 58 57  1  0
 58 67  1  0
 58 59  1  0
 60 59  1  0
 61 54  2  0
 63 62  1  0
 64 65  2  0
 65 84  1  0
 66 69  1  0
 66 65  1  0
 67 68  1  0
 67 64  1  0
 68 66  2  0
 69 70  1  0
 70 71  2  0
 72 75  1  0
 72 71  1  0
 73 72  2  0
 74 73  1  0
 74 69  2  0
 75 76  1  0
 76 81  2  0
 76 77  1  0
 77 78  2  0
 78 79  1  0
 79 83  1  0
 80 79  2  0
 81 80  1  0
 82 81  1  0
 84 85  1  0
 85 87  1  0
 85 88  1  0
 86 84  2  0
 89 64  1  0
 89 90  1  0
 91 89  1  0
M  ISO  4  11 101  12 101  54 100  63 100
M  END
>  <TORSDO>  (35) 
F 19

>  <SCORE>  (35) 
-9.520

>  <name>  (35) 
34

>  <ligand_id>  (35) 
34

>  <original_smiles>  (35) 
[H]c1c([H])c([H])c2c(c1[H])C([H])([H])C([H])([H])C([H])([H])C2([H])N([H])C(=O)C1([H])N(C(=O)C([H])(N([H])C(=O)C([H])(N([H])C([H])([H])[H])C([H])([H])[H])C(C([H])([H])[H])(C([H])([H])[H])C([H])([H])[H])C([H])([H])c2c([H])c(OC([H])([H])C(c3nc(C([H])([H])[H])nc(C([H])([H])N(C(=O)N4C([H])([H])C([H])([H])C([H])([H])C([H])(n5nc(-c6c([H])c([H])c(Oc7c([H])c([H])c(F)c([H])c7F)c([H])c6[H])c(C(=O)N([H])[H])c5N([H])[H])C4([H])[H])C([H])([H])[H])n3)(C([H])([H])[H])C([H])([H])[H])c([H])c([H])c2C1([H])[H]

>  <smiles>  (35) 
[H]c1c([H])c([H])c2c(c1[H])C([H])([H])C([H])([H])C([H])([H])C2([H])N([H])C(=O)C1([H])N(C(=O)C([H])(N([H])C(=O)C([H])(N([H])C([H])([H])[H])C([H])([H])[H])C(C([H])([H])[H])(C([H])([H])[H])C([H])([H])[H])C([H])([H])c2c([H])c(OC([H])([H])C(c3nc(C([H])([H])[H])nc(C([H])([H])N(C(=O)N4C([H])([H])C([H])([H])C([H])([H])C([H])(n5nc(-c6c([H])c([H])c(Oc7c([H])c([H])c(F)c([H])c7F)c([H])c6[H])c(C(=O)N([H])[H])c5N([H])[H])C4([H])[H])C([H])([H])[H])n3)(C([H])([H])[H])C([H])([H])[H])c([H])c([H])c2C1([H])[H]

$$$$
35:0:0
     RDKit          3D

 89 97  0  0  1  0  0  0  0  0999 V2000
  -29.8060  -21.3610   19.1660 C   0  0  0  0  0  3  0  0  0  0  0  0
  -28.5470  -22.3590   21.3290 C   0  0  0  0  0  3  0  0  0  0  0  0
  -29.3730  -22.7410   19.1570 C   0  0  0  0  0  0  0  0  0  0  0  0
  -28.6840  -23.3230   20.2670 C   0  0  0  0  0  0  0  0  0  0  0  0
  -29.5960  -20.4600   20.2560 C   0  0  0  0  0  0  0  0  0  0  0  0
  -29.6190  -23.5630   17.9050 C   0  0  0  0  0  1  0  0  0  0  0  0
  -28.9920  -21.0340   21.3440 N   0  0  0  0  0  0  0  0  0  0  0  0
  -27.8070  -24.7110   20.1980 C   0  0  0  0  0  2  0  0  0  0  0  0
  -28.2290  -26.2000   20.2260 O   0  0  0  0  0  0  0  0  0  0  0  0
  -24.6200  -31.8740   23.2540 C   0  0  0  0  0  0  0  0  0  0  0  0
  -27.1830  -27.1950   20.1730 C   0  0  0  0  0  0  0  0  0  0  0  0
  -23.4100  -30.4870   21.6190 C   0  0  0  0  0  3  0  0  0  0  0  0
  -24.8510  -28.9330   20.1750 C   0  0  0  0  0  0  0  0  0  0  0  0
  -25.9660  -30.7580   21.4400 C   0  0  0  0  0  2  0  0  0  0  0  0
  -26.0370  -29.3740   20.7780 C   0  0  0  0  0  0  0  0  0  0  0  0
  -27.2040  -28.5220   20.7610 C   0  0  0  0  0  3  0  0  0  0  0  0
  -25.9670  -26.8640   19.5260 C   0  0  0  0  0  3  0  0  0  0  0  0
  -24.8270  -27.6900   19.5360 C   0  0  0  0  0  3  0  0  0  0  0  0
  -23.6230  -29.8260   20.2340 C   0  0  0  0  0  2  0  0  0  0  0  0
  -24.6860  -31.0600   22.1580 N   0  0  0  0  0  0  0  0  0  0  0  0
  -23.5380  -32.1530   23.7910 O   0  0  0  0  0  0  0  0  0  0  0  0
  -22.7420  -29.4700   22.5770 C   0  0  0  0  0  0  0  0  0  0  0  0
  -21.4130  -29.2930   22.4530 N   0  0  0  0  0  0  0  0  0  0  0  0
  -23.4190  -28.8420   23.3950 O   0  0  0  0  0  0  0  0  0  0  0  0
  -20.9240  -29.8490   21.7660 H   0  0  0  0  0  0  0  0  0  0  0  0
  -18.0380  -28.0810   22.9630 C   0  0  0  0  0  0  0  0  0  0  0  0
  -20.5970  -28.3540   23.2260 C   0  0  0  0  0  3  0  0  0  0  0  0
  -20.7030  -26.9220   22.6520 C   0  0  0  0  0  2  0  0  0  0  0  0
  -19.6000  -26.5940   21.6400 C   0  0  0  0  0  2  0  0  0  0  0  0
  -18.2190  -26.7320   22.2870 C   0  0  0  0  0  2  0  0  0  0  0  0
  -19.1540  -28.8490   23.3900 C   0  0  0  0  0  0  0  0  0  0  0  0
  -18.9290  -30.1090   23.9840 C   0  0  0  0  0  3  0  0  0  0  0  0
  -17.6220  -30.6040   24.1520 C   0  0  0  0  0  3  0  0  0  0  0  0
  -16.5210  -29.8350   23.7410 C   0  0  0  0  0  3  0  0  0  0  0  0
  -16.7290  -28.5740   23.1520 C   0  0  0  0  0  3  0  0  0  0  0  0
  -25.9030  -32.5070   23.8720 C   0  0  0  0  0  3  0  0  0  0  0  0
  -26.4190  -31.7360   25.1500 C   0  0  1  0  0  0  0  0  0  0  0  0
  -25.3290  -31.5020   26.2210 C   0  0  0  0  0  1  0  0  0  0  0  0
  -26.9980  -30.3560   24.7620 C   0  0  0  0  0  1  0  0  0  0  0  0
  -27.5740  -32.5280   25.8070 C   0  0  0  0  0  1  0  0  0  0  0  0
  -25.5930  -33.9050   24.2080 N   0  0  0  0  0  0  0  0  0  0  0  0
  -25.9200  -34.9620   23.4530 C   0  0  0  0  0  0  0  0  0  0  0  0
  -26.5800  -34.8640   22.4150 O   0  0  0  0  0  0  0  0  0  0  0  0
  -25.0080  -34.0550   25.0160 H   0  0  0  0  0  0  0  0  0  0  0  0
  -24.1910  -36.7610   23.1200 C   0  0  0  0  0  1  0  0  0  0  0  0
  -25.4360  -36.3490   23.9220 C   0  0  0  0  0  3  0  0  0  0  0  0
  -27.5750  -37.2300   24.7470 C   0  0  0  0  0  1  0  0  0  0  0  0
  -26.4700  -37.4030   23.8080 N   0  0  0  0  0  0  0  0  0  0  0  0
  -26.0650  -38.3230   23.9630 H   0  0  0  0  0  0  0  0  0  0  0  0
  -30.2560  -18.9560   20.2340 C   0  0  0  0  0  2  0  0  0  0  0  0
  -29.6590  -17.5180   20.8150 C   0  0  0  0  0  2  0  0  0  0  0  0
  -30.5780  -14.9470   20.3670 C   0  0  0  0  0  0  0  0  0  0  0  0
  -30.4260  -12.6060   19.4420 C   0  0  0  0  0  2  0  0  0  0  0  0
  -29.5020  -12.5330   18.2040 C   0  0  0  0  0  2  0  0  0  0  0  0
  -28.0280  -12.3690   18.6270 C   0  0  0  0  0  2  0  0  0  0  0  0
  -27.6100  -13.3200   19.7820 C   0  0  0  0  0  3  0  0  0  0  0  0
  -28.6580  -13.3500   20.9130 C   0  0  0  0  0  2  0  0  0  0  0  0
  -29.9410  -13.7160   20.3000 N   0  0  0  0  0  0  0  0  0  0  0  0
  -31.8100  -14.9680   20.2730 O   0  0  0  0  0  0  0  0  0  0  0  0
  -29.4850  -16.3190   18.6860 C   0  0  0  0  0  1  0  0  0  0  0  0
  -29.8390  -16.1320   20.0980 N   0  0  0  0  0  0  0  0  0  0  0  0
  -25.2200  -13.9220   20.4750 C   0  0  0  0  0  0  0  0  0  0  0  0
  -24.1440  -13.1550   20.8290 C   0  0  0  0  0  0  0  0  0  0  0  0
  -24.6080  -11.8030   20.8270 C   0  0  0  0  0  0  0  0  0  0  0  0
  -26.2660  -13.0380   20.2690 N   0  0  0  0  0  0  0  0  0  0  0  0
  -25.9050  -11.7600   20.5490 N   0  0  0  0  0  0  0  0  0  0  0  0
  -23.8760  -10.5440   21.0160 C   0  0  0  0  0  0  0  0  0  0  0  0
  -24.2950   -9.5800   21.9610 C   0  0  0  0  0  3  0  0  0  0  0  0
  -23.5620   -8.3870   22.1380 C   0  0  0  0  0  3  0  0  0  0  0  0
  -22.3960   -8.1500   21.3720 C   0  0  0  0  0  0  0  0  0  0  0  0
  -21.9950   -9.1030   20.4180 C   0  0  0  0  0  3  0  0  0  0  0  0
  -22.7290  -10.2870   20.2390 C   0  0  0  0  0  3  0  0  0  0  0  0
  -21.6360   -7.0090   21.4600 O   0  0  0  0  0  0  0  0  0  0  0  0
  -21.5830   -6.2670   22.6130 C   0  0  0  0  0  0  0  0  0  0  0  0
  -21.1600   -6.8240   23.8400 C   0  0  0  0  0  3  0  0  0  0  0  0
  -21.0500   -6.0090   24.9830 C   0  0  0  0  0  3  0  0  0  0  0  0
  -21.3550   -4.6370   24.9020 C   0  0  0  0  0  0  0  0  0  0  0  0
  -21.7750   -4.0800   23.6820 C   0  0  0  0  0  3  0  0  0  0  0  0
  -21.8850   -4.8920   22.5400 C   0  0  0  0  0  0  0  0  0  0  0  0
  -22.2670   -4.3450   21.3610 F   0  0  0  0  0  0  0  0  0  0  0  0
  -21.2440   -3.8510   25.9990 F   0  0  0  0  0  0  0  0  0  0  0  0
  -22.7420  -13.6380   21.0580 C   0  0  0  0  0  0  0  0  0  0  0  0
  -21.9910  -12.9580   21.9160 N   0  0  0  0  0  0  0  0  0  0  0  0
  -22.3200  -14.6580   20.5130 O   0  0  0  0  0  0  0  0  0  0  0  0
  -22.3440  -12.1360   22.3850 H   0  0  0  0  0  0  0  0  0  0  0  0
  -21.0490  -13.2670   22.1140 H   0  0  0  0  0  0  0  0  0  0  0  0
  -25.3930  -15.2910   20.2850 N   0  0  0  0  0  0  0  0  0  0  0  0
  -24.6320  -15.9530   20.3800 H   0  0  0  0  0  0  0  0  0  0  0  0
  -26.2600  -15.7230   19.9930 H   0  0  0  0  0  0  0  0  0  0  0  0
  1  5  1  0
  2  7  1  0
  3  1  2  0
  3  4  1  0
  4  2  2  0
  5  7  2  0
  6  3  1  0
  8  9  1  0
  8  4  1  0
 10 21  2  0
 11  9  1  0
 11 16  1  0
 12 20  1  0
 12 22  1  0
 13 19  1  0
 13 15  1  0
 14 20  1  0
 15 14  1  0
 16 15  2  0
 17 18  1  0
 17 11  2  0
 18 13  2  0
 19 12  1  0
 20 10  1  0
 22 24  2  0
 23 22  1  0
 25 23  1  0
 26 35  2  0
 26 31  1  0
 27 23  1  0
 27 31  1  0
 28 27  1  0
 29 30  1  0
 29 28  1  0
 30 26  1  0
 31 32  2  0
 32 33  1  0
 34 33  2  0
 35 34  1  0
 36 10  1  0
 36 41  1  0
 36 37  1  0
 37 40  1  1
 37 38  1  0
 39 37  1  0
 41 44  1  0
 42 46  1  0
 42 41  1  0
 43 42  2  0
 46 45  1  0
 48 46  1  0
 48 49  1  0
 48 47  1  0
 50  5  1  0
 50 51  1  0
 53 58  1  0
 54 55  1  0
 54 53  1  0
 56 55  1  0
 56 65  1  0
 56 57  1  0
 58 52  1  0
 58 57  1  0
 59 52  2  0
 60 61  1  0
 61 52  1  0
 61 51  1  0
 62 63  2  0
 63 82  1  0
 64 63  1  0
 64 67  1  0
 65 62  1  0
 65 66  1  0
 66 64  2  0
 67 68  1  0
 68 69  2  0
 70 73  1  0
 70 69  1  0
 71 70  2  0
 72 71  1  0
 72 67  2  0
 73 74  1  0
 74 75  1  0
 75 76  2  0
 77 76  1  0
 77 81  1  0
 78 77  2  0
 79 74  2  0
 79 78  1  0
 80 79  1  0
 82 83  1  0
 83 86  1  0
 83 85  1  0
 84 82  2  0
 87 88  1  0
 87 62  1  0
 89 87  1  0
M  ISO  4   8 101   9 101  52 100  61 100
M  END
>  <TORSDO>  (36) 
F 19

>  <SCORE>  (36) 
-13.950

>  <name>  (36) 
35

>  <ligand_id>  (36) 
35

>  <original_smiles>  (36) 
[H]c1nc(C([H])([H])C([H])([H])N(C(=O)N2C([H])([H])C([H])([H])C([H])([H])C([H])(n3nc(-c4c([H])c([H])c(Oc5c([H])c([H])c(F)c([H])c5F)c([H])c4[H])c(C(=O)N([H])[H])c3N([H])[H])C2([H])[H])C([H])([H])[H])c([H])c(C([H])([H])[H])c1C([H])([H])Oc1c([H])c([H])c2c(c1[H])C([H])([H])N(C(=O)C([H])(N([H])C(=O)C([H])(N([H])C([H])([H])[H])C([H])([H])[H])C(C([H])([H])[H])(C([H])([H])[H])C([H])([H])[H])C([H])(C(=O)N([H])C1([H])c3c([H])c([H])c([H])c([H])c3C([H])([H])C([H])([H])C1([H])[H])C2([H])[H]

>  <smiles>  (36) 
[H]c1nc(C([H])([H])C([H])([H])N(C(=O)N2C([H])([H])C([H])([H])C([H])([H])C([H])(n3nc(-c4c([H])c([H])c(Oc5c([H])c([H])c(F)c([H])c5F)c([H])c4[H])c(C(=O)N([H])[H])c3N([H])[H])C2([H])[H])C([H])([H])[H])c([H])c(C([H])([H])[H])c1C([H])([H])Oc1c([H])c([H])c2c(c1[H])C([H])([H])N(C(=O)C([H])(N([H])C(=O)C([H])(N([H])C([H])([H])[H])C([H])([H])[H])C(C([H])([H])[H])(C([H])([H])[H])C([H])([H])[H])C([H])(C(=O)N([H])C1([H])c3c([H])c([H])c([H])c([H])c3C([H])([H])C([H])([H])C1([H])[H])C2([H])[H]

$$$$
36:0:0
     RDKit          3D

 88 96  0  0  1  0  0  0  0  0999 V2000
  -29.4530  -19.3690   20.1990 C   0  0  0  0  0  0  0  0  0  0  0  0
  -28.0880  -19.5890   20.2010 N   0  0  0  0  0  0  0  0  0  0  0  0
  -30.0380  -20.6240   20.2390 N   0  0  0  0  0  2  0  0  0  0  0  0
  -27.8210  -20.8990   20.2850 N   0  0  0  0  0  2  0  0  0  0  0  0
  -28.9900  -21.6030   20.2730 N   0  0  0  0  0  0  0  0  0  0  0  0
  -30.5420  -17.9020   18.3990 C   0  0  0  0  0  1  0  0  0  0  0  0
  -30.2430  -17.9080   19.9100 C   0  0  0  0  0  3  0  0  0  0  0  0
  -30.5750  -15.1270   20.0340 C   0  0  0  0  0  0  0  0  0  0  0  0
  -30.3790  -12.8090   18.9500 C   0  0  0  0  0  2  0  0  0  0  0  0
  -29.3610  -12.7880   17.7830 C   0  0  0  0  0  2  0  0  0  0  0  0
  -27.9320  -12.5420   18.3030 C   0  0  0  0  0  2  0  0  0  0  0  0
  -27.6130  -13.3970   19.5560 C   0  0  0  0  0  3  0  0  0  0  0  0
  -28.7470  -13.3310   20.5980 C   0  0  0  0  0  2  0  0  0  0  0  0
  -29.9530  -13.8600   19.9350 N   0  0  0  0  0  0  0  0  0  0  0  0
  -31.7390  -15.1480   19.6110 O   0  0  0  0  0  0  0  0  0  0  0  0
  -29.0140  -16.3970   21.5070 C   0  0  0  0  0  1  0  0  0  0  0  0
  -29.8840  -16.3830   20.3310 N   0  0  0  0  0  0  0  0  0  0  0  0
  -25.2830  -13.9410   20.4570 C   0  0  0  0  0  0  0  0  0  0  0  0
  -24.2480  -13.1530   20.8720 C   0  0  0  0  0  0  0  0  0  0  0  0
  -24.7120  -11.8050   20.7760 C   0  0  0  0  0  0  0  0  0  0  0  0
  -26.3110  -13.0750   20.1280 N   0  0  0  0  0  0  0  0  0  0  0  0
  -25.9810  -11.7820   20.3850 N   0  0  0  0  0  0  0  0  0  0  0  0
  -23.9980  -10.5360   20.9740 C   0  0  0  0  0  0  0  0  0  0  0  0
  -24.4590   -9.5640   21.8890 C   0  0  0  0  0  3  0  0  0  0  0  0
  -23.7440   -8.3620   22.0770 C   0  0  0  0  0  3  0  0  0  0  0  0
  -22.5530   -8.1240   21.3500 C   0  0  0  0  0  0  0  0  0  0  0  0
  -22.1110   -9.0850   20.4240 C   0  0  0  0  0  3  0  0  0  0  0  0
  -22.8270  -10.2790   20.2340 C   0  0  0  0  0  3  0  0  0  0  0  0
  -21.8060   -6.9750   21.4480 O   0  0  0  0  0  0  0  0  0  0  0  0
  -21.7480   -6.2520   22.6120 C   0  0  0  0  0  0  0  0  0  0  0  0
  -21.2860   -6.8200   23.8200 C   0  0  0  0  0  3  0  0  0  0  0  0
  -21.1770   -6.0220   24.9760 C   0  0  0  0  0  3  0  0  0  0  0  0
  -21.5190   -4.6570   24.9270 C   0  0  0  0  0  0  0  0  0  0  0  0
  -21.9740   -4.0890   23.7240 C   0  0  0  0  0  3  0  0  0  0  0  0
  -22.0850   -4.8840   22.5690 C   0  0  0  0  0  0  0  0  0  0  0  0
  -22.5030   -4.3270   21.4070 F   0  0  0  0  0  0  0  0  0  0  0  0
  -21.4080   -3.8890   26.0350 F   0  0  0  0  0  0  0  0  0  0  0  0
  -22.8700  -13.6190   21.2420 C   0  0  0  0  0  0  0  0  0  0  0  0
  -22.1990  -12.9030   22.1360 N   0  0  0  0  0  0  0  0  0  0  0  0
  -22.3990  -14.6550   20.7730 O   0  0  0  0  0  0  0  0  0  0  0  0
  -22.5950  -12.0650   22.5370 H   0  0  0  0  0  0  0  0  0  0  0  0
  -21.2770  -13.1970   22.4260 H   0  0  0  0  0  0  0  0  0  0  0  0
  -25.4260  -15.3170   20.3010 N   0  0  0  0  0  0  0  0  0  0  0  0
  -24.6590  -15.9580   20.4720 H   0  0  0  0  0  0  0  0  0  0  0  0
  -26.2400  -15.7690   19.9050 H   0  0  0  0  0  0  0  0  0  0  0  0
  -29.1500  -23.2110   20.4390 C   0  0  0  0  0  3  0  0  0  0  0  0
  -28.0480  -24.5120   20.1610 C   0  0  0  0  0  3  0  0  0  0  0  0
  -28.2770  -26.0820   20.3460 O   0  0  0  0  0  0  0  0  0  0  0  0
  -24.6460  -31.8830   23.2590 C   0  0  0  0  0  0  0  0  0  0  0  0
  -27.2320  -27.1000   20.2680 C   0  0  0  0  0  0  0  0  0  0  0  0
  -23.4580  -30.4850   21.6130 C   0  0  0  0  0  3  0  0  0  0  0  0
  -24.9150  -28.8920   20.2050 C   0  0  0  0  0  0  0  0  0  0  0  0
  -26.0180  -30.7280   21.4740 C   0  0  0  0  0  2  0  0  0  0  0  0
  -26.0930  -29.3280   20.8240 C   0  0  0  0  0  0  0  0  0  0  0  0
  -27.2500  -28.4490   20.8340 C   0  0  0  0  0  3  0  0  0  0  0  0
  -26.0250  -26.7820   19.6080 C   0  0  0  0  0  3  0  0  0  0  0  0
  -24.8980  -27.6360   19.5790 C   0  0  0  0  0  3  0  0  0  0  0  0
  -23.6910  -29.8000   20.2390 C   0  0  0  0  0  2  0  0  0  0  0  0
  -24.7270  -31.0560   22.1690 N   0  0  0  0  0  0  0  0  0  0  0  0
  -23.5550  -32.1730   23.7750 O   0  0  0  0  0  0  0  0  0  0  0  0
  -22.7640  -29.4860   22.5740 C   0  0  0  0  0  0  0  0  0  0  0  0
  -21.4350  -29.3220   22.4390 N   0  0  0  0  0  0  0  0  0  0  0  0
  -23.4250  -28.8600   23.4070 O   0  0  0  0  0  0  0  0  0  0  0  0
  -20.9570  -29.8790   21.7440 H   0  0  0  0  0  0  0  0  0  0  0  0
  -18.0430  -28.1420   22.9320 C   0  0  0  0  0  0  0  0  0  0  0  0
  -20.6040  -28.3900   23.2060 C   0  0  0  0  0  3  0  0  0  0  0  0
  -20.6980  -26.9570   22.6300 C   0  0  0  0  0  2  0  0  0  0  0  0
  -19.5980  -26.6430   21.6120 C   0  0  0  0  0  2  0  0  0  0  0  0
  -18.2150  -26.7940   22.2520 C   0  0  0  0  0  2  0  0  0  0  0  0
  -19.1650  -28.8980   23.3660 C   0  0  0  0  0  0  0  0  0  0  0  0
  -18.9490  -30.1590   23.9630 C   0  0  0  0  0  3  0  0  0  0  0  0
  -17.6460  -30.6640   24.1300 C   0  0  0  0  0  3  0  0  0  0  0  0
  -16.5400  -29.9050   23.7110 C   0  0  0  0  0  3  0  0  0  0  0  0
  -16.7400  -28.6460   23.1180 C   0  0  0  0  0  3  0  0  0  0  0  0
  -25.9170  -32.5200   23.8970 C   0  0  0  0  0  3  0  0  0  0  0  0
  -26.4100  -31.7570   25.1880 C   0  0  1  0  0  0  0  0  0  0  0  0
  -25.3000  -31.5320   26.2430 C   0  0  0  0  0  1  0  0  0  0  0  0
  -26.9950  -30.3740   24.8220 C   0  0  0  0  0  1  0  0  0  0  0  0
  -27.5530  -32.5530   25.8620 C   0  0  0  0  0  1  0  0  0  0  0  0
  -25.6040  -33.9210   24.2210 N   0  0  0  0  0  0  0  0  0  0  0  0
  -25.9240  -34.9740   23.4580 C   0  0  0  0  0  0  0  0  0  0  0  0
  -26.5800  -34.8690   22.4190 O   0  0  0  0  0  0  0  0  0  0  0  0
  -25.0190  -34.0770   25.0300 H   0  0  0  0  0  0  0  0  0  0  0  0
  -24.1790  -36.7620   23.1410 C   0  0  0  0  0  1  0  0  0  0  0  0
  -25.4450  -36.3660   23.9190 C   0  0  0  0  0  3  0  0  0  0  0  0
  -27.5940  -37.2730   24.6870 C   0  0  0  0  0  1  0  0  0  0  0  0
  -26.4690  -37.4230   23.7690 N   0  0  0  0  0  0  0  0  0  0  0  0
  -26.0620  -38.3430   23.9150 H   0  0  0  0  0  0  0  0  0  0  0  0
  1  2  2  0
  1  3  1  0
  2  4  1  0
  3  5  1  0
  5  4  1  0
  5 46  1  0
  7  6  1  0
  7  1  1  0
  7 17  1  0
  8 17  1  0
  9 14  1  0
 10 11  1  0
 10  9  1  0
 12 11  1  0
 12 21  1  0
 12 13  1  0
 14  8  1  0
 14 13  1  0
 15  8  2  0
 17 16  1  0
 18 19  2  0
 19 38  1  0
 20 19  1  0
 20 23  1  0
 21 22  1  0
 21 18  1  0
 22 20  2  0
 23 24  1  0
 24 25  2  0
 26 29  1  0
 26 25  1  0
 27 26  2  0
 28 27  1  0
 28 23  2  0
 29 30  1  0
 30 31  1  0
 31 32  2  0
 33 32  1  0
 33 37  1  0
 34 33  2  0
 35 30  2  0
 35 34  1  0
 36 35  1  0
 38 39  1  0
 39 42  1  0
 39 41  1  0
 40 38  2  0
 43 18  1  0
 43 44  1  0
 45 43  1  0
 47 48  1  0
 47 46  2  0
 49 60  2  0
 50 48  1  0
 50 55  1  0
 51 59  1  0
 51 61  1  0
 52 58  1  0
 52 54  1  0
 53 59  1  0
 54 55  2  0
 54 53  1  0
 56 50  2  0
 57 56  1  0
 57 52  2  0
 58 51  1  0
 59 49  1  0
 61 63  2  0
 62 61  1  0
 64 62  1  0
 65 74  2  0
 65 70  1  0
 66 62  1  0
 66 70  1  0
 67 66  1  0
 68 69  1  0
 68 67  1  0
 69 65  1  0
 70 71  2  0
 71 72  1  0
 73 72  2  0
 74 73  1  0
 75 49  1  0
 75 80  1  0
 75 76  1  0
 76 79  1  1
 76 77  1  0
 78 76  1  0
 80 83  1  0
 81 85  1  0
 81 80  1  0
 82 81  2  0
 85 84  1  0
 87 88  1  0
 87 85  1  0
 87 86  1  0
M  ISO  4   8 100  17 100  47 101  48 101
M  END
>  <TORSDO>  (37) 
F 19

>  <SCORE>  (37) 
-14.488

>  <name>  (37) 
36

>  <ligand_id>  (37) 
36

>  <original_smiles>  (37) 
[H]c1c([H])c([H])c2c(c1[H])C([H])([H])C([H])([H])C([H])([H])C2([H])N([H])C(=O)C1([H])N(C(=O)C([H])(N([H])C(=O)C([H])(N([H])C([H])([H])[H])C([H])([H])[H])C(C([H])([H])[H])(C([H])([H])[H])C([H])([H])[H])C([H])([H])c2c([H])c(OC([H])([H])C([H])([H])n3nnc(C([H])(N(C(=O)N4C([H])([H])C([H])([H])C([H])([H])C([H])(n5nc(-c6c([H])c([H])c(Oc7c([H])c([H])c(F)c([H])c7F)c([H])c6[H])c(C(=O)N([H])[H])c5N([H])[H])C4([H])[H])C([H])([H])[H])C([H])([H])[H])n3)c([H])c([H])c2C1([H])[H]

>  <smiles>  (37) 
[H]c1c([H])c([H])c2c(c1[H])C([H])([H])C([H])([H])C([H])([H])C2([H])N([H])C(=O)C1([H])N(C(=O)C([H])(N([H])C(=O)C([H])(N([H])C([H])([H])[H])C([H])([H])[H])C(C([H])([H])[H])(C([H])([H])[H])C([H])([H])[H])C([H])([H])c2c([H])c(OC([H])([H])C([H])([H])n3nnc(C([H])(N(C(=O)N4C([H])([H])C([H])([H])C([H])([H])C([H])(n5nc(-c6c([H])c([H])c(Oc7c([H])c([H])c(F)c([H])c7F)c([H])c6[H])c(C(=O)N([H])[H])c5N([H])[H])C4([H])[H])C([H])([H])[H])C([H])([H])[H])n3)c([H])c([H])c2C1([H])[H]

$$$$
37:0:0
     RDKit          3D

 91 99  0  0  1  0  0  0  0  0999 V2000
  -29.0400  -19.6760   20.1910 C   0  0  0  0  0  3  0  0  0  0  0  0
  -29.4340  -21.0120   20.5440 C   0  0  0  0  0  0  0  0  0  0  0  0
  -29.9440  -18.5720   20.3780 C   0  0  0  0  0  0  0  0  0  0  0  0
  -31.4540  -20.1130   21.1940 C   0  0  0  0  0  0  0  0  0  0  0  0
  -32.8490  -20.3690   21.7160 C   0  0  0  0  0  1  0  0  0  0  0  0
  -30.6640  -21.1850   21.0630 N   0  0  0  0  0  0  0  0  0  0  0  0
  -31.1620  -18.8490   20.8760 N   0  0  0  0  0  0  0  0  0  0  0  0
  -28.5010  -22.2880   20.4190 C   0  0  0  0  0  2  0  0  0  0  0  0
  -29.0430  -23.8080   20.5370 C   0  0  0  0  0  3  0  0  0  0  0  0
  -28.0060  -24.9680   20.1310 C   0  0  0  0  0  3  0  0  0  0  0  0
  -28.2500  -26.4330   20.3260 O   0  0  0  0  0  0  0  0  0  0  0  0
  -24.5640  -31.9510   23.2370 C   0  0  0  0  0  0  0  0  0  0  0  0
  -27.1440  -27.3120   20.2460 C   0  0  0  0  0  0  0  0  0  0  0  0
  -23.3480  -30.5320   21.6270 C   0  0  0  0  0  3  0  0  0  0  0  0
  -24.7870  -28.9530   20.2160 C   0  0  0  0  0  0  0  0  0  0  0  0
  -25.8910  -30.8330   21.4270 C   0  0  0  0  0  2  0  0  0  0  0  0
  -25.9630  -29.4410   20.8000 C   0  0  0  0  0  0  0  0  0  0  0  0
  -27.1450  -28.6350   20.8000 C   0  0  0  0  0  3  0  0  0  0  0  0
  -25.9440  -26.8920   19.6280 C   0  0  0  0  0  3  0  0  0  0  0  0
  -24.7810  -27.6850   19.6190 C   0  0  0  0  0  3  0  0  0  0  0  0
  -23.5520  -29.8310   20.2580 C   0  0  0  0  0  2  0  0  0  0  0  0
  -24.6200  -31.1260   22.1510 N   0  0  0  0  0  0  0  0  0  0  0  0
  -23.4850  -32.2430   23.7720 O   0  0  0  0  0  0  0  0  0  0  0  0
  -22.6810  -29.5370   22.6090 C   0  0  0  0  0  0  0  0  0  0  0  0
  -21.3560  -29.3540   22.4800 N   0  0  0  0  0  0  0  0  0  0  0  0
  -23.3560  -28.9300   23.4430 O   0  0  0  0  0  0  0  0  0  0  0  0
  -20.8680  -29.8940   21.7790 H   0  0  0  0  0  0  0  0  0  0  0  0
  -17.9810  -28.1390   22.9760 C   0  0  0  0  0  0  0  0  0  0  0  0
  -20.5350  -28.4320   23.2670 C   0  0  0  0  0  3  0  0  0  0  0  0
  -20.6560  -26.9840   22.7370 C   0  0  0  0  0  2  0  0  0  0  0  0
  -19.5690  -26.6230   21.7200 C   0  0  0  0  0  2  0  0  0  0  0  0
  -18.1770  -26.7720   22.3430 C   0  0  0  0  0  2  0  0  0  0  0  0
  -19.0880  -28.9240   23.3950 C   0  0  0  0  0  0  0  0  0  0  0  0
  -18.8510  -30.2010   23.9480 C   0  0  0  0  0  3  0  0  0  0  0  0
  -17.5400  -30.6960   24.0830 C   0  0  0  0  0  3  0  0  0  0  0  0
  -16.4480  -29.9090   23.6800 C   0  0  0  0  0  3  0  0  0  0  0  0
  -16.6690  -28.6330   23.1320 C   0  0  0  0  0  3  0  0  0  0  0  0
  -25.8510  -32.5880   23.8440 C   0  0  0  0  0  3  0  0  0  0  0  0
  -25.5420  -33.9880   24.1680 N   0  0  0  0  0  0  0  0  0  0  0  0
  -25.8660  -35.0370   23.4010 C   0  0  0  0  0  0  0  0  0  0  0  0
  -26.5220  -34.9290   22.3620 O   0  0  0  0  0  0  0  0  0  0  0  0
  -24.9450  -34.1440   24.9680 H   0  0  0  0  0  0  0  0  0  0  0  0
  -24.1250  -36.8250   23.0750 C   0  0  0  0  0  1  0  0  0  0  0  0
  -25.3860  -36.4290   23.8580 C   0  0  0  0  0  3  0  0  0  0  0  0
  -27.5400  -37.3240   24.6270 C   0  0  0  0  0  1  0  0  0  0  0  0
  -26.4130  -37.4830   23.7120 N   0  0  0  0  0  0  0  0  0  0  0  0
  -26.0100  -38.4040   23.8630 H   0  0  0  0  0  0  0  0  0  0  0  0
  -26.3790  -31.8230   25.1200 C   0  0  1  0  0  0  0  0  0  0  0  0
  -25.2950  -31.5890   26.1980 C   0  0  0  0  0  1  0  0  0  0  0  0
  -26.9550  -30.4420   24.7290 C   0  0  0  0  0  1  0  0  0  0  0  0
  -27.5380  -32.6190   25.7650 C   0  0  0  0  0  1  0  0  0  0  0  0
  -29.6820  -17.0850   19.8870 C   0  0  0  0  0  2  0  0  0  0  0  0
  -30.6570  -14.7200   20.0890 C   0  0  0  0  0  0  0  0  0  0  0  0
  -30.3060  -12.5240   18.9370 C   0  0  0  0  0  2  0  0  0  0  0  0
  -29.3020  -12.6790   17.7710 C   0  0  0  0  0  2  0  0  0  0  0  0
  -27.8500  -12.5360   18.2690 C   0  0  0  0  0  2  0  0  0  0  0  0
  -27.5770  -13.3600   19.5530 C   0  0  0  0  0  3  0  0  0  0  0  0
  -28.6900  -13.1580   20.6030 C   0  0  0  0  0  2  0  0  0  0  0  0
  -29.9700  -13.5270   19.9790 N   0  0  0  0  0  0  0  0  0  0  0  0
  -31.7430  -14.8510   19.5140 O   0  0  0  0  0  0  0  0  0  0  0  0
  -30.0470  -15.8240   20.6680 N   0  0  0  0  0  0  0  0  0  0  0  0
  -25.2330  -13.9680   20.4010 C   0  0  0  0  0  0  0  0  0  0  0  0
  -24.1760  -13.2010   20.8130 C   0  0  0  0  0  0  0  0  0  0  0  0
  -24.6210  -11.8450   20.7380 C   0  0  0  0  0  0  0  0  0  0  0  0
  -26.2520  -13.0810   20.1010 N   0  0  0  0  0  0  0  0  0  0  0  0
  -25.8950  -11.7970   20.3640 N   0  0  0  0  0  0  0  0  0  0  0  0
  -23.8900  -10.5880   20.9460 C   0  0  0  0  0  0  0  0  0  0  0  0
  -24.3500   -9.6050   21.8490 C   0  0  0  0  0  3  0  0  0  0  0  0
  -23.6190   -8.4130   22.0440 C   0  0  0  0  0  3  0  0  0  0  0  0
  -22.4120   -8.1970   21.3370 C   0  0  0  0  0  0  0  0  0  0  0  0
  -21.9710   -9.1690   20.4210 C   0  0  0  0  0  3  0  0  0  0  0  0
  -22.7030  -10.3520   20.2250 C   0  0  0  0  0  3  0  0  0  0  0  0
  -21.6480   -7.0610   21.4440 O   0  0  0  0  0  0  0  0  0  0  0  0
  -21.6270   -6.3110   22.5940 C   0  0  0  0  0  0  0  0  0  0  0  0
  -21.2700   -6.8680   23.8410 C   0  0  0  0  0  3  0  0  0  0  0  0
  -21.1970   -6.0470   24.9840 C   0  0  0  0  0  3  0  0  0  0  0  0
  -21.4720   -4.6700   24.8820 C   0  0  0  0  0  0  0  0  0  0  0  0
  -21.8260   -4.1130   23.6400 C   0  0  0  0  0  3  0  0  0  0  0  0
  -21.9000   -4.9310   22.5000 C   0  0  0  0  0  0  0  0  0  0  0  0
  -22.2200   -4.3860   21.3010 F   0  0  0  0  0  0  0  0  0  0  0  0
  -21.3950   -3.8800   25.9780 F   0  0  0  0  0  0  0  0  0  0  0  0
  -22.8000  -13.6880   21.1620 C   0  0  0  0  0  0  0  0  0  0  0  0
  -22.1120  -12.9870   22.0560 N   0  0  0  0  0  0  0  0  0  0  0  0
  -22.3460  -14.7240   20.6760 O   0  0  0  0  0  0  0  0  0  0  0  0
  -22.4950  -12.1470   22.4620 H   0  0  0  0  0  0  0  0  0  0  0  0
  -21.1910  -13.2930   22.3370 H   0  0  0  0  0  0  0  0  0  0  0  0
  -25.4070  -15.3380   20.2350 N   0  0  0  0  0  0  0  0  0  0  0  0
  -24.6670  -16.0050   20.4170 H   0  0  0  0  0  0  0  0  0  0  0  0
  -26.2430  -15.7650   19.8580 H   0  0  0  0  0  0  0  0  0  0  0  0
  -31.4760  -15.9420   22.7560 C   0  0  0  0  0  1  0  0  0  0  0  0
  -30.0640  -15.9770   22.1390 C   0  0  0  0  0  2  0  0  0  0  0  0
  1  3  1  0
  1  2  2  0
  2  6  1  0
  3  7  2  0
  4  5  1  0
  6  4  2  0
  7  4  1  0
  8  9  1  0
  8  2  1  0
 10 11  1  0
 10  9  2  0
 12 23  2  0
 13 11  1  0
 13 18  1  0
 14 22  1  0
 14 24  1  0
 15 21  1  0
 15 17  1  0
 16 22  1  0
 17 16  1  0
 18 17  2  0
 19 13  2  0
 20 19  1  0
 20 15  2  0
 21 14  1  0
 22 12  1  0
 24 26  2  0
 25 24  1  0
 27 25  1  0
 28 37  2  0
 28 33  1  0
 29 25  1  0
 29 33  1  0
 30 29  1  0
 31 32  1  0
 31 30  1  0
 32 28  1  0
 33 34  2  0
 34 35  1  0
 36 35  2  0
 37 36  1  0
 38 12  1  0
 38 39  1  0
 38 48  1  0
 39 42  1  0
 40 44  1  0
 40 39  1  0
 41 40  2  0
 44 43  1  0
 46 44  1  0
 46 47  1  0
 46 45  1  0
 48 51  1  1
 48 49  1  0
 50 48  1  0
 52  3  1  0
 52 61  1  0
 53 61  1  0
 54 59  1  0
 55 56  1  0
 55 54  1  0
 57 56  1  0
 57 65  1  0
 57 58  1  0
 59 53  1  0
 59 58  1  0
 60 53  2  0
 61 91  1  0
 62 63  2  0
 63 82  1  0
 64 63  1  0
 64 67  1  0
 65 66  1  0
 65 62  1  0
 66 64  2  0
 67 68  1  0
 68 69  2  0
 70 73  1  0
 70 69  1  0
 71 70  2  0
 72 71  1  0
 72 67  2  0
 73 74  1  0
 74 75  1  0
 75 76  2  0
 77 76  1  0
 77 81  1  0
 78 77  2  0
 79 74  2  0
 79 78  1  0
 80 79  1  0
 82 83  1  0
 83 86  1  0
 83 85  1  0
 84 82  2  0
 87 62  1  0
 87 88  1  0
 89 87  1  0
 91 90  1  0
M  ISO  4  10 101  11 101  53 100  61 100
M  END
>  <TORSDO>  (38) 
F 21

>  <SCORE>  (38) 
-12.178

>  <name>  (38) 
37

>  <ligand_id>  (38) 
37

>  <original_smiles>  (38) 
[H]c1c(C([H])([H])N(C(=O)N2C([H])([H])C([H])([H])C([H])([H])C([H])(n3nc(-c4c([H])c([H])c(Oc5c([H])c([H])c(F)c([H])c5F)c([H])c4[H])c(C(=O)N([H])[H])c3N([H])[H])C2([H])[H])C([H])([H])C([H])([H])[H])nc(C([H])([H])[H])nc1C([H])([H])C([H])([H])C([H])([H])Oc1c([H])c([H])c2c(c1[H])C([H])([H])N(C(=O)C([H])(N([H])C(=O)C([H])(N([H])C([H])([H])[H])C([H])([H])[H])C(C([H])([H])[H])(C([H])([H])[H])C([H])([H])[H])C([H])(C(=O)N([H])C1([H])c3c([H])c([H])c([H])c([H])c3C([H])([H])C([H])([H])C1([H])[H])C2([H])[H]

>  <smiles>  (38) 
[H]c1c(C([H])([H])N(C(=O)N2C([H])([H])C([H])([H])C([H])([H])C([H])(n3nc(-c4c([H])c([H])c(Oc5c([H])c([H])c(F)c([H])c5F)c([H])c4[H])c(C(=O)N([H])[H])c3N([H])[H])C2([H])[H])C([H])([H])C([H])([H])[H])nc(C([H])([H])[H])nc1C([H])([H])C([H])([H])C([H])([H])Oc1c([H])c([H])c2c(c1[H])C([H])([H])N(C(=O)C([H])(N([H])C(=O)C([H])(N([H])C([H])([H])[H])C([H])([H])[H])C(C([H])([H])[H])(C([H])([H])[H])C([H])([H])[H])C([H])(C(=O)N([H])C1([H])c3c([H])c([H])c([H])c([H])c3C([H])([H])C([H])([H])C1([H])[H])C2([H])[H]

$$$$
38:0:0
     RDKit          3D

 89 97  0  0  1  0  0  0  0  0999 V2000
  -26.4250  -21.2260   18.7760 C   0  0  0  0  0  3  0  0  0  0  0  0
  -28.0890  -22.3290   19.4570 C   0  0  0  0  0  0  0  0  0  0  0  0
  -26.8500  -22.4970   18.9760 N   0  0  0  0  0  0  0  0  0  0  0  0
  -27.3060  -20.2870   19.0790 N   0  0  0  0  0  0  0  0  0  0  0  0
  -28.4090  -20.9650   19.5050 N   0  0  0  0  0  0  0  0  0  0  0  0
  -28.8630  -23.6440   19.8340 C   0  0  0  0  0  2  0  0  0  0  0  0
  -27.9960  -25.0030   19.6420 C   0  0  0  0  0  2  0  0  0  0  0  0
  -28.2970  -26.4180   20.0560 O   0  0  0  0  0  0  0  0  0  0  0  0
  -24.5840  -31.8310   23.2100 C   0  0  0  0  0  0  0  0  0  0  0  0
  -27.2100  -27.3320   20.0250 C   0  0  0  0  0  0  0  0  0  0  0  0
  -23.3950  -30.4860   21.5230 C   0  0  0  0  0  3  0  0  0  0  0  0
  -24.8560  -28.9880   20.0570 C   0  0  0  0  0  0  0  0  0  0  0  0
  -25.9430  -30.7930   21.3760 C   0  0  0  0  0  2  0  0  0  0  0  0
  -26.0260  -29.4350   20.6850 C   0  0  0  0  0  0  0  0  0  0  0  0
  -27.2050  -28.6180   20.6650 C   0  0  0  0  0  3  0  0  0  0  0  0
  -26.0110  -26.9700   19.3590 C   0  0  0  0  0  3  0  0  0  0  0  0
  -24.8550  -27.7640   19.3840 C   0  0  0  0  0  3  0  0  0  0  0  0
  -23.6210  -29.8640   20.1220 C   0  0  0  0  0  2  0  0  0  0  0  0
  -24.6590  -31.0510   22.0930 N   0  0  0  0  0  0  0  0  0  0  0  0
  -23.4940  -32.0960   23.7400 O   0  0  0  0  0  0  0  0  0  0  0  0
  -22.7230  -29.4360   22.4420 C   0  0  0  0  0  0  0  0  0  0  0  0
  -21.3990  -29.2580   22.2910 N   0  0  0  0  0  0  0  0  0  0  0  0
  -23.3950  -28.7910   23.2520 O   0  0  0  0  0  0  0  0  0  0  0  0
  -20.9170  -29.8370   21.6160 H   0  0  0  0  0  0  0  0  0  0  0  0
  -18.0190  -28.0380   22.7140 C   0  0  0  0  0  0  0  0  0  0  0  0
  -20.5730  -28.2980   23.0270 C   0  0  0  0  0  3  0  0  0  0  0  0
  -20.6880  -26.8810   22.4180 C   0  0  0  0  0  2  0  0  0  0  0  0
  -19.6010  -26.5780   21.3820 C   0  0  0  0  0  2  0  0  0  0  0  0
  -18.2110  -26.7040   22.0080 C   0  0  0  0  0  2  0  0  0  0  0  0
  -19.1290  -28.7920   23.1780 C   0  0  0  0  0  0  0  0  0  0  0  0
  -18.8970  -30.0410   23.7960 C   0  0  0  0  0  3  0  0  0  0  0  0
  -17.5870  -30.5320   23.9560 C   0  0  0  0  0  3  0  0  0  0  0  0
  -16.4920  -29.7730   23.5080 C   0  0  0  0  0  3  0  0  0  0  0  0
  -16.7090  -28.5290   22.8900 C   0  0  0  0  0  3  0  0  0  0  0  0
  -25.8600  -32.4480   23.8620 C   0  0  0  0  0  3  0  0  0  0  0  0
  -25.5600  -33.8490   24.1840 N   0  0  0  0  0  0  0  0  0  0  0  0
  -25.8990  -34.8980   23.4230 C   0  0  0  0  0  0  0  0  0  0  0  0
  -26.5710  -34.7860   22.3930 O   0  0  0  0  0  0  0  0  0  0  0  0
  -24.9680  -34.0100   24.9860 H   0  0  0  0  0  0  0  0  0  0  0  0
  -24.1730  -36.6950   23.0740 C   0  0  0  0  0  1  0  0  0  0  0  0
  -25.4210  -36.2920   23.8750 C   0  0  0  0  0  3  0  0  0  0  0  0
  -27.5650  -37.1770   24.6790 C   0  0  0  0  0  1  0  0  0  0  0  0
  -26.4530  -37.3410   23.7460 N   0  0  0  0  0  0  0  0  0  0  0  0
  -26.0520  -38.2630   23.8910 H   0  0  0  0  0  0  0  0  0  0  0  0
  -26.3310  -31.6680   25.1490 C   0  0  1  0  0  0  0  0  0  0  0  0
  -25.2100  -31.4510   26.1920 C   0  0  0  0  0  1  0  0  0  0  0  0
  -26.9020  -30.2810   24.7730 C   0  0  0  0  0  1  0  0  0  0  0  0
  -27.4750  -32.4460   25.8410 C   0  0  0  0  0  1  0  0  0  0  0  0
  -29.5780  -20.0580   19.8480 C   0  0  0  0  0  3  0  0  0  0  0  0
  -29.2990  -18.4500   19.8370 C   0  0  0  0  0  3  0  0  0  0  0  0
  -30.4740  -17.3600   19.9940 C   0  0  0  0  0  2  0  0  0  0  0  0
  -30.8020  -14.7880   20.0140 C   0  0  0  0  0  0  0  0  0  0  0  0
  -30.5230  -12.5490   18.9240 C   0  0  0  0  0  2  0  0  0  0  0  0
  -29.5060  -12.6400   17.7650 C   0  0  0  0  0  2  0  0  0  0  0  0
  -28.0620  -12.4580   18.2760 C   0  0  0  0  0  2  0  0  0  0  0  0
  -27.7700  -13.3160   19.5350 C   0  0  0  0  0  3  0  0  0  0  0  0
  -28.8910  -13.1510   20.5770 C   0  0  0  0  0  2  0  0  0  0  0  0
  -30.1510  -13.5690   19.9370 N   0  0  0  0  0  0  0  0  0  0  0  0
  -31.9140  -14.9030   19.4850 O   0  0  0  0  0  0  0  0  0  0  0  0
  -29.6100  -15.9870   21.8150 C   0  0  0  0  0  1  0  0  0  0  0  0
  -30.1220  -15.9360   20.4360 N   0  0  0  0  0  0  0  0  0  0  0  0
  -25.4350  -13.9030   20.4270 C   0  0  0  0  0  0  0  0  0  0  0  0
  -24.3890  -13.1230   20.8380 C   0  0  0  0  0  0  0  0  0  0  0  0
  -24.8380  -11.7710   20.7350 C   0  0  0  0  0  0  0  0  0  0  0  0
  -26.4550  -13.0260   20.0960 N   0  0  0  0  0  0  0  0  0  0  0  0
  -26.1060  -11.7370   20.3420 N   0  0  0  0  0  0  0  0  0  0  0  0
  -24.1180  -10.5080   20.9310 C   0  0  0  0  0  0  0  0  0  0  0  0
  -24.5600   -9.5420   21.8610 C   0  0  0  0  0  3  0  0  0  0  0  0
  -23.8410   -8.3410   22.0440 C   0  0  0  0  0  3  0  0  0  0  0  0
  -22.6620   -8.1000   21.2980 C   0  0  0  0  0  0  0  0  0  0  0  0
  -22.2380   -9.0550   20.3570 C   0  0  0  0  0  3  0  0  0  0  0  0
  -22.9590  -10.2470   20.1720 C   0  0  0  0  0  3  0  0  0  0  0  0
  -21.9110   -6.9530   21.3930 O   0  0  0  0  0  0  0  0  0  0  0  0
  -21.8090   -6.2540   22.5700 C   0  0  0  0  0  0  0  0  0  0  0  0
  -21.3160   -6.8510   23.7510 C   0  0  0  0  0  3  0  0  0  0  0  0
  -21.1640   -6.0770   24.9190 C   0  0  0  0  0  3  0  0  0  0  0  0
  -21.4920   -4.7080   24.9060 C   0  0  0  0  0  0  0  0  0  0  0  0
  -21.9780   -4.1120   23.7280 C   0  0  0  0  0  3  0  0  0  0  0  0
  -22.1320   -4.8830   22.5630 C   0  0  0  0  0  0  0  0  0  0  0  0
  -22.5810   -4.2970   21.4260 F   0  0  0  0  0  0  0  0  0  0  0  0
  -21.3380   -3.9630   26.0240 F   0  0  0  0  0  0  0  0  0  0  0  0
  -23.0150  -13.5990   21.2140 C   0  0  0  0  0  0  0  0  0  0  0  0
  -22.3440  -12.8930   22.1180 N   0  0  0  0  0  0  0  0  0  0  0  0
  -22.5460  -14.6330   20.7400 O   0  0  0  0  0  0  0  0  0  0  0  0
  -22.7350  -12.0570   22.5270 H   0  0  0  0  0  0  0  0  0  0  0  0
  -21.4270  -13.1990   22.4090 H   0  0  0  0  0  0  0  0  0  0  0  0
  -25.5990  -15.2780   20.2840 N   0  0  0  0  0  0  0  0  0  0  0  0
  -24.8490  -15.9360   20.4690 H   0  0  0  0  0  0  0  0  0  0  0  0
  -26.4350  -15.7230   19.9280 H   0  0  0  0  0  0  0  0  0  0  0  0
  1  3  1  0
  1  4  2  0
  2  5  1  0
  2  6  1  0
  3  2  2  0
  4  5  1  0
  5 49  1  0
  7  6  1  0
  7  8  1  0
  9 20  2  0
 10  8  1  0
 10 15  1  0
 11 19  1  0
 11 21  1  0
 12 18  1  0
 12 14  1  0
 13 19  1  0
 14 13  1  0
 15 14  2  0
 16 17  1  0
 16 10  2  0
 17 12  2  0
 18 11  1  0
 19  9  1  0
 21 23  2  0
 22 21  1  0
 24 22  1  0
 25 34  2  0
 25 30  1  0
 26 22  1  0
 26 30  1  0
 27 26  1  0
 28 29  1  0
 28 27  1  0
 29 25  1  0
 30 31  2  0
 31 32  1  0
 33 32  2  0
 34 33  1  0
 35  9  1  0
 35 36  1  0
 35 45  1  0
 36 39  1  0
 37 41  1  0
 37 36  1  0
 38 37  2  0
 41 40  1  0
 43 41  1  0
 43 44  1  0
 43 42  1  0
 45 48  1  1
 45 46  1  0
 47 45  1  0
 50 49  2  0
 50 51  1  0
 51 61  1  0
 52 61  1  0
 53 58  1  0
 54 55  1  0
 54 53  1  0
 56 55  1  0
 56 65  1  0
 56 57  1  0
 58 52  1  0
 58 57  1  0
 59 52  2  0
 61 60  1  0
 62 63  2  0
 63 82  1  0
 64 63  1  0
 64 67  1  0
 65 66  1  0
 65 62  1  0
 66 64  2  0
 67 68  1  0
 68 69  2  0
 70 73  1  0
 70 69  1  0
 71 70  2  0
 72 71  1  0
 72 67  2  0
 73 74  1  0
 74 75  1  0
 75 76  2  0
 77 76  1  0
 77 81  1  0
 78 77  2  0
 79 74  2  0
 79 78  1  0
 80 79  1  0
 82 83  1  0
 83 86  1  0
 83 85  1  0
 84 82  2  0
 87 62  1  0
 87 88  1  0
 89 87  1  0
M  ISO  4   7 101   8 101  52 100  61 100
M  END
>  <TORSDO>  (39) 
F 21

>  <SCORE>  (39) 
-12.785

>  <name>  (39) 
38

>  <ligand_id>  (39) 
38

>  <original_smiles>  (39) 
[H]c1nc(C([H])([H])C([H])([H])Oc2c([H])c([H])c3c(c2[H])C([H])([H])N(C(=O)C([H])(N([H])C(=O)C([H])(N([H])C([H])([H])[H])C([H])([H])[H])C(C([H])([H])[H])(C([H])([H])[H])C([H])([H])[H])C([H])(C(=O)N([H])C2([H])c4c([H])c([H])c([H])c([H])c4C([H])([H])C([H])([H])C2([H])[H])C3([H])[H])n(C([H])([H])C([H])([H])C([H])([H])N(C(=O)N2C([H])([H])C([H])([H])C([H])([H])C([H])(n3nc(-c4c([H])c([H])c(Oc5c([H])c([H])c(F)c([H])c5F)c([H])c4[H])c(C(=O)N([H])[H])c3N([H])[H])C2([H])[H])C([H])([H])[H])n1

>  <smiles>  (39) 
[H]c1nc(C([H])([H])C([H])([H])Oc2c([H])c([H])c3c(c2[H])C([H])([H])N(C(=O)C([H])(N([H])C(=O)C([H])(N([H])C([H])([H])[H])C([H])([H])[H])C(C([H])([H])[H])(C([H])([H])[H])C([H])([H])[H])C([H])(C(=O)N([H])C2([H])c4c([H])c([H])c([H])c([H])c4C([H])([H])C([H])([H])C2([H])[H])C3([H])[H])n(C([H])([H])C([H])([H])C([H])([H])N(C(=O)N2C([H])([H])C([H])([H])C([H])([H])C([H])(n3nc(-c4c([H])c([H])c(Oc5c([H])c([H])c(F)c([H])c5F)c([H])c4[H])c(C(=O)N([H])[H])c3N([H])[H])C2([H])[H])C([H])([H])[H])n1

$$$$
39:0:0
     RDKit          3D

 90 98  0  0  1  0  0  0  0  0999 V2000
  -27.7740  -21.5180   20.0840 C   0  0  0  0  0  3  0  0  0  0  0  0
  -29.8440  -22.2500   19.5860 C   0  0  0  0  0  3  0  0  0  0  0  0
  -28.5190  -22.7560   19.8790 C   0  0  0  0  0  0  0  0  0  0  0  0
  -29.4940  -19.7810   19.7730 C   0  0  0  0  0  0  0  0  0  0  0  0
  -28.2080  -20.1670   20.0210 N   0  0  0  0  0  0  0  0  0  0  0  0
  -30.2720  -20.8910   19.5400 N   0  0  0  0  0  0  0  0  0  0  0  0
  -29.8130  -18.0920   17.8080 C   0  0  0  0  0  1  0  0  0  0  0  0
  -30.0420  -18.1800   19.3260 C   0  0  0  0  0  3  0  0  0  0  0  0
  -30.5260  -15.3420   19.5800 C   0  0  0  0  0  0  0  0  0  0  0  0
  -30.3490  -12.9660   18.5520 C   0  0  0  0  0  2  0  0  0  0  0  0
  -29.2630  -12.8610   17.4500 C   0  0  0  0  0  2  0  0  0  0  0  0
  -27.8750  -12.5820   18.0570 C   0  0  0  0  0  2  0  0  0  0  0  0
  -27.6120  -13.4570   19.3090 C   0  0  0  0  0  3  0  0  0  0  0  0
  -28.8120  -13.4340   20.2800 C   0  0  0  0  0  2  0  0  0  0  0  0
  -29.9410  -14.0360   19.5410 N   0  0  0  0  0  0  0  0  0  0  0  0
  -31.6690  -15.3450   19.0920 O   0  0  0  0  0  0  0  0  0  0  0  0
  -29.8490  -16.6370   19.8970 N   0  0  0  0  0  0  0  0  0  0  0  0
  -25.3840  -14.0120   20.4160 C   0  0  0  0  0  0  0  0  0  0  0  0
  -24.3500  -13.2330   20.8530 C   0  0  0  0  0  0  0  0  0  0  0  0
  -24.7540  -11.8790   20.6370 C   0  0  0  0  0  0  0  0  0  0  0  0
  -26.3490  -13.1350   19.9580 N   0  0  0  0  0  0  0  0  0  0  0  0
  -25.9890  -11.8390   20.1510 N   0  0  0  0  0  0  0  0  0  0  0  0
  -24.0090  -10.6250   20.8090 C   0  0  0  0  0  0  0  0  0  0  0  0
  -24.4780   -9.5960   21.6520 C   0  0  0  0  0  3  0  0  0  0  0  0
  -23.7300   -8.4090   21.8180 C   0  0  0  0  0  3  0  0  0  0  0  0
  -22.5000   -8.2440   21.1400 C   0  0  0  0  0  0  0  0  0  0  0  0
  -22.0490   -9.2640   20.2810 C   0  0  0  0  0  3  0  0  0  0  0  0
  -22.7960  -10.4400   20.1140 C   0  0  0  0  0  3  0  0  0  0  0  0
  -21.7220   -7.1160   21.2190 O   0  0  0  0  0  0  0  0  0  0  0  0
  -21.6750   -6.3500   22.3570 C   0  0  0  0  0  0  0  0  0  0  0  0
  -21.3020   -6.8920   23.6070 C   0  0  0  0  0  3  0  0  0  0  0  0
  -21.2020   -6.0550   24.7350 C   0  0  0  0  0  3  0  0  0  0  0  0
  -21.4640   -4.6770   24.6170 C   0  0  0  0  0  0  0  0  0  0  0  0
  -21.8300   -4.1350   23.3730 C   0  0  0  0  0  3  0  0  0  0  0  0
  -21.9320   -4.9680   22.2450 C   0  0  0  0  0  0  0  0  0  0  0  0
  -22.2640   -4.4360   21.0430 F   0  0  0  0  0  0  0  0  0  0  0  0
  -21.3620   -3.8710   25.6990 F   0  0  0  0  0  0  0  0  0  0  0  0
  -23.0210  -13.7200   21.3540 C   0  0  0  0  0  0  0  0  0  0  0  0
  -22.4010  -12.9800   22.2660 N   0  0  0  0  0  0  0  0  0  0  0  0
  -22.5470  -14.7900   20.9700 O   0  0  0  0  0  0  0  0  0  0  0  0
  -22.8000  -12.1140   22.5960 H   0  0  0  0  0  0  0  0  0  0  0  0
  -21.5130  -13.2840   22.6400 H   0  0  0  0  0  0  0  0  0  0  0  0
  -25.5780  -15.3880   20.3420 N   0  0  0  0  0  0  0  0  0  0  0  0
  -24.8590  -16.0520   20.6100 H   0  0  0  0  0  0  0  0  0  0  0  0
  -26.3950  -15.8290   19.9440 H   0  0  0  0  0  0  0  0  0  0  0  0
  -29.0640  -16.7500   21.1330 C   0  0  0  0  0  2  0  0  0  0  0  0
  -31.1830  -16.3350   22.6250 C   0  0  0  0  0  1  0  0  0  0  0  0
  -29.9120  -17.1600   22.3630 C   0  0  0  0  0  2  0  0  0  0  0  0
  -27.7690  -24.3340   19.7560 C   0  0  0  0  0  2  0  0  0  0  0  0
  -28.1170  -25.8940   20.1050 O   0  0  0  0  0  0  0  0  0  0  0  0
  -24.6050  -31.8560   23.1250 C   0  0  0  0  0  0  0  0  0  0  0  0
  -27.1260  -27.0060   20.0450 C   0  0  0  0  0  0  0  0  0  0  0  0
  -23.3900  -30.4550   21.5060 C   0  0  0  0  0  3  0  0  0  0  0  0
  -24.8200  -28.8710   20.0520 C   0  0  0  0  0  0  0  0  0  0  0  0
  -25.9540  -30.6820   21.3190 C   0  0  0  0  0  2  0  0  0  0  0  0
  -26.0170  -29.2760   20.6580 C   0  0  0  0  0  0  0  0  0  0  0  0
  -27.1620  -28.3630   20.6350 C   0  0  0  0  0  3  0  0  0  0  0  0
  -25.8980  -26.7550   19.3920 C   0  0  0  0  0  3  0  0  0  0  0  0
  -24.7840  -27.6300   19.4020 C   0  0  0  0  0  3  0  0  0  0  0  0
  -23.5970  -29.7820   20.1220 C   0  0  0  0  0  2  0  0  0  0  0  0
  -24.6710  -31.0250   22.0350 N   0  0  0  0  0  0  0  0  0  0  0  0
  -23.5240  -32.1410   23.6640 O   0  0  0  0  0  0  0  0  0  0  0  0
  -22.7200  -29.4530   22.4810 C   0  0  0  0  0  0  0  0  0  0  0  0
  -21.3890  -29.2790   22.3790 N   0  0  0  0  0  0  0  0  0  0  0  0
  -23.4040  -28.8300   23.2970 O   0  0  0  0  0  0  0  0  0  0  0  0
  -20.8910  -29.8320   21.6960 H   0  0  0  0  0  0  0  0  0  0  0  0
  -18.0220  -28.0490   22.9340 C   0  0  0  0  0  0  0  0  0  0  0  0
  -20.5840  -28.3370   23.1640 C   0  0  0  0  0  3  0  0  0  0  0  0
  -20.6890  -26.9040   22.5920 C   0  0  0  0  0  2  0  0  0  0  0  0
  -19.5780  -26.5690   21.5930 C   0  0  0  0  0  2  0  0  0  0  0  0
  -18.2030  -26.7040   22.2520 C   0  0  0  0  0  2  0  0  0  0  0  0
  -19.1400  -28.8240   23.3450 C   0  0  0  0  0  0  0  0  0  0  0  0
  -18.9150  -30.0830   23.9440 C   0  0  0  0  0  3  0  0  0  0  0  0
  -17.6060  -30.5660   24.1340 C   0  0  0  0  0  3  0  0  0  0  0  0
  -16.5040  -29.7900   23.7360 C   0  0  0  0  0  3  0  0  0  0  0  0
  -16.7130  -28.5320   23.1400 C   0  0  0  0  0  3  0  0  0  0  0  0
  -25.8850  -32.5030   23.7370 C   0  0  0  0  0  3  0  0  0  0  0  0
  -26.4300  -31.7270   25.0000 C   0  0  1  0  0  0  0  0  0  0  0  0
  -25.3550  -31.4700   26.0820 C   0  0  0  0  0  1  0  0  0  0  0  0
  -27.0240  -30.3590   24.5960 C   0  0  0  0  0  1  0  0  0  0  0  0
  -27.5830  -32.5270   25.6510 C   0  0  0  0  0  1  0  0  0  0  0  0
  -25.5630  -33.8940   24.1000 N   0  0  0  0  0  0  0  0  0  0  0  0
  -25.8520  -34.9670   23.3530 C   0  0  0  0  0  0  0  0  0  0  0  0
  -26.4830  -34.8940   22.2970 O   0  0  0  0  0  0  0  0  0  0  0  0
  -24.9970  -34.0270   24.9260 H   0  0  0  0  0  0  0  0  0  0  0  0
  -24.0860  -36.7450   23.1120 C   0  0  0  0  0  1  0  0  0  0  0  0
  -25.3660  -36.3400   23.8590 C   0  0  0  0  0  3  0  0  0  0  0  0
  -27.5220  -37.2410   24.6180 C   0  0  0  0  0  1  0  0  0  0  0  0
  -26.3770  -37.4120   23.7280 N   0  0  0  0  0  0  0  0  0  0  0  0
  -25.9600  -38.3200   23.9210 H   0  0  0  0  0  0  0  0  0  0  0  0
  2  3  1  0
  3  1  2  0
  4  5  2  0
  5  1  1  0
  6  2  2  0
  6  4  1  0
  8  7  1  0
  8  4  1  0
  8 17  1  0
  9 17  1  0
 10 15  1  0
 11 12  1  0
 11 10  1  0
 13 12  1  0
 13 21  1  0
 13 14  1  0
 15  9  1  0
 15 14  1  0
 16  9  2  0
 17 46  1  0
 18 19  2  0
 19 38  1  0
 20 23  1  0
 20 19  1  0
 21 22  1  0
 21 18  1  0
 22 20  2  0
 23 24  1  0
 24 25  2  0
 26 29  1  0
 26 25  1  0
 27 26  2  0
 28 27  1  0
 28 23  2  0
 29 30  1  0
 30 31  1  0
 31 32  2  0
 33 32  1  0
 33 37  1  0
 34 33  2  0
 35 30  2  0
 35 34  1  0
 36 35  1  0
 38 39  1  0
 39 41  1  0
 39 42  1  0
 40 38  2  0
 43 18  1  0
 43 44  1  0
 45 43  1  0
 46 48  1  0
 48 47  1  0
 49  3  1  0
 49 50  1  0
 51 62  2  0
 52 50  1  0
 52 57  1  0
 53 61  1  0
 53 63  1  0
 54 60  1  0
 54 56  1  0
 55 61  1  0
 56 55  1  0
 57 56  2  0
 58 59  1  0
 58 52  2  0
 59 54  2  0
 60 53  1  0
 61 51  1  0
 63 65  2  0
 64 63  1  0
 66 64  1  0
 67 76  2  0
 67 72  1  0
 68 64  1  0
 68 72  1  0
 69 68  1  0
 70 71  1  0
 70 69  1  0
 71 67  1  0
 72 73  2  0
 73 74  1  0
 75 74  2  0
 76 75  1  0
 77 51  1  0
 77 82  1  0
 77 78  1  0
 78 81  1  1
 78 79  1  0
 80 78  1  0
 82 85  1  0
 83 87  1  0
 83 82  1  0
 84 83  2  0
 87 86  1  0
 89 87  1  0
 89 90  1  0
 89 88  1  0
M  ISO  4   9 100  17 100  49 101  50 101
M  END
>  <TORSDO>  (40) 
F 20

>  <SCORE>  (40) 
-12.839

>  <name>  (40) 
39

>  <ligand_id>  (40) 
39

>  <original_smiles>  (40) 
[H]c1nc(C([H])(N(C(=O)N2C([H])([H])C([H])([H])C([H])([H])C([H])(n3nc(-c4c([H])c([H])c(Oc5c([H])c([H])c(F)c([H])c5F)c([H])c4[H])c(C(=O)N([H])[H])c3N([H])[H])C2([H])[H])C([H])([H])C([H])([H])C([H])([H])[H])C([H])([H])[H])nc([H])c1C([H])([H])Oc1c([H])c([H])c2c(c1[H])C([H])([H])N(C(=O)C([H])(N([H])C(=O)C([H])(N([H])C([H])([H])[H])C([H])([H])[H])C(C([H])([H])[H])(C([H])([H])[H])C([H])([H])[H])C([H])(C(=O)N([H])C1([H])c3c([H])c([H])c([H])c([H])c3C([H])([H])C([H])([H])C1([H])[H])C2([H])[H]

>  <smiles>  (40) 
[H]c1nc(C([H])(N(C(=O)N2C([H])([H])C([H])([H])C([H])([H])C([H])(n3nc(-c4c([H])c([H])c(Oc5c([H])c([H])c(F)c([H])c5F)c([H])c4[H])c(C(=O)N([H])[H])c3N([H])[H])C2([H])[H])C([H])([H])C([H])([H])C([H])([H])[H])C([H])([H])[H])nc([H])c1C([H])([H])Oc1c([H])c([H])c2c(c1[H])C([H])([H])N(C(=O)C([H])(N([H])C(=O)C([H])(N([H])C([H])([H])[H])C([H])([H])[H])C(C([H])([H])[H])(C([H])([H])[H])C([H])([H])[H])C([H])(C(=O)N([H])C1([H])c3c([H])c([H])c([H])c([H])c3C([H])([H])C([H])([H])C1([H])[H])C2([H])[H]

$$$$
40:0:0
     RDKit          3D

 89 97  0  0  1  0  0  0  0  0999 V2000
  -30.1230  -20.5370   20.2550 C   0  0  0  0  0  3  0  0  0  0  0  0
  -29.0610  -21.3800   20.0120 C   0  0  0  0  0  0  0  0  0  0  0  0
  -27.9060  -20.6340   20.2660 N   0  0  0  0  0  0  0  0  0  0  0  0
  -28.2200  -19.4250   20.6570 N   0  0  0  0  0  0  0  0  0  0  0  0
  -29.5720  -19.3090   20.6250 N   0  0  0  0  0  0  0  0  0  0  0  0
  -29.0350  -22.7890   19.3910 C   0  0  0  0  0  2  0  0  0  0  0  0
  -28.5680  -24.0310   20.2370 C   0  0  0  0  0  2  0  0  0  0  0  0
  -28.6860  -25.3950   19.4540 C   0  0  0  0  0  2  0  0  0  0  0  0
  -28.4830  -26.6450   20.1780 O   0  0  0  0  0  0  0  0  0  0  0  0
  -24.5570  -31.8360   23.1430 C   0  0  0  0  0  0  0  0  0  0  0  0
  -27.2990  -27.3770   20.1060 C   0  0  0  0  0  0  0  0  0  0  0  0
  -23.3990  -30.4300   21.4710 C   0  0  0  0  0  3  0  0  0  0  0  0
  -24.8960  -28.9090   20.0650 C   0  0  0  0  0  0  0  0  0  0  0  0
  -25.9300  -30.8000   21.3320 C   0  0  0  0  0  2  0  0  0  0  0  0
  -26.0390  -29.4280   20.6850 C   0  0  0  0  0  0  0  0  0  0  0  0
  -27.2380  -28.6690   20.6990 C   0  0  0  0  0  3  0  0  0  0  0  0
  -26.1270  -26.8860   19.4840 C   0  0  0  0  0  3  0  0  0  0  0  0
  -24.9390  -27.6420   19.4610 C   0  0  0  0  0  3  0  0  0  0  0  0
  -23.6440  -29.7600   20.0930 C   0  0  0  0  0  2  0  0  0  0  0  0
  -24.6450  -31.0380   22.0400 N   0  0  0  0  0  0  0  0  0  0  0  0
  -23.4600  -32.0980   23.6600 O   0  0  0  0  0  0  0  0  0  0  0  0
  -22.7340  -29.4000   22.4130 C   0  0  0  0  0  0  0  0  0  0  0  0
  -21.4130  -29.2110   22.2600 N   0  0  0  0  0  0  0  0  0  0  0  0
  -23.4060  -28.7750   23.2380 O   0  0  0  0  0  0  0  0  0  0  0  0
  -20.9330  -29.7700   21.5680 H   0  0  0  0  0  0  0  0  0  0  0  0
  -18.0330  -28.0120   22.7060 C   0  0  0  0  0  0  0  0  0  0  0  0
  -20.5880  -28.2630   23.0070 C   0  0  0  0  0  3  0  0  0  0  0  0
  -20.6960  -26.8410   22.4080 C   0  0  0  0  0  2  0  0  0  0  0  0
  -19.6030  -26.5350   21.3800 C   0  0  0  0  0  2  0  0  0  0  0  0
  -18.2150  -26.6720   22.0120 C   0  0  0  0  0  2  0  0  0  0  0  0
  -19.1480  -28.7650   23.1600 C   0  0  0  0  0  0  0  0  0  0  0  0
  -18.9230  -30.0200   23.7660 C   0  0  0  0  0  3  0  0  0  0  0  0
  -17.6180  -30.5200   23.9270 C   0  0  0  0  0  3  0  0  0  0  0  0
  -16.5170  -29.7620   23.4910 C   0  0  0  0  0  3  0  0  0  0  0  0
  -16.7260  -28.5100   22.8860 C   0  0  0  0  0  3  0  0  0  0  0  0
  -25.8220  -32.4780   23.7950 C   0  0  0  0  0  3  0  0  0  0  0  0
  -25.4940  -33.8700   24.1280 N   0  0  0  0  0  0  0  0  0  0  0  0
  -25.8280  -34.9300   23.3790 C   0  0  0  0  0  0  0  0  0  0  0  0
  -26.5180  -34.8380   22.3600 O   0  0  0  0  0  0  0  0  0  0  0  0
  -24.8910  -34.0160   24.9240 H   0  0  0  0  0  0  0  0  0  0  0  0
  -24.0980  -36.7100   22.9870 C   0  0  0  0  0  1  0  0  0  0  0  0
  -25.3160  -36.3100   23.8330 C   0  0  0  0  0  3  0  0  0  0  0  0
  -27.4120  -37.2090   24.7450 C   0  0  0  0  0  1  0  0  0  0  0  0
  -26.3440  -37.3720   23.7630 N   0  0  0  0  0  0  0  0  0  0  0  0
  -25.9250  -38.2880   23.8980 H   0  0  0  0  0  0  0  0  0  0  0  0
  -26.3200  -31.7040   25.0770 C   0  0  1  0  0  0  0  0  0  0  0  0
  -25.2060  -31.4480   26.1190 C   0  0  0  0  0  1  0  0  0  0  0  0
  -26.9280  -30.3370   24.6880 C   0  0  0  0  0  1  0  0  0  0  0  0
  -27.4420  -32.5090   25.7740 C   0  0  0  0  0  1  0  0  0  0  0  0
  -30.2680  -18.0760   21.0910 C   0  0  0  0  0  2  0  0  0  0  0  0
  -29.5330  -16.6790   20.9920 C   0  0  0  0  0  2  0  0  0  0  0  0
  -30.8100  -14.6320   20.1380 C   0  0  0  0  0  0  0  0  0  0  0  0
  -30.5110  -12.4090   19.1030 C   0  0  0  0  0  2  0  0  0  0  0  0
  -29.5410  -12.5420   17.9100 C   0  0  0  0  0  2  0  0  0  0  0  0
  -28.0750  -12.4280   18.3760 C   0  0  0  0  0  2  0  0  0  0  0  0
  -27.7600  -13.2990   19.6220 C   0  0  0  0  0  3  0  0  0  0  0  0
  -28.8470  -13.1520   20.7110 C   0  0  0  0  0  2  0  0  0  0  0  0
  -30.1420  -13.4420   20.0860 N   0  0  0  0  0  0  0  0  0  0  0  0
  -32.0040  -14.7080   19.8360 O   0  0  0  0  0  0  0  0  0  0  0  0
  -30.0470  -16.3790   18.6230 C   0  0  0  0  0  1  0  0  0  0  0  0
  -30.0250  -15.7420   19.9450 N   0  0  0  0  0  0  0  0  0  0  0  0
  -25.3950  -13.9140   20.4140 C   0  0  0  0  0  0  0  0  0  0  0  0
  -24.3300  -13.1470   20.8020 C   0  0  0  0  0  0  0  0  0  0  0  0
  -24.7800  -11.7910   20.7500 C   0  0  0  0  0  0  0  0  0  0  0  0
  -26.4240  -13.0260   20.1460 N   0  0  0  0  0  0  0  0  0  0  0  0
  -26.0620  -11.7440   20.4120 N   0  0  0  0  0  0  0  0  0  0  0  0
  -24.0480  -10.5330   20.9460 C   0  0  0  0  0  0  0  0  0  0  0  0
  -24.4680   -9.5730   21.8940 C   0  0  0  0  0  3  0  0  0  0  0  0
  -23.7370   -8.3800   22.0780 C   0  0  0  0  0  3  0  0  0  0  0  0
  -22.5720   -8.1380   21.3130 C   0  0  0  0  0  0  0  0  0  0  0  0
  -22.1700   -9.0850   20.3550 C   0  0  0  0  0  3  0  0  0  0  0  0
  -22.9030  -10.2710   20.1690 C   0  0  0  0  0  3  0  0  0  0  0  0
  -21.8130   -6.9950   21.4050 O   0  0  0  0  0  0  0  0  0  0  0  0
  -21.7230   -6.2840   22.5740 C   0  0  0  0  0  0  0  0  0  0  0  0
  -21.2050   -6.8570   23.7570 C   0  0  0  0  0  3  0  0  0  0  0  0
  -21.0650   -6.0690   24.9170 C   0  0  0  0  0  3  0  0  0  0  0  0
  -21.4320   -4.7100   24.8950 C   0  0  0  0  0  0  0  0  0  0  0  0
  -21.9420   -4.1370   23.7170 C   0  0  0  0  0  3  0  0  0  0  0  0
  -22.0840   -4.9220   22.5590 C   0  0  0  0  0  0  0  0  0  0  0  0
  -22.5560   -4.3590   21.4200 F   0  0  0  0  0  0  0  0  0  0  0  0
  -21.2910   -3.9510   26.0070 F   0  0  0  0  0  0  0  0  0  0  0  0
  -22.9430  -13.6330   21.1090 C   0  0  0  0  0  0  0  0  0  0  0  0
  -22.2250  -12.9300   21.9780 N   0  0  0  0  0  0  0  0  0  0  0  0
  -22.5050  -14.6700   20.6130 O   0  0  0  0  0  0  0  0  0  0  0  0
  -22.5930  -12.0910   22.4020 H   0  0  0  0  0  0  0  0  0  0  0  0
  -21.2940  -13.2350   22.2240 H   0  0  0  0  0  0  0  0  0  0  0  0
  -25.5680  -15.2840   20.2430 N   0  0  0  0  0  0  0  0  0  0  0  0
  -24.8140  -15.9480   20.3760 H   0  0  0  0  0  0  0  0  0  0  0  0
  -26.4200  -15.7110   19.9020 H   0  0  0  0  0  0  0  0  0  0  0  0
  1  5  1  0
  2  1  2  0
  2  3  1  0
  3  4  2  0
  5  4  1  0
  5 50  1  0
  6  2  1  0
  6  7  1  0
  8  9  1  0
  8  7  1  0
 10 21  2  0
 11  9  1  0
 11 16  1  0
 12 20  1  0
 12 22  1  0
 13 19  1  0
 13 15  1  0
 14 20  1  0
 15 16  2  0
 15 14  1  0
 17 11  2  0
 18 17  1  0
 18 13  2  0
 19 12  1  0
 20 10  1  0
 22 24  2  0
 23 22  1  0
 25 23  1  0
 26 35  2  0
 26 31  1  0
 27 23  1  0
 27 31  1  0
 28 27  1  0
 29 30  1  0
 29 28  1  0
 30 26  1  0
 31 32  2  0
 32 33  1  0
 34 33  2  0
 35 34  1  0
 36 10  1  0
 36 37  1  0
 36 46  1  0
 37 40  1  0
 38 42  1  0
 38 37  1  0
 39 38  2  0
 42 41  1  0
 44 42  1  0
 44 45  1  0
 44 43  1  0
 46 49  1  1
 46 47  1  0
 48 46  1  0
 51 50  1  0
 53 58  1  0
 54 55  1  0
 54 53  1  0
 56 55  1  0
 56 65  1  0
 56 57  1  0
 58 52  1  0
 58 57  1  0
 59 52  2  0
 60 61  1  0
 61 52  1  0
 61 51  1  0
 62 63  2  0
 63 82  1  0
 64 63  1  0
 64 67  1  0
 65 66  1  0
 65 62  1  0
 66 64  2  0
 67 68  1  0
 68 69  2  0
 70 73  1  0
 70 69  1  0
 71 70  2  0
 72 71  1  0
 72 67  2  0
 73 74  1  0
 74 75  1  0
 75 76  2  0
 77 76  1  0
 77 81  1  0
 78 77  2  0
 79 74  2  0
 79 78  1  0
 80 79  1  0
 82 83  1  0
 83 86  1  0
 83 85  1  0
 84 82  2  0
 87 88  1  0
 87 62  1  0
 89 87  1  0
M  ISO  4   8 101   9 101  52 100  61 100
M  END
>  <TORSDO>  (41) 
F 21

>  <SCORE>  (41) 
-13.180

>  <name>  (41) 
40

>  <ligand_id>  (41) 
40

>  <original_smiles>  (41) 
[H]c1c([H])c([H])c2c(c1[H])C([H])([H])C([H])([H])C([H])([H])C2([H])N([H])C(=O)C1([H])N(C(=O)C([H])(N([H])C(=O)C([H])(N([H])C([H])([H])[H])C([H])([H])[H])C(C([H])([H])[H])(C([H])([H])[H])C([H])([H])[H])C([H])([H])c2c([H])c(OC([H])([H])C([H])([H])C([H])([H])c3nnn(C([H])([H])C([H])([H])N(C(=O)N4C([H])([H])C([H])([H])C([H])([H])C([H])(n5nc(-c6c([H])c([H])c(Oc7c([H])c([H])c(F)c([H])c7F)c([H])c6[H])c(C(=O)N([H])[H])c5N([H])[H])C4([H])[H])C([H])([H])[H])c3[H])c([H])c([H])c2C1([H])[H]

>  <smiles>  (41) 
[H]c1c([H])c([H])c2c(c1[H])C([H])([H])C([H])([H])C([H])([H])C2([H])N([H])C(=O)C1([H])N(C(=O)C([H])(N([H])C(=O)C([H])(N([H])C([H])([H])[H])C([H])([H])[H])C(C([H])([H])[H])(C([H])([H])[H])C([H])([H])[H])C([H])([H])c2c([H])c(OC([H])([H])C([H])([H])C([H])([H])c3nnn(C([H])([H])C([H])([H])N(C(=O)N4C([H])([H])C([H])([H])C([H])([H])C([H])(n5nc(-c6c([H])c([H])c(Oc7c([H])c([H])c(F)c([H])c7F)c([H])c6[H])c(C(=O)N([H])[H])c5N([H])[H])C4([H])[H])C([H])([H])[H])c3[H])c([H])c([H])c2C1([H])[H]

$$$$
41:0:0
     RDKit          3D

 95103  0  0  1  0  0  0  0  0999 V2000
  -30.3520  -18.6170   20.7260 C   0  0  0  0  0  0  0  0  0  0  0  0
  -30.5500  -20.3340   19.5120 C   0  0  0  0  0  3  0  0  0  0  0  0
  -30.7970  -19.0270   19.5000 N   0  0  0  0  0  0  0  0  0  0  0  0
  -29.9410  -19.6350   21.5010 N   0  0  0  0  0  2  0  0  0  0  0  0
  -30.0820  -20.7470   20.7030 N   0  0  0  0  0  0  0  0  0  0  0  0
  -29.7470  -21.1770   17.2120 C   0  0  0  0  0  1  0  0  0  0  0  0
  -30.8200  -21.2320   18.3290 C   0  0  0  0  0  2  0  0  0  0  0  0
  -30.4380  -17.1720   21.2490 C   0  0  0  0  0  2  0  0  0  0  0  0
  -30.8130  -14.7990   20.5400 C   0  0  0  0  0  0  0  0  0  0  0  0
  -30.5650  -12.5460   19.5620 C   0  0  0  0  0  2  0  0  0  0  0  0
  -29.6290  -12.5920   18.3390 C   0  0  0  0  0  2  0  0  0  0  0  0
  -28.1440  -12.4850   18.7540 C   0  0  0  0  0  2  0  0  0  0  0  0
  -27.7520  -13.3330   19.9970 C   0  0  0  0  0  3  0  0  0  0  0  0
  -28.8350  -13.2870   21.1010 C   0  0  0  0  0  2  0  0  0  0  0  0
  -30.1310  -13.6100   20.4790 N   0  0  0  0  0  0  0  0  0  0  0  0
  -32.0430  -14.8340   20.4480 O   0  0  0  0  0  0  0  0  0  0  0  0
  -30.1090  -15.9710   20.3910 N   0  0  0  0  0  0  0  0  0  0  0  0
  -25.3540  -13.9090   20.6810 C   0  0  0  0  0  0  0  0  0  0  0  0
  -24.2850  -13.1190   21.0040 C   0  0  0  0  0  0  0  0  0  0  0  0
  -24.7640  -11.7750   20.9710 C   0  0  0  0  0  0  0  0  0  0  0  0
  -26.4120  -13.0340   20.4700 N   0  0  0  0  0  0  0  0  0  0  0  0
  -26.0610  -11.7470   20.7020 N   0  0  0  0  0  0  0  0  0  0  0  0
  -24.0490  -10.5040   21.1200 C   0  0  0  0  0  0  0  0  0  0  0  0
  -24.4460   -9.5440   22.0760 C   0  0  0  0  0  3  0  0  0  0  0  0
  -23.7280   -8.3370   22.2160 C   0  0  0  0  0  3  0  0  0  0  0  0
  -22.6030   -8.0830   21.3970 C   0  0  0  0  0  0  0  0  0  0  0  0
  -22.2270   -9.0310   20.4300 C   0  0  0  0  0  3  0  0  0  0  0  0
  -22.9450  -10.2310   20.2880 C   0  0  0  0  0  3  0  0  0  0  0  0
  -21.8610   -6.9270   21.4480 O   0  0  0  0  0  0  0  0  0  0  0  0
  -21.7310   -6.2090   22.6080 C   0  0  0  0  0  0  0  0  0  0  0  0
  -21.1490   -6.7670   23.7670 C   0  0  0  0  0  3  0  0  0  0  0  0
  -20.9700   -5.9730   24.9170 C   0  0  0  0  0  3  0  0  0  0  0  0
  -21.3650   -4.6210   24.9090 C   0  0  0  0  0  0  0  0  0  0  0  0
  -21.9420   -4.0630   23.7540 C   0  0  0  0  0  3  0  0  0  0  0  0
  -22.1220   -4.8550   22.6060 C   0  0  0  0  0  0  0  0  0  0  0  0
  -22.6580   -4.3070   21.4890 F   0  0  0  0  0  0  0  0  0  0  0  0
  -21.1860   -3.8570   26.0100 F   0  0  0  0  0  0  0  0  0  0  0  0
  -22.8770  -13.5860   21.2390 C   0  0  0  0  0  0  0  0  0  0  0  0
  -22.1310  -12.8760   22.0790 N   0  0  0  0  0  0  0  0  0  0  0  0
  -22.4470  -14.6120   20.7190 O   0  0  0  0  0  0  0  0  0  0  0  0
  -22.4890  -12.0490   22.5310 H   0  0  0  0  0  0  0  0  0  0  0  0
  -21.1840  -13.1700   22.2720 H   0  0  0  0  0  0  0  0  0  0  0  0
  -25.5030  -15.2870   20.5330 N   0  0  0  0  0  0  0  0  0  0  0  0
  -24.7300  -15.9290   20.6510 H   0  0  0  0  0  0  0  0  0  0  0  0
  -26.3690  -15.7530   20.2960 H   0  0  0  0  0  0  0  0  0  0  0  0
  -28.0500  -16.9030   19.2260 C   0  0  0  0  0  1  0  0  0  0  0  0
  -30.3120  -16.6820   17.9060 C   0  0  0  0  0  1  0  0  0  0  0  0
  -29.4250  -16.2140   19.0860 C   0  0  0  0  0  3  0  0  0  0  0  0
  -29.8690  -22.1130   21.2320 C   0  0  0  0  0  3  0  0  0  0  0  0
  -28.6180  -22.8690   20.6760 C   0  0  0  0  0  3  0  0  0  0  0  0
  -26.8910  -24.4030   21.7220 C   0  0  0  0  0  1  0  0  0  0  0  0
  -29.2670  -24.7630   22.3310 C   0  0  0  0  0  1  0  0  0  0  0  0
  -28.3310  -24.3510   21.1750 C   0  0  1  0  0  0  0  0  0  0  0  0
  -28.4880  -25.3920   20.0100 C   0  0  0  0  0  2  0  0  0  0  0  0
  -28.4150  -26.7980   20.3600 O   0  0  0  0  0  0  0  0  0  0  0  0
  -24.5350  -31.9660   23.3300 C   0  0  0  0  0  0  0  0  0  0  0  0
  -27.2310  -27.5150   20.2830 C   0  0  0  0  0  0  0  0  0  0  0  0
  -23.3580  -30.5550   21.6760 C   0  0  0  0  0  3  0  0  0  0  0  0
  -24.8310  -29.0340   20.2580 C   0  0  0  0  0  0  0  0  0  0  0  0
  -25.8810  -30.9330   21.5000 C   0  0  0  0  0  2  0  0  0  0  0  0
  -25.9810  -29.5590   20.8600 C   0  0  0  0  0  0  0  0  0  0  0  0
  -27.1810  -28.8060   20.8660 C   0  0  0  0  0  3  0  0  0  0  0  0
  -26.0600  -27.0210   19.6570 C   0  0  0  0  0  3  0  0  0  0  0  0
  -24.8650  -27.7670   19.6520 C   0  0  0  0  0  3  0  0  0  0  0  0
  -23.5860  -29.8900   20.2950 C   0  0  0  0  0  2  0  0  0  0  0  0
  -24.6100  -31.1710   22.2240 N   0  0  0  0  0  0  0  0  0  0  0  0
  -23.4460  -32.2250   23.8630 O   0  0  0  0  0  0  0  0  0  0  0  0
  -22.7090  -29.5250   22.6280 C   0  0  0  0  0  0  0  0  0  0  0  0
  -21.3890  -29.3280   22.4760 N   0  0  0  0  0  0  0  0  0  0  0  0
  -23.3910  -28.9120   23.4550 O   0  0  0  0  0  0  0  0  0  0  0  0
  -20.9150  -29.8680   21.7660 H   0  0  0  0  0  0  0  0  0  0  0  0
  -18.0070  -28.1220   22.9220 C   0  0  0  0  0  0  0  0  0  0  0  0
  -20.5630  -28.3820   23.2240 C   0  0  0  0  0  3  0  0  0  0  0  0
  -20.6780  -26.9580   22.6320 C   0  0  0  0  0  2  0  0  0  0  0  0
  -19.5780  -26.6420   21.6100 C   0  0  0  0  0  2  0  0  0  0  0  0
  -18.1910  -26.7780   22.2430 C   0  0  0  0  0  2  0  0  0  0  0  0
  -19.1220  -28.8850   23.3690 C   0  0  0  0  0  0  0  0  0  0  0  0
  -18.8980  -30.1430   23.9690 C   0  0  0  0  0  3  0  0  0  0  0  0
  -17.5910  -30.6360   24.1380 C   0  0  0  0  0  3  0  0  0  0  0  0
  -16.4910  -29.8720   23.7060 C   0  0  0  0  0  3  0  0  0  0  0  0
  -16.6990  -28.6210   23.0990 C   0  0  0  0  0  3  0  0  0  0  0  0
  -25.8080  -32.6010   23.9700 C   0  0  0  0  0  3  0  0  0  0  0  0
  -25.4970  -34.0090   24.2450 N   0  0  0  0  0  0  0  0  0  0  0  0
  -25.8780  -35.0340   23.4720 C   0  0  0  0  0  0  0  0  0  0  0  0
  -26.5930  -34.8940   22.4750 O   0  0  0  0  0  0  0  0  0  0  0  0
  -24.8520  -34.1960   24.9990 H   0  0  0  0  0  0  0  0  0  0  0  0
  -24.1980  -36.8470   22.9970 C   0  0  0  0  0  1  0  0  0  0  0  0
  -25.3900  -36.4370   23.8740 C   0  0  0  0  0  3  0  0  0  0  0  0
  -27.4870  -37.3210   24.8010 C   0  0  0  0  0  1  0  0  0  0  0  0
  -26.4440  -37.4720   23.7900 N   0  0  0  0  0  0  0  0  0  0  0  0
  -26.0430  -38.4020   23.8820 H   0  0  0  0  0  0  0  0  0  0  0  0
  -26.2780  -31.8610   25.2810 C   0  0  1  0  0  0  0  0  0  0  0  0
  -25.1460  -31.6620   26.3160 C   0  0  0  0  0  1  0  0  0  0  0  0
  -26.8640  -30.4690   24.9420 C   0  0  0  0  0  1  0  0  0  0  0  0
  -27.4030  -32.6740   25.9600 C   0  0  0  0  0  1  0  0  0  0  0  0
  1  8  1  0
  1  4  1  0
  2  7  1  0
  2  5  1  0
  3  2  1  0
  3  1  2  0
  5 49  1  0
  5  4  1  0
  6  7  1  0
 10 15  1  0
 11 12  1  0
 11 10  1  0
 13 12  1  0
 13 21  1  0
 13 14  1  0
 15  9  1  0
 15 14  1  0
 16  9  2  0
 17  9  1  0
 17  8  1  0
 18 19  2  0
 19 38  1  0
 20 19  1  0
 20 23  1  0
 21 18  1  0
 21 22  1  0
 22 20  2  0
 23 24  1  0
 24 25  2  0
 26 29  1  0
 26 25  1  0
 27 26  2  0
 28 27  1  0
 28 23  2  0
 29 30  1  0
 30 31  1  0
 31 32  2  0
 33 32  1  0
 33 37  1  0
 34 33  2  0
 35 30  2  0
 35 34  1  0
 36 35  1  0
 38 39  1  0
 39 42  1  0
 39 41  1  0
 40 38  2  0
 43 44  1  0
 43 18  1  0
 45 43  1  0
 47 48  1  0
 48 46  1  0
 48 17  1  0
 50 53  1  0
 50 49  2  0
 53 51  1  1
 53 52  1  0
 54 55  1  0
 54 53  1  0
 56 67  2  0
 57 55  1  0
 57 62  1  0
 58 66  1  0
 58 68  1  0
 59 65  1  0
 59 61  1  0
 60 66  1  0
 61 62  2  0
 61 60  1  0
 63 57  2  0
 64 63  1  0
 64 59  2  0
 65 58  1  0
 66 56  1  0
 68 70  2  0
 69 68  1  0
 71 69  1  0
 72 81  2  0
 72 77  1  0
 73 69  1  0
 73 77  1  0
 74 73  1  0
 75 76  1  0
 75 74  1  0
 76 72  1  0
 77 78  2  0
 78 79  1  0
 80 79  2  0
 81 80  1  0
 82 56  1  0
 82 83  1  0
 82 92  1  0
 83 86  1  0
 84 88  1  0
 84 83  1  0
 85 84  2  0
 88 87  1  0
 90 88  1  0
 90 91  1  0
 90 89  1  0
 92 95  1  1
 92 93  1  0
 94 92  1  0
M  ISO  4   9 100  17 100  54 101  55 101
M  END
>  <TORSDO>  (42) 
F 23

>  <SCORE>  (42) 
-12.529

>  <name>  (42) 
41

>  <ligand_id>  (42) 
41

>  <original_smiles>  (42) 
[H]c1c([H])c([H])c2c(c1[H])C([H])([H])C([H])([H])C([H])([H])C2([H])N([H])C(=O)C1([H])N(C(=O)C([H])(N([H])C(=O)C([H])(N([H])C([H])([H])[H])C([H])([H])[H])C(C([H])([H])[H])(C([H])([H])[H])C([H])([H])[H])C([H])([H])c2c([H])c(OC([H])([H])C(C([H])([H])[H])(C([H])([H])[H])C([H])([H])C([H])([H])n3nc(C([H])([H])N(C(=O)N4C([H])([H])C([H])([H])C([H])([H])C([H])(n5nc(-c6c([H])c([H])c(Oc7c([H])c([H])c(F)c([H])c7F)c([H])c6[H])c(C(=O)N([H])[H])c5N([H])[H])C4([H])[H])C([H])(C([H])([H])[H])C([H])([H])[H])nc3C([H])([H])C([H])([H])[H])c([H])c([H])c2C1([H])[H]

>  <smiles>  (42) 
[H]c1c([H])c([H])c2c(c1[H])C([H])([H])C([H])([H])C([H])([H])C2([H])N([H])C(=O)C1([H])N(C(=O)C([H])(N([H])C(=O)C([H])(N([H])C([H])([H])[H])C([H])([H])[H])C(C([H])([H])[H])(C([H])([H])[H])C([H])([H])[H])C([H])([H])c2c([H])c(OC([H])([H])C(C([H])([H])[H])(C([H])([H])[H])C([H])([H])C([H])([H])n3nc(C([H])([H])N(C(=O)N4C([H])([H])C([H])([H])C([H])([H])C([H])(n5nc(-c6c([H])c([H])c(Oc7c([H])c([H])c(F)c([H])c7F)c([H])c6[H])c(C(=O)N([H])[H])c5N([H])[H])C4([H])[H])C([H])(C([H])([H])[H])C([H])([H])[H])nc3C([H])([H])C([H])([H])[H])c([H])c([H])c2C1([H])[H]

$$$$
42:0:0
     RDKit          3D

 93101  0  0  1  0  0  0  0  0999 V2000
  -29.8780  -19.9180   21.1660 C   0  0  0  0  0  3  0  0  0  0  0  0
  -30.0750  -19.1630   19.9700 C   0  0  0  0  0  0  0  0  0  0  0  0
  -29.8780  -20.0540   18.8500 C   0  0  0  0  0  0  0  0  0  0  0  0
  -29.4060  -22.0180   20.1390 C   0  0  0  0  0  0  0  0  0  0  0  0
  -29.5570  -21.2560   21.2370 N   0  0  0  0  0  0  0  0  0  0  0  0
  -29.5600  -21.4060   18.9560 N   0  0  0  0  0  0  0  0  0  0  0  0
  -30.0250  -19.5660   17.3980 C   0  0  1  0  0  0  0  0  0  0  0  0
  -28.8250  -19.2030   16.9380 F   0  0  0  0  0  0  0  0  0  0  0  0
  -30.4920  -20.5470   16.6210 F   0  0  0  0  0  0  0  0  0  0  0  0
  -30.8560  -18.5310   17.2770 F   0  0  0  0  0  0  0  0  0  0  0  0
  -30.6510  -17.6030   19.8510 C   0  0  0  0  0  2  0  0  0  0  0  0
  -30.9480  -14.9350   19.7370 C   0  0  0  0  0  0  0  0  0  0  0  0
  -30.5890  -12.7470   18.4970 C   0  0  0  0  0  2  0  0  0  0  0  0
  -29.4750  -12.8940   17.4320 C   0  0  0  0  0  2  0  0  0  0  0  0
  -28.0720  -12.6880   18.0440 C   0  0  0  0  0  2  0  0  0  0  0  0
  -27.9020  -13.4360   19.3920 C   0  0  0  0  0  3  0  0  0  0  0  0
  -29.1100  -13.1550   20.3050 C   0  0  0  0  0  2  0  0  0  0  0  0
  -30.2970  -13.6960   19.6150 N   0  0  0  0  0  0  0  0  0  0  0  0
  -32.0280  -15.0410   19.1420 O   0  0  0  0  0  0  0  0  0  0  0  0
  -30.3270  -16.1110   20.2830 N   0  0  0  0  0  0  0  0  0  0  0  0
  -25.6750  -14.0170   20.5250 C   0  0  0  0  0  0  0  0  0  0  0  0
  -24.6390  -13.2400   20.9700 C   0  0  0  0  0  0  0  0  0  0  0  0
  -25.0290  -11.8870   20.7230 C   0  0  0  0  0  0  0  0  0  0  0  0
  -26.6300  -13.1360   20.0410 N   0  0  0  0  0  0  0  0  0  0  0  0
  -26.2540  -11.8440   20.2110 N   0  0  0  0  0  0  0  0  0  0  0  0
  -24.2800  -10.6350   20.8870 C   0  0  0  0  0  0  0  0  0  0  0  0
  -24.7220   -9.6180   21.7610 C   0  0  0  0  0  3  0  0  0  0  0  0
  -23.9760   -8.4300   21.9130 C   0  0  0  0  0  3  0  0  0  0  0  0
  -22.7710   -8.2520   21.1920 C   0  0  0  0  0  0  0  0  0  0  0  0
  -22.3470   -9.2580   20.3060 C   0  0  0  0  0  3  0  0  0  0  0  0
  -23.0940  -10.4380   20.1510 C   0  0  0  0  0  3  0  0  0  0  0  0
  -21.9950   -7.1190   21.2540 O   0  0  0  0  0  0  0  0  0  0  0  0
  -21.8460   -6.4110   22.4210 C   0  0  0  0  0  0  0  0  0  0  0  0
  -21.3410   -7.0090   23.5950 C   0  0  0  0  0  3  0  0  0  0  0  0
  -21.1390   -6.2290   24.7520 C   0  0  0  0  0  3  0  0  0  0  0  0
  -21.4330   -4.8530   24.7340 C   0  0  0  0  0  0  0  0  0  0  0  0
  -21.9330   -4.2550   23.5630 C   0  0  0  0  0  3  0  0  0  0  0  0
  -22.1360   -5.0320   22.4090 C   0  0  0  0  0  0  0  0  0  0  0  0
  -22.5960   -4.4450   21.2780 F   0  0  0  0  0  0  0  0  0  0  0  0
  -21.2320   -4.1020   25.8420 F   0  0  0  0  0  0  0  0  0  0  0  0
  -23.3220  -13.7280   21.5010 C   0  0  0  0  0  0  0  0  0  0  0  0
  -22.7110  -12.9710   22.4080 N   0  0  0  0  0  0  0  0  0  0  0  0
  -22.8490  -14.8070   21.1500 O   0  0  0  0  0  0  0  0  0  0  0  0
  -23.1080  -12.0960   22.7130 H   0  0  0  0  0  0  0  0  0  0  0  0
  -21.8310  -13.2740   22.8000 H   0  0  0  0  0  0  0  0  0  0  0  0
  -25.8710  -15.3930   20.4710 N   0  0  0  0  0  0  0  0  0  0  0  0
  -25.1580  -16.0540   20.7620 H   0  0  0  0  0  0  0  0  0  0  0  0
  -26.6830  -15.8390   20.0630 H   0  0  0  0  0  0  0  0  0  0  0  0
  -29.4050  -17.0390   22.5470 C   0  0  0  0  0  1  0  0  0  0  0  0
  -29.5160  -15.9160   21.5110 C   0  0  0  0  0  2  0  0  0  0  0  0
  -29.4400  -23.6470   20.2950 C   0  0  0  0  0  3  0  0  0  0  0  0
  -28.3200  -24.7650   19.8260 C   0  0  0  0  0  3  0  0  0  0  0  0
  -28.4780  -26.2720   20.0930 O   0  0  0  0  0  0  0  0  0  0  0  0
  -24.6480  -31.6980   23.1800 C   0  0  0  0  0  0  0  0  0  0  0  0
  -27.3640  -27.1660   20.0520 C   0  0  0  0  0  0  0  0  0  0  0  0
  -23.4840  -30.2890   21.5270 C   0  0  0  0  0  3  0  0  0  0  0  0
  -24.9710  -28.7870   20.0750 C   0  0  0  0  0  0  0  0  0  0  0  0
  -26.0230  -30.6540   21.3460 C   0  0  0  0  0  2  0  0  0  0  0  0
  -26.1360  -29.2800   20.6740 C   0  0  0  0  0  0  0  0  0  0  0  0
  -27.3360  -28.4840   20.6420 C   0  0  0  0  0  3  0  0  0  0  0  0
  -26.1670  -26.7560   19.4260 C   0  0  0  0  0  3  0  0  0  0  0  0
  -24.9930  -27.5360   19.4400 C   0  0  0  0  0  3  0  0  0  0  0  0
  -23.7140  -29.6360   20.1390 C   0  0  0  0  0  2  0  0  0  0  0  0
  -24.7390  -30.8990   22.0750 N   0  0  0  0  0  0  0  0  0  0  0  0
  -23.5560  -31.9420   23.7170 O   0  0  0  0  0  0  0  0  0  0  0  0
  -22.8410  -29.2460   22.4770 C   0  0  0  0  0  0  0  0  0  0  0  0
  -21.5230  -29.0240   22.3340 N   0  0  0  0  0  0  0  0  0  0  0  0
  -23.5290  -28.6430   23.3040 O   0  0  0  0  0  0  0  0  0  0  0  0
  -21.0260  -29.5610   21.6390 H   0  0  0  0  0  0  0  0  0  0  0  0
  -18.1820  -27.7010   22.8010 C   0  0  0  0  0  0  0  0  0  0  0  0
  -20.7290  -28.0510   23.0900 C   0  0  0  0  0  3  0  0  0  0  0  0
  -20.8850  -26.6290   22.5030 C   0  0  0  0  0  2  0  0  0  0  0  0
  -19.8010  -26.2770   21.4780 C   0  0  0  0  0  2  0  0  0  0  0  0
  -18.4110  -26.3660   22.1140 C   0  0  0  0  0  2  0  0  0  0  0  0
  -19.2700  -28.5000   23.2440 C   0  0  0  0  0  0  0  0  0  0  0  0
  -19.0000  -29.7480   23.8470 C   0  0  0  0  0  3  0  0  0  0  0  0
  -17.6750  -30.1970   24.0110 C   0  0  0  0  0  3  0  0  0  0  0  0
  -16.6030  -29.3960   23.5830 C   0  0  0  0  0  3  0  0  0  0  0  0
  -16.8570  -28.1500   22.9820 C   0  0  0  0  0  3  0  0  0  0  0  0
  -25.9090  -32.3590   23.8140 C   0  0  0  0  0  3  0  0  0  0  0  0
  -25.5610  -33.7470   24.1570 N   0  0  0  0  0  0  0  0  0  0  0  0
  -25.8520  -34.8160   23.4030 C   0  0  0  0  0  0  0  0  0  0  0  0
  -26.5090  -34.7390   22.3610 O   0  0  0  0  0  0  0  0  0  0  0  0
  -24.9700  -33.8770   24.9650 H   0  0  0  0  0  0  0  0  0  0  0  0
  -24.0590  -36.5570   23.1060 C   0  0  0  0  0  1  0  0  0  0  0  0
  -25.3360  -36.1890   23.8790 C   0  0  0  0  0  3  0  0  0  0  0  0
  -27.4600  -37.1440   24.6550 C   0  0  0  0  0  1  0  0  0  0  0  0
  -26.3310  -37.2730   23.7370 N   0  0  0  0  0  0  0  0  0  0  0  0
  -25.9000  -38.1810   23.8900 H   0  0  0  0  0  0  0  0  0  0  0  0
  -26.4370  -31.5930   25.0880 C   0  0  1  0  0  0  0  0  0  0  0  0
  -25.3400  -31.3050   26.1420 C   0  0  0  0  0  1  0  0  0  0  0  0
  -27.0710  -30.2400   24.6910 C   0  0  0  0  0  1  0  0  0  0  0  0
  -27.5540  -32.4180   25.7700 C   0  0  0  0  0  1  0  0  0  0  0  0
  1  5  1  0
  2  1  2  0
  3  6  2  0
  3  2  1  0
  4 51  1  0
  4  5  2  0
  6  4  1  0
  7  3  1  0
  7  8  1  6
  9  7  1  0
 10  7  1  0
 11  2  1  0
 11 20  1  0
 12 20  1  0
 13 18  1  0
 14 15  1  0
 14 13  1  0
 16 15  1  0
 16 24  1  0
 16 17  1  0
 18 12  1  0
 18 17  1  0
 19 12  2  0
 20 50  1  0
 21 22  2  0
 22 41  1  0
 23 26  1  0
 23 22  1  0
 24 25  1  0
 24 21  1  0
 25 23  2  0
 26 27  1  0
 27 28  2  0
 29 32  1  0
 29 28  1  0
 30 29  2  0
 31 30  1  0
 31 26  2  0
 32 33  1  0
 33 34  1  0
 34 35  2  0
 36 35  1  0
 36 40  1  0
 37 36  2  0
 38 33  2  0
 38 37  1  0
 39 38  1  0
 41 42  1  0
 42 44  1  0
 42 45  1  0
 43 41  2  0
 46 21  1  0
 46 47  1  0
 48 46  1  0
 50 49  1  0
 52 53  1  0
 52 51  2  0
 54 65  2  0
 55 53  1  0
 55 60  1  0
 56 64  1  0
 56 66  1  0
 57 63  1  0
 57 59  1  0
 58 64  1  0
 59 58  1  0
 60 59  2  0
 61 62  1  0
 61 55  2  0
 62 57  2  0
 63 56  1  0
 64 54  1  0
 66 68  2  0
 67 66  1  0
 69 67  1  0
 70 79  2  0
 70 75  1  0
 71 67  1  0
 71 75  1  0
 72 71  1  0
 73 74  1  0
 73 72  1  0
 74 70  1  0
 75 76  2  0
 76 77  1  0
 78 77  2  0
 79 78  1  0
 80 54  1  0
 80 81  1  0
 80 90  1  0
 81 84  1  0
 82 86  1  0
 82 81  1  0
 83 82  2  0
 86 85  1  0
 88 86  1  0
 88 89  1  0
 88 87  1  0
 90 93  1  1
 90 91  1  0
 92 90  1  0
M  ISO  4  12 100  20 100  52 101  53 101
M  END
>  <TORSDO>  (43) 
F 21

>  <SCORE>  (43) 
-10.491

>  <name>  (43) 
42

>  <ligand_id>  (43) 
42

>  <original_smiles>  (43) 
[H]c1nc(C([H])([H])C([H])([H])Oc2c([H])c([H])c3c(c2[H])C([H])([H])N(C(=O)C([H])(N([H])C(=O)C([H])(N([H])C([H])([H])[H])C([H])([H])[H])C(C([H])([H])[H])(C([H])([H])[H])C([H])([H])[H])C([H])(C(=O)N([H])C2([H])c4c([H])c([H])c([H])c([H])c4C([H])([H])C([H])([H])C2([H])[H])C3([H])[H])nc(C(F)(F)F)c1C([H])([H])N(C(=O)N1C([H])([H])C([H])([H])C([H])([H])C([H])(n2nc(-c3c([H])c([H])c(Oc4c([H])c([H])c(F)c([H])c4F)c([H])c3[H])c(C(=O)N([H])[H])c2N([H])[H])C1([H])[H])C([H])([H])C([H])([H])[H]

>  <smiles>  (43) 
[H]c1nc(C([H])([H])C([H])([H])Oc2c([H])c([H])c3c(c2[H])C([H])([H])N(C(=O)C([H])(N([H])C(=O)C([H])(N([H])C([H])([H])[H])C([H])([H])[H])C(C([H])([H])[H])(C([H])([H])[H])C([H])([H])[H])C([H])(C(=O)N([H])C2([H])c4c([H])c([H])c([H])c([H])c4C([H])([H])C([H])([H])C2([H])[H])C3([H])[H])nc(C(F)(F)F)c1C([H])([H])N(C(=O)N1C([H])([H])C([H])([H])C([H])([H])C([H])(n2nc(-c3c([H])c([H])c(Oc4c([H])c([H])c(F)c([H])c4F)c([H])c3[H])c(C(=O)N([H])[H])c2N([H])[H])C1([H])[H])C([H])([H])C([H])([H])[H]

$$$$
43:0:0
     RDKit          3D

 88 96  0  0  1  0  0  0  0  0999 V2000
  -28.4100  -20.4970   20.6300 C   0  0  0  0  0  3  0  0  0  0  0  0
  -29.9930  -22.3830   19.5130 C   0  0  0  0  0  3  0  0  0  0  0  0
  -27.9970  -21.9220   20.5560 C   0  0  0  0  0  0  0  0  0  0  0  0
  -28.7790  -23.0300   19.9910 C   0  0  0  0  0  0  0  0  0  0  0  0
  -29.6460  -19.9490   20.1260 C   0  0  0  0  0  0  0  0  0  0  0  0
  -26.6050  -22.2370   21.0830 C   0  0  0  0  0  1  0  0  0  0  0  0
  -30.3820  -21.0130   19.5900 N   0  0  0  0  0  0  0  0  0  0  0  0
  -28.1570  -24.6260   19.6400 C   0  0  0  0  0  2  0  0  0  0  0  0
  -28.4390  -26.1650   20.0960 O   0  0  0  0  0  0  0  0  0  0  0  0
  -24.7260  -31.9090   23.2500 C   0  0  0  0  0  0  0  0  0  0  0  0
  -27.4210  -27.2510   20.0460 C   0  0  0  0  0  0  0  0  0  0  0  0
  -23.5760  -30.5530   21.5460 C   0  0  0  0  0  3  0  0  0  0  0  0
  -25.0740  -29.0550   20.0660 C   0  0  0  0  0  0  0  0  0  0  0  0
  -26.1340  -30.8440   21.4240 C   0  0  0  0  0  2  0  0  0  0  0  0
  -26.2460  -29.4670   20.7140 C   0  0  0  0  0  0  0  0  0  0  0  0
  -27.4140  -28.5830   20.6870 C   0  0  0  0  0  3  0  0  0  0  0  0
  -26.2220  -27.0010   19.3390 C   0  0  0  0  0  3  0  0  0  0  0  0
  -25.0850  -27.8440   19.3600 C   0  0  0  0  0  3  0  0  0  0  0  0
  -23.8310  -29.9380   20.1430 C   0  0  0  0  0  2  0  0  0  0  0  0
  -24.8330  -31.1270   22.1280 N   0  0  0  0  0  0  0  0  0  0  0  0
  -23.6280  -32.1480   23.7780 O   0  0  0  0  0  0  0  0  0  0  0  0
  -22.9040  -29.4990   22.4650 C   0  0  0  0  0  0  0  0  0  0  0  0
  -21.5800  -29.3040   22.3250 N   0  0  0  0  0  0  0  0  0  0  0  0
  -23.5820  -28.8580   23.2720 O   0  0  0  0  0  0  0  0  0  0  0  0
  -21.0840  -29.8760   21.6560 H   0  0  0  0  0  0  0  0  0  0  0  0
  -18.2250  -28.0070   22.7790 C   0  0  0  0  0  0  0  0  0  0  0  0
  -20.7780  -28.3150   23.0550 C   0  0  0  0  0  3  0  0  0  0  0  0
  -20.9110  -26.9140   22.4160 C   0  0  0  0  0  2  0  0  0  0  0  0
  -19.8150  -26.6150   21.3870 C   0  0  0  0  0  2  0  0  0  0  0  0
  -18.4320  -26.6950   22.0380 C   0  0  0  0  0  2  0  0  0  0  0  0
  -19.3260  -28.7740   23.2420 C   0  0  0  0  0  0  0  0  0  0  0  0
  -19.0770  -29.9980   23.8980 C   0  0  0  0  0  3  0  0  0  0  0  0
  -17.7620  -30.4600   24.0900 C   0  0  0  0  0  3  0  0  0  0  0  0
  -16.6740  -29.6900   23.6390 C   0  0  0  0  0  3  0  0  0  0  0  0
  -16.9080  -28.4640   22.9930 C   0  0  0  0  0  3  0  0  0  0  0  0
  -25.9780  -32.5580   23.9140 C   0  0  0  0  0  3  0  0  0  0  0  0
  -25.6470  -33.9590   24.2350 N   0  0  0  0  0  0  0  0  0  0  0  0
  -25.9530  -35.0130   23.4690 C   0  0  0  0  0  0  0  0  0  0  0  0
  -26.6080  -34.9140   22.4290 O   0  0  0  0  0  0  0  0  0  0  0  0
  -25.0650  -34.1070   25.0460 H   0  0  0  0  0  0  0  0  0  0  0  0
  -24.1750  -36.7700   23.1610 C   0  0  0  0  0  1  0  0  0  0  0  0
  -25.4550  -36.4000   23.9280 C   0  0  0  0  0  3  0  0  0  0  0  0
  -27.5960  -37.3500   24.6680 C   0  0  0  0  0  1  0  0  0  0  0  0
  -26.4590  -37.4750   23.7590 N   0  0  0  0  0  0  0  0  0  0  0  0
  -26.0370  -38.3880   23.9050 H   0  0  0  0  0  0  0  0  0  0  0  0
  -26.4460  -31.8000   25.2180 C   0  0  1  0  0  0  0  0  0  0  0  0
  -25.3170  -31.5680   26.2480 C   0  0  0  0  0  1  0  0  0  0  0  0
  -27.0460  -30.4200   24.8650 C   0  0  0  0  0  1  0  0  0  0  0  0
  -27.5680  -32.6030   25.9160 C   0  0  0  0  0  1  0  0  0  0  0  0
  -30.3550  -18.3660   20.2860 C   0  0  0  0  0  2  0  0  0  0  0  0
  -30.6030  -15.5010   20.1680 C   0  0  0  0  0  0  0  0  0  0  0  0
  -30.5110  -13.0850   19.2580 C   0  0  0  0  0  2  0  0  0  0  0  0
  -29.5720  -12.8950   18.0420 C   0  0  0  0  0  2  0  0  0  0  0  0
  -28.1270  -12.6460   18.5050 C   0  0  0  0  0  2  0  0  0  0  0  0
  -27.7000  -13.6160   19.6340 C   0  0  0  0  0  3  0  0  0  0  0  0
  -28.7620  -13.7450   20.7450 C   0  0  0  0  0  2  0  0  0  0  0  0
  -29.9930  -14.2230   20.0980 N   0  0  0  0  0  0  0  0  0  0  0  0
  -31.8240  -15.4750   19.9630 O   0  0  0  0  0  0  0  0  0  0  0  0
  -29.8890  -16.7860   20.2610 N   0  0  0  0  0  0  0  0  0  0  0  0
  -28.8900  -16.6790   20.3370 H   0  0  0  0  0  0  0  0  0  0  0  0
  -25.3330  -14.1920   20.3920 C   0  0  0  0  0  0  0  0  0  0  0  0
  -24.2690  -13.4200   20.7680 C   0  0  0  0  0  0  0  0  0  0  0  0
  -24.7320  -12.0680   20.7430 C   0  0  0  0  0  0  0  0  0  0  0  0
  -26.3730  -13.3120   20.1520 N   0  0  0  0  0  0  0  0  0  0  0  0
  -26.0230  -12.0290   20.4300 N   0  0  0  0  0  0  0  0  0  0  0  0
  -24.0010  -10.8080   20.9380 C   0  0  0  0  0  0  0  0  0  0  0  0
  -24.4070   -9.8570   21.9000 C   0  0  0  0  0  3  0  0  0  0  0  0
  -23.6740   -8.6650   22.0820 C   0  0  0  0  0  3  0  0  0  0  0  0
  -22.5190   -8.4160   21.3020 C   0  0  0  0  0  0  0  0  0  0  0  0
  -22.1320   -9.3550   20.3300 C   0  0  0  0  0  3  0  0  0  0  0  0
  -22.8660  -10.5390   20.1470 C   0  0  0  0  0  3  0  0  0  0  0  0
  -21.7600   -7.2750   21.3940 O   0  0  0  0  0  0  0  0  0  0  0  0
  -21.6650   -6.5650   22.5640 C   0  0  0  0  0  0  0  0  0  0  0  0
  -21.1440   -7.1410   23.7430 C   0  0  0  0  0  3  0  0  0  0  0  0
  -20.9990   -6.3550   24.9040 C   0  0  0  0  0  3  0  0  0  0  0  0
  -21.3660   -4.9970   24.8870 C   0  0  0  0  0  0  0  0  0  0  0  0
  -21.8780   -4.4200   23.7110 C   0  0  0  0  0  3  0  0  0  0  0  0
  -22.0250   -5.2030   22.5520 C   0  0  0  0  0  0  0  0  0  0  0  0
  -22.5010   -4.6380   21.4170 F   0  0  0  0  0  0  0  0  0  0  0  0
  -21.2190   -4.2400   26.0000 F   0  0  0  0  0  0  0  0  0  0  0  0
  -22.8740  -13.9030   21.0330 C   0  0  0  0  0  0  0  0  0  0  0  0
  -22.1460  -13.2170   21.9050 N   0  0  0  0  0  0  0  0  0  0  0  0
  -22.4390  -14.9260   20.5030 O   0  0  0  0  0  0  0  0  0  0  0  0
  -22.5130  -12.3890   22.3510 H   0  0  0  0  0  0  0  0  0  0  0  0
  -21.2100  -13.5210   22.1310 H   0  0  0  0  0  0  0  0  0  0  0  0
  -25.4960  -15.5620   20.2050 N   0  0  0  0  0  0  0  0  0  0  0  0
  -24.7280  -16.2140   20.3160 H   0  0  0  0  0  0  0  0  0  0  0  0
  -26.3330  -15.9950   19.8380 H   0  0  0  0  0  0  0  0  0  0  0  0
  2  7  2  0
  2  4  1  0
  3  1  1  0
  3  6  1  0
  4  3  2  0
  5 50  1  0
  5  1  2  0
  7  5  1  0
  8  4  1  0
  8  9  1  0
 10 21  2  0
 11  9  1  0
 11 16  1  0
 12 20  1  0
 12 22  1  0
 13 19  1  0
 13 15  1  0
 14 20  1  0
 15 14  1  0
 16 15  2  0
 17 18  1  0
 17 11  2  0
 18 13  2  0
 19 12  1  0
 20 10  1  0
 22 24  2  0
 23 22  1  0
 25 23  1  0
 26 35  2  0
 26 31  1  0
 27 23  1  0
 27 31  1  0
 28 27  1  0
 29 30  1  0
 29 28  1  0
 30 26  1  0
 31 32  2  0
 32 33  1  0
 34 33  2  0
 35 34  1  0
 36 10  1  0
 36 37  1  0
 36 46  1  0
 37 40  1  0
 38 42  1  0
 38 37  1  0
 39 38  2  0
 42 41  1  0
 44 45  1  0
 44 42  1  0
 44 43  1  0
 46 49  1  1
 46 47  1  0
 48 46  1  0
 51 59  1  0
 52 57  1  0
 53 54  1  0
 53 52  1  0
 55 54  1  0
 55 64  1  0
 55 56  1  0
 57 51  1  0
 57 56  1  0
 58 51  2  0
 59 50  1  0
 59 60  1  0
 61 62  2  0
 62 81  1  0
 63 62  1  0
 63 66  1  0
 64 61  1  0
 64 65  1  0
 65 63  2  0
 66 67  1  0
 67 68  2  0
 69 72  1  0
 69 68  1  0
 70 69  2  0
 71 70  1  0
 71 66  2  0
 72 73  1  0
 73 74  1  0
 74 75  2  0
 76 75  1  0
 76 80  1  0
 77 76  2  0
 78 73  2  0
 78 77  1  0
 79 78  1  0
 81 82  1  0
 82 85  1  0
 82 84  1  0
 83 81  2  0
 86 87  1  0
 86 61  1  0
 88 86  1  0
M  ISO  4   8 101   9 101  51 100  59 100
M  END
>  <TORSDO>  (44) 
F 18

>  <SCORE>  (44) 
-15.131

>  <name>  (44) 
43

>  <ligand_id>  (44) 
43

>  <original_smiles>  (44) 
[H]c1nc(C([H])([H])N([H])C(=O)N2C([H])([H])C([H])([H])C([H])([H])C([H])(n3nc(-c4c([H])c([H])c(Oc5c([H])c([H])c(F)c([H])c5F)c([H])c4[H])c(C(=O)N([H])[H])c3N([H])[H])C2([H])[H])c([H])c(C([H])([H])[H])c1C([H])([H])Oc1c([H])c([H])c2c(c1[H])C([H])([H])N(C(=O)C([H])(N([H])C(=O)C([H])(N([H])C([H])([H])[H])C([H])([H])[H])C(C([H])([H])[H])(C([H])([H])[H])C([H])([H])[H])C([H])(C(=O)N([H])C1([H])c3c([H])c([H])c([H])c([H])c3C([H])([H])C([H])([H])C1([H])[H])C2([H])[H]

>  <smiles>  (44) 
[H]c1nc(C([H])([H])N([H])C(=O)N2C([H])([H])C([H])([H])C([H])([H])C([H])(n3nc(-c4c([H])c([H])c(Oc5c([H])c([H])c(F)c([H])c5F)c([H])c4[H])c(C(=O)N([H])[H])c3N([H])[H])C2([H])[H])c([H])c(C([H])([H])[H])c1C([H])([H])Oc1c([H])c([H])c2c(c1[H])C([H])([H])N(C(=O)C([H])(N([H])C(=O)C([H])(N([H])C([H])([H])[H])C([H])([H])[H])C(C([H])([H])[H])(C([H])([H])[H])C([H])([H])[H])C([H])(C(=O)N([H])C1([H])c3c([H])c([H])c([H])c([H])c3C([H])([H])C([H])([H])C1([H])[H])C2([H])[H]

$$$$
44:0:0
     RDKit          3D

 89 97  0  0  1  0  0  0  0  0999 V2000
  -28.6320  -21.3460   21.5730 C   0  0  0  0  0  3  0  0  0  0  0  0
  -29.0530  -21.2280   19.3010 C   0  0  0  0  0  3  0  0  0  0  0  0
  -28.9290  -20.4580   20.4920 C   0  0  0  0  0  0  0  0  0  0  0  0
  -28.4960  -23.3440   20.2790 C   0  0  0  0  0  0  0  0  0  0  0  0
  -28.4070  -22.7060   21.4660 N   0  0  0  0  0  0  0  0  0  0  0  0
  -28.8400  -22.5920   19.2090 N   0  0  0  0  0  0  0  0  0  0  0  0
  -27.5800  -18.3650   19.8340 C   0  0  0  0  0  1  0  0  0  0  0  0
  -28.8340  -18.8170   20.6020 C   0  0  0  0  0  3  0  0  0  0  0  0
  -30.0270  -17.6920   20.3250 C   0  0  0  0  0  2  0  0  0  0  0  0
  -30.5290  -14.9990   20.2380 C   0  0  0  0  0  0  0  0  0  0  0  0
  -30.3790  -12.6800   19.2460 C   0  0  0  0  0  2  0  0  0  0  0  0
  -29.4030  -12.6420   18.0470 C   0  0  0  0  0  2  0  0  0  0  0  0
  -27.9590  -12.4260   18.5330 C   0  0  0  0  0  2  0  0  0  0  0  0
  -27.5860  -13.3530   19.7180 C   0  0  0  0  0  3  0  0  0  0  0  0
  -28.6710  -13.3400   20.8150 C   0  0  0  0  0  2  0  0  0  0  0  0
  -29.9310  -13.7470   20.1830 N   0  0  0  0  0  0  0  0  0  0  0  0
  -31.7130  -15.0930   19.8970 O   0  0  0  0  0  0  0  0  0  0  0  0
  -29.7470  -16.1520   20.4720 N   0  0  0  0  0  0  0  0  0  0  0  0
  -28.7930  -15.9340   20.7160 H   0  0  0  0  0  0  0  0  0  0  0  0
  -25.2320  -13.9300   20.5470 C   0  0  0  0  0  0  0  0  0  0  0  0
  -24.1780  -13.1530   20.9320 C   0  0  0  0  0  0  0  0  0  0  0  0
  -24.6350  -11.8030   20.8550 C   0  0  0  0  0  0  0  0  0  0  0  0
  -26.2630  -13.0530   20.2520 N   0  0  0  0  0  0  0  0  0  0  0  0
  -25.9140  -11.7660   20.5040 N   0  0  0  0  0  0  0  0  0  0  0  0
  -23.9100  -10.5390   21.0370 C   0  0  0  0  0  0  0  0  0  0  0  0
  -24.3440   -9.5660   21.9630 C   0  0  0  0  0  3  0  0  0  0  0  0
  -23.6180   -8.3680   22.1320 C   0  0  0  0  0  3  0  0  0  0  0  0
  -22.4440   -8.1360   21.3760 C   0  0  0  0  0  0  0  0  0  0  0  0
  -22.0310   -9.0980   20.4380 C   0  0  0  0  0  3  0  0  0  0  0  0
  -22.7570  -10.2880   20.2680 C   0  0  0  0  0  3  0  0  0  0  0  0
  -21.6880   -6.9910   21.4570 O   0  0  0  0  0  0  0  0  0  0  0  0
  -21.6100   -6.2610   22.6160 C   0  0  0  0  0  0  0  0  0  0  0  0
  -21.1110   -6.8200   23.8130 C   0  0  0  0  0  3  0  0  0  0  0  0
  -20.9790   -6.0160   24.9640 C   0  0  0  0  0  3  0  0  0  0  0  0
  -21.3380   -4.6540   24.9170 C   0  0  0  0  0  0  0  0  0  0  0  0
  -21.8270   -4.0960   23.7240 C   0  0  0  0  0  3  0  0  0  0  0  0
  -21.9590   -4.8970   22.5770 C   0  0  0  0  0  0  0  0  0  0  0  0
  -22.4130   -4.3490   21.4220 F   0  0  0  0  0  0  0  0  0  0  0  0
  -21.2040   -3.8800   26.0200 F   0  0  0  0  0  0  0  0  0  0  0  0
  -22.7930  -13.6310   21.2560 C   0  0  0  0  0  0  0  0  0  0  0  0
  -22.0890  -12.9160   22.1260 N   0  0  0  0  0  0  0  0  0  0  0  0
  -22.3440  -14.6700   20.7730 O   0  0  0  0  0  0  0  0  0  0  0  0
  -22.4690  -12.0740   22.5350 H   0  0  0  0  0  0  0  0  0  0  0  0
  -21.1590  -13.2090   22.3870 H   0  0  0  0  0  0  0  0  0  0  0  0
  -25.3960  -15.3030   20.3930 N   0  0  0  0  0  0  0  0  0  0  0  0
  -24.6340  -15.9550   20.5390 H   0  0  0  0  0  0  0  0  0  0  0  0
  -26.2120  -15.7370   19.9860 H   0  0  0  0  0  0  0  0  0  0  0  0
  -27.7170  -24.7700   20.0250 C   0  0  0  0  0  2  0  0  0  0  0  0
  -28.1720  -26.2310   20.2420 O   0  0  0  0  0  0  0  0  0  0  0  0
  -24.6550  -31.9280   23.2500 C   0  0  0  0  0  0  0  0  0  0  0  0
  -27.1610  -27.2520   20.1560 C   0  0  0  0  0  0  0  0  0  0  0  0
  -23.4330  -30.5530   21.6120 C   0  0  0  0  0  3  0  0  0  0  0  0
  -24.8590  -29.0110   20.1480 C   0  0  0  0  0  0  0  0  0  0  0  0
  -25.9850  -30.8240   21.4200 C   0  0  0  0  0  2  0  0  0  0  0  0
  -26.0440  -29.4410   20.7570 C   0  0  0  0  0  0  0  0  0  0  0  0
  -27.1990  -28.5740   20.7520 C   0  0  0  0  0  3  0  0  0  0  0  0
  -25.9530  -26.9410   19.4870 C   0  0  0  0  0  3  0  0  0  0  0  0
  -24.8270  -27.7770   19.4980 C   0  0  0  0  0  3  0  0  0  0  0  0
  -23.6340  -29.9060   20.2200 C   0  0  0  0  0  2  0  0  0  0  0  0
  -24.7120  -31.1220   22.1500 N   0  0  0  0  0  0  0  0  0  0  0  0
  -23.5770  -32.2090   23.7960 O   0  0  0  0  0  0  0  0  0  0  0  0
  -22.7710  -29.5290   22.5680 C   0  0  0  0  0  0  0  0  0  0  0  0
  -21.4430  -29.3470   22.4470 N   0  0  0  0  0  0  0  0  0  0  0  0
  -23.4530  -28.9040   23.3840 O   0  0  0  0  0  0  0  0  0  0  0  0
  -20.9500  -29.9020   21.7610 H   0  0  0  0  0  0  0  0  0  0  0  0
  -18.0700  -28.1290   22.9520 C   0  0  0  0  0  0  0  0  0  0  0  0
  -20.6280  -28.4020   23.2160 C   0  0  0  0  0  3  0  0  0  0  0  0
  -20.7380  -26.9700   22.6380 C   0  0  0  0  0  2  0  0  0  0  0  0
  -19.6330  -26.6460   21.6280 C   0  0  0  0  0  2  0  0  0  0  0  0
  -18.2520  -26.7830   22.2730 C   0  0  0  0  0  2  0  0  0  0  0  0
  -19.1860  -28.8950   23.3800 C   0  0  0  0  0  0  0  0  0  0  0  0
  -18.9620  -30.1570   23.9760 C   0  0  0  0  0  3  0  0  0  0  0  0
  -17.6540  -30.6480   24.1480 C   0  0  0  0  0  3  0  0  0  0  0  0
  -16.5530  -29.8770   23.7380 C   0  0  0  0  0  3  0  0  0  0  0  0
  -16.7610  -28.6190   23.1430 C   0  0  0  0  0  3  0  0  0  0  0  0
  -25.9440  -32.5560   23.8650 C   0  0  0  0  0  3  0  0  0  0  0  0
  -26.4630  -31.7800   25.1380 C   0  0  1  0  0  0  0  0  0  0  0  0
  -25.3710  -31.5470   26.2090 C   0  0  0  0  0  1  0  0  0  0  0  0
  -27.0390  -30.4000   24.7430 C   0  0  0  0  0  1  0  0  0  0  0  0
  -27.6200  -32.5690   25.7930 C   0  0  0  0  0  1  0  0  0  0  0  0
  -25.6440  -33.9540   24.2050 N   0  0  0  0  0  0  0  0  0  0  0  0
  -25.9460  -35.0090   23.4370 C   0  0  0  0  0  0  0  0  0  0  0  0
  -26.5800  -34.9100   22.3830 O   0  0  0  0  0  0  0  0  0  0  0  0
  -25.0850  -34.1050   25.0310 H   0  0  0  0  0  0  0  0  0  0  0  0
  -24.1980  -36.7970   23.1510 C   0  0  0  0  0  1  0  0  0  0  0  0
  -25.4710  -36.3950   23.9140 C   0  0  0  0  0  3  0  0  0  0  0  0
  -27.6240  -37.2930   24.6740 C   0  0  0  0  0  1  0  0  0  0  0  0
  -26.4940  -37.4530   23.7650 N   0  0  0  0  0  0  0  0  0  0  0  0
  -26.0870  -38.3700   23.9270 H   0  0  0  0  0  0  0  0  0  0  0  0
  2  3  1  0
  3  8  1  0
  3  1  2  0
  4  5  2  0
  5  1  1  0
  6  2  2  0
  6  4  1  0
  8  7  1  0
  9 18  1  0
  9  8  1  0
 10 18  1  0
 11 16  1  0
 12 13  1  0
 12 11  1  0
 14 13  1  0
 14 23  1  0
 14 15  1  0
 16 10  1  0
 16 15  1  0
 17 10  2  0
 18 19  1  0
 20 21  2  0
 21 40  1  0
 22 21  1  0
 22 25  1  0
 23 24  1  0
 23 20  1  0
 24 22  2  0
 25 26  1  0
 26 27  2  0
 28 31  1  0
 28 27  1  0
 29 28  2  0
 30 29  1  0
 30 25  2  0
 31 32  1  0
 32 33  1  0
 33 34  2  0
 35 34  1  0
 35 39  1  0
 36 35  2  0
 37 32  2  0
 37 36  1  0
 38 37  1  0
 40 41  1  0
 41 44  1  0
 41 43  1  0
 42 40  2  0
 45 46  1  0
 45 20  1  0
 47 45  1  0
 48 49  1  0
 48  4  1  0
 50 61  2  0
 51 49  1  0
 51 56  1  0
 52 60  1  0
 52 62  1  0
 53 59  1  0
 53 55  1  0
 54 60  1  0
 55 54  1  0
 56 55  2  0
 57 58  1  0
 57 51  2  0
 58 53  2  0
 59 52  1  0
 60 50  1  0
 62 64  2  0
 63 62  1  0
 65 63  1  0
 66 75  2  0
 66 71  1  0
 67 63  1  0
 67 71  1  0
 68 67  1  0
 69 70  1  0
 69 68  1  0
 70 66  1  0
 71 72  2  0
 72 73  1  0
 74 73  2  0
 75 74  1  0
 76 50  1  0
 76 81  1  0
 76 77  1  0
 77 80  1  1
 77 78  1  0
 79 77  1  0
 81 84  1  0
 82 86  1  0
 82 81  1  0
 83 82  2  0
 86 85  1  0
 88 86  1  0
 88 89  1  0
 88 87  1  0
M  ISO  4  10 100  18 100  48 101  49 101
M  END
>  <TORSDO>  (45) 
F 19

>  <SCORE>  (45) 
-14.289

>  <name>  (45) 
44

>  <ligand_id>  (45) 
44

>  <original_smiles>  (45) 
[H]c1nc(C([H])([H])Oc2c([H])c([H])c3c(c2[H])C([H])([H])N(C(=O)C([H])(N([H])C(=O)C([H])(N([H])C([H])([H])[H])C([H])([H])[H])C(C([H])([H])[H])(C([H])([H])[H])C([H])([H])[H])C([H])(C(=O)N([H])C2([H])c4c([H])c([H])c([H])c([H])c4C([H])([H])C([H])([H])C2([H])[H])C3([H])[H])nc([H])c1C([H])(C([H])([H])[H])C([H])([H])N([H])C(=O)N1C([H])([H])C([H])([H])C([H])([H])C([H])(n2nc(-c3c([H])c([H])c(Oc4c([H])c([H])c(F)c([H])c4F)c([H])c3[H])c(C(=O)N([H])[H])c2N([H])[H])C1([H])[H]

>  <smiles>  (45) 
[H]c1nc(C([H])([H])Oc2c([H])c([H])c3c(c2[H])C([H])([H])N(C(=O)C([H])(N([H])C(=O)C([H])(N([H])C([H])([H])[H])C([H])([H])[H])C(C([H])([H])[H])(C([H])([H])[H])C([H])([H])[H])C([H])(C(=O)N([H])C2([H])c4c([H])c([H])c([H])c([H])c4C([H])([H])C([H])([H])C2([H])[H])C3([H])[H])nc([H])c1C([H])(C([H])([H])[H])C([H])([H])N([H])C(=O)N1C([H])([H])C([H])([H])C([H])([H])C([H])(n2nc(-c3c([H])c([H])c(Oc4c([H])c([H])c(F)c([H])c4F)c([H])c3[H])c(C(=O)N([H])[H])c2N([H])[H])C1([H])[H]

$$$$
45:0:0
     RDKit          3D

 88 96  0  0  1  0  0  0  0  0999 V2000
  -29.5250  -21.6070   22.0480 C   0  0  0  0  0  0  0  0  0  0  0  0
  -29.4280  -20.2770   20.1950 C   0  0  0  0  0  0  0  0  0  0  0  0
  -28.7940  -22.7970   20.2290 C   0  0  0  0  0  0  0  0  0  0  0  0
  -29.8560  -21.6600   23.5250 C   0  0  0  0  0  1  0  0  0  0  0  0
  -29.6820  -20.3930   21.4940 N   0  0  0  0  0  4  0  0  0  0  0  0
  -29.1240  -22.7770   21.5190 N   0  0  0  0  0  0  0  0  0  0  0  0
  -28.9600  -21.5060   19.5440 N   0  0  0  0  0  2  0  0  0  0  0  0
  -29.8970  -18.6820   19.5390 C   0  0  0  0  0  2  0  0  0  0  0  0
  -30.5780  -15.7480   19.8320 C   0  0  0  0  0  0  0  0  0  0  0  0
  -30.6010  -13.2500   19.0280 C   0  0  0  0  0  2  0  0  0  0  0  0
  -29.6350  -12.9490   17.8510 C   0  0  0  0  0  2  0  0  0  0  0  0
  -28.2250  -12.6270   18.3710 C   0  0  0  0  0  2  0  0  0  0  0  0
  -27.7940  -13.6060   19.4900 C   0  0  0  0  0  3  0  0  0  0  0  0
  -28.8890  -13.8450   20.5560 C   0  0  0  0  0  2  0  0  0  0  0  0
  -30.0570  -14.4060   19.8520 N   0  0  0  0  0  0  0  0  0  0  0  0
  -31.7720  -15.7480   19.4920 O   0  0  0  0  0  0  0  0  0  0  0  0
  -29.8090  -17.0360   19.9900 N   0  0  0  0  0  0  0  0  0  0  0  0
  -28.8860  -16.8470   20.3520 H   0  0  0  0  0  0  0  0  0  0  0  0
  -25.4890  -14.1170   20.4410 C   0  0  0  0  0  0  0  0  0  0  0  0
  -24.4520  -13.3230   20.8410 C   0  0  0  0  0  0  0  0  0  0  0  0
  -24.9080  -11.9750   20.7010 C   0  0  0  0  0  0  0  0  0  0  0  0
  -26.5070  -13.2550   20.0750 N   0  0  0  0  0  0  0  0  0  0  0  0
  -26.1750  -11.9560   20.2990 N   0  0  0  0  0  0  0  0  0  0  0  0
  -24.1860  -10.7060   20.8710 C   0  0  0  0  0  0  0  0  0  0  0  0
  -24.6150   -9.7290   21.7950 C   0  0  0  0  0  3  0  0  0  0  0  0
  -23.8900   -8.5280   21.9550 C   0  0  0  0  0  3  0  0  0  0  0  0
  -22.7220   -8.2960   21.1910 C   0  0  0  0  0  0  0  0  0  0  0  0
  -22.3120   -9.2630   20.2560 C   0  0  0  0  0  3  0  0  0  0  0  0
  -23.0380  -10.4550   20.0940 C   0  0  0  0  0  3  0  0  0  0  0  0
  -21.9690   -7.1490   21.2610 O   0  0  0  0  0  0  0  0  0  0  0  0
  -21.8550   -6.4330   22.4260 C   0  0  0  0  0  0  0  0  0  0  0  0
  -21.2970   -6.9940   23.5950 C   0  0  0  0  0  3  0  0  0  0  0  0
  -21.1350   -6.2010   24.7480 C   0  0  0  0  0  3  0  0  0  0  0  0
  -21.5200   -4.8480   24.7330 C   0  0  0  0  0  0  0  0  0  0  0  0
  -22.0720   -4.2860   23.5680 C   0  0  0  0  0  3  0  0  0  0  0  0
  -22.2350   -5.0760   22.4170 C   0  0  0  0  0  0  0  0  0  0  0  0
  -22.7460   -4.5220   21.2910 F   0  0  0  0  0  0  0  0  0  0  0  0
  -21.3590   -4.0840   25.8400 F   0  0  0  0  0  0  0  0  0  0  0  0
  -23.0800  -13.7890   21.2280 C   0  0  0  0  0  0  0  0  0  0  0  0
  -22.4100  -13.0540   22.1080 N   0  0  0  0  0  0  0  0  0  0  0  0
  -22.6150  -14.8390   20.7880 O   0  0  0  0  0  0  0  0  0  0  0  0
  -22.8010  -12.2040   22.4840 H   0  0  0  0  0  0  0  0  0  0  0  0
  -21.4920  -13.3470   22.4110 H   0  0  0  0  0  0  0  0  0  0  0  0
  -25.6460  -15.4950   20.3270 N   0  0  0  0  0  0  0  0  0  0  0  0
  -24.8850  -16.1390   20.5190 H   0  0  0  0  0  0  0  0  0  0  0  0
  -26.4540  -15.9490   19.9210 H   0  0  0  0  0  0  0  0  0  0  0  0
  -28.0380  -24.3440   19.7130 C   0  0  0  0  0  2  0  0  0  0  0  0
  -28.1810  -25.9840   20.1190 O   0  0  0  0  0  0  0  0  0  0  0  0
  -24.6580  -31.9950   23.2030 C   0  0  0  0  0  0  0  0  0  0  0  0
  -27.1870  -27.1270   20.0430 C   0  0  0  0  0  0  0  0  0  0  0  0
  -23.4440  -30.6160   21.5650 C   0  0  0  0  0  3  0  0  0  0  0  0
  -24.8790  -29.0430   20.0780 C   0  0  0  0  0  0  0  0  0  0  0  0
  -26.0100  -30.8310   21.3770 C   0  0  0  0  0  2  0  0  0  0  0  0
  -26.0770  -29.4270   20.6900 C   0  0  0  0  0  0  0  0  0  0  0  0
  -27.2180  -28.4910   20.6520 C   0  0  0  0  0  3  0  0  0  0  0  0
  -25.9600  -26.9240   19.3680 C   0  0  0  0  0  3  0  0  0  0  0  0
  -24.8500  -27.8160   19.3950 C   0  0  0  0  0  3  0  0  0  0  0  0
  -23.6540  -29.9580   20.1720 C   0  0  0  0  0  2  0  0  0  0  0  0
  -24.7270  -31.1760   22.1010 N   0  0  0  0  0  0  0  0  0  0  0  0
  -23.5760  -32.2670   23.7500 O   0  0  0  0  0  0  0  0  0  0  0  0
  -22.7750  -29.6030   22.5280 C   0  0  0  0  0  0  0  0  0  0  0  0
  -21.4590  -29.3630   22.3720 N   0  0  0  0  0  0  0  0  0  0  0  0
  -23.4470  -29.0300   23.3890 O   0  0  0  0  0  0  0  0  0  0  0  0
  -20.9640  -29.8780   21.6560 H   0  0  0  0  0  0  0  0  0  0  0  0
  -18.1580  -27.8980   22.7490 C   0  0  0  0  0  0  0  0  0  0  0  0
  -20.6690  -28.3900   23.1370 C   0  0  0  0  0  3  0  0  0  0  0  0
  -20.9190  -26.9510   22.6300 C   0  0  0  0  0  2  0  0  0  0  0  0
  -19.9080  -26.4980   21.5730 C   0  0  0  0  0  2  0  0  0  0  0  0
  -18.4840  -26.5460   22.1360 C   0  0  0  0  0  2  0  0  0  0  0  0
  -19.1830  -28.7700   23.2040 C   0  0  0  0  0  0  0  0  0  0  0  0
  -18.8230  -30.0260   23.7390 C   0  0  0  0  0  3  0  0  0  0  0  0
  -17.4730  -30.4140   23.8220 C   0  0  0  0  0  3  0  0  0  0  0  0
  -16.4620  -29.5430   23.3810 C   0  0  0  0  0  3  0  0  0  0  0  0
  -16.8050  -28.2860   22.8500 C   0  0  0  0  0  3  0  0  0  0  0  0
  -25.9330  -32.6420   23.8220 C   0  0  0  0  0  3  0  0  0  0  0  0
  -25.6110  -34.0380   24.1740 N   0  0  0  0  0  0  0  0  0  0  0  0
  -25.9300  -35.1100   23.4360 C   0  0  0  0  0  0  0  0  0  0  0  0
  -26.5840  -35.0300   22.3950 O   0  0  0  0  0  0  0  0  0  0  0  0
  -25.0260  -34.1740   24.9850 H   0  0  0  0  0  0  0  0  0  0  0  0
  -24.1880  -36.9090   23.1550 C   0  0  0  0  0  1  0  0  0  0  0  0
  -25.4490  -36.4920   23.9300 C   0  0  0  0  0  3  0  0  0  0  0  0
  -27.5890  -37.3850   24.7420 C   0  0  0  0  0  1  0  0  0  0  0  0
  -26.4750  -37.5510   23.8130 N   0  0  0  0  0  0  0  0  0  0  0  0
  -26.0650  -38.4690   23.9710 H   0  0  0  0  0  0  0  0  0  0  0  0
  -26.4590  -31.8730   25.0980 C   0  0  1  0  0  0  0  0  0  0  0  0
  -25.3660  -31.6070   26.1610 C   0  0  0  0  0  1  0  0  0  0  0  0
  -27.0730  -30.5100   24.7100 C   0  0  0  0  0  1  0  0  0  0  0  0
  -27.5900  -32.6880   25.7700 C   0  0  0  0  0  1  0  0  0  0  0  0
  1  4  1  0
  2  5  2  0
  3  6  2  0
  5  1  2  0
  6  1  1  0
  7  2  1  0
  7  3  1  0
  8 17  1  0
  8  2  1  0
  9 15  1  0
  9 17  1  0
 10 15  1  0
 11 12  1  0
 11 10  1  0
 13 12  1  0
 13 22  1  0
 13 14  1  0
 15 14  1  0
 16  9  2  0
 17 18  1  0
 19 20  2  0
 20 39  1  0
 21 20  1  0
 21 24  1  0
 22 23  1  0
 22 19  1  0
 23 21  2  0
 24 25  1  0
 25 26  2  0
 27 30  1  0
 27 26  1  0
 28 27  2  0
 29 28  1  0
 29 24  2  0
 30 31  1  0
 31 32  1  0
 32 33  2  0
 34 33  1  0
 34 38  1  0
 35 34  2  0
 36 31  2  0
 36 35  1  0
 37 36  1  0
 39 40  1  0
 40 43  1  0
 40 42  1  0
 41 39  2  0
 44 19  1  0
 44 45  1  0
 46 44  1  0
 47 48  1  0
 47  3  1  0
 49 60  2  0
 50 48  1  0
 50 55  1  0
 51 59  1  0
 51 61  1  0
 52 58  1  0
 52 54  1  0
 53 59  1  0
 54 53  1  0
 55 54  2  0
 56 57  1  0
 56 50  2  0
 57 52  2  0
 58 51  1  0
 59 49  1  0
 61 63  2  0
 62 61  1  0
 64 62  1  0
 65 74  2  0
 65 70  1  0
 66 62  1  0
 66 70  1  0
 67 66  1  0
 68 69  1  0
 68 67  1  0
 69 65  1  0
 70 71  2  0
 71 72  1  0
 73 72  2  0
 74 73  1  0
 75 49  1  0
 75 76  1  0
 75 85  1  0
 76 79  1  0
 77 81  1  0
 77 76  1  0
 78 77  2  0
 81 80  1  0
 83 81  1  0
 83 84  1  0
 83 82  1  0
 85 88  1  1
 85 86  1  0
 87 85  1  0
M  ISO  4   9 100  17 100  47 101  48 101
M  END
>  <TORSDO>  (46) 
F 18

>  <SCORE>  (46) 
-16.323

>  <name>  (46) 
45

>  <ligand_id>  (46) 
45

>  <original_smiles>  (46) 
[H]c1c([H])c([H])c2c(c1[H])C([H])([H])C([H])([H])C([H])([H])C2([H])N([H])C(=O)C1([H])N(C(=O)C([H])(N([H])C(=O)C([H])(N([H])C([H])([H])[H])C([H])([H])[H])C(C([H])([H])[H])(C([H])([H])[H])C([H])([H])[H])C([H])([H])c2c([H])c(OC([H])([H])c3nc(C([H])([H])[H])nc(C([H])([H])N([H])C(=O)N4C([H])([H])C([H])([H])C([H])([H])C([H])(n5nc(-c6c([H])c([H])c(Oc7c([H])c([H])c(F)c([H])c7F)c([H])c6[H])c(C(=O)N([H])[H])c5N([H])[H])C4([H])[H])n3)c([H])c([H])c2C1([H])[H]

>  <smiles>  (46) 
[H]c1c([H])c([H])c2c(c1[H])C([H])([H])C([H])([H])C([H])([H])C2([H])N([H])C(=O)C1([H])N(C(=O)C([H])(N([H])C(=O)C([H])(N([H])C([H])([H])[H])C([H])([H])[H])C(C([H])([H])[H])(C([H])([H])[H])C([H])([H])[H])C([H])([H])c2c([H])c(OC([H])([H])c3nc(C([H])([H])[H])nc(C([H])([H])N([H])C(=O)N4C([H])([H])C([H])([H])C([H])([H])C([H])(n5nc(-c6c([H])c([H])c(Oc7c([H])c([H])c(F)c([H])c7F)c([H])c6[H])c(C(=O)N([H])[H])c5N([H])[H])C4([H])[H])n3)c([H])c([H])c2C1([H])[H]

$$$$
46:0:0
     RDKit          3D

 88 96  0  0  1  0  0  0  0  0999 V2000
  -29.2240  -21.8910   21.7480 C   0  0  0  0  0  3  0  0  0  0  0  0
  -29.2630  -21.3050   19.6740 C   0  0  0  0  0  3  0  0  0  0  0  0
  -29.1880  -22.4680   20.4370 C   0  0  0  0  0  0  0  0  0  0  0  0
  -29.3020  -20.5460   21.7670 N   0  0  0  0  0  0  0  0  0  0  0  0
  -29.3490  -20.1440   20.4740 N   0  0  0  0  0  0  0  0  0  0  0  0
  -29.1820  -23.9930   19.9860 C   0  0  0  0  0  3  0  0  0  0  0  0
  -28.1780  -25.0810   20.6060 C   0  0  0  0  0  3  0  0  0  0  0  0
  -28.3470  -26.5230   20.2320 O   0  0  0  0  0  0  0  0  0  0  0  0
  -24.6090  -31.9480   23.2550 C   0  0  0  0  0  0  0  0  0  0  0  0
  -27.2240  -27.3740   20.2140 C   0  0  0  0  0  0  0  0  0  0  0  0
  -23.4050  -30.5420   21.6220 C   0  0  0  0  0  3  0  0  0  0  0  0
  -24.8560  -28.9900   20.1970 C   0  0  0  0  0  0  0  0  0  0  0  0
  -25.9430  -30.8660   21.4300 C   0  0  0  0  0  2  0  0  0  0  0  0
  -26.0260  -29.4830   20.7880 C   0  0  0  0  0  0  0  0  0  0  0  0
  -27.2140  -28.6890   20.7820 C   0  0  0  0  0  3  0  0  0  0  0  0
  -26.0350  -26.9420   19.5880 C   0  0  0  0  0  3  0  0  0  0  0  0
  -24.8640  -27.7260   19.5850 C   0  0  0  0  0  3  0  0  0  0  0  0
  -23.6170  -29.8620   20.2430 C   0  0  0  0  0  2  0  0  0  0  0  0
  -24.6710  -31.1370   22.1590 N   0  0  0  0  0  0  0  0  0  0  0  0
  -23.5260  -32.2230   23.7930 O   0  0  0  0  0  0  0  0  0  0  0  0
  -22.7470  -29.5270   22.5870 C   0  0  0  0  0  0  0  0  0  0  0  0
  -21.4220  -29.3400   22.4600 N   0  0  0  0  0  0  0  0  0  0  0  0
  -23.4290  -28.9100   23.4100 O   0  0  0  0  0  0  0  0  0  0  0  0
  -20.9300  -29.8900   21.7700 H   0  0  0  0  0  0  0  0  0  0  0  0
  -18.0540  -28.1170   22.9590 C   0  0  0  0  0  0  0  0  0  0  0  0
  -20.6090  -28.4000   23.2340 C   0  0  0  0  0  3  0  0  0  0  0  0
  -20.7260  -26.9660   22.6700 C   0  0  0  0  0  2  0  0  0  0  0  0
  -19.6290  -26.6260   21.6540 C   0  0  0  0  0  2  0  0  0  0  0  0
  -18.2440  -26.7640   22.2930 C   0  0  0  0  0  2  0  0  0  0  0  0
  -19.1640  -28.8900   23.3870 C   0  0  0  0  0  0  0  0  0  0  0  0
  -18.9320  -30.1550   23.9700 C   0  0  0  0  0  3  0  0  0  0  0  0
  -17.6230  -30.6460   24.1280 C   0  0  0  0  0  3  0  0  0  0  0  0
  -16.5270  -29.8690   23.7160 C   0  0  0  0  0  3  0  0  0  0  0  0
  -16.7430  -28.6050   23.1370 C   0  0  0  0  0  3  0  0  0  0  0  0
  -25.8910  -32.5870   23.8730 C   0  0  0  0  0  3  0  0  0  0  0  0
  -26.4050  -31.8280   25.1580 C   0  0  1  0  0  0  0  0  0  0  0  0
  -25.3090  -31.6030   26.2270 C   0  0  0  0  0  1  0  0  0  0  0  0
  -26.9870  -30.4470   24.7810 C   0  0  0  0  0  1  0  0  0  0  0  0
  -27.5540  -32.6290   25.8140 C   0  0  0  0  0  1  0  0  0  0  0  0
  -25.5800  -33.9890   24.1910 N   0  0  0  0  0  0  0  0  0  0  0  0
  -25.9160  -35.0350   23.4240 C   0  0  0  0  0  0  0  0  0  0  0  0
  -26.5880  -34.9220   22.3960 O   0  0  0  0  0  0  0  0  0  0  0  0
  -24.9830  -34.1500   24.9880 H   0  0  0  0  0  0  0  0  0  0  0  0
  -24.1970  -36.8330   23.0470 C   0  0  0  0  0  1  0  0  0  0  0  0
  -25.4310  -36.4290   23.8700 C   0  0  0  0  0  3  0  0  0  0  0  0
  -27.5610  -37.3120   24.7120 C   0  0  0  0  0  1  0  0  0  0  0  0
  -26.4680  -37.4770   23.7580 N   0  0  0  0  0  0  0  0  0  0  0  0
  -26.0640  -38.4010   23.8940 H   0  0  0  0  0  0  0  0  0  0  0  0
  -29.2260  -18.6860   20.0590 C   0  0  0  0  0  3  0  0  0  0  0  0
  -30.1120  -17.4510   20.6550 C   0  0  0  0  0  3  0  0  0  0  0  0
  -30.6140  -14.8740   20.3040 C   0  0  0  0  0  0  0  0  0  0  0  0
  -30.4500  -12.5540   19.3810 C   0  0  0  0  0  2  0  0  0  0  0  0
  -29.5160  -12.5060   18.1510 C   0  0  0  0  0  2  0  0  0  0  0  0
  -28.0320  -12.4010   18.5710 C   0  0  0  0  0  2  0  0  0  0  0  0
  -27.6380  -13.3120   19.7680 C   0  0  0  0  0  3  0  0  0  0  0  0
  -28.7030  -13.2960   20.8840 C   0  0  0  0  0  2  0  0  0  0  0  0
  -29.9870  -13.6450   20.2650 N   0  0  0  0  0  0  0  0  0  0  0  0
  -31.8430  -14.9370   20.2020 O   0  0  0  0  0  0  0  0  0  0  0  0
  -29.2500  -16.1490   18.7780 C   0  0  0  0  0  1  0  0  0  0  0  0
  -29.8400  -16.0280   20.1210 N   0  0  0  0  0  0  0  0  0  0  0  0
  -25.2500  -13.9030   20.4840 C   0  0  0  0  0  0  0  0  0  0  0  0
  -24.1840  -13.1250   20.8470 C   0  0  0  0  0  0  0  0  0  0  0  0
  -24.6580  -11.7780   20.8340 C   0  0  0  0  0  0  0  0  0  0  0  0
  -26.3000  -13.0250   20.2650 N   0  0  0  0  0  0  0  0  0  0  0  0
  -25.9520  -11.7440   20.5420 N   0  0  0  0  0  0  0  0  0  0  0  0
  -23.9410  -10.5120   21.0240 C   0  0  0  0  0  0  0  0  0  0  0  0
  -24.3730   -9.5550   21.9680 C   0  0  0  0  0  3  0  0  0  0  0  0
  -23.6570   -8.3530   22.1460 C   0  0  0  0  0  3  0  0  0  0  0  0
  -22.4940   -8.0990   21.3780 C   0  0  0  0  0  0  0  0  0  0  0  0
  -22.0830   -9.0450   20.4230 C   0  0  0  0  0  3  0  0  0  0  0  0
  -22.8010  -10.2380   20.2430 C   0  0  0  0  0  3  0  0  0  0  0  0
  -21.7500   -6.9480   21.4670 O   0  0  0  0  0  0  0  0  0  0  0  0
  -21.6920   -6.2150   22.6250 C   0  0  0  0  0  0  0  0  0  0  0  0
  -21.2340   -6.7740   23.8380 C   0  0  0  0  0  3  0  0  0  0  0  0
  -21.1240   -5.9670   24.9880 C   0  0  0  0  0  3  0  0  0  0  0  0
  -21.4630   -4.6020   24.9250 C   0  0  0  0  0  0  0  0  0  0  0  0
  -21.9130   -4.0430   23.7160 C   0  0  0  0  0  3  0  0  0  0  0  0
  -22.0240   -4.8470   22.5690 C   0  0  0  0  0  0  0  0  0  0  0  0
  -22.4390   -4.2990   21.4020 F   0  0  0  0  0  0  0  0  0  0  0  0
  -21.3490   -3.8240   26.0270 F   0  0  0  0  0  0  0  0  0  0  0  0
  -22.7810  -13.5950   21.0960 C   0  0  0  0  0  0  0  0  0  0  0  0
  -22.0460  -12.8980   21.9560 N   0  0  0  0  0  0  0  0  0  0  0  0
  -22.3430  -14.6140   20.5630 O   0  0  0  0  0  0  0  0  0  0  0  0
  -22.4130  -12.0740   22.4080 H   0  0  0  0  0  0  0  0  0  0  0  0
  -21.1040  -13.1940   22.1660 H   0  0  0  0  0  0  0  0  0  0  0  0
  -25.4080  -15.2740   20.2990 N   0  0  0  0  0  0  0  0  0  0  0  0
  -24.6410  -15.9300   20.4050 H   0  0  0  0  0  0  0  0  0  0  0  0
  -26.2730  -15.7170   20.0180 H   0  0  0  0  0  0  0  0  0  0  0  0
  1  4  2  0
  2  3  2  0
  2  5  1  0
  3  1  1  0
  5  4  1  0
  6  3  1  0
  6  7  2  0
  8  7  1  0
  9 20  2  0
 10  8  1  0
 10 15  1  0
 11 19  1  0
 11 21  1  0
 12 18  1  0
 12 14  1  0
 13 19  1  0
 14 13  1  0
 15 14  2  0
 16 10  2  0
 17 16  1  0
 17 12  2  0
 18 11  1  0
 19  9  1  0
 21 23  2  0
 22 21  1  0
 24 22  1  0
 25 34  2  0
 25 30  1  0
 26 22  1  0
 26 30  1  0
 27 26  1  0
 28 29  1  0
 28 27  1  0
 29 25  1  0
 30 31  2  0
 31 32  1  0
 33 32  2  0
 34 33  1  0
 35  9  1  0
 35 40  1  0
 35 36  1  0
 36 39  1  1
 36 37  1  0
 38 36  1  0
 40 43  1  0
 41 45  1  0
 41 40  1  0
 42 41  2  0
 45 44  1  0
 47 45  1  0
 47 48  1  0
 47 46  1  0
 49  5  1  0
 49 50  2  0
 52 57  1  0
 53 54  1  0
 53 52  1  0
 55 54  1  0
 55 64  1  0
 55 56  1  0
 57 51  1  0
 57 56  1  0
 58 51  2  0
 59 60  1  0
 60 51  1  0
 60 50  1  0
 61 62  2  0
 62 81  1  0
 63 62  1  0
 63 66  1  0
 64 61  1  0
 64 65  1  0
 65 63  2  0
 66 67  1  0
 67 68  2  0
 69 72  1  0
 69 68  1  0
 70 69  2  0
 71 70  1  0
 71 66  2  0
 72 73  1  0
 73 74  1  0
 74 75  2  0
 76 75  1  0
 76 80  1  0
 77 76  2  0
 78 73  2  0
 78 77  1  0
 79 78  1  0
 81 82  1  0
 82 85  1  0
 82 84  1  0
 83 81  2  0
 86 87  1  0
 86 61  1  0
 88 86  1  0
M  ISO  4   7 101   8 101  51 100  60 100
M  END
>  <TORSDO>  (47) 
F 20

>  <SCORE>  (47) 
-13.425

>  <name>  (47) 
46

>  <ligand_id>  (47) 
46

>  <original_smiles>  (47) 
[H]c1nn(C([H])([H])C([H])([H])N(C(=O)N2C([H])([H])C([H])([H])C([H])([H])C([H])(n3nc(-c4c([H])c([H])c(Oc5c([H])c([H])c(F)c([H])c5F)c([H])c4[H])c(C(=O)N([H])[H])c3N([H])[H])C2([H])[H])C([H])([H])[H])c([H])c1C([H])([H])C([H])([H])Oc1c([H])c([H])c2c(c1[H])C([H])([H])N(C(=O)C([H])(N([H])C(=O)C([H])(N([H])C([H])([H])[H])C([H])([H])[H])C(C([H])([H])[H])(C([H])([H])[H])C([H])([H])[H])C([H])(C(=O)N([H])C1([H])c3c([H])c([H])c([H])c([H])c3C([H])([H])C([H])([H])C1([H])[H])C2([H])[H]

>  <smiles>  (47) 
[H]c1nn(C([H])([H])C([H])([H])N(C(=O)N2C([H])([H])C([H])([H])C([H])([H])C([H])(n3nc(-c4c([H])c([H])c(Oc5c([H])c([H])c(F)c([H])c5F)c([H])c4[H])c(C(=O)N([H])[H])c3N([H])[H])C2([H])[H])C([H])([H])[H])c([H])c1C([H])([H])C([H])([H])Oc1c([H])c([H])c2c(c1[H])C([H])([H])N(C(=O)C([H])(N([H])C(=O)C([H])(N([H])C([H])([H])[H])C([H])([H])[H])C(C([H])([H])[H])(C([H])([H])[H])C([H])([H])[H])C([H])(C(=O)N([H])C1([H])c3c([H])c([H])c([H])c([H])c3C([H])([H])C([H])([H])C1([H])[H])C2([H])[H]

$$$$
47:0:0
     RDKit          3D

 93101  0  0  1  0  0  0  0  0999 V2000
  -29.1120  -22.8710   20.7560 C   0  0  0  0  0  3  0  0  0  0  0  0
  -29.5250  -22.0600   19.6440 C   0  0  0  0  0  0  0  0  0  0  0  0
  -28.7530  -24.1090   20.2510 C   0  0  0  0  0  0  0  0  0  0  0  0
  -28.7320  -24.9820   17.8340 C   0  0  0  0  0  1  0  0  0  0  0  0
  -29.4240  -22.7810   18.5310 N   0  0  0  0  0  0  0  0  0  0  0  0
  -28.9590  -24.0070   18.8850 N   0  0  0  0  0  0  0  0  0  0  0  0
  -30.0710  -20.6110   19.5080 C   0  0  0  0  0  2  0  0  0  0  0  0
  -30.4150  -19.7580   21.8170 C   0  0  0  0  0  1  0  0  0  0  0  0
  -29.6660  -19.6030   20.5470 N   0  0  2  0  0  4  0  0  0  0  0  0
  -28.7240  -19.8940   20.7540 H   0  0  0  0  0  0  0  0  0  0  0  0
  -28.1340  -17.6480   20.5980 C   0  0  0  0  0  1  0  0  0  0  0  0
  -29.4970  -18.1590   20.0940 C   0  0  0  0  0  3  0  0  0  0  0  0
  -30.6440  -17.1250   20.4620 C   0  0  0  0  0  2  0  0  0  0  0  0
  -30.9530  -14.6030   20.0670 C   0  0  0  0  0  0  0  0  0  0  0  0
  -30.6550  -12.3400   19.1050 C   0  0  0  0  0  2  0  0  0  0  0  0
  -29.6820  -12.4240   17.9080 C   0  0  0  0  0  2  0  0  0  0  0  0
  -28.2200  -12.3120   18.3840 C   0  0  0  0  0  2  0  0  0  0  0  0
  -27.9040  -13.2510   19.5790 C   0  0  0  0  0  3  0  0  0  0  0  0
  -28.9860  -13.1360   20.6760 C   0  0  0  0  0  2  0  0  0  0  0  0
  -30.2910  -13.4080   20.0510 N   0  0  0  0  0  0  0  0  0  0  0  0
  -32.0900  -14.7300   19.6050 O   0  0  0  0  0  0  0  0  0  0  0  0
  -30.2310  -15.6860   20.4530 N   0  0  0  0  0  0  0  0  0  0  0  0
  -29.3020  -15.4850   20.7930 H   0  0  0  0  0  0  0  0  0  0  0  0
  -25.5630  -13.9340   20.3970 C   0  0  0  0  0  0  0  0  0  0  0  0
  -24.4830  -13.1970   20.8010 C   0  0  0  0  0  0  0  0  0  0  0  0
  -24.8880  -11.8280   20.7290 C   0  0  0  0  0  0  0  0  0  0  0  0
  -26.5630  -13.0170   20.1090 N   0  0  0  0  0  0  0  0  0  0  0  0
  -26.1630  -11.7460   20.3670 N   0  0  0  0  0  0  0  0  0  0  0  0
  -24.1220  -10.5920   20.9260 C   0  0  0  0  0  0  0  0  0  0  0  0
  -24.5370   -9.6020   21.8440 C   0  0  0  0  0  3  0  0  0  0  0  0
  -23.7720   -8.4310   22.0270 C   0  0  0  0  0  3  0  0  0  0  0  0
  -22.5780   -8.2400   21.2920 C   0  0  0  0  0  0  0  0  0  0  0  0
  -22.1820   -9.2180   20.3630 C   0  0  0  0  0  3  0  0  0  0  0  0
  -22.9460  -10.3810   20.1770 C   0  0  0  0  0  3  0  0  0  0  0  0
  -21.7850   -7.1210   21.3860 O   0  0  0  0  0  0  0  0  0  0  0  0
  -21.7150   -6.3860   22.5410 C   0  0  0  0  0  0  0  0  0  0  0  0
  -21.3000   -6.9570   23.7650 C   0  0  0  0  0  3  0  0  0  0  0  0
  -21.1720   -6.1490   24.9120 C   0  0  0  0  0  3  0  0  0  0  0  0
  -21.4490   -4.7710   24.8380 C   0  0  0  0  0  0  0  0  0  0  0  0
  -21.8570   -4.1990   23.6200 C   0  0  0  0  0  3  0  0  0  0  0  0
  -21.9860   -5.0040   22.4750 C   0  0  0  0  0  0  0  0  0  0  0  0
  -22.3580   -4.4440   21.2980 F   0  0  0  0  0  0  0  0  0  0  0  0
  -21.3190   -3.9930   25.9380 F   0  0  0  0  0  0  0  0  0  0  0  0
  -23.1170  -13.7230   21.1370 C   0  0  0  0  0  0  0  0  0  0  0  0
  -22.3990  -13.0440   22.0260 N   0  0  0  0  0  0  0  0  0  0  0  0
  -22.6980  -14.7710   20.6480 O   0  0  0  0  0  0  0  0  0  0  0  0
  -22.7520  -12.1970   22.4460 H   0  0  0  0  0  0  0  0  0  0  0  0
  -21.4830  -13.3800   22.2920 H   0  0  0  0  0  0  0  0  0  0  0  0
  -25.7700  -15.2980   20.2240 N   0  0  0  0  0  0  0  0  0  0  0  0
  -25.0110  -15.9630   20.3290 H   0  0  0  0  0  0  0  0  0  0  0  0
  -26.5750  -15.6870   19.7510 H   0  0  0  0  0  0  0  0  0  0  0  0
  -28.1590  -25.3230   20.9870 C   0  0  0  0  0  2  0  0  0  0  0  0
  -28.3930  -26.6130   20.3490 O   0  0  0  0  0  0  0  0  0  0  0  0
  -24.5720  -31.9280   23.2710 C   0  0  0  0  0  0  0  0  0  0  0  0
  -27.2710  -27.4270   20.2970 C   0  0  0  0  0  0  0  0  0  0  0  0
  -23.4010  -30.5010   21.6280 C   0  0  0  0  0  3  0  0  0  0  0  0
  -24.8850  -28.9610   20.2350 C   0  0  0  0  0  0  0  0  0  0  0  0
  -25.9300  -30.8680   21.4620 C   0  0  0  0  0  2  0  0  0  0  0  0
  -26.0370  -29.4870   20.8390 C   0  0  0  0  0  0  0  0  0  0  0  0
  -27.2380  -28.7300   20.8610 C   0  0  0  0  0  3  0  0  0  0  0  0
  -26.1030  -26.9340   19.6800 C   0  0  0  0  0  3  0  0  0  0  0  0
  -24.9180  -27.6890   19.6460 C   0  0  0  0  0  3  0  0  0  0  0  0
  -23.6360  -29.8140   20.2560 C   0  0  0  0  0  2  0  0  0  0  0  0
  -24.6510  -31.1150   22.1780 N   0  0  0  0  0  0  0  0  0  0  0  0
  -23.4800  -32.1970   23.7910 O   0  0  0  0  0  0  0  0  0  0  0  0
  -22.7400  -29.4850   22.5880 C   0  0  0  0  0  0  0  0  0  0  0  0
  -21.4150  -29.3040   22.4540 N   0  0  0  0  0  0  0  0  0  0  0  0
  -23.4170  -28.8640   23.4110 O   0  0  0  0  0  0  0  0  0  0  0  0
  -20.9300  -29.8550   21.7600 H   0  0  0  0  0  0  0  0  0  0  0  0
  -18.0350  -28.1230   22.9450 C   0  0  0  0  0  0  0  0  0  0  0  0
  -20.5920  -28.3710   23.2260 C   0  0  0  0  0  3  0  0  0  0  0  0
  -20.6910  -26.9380   22.6530 C   0  0  0  0  0  2  0  0  0  0  0  0
  -19.5910  -26.6190   21.6350 C   0  0  0  0  0  2  0  0  0  0  0  0
  -18.2080  -26.7710   22.2740 C   0  0  0  0  0  2  0  0  0  0  0  0
  -19.1550  -28.8810   23.3780 C   0  0  0  0  0  0  0  0  0  0  0  0
  -18.9390  -30.1470   23.9650 C   0  0  0  0  0  3  0  0  0  0  0  0
  -17.6370  -30.6540   24.1250 C   0  0  0  0  0  3  0  0  0  0  0  0
  -16.5300  -29.8930   23.7100 C   0  0  0  0  0  3  0  0  0  0  0  0
  -16.7300  -28.6300   23.1250 C   0  0  0  0  0  3  0  0  0  0  0  0
  -25.8430  -32.5750   23.9020 C   0  0  0  0  0  3  0  0  0  0  0  0
  -25.5320  -33.9830   24.1790 N   0  0  0  0  0  0  0  0  0  0  0  0
  -25.8840  -35.0090   23.3900 C   0  0  0  0  0  0  0  0  0  0  0  0
  -26.5740  -34.8680   22.3770 O   0  0  0  0  0  0  0  0  0  0  0  0
  -24.9220  -34.1680   24.9620 H   0  0  0  0  0  0  0  0  0  0  0  0
  -24.1660  -36.7890   22.9420 C   0  0  0  0  0  1  0  0  0  0  0  0
  -25.3920  -36.4130   23.7890 C   0  0  0  0  0  3  0  0  0  0  0  0
  -27.5140  -37.3240   24.6240 C   0  0  0  0  0  1  0  0  0  0  0  0
  -26.4290  -37.4590   23.6560 N   0  0  0  0  0  0  0  0  0  0  0  0
  -26.0220  -38.3840   23.7630 H   0  0  0  0  0  0  0  0  0  0  0  0
  -26.3280  -31.8420   25.2130 C   0  0  1  0  0  0  0  0  0  0  0  0
  -25.2070  -31.6260   26.2550 C   0  0  0  0  0  1  0  0  0  0  0  0
  -26.9300  -30.4580   24.8730 C   0  0  0  0  0  1  0  0  0  0  0  0
  -27.4540  -32.6610   25.8860 C   0  0  0  0  0  1  0  0  0  0  0  0
  2  1  1  0
  3  1  2  0
  3 52  1  0
  4  6  1  0
  5  6  1  0
  5  2  2  0
  6  3  1  0
  7  2  1  0
  7  9  1  0
  9 10  1  1
  9  8  1  0
 12 13  1  0
 12  9  1  0
 12 11  1  0
 14 22  1  0
 15 20  1  0
 16 17  1  0
 16 15  1  0
 18 17  1  0
 18 27  1  0
 18 19  1  0
 20 14  1  0
 20 19  1  0
 21 14  2  0
 22 13  1  0
 22 23  1  0
 24 25  2  0
 25 44  1  0
 26 25  1  0
 26 29  1  0
 27 28  1  0
 27 24  1  0
 28 26  2  0
 29 30  1  0
 30 31  2  0
 32 35  1  0
 32 31  1  0
 33 32  2  0
 34 33  1  0
 34 29  2  0
 35 36  1  0
 36 37  1  0
 37 38  2  0
 39 38  1  0
 39 43  1  0
 40 39  2  0
 41 36  2  0
 41 40  1  0
 42 41  1  0
 44 45  1  0
 45 48  1  0
 45 47  1  0
 46 44  2  0
 49 50  1  0
 49 24  1  0
 51 49  1  0
 53 52  1  0
 54 65  2  0
 55 53  1  0
 55 60  1  0
 56 64  1  0
 56 66  1  0
 57 63  1  0
 57 59  1  0
 58 64  1  0
 59 60  2  0
 59 58  1  0
 61 55  2  0
 62 61  1  0
 62 57  2  0
 63 56  1  0
 64 54  1  0
 66 68  2  0
 67 66  1  0
 69 67  1  0
 70 79  2  0
 70 75  1  0
 71 67  1  0
 71 75  1  0
 72 71  1  0
 73 74  1  0
 73 72  1  0
 74 70  1  0
 75 76  2  0
 76 77  1  0
 78 77  2  0
 79 78  1  0
 80 54  1  0
 80 81  1  0
 80 90  1  0
 81 84  1  0
 82 86  1  0
 82 81  1  0
 83 82  2  0
 86 85  1  0
 88 89  1  0
 88 86  1  0
 88 87  1  0
 90 93  1  1
 90 91  1  0
 92 90  1  0
M  ISO  4  14 100  22 100  52 101  53 101
M  END
>  <TORSDO>  (48) 
F 21

>  <SCORE>  (48) 
-13.218

>  <name>  (48) 
47

>  <ligand_id>  (48) 
47

>  <original_smiles>  (48) 
[H]c1c([H])c([H])c2c(c1[H])C([H])([H])C([H])([H])C([H])([H])C2([H])N([H])C(=O)C1([H])N(C(=O)C([H])(N([H])C(=O)C([H])(N([H])C([H])([H])[H])C([H])([H])[H])C(C([H])([H])[H])(C([H])([H])[H])C([H])([H])[H])C([H])([H])c2c([H])c(OC([H])([H])c3c([H])c(C([H])([H])[N+]([H])(C([H])([H])[H])C([H])(C([H])([H])[H])C([H])([H])N([H])C(=O)N4C([H])([H])C([H])([H])C([H])([H])C([H])(n5nc(-c6c([H])c([H])c(Oc7c([H])c([H])c(F)c([H])c7F)c([H])c6[H])c(C(=O)N([H])[H])c5N([H])[H])C4([H])[H])nn3C([H])([H])[H])c([H])c([H])c2C1([H])[H]

>  <smiles>  (48) 
[H]c1c([H])c([H])c2c(c1[H])C([H])([H])C([H])([H])C([H])([H])C2([H])N([H])C(=O)C1([H])N(C(=O)C([H])(N([H])C(=O)C([H])(N([H])C([H])([H])[H])C([H])([H])[H])C(C([H])([H])[H])(C([H])([H])[H])C([H])([H])[H])C([H])([H])c2c([H])c(OC([H])([H])c3c([H])c(C([H])([H])[N+]([H])(C([H])([H])[H])C([H])(C([H])([H])[H])C([H])([H])N([H])C(=O)N4C([H])([H])C([H])([H])C([H])([H])C([H])(n5nc(-c6c([H])c([H])c(Oc7c([H])c([H])c(F)c([H])c7F)c([H])c6[H])c(C(=O)N([H])[H])c5N([H])[H])C4([H])[H])nn3C([H])([H])[H])c([H])c([H])c2C1([H])[H]

$$$$
48:0:0
     RDKit          3D

 98106  0  0  1  0  0  0  0  0999 V2000
  -28.8380  -21.0030   20.8770 C   0  0  0  0  0  2  0  0  0  0  0  0
  -28.6300  -20.0360   19.6950 C   0  0  0  0  0  2  0  0  0  0  0  0
  -31.8570  -17.3140   19.6880 C   0  0  0  0  0  3  0  0  0  0  0  0
  -30.6130  -16.9700   20.2820 C   0  0  0  0  0  0  0  0  0  0  0  0
  -30.9950  -19.3210   18.9560 C   0  0  0  0  0  0  0  0  0  0  0  0
  -29.7690  -19.0310   19.6110 C   0  0  0  0  0  0  0  0  0  0  0  0
  -32.0400  -18.4650   19.0020 N   0  0  0  0  0  0  0  0  0  0  0  0
  -29.5810  -17.8620   20.2670 N   0  0  0  0  0  0  0  0  0  0  0  0
  -30.3650  -15.6180   20.9900 C   0  0  1  0  0  0  0  0  0  0  0  0
  -31.0000  -15.6210   22.1640 F   0  0  0  0  0  0  0  0  0  0  0  0
  -29.0540  -15.5420   21.2300 F   0  0  0  0  0  0  0  0  0  0  0  0
  -30.8560  -14.3840   20.1590 C   0  0  0  0  0  0  0  0  0  0  0  0
  -30.4640  -12.2530   18.9710 C   0  0  0  0  0  2  0  0  0  0  0  0
  -29.4990  -12.4890   17.7910 C   0  0  0  0  0  2  0  0  0  0  0  0
  -28.0330  -12.3740   18.2550 C   0  0  0  0  0  2  0  0  0  0  0  0
  -27.7470  -13.1910   19.5440 C   0  0  0  0  0  3  0  0  0  0  0  0
  -28.8280  -12.9130   20.6170 C   0  0  0  0  0  2  0  0  0  0  0  0
  -30.1350  -13.2320   20.0240 N   0  0  0  0  0  0  0  0  0  0  0  0
  -31.9370  -14.4890   19.5740 O   0  0  0  0  0  0  0  0  0  0  0  0
  -25.3610  -13.8180   20.2810 C   0  0  0  0  0  0  0  0  0  0  0  0
  -24.2970  -13.0550   20.6800 C   0  0  0  0  0  0  0  0  0  0  0  0
  -24.7530  -11.7020   20.6560 C   0  0  0  0  0  0  0  0  0  0  0  0
  -26.4010  -12.9310   20.0490 N   0  0  0  0  0  0  0  0  0  0  0  0
  -26.0370  -11.6540   20.3270 N   0  0  0  0  0  0  0  0  0  0  0  0
  -24.0270  -10.4430   20.8740 C   0  0  0  0  0  0  0  0  0  0  0  0
  -24.4180   -9.5310   21.8790 C   0  0  0  0  0  3  0  0  0  0  0  0
  -23.6930   -8.3360   22.0800 C   0  0  0  0  0  3  0  0  0  0  0  0
  -22.5640   -8.0480   21.2770 C   0  0  0  0  0  0  0  0  0  0  0  0
  -22.1950   -8.9490   20.2640 C   0  0  0  0  0  3  0  0  0  0  0  0
  -22.9190  -10.1340   20.0610 C   0  0  0  0  0  3  0  0  0  0  0  0
  -21.8150   -6.9010   21.3860 O   0  0  0  0  0  0  0  0  0  0  0  0
  -21.6390   -6.2670   22.5910 C   0  0  0  0  0  0  0  0  0  0  0  0
  -21.0510   -6.9180   23.6970 C   0  0  0  0  0  3  0  0  0  0  0  0
  -20.8260   -6.2090   24.8930 C   0  0  0  0  0  3  0  0  0  0  0  0
  -21.1780   -4.8490   24.9830 C   0  0  0  0  0  0  0  0  0  0  0  0
  -21.7580   -4.1970   23.8800 C   0  0  0  0  0  3  0  0  0  0  0  0
  -21.9850   -4.9040   22.6870 C   0  0  0  0  0  0  0  0  0  0  0  0
  -22.5250   -4.2650   21.6200 F   0  0  0  0  0  0  0  0  0  0  0  0
  -20.9550   -4.1650   26.1300 F   0  0  0  0  0  0  0  0  0  0  0  0
  -22.9080  -13.5410   20.9750 C   0  0  0  0  0  0  0  0  0  0  0  0
  -22.1930  -12.8530   21.8590 N   0  0  0  0  0  0  0  0  0  0  0  0
  -22.4620  -14.5640   20.4570 O   0  0  0  0  0  0  0  0  0  0  0  0
  -22.5650  -12.0260   22.3020 H   0  0  0  0  0  0  0  0  0  0  0  0
  -21.2610  -13.1610   22.1000 H   0  0  0  0  0  0  0  0  0  0  0  0
  -25.5290  -15.1850   20.0800 N   0  0  0  0  0  0  0  0  0  0  0  0
  -24.7700  -15.8470   20.1930 H   0  0  0  0  0  0  0  0  0  0  0  0
  -26.3890  -15.6170   19.7680 H   0  0  0  0  0  0  0  0  0  0  0  0
  -30.8760  -20.4060   16.6700 C   0  0  0  0  0  1  0  0  0  0  0  0
  -31.2290  -20.5910   18.1500 C   0  0  0  0  0  2  0  0  0  0  0  0
  -28.0650  -22.3360   20.7570 C   0  0  0  0  0  2  0  0  0  0  0  0
  -28.7120  -23.4290   21.5380 N   0  0  2  0  0  4  0  0  0  0  0  0
  -29.6580  -23.4840   21.1900 H   0  0  0  0  0  0  0  0  0  0  0  0
  -28.8690  -23.1280   22.9880 C   0  0  0  0  0  2  0  0  0  0  0  0
  -30.5830  -22.3680   24.7430 C   0  0  0  0  0  1  0  0  0  0  0  0
  -30.3560  -22.9420   23.3400 C   0  0  0  0  0  2  0  0  0  0  0  0
  -28.1380  -24.7830   21.2950 C   0  0  0  0  0  2  0  0  0  0  0  0
  -28.5340  -25.3810   19.9250 C   0  0  0  0  0  2  0  0  0  0  0  0
  -28.5180  -26.8070   19.9480 O   0  0  0  0  0  0  0  0  0  0  0  0
  -24.5800  -31.7280   23.1750 C   0  0  0  0  0  0  0  0  0  0  0  0
  -27.3100  -27.4620   19.9480 C   0  0  0  0  0  0  0  0  0  0  0  0
  -23.4090  -30.3870   21.4570 C   0  0  0  0  0  3  0  0  0  0  0  0
  -24.8940  -28.9230   19.9930 C   0  0  0  0  0  0  0  0  0  0  0  0
  -25.9310  -30.7830   21.3080 C   0  0  0  0  0  2  0  0  0  0  0  0
  -26.0370  -29.4420   20.6120 C   0  0  0  0  0  0  0  0  0  0  0  0
  -27.2470  -28.7190   20.5840 C   0  0  0  0  0  3  0  0  0  0  0  0
  -26.1470  -26.9460   19.3280 C   0  0  0  0  0  3  0  0  0  0  0  0
  -24.9400  -27.6720   19.3530 C   0  0  0  0  0  3  0  0  0  0  0  0
  -23.6430  -29.7660   20.0540 C   0  0  0  0  0  2  0  0  0  0  0  0
  -24.6580  -30.9770   22.0390 N   0  0  0  0  0  0  0  0  0  0  0  0
  -23.4900  -31.9670   23.7110 O   0  0  0  0  0  0  0  0  0  0  0  0
  -22.7570  -29.3170   22.3610 C   0  0  0  0  0  0  0  0  0  0  0  0
  -21.4320  -29.1480   22.2270 N   0  0  0  0  0  0  0  0  0  0  0  0
  -23.4400  -28.6440   23.1380 O   0  0  0  0  0  0  0  0  0  0  0  0
  -20.9440  -29.7490   21.5780 H   0  0  0  0  0  0  0  0  0  0  0  0
  -18.0490  -27.9620   22.6680 C   0  0  0  0  0  0  0  0  0  0  0  0
  -20.6090  -28.1770   22.9470 C   0  0  0  0  0  3  0  0  0  0  0  0
  -20.6950  -26.7780   22.2930 C   0  0  0  0  0  2  0  0  0  0  0  0
  -19.5890  -26.5250   21.2650 C   0  0  0  0  0  2  0  0  0  0  0  0
  -18.2100  -26.6490   21.9200 C   0  0  0  0  0  2  0  0  0  0  0  0
  -19.1770  -28.6880   23.1360 C   0  0  0  0  0  0  0  0  0  0  0  0
  -18.9760  -29.9210   23.7920 C   0  0  0  0  0  3  0  0  0  0  0  0
  -17.6760  -30.4250   23.9910 C   0  0  0  0  0  3  0  0  0  0  0  0
  -16.5620  -29.6950   23.5430 C   0  0  0  0  0  3  0  0  0  0  0  0
  -16.7490  -28.4660   22.8850 C   0  0  0  0  0  3  0  0  0  0  0  0
  -25.8530  -32.3430   23.8360 C   0  0  0  0  0  3  0  0  0  0  0  0
  -26.3330  -31.5560   25.1170 C   0  0  1  0  0  0  0  0  0  0  0  0
  -25.2110  -31.3150   26.1550 C   0  0  0  0  0  1  0  0  0  0  0  0
  -26.9170  -30.1790   24.7230 C   0  0  0  0  0  1  0  0  0  0  0  0
  -27.4700  -32.3350   25.8170 C   0  0  0  0  0  1  0  0  0  0  0  0
  -25.5460  -33.7390   24.1700 N   0  0  0  0  0  0  0  0  0  0  0  0
  -25.8940  -34.7940   23.4210 C   0  0  0  0  0  0  0  0  0  0  0  0
  -26.5770  -34.6940   22.3990 O   0  0  0  0  0  0  0  0  0  0  0  0
  -24.9420  -33.8900   24.9640 H   0  0  0  0  0  0  0  0  0  0  0  0
  -24.1620  -36.5850   23.0660 C   0  0  0  0  0  1  0  0  0  0  0  0
  -25.4020  -36.1800   23.8790 C   0  0  0  0  0  3  0  0  0  0  0  0
  -27.5310  -37.0700   24.7210 C   0  0  0  0  0  1  0  0  0  0  0  0
  -26.4340  -37.2350   23.7710 N   0  0  0  0  0  0  0  0  0  0  0  0
  -26.0260  -38.1540   23.9200 H   0  0  0  0  0  0  0  0  0  0  0  0
  2  1  1  0
  3  4  1  0
  4  9  1  0
  5  7  1  0
  5  6  2  0
  6  2  1  0
  6  8  1  0
  7  3  2  0
  8  4  2  0
  9 11  1  1
  9 10  1  0
 12  9  1  0
 13 18  1  0
 14 15  1  0
 14 13  1  0
 16 15  1  0
 16 23  1  0
 16 17  1  0
 18 12  1  0
 18 17  1  0
 19 12  2  0
 20 21  2  0
 21 40  1  0
 22 21  1  0
 22 25  1  0
 23 20  1  0
 23 24  1  0
 24 22  2  0
 25 26  1  0
 26 27  2  0
 28 31  1  0
 28 27  1  0
 29 28  2  0
 30 29  1  0
 30 25  2  0
 31 32  1  0
 32 37  2  0
 32 33  1  0
 33 34  2  0
 34 35  1  0
 35 39  1  0
 36 35  2  0
 37 36  1  0
 38 37  1  0
 40 41  1  0
 41 44  1  0
 41 43  1  0
 42 40  2  0
 45 46  1  0
 45 20  1  0
 47 45  1  0
 48 49  1  0
 49  5  1  0
 50  1  1  0
 50 51  1  0
 51 53  1  0
 51 52  1  6
 53 55  1  0
 55 54  1  0
 56 51  1  0
 57 58  1  0
 57 56  1  0
 58 60  1  0
 59 70  2  0
 60 65  1  0
 61 69  1  0
 61 71  1  0
 62 68  1  0
 62 64  1  0
 63 69  1  0
 64 63  1  0
 65 64  2  0
 66 67  1  0
 66 60  2  0
 67 62  2  0
 68 61  1  0
 69 59  1  0
 71 73  2  0
 72 71  1  0
 74 72  1  0
 75 84  2  0
 75 80  1  0
 76 72  1  0
 76 80  1  0
 77 76  1  0
 78 79  1  0
 78 77  1  0
 79 75  1  0
 80 81  2  0
 81 82  1  0
 83 82  2  0
 84 83  1  0
 85 59  1  0
 85 90  1  0
 85 86  1  0
 86 89  1  1
 86 87  1  0
 88 86  1  0
 90 93  1  0
 91 95  1  0
 91 90  1  0
 92 91  2  0
 95 94  1  0
 97 95  1  0
 97 98  1  0
 97 96  1  0
M  ISO  4   9 100  12 100  57 101  58 101
M  END
>  <TORSDO>  (49) 
F 26

>  <SCORE>  (49) 
-11.742

>  <name>  (49) 
48

>  <ligand_id>  (49) 
48

>  <original_smiles>  (49) 
[H]c1nc(C([H])([H])C([H])([H])[H])c(C([H])([H])C([H])([H])C([H])([H])[N+]([H])(C([H])([H])C([H])([H])Oc2c([H])c([H])c3c(c2[H])C([H])([H])N(C(=O)C([H])(N([H])C(=O)C([H])(N([H])C([H])([H])[H])C([H])([H])[H])C(C([H])([H])[H])(C([H])([H])[H])C([H])([H])[H])C([H])(C(=O)N([H])C2([H])c4c([H])c([H])c([H])c([H])c4C([H])([H])C([H])([H])C2([H])[H])C3([H])[H])C([H])([H])C([H])([H])C([H])([H])[H])nc1C(F)(F)C(=O)N1C([H])([H])C([H])([H])C([H])([H])C([H])(n2nc(-c3c([H])c([H])c(Oc4c([H])c([H])c(F)c([H])c4F)c([H])c3[H])c(C(=O)N([H])[H])c2N([H])[H])C1([H])[H]

>  <smiles>  (49) 
[H]c1nc(C([H])([H])C([H])([H])[H])c(C([H])([H])C([H])([H])C([H])([H])[N+]([H])(C([H])([H])C([H])([H])Oc2c([H])c([H])c3c(c2[H])C([H])([H])N(C(=O)C([H])(N([H])C(=O)C([H])(N([H])C([H])([H])[H])C([H])([H])[H])C(C([H])([H])[H])(C([H])([H])[H])C([H])([H])[H])C([H])(C(=O)N([H])C2([H])c4c([H])c([H])c([H])c([H])c4C([H])([H])C([H])([H])C2([H])[H])C3([H])[H])C([H])([H])C([H])([H])C([H])([H])[H])nc1C(F)(F)C(=O)N1C([H])([H])C([H])([H])C([H])([H])C([H])(n2nc(-c3c([H])c([H])c(Oc4c([H])c([H])c(F)c([H])c4F)c([H])c3[H])c(C(=O)N([H])[H])c2N([H])[H])C1([H])[H]

$$$$
49:0:0
     RDKit          3D

 91 99  0  0  1  0  0  0  0  0999 V2000
  -29.5360  -20.5170   19.0210 C   0  0  0  0  0  3  0  0  0  0  0  0
  -29.4100  -22.4500   20.1000 C   0  0  0  0  0  0  0  0  0  0  0  0
  -29.4870  -21.3610   21.0010 C   0  0  0  0  0  0  0  0  0  0  0  0
  -29.4460  -21.3800   22.5010 C   0  0  0  0  0  1  0  0  0  0  0  0
  -29.3990  -21.8420   18.8360 N   0  0  0  0  0  0  0  0  0  0  0  0
  -29.6420  -20.1180   20.2980 N   0  0  0  0  0  0  0  0  0  0  0  0
  -30.7520  -24.4920   19.4500 C   0  0  0  0  0  1  0  0  0  0  0  0
  -29.8020  -24.4180   21.7240 C   0  0  0  0  0  1  0  0  0  0  0  0
  -29.5140  -24.0510   20.2560 C   0  0  2  0  0  0  0  0  0  0  0  0
  -28.2980  -25.0230   19.8090 C   0  0  0  0  0  2  0  0  0  0  0  0
  -28.4410  -26.5160   19.9780 O   0  0  0  0  0  0  0  0  0  0  0  0
  -24.5500  -31.7840   23.0970 C   0  0  0  0  0  0  0  0  0  0  0  0
  -27.3050  -27.3540   19.9350 C   0  0  0  0  0  0  0  0  0  0  0  0
  -23.3910  -30.3780   21.4330 C   0  0  0  0  0  3  0  0  0  0  0  0
  -24.8890  -28.9110   19.9640 C   0  0  0  0  0  0  0  0  0  0  0  0
  -25.9200  -30.7820   21.2480 C   0  0  0  0  0  2  0  0  0  0  0  0
  -26.0450  -29.4190   20.5680 C   0  0  0  0  0  0  0  0  0  0  0  0
  -27.2550  -28.6540   20.5420 C   0  0  0  0  0  3  0  0  0  0  0  0
  -26.1240  -26.9130   19.2980 C   0  0  0  0  0  3  0  0  0  0  0  0
  -24.9330  -27.6660   19.3170 C   0  0  0  0  0  3  0  0  0  0  0  0
  -23.6230  -29.7420   20.0380 C   0  0  0  0  0  2  0  0  0  0  0  0
  -24.6390  -30.9990   21.9820 N   0  0  0  0  0  0  0  0  0  0  0  0
  -23.4590  -32.0110   23.6420 O   0  0  0  0  0  0  0  0  0  0  0  0
  -22.7680  -29.3180   22.3740 C   0  0  0  0  0  0  0  0  0  0  0  0
  -21.4490  -29.0940   22.2490 N   0  0  0  0  0  0  0  0  0  0  0  0
  -23.4710  -28.7000   23.1790 O   0  0  0  0  0  0  0  0  0  0  0  0
  -20.9370  -29.6470   21.5750 H   0  0  0  0  0  0  0  0  0  0  0  0
  -18.1210  -27.7550   22.7300 C   0  0  0  0  0  0  0  0  0  0  0  0
  -20.6680  -28.1120   23.0030 C   0  0  0  0  0  3  0  0  0  0  0  0
  -20.8260  -26.6960   22.4030 C   0  0  0  0  0  2  0  0  0  0  0  0
  -19.7370  -26.3480   21.3830 C   0  0  0  0  0  2  0  0  0  0  0  0
  -18.3510  -26.4260   22.0300 C   0  0  0  0  0  2  0  0  0  0  0  0
  -19.2090  -28.5540   23.1720 C   0  0  0  0  0  0  0  0  0  0  0  0
  -18.9400  -29.7960   23.7880 C   0  0  0  0  0  3  0  0  0  0  0  0
  -17.6160  -30.2410   23.9640 C   0  0  0  0  0  3  0  0  0  0  0  0
  -16.5430  -29.4400   23.5360 C   0  0  0  0  0  3  0  0  0  0  0  0
  -16.7960  -28.1980   22.9260 C   0  0  0  0  0  3  0  0  0  0  0  0
  -25.8100  -32.4510   23.7280 C   0  0  0  0  0  3  0  0  0  0  0  0
  -26.3700  -31.6640   24.9760 C   0  0  1  0  0  0  0  0  0  0  0  0
  -25.2990  -31.3470   26.0460 C   0  0  0  0  0  1  0  0  0  0  0  0
  -27.0080  -30.3260   24.5380 C   0  0  0  0  0  1  0  0  0  0  0  0
  -27.4930  -32.4860   25.6520 C   0  0  0  0  0  1  0  0  0  0  0  0
  -25.4450  -33.8240   24.1070 N   0  0  0  0  0  0  0  0  0  0  0  0
  -25.7130  -34.9140   23.3740 C   0  0  0  0  0  0  0  0  0  0  0  0
  -26.3620  -34.8710   22.3260 O   0  0  0  0  0  0  0  0  0  0  0  0
  -24.8630  -33.9270   24.9240 H   0  0  0  0  0  0  0  0  0  0  0  0
  -23.8900  -36.6310   23.1250 C   0  0  0  0  0  1  0  0  0  0  0  0
  -25.1750  -36.2650   23.8860 C   0  0  0  0  0  3  0  0  0  0  0  0
  -27.2890  -37.2310   24.6770 C   0  0  0  0  0  1  0  0  0  0  0  0
  -26.1530  -37.3690   23.7700 N   0  0  0  0  0  0  0  0  0  0  0  0
  -25.7090  -38.2650   23.9550 H   0  0  0  0  0  0  0  0  0  0  0  0
  -29.7660  -18.6960   20.8610 C   0  0  0  0  0  3  0  0  0  0  0  0
  -30.4890  -17.4690   20.0730 C   0  0  0  0  0  3  0  0  0  0  0  0
  -31.0380  -14.9120   20.0940 C   0  0  0  0  0  0  0  0  0  0  0  0
  -30.7340  -12.6970   18.9510 C   0  0  0  0  0  2  0  0  0  0  0  0
  -29.7460  -12.8400   17.7710 C   0  0  0  0  0  2  0  0  0  0  0  0
  -28.2900  -12.6770   18.2500 C   0  0  0  0  0  2  0  0  0  0  0  0
  -27.9910  -13.5180   19.5160 C   0  0  0  0  0  3  0  0  0  0  0  0
  -29.0820  -13.3250   20.5860 C   0  0  0  0  0  2  0  0  0  0  0  0
  -30.3700  -13.7050   19.9810 N   0  0  0  0  0  0  0  0  0  0  0  0
  -32.1380  -15.0420   19.5430 O   0  0  0  0  0  0  0  0  0  0  0  0
  -30.1480  -16.0200   22.0740 C   0  0  0  0  0  1  0  0  0  0  0  0
  -30.3850  -16.0290   20.6240 N   0  0  0  0  0  0  0  0  0  0  0  0
  -25.6480  -14.1420   20.3580 C   0  0  0  0  0  0  0  0  0  0  0  0
  -24.5850  -13.3800   20.7590 C   0  0  0  0  0  0  0  0  0  0  0  0
  -25.0200  -12.0210   20.6810 C   0  0  0  0  0  0  0  0  0  0  0  0
  -26.6610  -13.2470   20.0540 N   0  0  0  0  0  0  0  0  0  0  0  0
  -26.2930  -11.9650   20.3110 N   0  0  0  0  0  0  0  0  0  0  0  0
  -24.2800  -10.7680   20.8790 C   0  0  0  0  0  0  0  0  0  0  0  0
  -24.6780   -9.8180   21.8440 C   0  0  0  0  0  3  0  0  0  0  0  0
  -23.9390   -8.6300   22.0260 C   0  0  0  0  0  3  0  0  0  0  0  0
  -22.7860   -8.3830   21.2430 C   0  0  0  0  0  0  0  0  0  0  0  0
  -22.4070   -9.3220   20.2680 C   0  0  0  0  0  3  0  0  0  0  0  0
  -23.1470  -10.5020   20.0830 C   0  0  0  0  0  3  0  0  0  0  0  0
  -22.0210   -7.2460   21.3330 O   0  0  0  0  0  0  0  0  0  0  0  0
  -21.8550   -6.5820   22.5220 C   0  0  0  0  0  0  0  0  0  0  0  0
  -21.3070   -7.2150   23.6590 C   0  0  0  0  0  3  0  0  0  0  0  0
  -21.0900   -6.4770   24.8390 C   0  0  0  0  0  3  0  0  0  0  0  0
  -21.4090   -5.1060   24.8830 C   0  0  0  0  0  0  0  0  0  0  0  0
  -21.9500   -4.4740   23.7500 C   0  0  0  0  0  3  0  0  0  0  0  0
  -22.1690   -5.2090   22.5720 C   0  0  0  0  0  0  0  0  0  0  0  0
  -22.6700   -4.5880   21.4770 F   0  0  0  0  0  0  0  0  0  0  0  0
  -21.1930   -4.3960   26.0140 F   0  0  0  0  0  0  0  0  0  0  0  0
  -23.2100  -13.8770   21.1010 C   0  0  0  0  0  0  0  0  0  0  0  0
  -22.5120  -13.1850   21.9940 N   0  0  0  0  0  0  0  0  0  0  0  0
  -22.7650  -14.9150   20.6130 O   0  0  0  0  0  0  0  0  0  0  0  0
  -22.8870  -12.3460   22.4140 H   0  0  0  0  0  0  0  0  0  0  0  0
  -21.5910  -13.5000   22.2620 H   0  0  0  0  0  0  0  0  0  0  0  0
  -25.8330  -15.5130   20.2070 N   0  0  0  0  0  0  0  0  0  0  0  0
  -25.0930  -16.1830   20.3840 H   0  0  0  0  0  0  0  0  0  0  0  0
  -26.6870  -15.9440   19.8780 H   0  0  0  0  0  0  0  0  0  0  0  0
  1  6  1  0
  2  9  1  0
  2  3  2  0
  3  4  1  0
  5  1  2  0
  5  2  1  0
  6 52  1  0
  6  3  1  0
  9  7  1  6
  9  8  1  0
 10 11  1  0
 10  9  1  0
 12 23  2  0
 13 11  1  0
 13 18  1  0
 14 22  1  0
 14 24  1  0
 15 21  1  0
 15 17  1  0
 16 22  1  0
 17 16  1  0
 18 17  2  0
 19 20  1  0
 19 13  2  0
 20 15  2  0
 21 14  1  0
 22 12  1  0
 24 26  2  0
 25 24  1  0
 27 25  1  0
 28 37  2  0
 28 33  1  0
 29 25  1  0
 29 33  1  0
 30 29  1  0
 31 32  1  0
 31 30  1  0
 32 28  1  0
 33 34  2  0
 34 35  1  0
 36 35  2  0
 37 36  1  0
 38 12  1  0
 38 43  1  0
 38 39  1  0
 39 42  1  1
 39 40  1  0
 41 39  1  0
 43 46  1  0
 44 48  1  0
 44 43  1  0
 45 44  2  0
 48 47  1  0
 50 48  1  0
 50 51  1  0
 50 49  1  0
 53 63  1  0
 53 52  2  0
 54 63  1  0
 55 60  1  0
 56 57  1  0
 56 55  1  0
 58 57  1  0
 58 67  1  0
 58 59  1  0
 60 54  1  0
 60 59  1  0
 61 54  2  0
 63 62  1  0
 64 65  2  0
 65 84  1  0
 66 65  1  0
 66 69  1  0
 67 68  1  0
 67 64  1  0
 68 66  2  0
 69 70  1  0
 70 71  2  0
 72 75  1  0
 72 71  1  0
 73 72  2  0
 74 73  1  0
 74 69  2  0
 75 76  1  0
 76 81  2  0
 76 77  1  0
 77 78  2  0
 78 79  1  0
 79 83  1  0
 80 79  2  0
 81 80  1  0
 82 81  1  0
 84 85  1  0
 85 88  1  0
 85 87  1  0
 86 84  2  0
 89 64  1  0
 89 90  1  0
 91 89  1  0
M  ISO  4  10 101  11 101  54 100  63 100
M  END
>  <TORSDO>  (50) 
F 20

>  <SCORE>  (50) 
-13.077

>  <name>  (50) 
49

>  <ligand_id>  (50) 
49

>  <original_smiles>  (50) 
[H]c1c([H])c([H])c2c(c1[H])C([H])([H])C([H])([H])C([H])([H])C2([H])N([H])C(=O)C1([H])N(C(=O)C([H])(N([H])C(=O)C([H])(N([H])C([H])([H])[H])C([H])([H])[H])C(C([H])([H])[H])(C([H])([H])[H])C([H])([H])[H])C([H])([H])c2c([H])c(OC([H])([H])C(c3nc([H])n(C([H])([H])C([H])([H])N(C(=O)N4C([H])([H])C([H])([H])C([H])([H])C([H])(n5nc(-c6c([H])c([H])c(Oc7c([H])c([H])c(F)c([H])c7F)c([H])c6[H])c(C(=O)N([H])[H])c5N([H])[H])C4([H])[H])C([H])([H])[H])c3C([H])([H])[H])(C([H])([H])[H])C([H])([H])[H])c([H])c([H])c2C1([H])[H]

>  <smiles>  (50) 
[H]c1c([H])c([H])c2c(c1[H])C([H])([H])C([H])([H])C([H])([H])C2([H])N([H])C(=O)C1([H])N(C(=O)C([H])(N([H])C(=O)C([H])(N([H])C([H])([H])[H])C([H])([H])[H])C(C([H])([H])[H])(C([H])([H])[H])C([H])([H])[H])C([H])([H])c2c([H])c(OC([H])([H])C(c3nc([H])n(C([H])([H])C([H])([H])N(C(=O)N4C([H])([H])C([H])([H])C([H])([H])C([H])(n5nc(-c6c([H])c([H])c(Oc7c([H])c([H])c(F)c([H])c7F)c([H])c6[H])c(C(=O)N([H])[H])c5N([H])[H])C4([H])[H])C([H])([H])[H])c3C([H])([H])[H])(C([H])([H])[H])C([H])([H])[H])c([H])c([H])c2C1([H])[H]

$$$$
50:0:0
     RDKit          3D

 90 98  0  0  1  0  0  0  0  0999 V2000
  -28.4550  -21.4910   21.5640 C   0  0  0  0  0  3  0  0  0  0  0  0
  -29.5920  -22.7810   19.5130 C   0  0  0  0  0  3  0  0  0  0  0  0
  -29.2080  -20.6890   20.6400 C   0  0  0  0  0  0  0  0  0  0  0  0
  -28.7980  -23.5810   20.4080 C   0  0  0  0  0  0  0  0  0  0  0  0
  -29.7950  -21.4080   19.6250 N   0  0  0  0  0  0  0  0  0  0  0  0
  -28.2590  -22.8670   21.4560 N   0  0  0  0  0  0  0  0  0  0  0  0
  -29.0690  -19.0670   20.4880 C   0  0  0  0  0  3  0  0  0  0  0  0
  -30.0400  -17.8340   21.0610 C   0  0  0  0  0  3  0  0  0  0  0  0
  -30.6970  -15.2160   20.8920 C   0  0  0  0  0  0  0  0  0  0  0  0
  -30.7210  -12.8610   20.0060 C   0  0  0  0  0  2  0  0  0  0  0  0
  -29.8850  -12.7880   18.7070 C   0  0  0  0  0  2  0  0  0  0  0  0
  -28.3810  -12.6220   19.0100 C   0  0  0  0  0  2  0  0  0  0  0  0
  -27.8800  -13.4760   20.2100 C   0  0  0  0  0  3  0  0  0  0  0  0
  -28.8600  -13.4940   21.3910 C   0  0  0  0  0  2  0  0  0  0  0  0
  -30.1390  -13.9450   20.8330 N   0  0  0  0  0  0  0  0  0  0  0  0
  -31.9310  -15.2920   20.9390 O   0  0  0  0  0  0  0  0  0  0  0  0
  -29.9340  -16.3620   20.4990 N   0  0  0  0  0  0  0  0  0  0  0  0
  -25.4250  -14.0080   20.6720 C   0  0  0  0  0  0  0  0  0  0  0  0
  -24.3510  -13.2090   20.9430 C   0  0  0  0  0  0  0  0  0  0  0  0
  -24.8570  -11.8740   20.9960 C   0  0  0  0  0  0  0  0  0  0  0  0
  -26.5120  -13.1570   20.5790 N   0  0  0  0  0  0  0  0  0  0  0  0
  -26.1730  -11.8700   20.8340 N   0  0  0  0  0  0  0  0  0  0  0  0
  -24.1530  -10.5950   21.1400 C   0  0  0  0  0  0  0  0  0  0  0  0
  -24.5250   -9.6570   22.1250 C   0  0  0  0  0  3  0  0  0  0  0  0
  -23.8190   -8.4440   22.2600 C   0  0  0  0  0  3  0  0  0  0  0  0
  -22.7260   -8.1600   21.4070 C   0  0  0  0  0  0  0  0  0  0  0  0
  -22.3750   -9.0870   20.4110 C   0  0  0  0  0  3  0  0  0  0  0  0
  -23.0850  -10.2920   20.2730 C   0  0  0  0  0  3  0  0  0  0  0  0
  -21.9980   -6.9970   21.4480 O   0  0  0  0  0  0  0  0  0  0  0  0
  -21.8490   -6.2840   22.6090 C   0  0  0  0  0  0  0  0  0  0  0  0
  -21.2770   -6.8570   23.7670 C   0  0  0  0  0  3  0  0  0  0  0  0
  -21.0760   -6.0670   24.9160 C   0  0  0  0  0  3  0  0  0  0  0  0
  -21.4390   -4.7070   24.9100 C   0  0  0  0  0  0  0  0  0  0  0  0
  -22.0040   -4.1340   23.7570 C   0  0  0  0  0  3  0  0  0  0  0  0
  -22.2030   -4.9190   22.6090 C   0  0  0  0  0  0  0  0  0  0  0  0
  -22.7270   -4.3580   21.4930 F   0  0  0  0  0  0  0  0  0  0  0  0
  -21.2390   -3.9470   26.0120 F   0  0  0  0  0  0  0  0  0  0  0  0
  -22.9210  -13.6470   21.0570 C   0  0  0  0  0  0  0  0  0  0  0  0
  -22.1380  -12.9500   21.8730 N   0  0  0  0  0  0  0  0  0  0  0  0
  -22.5040  -14.6390   20.4620 O   0  0  0  0  0  0  0  0  0  0  0  0
  -22.4920  -12.1460   22.3680 H   0  0  0  0  0  0  0  0  0  0  0  0
  -21.1730  -13.2200   22.0010 H   0  0  0  0  0  0  0  0  0  0  0  0
  -25.5600  -15.3810   20.4760 N   0  0  0  0  0  0  0  0  0  0  0  0
  -24.7620  -16.0070   20.4910 H   0  0  0  0  0  0  0  0  0  0  0  0
  -26.4340  -15.8480   20.2740 H   0  0  0  0  0  0  0  0  0  0  0  0
  -29.8770  -16.5270   19.0160 C   0  0  0  0  0  2  0  0  0  0  0  0
  -28.6810  -18.1040   17.3460 C   0  0  0  0  0  1  0  0  0  0  0  0
  -28.5300  -17.0490   18.4500 C   0  0  0  0  0  2  0  0  0  0  0  0
  -28.1420  -25.0150   19.9750 C   0  0  0  0  0  2  0  0  0  0  0  0
  -28.4870  -26.4620   20.3880 O   0  0  0  0  0  0  0  0  0  0  0  0
  -24.7230  -32.0080   23.4250 C   0  0  0  0  0  0  0  0  0  0  0  0
  -27.4450  -27.4520   20.3040 C   0  0  0  0  0  0  0  0  0  0  0  0
  -23.5850  -30.6420   21.7230 C   0  0  0  0  0  3  0  0  0  0  0  0
  -25.0920  -29.1550   20.2810 C   0  0  0  0  0  0  0  0  0  0  0  0
  -26.1400  -30.9620   21.6250 C   0  0  0  0  0  2  0  0  0  0  0  0
  -26.2520  -29.5980   20.9300 C   0  0  0  0  0  0  0  0  0  0  0  0
  -27.4310  -28.7610   20.9320 C   0  0  0  0  0  3  0  0  0  0  0  0
  -26.2600  -27.1280   19.5990 C   0  0  0  0  0  3  0  0  0  0  0  0
  -25.1090  -27.9320   19.6040 C   0  0  0  0  0  3  0  0  0  0  0  0
  -23.8470  -30.0200   20.3290 C   0  0  0  0  0  2  0  0  0  0  0  0
  -24.8340  -31.2240   22.3120 N   0  0  0  0  0  0  0  0  0  0  0  0
  -23.6200  -32.2600   23.9350 O   0  0  0  0  0  0  0  0  0  0  0  0
  -22.9040  -29.5890   22.6320 C   0  0  0  0  0  0  0  0  0  0  0  0
  -21.5830  -29.3970   22.4640 N   0  0  0  0  0  0  0  0  0  0  0  0
  -23.5680  -28.9480   23.4530 O   0  0  0  0  0  0  0  0  0  0  0  0
  -21.1040  -29.9640   21.7770 H   0  0  0  0  0  0  0  0  0  0  0  0
  -18.2050  -28.1570   22.8700 C   0  0  0  0  0  0  0  0  0  0  0  0
  -20.7580  -28.4270   23.1870 C   0  0  0  0  0  3  0  0  0  0  0  0
  -20.8810  -27.0190   22.5610 C   0  0  0  0  0  2  0  0  0  0  0  0
  -19.7950  -26.7260   21.5190 C   0  0  0  0  0  2  0  0  0  0  0  0
  -18.4020  -26.8360   22.1460 C   0  0  0  0  0  2  0  0  0  0  0  0
  -19.3120  -28.9120   23.3430 C   0  0  0  0  0  0  0  0  0  0  0  0
  -19.0750  -30.1510   23.9770 C   0  0  0  0  0  3  0  0  0  0  0  0
  -17.7640  -30.6320   24.1490 C   0  0  0  0  0  3  0  0  0  0  0  0
  -16.6720  -29.8750   23.6920 C   0  0  0  0  0  3  0  0  0  0  0  0
  -16.8940  -28.6410   23.0570 C   0  0  0  0  0  3  0  0  0  0  0  0
  -25.9770  -32.6430   24.1000 C   0  0  0  0  0  3  0  0  0  0  0  0
  -25.6520  -34.0430   24.4160 N   0  0  0  0  0  0  0  0  0  0  0  0
  -26.0090  -35.0950   23.6680 C   0  0  0  0  0  0  0  0  0  0  0  0
  -26.7130  -34.9920   22.6600 O   0  0  0  0  0  0  0  0  0  0  0  0
  -25.0370  -34.1990   25.2000 H   0  0  0  0  0  0  0  0  0  0  0  0
  -24.2830  -36.8800   23.2610 C   0  0  0  0  0  1  0  0  0  0  0  0
  -25.5030  -36.4840   24.1060 C   0  0  0  0  0  3  0  0  0  0  0  0
  -27.6080  -37.3880   24.9920 C   0  0  0  0  0  1  0  0  0  0  0  0
  -26.5340  -37.5420   24.0140 N   0  0  0  0  0  0  0  0  0  0  0  0
  -26.1190  -38.4610   24.1400 H   0  0  0  0  0  0  0  0  0  0  0  0
  -26.4350  -31.8770   25.4010 C   0  0  1  0  0  0  0  0  0  0  0  0
  -25.2950  -31.6420   26.4180 C   0  0  0  0  0  1  0  0  0  0  0  0
  -27.0390  -30.4980   25.0480 C   0  0  0  0  0  1  0  0  0  0  0  0
  -27.5510  -32.6770   26.1130 C   0  0  0  0  0  1  0  0  0  0  0  0
  2  5  2  0
  2  4  1  0
  3  1  2  0
  4  6  2  0
  5  3  1  0
  6  1  1  0
  7  3  1  0
  7  8  2  0
  9 16  2  0
 10 15  1  0
 11 12  1  0
 11 10  1  0
 13 12  1  0
 13 21  1  0
 13 14  1  0
 15  9  1  0
 15 14  1  0
 17  9  1  0
 17  8  1  0
 18 19  2  0
 19 20  1  0
 19 38  1  0
 20 23  1  0
 21 18  1  0
 21 22  1  0
 22 20  2  0
 23 24  1  0
 24 25  2  0
 26 29  1  0
 26 25  1  0
 27 26  2  0
 28 27  1  0
 28 23  2  0
 29 30  1  0
 30 35  2  0
 30 31  1  0
 31 32  2  0
 33 32  1  0
 33 37  1  0
 34 33  2  0
 35 34  1  0
 36 35  1  0
 38 39  1  0
 39 42  1  0
 39 41  1  0
 40 38  2  0
 43 44  1  0
 43 18  1  0
 45 43  1  0
 46 17  1  0
 47 48  1  0
 48 46  1  0
 49 50  1  0
 49  4  1  0
 51 62  2  0
 52 50  1  0
 52 57  1  0
 53 61  1  0
 53 63  1  0
 54 60  1  0
 54 56  1  0
 55 61  1  0
 56 57  2  0
 56 55  1  0
 58 59  1  0
 58 52  2  0
 59 54  2  0
 60 53  1  0
 61 51  1  0
 63 65  2  0
 64 63  1  0
 66 64  1  0
 67 76  2  0
 67 72  1  0
 68 64  1  0
 68 72  1  0
 69 68  1  0
 70 71  1  0
 70 69  1  0
 71 67  1  0
 72 73  2  0
 73 74  1  0
 75 74  2  0
 76 75  1  0
 77 51  1  0
 77 78  1  0
 77 87  1  0
 78 81  1  0
 79 83  1  0
 79 78  1  0
 80 79  2  0
 83 82  1  0
 85 83  1  0
 85 86  1  0
 85 84  1  0
 87 90  1  1
 87 88  1  0
 89 87  1  0
M  ISO  4   9 100  17 100  49 101  50 101
M  END
>  <TORSDO>  (51) 
F 21

>  <SCORE>  (51) 
-13.043

>  <name>  (51) 
50

>  <ligand_id>  (51) 
50

>  <original_smiles>  (51) 
[H]c1nc(C([H])([H])C([H])([H])N(C(=O)N2C([H])([H])C([H])([H])C([H])([H])C([H])(n3nc(-c4c([H])c([H])c(Oc5c([H])c([H])c(F)c([H])c5F)c([H])c4[H])c(C(=O)N([H])[H])c3N([H])[H])C2([H])[H])C([H])([H])C([H])([H])C([H])([H])[H])c([H])nc1C([H])([H])Oc1c([H])c([H])c2c(c1[H])C([H])([H])N(C(=O)C([H])(N([H])C(=O)C([H])(N([H])C([H])([H])[H])C([H])([H])[H])C(C([H])([H])[H])(C([H])([H])[H])C([H])([H])[H])C([H])(C(=O)N([H])C1([H])c3c([H])c([H])c([H])c([H])c3C([H])([H])C([H])([H])C1([H])[H])C2([H])[H]

>  <smiles>  (51) 
[H]c1nc(C([H])([H])C([H])([H])N(C(=O)N2C([H])([H])C([H])([H])C([H])([H])C([H])(n3nc(-c4c([H])c([H])c(Oc5c([H])c([H])c(F)c([H])c5F)c([H])c4[H])c(C(=O)N([H])[H])c3N([H])[H])C2([H])[H])C([H])([H])C([H])([H])C([H])([H])[H])c([H])nc1C([H])([H])Oc1c([H])c([H])c2c(c1[H])C([H])([H])N(C(=O)C([H])(N([H])C(=O)C([H])(N([H])C([H])([H])[H])C([H])([H])[H])C(C([H])([H])[H])(C([H])([H])[H])C([H])([H])[H])C([H])(C(=O)N([H])C1([H])c3c([H])c([H])c([H])c([H])c3C([H])([H])C([H])([H])C1([H])[H])C2([H])[H]

$$$$
51:0:0
     RDKit          3D

 99107  0  0  1  0  0  0  0  0999 V2000
  -28.7580  -23.1680   19.9650 C   0  0  0  0  0  0  0  0  0  0  0  0
  -28.8860  -24.6770   21.6240 C   0  0  0  0  0  3  0  0  0  0  0  0
  -28.2690  -25.4210   19.6050 C   0  0  0  0  0  0  0  0  0  0  0  0
  -29.0080  -23.3990   21.2420 N   0  0  0  0  0  0  0  0  0  0  0  0
  -28.3950  -24.1600   19.0860 N   0  0  0  0  0  0  0  0  0  0  0  0
  -28.5180  -25.7140   20.8680 N   0  0  0  0  0  0  0  0  0  0  0  0
  -29.2900  -24.9910   23.0750 C   0  0  1  0  0  0  0  0  0  0  0  0
  -30.6050  -24.8100   23.2160 F   0  0  0  0  0  0  0  0  0  0  0  0
  -29.0020  -26.2520   23.4140 F   0  0  0  0  0  0  0  0  0  0  0  0
  -28.6580  -24.1800   23.9280 F   0  0  0  0  0  0  0  0  0  0  0  0
  -27.9980  -26.5300   18.7780 O   0  0  0  0  0  0  0  0  0  0  0  0
  -24.5550  -31.5480   22.8510 C   0  0  0  0  0  0  0  0  0  0  0  0
  -26.8940  -27.3840   19.0400 C   0  0  0  0  0  0  0  0  0  0  0  0
  -23.2070  -30.3100   21.1940 C   0  0  0  0  0  3  0  0  0  0  0  0
  -24.5250  -28.9650   19.4550 C   0  0  0  0  0  0  0  0  0  0  0  0
  -25.7120  -30.7040   20.7880 C   0  0  0  0  0  2  0  0  0  0  0  0
  -25.7470  -29.4020   19.9850 C   0  0  0  0  0  0  0  0  0  0  0  0
  -26.9340  -28.6260   19.7680 C   0  0  0  0  0  3  0  0  0  0  0  0
  -25.6470  -27.0240   18.4880 C   0  0  0  0  0  3  0  0  0  0  0  0
  -24.4800  -27.7850   18.6980 C   0  0  0  0  0  3  0  0  0  0  0  0
  -23.2880  -29.8010   19.7310 C   0  0  0  0  0  2  0  0  0  0  0  0
  -24.5170  -30.8680   21.6670 N   0  0  0  0  0  0  0  0  0  0  0  0
  -23.5290  -31.7330   23.5230 O   0  0  0  0  0  0  0  0  0  0  0  0
  -22.6670  -29.1740   22.0950 C   0  0  0  0  0  0  0  0  0  0  0  0
  -21.3460  -28.9300   22.0390 N   0  0  0  0  0  0  0  0  0  0  0  0
  -23.4330  -28.5170   22.8040 O   0  0  0  0  0  0  0  0  0  0  0  0
  -20.7810  -29.5160   21.4400 H   0  0  0  0  0  0  0  0  0  0  0  0
  -18.0820  -27.4900   22.6490 C   0  0  0  0  0  0  0  0  0  0  0  0
  -20.6350  -27.8780   22.7700 C   0  0  0  0  0  3  0  0  0  0  0  0
  -20.7720  -26.5150   22.0520 C   0  0  0  0  0  2  0  0  0  0  0  0
  -19.6180  -26.2230   21.0880 C   0  0  0  0  0  2  0  0  0  0  0  0
  -18.2810  -26.2240   21.8350 C   0  0  0  0  0  2  0  0  0  0  0  0
  -19.1860  -28.2750   23.0760 C   0  0  0  0  0  0  0  0  0  0  0  0
  -18.9430  -29.4610   23.8030 C   0  0  0  0  0  3  0  0  0  0  0  0
  -17.6290  -29.8630   24.1050 C   0  0  0  0  0  3  0  0  0  0  0  0
  -16.5400  -29.0750   23.6930 C   0  0  0  0  0  3  0  0  0  0  0  0
  -16.7690  -27.8900   22.9710 C   0  0  0  0  0  3  0  0  0  0  0  0
  -25.8830  -32.1460   23.4080 C   0  0  0  0  0  3  0  0  0  0  0  0
  -25.5790  -33.4780   23.9490 N   0  0  0  0  0  0  0  0  0  0  0  0
  -25.8480  -34.6330   23.3270 C   0  0  0  0  0  0  0  0  0  0  0  0
  -26.4450  -34.6890   22.2490 O   0  0  0  0  0  0  0  0  0  0  0  0
  -25.0380  -33.5060   24.8010 H   0  0  0  0  0  0  0  0  0  0  0  0
  -24.1110  -36.4550   23.3100 C   0  0  0  0  0  1  0  0  0  0  0  0
  -25.3800  -35.9350   24.0070 C   0  0  0  0  0  3  0  0  0  0  0  0
  -27.5370  -36.6950   24.9000 C   0  0  0  0  0  1  0  0  0  0  0  0
  -26.4100  -36.9960   24.0220 N   0  0  0  0  0  0  0  0  0  0  0  0
  -26.0090  -37.8840   24.3120 H   0  0  0  0  0  0  0  0  0  0  0  0
  -26.5560  -31.2400   24.5110 C   0  0  1  0  0  0  0  0  0  0  0  0
  -25.5950  -30.8350   25.6550 C   0  0  0  0  0  1  0  0  0  0  0  0
  -27.1170  -29.9400   23.8880 C   0  0  0  0  0  1  0  0  0  0  0  0
  -27.7580  -31.9840   25.1370 C   0  0  0  0  0  1  0  0  0  0  0  0
  -28.7790  -21.6040   19.5870 C   0  0  0  0  0  2  0  0  0  0  0  0
  -29.6140  -20.5790   20.4060 N   0  0  1  0  0  4  0  0  0  0  0  0
  -29.4970  -20.9380   21.3430 H   0  0  0  0  0  0  0  0  0  0  0  0
  -29.1480  -19.0780   20.4250 C   0  0  0  0  0  3  0  0  0  0  0  0
  -30.0750  -17.8680   21.0640 C   0  0  0  0  0  3  0  0  0  0  0  0
  -30.6070  -15.2550   20.8020 C   0  0  0  0  0  0  0  0  0  0  0  0
  -30.6240  -12.9040   19.9200 C   0  0  0  0  0  2  0  0  0  0  0  0
  -29.7940  -12.8280   18.6190 C   0  0  0  0  0  2  0  0  0  0  0  0
  -28.3020  -12.6010   18.9350 C   0  0  0  0  0  2  0  0  0  0  0  0
  -27.7770  -13.5440   20.0500 C   0  0  0  0  0  3  0  0  0  0  0  0
  -28.7350  -13.5930   21.2580 C   0  0  0  0  0  2  0  0  0  0  0  0
  -30.0520  -13.9920   20.7470 N   0  0  0  0  0  0  0  0  0  0  0  0
  -31.8170  -15.3930   20.6050 O   0  0  0  0  0  0  0  0  0  0  0  0
  -29.7630  -16.3640   20.8850 N   0  0  0  0  0  0  0  0  0  0  0  0
  -28.7850  -16.1250   20.9500 H   0  0  0  0  0  0  0  0  0  0  0  0
  -25.3370  -14.0720   20.6330 C   0  0  0  0  0  0  0  0  0  0  0  0
  -24.2650  -13.2700   20.9140 C   0  0  0  0  0  0  0  0  0  0  0  0
  -24.7560  -11.9290   20.8820 C   0  0  0  0  0  0  0  0  0  0  0  0
  -26.4110  -13.2180   20.4440 N   0  0  0  0  0  0  0  0  0  0  0  0
  -26.0650  -11.9220   20.6590 N   0  0  0  0  0  0  0  0  0  0  0  0
  -24.0430  -10.6500   20.9920 C   0  0  0  0  0  0  0  0  0  0  0  0
  -24.4340   -9.6640   21.9230 C   0  0  0  0  0  3  0  0  0  0  0  0
  -23.7200   -8.4490   22.0240 C   0  0  0  0  0  3  0  0  0  0  0  0
  -22.6000   -8.2140   21.1900 C   0  0  0  0  0  0  0  0  0  0  0  0
  -22.2300   -9.1890   20.2490 C   0  0  0  0  0  3  0  0  0  0  0  0
  -22.9450  -10.3940   20.1460 C   0  0  0  0  0  3  0  0  0  0  0  0
  -21.8630   -7.0550   21.2000 O   0  0  0  0  0  0  0  0  0  0  0  0
  -21.7440   -6.2850   22.3300 C   0  0  0  0  0  0  0  0  0  0  0  0
  -21.1710   -6.7910   23.5180 C   0  0  0  0  0  3  0  0  0  0  0  0
  -21.0060   -5.9460   24.6340 C   0  0  0  0  0  3  0  0  0  0  0  0
  -21.4020   -4.5970   24.5610 C   0  0  0  0  0  0  0  0  0  0  0  0
  -21.9680   -4.0910   23.3780 C   0  0  0  0  0  3  0  0  0  0  0  0
  -22.1350   -4.9330   22.2640 C   0  0  0  0  0  0  0  0  0  0  0  0
  -22.6610   -4.4360   21.1190 F   0  0  0  0  0  0  0  0  0  0  0  0
  -21.2360   -3.7830   25.6300 F   0  0  0  0  0  0  0  0  0  0  0  0
  -22.8440  -13.7160   21.0990 C   0  0  0  0  0  0  0  0  0  0  0  0
  -22.0710  -12.9860   21.8950 N   0  0  0  0  0  0  0  0  0  0  0  0
  -22.4240  -14.7460   20.5730 O   0  0  0  0  0  0  0  0  0  0  0  0
  -22.4210  -12.1520   22.3430 H   0  0  0  0  0  0  0  0  0  0  0  0
  -21.1150  -13.2650   22.0600 H   0  0  0  0  0  0  0  0  0  0  0  0
  -25.4820  -15.4500   20.4970 N   0  0  0  0  0  0  0  0  0  0  0  0
  -24.6870  -16.0770   20.5590 H   0  0  0  0  0  0  0  0  0  0  0  0
  -26.3240  -15.9110   20.1760 H   0  0  0  0  0  0  0  0  0  0  0  0
  -31.0700  -20.7380   20.1190 C   0  0  0  0  0  2  0  0  0  0  0  0
  -33.3780  -21.3760   20.9650 C   0  0  0  0  0  1  0  0  0  0  0  0
  -31.7530  -20.3380   22.5850 C   0  0  0  0  0  1  0  0  0  0  0  0
  -31.8950  -21.2240   21.3380 C   0  0  2  0  0  0  0  0  0  0  0  0
  -31.4690  -22.4380   21.6720 F   0  0  0  0  0  0  0  0  0  0  0  0
  1  4  2  0
  2  7  1  0
  3  6  2  0
  4  2  1  0
  5  3  2  0
  5  1  1  0
  6  2  1  0
  7  8  1  6
  7  9  1  0
  7 10  1  0
 11 13  1  0
 11  3  1  0
 12 23  2  0
 13 18  1  0
 14 22  1  0
 14 24  1  0
 15 21  1  0
 15 17  1  0
 16 22  1  0
 17 16  1  0
 18 17  2  0
 19 20  1  0
 19 13  2  0
 20 15  2  0
 21 14  1  0
 22 12  1  0
 24 26  2  0
 25 24  1  0
 27 25  1  0
 28 37  2  0
 28 33  1  0
 29 25  1  0
 29 33  1  0
 30 29  1  0
 31 32  1  0
 31 30  1  0
 32 28  1  0
 33 34  2  0
 34 35  1  0
 36 35  2  0
 37 36  1  0
 38 12  1  0
 38 39  1  0
 38 48  1  0
 39 42  1  0
 40 39  1  0
 40 44  1  0
 41 40  2  0
 44 43  1  0
 44 46  1  0
 46 47  1  0
 46 45  1  0
 48 51  1  1
 48 49  1  0
 50 48  1  0
 52  1  1  0
 52 53  1  0
 53 55  1  0
 53 54  1  1
 55 56  2  0
 57 65  1  0
 58 63  1  0
 59 60  1  0
 59 58  1  0
 61 60  1  0
 61 70  1  0
 61 62  1  0
 63 57  1  0
 63 62  1  0
 64 57  2  0
 65 66  1  0
 65 56  1  0
 67 68  2  0
 68 87  1  0
 69 68  1  0
 69 72  1  0
 70 67  1  0
 70 71  1  0
 71 69  2  0
 72 73  1  0
 73 74  2  0
 75 78  1  0
 75 74  1  0
 76 75  2  0
 77 76  1  0
 77 72  2  0
 78 79  1  0
 79 80  1  0
 80 81  2  0
 82 81  1  0
 82 86  1  0
 83 82  2  0
 84 79  2  0
 84 83  1  0
 85 84  1  0
 87 88  1  0
 88 91  1  0
 88 90  1  0
 89 87  2  0
 92 93  1  0
 92 67  1  0
 94 92  1  0
 95 53  1  0
 95 98  1  0
 98 96  1  6
 98 99  1  0
 98 97  1  0
M  ISO  4   3 101  11 101  57 100  65 100
M  END
>  <TORSDO>  (52) 
F 23

>  <SCORE>  (52) 
-11.146

>  <name>  (52) 
51

>  <ligand_id>  (52) 
51

>  <original_smiles>  (52) 
[H]c1c([H])c([H])c2c(c1[H])C([H])([H])C([H])([H])C([H])([H])C2([H])N([H])C(=O)C1([H])N(C(=O)C([H])(N([H])C(=O)C([H])(N([H])C([H])([H])[H])C([H])([H])[H])C(C([H])([H])[H])(C([H])([H])[H])C([H])([H])[H])C([H])([H])c2c([H])c(Oc3nc(C(F)(F)F)nc(C([H])([H])[N+]([H])(C([H])([H])C([H])([H])N([H])C(=O)N4C([H])([H])C([H])([H])C([H])([H])C([H])(n5nc(-c6c([H])c([H])c(Oc7c([H])c([H])c(F)c([H])c7F)c([H])c6[H])c(C(=O)N([H])[H])c5N([H])[H])C4([H])[H])C([H])([H])C(F)(C([H])([H])[H])C([H])([H])[H])n3)c([H])c([H])c2C1([H])[H]

>  <smiles>  (52) 
[H]c1c([H])c([H])c2c(c1[H])C([H])([H])C([H])([H])C([H])([H])C2([H])N([H])C(=O)C1([H])N(C(=O)C([H])(N([H])C(=O)C([H])(N([H])C([H])([H])[H])C([H])([H])[H])C(C([H])([H])[H])(C([H])([H])[H])C([H])([H])[H])C([H])([H])c2c([H])c(Oc3nc(C(F)(F)F)nc(C([H])([H])[N+]([H])(C([H])([H])C([H])([H])N([H])C(=O)N4C([H])([H])C([H])([H])C([H])([H])C([H])(n5nc(-c6c([H])c([H])c(Oc7c([H])c([H])c(F)c([H])c7F)c([H])c6[H])c(C(=O)N([H])[H])c5N([H])[H])C4([H])[H])C([H])([H])C(F)(C([H])([H])[H])C([H])([H])[H])n3)c([H])c([H])c2C1([H])[H]

$$$$
52:0:0
     RDKit          3D

 88 96  0  0  1  0  0  0  0  0999 V2000
  -28.4430  -22.1980   19.9290 C   0  0  0  0  0  2  0  0  0  0  0  0
  -29.1200  -19.6640   19.4720 C   0  0  0  0  0  3  0  0  0  0  0  0
  -29.9180  -18.7320   20.1280 C   0  0  0  0  0  0  0  0  0  0  0  0
  -30.4690  -19.4570   21.1970 N   0  0  0  0  0  0  0  0  0  0  0  0
  -30.0260  -20.7000   21.2240 N   0  0  0  0  0  0  0  0  0  0  0  0
  -29.2170  -20.9020   20.1520 N   0  0  0  0  0  0  0  0  0  0  0  0
  -30.4010  -17.2830   19.6970 C   0  0  0  0  0  2  0  0  0  0  0  0
  -30.7350  -14.7650   20.0580 C   0  0  0  0  0  0  0  0  0  0  0  0
  -30.3910  -12.5570   18.9270 C   0  0  0  0  0  2  0  0  0  0  0  0
  -29.3700  -12.6940   17.7750 C   0  0  0  0  0  2  0  0  0  0  0  0
  -27.9270  -12.5320   18.2920 C   0  0  0  0  0  2  0  0  0  0  0  0
  -27.6600  -13.3590   19.5760 C   0  0  0  0  0  3  0  0  0  0  0  0
  -28.7890  -13.1580   20.6090 C   0  0  0  0  0  2  0  0  0  0  0  0
  -30.0450  -13.5670   19.9600 N   0  0  0  0  0  0  0  0  0  0  0  0
  -31.8610  -14.8290   19.5560 O   0  0  0  0  0  0  0  0  0  0  0  0
  -29.3940  -16.0960   21.6860 C   0  0  0  0  0  1  0  0  0  0  0  0
  -30.0780  -15.9570   20.3970 N   0  0  0  0  0  0  0  0  0  0  0  0
  -25.3260  -13.9610   20.4570 C   0  0  0  0  0  0  0  0  0  0  0  0
  -24.2730  -13.1890   20.8660 C   0  0  0  0  0  0  0  0  0  0  0  0
  -24.7130  -11.8340   20.7650 C   0  0  0  0  0  0  0  0  0  0  0  0
  -26.3410  -13.0750   20.1350 N   0  0  0  0  0  0  0  0  0  0  0  0
  -25.9830  -11.7900   20.3800 N   0  0  0  0  0  0  0  0  0  0  0  0
  -23.9820  -10.5750   20.9610 C   0  0  0  0  0  0  0  0  0  0  0  0
  -24.4390   -9.5870   21.8580 C   0  0  0  0  0  3  0  0  0  0  0  0
  -23.7080   -8.3930   22.0430 C   0  0  0  0  0  3  0  0  0  0  0  0
  -22.5050   -8.1810   21.3290 C   0  0  0  0  0  0  0  0  0  0  0  0
  -22.0660   -9.1590   20.4180 C   0  0  0  0  0  3  0  0  0  0  0  0
  -22.7970  -10.3430   20.2320 C   0  0  0  0  0  3  0  0  0  0  0  0
  -21.7420   -7.0420   21.4260 O   0  0  0  0  0  0  0  0  0  0  0  0
  -21.7000   -6.3010   22.5780 C   0  0  0  0  0  0  0  0  0  0  0  0
  -21.3080   -6.8620   23.8130 C   0  0  0  0  0  3  0  0  0  0  0  0
  -21.2130   -6.0460   24.9580 C   0  0  0  0  0  3  0  0  0  0  0  0
  -21.4970   -4.6700   24.8690 C   0  0  0  0  0  0  0  0  0  0  0  0
  -21.8820   -4.1090   23.6390 C   0  0  0  0  0  3  0  0  0  0  0  0
  -21.9800   -4.9210   22.4960 C   0  0  0  0  0  0  0  0  0  0  0  0
  -22.3300   -4.3710   21.3080 F   0  0  0  0  0  0  0  0  0  0  0  0
  -21.3990   -3.8840   25.9670 F   0  0  0  0  0  0  0  0  0  0  0  0
  -22.9010  -13.6750   21.2370 C   0  0  0  0  0  0  0  0  0  0  0  0
  -22.2230  -12.9640   22.1300 N   0  0  0  0  0  0  0  0  0  0  0  0
  -22.4450  -14.7180   20.7730 O   0  0  0  0  0  0  0  0  0  0  0  0
  -22.6040  -12.1160   22.5230 H   0  0  0  0  0  0  0  0  0  0  0  0
  -21.3080  -13.2740   22.4280 H   0  0  0  0  0  0  0  0  0  0  0  0
  -25.4990  -15.3340   20.3090 N   0  0  0  0  0  0  0  0  0  0  0  0
  -24.7560  -16.0000   20.4900 H   0  0  0  0  0  0  0  0  0  0  0  0
  -26.3360  -15.7690   19.9420 H   0  0  0  0  0  0  0  0  0  0  0  0
  -29.0080  -23.6790   20.2590 C   0  0  0  0  0  3  0  0  0  0  0  0
  -27.9990  -24.9080   19.9520 C   0  0  0  0  0  3  0  0  0  0  0  0
  -28.2650  -26.3700   20.2040 O   0  0  0  0  0  0  0  0  0  0  0  0
  -24.5860  -31.8800   23.2130 C   0  0  0  0  0  0  0  0  0  0  0  0
  -27.1690  -27.2700   20.1490 C   0  0  0  0  0  0  0  0  0  0  0  0
  -23.3720  -30.4740   21.5900 C   0  0  0  0  0  3  0  0  0  0  0  0
  -24.8110  -28.9210   20.1530 C   0  0  0  0  0  0  0  0  0  0  0  0
  -25.9150  -30.7800   21.3880 C   0  0  0  0  0  2  0  0  0  0  0  0
  -25.9890  -29.3980   20.7430 C   0  0  0  0  0  0  0  0  0  0  0  0
  -27.1700  -28.5840   20.7320 C   0  0  0  0  0  3  0  0  0  0  0  0
  -25.9620  -26.8690   19.5270 C   0  0  0  0  0  3  0  0  0  0  0  0
  -24.8040  -27.6660   19.5350 C   0  0  0  0  0  3  0  0  0  0  0  0
  -23.5760  -29.7980   20.2090 C   0  0  0  0  0  2  0  0  0  0  0  0
  -24.6440  -31.0630   22.1200 N   0  0  0  0  0  0  0  0  0  0  0  0
  -23.5050  -32.1590   23.7530 O   0  0  0  0  0  0  0  0  0  0  0  0
  -22.7160  -29.4600   22.5590 C   0  0  0  0  0  0  0  0  0  0  0  0
  -21.3900  -29.2780   22.4420 N   0  0  0  0  0  0  0  0  0  0  0  0
  -23.4020  -28.8400   23.3750 O   0  0  0  0  0  0  0  0  0  0  0  0
  -20.8950  -29.8290   21.7550 H   0  0  0  0  0  0  0  0  0  0  0  0
  -18.0210  -28.0640   22.9640 C   0  0  0  0  0  0  0  0  0  0  0  0
  -20.5780  -28.3420   23.2250 C   0  0  0  0  0  3  0  0  0  0  0  0
  -20.6890  -26.9060   22.6630 C   0  0  0  0  0  2  0  0  0  0  0  0
  -19.5850  -26.5670   21.6550 C   0  0  0  0  0  2  0  0  0  0  0  0
  -18.2040  -26.7090   22.3010 C   0  0  0  0  0  2  0  0  0  0  0  0
  -19.1360  -28.8370   23.3840 C   0  0  0  0  0  0  0  0  0  0  0  0
  -18.9090  -30.1040   23.9660 C   0  0  0  0  0  3  0  0  0  0  0  0
  -17.6020  -30.5960   24.1320 C   0  0  0  0  0  3  0  0  0  0  0  0
  -16.5010  -29.8200   23.7290 C   0  0  0  0  0  3  0  0  0  0  0  0
  -16.7130  -28.5560   23.1500 C   0  0  0  0  0  3  0  0  0  0  0  0
  -25.8710  -32.5180   23.8200 C   0  0  0  0  0  3  0  0  0  0  0  0
  -26.4050  -31.7480   25.0910 C   0  0  1  0  0  0  0  0  0  0  0  0
  -25.3250  -31.5040   26.1700 C   0  0  0  0  0  1  0  0  0  0  0  0
  -26.9900  -30.3730   24.6920 C   0  0  0  0  0  1  0  0  0  0  0  0
  -27.5610  -32.5470   25.7400 C   0  0  0  0  0  1  0  0  0  0  0  0
  -25.5570  -33.9150   24.1590 N   0  0  0  0  0  0  0  0  0  0  0  0
  -25.8620  -34.9720   23.3950 C   0  0  0  0  0  0  0  0  0  0  0  0
  -26.5080  -34.8750   22.3480 O   0  0  0  0  0  0  0  0  0  0  0  0
  -24.9780  -34.0620   24.9730 H   0  0  0  0  0  0  0  0  0  0  0  0
  -24.1030  -36.7470   23.0970 C   0  0  0  0  0  1  0  0  0  0  0  0
  -25.3740  -36.3560   23.8660 C   0  0  0  0  0  3  0  0  0  0  0  0
  -27.5230  -37.2650   24.6260 C   0  0  0  0  0  1  0  0  0  0  0  0
  -26.3900  -37.4190   23.7190 N   0  0  0  0  0  0  0  0  0  0  0  0
  -25.9790  -38.3350   23.8800 H   0  0  0  0  0  0  0  0  0  0  0  0
  1  6  1  0
  1 46  1  0
  2  3  2  0
  2  6  1  0
  3  4  1  0
  4  5  2  0
  6  5  1  0
  7  3  1  0
  7 17  1  0
  8 17  1  0
  9 14  1  0
 10 11  1  0
 10  9  1  0
 12 11  1  0
 12 21  1  0
 12 13  1  0
 14  8  1  0
 14 13  1  0
 15  8  2  0
 17 16  1  0
 18 19  2  0
 19 38  1  0
 20 19  1  0
 20 23  1  0
 21 22  1  0
 21 18  1  0
 22 20  2  0
 23 24  1  0
 24 25  2  0
 26 29  1  0
 26 25  1  0
 27 26  2  0
 28 27  1  0
 28 23  2  0
 29 30  1  0
 30 31  1  0
 31 32  2  0
 33 32  1  0
 33 37  1  0
 34 33  2  0
 35 30  2  0
 35 34  1  0
 36 35  1  0
 38 39  1  0
 39 42  1  0
 39 41  1  0
 40 38  2  0
 43 18  1  0
 43 44  1  0
 45 43  1  0
 47 48  1  0
 47 46  2  0
 49 60  2  0
 50 48  1  0
 50 55  1  0
 51 59  1  0
 51 61  1  0
 52 58  1  0
 52 54  1  0
 53 59  1  0
 54 53  1  0
 55 54  2  0
 56 57  1  0
 56 50  2  0
 57 52  2  0
 58 51  1  0
 59 49  1  0
 61 63  2  0
 62 61  1  0
 64 62  1  0
 65 74  2  0
 65 70  1  0
 66 62  1  0
 66 70  1  0
 67 66  1  0
 68 69  1  0
 68 67  1  0
 69 65  1  0
 70 71  2  0
 71 72  1  0
 73 72  2  0
 74 73  1  0
 75 49  1  0
 75 80  1  0
 75 76  1  0
 76 79  1  1
 76 77  1  0
 78 76  1  0
 80 83  1  0
 81 85  1  0
 81 80  1  0
 82 81  2  0
 85 84  1  0
 87 85  1  0
 87 88  1  0
 87 86  1  0
M  ISO  4   8 100  17 100  47 101  48 101
M  END
>  <TORSDO>  (53) 
F 20

>  <SCORE>  (53) 
-13.334

>  <name>  (53) 
52

>  <ligand_id>  (53) 
52

>  <original_smiles>  (53) 
[H]c1c([H])c([H])c2c(c1[H])C([H])([H])C([H])([H])C([H])([H])C2([H])N([H])C(=O)C1([H])N(C(=O)C([H])(N([H])C(=O)C([H])(N([H])C([H])([H])[H])C([H])([H])[H])C(C([H])([H])[H])(C([H])([H])[H])C([H])([H])[H])C([H])([H])c2c([H])c(OC([H])([H])C([H])([H])C([H])([H])n3nnc(C([H])([H])N(C(=O)N4C([H])([H])C([H])([H])C([H])([H])C([H])(n5nc(-c6c([H])c([H])c(Oc7c([H])c([H])c(F)c([H])c7F)c([H])c6[H])c(C(=O)N([H])[H])c5N([H])[H])C4([H])[H])C([H])([H])[H])c3[H])c([H])c([H])c2C1([H])[H]

>  <smiles>  (53) 
[H]c1c([H])c([H])c2c(c1[H])C([H])([H])C([H])([H])C([H])([H])C2([H])N([H])C(=O)C1([H])N(C(=O)C([H])(N([H])C(=O)C([H])(N([H])C([H])([H])[H])C([H])([H])[H])C(C([H])([H])[H])(C([H])([H])[H])C([H])([H])[H])C([H])([H])c2c([H])c(OC([H])([H])C([H])([H])C([H])([H])n3nnc(C([H])([H])N(C(=O)N4C([H])([H])C([H])([H])C([H])([H])C([H])(n5nc(-c6c([H])c([H])c(Oc7c([H])c([H])c(F)c([H])c7F)c([H])c6[H])c(C(=O)N([H])[H])c5N([H])[H])C4([H])[H])C([H])([H])[H])c3[H])c([H])c([H])c2C1([H])[H]

$$$$
53:0:0
     RDKit          3D

 95103  0  0  1  0  0  0  0  0999 V2000
  -29.4190  -22.0460   20.6810 C   0  0  0  0  0  2  0  0  0  0  0  0
  -31.6530  -18.5680   21.6030 C   0  0  0  0  0  3  0  0  0  0  0  0
  -31.8330  -19.7780   22.2830 C   0  0  0  0  0  0  0  0  0  0  0  0
  -30.7280  -18.5520   20.5480 C   0  0  0  0  0  0  0  0  0  0  0  0
  -30.2460  -20.7800   20.9680 C   0  0  0  0  0  0  0  0  0  0  0  0
  -32.8590  -19.9250   23.3850 C   0  0  0  0  0  1  0  0  0  0  0  0
  -31.1280  -20.8780   21.9630 N   0  0  0  0  0  0  0  0  0  0  0  0
  -30.0350  -19.6770   20.2410 N   0  0  0  0  0  0  0  0  0  0  0  0
  -29.2070  -17.3540   18.8800 C   0  0  0  0  0  1  0  0  0  0  0  0
  -30.5440  -17.3100   19.6520 C   0  0  0  0  0  3  0  0  0  0  0  0
  -31.3940  -14.9740   20.0520 C   0  0  0  0  0  0  0  0  0  0  0  0
  -31.1860  -12.6670   19.2010 C   0  0  0  0  0  2  0  0  0  0  0  0
  -30.2160  -12.6900   17.9980 C   0  0  0  0  0  2  0  0  0  0  0  0
  -28.7490  -12.5770   18.4600 C   0  0  0  0  0  2  0  0  0  0  0  0
  -28.4120  -13.5440   19.6240 C   0  0  0  0  0  3  0  0  0  0  0  0
  -29.4880  -13.4730   20.7340 C   0  0  0  0  0  2  0  0  0  0  0  0
  -30.7960  -13.7520   20.1180 N   0  0  0  0  0  0  0  0  0  0  0  0
  -32.5030  -15.1430   19.5350 O   0  0  0  0  0  0  0  0  0  0  0  0
  -30.5930  -16.0150   20.3640 N   0  0  0  0  0  0  0  0  0  0  0  0
  -29.7690  -15.7970   20.9050 H   0  0  0  0  0  0  0  0  0  0  0  0
  -26.0790  -14.2260   20.4620 C   0  0  0  0  0  0  0  0  0  0  0  0
  -24.9940  -13.4860   20.8450 C   0  0  0  0  0  0  0  0  0  0  0  0
  -25.3900  -12.1180   20.7260 C   0  0  0  0  0  0  0  0  0  0  0  0
  -27.0710  -13.3120   20.1450 N   0  0  0  0  0  0  0  0  0  0  0  0
  -26.6610  -12.0370   20.3600 N   0  0  0  0  0  0  0  0  0  0  0  0
  -24.6140  -10.8820   20.8880 C   0  0  0  0  0  0  0  0  0  0  0  0
  -24.9740   -9.9070   21.8430 C   0  0  0  0  0  3  0  0  0  0  0  0
  -24.2050   -8.7340   21.9940 C   0  0  0  0  0  3  0  0  0  0  0  0
  -23.0600   -8.5280   21.1860 C   0  0  0  0  0  0  0  0  0  0  0  0
  -22.7210   -9.4900   20.2180 C   0  0  0  0  0  3  0  0  0  0  0  0
  -23.4920  -10.6560   20.0670 C   0  0  0  0  0  3  0  0  0  0  0  0
  -22.2660   -7.4090   21.2450 O   0  0  0  0  0  0  0  0  0  0  0  0
  -22.0330   -6.7520   22.4260 C   0  0  0  0  0  0  0  0  0  0  0  0
  -21.4230   -7.3920   23.5270 C   0  0  0  0  0  3  0  0  0  0  0  0
  -21.1390   -6.6600   24.6970 C   0  0  0  0  0  3  0  0  0  0  0  0
  -21.4550   -5.2910   24.7660 C   0  0  0  0  0  0  0  0  0  0  0  0
  -22.0580   -4.6500   23.6690 C   0  0  0  0  0  3  0  0  0  0  0  0
  -22.3430   -5.3780   22.5010 C   0  0  0  0  0  0  0  0  0  0  0  0
  -22.9040   -4.7510   21.4380 F   0  0  0  0  0  0  0  0  0  0  0  0
  -21.1760   -4.5850   25.8880 F   0  0  0  0  0  0  0  0  0  0  0  0
  -23.6340  -14.0080   21.2070 C   0  0  0  0  0  0  0  0  0  0  0  0
  -22.9200  -13.3060   22.0810 N   0  0  0  0  0  0  0  0  0  0  0  0
  -23.2160  -15.0720   20.7530 O   0  0  0  0  0  0  0  0  0  0  0  0
  -23.2780  -12.4430   22.4680 H   0  0  0  0  0  0  0  0  0  0  0  0
  -22.0080  -13.6360   22.3650 H   0  0  0  0  0  0  0  0  0  0  0  0
  -26.2990  -15.5960   20.3350 N   0  0  0  0  0  0  0  0  0  0  0  0
  -25.5700  -16.2800   20.4990 H   0  0  0  0  0  0  0  0  0  0  0  0
  -27.1340  -15.9980   19.9340 H   0  0  0  0  0  0  0  0  0  0  0  0
  -27.8440  -22.3240   22.5870 C   0  0  0  0  0  1  0  0  0  0  0  0
  -29.1060  -22.7750   21.9480 N   0  0  2  0  0  4  0  0  0  0  0  0
  -29.8320  -22.3730   22.5320 H   0  0  0  0  0  0  0  0  0  0  0  0
  -29.2520  -24.2730   22.0070 C   0  0  0  0  0  2  0  0  0  0  0  0
  -29.5940  -25.0390   20.6980 C   0  0  0  0  0  2  0  0  0  0  0  0
  -29.3450  -26.5700   20.7950 C   0  0  0  0  0  2  0  0  0  0  0  0
  -28.8470  -27.0800   19.5540 O   0  0  0  0  0  0  0  0  0  0  0  0
  -24.6400  -31.6390   23.0800 C   0  0  0  0  0  0  0  0  0  0  0  0
  -27.6390  -27.7320   19.6390 C   0  0  0  0  0  0  0  0  0  0  0  0
  -23.5470  -30.2940   21.3150 C   0  0  0  0  0  3  0  0  0  0  0  0
  -25.1230  -29.0080   19.7700 C   0  0  0  0  0  0  0  0  0  0  0  0
  -26.0300  -30.8790   21.1610 C   0  0  0  0  0  2  0  0  0  0  0  0
  -26.2310  -29.5770   20.4130 C   0  0  0  0  0  0  0  0  0  0  0  0
  -27.4910  -28.9400   20.3580 C   0  0  0  0  0  3  0  0  0  0  0  0
  -26.5240  -27.1810   18.9790 C   0  0  0  0  0  3  0  0  0  0  0  0
  -25.2630  -27.8080   19.0510 C   0  0  0  0  0  3  0  0  0  0  0  0
  -23.8100  -29.7520   19.8830 C   0  0  0  0  0  2  0  0  0  0  0  0
  -24.7550  -30.9500   21.9110 N   0  0  0  0  0  0  0  0  0  0  0  0
  -23.5420  -31.7750   23.6400 O   0  0  0  0  0  0  0  0  0  0  0  0
  -22.9840  -29.1440   22.1810 C   0  0  0  0  0  0  0  0  0  0  0  0
  -21.6780  -28.8700   22.0370 N   0  0  0  0  0  0  0  0  0  0  0  0
  -23.7190  -28.5030   22.9360 O   0  0  0  0  0  0  0  0  0  0  0  0
  -21.1430  -29.4490   21.4080 H   0  0  0  0  0  0  0  0  0  0  0  0
  -18.4070  -27.3810   22.4230 C   0  0  0  0  0  0  0  0  0  0  0  0
  -20.9400  -27.8050   22.7160 C   0  0  0  0  0  3  0  0  0  0  0  0
  -21.1440  -26.4450   22.0100 C   0  0  0  0  0  2  0  0  0  0  0  0
  -20.0620  -26.1380   20.9690 C   0  0  0  0  0  2  0  0  0  0  0  0
  -18.6780  -26.1160   21.6260 C   0  0  0  0  0  2  0  0  0  0  0  0
  -19.4690  -28.1820   22.9200 C   0  0  0  0  0  0  0  0  0  0  0  0
  -19.1590  -29.3680   23.6200 C   0  0  0  0  0  3  0  0  0  0  0  0
  -17.8220  -29.7530   23.8310 C   0  0  0  0  0  3  0  0  0  0  0  0
  -16.7760  -28.9470   23.3500 C   0  0  0  0  0  3  0  0  0  0  0  0
  -17.0700  -27.7630   22.6500 C   0  0  0  0  0  3  0  0  0  0  0  0
  -25.8720  -32.3150   23.7590 C   0  0  0  0  0  3  0  0  0  0  0  0
  -25.4710  -33.6710   24.1530 N   0  0  0  0  0  0  0  0  0  0  0  0
  -25.7570  -34.7790   23.4550 C   0  0  0  0  0  0  0  0  0  0  0  0
  -26.4560  -34.7690   22.4380 O   0  0  0  0  0  0  0  0  0  0  0  0
  -24.8340  -33.7450   24.9320 H   0  0  0  0  0  0  0  0  0  0  0  0
  -23.9290  -36.4830   23.1450 C   0  0  0  0  0  1  0  0  0  0  0  0
  -25.1740  -36.1100   23.9660 C   0  0  0  0  0  3  0  0  0  0  0  0
  -27.2280  -37.0790   24.8960 C   0  0  0  0  0  1  0  0  0  0  0  0
  -26.1420  -37.2270   23.9300 N   0  0  0  0  0  0  0  0  0  0  0  0
  -25.6790  -38.1150   24.1060 H   0  0  0  0  0  0  0  0  0  0  0  0
  -26.4130  -31.5080   25.0030 C   0  0  1  0  0  0  0  0  0  0  0  0
  -25.3160  -31.1460   26.0330 C   0  0  0  0  0  1  0  0  0  0  0  0
  -27.0910  -30.1920   24.5490 C   0  0  0  0  0  1  0  0  0  0  0  0
  -27.5020  -32.3350   25.7290 C   0  0  0  0  0  1  0  0  0  0  0  0
  1  5  1  0
  1 50  1  0
  2  3  2  0
  3  6  1  0
  4  2  1  0
  5  7  2  0
  7  3  1  0
  8  4  2  0
  8  5  1  0
 10  9  1  0
 10 19  1  0
 10  4  1  0
 11 17  1  0
 11 19  1  0
 12 17  1  0
 13 14  1  0
 13 12  1  0
 15 14  1  0
 15 24  1  0
 15 16  1  0
 17 16  1  0
 18 11  2  0
 19 20  1  0
 21 22  2  0
 22 41  1  0
 23 22  1  0
 23 26  1  0
 24 25  1  0
 24 21  1  0
 25 23  2  0
 26 27  1  0
 27 28  2  0
 29 32  1  0
 29 28  1  0
 30 29  2  0
 31 30  1  0
 31 26  2  0
 32 33  1  0
 33 38  2  0
 33 34  1  0
 34 35  2  0
 35 36  1  0
 36 40  1  0
 37 36  2  0
 38 37  1  0
 39 38  1  0
 41 42  1  0
 42 45  1  0
 42 44  1  0
 43 41  2  0
 46 21  1  0
 46 47  1  0
 48 46  1  0
 50 52  1  0
 50 51  1  1
 50 49  1  0
 53 54  1  0
 53 52  1  0
 55 57  1  0
 55 54  1  0
 56 67  2  0
 57 62  1  0
 58 66  1  0
 58 68  1  0
 59 65  1  0
 59 61  1  0
 60 66  1  0
 61 60  1  0
 62 61  2  0
 63 64  1  0
 63 57  2  0
 64 59  2  0
 65 58  1  0
 66 56  1  0
 68 70  2  0
 69 68  1  0
 71 69  1  0
 72 81  2  0
 72 77  1  0
 73 69  1  0
 73 77  1  0
 74 73  1  0
 75 76  1  0
 75 74  1  0
 76 72  1  0
 77 78  2  0
 78 79  1  0
 80 79  2  0
 81 80  1  0
 82 56  1  0
 82 83  1  0
 82 92  1  0
 83 86  1  0
 84 88  1  0
 84 83  1  0
 85 84  2  0
 88 87  1  0
 90 88  1  0
 90 91  1  0
 90 89  1  0
 92 95  1  1
 92 93  1  0
 94 92  1  0
M  ISO  4  11 100  19 100  54 101  55 101
M  END
>  <TORSDO>  (54) 
F 22

>  <SCORE>  (54) 
-10.399

>  <name>  (54) 
53

>  <ligand_id>  (54) 
53

>  <original_smiles>  (54) 
[H]c1c(C([H])([H])[H])nc(C([H])([H])[N+]([H])(C([H])([H])[H])C([H])([H])C([H])([H])C([H])([H])Oc2c([H])c([H])c3c(c2[H])C([H])([H])N(C(=O)C([H])(N([H])C(=O)C([H])(N([H])C([H])([H])[H])C([H])([H])[H])C(C([H])([H])[H])(C([H])([H])[H])C([H])([H])[H])C([H])(C(=O)N([H])C2([H])c4c([H])c([H])c([H])c([H])c4C([H])([H])C([H])([H])C2([H])[H])C3([H])[H])nc1C([H])(N([H])C(=O)N1C([H])([H])C([H])([H])C([H])([H])C([H])(n2nc(-c3c([H])c([H])c(Oc4c([H])c([H])c(F)c([H])c4F)c([H])c3[H])c(C(=O)N([H])[H])c2N([H])[H])C1([H])[H])C([H])([H])[H]

>  <smiles>  (54) 
[H]c1c(C([H])([H])[H])nc(C([H])([H])[N+]([H])(C([H])([H])[H])C([H])([H])C([H])([H])C([H])([H])Oc2c([H])c([H])c3c(c2[H])C([H])([H])N(C(=O)C([H])(N([H])C(=O)C([H])(N([H])C([H])([H])[H])C([H])([H])[H])C(C([H])([H])[H])(C([H])([H])[H])C([H])([H])[H])C([H])(C(=O)N([H])C2([H])c4c([H])c([H])c([H])c([H])c4C([H])([H])C([H])([H])C2([H])[H])C3([H])[H])nc1C([H])(N([H])C(=O)N1C([H])([H])C([H])([H])C([H])([H])C([H])(n2nc(-c3c([H])c([H])c(Oc4c([H])c([H])c(F)c([H])c4F)c([H])c3[H])c(C(=O)N([H])[H])c2N([H])[H])C1([H])[H])C([H])([H])[H]

$$$$
54:0:0
     RDKit          3D

 91 99  0  0  1  0  0  0  0  0999 V2000
  -29.2450  -21.9660   19.7210 C   0  0  0  0  0  3  0  0  0  0  0  0
  -29.0240  -23.2940   20.3590 C   0  0  0  0  0  0  0  0  0  0  0  0
  -29.7360  -20.7640   20.4500 C   0  0  0  0  0  0  0  0  0  0  0  0
  -29.7540  -22.2080   22.2850 C   0  0  0  0  0  0  0  0  0  0  0  0
  -30.0430  -22.3310   23.7650 C   0  0  0  0  0  1  0  0  0  0  0  0
  -29.3210  -23.3180   21.6750 N   0  0  0  0  0  0  0  0  0  0  0  0
  -29.9550  -20.9940   21.7600 N   0  0  0  0  0  0  0  0  0  0  0  0
  -31.7830  -19.1900   20.3660 C   0  0  0  0  0  1  0  0  0  0  0  0
  -30.3410  -19.3520   18.3770 C   0  0  0  0  0  1  0  0  0  0  0  0
  -30.3110  -19.2710   19.9170 C   0  0  2  0  0  0  0  0  0  0  0  0
  -29.6140  -17.7470   20.2700 C   0  0  0  0  0  2  0  0  0  0  0  0
  -30.8530  -15.1660   20.1760 C   0  0  0  0  0  0  0  0  0  0  0  0
  -30.6830  -12.7910   19.2560 C   0  0  0  0  0  2  0  0  0  0  0  0
  -29.7270  -12.7320   18.0390 C   0  0  0  0  0  2  0  0  0  0  0  0
  -28.2700  -12.5420   18.4930 C   0  0  0  0  0  2  0  0  0  0  0  0
  -27.8940  -13.4590   19.6850 C   0  0  0  0  0  3  0  0  0  0  0  0
  -28.9740  -13.4760   20.7890 C   0  0  0  0  0  2  0  0  0  0  0  0
  -30.2390  -13.9010   20.1630 N   0  0  0  0  0  0  0  0  0  0  0  0
  -31.9790  -15.2260   19.6700 O   0  0  0  0  0  0  0  0  0  0  0  0
  -30.4370  -16.3760   22.2110 C   0  0  0  0  0  1  0  0  0  0  0  0
  -30.2650  -16.3490   20.7510 N   0  0  0  0  0  0  0  0  0  0  0  0
  -25.5390  -14.0300   20.5040 C   0  0  0  0  0  0  0  0  0  0  0  0
  -24.4770  -13.2550   20.8760 C   0  0  0  0  0  0  0  0  0  0  0  0
  -24.9280  -11.9000   20.8000 C   0  0  0  0  0  0  0  0  0  0  0  0
  -26.5690  -13.1510   20.2130 N   0  0  0  0  0  0  0  0  0  0  0  0
  -26.2110  -11.8610   20.4540 N   0  0  0  0  0  0  0  0  0  0  0  0
  -24.1930  -10.6420   20.9780 C   0  0  0  0  0  0  0  0  0  0  0  0
  -24.5960   -9.6750   21.9260 C   0  0  0  0  0  3  0  0  0  0  0  0
  -23.8580   -8.4820   22.0930 C   0  0  0  0  0  3  0  0  0  0  0  0
  -22.7010   -8.2500   21.3130 C   0  0  0  0  0  0  0  0  0  0  0  0
  -22.3160   -9.2060   20.3550 C   0  0  0  0  0  3  0  0  0  0  0  0
  -23.0570  -10.3870   20.1870 C   0  0  0  0  0  3  0  0  0  0  0  0
  -21.9340   -7.1130   21.3890 O   0  0  0  0  0  0  0  0  0  0  0  0
  -21.7940   -6.4170   22.5650 C   0  0  0  0  0  0  0  0  0  0  0  0
  -21.2630   -7.0200   23.7260 C   0  0  0  0  0  3  0  0  0  0  0  0
  -21.0680   -6.2530   24.8910 C   0  0  0  0  0  3  0  0  0  0  0  0
  -21.3930   -4.8820   24.8960 C   0  0  0  0  0  0  0  0  0  0  0  0
  -21.9180   -4.2800   23.7390 C   0  0  0  0  0  3  0  0  0  0  0  0
  -22.1130   -5.0440   22.5750 C   0  0  0  0  0  0  0  0  0  0  0  0
  -22.5990   -4.4520   21.4570 F   0  0  0  0  0  0  0  0  0  0  0  0
  -21.2020   -4.1430   26.0130 F   0  0  0  0  0  0  0  0  0  0  0  0
  -23.0910  -13.7340   21.1970 C   0  0  0  0  0  0  0  0  0  0  0  0
  -22.3910  -13.0350   22.0820 N   0  0  0  0  0  0  0  0  0  0  0  0
  -22.6410  -14.7670   20.7020 O   0  0  0  0  0  0  0  0  0  0  0  0
  -22.7700  -12.1980   22.4990 H   0  0  0  0  0  0  0  0  0  0  0  0
  -21.4640  -13.3420   22.3460 H   0  0  0  0  0  0  0  0  0  0  0  0
  -25.7090  -15.4030   20.3610 N   0  0  0  0  0  0  0  0  0  0  0  0
  -24.9530  -16.0620   20.5210 H   0  0  0  0  0  0  0  0  0  0  0  0
  -26.5600  -15.8480   20.0460 H   0  0  0  0  0  0  0  0  0  0  0  0
  -28.2390  -24.6580   19.7790 C   0  0  0  0  0  2  0  0  0  0  0  0
  -28.3920  -26.1780   20.2000 O   0  0  0  0  0  0  0  0  0  0  0  0
  -24.6820  -31.8520   23.1640 C   0  0  0  0  0  0  0  0  0  0  0  0
  -27.3450  -27.1860   20.0810 C   0  0  0  0  0  0  0  0  0  0  0  0
  -23.5150  -30.4590   21.5010 C   0  0  0  0  0  3  0  0  0  0  0  0
  -24.9970  -28.9290   20.0570 C   0  0  0  0  0  0  0  0  0  0  0  0
  -26.0670  -30.7550   21.3610 C   0  0  0  0  0  2  0  0  0  0  0  0
  -26.1660  -29.3710   20.6860 C   0  0  0  0  0  0  0  0  0  0  0  0
  -27.3360  -28.5140   20.6890 C   0  0  0  0  0  3  0  0  0  0  0  0
  -26.1580  -26.8770   19.3790 C   0  0  0  0  0  3  0  0  0  0  0  0
  -25.0110  -27.6990   19.3830 C   0  0  0  0  0  3  0  0  0  0  0  0
  -23.7550  -29.8080   20.1130 C   0  0  0  0  0  2  0  0  0  0  0  0
  -24.7740  -31.0460   22.0630 N   0  0  0  0  0  0  0  0  0  0  0  0
  -23.5880  -32.1130   23.6900 O   0  0  0  0  0  0  0  0  0  0  0  0
  -22.8450  -29.4300   22.4470 C   0  0  0  0  0  0  0  0  0  0  0  0
  -21.5210  -29.2310   22.3030 N   0  0  0  0  0  0  0  0  0  0  0  0
  -23.5190  -28.8120   23.2760 O   0  0  0  0  0  0  0  0  0  0  0  0
  -21.0320  -29.7860   21.6140 H   0  0  0  0  0  0  0  0  0  0  0  0
  -18.1680  -27.9270   22.7390 C   0  0  0  0  0  0  0  0  0  0  0  0
  -20.7110  -28.2700   23.0580 C   0  0  0  0  0  3  0  0  0  0  0  0
  -20.8690  -26.8410   22.4900 C   0  0  0  0  0  2  0  0  0  0  0  0
  -19.8000  -26.4840   21.4520 C   0  0  0  0  0  2  0  0  0  0  0  0
  -18.4010  -26.5840   22.0670 C   0  0  0  0  0  2  0  0  0  0  0  0
  -19.2520  -28.7240   23.1900 C   0  0  0  0  0  0  0  0  0  0  0  0
  -18.9800  -29.9770   23.7800 C   0  0  0  0  0  3  0  0  0  0  0  0
  -17.6550  -30.4350   23.9230 C   0  0  0  0  0  3  0  0  0  0  0  0
  -16.5850  -29.6360   23.4850 C   0  0  0  0  0  3  0  0  0  0  0  0
  -16.8420  -28.3820   22.9010 C   0  0  0  0  0  3  0  0  0  0  0  0
  -25.9450  -32.5010   23.8070 C   0  0  0  0  0  3  0  0  0  0  0  0
  -26.4630  -31.7250   25.0790 C   0  0  1  0  0  0  0  0  0  0  0  0
  -25.3650  -31.4600   26.1360 C   0  0  0  0  0  1  0  0  0  0  0  0
  -27.0700  -30.3580   24.6870 C   0  0  0  0  0  1  0  0  0  0  0  0
  -27.5970  -32.5280   25.7570 C   0  0  0  0  0  1  0  0  0  0  0  0
  -25.6080  -33.8900   24.1580 N   0  0  0  0  0  0  0  0  0  0  0  0
  -25.9250  -34.9650   23.4240 C   0  0  0  0  0  0  0  0  0  0  0  0
  -26.6020  -34.8920   22.3950 O   0  0  0  0  0  0  0  0  0  0  0  0
  -25.0050  -34.0190   24.9600 H   0  0  0  0  0  0  0  0  0  0  0  0
  -24.1780  -36.7450   23.0950 C   0  0  0  0  0  1  0  0  0  0  0  0
  -25.4170  -36.3390   23.9060 C   0  0  0  0  0  3  0  0  0  0  0  0
  -27.5320  -37.2360   24.7770 C   0  0  0  0  0  1  0  0  0  0  0  0
  -26.4370  -37.4070   23.8260 N   0  0  0  0  0  0  0  0  0  0  0  0
  -26.0160  -38.3190   23.9870 H   0  0  0  0  0  0  0  0  0  0  0  0
  1  2  2  0
  1  3  1  0
  2  6  1  0
  3  7  2  0
  4  5  1  0
  6  4  2  0
  7  4  1  0
 10  9  1  6
 10 11  1  0
 10  8  1  0
 10  3  1  0
 11 21  1  0
 12 21  1  0
 13 18  1  0
 14 15  1  0
 14 13  1  0
 16 15  1  0
 16 25  1  0
 16 17  1  0
 18 12  1  0
 18 17  1  0
 19 12  2  0
 21 20  1  0
 22 23  2  0
 23 42  1  0
 24 23  1  0
 24 27  1  0
 25 26  1  0
 25 22  1  0
 26 24  2  0
 27 28  1  0
 28 29  2  0
 30 33  1  0
 30 29  1  0
 31 30  2  0
 32 31  1  0
 32 27  2  0
 33 34  1  0
 34 39  2  0
 34 35  1  0
 35 36  2  0
 36 37  1  0
 37 41  1  0
 38 37  2  0
 39 38  1  0
 40 39  1  0
 42 43  1  0
 43 46  1  0
 43 45  1  0
 44 42  2  0
 47 22  1  0
 47 48  1  0
 49 47  1  0
 50 51  1  0
 50  2  1  0
 52 63  2  0
 53 51  1  0
 53 58  1  0
 54 62  1  0
 54 64  1  0
 55 61  1  0
 55 57  1  0
 56 62  1  0
 57 58  2  0
 57 56  1  0
 59 60  1  0
 59 53  2  0
 60 55  2  0
 61 54  1  0
 62 52  1  0
 64 66  2  0
 65 64  1  0
 67 65  1  0
 68 77  2  0
 68 73  1  0
 69 65  1  0
 69 73  1  0
 70 69  1  0
 71 72  1  0
 71 70  1  0
 72 68  1  0
 73 74  2  0
 74 75  1  0
 76 75  2  0
 77 76  1  0
 78 52  1  0
 78 83  1  0
 78 79  1  0
 79 82  1  1
 79 80  1  0
 81 79  1  0
 83 86  1  0
 84 88  1  0
 84 83  1  0
 85 84  2  0
 88 87  1  0
 90 88  1  0
 90 91  1  0
 90 89  1  0
M  ISO  4  12 100  21 100  50 101  51 101
M  END
>  <TORSDO>  (55) 
F 19

>  <SCORE>  (55) 
-15.021

>  <name>  (55) 
54

>  <ligand_id>  (55) 
54

>  <original_smiles>  (55) 
[H]c1c(C([H])([H])Oc2c([H])c([H])c3c(c2[H])C([H])([H])N(C(=O)C([H])(N([H])C(=O)C([H])(N([H])C([H])([H])[H])C([H])([H])[H])C(C([H])([H])[H])(C([H])([H])[H])C([H])([H])[H])C([H])(C(=O)N([H])C2([H])c4c([H])c([H])c([H])c([H])c4C([H])([H])C([H])([H])C2([H])[H])C3([H])[H])nc(C([H])([H])[H])nc1C(C([H])([H])[H])(C([H])([H])[H])C([H])([H])N(C(=O)N1C([H])([H])C([H])([H])C([H])([H])C([H])(n2nc(-c3c([H])c([H])c(Oc4c([H])c([H])c(F)c([H])c4F)c([H])c3[H])c(C(=O)N([H])[H])c2N([H])[H])C1([H])[H])C([H])([H])[H]

>  <smiles>  (55) 
[H]c1c(C([H])([H])Oc2c([H])c([H])c3c(c2[H])C([H])([H])N(C(=O)C([H])(N([H])C(=O)C([H])(N([H])C([H])([H])[H])C([H])([H])[H])C(C([H])([H])[H])(C([H])([H])[H])C([H])([H])[H])C([H])(C(=O)N([H])C2([H])c4c([H])c([H])c([H])c([H])c4C([H])([H])C([H])([H])C2([H])[H])C3([H])[H])nc(C([H])([H])[H])nc1C(C([H])([H])[H])(C([H])([H])[H])C([H])([H])N(C(=O)N1C([H])([H])C([H])([H])C([H])([H])C([H])(n2nc(-c3c([H])c([H])c(Oc4c([H])c([H])c(F)c([H])c4F)c([H])c3[H])c(C(=O)N([H])[H])c2N([H])[H])C1([H])[H])C([H])([H])[H]

$$$$
55:0:0
     RDKit          3D

 89 97  0  0  1  0  0  0  0  0999 V2000
  -29.0210  -22.5340   21.5700 C   0  0  0  0  0  3  0  0  0  0  0  0
  -28.7350  -22.6110   20.1900 C   0  0  0  0  0  0  0  0  0  0  0  0
  -29.6520  -20.2140   21.5770 C   0  0  0  0  0  0  0  0  0  0  0  0
  -29.4440  -20.0020   20.1890 C   0  0  0  0  0  0  0  0  0  0  0  0
  -30.1600  -19.0950   22.4640 C   0  0  0  0  0  1  0  0  0  0  0  0
  -29.4510  -21.4080   22.2180 N   0  0  0  0  0  0  0  0  0  0  0  0
  -28.9800  -21.2760   19.5420 N   0  0  0  0  0  0  0  0  0  0  0  0
  -29.2330  -18.3880   18.1090 C   0  0  0  0  0  1  0  0  0  0  0  0
  -29.8990  -18.4190   19.4920 C   0  0  0  0  0  3  0  0  0  0  0  0
  -30.6150  -15.4950   19.8170 C   0  0  0  0  0  0  0  0  0  0  0  0
  -30.5990  -13.0070   19.0040 C   0  0  0  0  0  2  0  0  0  0  0  0
  -29.6230  -12.7410   17.8270 C   0  0  0  0  0  2  0  0  0  0  0  0
  -28.2060  -12.4470   18.3480 C   0  0  0  0  0  2  0  0  0  0  0  0
  -27.7990  -13.4210   19.4800 C   0  0  0  0  0  3  0  0  0  0  0  0
  -28.9010  -13.6240   20.5440 C   0  0  0  0  0  2  0  0  0  0  0  0
  -30.0790  -14.1630   19.8400 N   0  0  0  0  0  0  0  0  0  0  0  0
  -31.8060  -15.4880   19.4670 O   0  0  0  0  0  0  0  0  0  0  0  0
  -29.8520  -16.7840   19.9840 N   0  0  0  0  0  0  0  0  0  0  0  0
  -28.9390  -16.5710   20.3560 H   0  0  0  0  0  0  0  0  0  0  0  0
  -25.4890  -13.9620   20.4040 C   0  0  0  0  0  0  0  0  0  0  0  0
  -24.4480  -13.1790   20.8150 C   0  0  0  0  0  0  0  0  0  0  0  0
  -24.9010  -11.8270   20.7080 C   0  0  0  0  0  0  0  0  0  0  0  0
  -26.5060  -13.0900   20.0640 N   0  0  0  0  0  0  0  0  0  0  0  0
  -26.1700  -11.7970   20.3130 N   0  0  0  0  0  0  0  0  0  0  0  0
  -24.1750  -10.5640   20.9010 C   0  0  0  0  0  0  0  0  0  0  0  0
  -24.5640   -9.6300   21.8860 C   0  0  0  0  0  3  0  0  0  0  0  0
  -23.8360   -8.4350   22.0670 C   0  0  0  0  0  3  0  0  0  0  0  0
  -22.7030   -8.1640   21.2630 C   0  0  0  0  0  0  0  0  0  0  0  0
  -22.3330   -9.0870   20.2690 C   0  0  0  0  0  3  0  0  0  0  0  0
  -23.0630  -10.2730   20.0860 C   0  0  0  0  0  3  0  0  0  0  0  0
  -21.9500   -7.0180   21.3510 O   0  0  0  0  0  0  0  0  0  0  0  0
  -21.7200   -6.3990   22.5530 C   0  0  0  0  0  0  0  0  0  0  0  0
  -21.0750   -7.0610   23.6210 C   0  0  0  0  0  3  0  0  0  0  0  0
  -20.7950   -6.3650   24.8140 C   0  0  0  0  0  3  0  0  0  0  0  0
  -21.1490   -5.0080   24.9390 C   0  0  0  0  0  0  0  0  0  0  0  0
  -21.7860   -4.3460   23.8750 C   0  0  0  0  0  3  0  0  0  0  0  0
  -22.0670   -5.0390   22.6840 C   0  0  0  0  0  0  0  0  0  0  0  0
  -22.6610   -4.3900   21.6540 F   0  0  0  0  0  0  0  0  0  0  0  0
  -20.8750   -4.3380   26.0820 F   0  0  0  0  0  0  0  0  0  0  0  0
  -23.0740  -13.6560   21.1850 C   0  0  0  0  0  0  0  0  0  0  0  0
  -22.4080  -12.9570   22.0960 N   0  0  0  0  0  0  0  0  0  0  0  0
  -22.6050  -14.6860   20.7020 O   0  0  0  0  0  0  0  0  0  0  0  0
  -22.8040  -12.1240   22.5070 H   0  0  0  0  0  0  0  0  0  0  0  0
  -21.4900  -13.2580   22.3890 H   0  0  0  0  0  0  0  0  0  0  0  0
  -25.6500  -15.3370   20.2610 N   0  0  0  0  0  0  0  0  0  0  0  0
  -24.8940  -15.9880   20.4440 H   0  0  0  0  0  0  0  0  0  0  0  0
  -26.4620  -15.7790   19.8510 H   0  0  0  0  0  0  0  0  0  0  0  0
  -27.9660  -24.1200   19.6180 C   0  0  0  0  0  2  0  0  0  0  0  0
  -28.1400  -25.7680   19.9320 O   0  0  0  0  0  0  0  0  0  0  0  0
  -24.7140  -31.8190   23.0160 C   0  0  0  0  0  0  0  0  0  0  0  0
  -27.1480  -26.9090   19.8630 C   0  0  0  0  0  0  0  0  0  0  0  0
  -23.4560  -30.4230   21.4270 C   0  0  0  0  0  3  0  0  0  0  0  0
  -24.8470  -28.8260   19.9260 C   0  0  0  0  0  0  0  0  0  0  0  0
  -26.0160  -30.6290   21.1730 C   0  0  0  0  0  2  0  0  0  0  0  0
  -26.0610  -29.2170   20.5050 C   0  0  0  0  0  0  0  0  0  0  0  0
  -27.1970  -28.2780   20.4540 C   0  0  0  0  0  3  0  0  0  0  0  0
  -25.9060  -26.6970   19.2200 C   0  0  0  0  0  3  0  0  0  0  0  0
  -24.7980  -27.5900   19.2620 C   0  0  0  0  0  3  0  0  0  0  0  0
  -23.6290  -29.7460   20.0370 C   0  0  0  0  0  2  0  0  0  0  0  0
  -24.7530  -30.9860   21.9240 N   0  0  0  0  0  0  0  0  0  0  0  0
  -23.6460  -32.1020   23.5860 O   0  0  0  0  0  0  0  0  0  0  0  0
  -22.8060  -29.4240   22.4200 C   0  0  0  0  0  0  0  0  0  0  0  0
  -21.4880  -29.1840   22.2990 N   0  0  0  0  0  0  0  0  0  0  0  0
  -23.4990  -28.8610   23.2720 O   0  0  0  0  0  0  0  0  0  0  0  0
  -20.9770  -29.6900   21.5880 H   0  0  0  0  0  0  0  0  0  0  0  0
  -18.1950  -27.7320   22.7700 C   0  0  0  0  0  0  0  0  0  0  0  0
  -20.7140  -28.2250   23.0950 C   0  0  0  0  0  3  0  0  0  0  0  0
  -20.9510  -26.7770   22.6060 C   0  0  0  0  0  2  0  0  0  0  0  0
  -19.9160  -26.3110   21.5780 C   0  0  0  0  0  2  0  0  0  0  0  0
  -18.5040  -26.3710   22.1700 C   0  0  0  0  0  2  0  0  0  0  0  0
  -19.2310  -28.6090   23.1890 C   0  0  0  0  0  0  0  0  0  0  0  0
  -18.8850  -29.8740   23.7120 C   0  0  0  0  0  3  0  0  0  0  0  0
  -17.5370  -30.2670   23.8160 C   0  0  0  0  0  3  0  0  0  0  0  0
  -16.5170  -29.3900   23.4120 C   0  0  0  0  0  3  0  0  0  0  0  0
  -16.8450  -28.1240   22.8940 C   0  0  0  0  0  3  0  0  0  0  0  0
  -26.0060  -32.4690   23.5950 C   0  0  0  0  0  3  0  0  0  0  0  0
  -25.6730  -33.8380   24.0300 N   0  0  0  0  0  0  0  0  0  0  0  0
  -25.9670  -34.9550   23.3510 C   0  0  0  0  0  0  0  0  0  0  0  0
  -26.6100  -34.9440   22.2990 O   0  0  0  0  0  0  0  0  0  0  0  0
  -25.0990  -33.9210   24.8560 H   0  0  0  0  0  0  0  0  0  0  0  0
  -24.2140  -36.7560   23.1790 C   0  0  0  0  0  1  0  0  0  0  0  0
  -25.4750  -36.2990   23.9300 C   0  0  0  0  0  3  0  0  0  0  0  0
  -27.6100  -37.1490   24.7970 C   0  0  0  0  0  1  0  0  0  0  0  0
  -26.4930  -37.3710   23.8830 N   0  0  0  0  0  0  0  0  0  0  0  0
  -26.0770  -38.2720   24.1030 H   0  0  0  0  0  0  0  0  0  0  0  0
  -26.6220  -31.6560   24.8000 C   0  0  1  0  0  0  0  0  0  0  0  0
  -25.5980  -31.3190   25.9110 C   0  0  0  0  0  1  0  0  0  0  0  0
  -27.2370  -30.3250   24.3140 C   0  0  0  0  0  1  0  0  0  0  0  0
  -27.7750  -32.4630   25.4430 C   0  0  0  0  0  1  0  0  0  0  0  0
  1  6  1  0
  2  1  2  0
  3  6  2  0
  3  5  1  0
  4  3  1  0
  7  4  2  0
  7  2  1  0
  9  8  1  0
  9 18  1  0
  9  4  1  0
 10 16  1  0
 10 18  1  0
 11 16  1  0
 12 13  1  0
 12 11  1  0
 14 13  1  0
 14 23  1  0
 14 15  1  0
 16 15  1  0
 17 10  2  0
 18 19  1  0
 20 21  2  0
 21 40  1  0
 22 21  1  0
 22 25  1  0
 23 24  1  0
 23 20  1  0
 24 22  2  0
 25 26  1  0
 26 27  2  0
 28 31  1  0
 28 27  1  0
 29 28  2  0
 30 29  1  0
 30 25  2  0
 31 32  1  0
 32 37  2  0
 32 33  1  0
 33 34  2  0
 34 35  1  0
 35 39  1  0
 36 35  2  0
 37 36  1  0
 38 37  1  0
 40 41  1  0
 41 44  1  0
 41 43  1  0
 42 40  2  0
 45 20  1  0
 45 46  1  0
 47 45  1  0
 48 49  1  0
 48  2  1  0
 50 61  2  0
 51 49  1  0
 51 56  1  0
 52 60  1  0
 52 62  1  0
 53 59  1  0
 53 55  1  0
 54 60  1  0
 55 54  1  0
 56 55  2  0
 57 58  1  0
 57 51  2  0
 58 53  2  0
 59 52  1  0
 60 50  1  0
 62 64  2  0
 63 62  1  0
 65 63  1  0
 66 75  2  0
 66 71  1  0
 67 63  1  0
 67 71  1  0
 68 67  1  0
 69 70  1  0
 69 68  1  0
 70 66  1  0
 71 72  2  0
 72 73  1  0
 74 73  2  0
 75 74  1  0
 76 50  1  0
 76 77  1  0
 76 86  1  0
 77 80  1  0
 78 82  1  0
 78 77  1  0
 79 78  2  0
 82 81  1  0
 84 82  1  0
 84 85  1  0
 84 83  1  0
 86 89  1  1
 86 87  1  0
 88 86  1  0
M  ISO  4  10 100  18 100  48 101  49 101
M  END
>  <TORSDO>  (56) 
F 18

>  <SCORE>  (56) 
-15.064

>  <name>  (56) 
55

>  <ligand_id>  (56) 
55

>  <original_smiles>  (56) 
[H]c1nc(C([H])([H])[H])c(C([H])(N([H])C(=O)N2C([H])([H])C([H])([H])C([H])([H])C([H])(n3nc(-c4c([H])c([H])c(Oc5c([H])c([H])c(F)c([H])c5F)c([H])c4[H])c(C(=O)N([H])[H])c3N([H])[H])C2([H])[H])C([H])([H])[H])nc1C([H])([H])Oc1c([H])c([H])c2c(c1[H])C([H])([H])N(C(=O)C([H])(N([H])C(=O)C([H])(N([H])C([H])([H])[H])C([H])([H])[H])C(C([H])([H])[H])(C([H])([H])[H])C([H])([H])[H])C([H])(C(=O)N([H])C1([H])c3c([H])c([H])c([H])c([H])c3C([H])([H])C([H])([H])C1([H])[H])C2([H])[H]

>  <smiles>  (56) 
[H]c1nc(C([H])([H])[H])c(C([H])(N([H])C(=O)N2C([H])([H])C([H])([H])C([H])([H])C([H])(n3nc(-c4c([H])c([H])c(Oc5c([H])c([H])c(F)c([H])c5F)c([H])c4[H])c(C(=O)N([H])[H])c3N([H])[H])C2([H])[H])C([H])([H])[H])nc1C([H])([H])Oc1c([H])c([H])c2c(c1[H])C([H])([H])N(C(=O)C([H])(N([H])C(=O)C([H])(N([H])C([H])([H])[H])C([H])([H])[H])C(C([H])([H])[H])(C([H])([H])[H])C([H])([H])[H])C([H])(C(=O)N([H])C1([H])c3c([H])c([H])c([H])c([H])c3C([H])([H])C([H])([H])C1([H])[H])C2([H])[H]

$$$$
56:0:0
     RDKit          3D

 90 98  0  0  1  0  0  0  0  0999 V2000
  -28.3830  -21.6960   21.7300 C   0  0  0  0  0  2  0  0  0  0  0  0
  -29.3560  -20.2850   20.4950 C   0  0  0  0  0  0  0  0  0  0  0  0
  -28.8030  -20.4240   21.7400 N   0  0  0  0  0  0  0  0  0  0  0  0
  -29.2360  -21.4550   19.7620 N   0  0  0  0  0  2  0  0  0  0  0  0
  -28.5920  -22.3950   20.6060 N   0  0  0  0  0  0  0  0  0  0  0  0
  -31.3630  -18.8330   21.1250 C   0  0  0  0  0  1  0  0  0  0  0  0
  -30.7600  -19.0720   18.7330 C   0  0  0  0  0  1  0  0  0  0  0  0
  -30.1750  -18.9280   20.1510 C   0  0  2  0  0  0  0  0  0  0  0  0
  -29.3840  -17.4900   20.1700 C   0  0  0  0  0  2  0  0  0  0  0  0
  -30.7230  -15.0380   20.1770 C   0  0  0  0  0  0  0  0  0  0  0  0
  -30.6520  -12.7070   19.2330 C   0  0  0  0  0  2  0  0  0  0  0  0
  -29.7040  -12.7210   18.0100 C   0  0  0  0  0  2  0  0  0  0  0  0
  -28.2370  -12.5260   18.4440 C   0  0  0  0  0  2  0  0  0  0  0  0
  -27.8520  -13.4190   19.6530 C   0  0  0  0  0  3  0  0  0  0  0  0
  -28.9150  -13.3490   20.7730 C   0  0  0  0  0  2  0  0  0  0  0  0
  -30.2010  -13.7560   20.1830 N   0  0  0  0  0  0  0  0  0  0  0  0
  -31.8450  -15.2350   19.6990 O   0  0  0  0  0  0  0  0  0  0  0  0
  -29.8760  -16.0660   20.5910 N   0  0  0  0  0  0  0  0  0  0  0  0
  -29.1510  -15.6380   21.1470 H   0  0  0  0  0  0  0  0  0  0  0  0
  -25.4630  -13.9920   20.3910 C   0  0  0  0  0  0  0  0  0  0  0  0
  -24.4050  -13.2100   20.7700 C   0  0  0  0  0  0  0  0  0  0  0  0
  -24.8770  -11.8620   20.7360 C   0  0  0  0  0  0  0  0  0  0  0  0
  -26.5120  -13.1200   20.1480 N   0  0  0  0  0  0  0  0  0  0  0  0
  -26.1660  -11.8330   20.4160 N   0  0  0  0  0  0  0  0  0  0  0  0
  -24.1610  -10.5960   20.9320 C   0  0  0  0  0  0  0  0  0  0  0  0
  -24.5740   -9.6560   21.9020 C   0  0  0  0  0  3  0  0  0  0  0  0
  -23.8560   -8.4550   22.0850 C   0  0  0  0  0  3  0  0  0  0  0  0
  -22.7120   -8.1840   21.2990 C   0  0  0  0  0  0  0  0  0  0  0  0
  -22.3190   -9.1120   20.3190 C   0  0  0  0  0  3  0  0  0  0  0  0
  -23.0370  -10.3060   20.1330 C   0  0  0  0  0  3  0  0  0  0  0  0
  -21.9700   -7.0310   21.3890 O   0  0  0  0  0  0  0  0  0  0  0  0
  -21.8520   -6.3410   22.5670 C   0  0  0  0  0  0  0  0  0  0  0  0
  -21.3030   -6.9330   23.7260 C   0  0  0  0  0  3  0  0  0  0  0  0
  -21.1360   -6.1660   24.8970 C   0  0  0  0  0  3  0  0  0  0  0  0
  -21.5090   -4.8080   24.9100 C   0  0  0  0  0  0  0  0  0  0  0  0
  -22.0500   -4.2150   23.7550 C   0  0  0  0  0  3  0  0  0  0  0  0
  -22.2180   -4.9790   22.5870 C   0  0  0  0  0  0  0  0  0  0  0  0
  -22.7200   -4.3980   21.4720 F   0  0  0  0  0  0  0  0  0  0  0  0
  -21.3420   -4.0690   26.0310 F   0  0  0  0  0  0  0  0  0  0  0  0
  -23.0070  -13.6790   21.0540 C   0  0  0  0  0  0  0  0  0  0  0  0
  -22.2880  -12.9750   21.9220 N   0  0  0  0  0  0  0  0  0  0  0  0
  -22.5600  -14.7040   20.5410 O   0  0  0  0  0  0  0  0  0  0  0  0
  -22.6630  -12.1480   22.3610 H   0  0  0  0  0  0  0  0  0  0  0  0
  -21.3510  -13.2720   22.1530 H   0  0  0  0  0  0  0  0  0  0  0  0
  -25.6140  -15.3640   20.2120 N   0  0  0  0  0  0  0  0  0  0  0  0
  -24.8390  -16.0090   20.3220 H   0  0  0  0  0  0  0  0  0  0  0  0
  -26.4490  -15.8090   19.8540 H   0  0  0  0  0  0  0  0  0  0  0  0
  -27.9290  -23.7790   20.3180 C   0  0  0  0  0  2  0  0  0  0  0  0
  -28.6060  -25.1340   19.7110 C   0  0  0  0  0  2  0  0  0  0  0  0
  -28.4250  -26.5600   20.2230 O   0  0  0  0  0  0  0  0  0  0  0  0
  -24.6640  -31.9710   23.2560 C   0  0  0  0  0  0  0  0  0  0  0  0
  -27.2880  -27.4050   20.1320 C   0  0  0  0  0  0  0  0  0  0  0  0
  -23.4560  -30.5710   21.6170 C   0  0  0  0  0  3  0  0  0  0  0  0
  -24.9070  -29.0350   20.1530 C   0  0  0  0  0  0  0  0  0  0  0  0
  -25.9920  -30.9040   21.4060 C   0  0  0  0  0  2  0  0  0  0  0  0
  -26.0780  -29.5250   20.7430 C   0  0  0  0  0  0  0  0  0  0  0  0
  -27.2650  -28.7210   20.7180 C   0  0  0  0  0  3  0  0  0  0  0  0
  -26.0940  -26.9810   19.5140 C   0  0  0  0  0  3  0  0  0  0  0  0
  -24.9210  -27.7740   19.5270 C   0  0  0  0  0  3  0  0  0  0  0  0
  -23.6610  -29.9030   20.2290 C   0  0  0  0  0  2  0  0  0  0  0  0
  -24.7230  -31.1700   22.1490 N   0  0  0  0  0  0  0  0  0  0  0  0
  -23.5840  -32.2310   23.8080 O   0  0  0  0  0  0  0  0  0  0  0  0
  -22.8130  -29.5450   22.5820 C   0  0  0  0  0  0  0  0  0  0  0  0
  -21.4920  -29.3350   22.4550 N   0  0  0  0  0  0  0  0  0  0  0  0
  -23.5050  -28.9400   23.4040 O   0  0  0  0  0  0  0  0  0  0  0  0
  -20.9890  -29.8780   21.7670 H   0  0  0  0  0  0  0  0  0  0  0  0
  -18.1490  -28.0320   22.9430 C   0  0  0  0  0  0  0  0  0  0  0  0
  -20.6970  -28.3750   23.2260 C   0  0  0  0  0  3  0  0  0  0  0  0
  -20.8460  -26.9450   22.6570 C   0  0  0  0  0  2  0  0  0  0  0  0
  -19.7620  -26.5830   21.6370 C   0  0  0  0  0  2  0  0  0  0  0  0
  -18.3720  -26.6880   22.2720 C   0  0  0  0  0  2  0  0  0  0  0  0
  -19.2410  -28.8320   23.3760 C   0  0  0  0  0  0  0  0  0  0  0  0
  -18.9780  -30.0880   23.9640 C   0  0  0  0  0  3  0  0  0  0  0  0
  -17.6570  -30.5470   24.1210 C   0  0  0  0  0  3  0  0  0  0  0  0
  -16.5800  -29.7460   23.7040 C   0  0  0  0  0  3  0  0  0  0  0  0
  -16.8270  -28.4910   23.1200 C   0  0  0  0  0  3  0  0  0  0  0  0
  -25.9440  -32.6160   23.8700 C   0  0  0  0  0  3  0  0  0  0  0  0
  -26.4650  -31.8620   25.1560 C   0  0  1  0  0  0  0  0  0  0  0  0
  -25.3730  -31.6270   26.2260 C   0  0  0  0  0  1  0  0  0  0  0  0
  -27.0590  -30.4840   24.7800 C   0  0  0  0  0  1  0  0  0  0  0  0
  -27.6090  -32.6710   25.8110 C   0  0  0  0  0  1  0  0  0  0  0  0
  -25.6300  -34.0170   24.1890 N   0  0  0  0  0  0  0  0  0  0  0  0
  -25.9640  -35.0680   23.4280 C   0  0  0  0  0  0  0  0  0  0  0  0
  -26.6370  -34.9590   22.3990 O   0  0  0  0  0  0  0  0  0  0  0  0
  -25.0330  -34.1740   24.9880 H   0  0  0  0  0  0  0  0  0  0  0  0
  -24.2450  -36.8660   23.0520 C   0  0  0  0  0  1  0  0  0  0  0  0
  -25.4770  -36.4590   23.8770 C   0  0  0  0  0  3  0  0  0  0  0  0
  -27.6020  -37.3460   24.7300 C   0  0  0  0  0  1  0  0  0  0  0  0
  -26.5120  -37.5090   23.7710 N   0  0  0  0  0  0  0  0  0  0  0  0
  -26.1070  -38.4310   23.9080 H   0  0  0  0  0  0  0  0  0  0  0  0
  1  3  1  0
  2  3  2  0
  4  2  1  0
  4  5  1  0
  5  1  1  0
  8  7  1  6
  8  9  1  0
  8  2  1  0
  8  6  1  0
  9 18  1  0
 10 16  1  0
 10 18  1  0
 11 16  1  0
 12 13  1  0
 12 11  1  0
 14 13  1  0
 14 23  1  0
 14 15  1  0
 16 15  1  0
 17 10  2  0
 18 19  1  0
 20 21  2  0
 21 40  1  0
 22 21  1  0
 22 25  1  0
 23 20  1  0
 23 24  1  0
 24 22  2  0
 25 26  1  0
 26 27  2  0
 28 31  1  0
 28 27  1  0
 29 28  2  0
 30 29  1  0
 30 25  2  0
 31 32  1  0
 32 37  2  0
 32 33  1  0
 33 34  2  0
 34 35  1  0
 35 39  1  0
 36 35  2  0
 37 36  1  0
 38 37  1  0
 40 41  1  0
 41 44  1  0
 41 43  1  0
 42 40  2  0
 45 46  1  0
 45 20  1  0
 47 45  1  0
 48  5  1  0
 49 50  1  0
 49 48  1  0
 51 62  2  0
 52 50  1  0
 52 57  1  0
 53 61  1  0
 53 63  1  0
 54 60  1  0
 54 56  1  0
 55 61  1  0
 56 55  1  0
 57 56  2  0
 58 59  1  0
 58 52  2  0
 59 54  2  0
 60 53  1  0
 61 51  1  0
 63 65  2  0
 64 63  1  0
 66 64  1  0
 67 76  2  0
 67 72  1  0
 68 64  1  0
 68 72  1  0
 69 68  1  0
 70 71  1  0
 70 69  1  0
 71 67  1  0
 72 73  2  0
 73 74  1  0
 75 74  2  0
 76 75  1  0
 77 51  1  0
 77 82  1  0
 77 78  1  0
 78 81  1  1
 78 79  1  0
 80 78  1  0
 82 85  1  0
 83 87  1  0
 83 82  1  0
 84 83  2  0
 87 86  1  0
 89 87  1  0
 89 90  1  0
 89 88  1  0
M  ISO  4  10 100  18 100  49 101  50 101
M  END
>  <TORSDO>  (57) 
F 20

>  <SCORE>  (57) 
-13.239

>  <name>  (57) 
56

>  <ligand_id>  (57) 
56

>  <original_smiles>  (57) 
[H]c1c([H])c([H])c2c(c1[H])C([H])([H])C([H])([H])C([H])([H])C2([H])N([H])C(=O)C1([H])N(C(=O)C([H])(N([H])C(=O)C([H])(N([H])C([H])([H])[H])C([H])([H])[H])C(C([H])([H])[H])(C([H])([H])[H])C([H])([H])[H])C([H])([H])c2c([H])c(OC([H])([H])C([H])([H])n3nc(C(C([H])([H])[H])(C([H])([H])[H])C([H])([H])N([H])C(=O)N4C([H])([H])C([H])([H])C([H])([H])C([H])(n5nc(-c6c([H])c([H])c(Oc7c([H])c([H])c(F)c([H])c7F)c([H])c6[H])c(C(=O)N([H])[H])c5N([H])[H])C4([H])[H])nc3[H])c([H])c([H])c2C1([H])[H]

>  <smiles>  (57) 
[H]c1c([H])c([H])c2c(c1[H])C([H])([H])C([H])([H])C([H])([H])C2([H])N([H])C(=O)C1([H])N(C(=O)C([H])(N([H])C(=O)C([H])(N([H])C([H])([H])[H])C([H])([H])[H])C(C([H])([H])[H])(C([H])([H])[H])C([H])([H])[H])C([H])([H])c2c([H])c(OC([H])([H])C([H])([H])n3nc(C(C([H])([H])[H])(C([H])([H])[H])C([H])([H])N([H])C(=O)N4C([H])([H])C([H])([H])C([H])([H])C([H])(n5nc(-c6c([H])c([H])c(Oc7c([H])c([H])c(F)c([H])c7F)c([H])c6[H])c(C(=O)N([H])[H])c5N([H])[H])C4([H])[H])nc3[H])c([H])c([H])c2C1([H])[H]

$$$$
57:0:0
     RDKit          3D

 88 96  0  0  1  0  0  0  0  0999 V2000
  -29.5090  -20.2890   20.1750 C   0  0  0  0  0  0  0  0  0  0  0  0
  -30.0750  -18.0480   20.2740 C   0  0  0  0  0  0  0  0  0  0  0  0
  -28.7660  -19.0150   22.2690 C   0  0  0  0  0  1  0  0  0  0  0  0
  -30.2550  -19.9670   19.0990 N   0  0  0  0  0  0  0  0  0  0  0  0
  -30.6130  -18.5950   19.1650 N   0  0  0  0  0  0  0  0  0  0  0  0
  -29.4210  -19.1150   20.9620 N   0  0  0  0  0  0  0  0  0  0  0  0
  -30.7930  -16.3630   22.1460 C   0  0  0  0  0  1  0  0  0  0  0  0
  -30.1700  -16.4440   20.7350 C   0  0  0  0  0  3  0  0  0  0  0  0
  -30.8140  -15.1190   19.9120 C   0  0  0  0  0  0  0  0  0  0  0  0
  -30.5980  -12.8040   18.8050 C   0  0  0  0  0  2  0  0  0  0  0  0
  -29.6050  -12.8700   17.6180 C   0  0  0  0  0  2  0  0  0  0  0  0
  -28.1610  -12.6510   18.1100 C   0  0  0  0  0  2  0  0  0  0  0  0
  -27.8450  -13.4930   19.3740 C   0  0  0  0  0  3  0  0  0  0  0  0
  -28.9650  -13.4090   20.4410 C   0  0  0  0  0  2  0  0  0  0  0  0
  -30.2110  -13.8530   19.8030 N   0  0  0  0  0  0  0  0  0  0  0  0
  -31.9320  -15.2140   19.3860 O   0  0  0  0  0  0  0  0  0  0  0  0
  -25.5090  -14.0760   20.2320 C   0  0  0  0  0  0  0  0  0  0  0  0
  -24.4580  -13.3090   20.6430 C   0  0  0  0  0  0  0  0  0  0  0  0
  -24.9050  -11.9530   20.5720 C   0  0  0  0  0  0  0  0  0  0  0  0
  -26.5310  -13.1950   19.9290 N   0  0  0  0  0  0  0  0  0  0  0  0
  -26.1790  -11.9070   20.1940 N   0  0  0  0  0  0  0  0  0  0  0  0
  -24.1700  -10.6960   20.7840 C   0  0  0  0  0  0  0  0  0  0  0  0
  -24.5790   -9.7610   21.7600 C   0  0  0  0  0  3  0  0  0  0  0  0
  -23.8480   -8.5700   21.9610 C   0  0  0  0  0  3  0  0  0  0  0  0
  -22.6950   -8.3040   21.1830 C   0  0  0  0  0  0  0  0  0  0  0  0
  -22.3010   -9.2300   20.2020 C   0  0  0  0  0  3  0  0  0  0  0  0
  -23.0320  -10.4140   20.0000 C   0  0  0  0  0  3  0  0  0  0  0  0
  -21.9350   -7.1650   21.2890 O   0  0  0  0  0  0  0  0  0  0  0  0
  -21.7700   -6.5180   22.4880 C   0  0  0  0  0  0  0  0  0  0  0  0
  -21.2220   -7.1670   23.6150 C   0  0  0  0  0  3  0  0  0  0  0  0
  -21.0100   -6.4470   24.8090 C   0  0  0  0  0  3  0  0  0  0  0  0
  -21.3310   -5.0770   24.8710 C   0  0  0  0  0  0  0  0  0  0  0  0
  -21.8710   -4.4280   23.7480 C   0  0  0  0  0  3  0  0  0  0  0  0
  -22.0870   -5.1460   22.5600 C   0  0  0  0  0  0  0  0  0  0  0  0
  -22.5900   -4.5120   21.4720 F   0  0  0  0  0  0  0  0  0  0  0  0
  -21.1180   -4.3840   26.0140 F   0  0  0  0  0  0  0  0  0  0  0  0
  -23.0840  -13.7960   20.9900 C   0  0  0  0  0  0  0  0  0  0  0  0
  -22.4040  -13.1160   21.9100 N   0  0  0  0  0  0  0  0  0  0  0  0
  -22.6230  -14.8180   20.4840 O   0  0  0  0  0  0  0  0  0  0  0  0
  -22.7890  -12.2940   22.3520 H   0  0  0  0  0  0  0  0  0  0  0  0
  -21.4810  -13.4270   22.1750 H   0  0  0  0  0  0  0  0  0  0  0  0
  -25.6780  -15.4510   20.0710 N   0  0  0  0  0  0  0  0  0  0  0  0
  -24.9170  -16.0980   20.2370 H   0  0  0  0  0  0  0  0  0  0  0  0
  -26.5130  -15.9030   19.7250 H   0  0  0  0  0  0  0  0  0  0  0  0
  -28.6520  -21.7120   20.2840 C   0  0  0  0  0  2  0  0  0  0  0  0
  -29.1460  -23.3370   20.2970 C   0  0  0  0  0  3  0  0  0  0  0  0
  -28.1060  -24.6500   20.0070 C   0  0  0  0  0  3  0  0  0  0  0  0
  -28.3710  -26.1930   20.0910 O   0  0  0  0  0  0  0  0  0  0  0  0
  -24.7250  -31.8330   23.1100 C   0  0  0  0  0  0  0  0  0  0  0  0
  -27.3020  -27.1680   20.0200 C   0  0  0  0  0  0  0  0  0  0  0  0
  -23.5150  -30.4440   21.4740 C   0  0  0  0  0  3  0  0  0  0  0  0
  -24.9560  -28.8950   20.0150 C   0  0  0  0  0  0  0  0  0  0  0  0
  -26.0620  -30.7370   21.2710 C   0  0  0  0  0  2  0  0  0  0  0  0
  -26.1400  -29.3500   20.6080 C   0  0  0  0  0  0  0  0  0  0  0  0
  -27.3170  -28.5070   20.5860 C   0  0  0  0  0  3  0  0  0  0  0  0
  -26.0840  -26.8080   19.4020 C   0  0  0  0  0  3  0  0  0  0  0  0
  -24.9380  -27.6360   19.4020 C   0  0  0  0  0  3  0  0  0  0  0  0
  -23.7210  -29.7850   20.0820 C   0  0  0  0  0  2  0  0  0  0  0  0
  -24.7870  -31.0280   22.0070 N   0  0  0  0  0  0  0  0  0  0  0  0
  -23.6440  -32.0980   23.6600 O   0  0  0  0  0  0  0  0  0  0  0  0
  -22.8670  -29.4140   22.4340 C   0  0  0  0  0  0  0  0  0  0  0  0
  -21.5410  -29.2150   22.3140 N   0  0  0  0  0  0  0  0  0  0  0  0
  -23.5590  -28.8000   23.2490 O   0  0  0  0  0  0  0  0  0  0  0  0
  -21.0350  -29.7710   21.6370 H   0  0  0  0  0  0  0  0  0  0  0  0
  -18.1990  -27.9140   22.8170 C   0  0  0  0  0  0  0  0  0  0  0  0
  -20.7500  -28.2570   23.0900 C   0  0  0  0  0  3  0  0  0  0  0  0
  -20.8930  -26.8240   22.5260 C   0  0  0  0  0  2  0  0  0  0  0  0
  -19.8040  -26.4610   21.5090 C   0  0  0  0  0  2  0  0  0  0  0  0
  -18.4180  -26.5680   22.1470 C   0  0  0  0  0  2  0  0  0  0  0  0
  -19.2930  -28.7140   23.2450 C   0  0  0  0  0  0  0  0  0  0  0  0
  -19.0300  -29.9720   23.8320 C   0  0  0  0  0  3  0  0  0  0  0  0
  -17.7100  -30.4310   23.9970 C   0  0  0  0  0  3  0  0  0  0  0  0
  -16.6330  -29.6300   23.5800 C   0  0  0  0  0  3  0  0  0  0  0  0
  -16.8780  -28.3750   22.9970 C   0  0  0  0  0  3  0  0  0  0  0  0
  -26.0060  -32.4790   23.7230 C   0  0  0  0  0  3  0  0  0  0  0  0
  -26.5610  -31.6930   24.9770 C   0  0  1  0  0  0  0  0  0  0  0  0
  -25.4920  -31.4180   26.0610 C   0  0  0  0  0  1  0  0  0  0  0  0
  -27.1640  -30.3360   24.5500 C   0  0  0  0  0  1  0  0  0  0  0  0
  -27.7010  -32.5050   25.6400 C   0  0  0  0  0  1  0  0  0  0  0  0
  -25.6730  -33.8620   24.0960 N   0  0  0  0  0  0  0  0  0  0  0  0
  -25.9710  -34.9470   23.3700 C   0  0  0  0  0  0  0  0  0  0  0  0
  -26.6230  -34.8900   22.3230 O   0  0  0  0  0  0  0  0  0  0  0  0
  -25.0960  -33.9780   24.9170 H   0  0  0  0  0  0  0  0  0  0  0  0
  -24.2080  -36.7270   23.1080 C   0  0  0  0  0  1  0  0  0  0  0  0
  -25.4690  -36.3110   23.8810 C   0  0  0  0  0  3  0  0  0  0  0  0
  -27.6000  -37.2070   24.7130 C   0  0  0  0  0  1  0  0  0  0  0  0
  -26.4810  -37.3860   23.7910 N   0  0  0  0  0  0  0  0  0  0  0  0
  -26.0590  -38.2910   23.9840 H   0  0  0  0  0  0  0  0  0  0  0  0
  1 45  1  0
  1  6  1  0
  2  8  1  0
  2  6  1  0
  4  5  1  0
  4  1  2  0
  5  2  2  0
  6  3  1  0
  8  7  1  0
  9  8  1  0
 10 15  1  0
 11 12  1  0
 11 10  1  0
 13 12  1  0
 13 20  1  0
 13 14  1  0
 15  9  1  0
 15 14  1  0
 16  9  2  0
 17 18  2  0
 18 37  1  0
 19 18  1  0
 19 22  1  0
 20 21  1  0
 20 17  1  0
 21 19  2  0
 22 23  1  0
 23 24  2  0
 25 28  1  0
 25 24  1  0
 26 25  2  0
 27 26  1  0
 27 22  2  0
 28 29  1  0
 29 34  2  0
 29 30  1  0
 30 31  2  0
 31 32  1  0
 32 36  1  0
 33 32  2  0
 34 33  1  0
 35 34  1  0
 37 38  1  0
 38 41  1  0
 38 40  1  0
 39 37  2  0
 42 17  1  0
 42 43  1  0
 44 42  1  0
 45 46  1  0
 47 48  1  0
 47 46  2  0
 49 60  2  0
 50 48  1  0
 50 55  1  0
 51 59  1  0
 51 61  1  0
 52 58  1  0
 52 54  1  0
 53 59  1  0
 54 53  1  0
 55 54  2  0
 56 50  2  0
 57 56  1  0
 57 52  2  0
 58 51  1  0
 59 49  1  0
 61 63  2  0
 62 61  1  0
 64 62  1  0
 65 74  2  0
 65 70  1  0
 66 62  1  0
 66 70  1  0
 67 66  1  0
 68 69  1  0
 68 67  1  0
 69 65  1  0
 70 71  2  0
 71 72  1  0
 73 72  2  0
 74 73  1  0
 75 49  1  0
 75 80  1  0
 75 76  1  0
 76 79  1  1
 76 77  1  0
 78 76  1  0
 80 83  1  0
 81 85  1  0
 81 80  1  0
 82 81  2  0
 85 84  1  0
 87 85  1  0
 87 88  1  0
 87 86  1  0
M  ISO  4   8 100   9 100  47 101  48 101
M  END
>  <TORSDO>  (58) 
F 20

>  <SCORE>  (58) 
-11.233

>  <name>  (58) 
57

>  <ligand_id>  (58) 
57

>  <original_smiles>  (58) 
[H]c1c([H])c([H])c2c(c1[H])C([H])([H])C([H])([H])C([H])([H])C2([H])N([H])C(=O)C1([H])N(C(=O)C([H])(N([H])C(=O)C([H])(N([H])C([H])([H])[H])C([H])([H])[H])C(C([H])([H])[H])(C([H])([H])[H])C([H])([H])[H])C([H])([H])c2c([H])c(OC([H])([H])C([H])([H])C([H])([H])c3nnc(C([H])(C(=O)N4C([H])([H])C([H])([H])C([H])([H])C([H])(n5nc(-c6c([H])c([H])c(Oc7c([H])c([H])c(F)c([H])c7F)c([H])c6[H])c(C(=O)N([H])[H])c5N([H])[H])C4([H])[H])C([H])([H])[H])n3C([H])([H])[H])c([H])c([H])c2C1([H])[H]

>  <smiles>  (58) 
[H]c1c([H])c([H])c2c(c1[H])C([H])([H])C([H])([H])C([H])([H])C2([H])N([H])C(=O)C1([H])N(C(=O)C([H])(N([H])C(=O)C([H])(N([H])C([H])([H])[H])C([H])([H])[H])C(C([H])([H])[H])(C([H])([H])[H])C([H])([H])[H])C([H])([H])c2c([H])c(OC([H])([H])C([H])([H])C([H])([H])c3nnc(C([H])(C(=O)N4C([H])([H])C([H])([H])C([H])([H])C([H])(n5nc(-c6c([H])c([H])c(Oc7c([H])c([H])c(F)c([H])c7F)c([H])c6[H])c(C(=O)N([H])[H])c5N([H])[H])C4([H])[H])C([H])([H])[H])n3C([H])([H])[H])c([H])c([H])c2C1([H])[H]

$$$$
58:0:0
     RDKit          3D

 90 98  0  0  1  0  0  0  0  0999 V2000
  -29.0580  -22.4990   21.6090 C   0  0  0  0  0  3  0  0  0  0  0  0
  -28.5140  -23.3430   20.5850 C   0  0  0  0  0  0  0  0  0  0  0  0
  -28.3310  -22.5620   19.4080 C   0  0  0  0  0  0  0  0  0  0  0  0
  -29.1770  -20.4970   20.3230 C   0  0  0  0  0  0  0  0  0  0  0  0
  -27.6860  -23.1800   18.1820 C   0  0  0  0  0  1  0  0  0  0  0  0
  -29.3980  -21.1580   21.4740 N   0  0  0  0  0  0  0  0  0  0  0  0
  -28.6660  -21.2190   19.2980 N   0  0  0  0  0  0  0  0  0  0  0  0
  -31.3210  -19.1780   19.7540 C   0  0  0  0  0  1  0  0  0  0  0  0
  -29.8110  -19.0080   19.9830 C   0  0  0  0  0  3  0  0  0  0  0  0
  -29.5740  -17.5370   20.7640 C   0  0  0  0  0  2  0  0  0  0  0  0
  -30.5210  -14.9570   20.3030 C   0  0  0  0  0  0  0  0  0  0  0  0
  -30.3950  -12.5980   19.3840 C   0  0  0  0  0  2  0  0  0  0  0  0
  -29.4690  -12.5230   18.1460 C   0  0  0  0  0  2  0  0  0  0  0  0
  -27.9840  -12.4110   18.5550 C   0  0  0  0  0  2  0  0  0  0  0  0
  -27.5900  -13.3230   19.7480 C   0  0  0  0  0  3  0  0  0  0  0  0
  -28.6480  -13.3120   20.8710 C   0  0  0  0  0  2  0  0  0  0  0  0
  -29.9180  -13.7070   20.2510 N   0  0  0  0  0  0  0  0  0  0  0  0
  -31.7540  -15.0100   20.1970 O   0  0  0  0  0  0  0  0  0  0  0  0
  -29.2990  -16.2790   18.6700 C   0  0  0  0  0  1  0  0  0  0  0  0
  -29.7350  -16.1270   20.0640 N   0  0  0  0  0  0  0  0  0  0  0  0
  -25.2120  -13.9210   20.4740 C   0  0  0  0  0  0  0  0  0  0  0  0
  -24.1420  -13.1490   20.8340 C   0  0  0  0  0  0  0  0  0  0  0  0
  -24.6030  -11.7970   20.8200 C   0  0  0  0  0  0  0  0  0  0  0  0
  -26.2530  -13.0360   20.2480 N   0  0  0  0  0  0  0  0  0  0  0  0
  -25.8960  -11.7550   20.5240 N   0  0  0  0  0  0  0  0  0  0  0  0
  -23.8730  -10.5400   21.0100 C   0  0  0  0  0  0  0  0  0  0  0  0
  -24.2970   -9.5770   21.9520 C   0  0  0  0  0  3  0  0  0  0  0  0
  -23.5690   -8.3810   22.1270 C   0  0  0  0  0  3  0  0  0  0  0  0
  -22.4010   -8.1410   21.3620 C   0  0  0  0  0  0  0  0  0  0  0  0
  -21.9950   -9.0950   20.4110 C   0  0  0  0  0  3  0  0  0  0  0  0
  -22.7240  -10.2830   20.2340 C   0  0  0  0  0  3  0  0  0  0  0  0
  -21.6460   -6.9950   21.4450 O   0  0  0  0  0  0  0  0  0  0  0  0
  -21.5870   -6.2570   22.6000 C   0  0  0  0  0  0  0  0  0  0  0  0
  -21.1540   -6.8170   23.8220 C   0  0  0  0  0  3  0  0  0  0  0  0
  -21.0430   -6.0040   24.9670 C   0  0  0  0  0  3  0  0  0  0  0  0
  -21.3520   -4.6320   24.8930 C   0  0  0  0  0  0  0  0  0  0  0  0
  -21.7770   -4.0720   23.6750 C   0  0  0  0  0  3  0  0  0  0  0  0
  -21.8920   -4.8830   22.5310 C   0  0  0  0  0  0  0  0  0  0  0  0
  -22.2820   -4.3330   21.3540 F   0  0  0  0  0  0  0  0  0  0  0  0
  -21.2380   -3.8480   25.9920 F   0  0  0  0  0  0  0  0  0  0  0  0
  -22.7440  -13.6330   21.0870 C   0  0  0  0  0  0  0  0  0  0  0  0
  -22.0040  -12.9410   21.9450 N   0  0  0  0  0  0  0  0  0  0  0  0
  -22.3170  -14.6580   20.5560 O   0  0  0  0  0  0  0  0  0  0  0  0
  -22.3650  -12.1100   22.3920 H   0  0  0  0  0  0  0  0  0  0  0  0
  -21.0620  -13.2430   22.1510 H   0  0  0  0  0  0  0  0  0  0  0  0
  -25.3780  -15.2920   20.2940 N   0  0  0  0  0  0  0  0  0  0  0  0
  -24.6100  -15.9460   20.3990 H   0  0  0  0  0  0  0  0  0  0  0  0
  -26.2360  -15.7380   19.9960 H   0  0  0  0  0  0  0  0  0  0  0  0
  -27.8720  -24.8310   20.8830 C   0  0  0  0  0  2  0  0  0  0  0  0
  -28.2230  -26.2100   20.2900 O   0  0  0  0  0  0  0  0  0  0  0  0
  -24.5800  -31.8830   23.2410 C   0  0  0  0  0  0  0  0  0  0  0  0
  -27.1850  -27.1990   20.2410 C   0  0  0  0  0  0  0  0  0  0  0  0
  -23.3900  -30.4740   21.6030 C   0  0  0  0  0  3  0  0  0  0  0  0
  -24.8510  -28.9120   20.1840 C   0  0  0  0  0  0  0  0  0  0  0  0
  -25.9420  -30.7630   21.4440 C   0  0  0  0  0  2  0  0  0  0  0  0
  -26.0250  -29.3740   20.7960 C   0  0  0  0  0  0  0  0  0  0  0  0
  -27.1980  -28.5320   20.8050 C   0  0  0  0  0  3  0  0  0  0  0  0
  -25.9930  -26.8370   19.5810 C   0  0  0  0  0  3  0  0  0  0  0  0
  -24.8460  -27.6560   19.5620 C   0  0  0  0  0  3  0  0  0  0  0  0
  -23.6170  -29.7960   20.2270 C   0  0  0  0  0  2  0  0  0  0  0  0
  -24.6560  -31.0610   22.1510 N   0  0  0  0  0  0  0  0  0  0  0  0
  -23.4910  -32.1630   23.7660 O   0  0  0  0  0  0  0  0  0  0  0  0
  -22.7160  -29.4660   22.5680 C   0  0  0  0  0  0  0  0  0  0  0  0
  -21.3880  -29.2890   22.4390 N   0  0  0  0  0  0  0  0  0  0  0  0
  -23.3900  -28.8460   23.3940 O   0  0  0  0  0  0  0  0  0  0  0  0
  -20.9020  -29.8370   21.7450 H   0  0  0  0  0  0  0  0  0  0  0  0
  -18.0130  -28.0760   22.9460 C   0  0  0  0  0  0  0  0  0  0  0  0
  -20.5710  -28.3520   23.2130 C   0  0  0  0  0  3  0  0  0  0  0  0
  -20.6790  -26.9170   22.6460 C   0  0  0  0  0  2  0  0  0  0  0  0
  -19.5800  -26.5840   21.6330 C   0  0  0  0  0  2  0  0  0  0  0  0
  -18.1960  -26.7260   22.2740 C   0  0  0  0  0  2  0  0  0  0  0  0
  -19.1280  -28.8470   23.3730 C   0  0  0  0  0  0  0  0  0  0  0  0
  -18.9010  -30.1070   23.9650 C   0  0  0  0  0  3  0  0  0  0  0  0
  -17.5940  -30.6020   24.1290 C   0  0  0  0  0  3  0  0  0  0  0  0
  -16.4940  -29.8300   23.7180 C   0  0  0  0  0  3  0  0  0  0  0  0
  -16.7040  -28.5690   23.1320 C   0  0  0  0  0  3  0  0  0  0  0  0
  -25.8530  -32.5270   23.8690 C   0  0  0  0  0  3  0  0  0  0  0  0
  -26.3610  -31.7680   25.1580 C   0  0  1  0  0  0  0  0  0  0  0  0
  -25.2600  -31.5400   26.2210 C   0  0  0  0  0  1  0  0  0  0  0  0
  -26.9470  -30.3860   24.7910 C   0  0  0  0  0  1  0  0  0  0  0  0
  -27.5090  -32.5690   25.8180 C   0  0  0  0  0  1  0  0  0  0  0  0
  -25.5350  -33.9270   24.1900 N   0  0  0  0  0  0  0  0  0  0  0  0
  -25.8680  -34.9790   23.4310 C   0  0  0  0  0  0  0  0  0  0  0  0
  -26.5420  -34.8730   22.4030 O   0  0  0  0  0  0  0  0  0  0  0  0
  -24.9340  -34.0840   24.9860 H   0  0  0  0  0  0  0  0  0  0  0  0
  -24.1400  -36.7710   23.0660 C   0  0  0  0  0  1  0  0  0  0  0  0
  -25.3790  -36.3690   23.8820 C   0  0  0  0  0  3  0  0  0  0  0  0
  -27.5100  -37.2550   24.7190 C   0  0  0  0  0  1  0  0  0  0  0  0
  -26.4110  -37.4230   23.7730 N   0  0  0  0  0  0  0  0  0  0  0  0
  -26.0030  -38.3420   23.9240 H   0  0  0  0  0  0  0  0  0  0  0  0
  2 49  1  0
  2  1  2  0
  3  2  1  0
  4  6  2  0
  5  3  1  0
  6  1  1  0
  7  3  2  0
  7  4  1  0
  9  8  1  0
  9  4  1  0
  9 10  1  0
 12 17  1  0
 13 14  1  0
 13 12  1  0
 15 14  1  0
 15 24  1  0
 15 16  1  0
 17 11  1  0
 17 16  1  0
 18 11  2  0
 19 20  1  0
 20 11  1  0
 20 10  1  0
 21 22  2  0
 22 41  1  0
 23 22  1  0
 23 26  1  0
 24 21  1  0
 24 25  1  0
 25 23  2  0
 26 27  1  0
 27 28  2  0
 29 32  1  0
 29 28  1  0
 30 29  2  0
 31 30  1  0
 31 26  2  0
 32 33  1  0
 33 34  1  0
 34 35  2  0
 36 35  1  0
 36 40  1  0
 37 36  2  0
 38 33  2  0
 38 37  1  0
 39 38  1  0
 41 42  1  0
 42 45  1  0
 42 44  1  0
 43 41  2  0
 46 47  1  0
 46 21  1  0
 48 46  1  0
 50 49  1  0
 51 62  2  0
 52 50  1  0
 52 57  1  0
 53 61  1  0
 53 63  1  0
 54 60  1  0
 54 56  1  0
 55 61  1  0
 56 57  2  0
 56 55  1  0
 58 52  2  0
 59 58  1  0
 59 54  2  0
 60 53  1  0
 61 51  1  0
 63 65  2  0
 64 63  1  0
 66 64  1  0
 67 76  2  0
 67 72  1  0
 68 64  1  0
 68 72  1  0
 69 68  1  0
 70 71  1  0
 70 69  1  0
 71 67  1  0
 72 73  2  0
 73 74  1  0
 75 74  2  0
 76 75  1  0
 77 51  1  0
 77 82  1  0
 77 78  1  0
 78 81  1  1
 78 79  1  0
 80 78  1  0
 82 85  1  0
 83 87  1  0
 83 82  1  0
 84 83  2  0
 87 86  1  0
 89 87  1  0
 89 90  1  0
 89 88  1  0
M  ISO  4  11 100  20 100  49 101  50 101
M  END
>  <TORSDO>  (59) 
F 19

>  <SCORE>  (59) 
-14.114

>  <name>  (59) 
58

>  <ligand_id>  (59) 
58

>  <original_smiles>  (59) 
[H]c1nc(C([H])(C([H])([H])[H])C([H])([H])N(C(=O)N2C([H])([H])C([H])([H])C([H])([H])C([H])(n3nc(-c4c([H])c([H])c(Oc5c([H])c([H])c(F)c([H])c5F)c([H])c4[H])c(C(=O)N([H])[H])c3N([H])[H])C2([H])[H])C([H])([H])[H])nc(C([H])([H])[H])c1C([H])([H])Oc1c([H])c([H])c2c(c1[H])C([H])([H])N(C(=O)C([H])(N([H])C(=O)C([H])(N([H])C([H])([H])[H])C([H])([H])[H])C(C([H])([H])[H])(C([H])([H])[H])C([H])([H])[H])C([H])(C(=O)N([H])C1([H])c3c([H])c([H])c([H])c([H])c3C([H])([H])C([H])([H])C1([H])[H])C2([H])[H]

>  <smiles>  (59) 
[H]c1nc(C([H])(C([H])([H])[H])C([H])([H])N(C(=O)N2C([H])([H])C([H])([H])C([H])([H])C([H])(n3nc(-c4c([H])c([H])c(Oc5c([H])c([H])c(F)c([H])c5F)c([H])c4[H])c(C(=O)N([H])[H])c3N([H])[H])C2([H])[H])C([H])([H])[H])nc(C([H])([H])[H])c1C([H])([H])Oc1c([H])c([H])c2c(c1[H])C([H])([H])N(C(=O)C([H])(N([H])C(=O)C([H])(N([H])C([H])([H])[H])C([H])([H])[H])C(C([H])([H])[H])(C([H])([H])[H])C([H])([H])[H])C([H])(C(=O)N([H])C1([H])c3c([H])c([H])c([H])c([H])c3C([H])([H])C([H])([H])C1([H])[H])C2([H])[H]

$$$$
59:0:0
     RDKit          3D

 93101  0  0  1  0  0  0  0  0999 V2000
  -29.2360  -19.8240   18.7690 C   0  0  0  0  0  3  0  0  0  0  0  0
  -29.1370  -20.3980   20.0130 C   0  0  0  0  0  0  0  0  0  0  0  0
  -30.2560  -18.4270   20.1810 C   0  0  0  0  0  3  0  0  0  0  0  0
  -29.9290  -18.6400   18.8910 N   0  0  0  0  0  0  0  0  0  0  0  0
  -29.7850  -19.5050   20.8520 N   0  0  0  0  0  0  0  0  0  0  0  0
  -29.8890  -19.6340   21.8520 H   0  0  0  0  0  0  0  0  0  0  0  0
  -30.6940  -18.4420   16.5220 C   0  0  0  0  0  1  0  0  0  0  0  0
  -29.0380  -16.7860   17.5150 C   0  0  0  0  0  1  0  0  0  0  0  0
  -30.2370  -17.7030   17.7910 C   0  0  0  0  0  3  0  0  0  0  0  0
  -28.3930  -21.6680   20.4340 C   0  0  0  0  0  2  0  0  0  0  0  0
  -29.2040  -23.0050   20.5160 C   0  0  0  0  0  2  0  0  0  0  0  0
  -28.3810  -24.3230   20.2310 C   0  0  0  0  0  2  0  0  0  0  0  0
  -28.7540  -25.5870   21.0750 C   0  0  0  0  0  2  0  0  0  0  0  0
  -28.6960  -26.8870   20.4300 O   0  0  0  0  0  0  0  0  0  0  0  0
  -24.6400  -32.0130   23.3850 C   0  0  0  0  0  0  0  0  0  0  0  0
  -27.5030  -27.5900   20.4400 C   0  0  0  0  0  0  0  0  0  0  0  0
  -23.5350  -30.5800   21.6980 C   0  0  0  0  0  3  0  0  0  0  0  0
  -25.0800  -29.0630   20.3430 C   0  0  0  0  0  0  0  0  0  0  0  0
  -26.0610  -30.9880   21.6040 C   0  0  0  0  0  2  0  0  0  0  0  0
  -26.2030  -29.6120   20.9750 C   0  0  0  0  0  0  0  0  0  0  0  0
  -27.4190  -28.8860   21.0130 C   0  0  0  0  0  3  0  0  0  0  0  0
  -26.3620  -27.0590   19.8060 C   0  0  0  0  0  3  0  0  0  0  0  0
  -25.1560  -27.7890   19.7530 C   0  0  0  0  0  3  0  0  0  0  0  0
  -23.8180  -29.9000   20.3320 C   0  0  0  0  0  2  0  0  0  0  0  0
  -24.7610  -31.2100   22.2880 N   0  0  0  0  0  0  0  0  0  0  0  0
  -23.5310  -32.2610   23.8790 O   0  0  0  0  0  0  0  0  0  0  0  0
  -22.8650  -29.5490   22.6350 C   0  0  0  0  0  0  0  0  0  0  0  0
  -21.5560  -29.3220   22.4410 N   0  0  0  0  0  0  0  0  0  0  0  0
  -23.5240  -28.9540   23.4930 O   0  0  0  0  0  0  0  0  0  0  0  0
  -21.0840  -29.8550   21.7230 H   0  0  0  0  0  0  0  0  0  0  0  0
  -18.2010  -28.0200   22.7750 C   0  0  0  0  0  0  0  0  0  0  0  0
  -20.7320  -28.3620   23.1760 C   0  0  0  0  0  3  0  0  0  0  0  0
  -20.9100  -26.9310   22.6160 C   0  0  0  0  0  2  0  0  0  0  0  0
  -19.8720  -26.5670   21.5500 C   0  0  0  0  0  2  0  0  0  0  0  0
  -18.4550  -26.6730   22.1210 C   0  0  0  0  0  2  0  0  0  0  0  0
  -19.2710  -28.8200   23.2570 C   0  0  0  0  0  0  0  0  0  0  0  0
  -18.9820  -30.0800   23.8240 C   0  0  0  0  0  3  0  0  0  0  0  0
  -17.6550  -30.5400   23.9190 C   0  0  0  0  0  3  0  0  0  0  0  0
  -16.5990  -29.7370   23.4560 C   0  0  0  0  0  3  0  0  0  0  0  0
  -16.8720  -28.4780   22.8900 C   0  0  0  0  0  3  0  0  0  0  0  0
  -25.8830  -32.6760   24.0560 C   0  0  0  0  0  3  0  0  0  0  0  0
  -25.5510  -34.0840   24.3150 N   0  0  0  0  0  0  0  0  0  0  0  0
  -25.9170  -35.1080   23.5330 C   0  0  0  0  0  0  0  0  0  0  0  0
  -26.6400  -34.9690   22.5420 O   0  0  0  0  0  0  0  0  0  0  0  0
  -24.9190  -34.2670   25.0790 H   0  0  0  0  0  0  0  0  0  0  0  0
  -24.1990  -36.8700   23.0180 C   0  0  0  0  0  1  0  0  0  0  0  0
  -25.3980  -36.5090   23.9080 C   0  0  0  0  0  3  0  0  0  0  0  0
  -27.4780  -37.4470   24.8160 C   0  0  0  0  0  1  0  0  0  0  0  0
  -26.4290  -37.5650   23.8060 N   0  0  0  0  0  0  0  0  0  0  0  0
  -26.0100  -38.4880   23.8900 H   0  0  0  0  0  0  0  0  0  0  0  0
  -26.3260  -31.9560   25.3890 C   0  0  1  0  0  0  0  0  0  0  0  0
  -25.1730  -31.7450   26.3960 C   0  0  0  0  0  1  0  0  0  0  0  0
  -26.9430  -30.5720   25.0790 C   0  0  0  0  0  1  0  0  0  0  0  0
  -27.4280  -32.7840   26.0900 C   0  0  0  0  0  1  0  0  0  0  0  0
  -31.0910  -17.2750   20.7550 C   0  0  0  0  0  2  0  0  0  0  0  0
  -31.0290  -14.7950   20.3450 C   0  0  0  0  0  0  0  0  0  0  0  0
  -30.7490  -12.6330   19.1470 C   0  0  0  0  0  2  0  0  0  0  0  0
  -29.7870  -12.7910   17.9510 C   0  0  0  0  0  2  0  0  0  0  0  0
  -28.3160  -12.6270   18.3890 C   0  0  0  0  0  2  0  0  0  0  0  0
  -27.9840  -13.4300   19.6740 C   0  0  0  0  0  3  0  0  0  0  0  0
  -29.0580  -13.1690   20.7490 C   0  0  0  0  0  2  0  0  0  0  0  0
  -30.3450  -13.6090   20.1870 N   0  0  0  0  0  0  0  0  0  0  0  0
  -32.1610  -14.8990   19.8610 O   0  0  0  0  0  0  0  0  0  0  0  0
  -29.2950  -15.9980   21.7770 C   0  0  0  0  0  1  0  0  0  0  0  0
  -30.4070  -15.9400   20.8170 N   0  0  0  0  0  0  0  0  0  0  0  0
  -25.5900  -14.0190   20.4060 C   0  0  0  0  0  0  0  0  0  0  0  0
  -24.5330  -13.2380   20.7850 C   0  0  0  0  0  0  0  0  0  0  0  0
  -25.0020  -11.8900   20.7410 C   0  0  0  0  0  0  0  0  0  0  0  0
  -26.6390  -13.1450   20.1630 N   0  0  0  0  0  0  0  0  0  0  0  0
  -26.2890  -11.8600   20.4190 N   0  0  0  0  0  0  0  0  0  0  0  0
  -24.2870  -10.6220   20.9290 C   0  0  0  0  0  0  0  0  0  0  0  0
  -24.6830   -9.6890   21.9140 C   0  0  0  0  0  3  0  0  0  0  0  0
  -23.9690   -8.4850   22.0870 C   0  0  0  0  0  3  0  0  0  0  0  0
  -22.8450   -8.2040   21.2750 C   0  0  0  0  0  0  0  0  0  0  0  0
  -22.4690   -9.1240   20.2800 C   0  0  0  0  0  3  0  0  0  0  0  0
  -23.1840  -10.3200   20.1040 C   0  0  0  0  0  3  0  0  0  0  0  0
  -22.1070   -7.0480   21.3540 O   0  0  0  0  0  0  0  0  0  0  0  0
  -21.9180   -6.3950   22.5460 C   0  0  0  0  0  0  0  0  0  0  0  0
  -21.2830   -7.0170   23.6430 C   0  0  0  0  0  3  0  0  0  0  0  0
  -21.0470   -6.2880   24.8250 C   0  0  0  0  0  3  0  0  0  0  0  0
  -21.4350   -4.9370   24.9100 C   0  0  0  0  0  0  0  0  0  0  0  0
  -22.0630   -4.3150   23.8150 C   0  0  0  0  0  3  0  0  0  0  0  0
  -22.3000   -5.0420   22.6360 C   0  0  0  0  0  0  0  0  0  0  0  0
  -22.8850   -4.4310   21.5760 F   0  0  0  0  0  0  0  0  0  0  0  0
  -21.2020   -4.2330   26.0420 F   0  0  0  0  0  0  0  0  0  0  0  0
  -23.1340  -13.7050   21.0740 C   0  0  0  0  0  0  0  0  0  0  0  0
  -22.4230  -13.0050   21.9510 N   0  0  0  0  0  0  0  0  0  0  0  0
  -22.6820  -14.7250   20.5570 O   0  0  0  0  0  0  0  0  0  0  0  0
  -22.8000  -12.1780   22.3910 H   0  0  0  0  0  0  0  0  0  0  0  0
  -21.4840  -13.3000   22.1840 H   0  0  0  0  0  0  0  0  0  0  0  0
  -25.7400  -15.3910   20.2270 N   0  0  0  0  0  0  0  0  0  0  0  0
  -24.9670  -16.0380   20.3430 H   0  0  0  0  0  0  0  0  0  0  0  0
  -26.5750  -15.8350   19.8670 H   0  0  0  0  0  0  0  0  0  0  0  0
  1  4  1  0
  1  2  2  0
  2 10  1  0
  2  5  1  0
  3 55  1  0
  3  5  1  0
  4  3  1  0
  5  6  1  0
  7  9  1  0
  8  9  1  0
  9  4  1  0
 10 11  1  0
 12 11  1  0
 12 13  1  0
 14 16  1  0
 14 13  1  0
 15 26  2  0
 16 21  1  0
 17 25  1  0
 17 27  1  0
 18 20  1  0
 19 25  1  0
 20 21  2  0
 20 19  1  0
 22 16  2  0
 23 22  1  0
 23 18  2  0
 24 18  1  0
 24 17  1  0
 25 15  1  0
 27 29  2  0
 28 27  1  0
 30 28  1  0
 31 40  2  0
 31 36  1  0
 32 28  1  0
 32 36  1  0
 33 32  1  0
 34 35  1  0
 34 33  1  0
 35 31  1  0
 36 37  2  0
 37 38  1  0
 39 38  2  0
 40 39  1  0
 41 15  1  0
 41 42  1  0
 41 51  1  0
 42 45  1  0
 43 47  1  0
 43 42  1  0
 44 43  2  0
 47 46  1  0
 49 50  1  0
 49 47  1  0
 49 48  1  0
 51 54  1  1
 51 52  1  0
 53 51  1  0
 55 65  1  0
 56 65  1  0
 57 62  1  0
 58 59  1  0
 58 57  1  0
 60 59  1  0
 60 69  1  0
 60 61  1  0
 62 56  1  0
 62 61  1  0
 63 56  2  0
 65 64  1  0
 66 67  2  0
 67 86  1  0
 68 67  1  0
 68 71  1  0
 69 66  1  0
 69 70  1  0
 70 68  2  0
 71 72  1  0
 72 73  2  0
 74 77  1  0
 74 73  1  0
 75 74  2  0
 76 75  1  0
 76 71  2  0
 77 78  1  0
 78 83  2  0
 78 79  1  0
 79 80  2  0
 80 81  1  0
 81 85  1  0
 82 81  2  0
 83 82  1  0
 84 83  1  0
 86 87  1  0
 87 90  1  0
 87 89  1  0
 88 86  2  0
 91 92  1  0
 91 66  1  0
 93 91  1  0
M  ISO  4  13 101  14 101  56 100  65 100
M  END
>  <TORSDO>  (60) 
F 22

>  <SCORE>  (60) 
-10.958

>  <name>  (60) 
59

>  <ligand_id>  (60) 
59

>  <original_smiles>  (60) 
[H]c1c([H])c([H])c2c(c1[H])C([H])([H])C([H])([H])C([H])([H])C2([H])N([H])C(=O)C1([H])N(C(=O)C([H])(N([H])C(=O)C([H])(N([H])C([H])([H])[H])C([H])([H])[H])C(C([H])([H])[H])(C([H])([H])[H])C([H])([H])[H])C([H])([H])c2c([H])c(OC([H])([H])C([H])([H])C([H])([H])C([H])([H])c3c([H])n(C([H])(C([H])([H])[H])C([H])([H])[H])c(C([H])([H])N(C(=O)N4C([H])([H])C([H])([H])C([H])([H])C([H])(n5nc(-c6c([H])c([H])c(Oc7c([H])c([H])c(F)c([H])c7F)c([H])c6[H])c(C(=O)N([H])[H])c5N([H])[H])C4([H])[H])C([H])([H])[H])[n+]3[H])c([H])c([H])c2C1([H])[H]

>  <smiles>  (60) 
[H]c1c([H])c([H])c2c(c1[H])C([H])([H])C([H])([H])C([H])([H])C2([H])N([H])C(=O)C1([H])N(C(=O)C([H])(N([H])C(=O)C([H])(N([H])C([H])([H])[H])C([H])([H])[H])C(C([H])([H])[H])(C([H])([H])[H])C([H])([H])[H])C([H])([H])c2c([H])c(OC([H])([H])C([H])([H])C([H])([H])C([H])([H])c3c([H])n(C([H])(C([H])([H])[H])C([H])([H])[H])c(C([H])([H])N(C(=O)N4C([H])([H])C([H])([H])C([H])([H])C([H])(n5nc(-c6c([H])c([H])c(Oc7c([H])c([H])c(F)c([H])c7F)c([H])c6[H])c(C(=O)N([H])[H])c5N([H])[H])C4([H])[H])C([H])([H])[H])[n+]3[H])c([H])c([H])c2C1([H])[H]

$$$$
60:0:0
     RDKit          3D

 88 96  0  0  1  0  0  0  0  0999 V2000
  -28.0420  -21.7950   20.4780 C   0  0  0  0  0  3  0  0  0  0  0  0
  -28.5710  -23.0970   20.2660 C   0  0  0  0  0  0  0  0  0  0  0  0
  -29.9330  -22.7610   20.0750 N   0  0  0  0  0  0  0  0  0  0  0  0
  -30.1840  -21.4410   20.1880 N   0  0  0  0  0  0  0  0  0  0  0  0
  -29.0270  -20.7320   20.3980 N   0  0  0  0  0  0  0  0  0  0  0  0
  -27.5850  -18.6950   19.9500 C   0  0  0  0  0  1  0  0  0  0  0  0
  -28.8980  -19.1320   20.6180 C   0  0  0  0  0  3  0  0  0  0  0  0
  -30.0270  -17.8700   20.3360 C   0  0  0  0  0  2  0  0  0  0  0  0
  -30.4880  -15.0850   20.3030 C   0  0  0  0  0  0  0  0  0  0  0  0
  -30.3640  -12.7190   19.3560 C   0  0  0  0  0  2  0  0  0  0  0  0
  -29.4220  -12.6580   18.1310 C   0  0  0  0  0  2  0  0  0  0  0  0
  -27.9650  -12.4300   18.5750 C   0  0  0  0  0  2  0  0  0  0  0  0
  -27.5650  -13.3430   19.7620 C   0  0  0  0  0  3  0  0  0  0  0  0
  -28.6330  -13.3820   20.8770 C   0  0  0  0  0  2  0  0  0  0  0  0
  -29.8900  -13.8180   20.2540 N   0  0  0  0  0  0  0  0  0  0  0  0
  -31.6840  -15.1340   19.9920 O   0  0  0  0  0  0  0  0  0  0  0  0
  -29.7300  -16.2920   20.4990 N   0  0  0  0  0  0  0  0  0  0  0  0
  -28.7730  -16.0990   20.7530 H   0  0  0  0  0  0  0  0  0  0  0  0
  -25.1970  -13.9030   20.5430 C   0  0  0  0  0  0  0  0  0  0  0  0
  -24.1390  -13.1220   20.9190 C   0  0  0  0  0  0  0  0  0  0  0  0
  -24.6040  -11.7730   20.8630 C   0  0  0  0  0  0  0  0  0  0  0  0
  -26.2360  -13.0300   20.2760 N   0  0  0  0  0  0  0  0  0  0  0  0
  -25.8910  -11.7410   20.5350 N   0  0  0  0  0  0  0  0  0  0  0  0
  -23.8790  -10.5080   21.0440 C   0  0  0  0  0  0  0  0  0  0  0  0
  -24.3070   -9.5360   21.9750 C   0  0  0  0  0  3  0  0  0  0  0  0
  -23.5790   -8.3380   22.1460 C   0  0  0  0  0  3  0  0  0  0  0  0
  -22.4090   -8.1040   21.3850 C   0  0  0  0  0  0  0  0  0  0  0  0
  -22.0000   -9.0640   20.4430 C   0  0  0  0  0  3  0  0  0  0  0  0
  -22.7280  -10.2530   20.2710 C   0  0  0  0  0  3  0  0  0  0  0  0
  -21.6540   -6.9590   21.4650 O   0  0  0  0  0  0  0  0  0  0  0  0
  -21.5800   -6.2240   22.6210 C   0  0  0  0  0  0  0  0  0  0  0  0
  -21.0970   -6.7790   23.8260 C   0  0  0  0  0  3  0  0  0  0  0  0
  -20.9730   -5.9690   24.9730 C   0  0  0  0  0  3  0  0  0  0  0  0
  -21.3210   -4.6070   24.9150 C   0  0  0  0  0  0  0  0  0  0  0  0
  -21.7950   -4.0510   23.7140 C   0  0  0  0  0  3  0  0  0  0  0  0
  -21.9210   -4.8580   22.5700 C   0  0  0  0  0  0  0  0  0  0  0  0
  -22.3590   -4.3120   21.4090 F   0  0  0  0  0  0  0  0  0  0  0  0
  -21.1940   -3.8270   26.0140 F   0  0  0  0  0  0  0  0  0  0  0  0
  -22.7450  -13.5970   21.2090 C   0  0  0  0  0  0  0  0  0  0  0  0
  -22.0260  -12.8920   22.0760 N   0  0  0  0  0  0  0  0  0  0  0  0
  -22.3060  -14.6310   20.7060 O   0  0  0  0  0  0  0  0  0  0  0  0
  -22.3980  -12.0580   22.5030 H   0  0  0  0  0  0  0  0  0  0  0  0
  -21.0920  -13.1930   22.3140 H   0  0  0  0  0  0  0  0  0  0  0  0
  -25.3560  -15.2750   20.3790 N   0  0  0  0  0  0  0  0  0  0  0  0
  -24.5800  -15.9200   20.4850 H   0  0  0  0  0  0  0  0  0  0  0  0
  -26.1760  -15.7090   19.9790 H   0  0  0  0  0  0  0  0  0  0  0  0
  -27.7820  -24.5660   20.0470 C   0  0  0  0  0  2  0  0  0  0  0  0
  -28.1930  -26.0760   20.2630 O   0  0  0  0  0  0  0  0  0  0  0  0
  -24.6280  -31.8910   23.2250 C   0  0  0  0  0  0  0  0  0  0  0  0
  -27.1820  -27.1290   20.1820 C   0  0  0  0  0  0  0  0  0  0  0  0
  -23.4280  -30.5060   21.5810 C   0  0  0  0  0  3  0  0  0  0  0  0
  -24.8730  -28.9290   20.1510 C   0  0  0  0  0  0  0  0  0  0  0  0
  -25.9880  -30.7450   21.4280 C   0  0  0  0  0  2  0  0  0  0  0  0
  -26.0570  -29.3510   20.7690 C   0  0  0  0  0  0  0  0  0  0  0  0
  -27.2110  -28.4680   20.7680 C   0  0  0  0  0  3  0  0  0  0  0  0
  -25.9710  -26.8370   19.5100 C   0  0  0  0  0  3  0  0  0  0  0  0
  -24.8470  -27.6880   19.5050 C   0  0  0  0  0  3  0  0  0  0  0  0
  -23.6490  -29.8340   20.2010 C   0  0  0  0  0  2  0  0  0  0  0  0
  -24.7020  -31.0690   22.1330 N   0  0  0  0  0  0  0  0  0  0  0  0
  -23.5410  -32.1800   23.7500 O   0  0  0  0  0  0  0  0  0  0  0  0
  -22.7410  -29.4990   22.5390 C   0  0  0  0  0  0  0  0  0  0  0  0
  -21.4110  -29.3320   22.4100 N   0  0  0  0  0  0  0  0  0  0  0  0
  -23.4080  -28.8690   23.3640 O   0  0  0  0  0  0  0  0  0  0  0  0
  -20.9290  -29.8890   21.7180 H   0  0  0  0  0  0  0  0  0  0  0  0
  -18.0240  -28.1420   22.9110 C   0  0  0  0  0  0  0  0  0  0  0  0
  -20.5850  -28.3960   23.1790 C   0  0  0  0  0  3  0  0  0  0  0  0
  -20.6810  -26.9650   22.6020 C   0  0  0  0  0  2  0  0  0  0  0  0
  -19.5770  -26.6480   21.5860 C   0  0  0  0  0  2  0  0  0  0  0  0
  -18.1970  -26.7950   22.2300 C   0  0  0  0  0  2  0  0  0  0  0  0
  -19.1450  -28.9010   23.3420 C   0  0  0  0  0  0  0  0  0  0  0  0
  -18.9290  -30.1600   23.9420 C   0  0  0  0  0  3  0  0  0  0  0  0
  -17.6250  -30.6630   24.1110 C   0  0  0  0  0  3  0  0  0  0  0  0
  -16.5190  -29.9020   23.6950 C   0  0  0  0  0  3  0  0  0  0  0  0
  -16.7190  -28.6430   23.1020 C   0  0  0  0  0  3  0  0  0  0  0  0
  -25.9050  -32.5230   23.8550 C   0  0  0  0  0  3  0  0  0  0  0  0
  -26.4110  -31.7500   25.1360 C   0  0  1  0  0  0  0  0  0  0  0  0
  -25.3110  -31.5150   26.1990 C   0  0  0  0  0  1  0  0  0  0  0  0
  -26.9940  -30.3690   24.7540 C   0  0  0  0  0  1  0  0  0  0  0  0
  -27.5590  -32.5430   25.8060 C   0  0  0  0  0  1  0  0  0  0  0  0
  -25.5950  -33.9220   24.1920 N   0  0  0  0  0  0  0  0  0  0  0  0
  -25.9100  -34.9790   23.4320 C   0  0  0  0  0  0  0  0  0  0  0  0
  -26.5570  -34.8810   22.3880 O   0  0  0  0  0  0  0  0  0  0  0  0
  -25.0180  -34.0720   25.0070 H   0  0  0  0  0  0  0  0  0  0  0  0
  -24.1650  -36.7700   23.1350 C   0  0  0  0  0  1  0  0  0  0  0  0
  -25.4320  -36.3660   23.9060 C   0  0  0  0  0  3  0  0  0  0  0  0
  -27.5830  -37.2670   24.6780 C   0  0  0  0  0  1  0  0  0  0  0  0
  -26.4550  -37.4250   23.7630 N   0  0  0  0  0  0  0  0  0  0  0  0
  -26.0490  -38.3430   23.9190 H   0  0  0  0  0  0  0  0  0  0  0  0
  2  1  2  0
  3  4  2  0
  3  2  1  0
  4  5  1  0
  5  1  1  0
  5  7  1  0
  7  6  1  0
  8 17  1  0
  8  7  1  0
  9 17  1  0
 10 15  1  0
 11 12  1  0
 11 10  1  0
 13 12  1  0
 13 22  1  0
 13 14  1  0
 15  9  1  0
 15 14  1  0
 16  9  2  0
 17 18  1  0
 19 20  2  0
 20 39  1  0
 21 20  1  0
 21 24  1  0
 22 23  1  0
 22 19  1  0
 23 21  2  0
 24 25  1  0
 25 26  2  0
 27 30  1  0
 27 26  1  0
 28 27  2  0
 29 28  1  0
 29 24  2  0
 30 31  1  0
 31 32  1  0
 32 33  2  0
 34 33  1  0
 34 38  1  0
 35 34  2  0
 36 31  2  0
 36 35  1  0
 37 36  1  0
 39 40  1  0
 40 43  1  0
 40 42  1  0
 41 39  2  0
 44 45  1  0
 44 19  1  0
 46 44  1  0
 47 48  1  0
 47  2  1  0
 49 60  2  0
 50 48  1  0
 50 55  1  0
 51 59  1  0
 51 61  1  0
 52 58  1  0
 52 54  1  0
 53 59  1  0
 54 53  1  0
 55 54  2  0
 56 50  2  0
 57 56  1  0
 57 52  2  0
 58 51  1  0
 59 49  1  0
 61 63  2  0
 62 61  1  0
 64 62  1  0
 65 74  2  0
 65 70  1  0
 66 62  1  0
 66 70  1  0
 67 66  1  0
 68 69  1  0
 68 67  1  0
 69 65  1  0
 70 71  2  0
 71 72  1  0
 73 72  2  0
 74 73  1  0
 75 49  1  0
 75 80  1  0
 75 76  1  0
 76 79  1  1
 76 77  1  0
 78 76  1  0
 80 83  1  0
 81 85  1  0
 81 80  1  0
 82 81  2  0
 85 84  1  0
 87 85  1  0
 87 88  1  0
 87 86  1  0
M  ISO  4   9 100  17 100  47 101  48 101
M  END
>  <TORSDO>  (61) 
F 19

>  <SCORE>  (61) 
-14.770

>  <name>  (61) 
60

>  <ligand_id>  (61) 
60

>  <original_smiles>  (61) 
[H]c1c([H])c([H])c2c(c1[H])C([H])([H])C([H])([H])C([H])([H])C2([H])N([H])C(=O)C1([H])N(C(=O)C([H])(N([H])C(=O)C([H])(N([H])C([H])([H])[H])C([H])([H])[H])C(C([H])([H])[H])(C([H])([H])[H])C([H])([H])[H])C([H])([H])c2c([H])c(OC([H])([H])c3nnn(C([H])(C([H])([H])[H])C([H])([H])N([H])C(=O)N4C([H])([H])C([H])([H])C([H])([H])C([H])(n5nc(-c6c([H])c([H])c(Oc7c([H])c([H])c(F)c([H])c7F)c([H])c6[H])c(C(=O)N([H])[H])c5N([H])[H])C4([H])[H])c3[H])c([H])c([H])c2C1([H])[H]

>  <smiles>  (61) 
[H]c1c([H])c([H])c2c(c1[H])C([H])([H])C([H])([H])C([H])([H])C2([H])N([H])C(=O)C1([H])N(C(=O)C([H])(N([H])C(=O)C([H])(N([H])C([H])([H])[H])C([H])([H])[H])C(C([H])([H])[H])(C([H])([H])[H])C([H])([H])[H])C([H])([H])c2c([H])c(OC([H])([H])c3nnn(C([H])(C([H])([H])[H])C([H])([H])N([H])C(=O)N4C([H])([H])C([H])([H])C([H])([H])C([H])(n5nc(-c6c([H])c([H])c(Oc7c([H])c([H])c(F)c([H])c7F)c([H])c6[H])c(C(=O)N([H])[H])c5N([H])[H])C4([H])[H])c3[H])c([H])c([H])c2C1([H])[H]

$$$$
61:0:0
     RDKit          3D

 89 97  0  0  1  0  0  0  0  0999 V2000
  -30.0380  -20.9860   20.8260 C   0  0  0  0  0  3  0  0  0  0  0  0
  -29.3820  -19.7860   20.2810 C   0  0  0  0  0  0  0  0  0  0  0  0
  -27.8050  -21.5750   19.5650 C   0  0  0  0  0  0  0  0  0  0  0  0
  -28.4730  -22.7740   20.1010 C   0  0  0  0  0  0  0  0  0  0  0  0
  -26.4880  -21.7500   18.8290 C   0  0  0  0  0  1  0  0  0  0  0  0
  -29.6280  -22.3560   20.7580 N   0  0  0  0  0  0  0  0  0  0  0  0
  -28.2300  -20.2120   19.6290 N   0  0  0  0  0  0  0  0  0  0  0  0
  -30.8310  -18.2890   18.7490 C   0  0  0  0  0  1  0  0  0  0  0  0
  -30.1410  -18.2180   20.1210 C   0  0  0  0  0  0  0  0  0  0  0  0
  -30.4610  -15.3340   20.1990 C   0  0  0  0  0  0  0  0  0  0  0  0
  -30.3840  -12.9170   19.2780 C   0  0  0  0  0  2  0  0  0  0  0  0
  -29.4370  -12.7450   18.0650 C   0  0  0  0  0  2  0  0  0  0  0  0
  -27.9970  -12.4750   18.5320 C   0  0  0  0  0  2  0  0  0  0  0  0
  -27.5780  -13.4190   19.6890 C   0  0  0  0  0  3  0  0  0  0  0  0
  -28.6510  -13.5430   20.7920 C   0  0  0  0  0  2  0  0  0  0  0  0
  -29.8710  -14.0440   20.1390 N   0  0  0  0  0  0  0  0  0  0  0  0
  -31.6740  -15.3140   19.9450 O   0  0  0  0  0  0  0  0  0  0  0  0
  -29.7380  -16.6210   20.3260 N   0  0  0  0  0  4  0  0  0  0  0  0
  -28.7550  -16.4930   20.5160 H   0  0  0  0  0  0  0  0  0  0  0  0
  -25.2250  -13.9670   20.5010 C   0  0  0  0  0  0  0  0  0  0  0  0
  -24.1720  -13.1840   20.8850 C   0  0  0  0  0  0  0  0  0  0  0  0
  -24.6400  -11.8340   20.8300 C   0  0  0  0  0  0  0  0  0  0  0  0
  -26.2630  -13.0950   20.2250 N   0  0  0  0  0  0  0  0  0  0  0  0
  -25.9250  -11.8070   20.4910 N   0  0  0  0  0  0  0  0  0  0  0  0
  -23.9200  -10.5690   21.0210 C   0  0  0  0  0  0  0  0  0  0  0  0
  -24.3590   -9.6000   21.9500 C   0  0  0  0  0  3  0  0  0  0  0  0
  -23.6350   -8.4020   22.1290 C   0  0  0  0  0  3  0  0  0  0  0  0
  -22.4580   -8.1640   21.3810 C   0  0  0  0  0  0  0  0  0  0  0  0
  -22.0390   -9.1210   20.4390 C   0  0  0  0  0  3  0  0  0  0  0  0
  -22.7630  -10.3100   20.2580 C   0  0  0  0  0  3  0  0  0  0  0  0
  -21.7050   -7.0180   21.4690 O   0  0  0  0  0  0  0  0  0  0  0  0
  -21.6490   -6.2810   22.6250 C   0  0  0  0  0  0  0  0  0  0  0  0
  -21.1740   -6.8310   23.8360 C   0  0  0  0  0  3  0  0  0  0  0  0
  -21.0680   -6.0200   24.9840 C   0  0  0  0  0  3  0  0  0  0  0  0
  -21.4260   -4.6590   24.9200 C   0  0  0  0  0  0  0  0  0  0  0  0
  -21.8920   -4.1090   23.7130 C   0  0  0  0  0  3  0  0  0  0  0  0
  -21.9990   -4.9180   22.5680 C   0  0  0  0  0  0  0  0  0  0  0  0
  -22.4290   -4.3780   21.4010 F   0  0  0  0  0  0  0  0  0  0  0  0
  -21.3160   -3.8770   26.0190 F   0  0  0  0  0  0  0  0  0  0  0  0
  -22.7810  -13.6570   21.1840 C   0  0  0  0  0  0  0  0  0  0  0  0
  -22.0700  -12.9540   22.0590 N   0  0  0  0  0  0  0  0  0  0  0  0
  -22.3310  -14.6840   20.6790 O   0  0  0  0  0  0  0  0  0  0  0  0
  -22.4470  -12.1220   22.4870 H   0  0  0  0  0  0  0  0  0  0  0  0
  -21.1370  -13.2540   22.3050 H   0  0  0  0  0  0  0  0  0  0  0  0
  -25.3800  -15.3390   20.3340 N   0  0  0  0  0  0  0  0  0  0  0  0
  -24.6090  -15.9870   20.4560 H   0  0  0  0  0  0  0  0  0  0  0  0
  -26.2130  -15.7810   19.9670 H   0  0  0  0  0  0  0  0  0  0  0  0
  -27.8040  -24.3860   19.9290 C   0  0  0  0  0  2  0  0  0  0  0  0
  -28.2030  -25.9420   20.2260 O   0  0  0  0  0  0  0  0  0  0  0  0
  -24.6710  -31.8720   23.2470 C   0  0  0  0  0  0  0  0  0  0  0  0
  -27.2180  -27.0580   20.1610 C   0  0  0  0  0  0  0  0  0  0  0  0
  -23.4760  -30.5030   21.5890 C   0  0  0  0  0  3  0  0  0  0  0  0
  -24.9240  -28.9300   20.1400 C   0  0  0  0  0  0  0  0  0  0  0  0
  -26.0430  -30.7240   21.4430 C   0  0  0  0  0  2  0  0  0  0  0  0
  -26.1120  -29.3250   20.7670 C   0  0  0  0  0  0  0  0  0  0  0  0
  -27.2550  -28.4090   20.7590 C   0  0  0  0  0  3  0  0  0  0  0  0
  -26.0030  -26.8170   19.4810 C   0  0  0  0  0  3  0  0  0  0  0  0
  -24.8940  -27.6970   19.4780 C   0  0  0  0  0  3  0  0  0  0  0  0
  -23.7050  -29.8460   20.2000 C   0  0  0  0  0  2  0  0  0  0  0  0
  -24.7510  -31.0570   22.1470 N   0  0  0  0  0  0  0  0  0  0  0  0
  -23.5810  -32.1510   23.7730 O   0  0  0  0  0  0  0  0  0  0  0  0
  -22.7860  -29.4870   22.5380 C   0  0  0  0  0  0  0  0  0  0  0  0
  -21.4570  -29.3200   22.4110 N   0  0  0  0  0  0  0  0  0  0  0  0
  -23.4550  -28.8540   23.3590 O   0  0  0  0  0  0  0  0  0  0  0  0
  -20.9710  -29.8850   21.7280 H   0  0  0  0  0  0  0  0  0  0  0  0
  -18.0750  -28.1040   22.9070 C   0  0  0  0  0  0  0  0  0  0  0  0
  -20.6360  -28.3700   23.1690 C   0  0  0  0  0  3  0  0  0  0  0  0
  -20.7380  -26.9470   22.5730 C   0  0  0  0  0  2  0  0  0  0  0  0
  -19.6340  -26.6370   21.5580 C   0  0  0  0  0  2  0  0  0  0  0  0
  -18.2530  -26.7680   22.2060 C   0  0  0  0  0  2  0  0  0  0  0  0
  -19.1940  -28.8630   23.3450 C   0  0  0  0  0  0  0  0  0  0  0  0
  -18.9720  -30.1120   23.9630 C   0  0  0  0  0  3  0  0  0  0  0  0
  -17.6650  -30.6030   24.1470 C   0  0  0  0  0  3  0  0  0  0  0  0
  -16.5620  -29.8420   23.7230 C   0  0  0  0  0  3  0  0  0  0  0  0
  -16.7670  -28.5940   23.1100 C   0  0  0  0  0  3  0  0  0  0  0  0
  -25.9430  -32.5060   23.8860 C   0  0  0  0  0  3  0  0  0  0  0  0
  -25.6310  -33.9060   24.2220 N   0  0  0  0  0  0  0  0  0  0  0  0
  -25.9340  -34.9650   23.4600 C   0  0  0  0  0  0  0  0  0  0  0  0
  -26.5690  -34.8670   22.4070 O   0  0  0  0  0  0  0  0  0  0  0  0
  -25.0710  -34.0590   25.0470 H   0  0  0  0  0  0  0  0  0  0  0  0
  -24.1750  -36.7470   23.1910 C   0  0  0  0  0  1  0  0  0  0  0  0
  -25.4590  -36.3530   23.9390 C   0  0  0  0  0  3  0  0  0  0  0  0
  -27.6190  -37.2680   24.6630 C   0  0  0  0  0  1  0  0  0  0  0  0
  -26.4740  -37.4160   23.7710 N   0  0  0  0  0  0  0  0  0  0  0  0
  -26.0640  -38.3320   23.9290 H   0  0  0  0  0  0  0  0  0  0  0  0
  -26.4360  -31.7380   25.1740 C   0  0  1  0  0  0  0  0  0  0  0  0
  -25.3260  -31.5140   26.2290 C   0  0  0  0  0  1  0  0  0  0  0  0
  -27.0180  -30.3540   24.8060 C   0  0  0  0  0  1  0  0  0  0  0  0
  -27.5820  -32.5280   25.8500 C   0  0  0  0  0  1  0  0  0  0  0  0
  2  1  2  0
  3  7  2  0
  3  4  1  0
  4  6  2  0
  5  3  1  0
  6  1  1  0
  7  2  1  0
  8  9  1  0
  9  2  1  0
  9 18  2  0
 10 18  1  0
 11 16  1  0
 12 13  1  0
 12 11  1  0
 14 13  1  0
 14 23  1  0
 14 15  1  0
 16 10  1  0
 16 15  1  0
 17 10  2  0
 18 19  1  0
 20 21  2  0
 21 40  1  0
 22 21  1  0
 22 25  1  0
 23 24  1  0
 23 20  1  0
 24 22  2  0
 25 26  1  0
 26 27  2  0
 28 31  1  0
 28 27  1  0
 29 28  2  0
 30 29  1  0
 30 25  2  0
 31 32  1  0
 32 33  1  0
 33 34  2  0
 35 34  1  0
 35 39  1  0
 36 35  2  0
 37 32  2  0
 37 36  1  0
 38 37  1  0
 40 41  1  0
 41 44  1  0
 41 43  1  0
 42 40  2  0
 45 46  1  0
 45 20  1  0
 47 45  1  0
 48  4  1  0
 48 49  1  0
 50 61  2  0
 51 49  1  0
 51 56  1  0
 52 60  1  0
 52 62  1  0
 53 59  1  0
 53 55  1  0
 54 60  1  0
 55 54  1  0
 56 55  2  0
 57 51  2  0
 58 57  1  0
 58 53  2  0
 59 52  1  0
 60 50  1  0
 62 64  2  0
 63 62  1  0
 65 63  1  0
 66 75  2  0
 66 71  1  0
 67 63  1  0
 67 71  1  0
 68 67  1  0
 69 70  1  0
 69 68  1  0
 70 66  1  0
 71 72  2  0
 72 73  1  0
 74 73  2  0
 75 74  1  0
 76 50  1  0
 76 77  1  0
 76 86  1  0
 77 80  1  0
 78 82  1  0
 78 77  1  0
 79 78  2  0
 82 81  1  0
 84 85  1  0
 84 82  1  0
 84 83  1  0
 86 89  1  1
 86 87  1  0
 88 86  1  0
M  ISO  4  10 100  18 100  48 101  49 101
M  END
>  <TORSDO>  (62) 
F 18

>  <SCORE>  (62) 
-15.814

>  <name>  (62) 
61

>  <ligand_id>  (62) 
61

>  <original_smiles>  (62) 
[H]c1nc(C([H])([H])Oc2c([H])c([H])c3c(c2[H])C([H])([H])N(C(=O)C([H])(N([H])C(=O)C([H])(N([H])C([H])([H])[H])C([H])([H])[H])C(C([H])([H])[H])(C([H])([H])[H])C([H])([H])[H])C([H])(C(=O)N([H])C2([H])c4c([H])c([H])c([H])c([H])c4C([H])([H])C([H])([H])C2([H])[H])C3([H])[H])c(C([H])([H])[H])nc1C([H])(N([H])C(=O)N1C([H])([H])C([H])([H])C([H])([H])C([H])(n2nc(-c3c([H])c([H])c(Oc4c([H])c([H])c(F)c([H])c4F)c([H])c3[H])c(C(=O)N([H])[H])c2N([H])[H])C1([H])[H])C([H])([H])[H]

>  <smiles>  (62) 
[H]c1nc(C([H])([H])Oc2c([H])c([H])c3c(c2[H])C([H])([H])N(C(=O)C([H])(N([H])C(=O)C([H])(N([H])C([H])([H])[H])C([H])([H])[H])C(C([H])([H])[H])(C([H])([H])[H])C([H])([H])[H])C([H])(C(=O)N([H])C2([H])c4c([H])c([H])c([H])c([H])c4C([H])([H])C([H])([H])C2([H])[H])C3([H])[H])c(C([H])([H])[H])nc1C([H])(N([H])C(=O)N1C([H])([H])C([H])([H])C([H])([H])C([H])(n2nc(-c3c([H])c([H])c(Oc4c([H])c([H])c(F)c([H])c4F)c([H])c3[H])c(C(=O)N([H])[H])c2N([H])[H])C1([H])[H])C([H])([H])[H]

$$$$
62:0:0
     RDKit          3D

 94103  0  0  1  0  0  0  0  0999 V2000
  -29.5180  -20.3420   17.6290 C   0  0  0  0  0  1  0  0  0  0  0  0
  -28.3540  -19.9660   18.5970 C   0  0  1  0  0  0  0  0  0  0  0  0
  -28.0200  -15.8090   19.1590 C   0  0  0  0  0  3  0  0  0  0  0  0
  -29.3620  -16.1280   19.2250 C   0  0  0  0  0  0  0  0  0  0  0  0
  -27.1780  -17.8630   19.6320 C   0  0  0  0  0  0  0  0  0  0  0  0
  -28.4480  -18.4740   19.3100 C   0  0  0  0  0  0  0  0  0  0  0  0
  -25.8620  -18.5280   19.9910 C   0  0  0  0  0  1  0  0  0  0  0  0
  -26.9720  -16.5650   19.4920 N   0  0  0  0  0  0  0  0  0  0  0  0
  -29.5480  -17.5630   19.2350 N   0  0  0  0  0  0  0  0  0  0  0  0
  -30.4040  -14.8640   19.2090 C   0  0  0  0  0  0  0  0  0  0  0  0
  -30.5670  -12.3520   18.9210 C   0  0  0  0  0  2  0  0  0  0  0  0
  -29.4940  -11.9910   17.8280 C   0  0  0  0  0  2  0  0  0  0  0  0
  -28.0030  -12.2570   18.2040 C   0  0  0  0  0  2  0  0  0  0  0  0
  -27.8600  -12.5030   19.7090 C   0  0  0  0  0  3  0  0  0  0  0  0
  -29.0340  -13.0870   20.5670 C   0  0  0  0  0  2  0  0  0  0  0  0
  -30.0800  -13.5540   19.6230 N   0  0  0  0  0  0  0  0  0  0  0  0
  -31.5210  -14.9760   18.7080 O   0  0  0  0  0  0  0  0  0  0  0  0
  -25.4860  -13.5100   20.4450 C   0  0  0  0  0  0  0  0  0  0  0  0
  -24.4220  -12.8450   20.9620 C   0  0  0  0  0  0  0  0  0  0  0  0
  -24.7770  -11.4810   20.9060 C   0  0  0  0  0  0  0  0  0  0  0  0
  -26.5010  -12.5600   20.2480 N   0  0  0  0  0  0  0  0  0  0  0  0
  -26.0240  -11.3410   20.5510 N   0  0  0  0  0  0  0  0  0  0  0  0
  -24.0400  -10.2710   21.1070 C   0  0  0  0  0  0  0  0  0  0  0  0
  -24.5140   -9.2570   21.9550 C   0  0  0  0  0  3  0  0  0  0  0  0
  -23.7930   -8.0460   22.0550 C   0  0  0  0  0  3  0  0  0  0  0  0
  -22.5940   -7.8660   21.3280 C   0  0  0  0  0  0  0  0  0  0  0  0
  -22.1830   -8.8690   20.4380 C   0  0  0  0  0  3  0  0  0  0  0  0
  -22.8980  -10.0740   20.3450 C   0  0  0  0  0  3  0  0  0  0  0  0
  -21.8040   -6.7330   21.4320 O   0  0  0  0  0  0  0  0  0  0  0  0
  -21.7340   -6.0110   22.5940 C   0  0  0  0  0  0  0  0  0  0  0  0
  -21.2640   -6.5830   23.8000 C   0  0  0  0  0  3  0  0  0  0  0  0
  -21.1490   -5.7800   24.9520 C   0  0  0  0  0  3  0  0  0  0  0  0
  -21.4690   -4.4200   24.9050 C   0  0  0  0  0  0  0  0  0  0  0  0
  -21.9330   -3.8450   23.7030 C   0  0  0  0  0  3  0  0  0  0  0  0
  -22.0610   -4.6440   22.5570 C   0  0  0  0  0  0  0  0  0  0  0  0
  -22.4960   -4.0910   21.3920 F   0  0  0  0  0  0  0  0  0  0  0  0
  -21.3340   -3.6350   26.0030 F   0  0  0  0  0  0  0  0  0  0  0  0
  -23.0850  -13.4040   21.3800 C   0  0  0  0  0  0  0  0  0  0  0  0
  -22.3980  -12.7330   22.2990 N   0  0  0  0  0  0  0  0  0  0  0  0
  -22.6830  -14.4900   20.9790 O   0  0  0  0  0  0  0  0  0  0  0  0
  -22.7540  -11.9260   22.7990 H   0  0  0  0  0  0  0  0  0  0  0  0
  -21.5090  -13.0850   22.6430 H   0  0  0  0  0  0  0  0  0  0  0  0
  -25.6210  -14.8350   20.0780 N   0  0  0  0  0  0  0  0  0  0  0  0
  -24.7920  -15.3870   19.8620 H   0  0  0  0  0  0  0  0  0  0  0  0
  -26.4650  -15.2590   19.7590 H   0  0  0  0  0  0  0  0  0  0  0  0
  -26.9460  -22.9610   20.0900 C   0  0  0  0  0  3  0  0  0  0  0  0
  -29.0060  -22.3450   19.8430 C   0  0  0  0  0  3  0  0  0  0  0  0
  -28.2510  -23.4720   20.2670 C   0  0  0  0  0  0  0  0  0  0  0  0
  -26.9030  -21.7510   19.5710 N   0  0  0  0  0  0  0  0  0  0  0  0
  -28.1650  -21.2820   19.3840 N   0  0  0  0  0  0  0  0  0  0  0  0
  -28.4930  -24.8710   20.9830 C   0  0  0  0  0  2  0  0  0  0  0  0
  -28.4930  -26.1840   20.2550 O   0  0  0  0  0  0  0  0  0  0  0  0
  -24.5690  -31.5810   23.1700 C   0  0  0  0  0  0  0  0  0  0  0  0
  -27.3690  -27.0340   20.2500 C   0  0  0  0  0  0  0  0  0  0  0  0
  -23.4700  -30.1730   21.4670 C   0  0  0  0  0  3  0  0  0  0  0  0
  -25.0050  -28.6510   20.1020 C   0  0  0  0  0  0  0  0  0  0  0  0
  -26.0060  -30.5310   21.3890 C   0  0  0  0  0  2  0  0  0  0  0  0
  -26.1380  -29.1460   20.7620 C   0  0  0  0  0  0  0  0  0  0  0  0
  -27.3290  -28.3510   20.8180 C   0  0  0  0  0  3  0  0  0  0  0  0
  -26.2160  -26.5980   19.5710 C   0  0  0  0  0  3  0  0  0  0  0  0
  -25.0500  -27.3860   19.4930 C   0  0  0  0  0  3  0  0  0  0  0  0
  -23.7570  -29.5120   20.0920 C   0  0  0  0  0  2  0  0  0  0  0  0
  -24.7010  -30.7800   22.0690 N   0  0  0  0  0  0  0  0  0  0  0  0
  -23.4550  -31.8350   23.6520 O   0  0  0  0  0  0  0  0  0  0  0  0
  -22.7680  -29.1450   22.3900 C   0  0  0  0  0  0  0  0  0  0  0  0
  -21.4410  -28.9880   22.2300 N   0  0  0  0  0  0  0  0  0  0  0  0
  -23.4170  -28.4930   23.2100 O   0  0  0  0  0  0  0  0  0  0  0  0
  -20.9720  -29.5750   21.5550 H   0  0  0  0  0  0  0  0  0  0  0  0
  -18.0270  -27.8660   22.6870 C   0  0  0  0  0  0  0  0  0  0  0  0
  -20.5940  -28.0370   22.9550 C   0  0  0  0  0  3  0  0  0  0  0  0
  -20.6520  -26.6340   22.3090 C   0  0  0  0  0  2  0  0  0  0  0  0
  -19.5370  -26.3940   21.2860 C   0  0  0  0  0  2  0  0  0  0  0  0
  -18.1620  -26.5460   21.9440 C   0  0  0  0  0  2  0  0  0  0  0  0
  -19.1700  -28.5720   23.1470 C   0  0  0  0  0  0  0  0  0  0  0  0
  -18.9890  -29.8100   23.8040 C   0  0  0  0  0  3  0  0  0  0  0  0
  -17.7000  -30.3390   24.0010 C   0  0  0  0  0  3  0  0  0  0  0  0
  -16.5710  -29.6280   23.5570 C   0  0  0  0  0  3  0  0  0  0  0  0
  -16.7360  -28.3930   22.9070 C   0  0  0  0  0  3  0  0  0  0  0  0
  -25.8050  -32.2350   23.8650 C   0  0  0  0  0  3  0  0  0  0  0  0
  -26.2430  -31.4900   25.1840 C   0  0  1  0  0  0  0  0  0  0  0  0
  -25.0880  -31.2550   26.1870 C   0  0  0  0  0  1  0  0  0  0  0  0
  -26.8630  -30.1160   24.8420 C   0  0  0  0  0  1  0  0  0  0  0  0
  -27.3390  -32.3040   25.9100 C   0  0  0  0  0  1  0  0  0  0  0  0
  -25.4720  -33.6370   24.1560 N   0  0  0  0  0  0  0  0  0  0  0  0
  -25.8340  -34.6820   23.3980 C   0  0  0  0  0  0  0  0  0  0  0  0
  -26.5490  -34.5660   22.3990 O   0  0  0  0  0  0  0  0  0  0  0  0
  -24.8570  -33.8030   24.9390 H   0  0  0  0  0  0  0  0  0  0  0  0
  -24.1190  -36.4670   22.9350 C   0  0  0  0  0  1  0  0  0  0  0  0
  -25.3210  -36.0780   23.8110 C   0  0  0  0  0  3  0  0  0  0  0  0
  -27.4110  -36.9890   24.7270 C   0  0  0  0  0  1  0  0  0  0  0  0
  -26.3560  -37.1330   23.7280 N   0  0  0  0  0  0  0  0  0  0  0  0
  -25.9430  -38.0540   23.8370 H   0  0  0  0  0  0  0  0  0  0  0  0
  -26.9480  -18.6750   16.6230 C   0  0  0  0  0  1  0  0  0  0  0  0
  -27.1010  -19.8630   17.6010 C   0  0  0  0  0  2  0  0  0  0  0  0
  2  1  1  6
  2  6  1  0
  2 50  1  0
  3  4  2  0
  3  8  1  0
  4  9  1  0
  5  7  1  0
  6  5  1  0
  8  5  2  0
  9  6  2  0
 10  4  1  0
 10 16  1  0
 11 16  1  0
 12 13  1  0
 12 11  1  0
 14 13  1  0
 14 21  1  0
 14 15  1  0
 16 15  1  0
 17 10  2  0
 18 19  2  0
 19 38  1  0
 20 19  1  0
 20 23  1  0
 21 18  1  0
 21 22  1  0
 22 20  2  0
 23 24  1  0
 24 25  2  0
 26 29  1  0
 26 25  1  0
 27 26  2  0
 28 27  1  0
 28 23  2  0
 29 30  1  0
 30 31  1  0
 31 32  2  0
 33 32  1  0
 33 37  1  0
 34 33  2  0
 35 30  2  0
 35 34  1  0
 36 35  1  0
 38 39  1  0
 39 42  1  0
 39 41  1  0
 40 38  2  0
 43 18  1  0
 44 43  1  0
 45 43  1  0
 46 48  1  0
 47 48  2  0
 48 51  1  0
 49 46  2  0
 50 49  1  0
 50 47  1  0
 52 51  1  0
 53 64  2  0
 54 52  1  0
 54 59  1  0
 55 63  1  0
 55 65  1  0
 56 58  1  0
 57 63  1  0
 58 59  2  0
 58 57  1  0
 60 54  2  0
 61 60  1  0
 61 56  2  0
 62 56  1  0
 62 55  1  0
 63 53  1  0
 65 67  2  0
 66 65  1  0
 68 66  1  0
 69 78  2  0
 69 74  1  0
 70 66  1  0
 70 74  1  0
 71 70  1  0
 72 73  1  0
 72 71  1  0
 73 69  1  0
 74 75  2  0
 75 76  1  0
 77 76  2  0
 78 77  1  0
 79 53  1  0
 79 84  1  0
 79 80  1  0
 80 83  1  1
 80 81  1  0
 82 80  1  0
 84 87  1  0
 85 89  1  0
 85 84  1  0
 86 85  2  0
 89 88  1  0
 91 89  1  0
 91 92  1  0
 91 90  1  0
 93 94  1  0
 94  2  1  0
M  ISO  4   4 100  10 100  51 101  52 101
M  END
>  <TORSDO>  (63) 
F 20

>  <SCORE>  (63) 
-12.068

>  <name>  (63) 
62

>  <ligand_id>  (63) 
62

>  <original_smiles>  (63) 
[H]c1nc(C([H])([H])[H])c(C(n2nc([H])c(C([H])([H])Oc3c([H])c([H])c4c(c3[H])C([H])([H])N(C(=O)C([H])(N([H])C(=O)C([H])(N([H])C([H])([H])[H])C([H])([H])[H])C(C([H])([H])[H])(C([H])([H])[H])C([H])([H])[H])C([H])(C(=O)N([H])C3([H])c5c([H])c([H])c([H])c([H])c5C([H])([H])C([H])([H])C3([H])[H])C4([H])[H])c2[H])(C([H])([H])[H])C([H])([H])C([H])([H])[H])nc1C(=O)N1C([H])([H])C([H])([H])C([H])([H])C([H])(n2nc(-c3c([H])c([H])c(Oc4c([H])c([H])c(F)c([H])c4F)c([H])c3[H])c(C(=O)N([H])[H])c2N([H])[H])C1([H])[H]

>  <smiles>  (63) 
[H]c1nc(C([H])([H])[H])c(C(n2nc([H])c(C([H])([H])Oc3c([H])c([H])c4c(c3[H])C([H])([H])N(C(=O)C([H])(N([H])C(=O)C([H])(N([H])C([H])([H])[H])C([H])([H])[H])C(C([H])([H])[H])(C([H])([H])[H])C([H])([H])[H])C([H])(C(=O)N([H])C3([H])c5c([H])c([H])c([H])c([H])c5C([H])([H])C([H])([H])C3([H])[H])C4([H])[H])c2[H])(C([H])([H])[H])C([H])([H])C([H])([H])[H])nc1C(=O)N1C([H])([H])C([H])([H])C([H])([H])C([H])(n2nc(-c3c([H])c([H])c(Oc4c([H])c([H])c(F)c([H])c4F)c([H])c3[H])c(C(=O)N([H])[H])c2N([H])[H])C1([H])[H]

$$$$
63:0:0
     RDKit          3D

 91 99  0  0  1  0  0  0  0  0999 V2000
  -28.3670  -21.5620   21.0730 C   0  0  0  0  0  3  0  0  0  0  0  0
  -29.6490  -23.6390   19.8100 C   0  0  0  0  0  3  0  0  0  0  0  0
  -27.9680  -22.9000   21.3480 C   0  0  0  0  0  0  0  0  0  0  0  0
  -28.6020  -23.9980   20.6900 C   0  0  0  0  0  0  0  0  0  0  0  0
  -29.4190  -21.3010   20.1720 C   0  0  0  0  0  0  0  0  0  0  0  0
  -26.8640  -23.1220   22.3700 C   0  0  0  0  0  1  0  0  0  0  0  0
  -30.0390  -22.3500   19.5610 N   0  0  0  0  0  0  0  0  0  0  0  0
  -28.2290  -25.4850   21.0500 C   0  0  0  0  0  2  0  0  0  0  0  0
  -28.3510  -26.5760   20.0750 O   0  0  0  0  0  0  0  0  0  0  0  0
  -24.6250  -31.9200   23.1550 C   0  0  0  0  0  0  0  0  0  0  0  0
  -27.2550  -27.4380   20.0490 C   0  0  0  0  0  0  0  0  0  0  0  0
  -23.4240  -30.5370   21.4970 C   0  0  0  0  0  3  0  0  0  0  0  0
  -24.8800  -29.0090   20.0540 C   0  0  0  0  0  0  0  0  0  0  0  0
  -25.9570  -30.8760   21.3150 C   0  0  0  0  0  2  0  0  0  0  0  0
  -26.0460  -29.5070   20.6550 C   0  0  0  0  0  0  0  0  0  0  0  0
  -27.2400  -28.7310   20.6460 C   0  0  0  0  0  3  0  0  0  0  0  0
  -26.0750  -26.9800   19.4310 C   0  0  0  0  0  3  0  0  0  0  0  0
  -24.8950  -27.7490   19.4330 C   0  0  0  0  0  3  0  0  0  0  0  0
  -23.6390  -29.8740   20.1090 C   0  0  0  0  0  2  0  0  0  0  0  0
  -24.6870  -31.1270   22.0460 N   0  0  0  0  0  0  0  0  0  0  0  0
  -23.5410  -32.1880   23.6940 O   0  0  0  0  0  0  0  0  0  0  0  0
  -22.7640  -29.5090   22.4450 C   0  0  0  0  0  0  0  0  0  0  0  0
  -21.4350  -29.3440   22.3280 N   0  0  0  0  0  0  0  0  0  0  0  0
  -23.4450  -28.8610   23.2440 O   0  0  0  0  0  0  0  0  0  0  0  0
  -20.9460  -29.9180   21.6560 H   0  0  0  0  0  0  0  0  0  0  0  0
  -18.0480  -28.1910   22.8570 C   0  0  0  0  0  0  0  0  0  0  0  0
  -20.6140  -28.4010   23.0880 C   0  0  0  0  0  3  0  0  0  0  0  0
  -20.6820  -26.9830   22.4740 C   0  0  0  0  0  2  0  0  0  0  0  0
  -19.5580  -26.7050   21.4720 C   0  0  0  0  0  2  0  0  0  0  0  0
  -18.1900  -26.8570   22.1430 C   0  0  0  0  0  2  0  0  0  0  0  0
  -19.1860  -28.9230   23.2850 C   0  0  0  0  0  0  0  0  0  0  0  0
  -19.0000  -30.1750   23.9130 C   0  0  0  0  0  3  0  0  0  0  0  0
  -17.7070  -30.6930   24.1140 C   0  0  0  0  0  3  0  0  0  0  0  0
  -16.5820  -29.9570   23.7010 C   0  0  0  0  0  3  0  0  0  0  0  0
  -16.7540  -28.7070   23.0780 C   0  0  0  0  0  3  0  0  0  0  0  0
  -25.9070  -32.5460   23.7850 C   0  0  0  0  0  3  0  0  0  0  0  0
  -25.6040  -33.9450   24.1140 N   0  0  0  0  0  0  0  0  0  0  0  0
  -25.9560  -34.9980   23.3630 C   0  0  0  0  0  0  0  0  0  0  0  0
  -26.6410  -34.8910   22.3430 O   0  0  0  0  0  0  0  0  0  0  0  0
  -24.9980  -34.1010   24.9060 H   0  0  0  0  0  0  0  0  0  0  0  0
  -24.2620  -36.8150   22.9710 C   0  0  0  0  0  1  0  0  0  0  0  0
  -25.4720  -36.3890   23.8170 C   0  0  0  0  0  3  0  0  0  0  0  0
  -27.5890  -37.2430   24.7210 C   0  0  0  0  0  1  0  0  0  0  0  0
  -26.5220  -37.4290   23.7430 N   0  0  0  0  0  0  0  0  0  0  0  0
  -26.1220  -38.3540   23.8810 H   0  0  0  0  0  0  0  0  0  0  0  0
  -26.4120  -31.7720   25.0650 C   0  0  1  0  0  0  0  0  0  0  0  0
  -25.3110  -31.5390   26.1260 C   0  0  0  0  0  1  0  0  0  0  0  0
  -26.9920  -30.3920   24.6750 C   0  0  0  0  0  1  0  0  0  0  0  0
  -27.5620  -32.5600   25.7350 C   0  0  0  0  0  1  0  0  0  0  0  0
  -29.8480  -19.8510   19.7310 C   0  0  0  0  0  2  0  0  0  0  0  0
  -30.8930  -19.0880   21.8540 C   0  0  0  0  0  1  0  0  0  0  0  0
  -29.9820  -18.7250   20.7410 N   0  0  2  0  0  4  0  0  0  0  0  0
  -29.0610  -18.6250   21.1400 H   0  0  0  0  0  0  0  0  0  0  0  0
  -30.3530  -17.3820   20.1150 C   0  0  0  0  0  3  0  0  0  0  0  0
  -30.1160  -16.0430   20.9480 C   0  0  0  0  0  3  0  0  0  0  0  0
  -30.8190  -14.7370   20.3990 C   0  0  0  0  0  0  0  0  0  0  0  0
  -30.5640  -12.5190   19.3000 C   0  0  0  0  0  2  0  0  0  0  0  0
  -29.6340  -12.6800   18.0780 C   0  0  0  0  0  2  0  0  0  0  0  0
  -28.1550  -12.5430   18.4930 C   0  0  0  0  0  2  0  0  0  0  0  0
  -27.8020  -13.4000   19.7390 C   0  0  0  0  0  3  0  0  0  0  0  0
  -28.8490  -13.2170   20.8590 C   0  0  0  0  0  2  0  0  0  0  0  0
  -30.1680  -13.5340   20.2980 N   0  0  0  0  0  0  0  0  0  0  0  0
  -31.9660  -14.8580   19.9600 O   0  0  0  0  0  0  0  0  0  0  0  0
  -25.4040  -14.0240   20.4230 C   0  0  0  0  0  0  0  0  0  0  0  0
  -24.3270  -13.2620   20.7900 C   0  0  0  0  0  0  0  0  0  0  0  0
  -24.7800  -11.9070   20.7790 C   0  0  0  0  0  0  0  0  0  0  0  0
  -26.4440  -13.1340   20.2100 N   0  0  0  0  0  0  0  0  0  0  0  0
  -26.0730  -11.8570   20.4840 N   0  0  0  0  0  0  0  0  0  0  0  0
  -24.0420  -10.6520   20.9740 C   0  0  0  0  0  0  0  0  0  0  0  0
  -24.4490   -9.6990   21.9320 C   0  0  0  0  0  3  0  0  0  0  0  0
  -23.7120   -8.5080   22.1150 C   0  0  0  0  0  3  0  0  0  0  0  0
  -22.5530   -8.2640   21.3400 C   0  0  0  0  0  0  0  0  0  0  0  0
  -22.1660   -9.2070   20.3710 C   0  0  0  0  0  3  0  0  0  0  0  0
  -22.9030  -10.3880   20.1870 C   0  0  0  0  0  3  0  0  0  0  0  0
  -21.7910   -7.1250   21.4310 O   0  0  0  0  0  0  0  0  0  0  0  0
  -21.7070   -6.4060   22.5960 C   0  0  0  0  0  0  0  0  0  0  0  0
  -21.2310   -6.9810   23.7940 C   0  0  0  0  0  3  0  0  0  0  0  0
  -21.0960   -6.1870   24.9510 C   0  0  0  0  0  3  0  0  0  0  0  0
  -21.4270   -4.8200   24.9100 C   0  0  0  0  0  0  0  0  0  0  0  0
  -21.8960   -4.2440   23.7160 C   0  0  0  0  0  3  0  0  0  0  0  0
  -22.0330   -5.0350   22.5620 C   0  0  0  0  0  0  0  0  0  0  0  0
  -22.4650   -4.4700   21.4080 F   0  0  0  0  0  0  0  0  0  0  0  0
  -21.2900   -4.0550   26.0190 F   0  0  0  0  0  0  0  0  0  0  0  0
  -22.9300  -13.7530   21.0420 C   0  0  0  0  0  0  0  0  0  0  0  0
  -22.1890  -13.0730   21.9090 N   0  0  0  0  0  0  0  0  0  0  0  0
  -22.5040  -14.7740   20.5030 O   0  0  0  0  0  0  0  0  0  0  0  0
  -22.5440  -12.2470   22.3670 H   0  0  0  0  0  0  0  0  0  0  0  0
  -21.2510  -13.3840   22.1210 H   0  0  0  0  0  0  0  0  0  0  0  0
  -25.5800  -15.3910   20.2300 N   0  0  0  0  0  0  0  0  0  0  0  0
  -24.8130  -16.0490   20.3170 H   0  0  0  0  0  0  0  0  0  0  0  0
  -26.4290  -15.8170   19.8830 H   0  0  0  0  0  0  0  0  0  0  0  0
  1  3  1  0
  2  4  1  0
  3  6  1  0
  4  8  1  0
  4  3  2  0
  5  1  2  0
  7  2  2  0
  7  5  1  0
  9  8  1  0
 10 21  2  0
 11  9  1  0
 11 16  1  0
 12 20  1  0
 12 22  1  0
 13 19  1  0
 13 15  1  0
 14 20  1  0
 15 14  1  0
 16 15  2  0
 17 18  1  0
 17 11  2  0
 18 13  2  0
 19 12  1  0
 20 10  1  0
 22 24  2  0
 23 22  1  0
 25 23  1  0
 26 35  2  0
 26 31  1  0
 27 23  1  0
 27 31  1  0
 28 27  1  0
 29 30  1  0
 29 28  1  0
 30 26  1  0
 31 32  2  0
 32 33  1  0
 34 33  2  0
 35 34  1  0
 36 10  1  0
 36 37  1  0
 36 46  1  0
 37 40  1  0
 38 42  1  0
 38 37  1  0
 39 38  2  0
 42 41  1  0
 44 42  1  0
 44 45  1  0
 44 43  1  0
 46 49  1  1
 46 47  1  0
 48 46  1  0
 50  5  1  0
 50 52  1  0
 52 53  1  1
 52 51  1  0
 54 52  1  0
 54 55  2  0
 56 55  1  0
 57 62  1  0
 58 59  1  0
 58 57  1  0
 60 59  1  0
 60 67  1  0
 60 61  1  0
 62 56  1  0
 62 61  1  0
 63 56  2  0
 64 65  2  0
 65 84  1  0
 66 65  1  0
 66 69  1  0
 67 64  1  0
 67 68  1  0
 68 66  2  0
 69 70  1  0
 70 71  2  0
 72 75  1  0
 72 71  1  0
 73 72  2  0
 74 73  1  0
 74 69  2  0
 75 76  1  0
 76 77  1  0
 77 78  2  0
 79 78  1  0
 79 83  1  0
 80 79  2  0
 81 76  2  0
 81 80  1  0
 82 81  1  0
 84 85  1  0
 85 88  1  0
 85 87  1  0
 86 84  2  0
 89 90  1  0
 89 64  1  0
 91 89  1  0
M  ISO  4   8 101   9 101  55 100  56 100
M  END
>  <TORSDO>  (64) 
F 21

>  <SCORE>  (64) 
-12.938

>  <name>  (64) 
63

>  <ligand_id>  (64) 
63

>  <original_smiles>  (64) 
[H]c1nc(C([H])([H])[N+]([H])(C([H])([H])[H])C([H])([H])C([H])([H])C(=O)N2C([H])([H])C([H])([H])C([H])([H])C([H])(n3nc(-c4c([H])c([H])c(Oc5c([H])c([H])c(F)c([H])c5F)c([H])c4[H])c(C(=O)N([H])[H])c3N([H])[H])C2([H])[H])c([H])c(C([H])([H])[H])c1C([H])([H])Oc1c([H])c([H])c2c(c1[H])C([H])([H])N(C(=O)C([H])(N([H])C(=O)C([H])(N([H])C([H])([H])[H])C([H])([H])[H])C(C([H])([H])[H])(C([H])([H])[H])C([H])([H])[H])C([H])(C(=O)N([H])C1([H])c3c([H])c([H])c([H])c([H])c3C([H])([H])C([H])([H])C1([H])[H])C2([H])[H]

>  <smiles>  (64) 
[H]c1nc(C([H])([H])[N+]([H])(C([H])([H])[H])C([H])([H])C([H])([H])C(=O)N2C([H])([H])C([H])([H])C([H])([H])C([H])(n3nc(-c4c([H])c([H])c(Oc5c([H])c([H])c(F)c([H])c5F)c([H])c4[H])c(C(=O)N([H])[H])c3N([H])[H])C2([H])[H])c([H])c(C([H])([H])[H])c1C([H])([H])Oc1c([H])c([H])c2c(c1[H])C([H])([H])N(C(=O)C([H])(N([H])C(=O)C([H])(N([H])C([H])([H])[H])C([H])([H])[H])C(C([H])([H])[H])(C([H])([H])[H])C([H])([H])[H])C([H])(C(=O)N([H])C1([H])c3c([H])c([H])c([H])c([H])c3C([H])([H])C([H])([H])C1([H])[H])C2([H])[H]

$$$$
64:0:0
     RDKit          3D

 95103  0  0  1  0  0  0  0  0999 V2000
  -29.7630  -21.1220   19.5790 C   0  0  0  0  0  0  0  0  0  0  0  0
  -27.7700  -21.5190   19.1720 C   0  0  0  0  0  3  0  0  0  0  0  0
  -26.3180  -21.2940   18.8810 C   0  0  0  0  0  1  0  0  0  0  0  0
  -28.5890  -20.4860   19.3240 N   0  0  0  0  0  0  0  0  0  0  0  0
  -29.6880  -22.4650   19.6300 N   0  0  0  0  0  2  0  0  0  0  0  0
  -28.3660  -22.7250   19.3450 N   0  0  0  0  0  0  0  0  0  0  0  0
  -26.8940  -24.1900   18.0720 C   0  0  0  0  0  1  0  0  0  0  0  0
  -26.8710  -24.0520   20.6990 C   0  0  0  0  0  1  0  0  0  0  0  0
  -27.7200  -24.0850   19.3970 C   0  0  1  0  0  0  0  0  0  0  0  0
  -28.6700  -25.3630   19.4460 C   0  0  0  0  0  2  0  0  0  0  0  0
  -28.3610  -26.6230   20.1580 O   0  0  0  0  0  0  0  0  0  0  0  0
  -24.5590  -31.8590   23.2460 C   0  0  0  0  0  0  0  0  0  0  0  0
  -27.1850  -27.3830   20.1120 C   0  0  0  0  0  0  0  0  0  0  0  0
  -23.3480  -30.4710   21.6040 C   0  0  0  0  0  3  0  0  0  0  0  0
  -24.7920  -28.9430   20.1760 C   0  0  0  0  0  0  0  0  0  0  0  0
  -25.8880  -30.8110   21.4040 C   0  0  0  0  0  2  0  0  0  0  0  0
  -25.9670  -29.4470   20.7420 C   0  0  0  0  0  0  0  0  0  0  0  0
  -27.1630  -28.6800   20.6990 C   0  0  0  0  0  3  0  0  0  0  0  0
  -25.9600  -26.9110   19.5930 C   0  0  0  0  0  3  0  0  0  0  0  0
  -24.7830  -27.6690   19.6040 C   0  0  0  0  0  3  0  0  0  0  0  0
  -23.5570  -29.8100   20.2210 C   0  0  0  0  0  2  0  0  0  0  0  0
  -24.6170  -31.0610   22.1410 N   0  0  0  0  0  0  0  0  0  0  0  0
  -23.4790  -32.1280   23.7880 O   0  0  0  0  0  0  0  0  0  0  0  0
  -22.6910  -29.4430   22.5550 C   0  0  0  0  0  0  0  0  0  0  0  0
  -21.3640  -29.2710   22.4300 N   0  0  0  0  0  0  0  0  0  0  0  0
  -23.3730  -28.8060   23.3640 O   0  0  0  0  0  0  0  0  0  0  0  0
  -20.8770  -29.8410   21.7540 H   0  0  0  0  0  0  0  0  0  0  0  0
  -17.9790  -28.0980   22.9390 C   0  0  0  0  0  0  0  0  0  0  0  0
  -20.5410  -28.3350   23.1960 C   0  0  0  0  0  3  0  0  0  0  0  0
  -20.6260  -26.9060   22.6110 C   0  0  0  0  0  2  0  0  0  0  0  0
  -19.5160  -26.5990   21.5990 C   0  0  0  0  0  2  0  0  0  0  0  0
  -18.1390  -26.7530   22.2520 C   0  0  0  0  0  2  0  0  0  0  0  0
  -19.1070  -28.8480   23.3680 C   0  0  0  0  0  0  0  0  0  0  0  0
  -18.9040  -30.1050   23.9730 C   0  0  0  0  0  3  0  0  0  0  0  0
  -17.6050  -30.6210   24.1460 C   0  0  0  0  0  3  0  0  0  0  0  0
  -16.4910  -29.8680   23.7340 C   0  0  0  0  0  3  0  0  0  0  0  0
  -16.6780  -28.6090   23.1380 C   0  0  0  0  0  3  0  0  0  0  0  0
  -25.8460  -32.4850   23.8630 C   0  0  0  0  0  3  0  0  0  0  0  0
  -25.5410  -33.8840   24.1900 N   0  0  0  0  0  0  0  0  0  0  0  0
  -25.8760  -34.9330   23.4260 C   0  0  0  0  0  0  0  0  0  0  0  0
  -26.5450  -34.8240   22.3950 O   0  0  0  0  0  0  0  0  0  0  0  0
  -24.9520  -34.0410   24.9940 H   0  0  0  0  0  0  0  0  0  0  0  0
  -24.1580  -36.7310   23.0580 C   0  0  0  0  0  1  0  0  0  0  0  0
  -25.3940  -36.3250   23.8770 C   0  0  0  0  0  3  0  0  0  0  0  0
  -27.5270  -37.2050   24.7140 C   0  0  0  0  0  1  0  0  0  0  0  0
  -26.4290  -37.3740   23.7670 N   0  0  0  0  0  0  0  0  0  0  0  0
  -26.0240  -38.2940   23.9120 H   0  0  0  0  0  0  0  0  0  0  0  0
  -26.3550  -31.7100   25.1400 C   0  0  1  0  0  0  0  0  0  0  0  0
  -25.2620  -31.4780   26.2080 C   0  0  0  0  0  1  0  0  0  0  0  0
  -26.9260  -30.3280   24.7470 C   0  0  0  0  0  1  0  0  0  0  0  0
  -27.5070  -32.4980   25.8040 C   0  0  0  0  0  1  0  0  0  0  0  0
  -30.9880  -20.2710   19.8380 C   0  0  0  0  0  2  0  0  0  0  0  0
  -31.0450  -19.8130   22.2580 C   0  0  0  0  0  1  0  0  0  0  0  0
  -30.6550  -19.2990   20.9200 N   0  0  2  0  0  4  0  0  0  0  0  0
  -29.6450  -19.3460   20.8680 H   0  0  0  0  0  0  0  0  0  0  0  0
  -31.0050  -17.8460   20.7060 C   0  0  0  0  0  2  0  0  0  0  0  0
  -29.8310  -16.9220   21.1580 C   0  0  0  0  0  2  0  0  0  0  0  0
  -30.6460  -14.5380   20.4500 C   0  0  0  0  0  0  0  0  0  0  0  0
  -30.3640  -12.4030   19.2270 C   0  0  0  0  0  2  0  0  0  0  0  0
  -29.4020  -12.6460   18.0420 C   0  0  0  0  0  2  0  0  0  0  0  0
  -27.9290  -12.5040   18.4720 C   0  0  0  0  0  2  0  0  0  0  0  0
  -27.6180  -13.2830   19.7760 C   0  0  0  0  0  3  0  0  0  0  0  0
  -28.6800  -12.9950   20.8650 C   0  0  0  0  0  2  0  0  0  0  0  0
  -30.0080  -13.3390   20.3050 N   0  0  0  0  0  0  0  0  0  0  0  0
  -31.7040  -14.8180   19.8820 O   0  0  0  0  0  0  0  0  0  0  0  0
  -29.9470  -15.4410   21.1690 N   0  0  0  0  0  0  0  0  0  0  0  0
  -29.1960  -14.9970   21.6790 H   0  0  0  0  0  0  0  0  0  0  0  0
  -25.2150  -13.9010   20.4590 C   0  0  0  0  0  0  0  0  0  0  0  0
  -24.1460  -13.1350   20.8340 C   0  0  0  0  0  0  0  0  0  0  0  0
  -24.6060  -11.7820   20.8190 C   0  0  0  0  0  0  0  0  0  0  0  0
  -26.2610  -13.0150   20.2470 N   0  0  0  0  0  0  0  0  0  0  0  0
  -25.8950  -11.7350   20.5110 N   0  0  0  0  0  0  0  0  0  0  0  0
  -23.8760  -10.5230   21.0190 C   0  0  0  0  0  0  0  0  0  0  0  0
  -24.3100   -9.5550   21.9510 C   0  0  0  0  0  3  0  0  0  0  0  0
  -23.5790   -8.3630   22.1380 C   0  0  0  0  0  3  0  0  0  0  0  0
  -22.3990   -8.1310   21.3930 C   0  0  0  0  0  0  0  0  0  0  0  0
  -21.9860   -9.0850   20.4460 C   0  0  0  0  0  3  0  0  0  0  0  0
  -22.7170  -10.2700   20.2590 C   0  0  0  0  0  3  0  0  0  0  0  0
  -21.6430   -6.9900   21.4850 O   0  0  0  0  0  0  0  0  0  0  0  0
  -21.6030   -6.2430   22.6360 C   0  0  0  0  0  0  0  0  0  0  0  0
  -21.2010   -6.8000   23.8700 C   0  0  0  0  0  3  0  0  0  0  0  0
  -21.1070   -5.9820   25.0130 C   0  0  0  0  0  3  0  0  0  0  0  0
  -21.4100   -4.6100   24.9260 C   0  0  0  0  0  0  0  0  0  0  0  0
  -21.8070   -4.0540   23.6960 C   0  0  0  0  0  3  0  0  0  0  0  0
  -21.9010   -4.8680   22.5530 C   0  0  0  0  0  0  0  0  0  0  0  0
  -22.2640   -4.3230   21.3670 F   0  0  0  0  0  0  0  0  0  0  0  0
  -21.3150   -3.8230   26.0220 F   0  0  0  0  0  0  0  0  0  0  0  0
  -22.7520  -13.6170   21.1090 C   0  0  0  0  0  0  0  0  0  0  0  0
  -22.0260  -12.9280   21.9800 N   0  0  0  0  0  0  0  0  0  0  0  0
  -22.3160  -14.6460   20.5900 O   0  0  0  0  0  0  0  0  0  0  0  0
  -22.3880  -12.0900   22.4110 H   0  0  0  0  0  0  0  0  0  0  0  0
  -21.0970  -13.2420   22.2200 H   0  0  0  0  0  0  0  0  0  0  0  0
  -25.3880  -15.2710   20.2720 N   0  0  0  0  0  0  0  0  0  0  0  0
  -24.6310  -15.9360   20.3840 H   0  0  0  0  0  0  0  0  0  0  0  0
  -26.2480  -15.7000   19.9610 H   0  0  0  0  0  0  0  0  0  0  0  0
  1  5  1  0
  1 52  1  0
  2  3  1  0
  2  4  1  0
  2  6  1  0
  4  1  2  0
  6  9  1  0
  6  5  1  0
  9  7  1  6
  9 10  1  0
  9  8  1  0
 10 11  1  0
 12 23  2  0
 13 11  1  0
 13 18  1  0
 14 22  1  0
 14 24  1  0
 15 21  1  0
 15 17  1  0
 16 22  1  0
 17 16  1  0
 18 17  2  0
 19 20  1  0
 19 13  2  0
 20 15  2  0
 21 14  1  0
 22 12  1  0
 24 26  2  0
 25 24  1  0
 27 25  1  0
 28 37  2  0
 28 33  1  0
 29 25  1  0
 29 33  1  0
 30 29  1  0
 31 32  1  0
 31 30  1  0
 32 28  1  0
 33 34  2  0
 34 35  1  0
 36 35  2  0
 37 36  1  0
 38 12  1  0
 38 39  1  0
 38 48  1  0
 39 42  1  0
 40 44  1  0
 40 39  1  0
 41 40  2  0
 44 43  1  0
 46 44  1  0
 46 47  1  0
 46 45  1  0
 48 51  1  1
 48 49  1  0
 50 48  1  0
 52 54  1  0
 54 53  1  0
 54 55  1  1
 56 54  1  0
 56 57  1  0
 57 66  1  0
 58 66  1  0
 59 64  1  0
 60 61  1  0
 60 59  1  0
 62 61  1  0
 62 71  1  0
 62 63  1  0
 64 58  1  0
 64 63  1  0
 65 58  2  0
 66 67  1  0
 68 69  2  0
 69 88  1  0
 70 69  1  0
 70 73  1  0
 71 68  1  0
 71 72  1  0
 72 70  2  0
 73 74  1  0
 74 75  2  0
 76 79  1  0
 76 75  1  0
 77 76  2  0
 78 77  1  0
 78 73  2  0
 79 80  1  0
 80 81  1  0
 81 82  2  0
 83 82  1  0
 83 87  1  0
 84 83  2  0
 85 80  2  0
 85 84  1  0
 86 85  1  0
 88 89  1  0
 89 92  1  0
 89 91  1  0
 90 88  2  0
 93 94  1  0
 93 68  1  0
 95 93  1  0
M  ISO  4  10 101  11 101  58 100  66 100
M  END
>  <TORSDO>  (65) 
F 22

>  <SCORE>  (65) 
-13.290

>  <name>  (65) 
64

>  <ligand_id>  (65) 
64

>  <original_smiles>  (65) 
[H]c1c([H])c([H])c2c(c1[H])C([H])([H])C([H])([H])C([H])([H])C2([H])N([H])C(=O)C1([H])N(C(=O)C([H])(N([H])C(=O)C([H])(N([H])C([H])([H])[H])C([H])([H])[H])C(C([H])([H])[H])(C([H])([H])[H])C([H])([H])[H])C([H])([H])c2c([H])c(OC([H])([H])C(n3nc(C([H])([H])[N+]([H])(C([H])([H])[H])C([H])([H])C([H])([H])N([H])C(=O)N4C([H])([H])C([H])([H])C([H])([H])C([H])(n5nc(-c6c([H])c([H])c(Oc7c([H])c([H])c(F)c([H])c7F)c([H])c6[H])c(C(=O)N([H])[H])c5N([H])[H])C4([H])[H])nc3C([H])([H])[H])(C([H])([H])[H])C([H])([H])[H])c([H])c([H])c2C1([H])[H]

>  <smiles>  (65) 
[H]c1c([H])c([H])c2c(c1[H])C([H])([H])C([H])([H])C([H])([H])C2([H])N([H])C(=O)C1([H])N(C(=O)C([H])(N([H])C(=O)C([H])(N([H])C([H])([H])[H])C([H])([H])[H])C(C([H])([H])[H])(C([H])([H])[H])C([H])([H])[H])C([H])([H])c2c([H])c(OC([H])([H])C(n3nc(C([H])([H])[N+]([H])(C([H])([H])[H])C([H])([H])C([H])([H])N([H])C(=O)N4C([H])([H])C([H])([H])C([H])([H])C([H])(n5nc(-c6c([H])c([H])c(Oc7c([H])c([H])c(F)c([H])c7F)c([H])c6[H])c(C(=O)N([H])[H])c5N([H])[H])C4([H])[H])nc3C([H])([H])[H])(C([H])([H])[H])C([H])([H])[H])c([H])c([H])c2C1([H])[H]

$$$$
65:0:0
     RDKit          3D

 87 95  0  0  1  0  0  0  0  0999 V2000
  -29.8220  -22.6830   19.4550 C   0  0  0  0  0  3  0  0  0  0  0  0
  -28.3950  -21.7950   20.7370 C   0  0  0  0  0  3  0  0  0  0  0  0
  -28.7070  -23.1030   20.2670 C   0  0  0  0  0  0  0  0  0  0  0  0
  -30.1070  -21.3400   19.4470 N   0  0  0  0  0  0  0  0  0  0  0  0
  -29.2130  -20.6990   20.2520 N   0  0  0  0  0  0  0  0  0  0  0  0
  -27.8950  -24.5580   20.5240 C   0  0  0  0  0  2  0  0  0  0  0  0
  -28.2890  -26.0670   20.2710 O   0  0  0  0  0  0  0  0  0  0  0  0
  -24.6500  -31.8560   23.2010 C   0  0  0  0  0  0  0  0  0  0  0  0
  -27.2570  -27.0940   20.2230 C   0  0  0  0  0  0  0  0  0  0  0  0
  -23.4660  -30.4460   21.5660 C   0  0  0  0  0  3  0  0  0  0  0  0
  -24.9300  -28.8670   20.1600 C   0  0  0  0  0  0  0  0  0  0  0  0
  -26.0260  -30.7060   21.4210 C   0  0  0  0  0  2  0  0  0  0  0  0
  -26.1090  -29.3070   20.7780 C   0  0  0  0  0  0  0  0  0  0  0  0
  -27.2720  -28.4390   20.7920 C   0  0  0  0  0  3  0  0  0  0  0  0
  -26.0560  -26.7800   19.5440 C   0  0  0  0  0  3  0  0  0  0  0  0
  -24.9210  -27.6160   19.5260 C   0  0  0  0  0  3  0  0  0  0  0  0
  -23.7010  -29.7640   20.1940 C   0  0  0  0  0  2  0  0  0  0  0  0
  -24.7340  -31.0250   22.1170 N   0  0  0  0  0  0  0  0  0  0  0  0
  -23.5580  -32.1420   23.7190 O   0  0  0  0  0  0  0  0  0  0  0  0
  -22.7830  -29.4420   22.5290 C   0  0  0  0  0  0  0  0  0  0  0  0
  -21.4520  -29.2840   22.4130 N   0  0  0  0  0  0  0  0  0  0  0  0
  -23.4540  -28.8080   23.3480 O   0  0  0  0  0  0  0  0  0  0  0  0
  -20.9660  -29.8440   21.7260 H   0  0  0  0  0  0  0  0  0  0  0  0
  -18.0630  -28.1150   22.9470 C   0  0  0  0  0  0  0  0  0  0  0  0
  -20.6280  -28.3530   23.1900 C   0  0  0  0  0  3  0  0  0  0  0  0
  -20.7100  -26.9200   22.6130 C   0  0  0  0  0  2  0  0  0  0  0  0
  -19.5960  -26.6100   21.6080 C   0  0  0  0  0  2  0  0  0  0  0  0
  -18.2210  -26.7670   22.2650 C   0  0  0  0  0  2  0  0  0  0  0  0
  -19.1930  -28.8680   23.3670 C   0  0  0  0  0  0  0  0  0  0  0  0
  -18.9890  -30.1300   23.9660 C   0  0  0  0  0  3  0  0  0  0  0  0
  -17.6890  -30.6390   24.1480 C   0  0  0  0  0  3  0  0  0  0  0  0
  -16.5740  -29.8840   23.7430 C   0  0  0  0  0  3  0  0  0  0  0  0
  -16.7630  -28.6240   23.1470 C   0  0  0  0  0  3  0  0  0  0  0  0
  -25.9200  -32.5030   23.8310 C   0  0  0  0  0  3  0  0  0  0  0  0
  -26.4340  -31.7370   25.1120 C   0  0  1  0  0  0  0  0  0  0  0  0
  -25.3380  -31.4940   26.1760 C   0  0  0  0  0  1  0  0  0  0  0  0
  -27.0270  -30.3610   24.7310 C   0  0  0  0  0  1  0  0  0  0  0  0
  -27.5760  -32.5400   25.7780 C   0  0  0  0  0  1  0  0  0  0  0  0
  -25.5950  -33.8990   24.1660 N   0  0  0  0  0  0  0  0  0  0  0  0
  -25.9240  -34.9610   23.4190 C   0  0  0  0  0  0  0  0  0  0  0  0
  -26.5980  -34.8710   22.3900 O   0  0  0  0  0  0  0  0  0  0  0  0
  -24.9960  -34.0430   24.9660 H   0  0  0  0  0  0  0  0  0  0  0  0
  -24.1850  -36.7480   23.0720 C   0  0  0  0  0  1  0  0  0  0  0  0
  -25.4250  -36.3440   23.8870 C   0  0  0  0  0  3  0  0  0  0  0  0
  -27.5500  -37.2340   24.7360 C   0  0  0  0  0  1  0  0  0  0  0  0
  -26.4510  -37.4040   23.7880 N   0  0  0  0  0  0  0  0  0  0  0  0
  -26.0390  -38.3200   23.9430 H   0  0  0  0  0  0  0  0  0  0  0  0
  -29.1260  -19.1150   20.5160 C   0  0  0  0  0  3  0  0  0  0  0  0
  -30.0870  -17.7940   19.9760 C   0  0  0  0  0  3  0  0  0  0  0  0
  -30.5640  -15.0320   19.9980 C   0  0  0  0  0  0  0  0  0  0  0  0
  -30.3860  -12.7080   18.9400 C   0  0  0  0  0  2  0  0  0  0  0  0
  -29.3730  -12.6780   17.7690 C   0  0  0  0  0  2  0  0  0  0  0  0
  -27.9370  -12.4450   18.2750 C   0  0  0  0  0  2  0  0  0  0  0  0
  -27.6100  -13.3040   19.5220 C   0  0  0  0  0  3  0  0  0  0  0  0
  -28.7370  -13.2350   20.5700 C   0  0  0  0  0  2  0  0  0  0  0  0
  -29.9570  -13.7570   19.9230 N   0  0  0  0  0  0  0  0  0  0  0  0
  -31.7000  -15.1000   19.5080 O   0  0  0  0  0  0  0  0  0  0  0  0
  -29.1680  -16.1910   21.6760 C   0  0  0  0  0  1  0  0  0  0  0  0
  -29.8740  -16.2470   20.3920 N   0  0  0  0  0  0  0  0  0  0  0  0
  -25.2760  -13.8540   20.4060 C   0  0  0  0  0  0  0  0  0  0  0  0
  -24.2400  -13.0670   20.8270 C   0  0  0  0  0  0  0  0  0  0  0  0
  -24.7080  -11.7190   20.7440 C   0  0  0  0  0  0  0  0  0  0  0  0
  -26.3060  -12.9860   20.0890 N   0  0  0  0  0  0  0  0  0  0  0  0
  -25.9780  -11.6950   20.3560 N   0  0  0  0  0  0  0  0  0  0  0  0
  -23.9990  -10.4510   20.9540 C   0  0  0  0  0  0  0  0  0  0  0  0
  -24.4590   -9.4940   21.8840 C   0  0  0  0  0  3  0  0  0  0  0  0
  -23.7490   -8.2900   22.0840 C   0  0  0  0  0  3  0  0  0  0  0  0
  -22.5630   -8.0370   21.3550 C   0  0  0  0  0  0  0  0  0  0  0  0
  -22.1220   -8.9820   20.4130 C   0  0  0  0  0  3  0  0  0  0  0  0
  -22.8320  -10.1770   20.2120 C   0  0  0  0  0  3  0  0  0  0  0  0
  -21.8210   -6.8850   21.4660 O   0  0  0  0  0  0  0  0  0  0  0  0
  -21.7660   -6.1740   22.6370 C   0  0  0  0  0  0  0  0  0  0  0  0
  -21.3230   -6.7570   23.8450 C   0  0  0  0  0  3  0  0  0  0  0  0
  -21.2170   -5.9710   25.0090 C   0  0  0  0  0  3  0  0  0  0  0  0
  -21.5390   -4.6010   24.9670 C   0  0  0  0  0  0  0  0  0  0  0  0
  -21.9740   -4.0170   23.7650 C   0  0  0  0  0  3  0  0  0  0  0  0
  -22.0840   -4.8000   22.6030 C   0  0  0  0  0  0  0  0  0  0  0  0
  -22.4830   -4.2270   21.4420 F   0  0  0  0  0  0  0  0  0  0  0  0
  -21.4280   -3.8450   26.0840 F   0  0  0  0  0  0  0  0  0  0  0  0
  -22.8590  -13.5320   21.1900 C   0  0  0  0  0  0  0  0  0  0  0  0
  -22.1890  -12.8210   22.0880 N   0  0  0  0  0  0  0  0  0  0  0  0
  -22.3880  -14.5630   20.7120 O   0  0  0  0  0  0  0  0  0  0  0  0
  -22.5860  -11.9890   22.4990 H   0  0  0  0  0  0  0  0  0  0  0  0
  -21.2660  -13.1150   22.3730 H   0  0  0  0  0  0  0  0  0  0  0  0
  -25.4210  -15.2300   20.2410 N   0  0  0  0  0  0  0  0  0  0  0  0
  -24.6560  -15.8750   20.3990 H   0  0  0  0  0  0  0  0  0  0  0  0
  -26.2390  -15.6760   19.8460 H   0  0  0  0  0  0  0  0  0  0  0  0
  1  3  1  0
  3  6  1  0
  3  2  2  0
  4  1  2  0
  4  5  1  0
  5 48  1  0
  5  2  1  0
  7  6  1  0
  8 19  2  0
  9  7  1  0
  9 14  1  0
 10 18  1  0
 10 20  1  0
 11 17  1  0
 11 13  1  0
 12 18  1  0
 13 14  2  0
 13 12  1  0
 15  9  2  0
 16 15  1  0
 16 11  2  0
 17 10  1  0
 18  8  1  0
 20 22  2  0
 21 20  1  0
 23 21  1  0
 24 33  2  0
 24 29  1  0
 25 21  1  0
 25 29  1  0
 26 25  1  0
 27 28  1  0
 27 26  1  0
 28 24  1  0
 29 30  2  0
 30 31  1  0
 32 31  2  0
 33 32  1  0
 34  8  1  0
 34 39  1  0
 34 35  1  0
 35 38  1  1
 35 36  1  0
 37 35  1  0
 39 42  1  0
 40 44  1  0
 40 39  1  0
 41 40  2  0
 44 43  1  0
 46 44  1  0
 46 47  1  0
 46 45  1  0
 49 59  1  0
 49 48  2  0
 50 59  1  0
 51 56  1  0
 52 53  1  0
 52 51  1  0
 54 53  1  0
 54 63  1  0
 54 55  1  0
 56 50  1  0
 56 55  1  0
 57 50  2  0
 59 58  1  0
 60 61  2  0
 61 80  1  0
 62 61  1  0
 62 65  1  0
 63 64  1  0
 63 60  1  0
 64 62  2  0
 65 66  1  0
 66 67  2  0
 68 71  1  0
 68 67  1  0
 69 68  2  0
 70 69  1  0
 70 65  2  0
 71 72  1  0
 72 73  1  0
 73 74  2  0
 75 74  1  0
 75 79  1  0
 76 75  2  0
 77 72  2  0
 77 76  1  0
 78 77  1  0
 80 81  1  0
 81 84  1  0
 81 83  1  0
 82 80  2  0
 85 86  1  0
 85 60  1  0
 87 85  1  0
M  ISO  4   6 101   7 101  50 100  59 100
M  END
>  <TORSDO>  (66) 
F 19

>  <SCORE>  (66) 
-14.233

>  <name>  (66) 
65

>  <ligand_id>  (66) 
65

>  <original_smiles>  (66) 
[H]c1nn(C([H])([H])C([H])([H])N(C(=O)N2C([H])([H])C([H])([H])C([H])([H])C([H])(n3nc(-c4c([H])c([H])c(Oc5c([H])c([H])c(F)c([H])c5F)c([H])c4[H])c(C(=O)N([H])[H])c3N([H])[H])C2([H])[H])C([H])([H])[H])c([H])c1C([H])([H])Oc1c([H])c([H])c2c(c1[H])C([H])([H])N(C(=O)C([H])(N([H])C(=O)C([H])(N([H])C([H])([H])[H])C([H])([H])[H])C(C([H])([H])[H])(C([H])([H])[H])C([H])([H])[H])C([H])(C(=O)N([H])C1([H])c3c([H])c([H])c([H])c([H])c3C([H])([H])C([H])([H])C1([H])[H])C2([H])[H]

>  <smiles>  (66) 
[H]c1nn(C([H])([H])C([H])([H])N(C(=O)N2C([H])([H])C([H])([H])C([H])([H])C([H])(n3nc(-c4c([H])c([H])c(Oc5c([H])c([H])c(F)c([H])c5F)c([H])c4[H])c(C(=O)N([H])[H])c3N([H])[H])C2([H])[H])C([H])([H])[H])c([H])c1C([H])([H])Oc1c([H])c([H])c2c(c1[H])C([H])([H])N(C(=O)C([H])(N([H])C(=O)C([H])(N([H])C([H])([H])[H])C([H])([H])[H])C(C([H])([H])[H])(C([H])([H])[H])C([H])([H])[H])C([H])(C(=O)N([H])C1([H])c3c([H])c([H])c([H])c([H])c3C([H])([H])C([H])([H])C1([H])[H])C2([H])[H]

$$$$
66:0:0
     RDKit          3D

 90 98  0  0  1  0  0  0  0  0999 V2000
  -28.9200  -23.6400   19.5070 C   0  0  0  0  0  2  0  0  0  0  0  0
  -28.5090  -22.7410   21.3890 C   0  0  0  0  0  2  0  0  0  0  0  0
  -28.4700  -24.7270   20.3330 C   0  0  0  0  0  0  0  0  0  0  0  0
  -28.2350  -24.0660   21.5490 N   0  0  0  0  0  0  0  0  0  0  0  0
  -28.9230  -22.3240   20.1670 N   0  0  0  0  0  0  0  0  0  0  0  0
  -28.4470  -26.1780   20.1750 O   0  0  0  0  0  0  0  0  0  0  0  0
  -24.7070  -31.8350   23.1990 C   0  0  0  0  0  0  0  0  0  0  0  0
  -27.3330  -27.1060   20.2080 C   0  0  0  0  0  0  0  0  0  0  0  0
  -23.5160  -30.4340   21.5550 C   0  0  0  0  0  3  0  0  0  0  0  0
  -24.9770  -28.8440   20.1510 C   0  0  0  0  0  0  0  0  0  0  0  0
  -26.0700  -30.7040   21.4010 C   0  0  0  0  0  2  0  0  0  0  0  0
  -26.1540  -29.3040   20.7590 C   0  0  0  0  0  0  0  0  0  0  0  0
  -27.3270  -28.4550   20.7650 C   0  0  0  0  0  3  0  0  0  0  0  0
  -26.1250  -26.7470   19.5690 C   0  0  0  0  0  3  0  0  0  0  0  0
  -24.9750  -27.5760   19.5450 C   0  0  0  0  0  3  0  0  0  0  0  0
  -23.7460  -29.7430   20.1810 C   0  0  0  0  0  2  0  0  0  0  0  0
  -24.7850  -31.0150   22.1070 N   0  0  0  0  0  0  0  0  0  0  0  0
  -23.6170  -32.1180   23.7230 O   0  0  0  0  0  0  0  0  0  0  0  0
  -22.8330  -29.4300   22.5170 C   0  0  0  0  0  0  0  0  0  0  0  0
  -21.5030  -29.2680   22.3950 N   0  0  0  0  0  0  0  0  0  0  0  0
  -23.5020  -28.7980   23.3400 O   0  0  0  0  0  0  0  0  0  0  0  0
  -21.0180  -29.8340   21.7140 H   0  0  0  0  0  0  0  0  0  0  0  0
  -18.1190  -28.0750   22.9000 C   0  0  0  0  0  0  0  0  0  0  0  0
  -20.6800  -28.3320   23.1640 C   0  0  0  0  0  3  0  0  0  0  0  0
  -20.7740  -26.8990   22.5910 C   0  0  0  0  0  2  0  0  0  0  0  0
  -19.6720  -26.5790   21.5760 C   0  0  0  0  0  2  0  0  0  0  0  0
  -18.2920  -26.7250   22.2220 C   0  0  0  0  0  2  0  0  0  0  0  0
  -19.2400  -28.8350   23.3270 C   0  0  0  0  0  0  0  0  0  0  0  0
  -19.0250  -30.0960   23.9240 C   0  0  0  0  0  3  0  0  0  0  0  0
  -17.7210  -30.5980   24.0970 C   0  0  0  0  0  3  0  0  0  0  0  0
  -16.6150  -29.8360   23.6830 C   0  0  0  0  0  3  0  0  0  0  0  0
  -16.8160  -28.5760   23.0930 C   0  0  0  0  0  3  0  0  0  0  0  0
  -25.9810  -32.4730   23.8350 C   0  0  0  0  0  3  0  0  0  0  0  0
  -26.4910  -31.7060   25.1190 C   0  0  1  0  0  0  0  0  0  0  0  0
  -25.3940  -31.4680   26.1810 C   0  0  0  0  0  1  0  0  0  0  0  0
  -27.0820  -30.3270   24.7440 C   0  0  0  0  0  1  0  0  0  0  0  0
  -27.6290  -32.5100   25.7910 C   0  0  0  0  0  1  0  0  0  0  0  0
  -25.6600  -33.8700   24.1650 N   0  0  0  0  0  0  0  0  0  0  0  0
  -25.9950  -34.9320   23.4180 C   0  0  0  0  0  0  0  0  0  0  0  0
  -26.6740  -34.8380   22.3910 O   0  0  0  0  0  0  0  0  0  0  0  0
  -25.0520  -34.0160   24.9590 H   0  0  0  0  0  0  0  0  0  0  0  0
  -24.2640  -36.7290   23.0720 C   0  0  0  0  0  1  0  0  0  0  0  0
  -25.5020  -36.3160   23.8840 C   0  0  0  0  0  3  0  0  0  0  0  0
  -27.6320  -37.2030   24.7300 C   0  0  0  0  0  1  0  0  0  0  0  0
  -26.5320  -37.3730   23.7840 N   0  0  0  0  0  0  0  0  0  0  0  0
  -26.1210  -38.2900   23.9380 H   0  0  0  0  0  0  0  0  0  0  0  0
  -29.1420  -20.8260   19.6140 C   0  0  0  0  0  2  0  0  0  0  0  0
  -29.9880  -19.5200   20.3110 C   0  0  1  0  0  0  0  0  0  0  0  0
  -31.2620  -19.6580   19.9450 F   0  0  0  0  0  0  0  0  0  0  0  0
  -29.9570  -19.8470   21.6060 F   0  0  0  0  0  0  0  0  0  0  0  0
  -28.2430  -17.5700   20.7500 C   0  0  0  0  0  1  0  0  0  0  0  0
  -29.7220  -17.8130   20.3500 C   0  0  0  0  0  3  0  0  0  0  0  0
  -31.1030  -17.1330   18.2260 C   0  0  0  0  0  1  0  0  0  0  0  0
  -30.2290  -16.5300   19.3520 C   0  0  0  0  0  3  0  0  0  0  0  0
  -30.9270  -15.0430   19.7600 C   0  0  0  0  0  0  0  0  0  0  0  0
  -30.7320  -12.6320   19.0020 C   0  0  0  0  0  2  0  0  0  0  0  0
  -29.7800  -12.5410   17.7870 C   0  0  0  0  0  2  0  0  0  0  0  0
  -28.3170  -12.3830   18.2480 C   0  0  0  0  0  2  0  0  0  0  0  0
  -27.9440  -13.3600   19.3960 C   0  0  0  0  0  3  0  0  0  0  0  0
  -29.0350  -13.4550   20.4860 C   0  0  0  0  0  2  0  0  0  0  0  0
  -30.2960  -13.7980   19.8240 N   0  0  0  0  0  0  0  0  0  0  0  0
  -32.1590  -14.9840   19.6380 O   0  0  0  0  0  0  0  0  0  0  0  0
  -25.6150  -13.9990   20.2250 C   0  0  0  0  0  0  0  0  0  0  0  0
  -24.5420  -13.2610   20.6440 C   0  0  0  0  0  0  0  0  0  0  0  0
  -24.9680  -11.8960   20.6090 C   0  0  0  0  0  0  0  0  0  0  0  0
  -26.6240  -13.0900   19.9530 N   0  0  0  0  0  0  0  0  0  0  0  0
  -26.2440  -11.8190   20.2490 N   0  0  0  0  0  0  0  0  0  0  0  0
  -24.2090  -10.6570   20.8310 C   0  0  0  0  0  0  0  0  0  0  0  0
  -24.6150   -9.6990   21.7860 C   0  0  0  0  0  3  0  0  0  0  0  0
  -23.8590   -8.5230   21.9880 C   0  0  0  0  0  3  0  0  0  0  0  0
  -22.6820   -8.2970   21.2380 C   0  0  0  0  0  0  0  0  0  0  0  0
  -22.2970   -9.2420   20.2720 C   0  0  0  0  0  3  0  0  0  0  0  0
  -23.0510  -10.4080   20.0670 C   0  0  0  0  0  3  0  0  0  0  0  0
  -21.8940   -7.1770   21.3570 O   0  0  0  0  0  0  0  0  0  0  0  0
  -21.7880   -6.4920   22.5420 C   0  0  0  0  0  0  0  0  0  0  0  0
  -21.3210   -7.1120   23.7210 C   0  0  0  0  0  3  0  0  0  0  0  0
  -21.1640   -6.3540   24.9010 C   0  0  0  0  0  3  0  0  0  0  0  0
  -21.4640   -4.9770   24.8980 C   0  0  0  0  0  0  0  0  0  0  0  0
  -21.9210   -4.3590   23.7220 C   0  0  0  0  0  3  0  0  0  0  0  0
  -22.0790   -5.1140   22.5480 C   0  0  0  0  0  0  0  0  0  0  0  0
  -22.5020   -4.5060   21.4100 F   0  0  0  0  0  0  0  0  0  0  0  0
  -21.3040   -4.2490   26.0280 F   0  0  0  0  0  0  0  0  0  0  0  0
  -23.1700  -13.7790   20.9570 C   0  0  0  0  0  0  0  0  0  0  0  0
  -22.4580  -13.1170   21.8630 N   0  0  0  0  0  0  0  0  0  0  0  0
  -22.7350  -14.8040   20.4300 O   0  0  0  0  0  0  0  0  0  0  0  0
  -22.8270  -12.2960   22.3160 H   0  0  0  0  0  0  0  0  0  0  0  0
  -21.5370  -13.4410   22.1140 H   0  0  0  0  0  0  0  0  0  0  0  0
  -25.8180  -15.3590   20.0170 N   0  0  0  0  0  0  0  0  0  0  0  0
  -25.0800  -16.0530   20.0790 H   0  0  0  0  0  0  0  0  0  0  0  0
  -26.6510  -15.7170   19.5710 H   0  0  0  0  0  0  0  0  0  0  0  0
  1  5  1  0
  1  3  1  0
  2  4  1  0
  3  4  2  0
  5  2  1  0
  6  8  1  0
  6  3  1  0
  7 18  2  0
  8 13  1  0
  9 17  1  0
  9 19  1  0
 10 16  1  0
 10 12  1  0
 11 17  1  0
 12 13  2  0
 12 11  1  0
 14  8  2  0
 15 14  1  0
 15 10  2  0
 16  9  1  0
 17  7  1  0
 19 21  2  0
 20 19  1  0
 22 20  1  0
 23 32  2  0
 23 28  1  0
 24 20  1  0
 24 28  1  0
 25 24  1  0
 26 27  1  0
 26 25  1  0
 27 23  1  0
 28 29  2  0
 29 30  1  0
 31 30  2  0
 32 31  1  0
 33  7  1  0
 33 38  1  0
 33 34  1  0
 34 37  1  1
 34 35  1  0
 36 34  1  0
 38 41  1  0
 39 43  1  0
 39 38  1  0
 40 39  2  0
 43 42  1  0
 45 43  1  0
 45 46  1  0
 45 44  1  0
 47  5  1  0
 47 48  1  0
 48 52  1  0
 48 50  1  1
 49 48  1  0
 52 51  1  0
 54 53  1  0
 54 55  1  0
 54 52  1  0
 55 61  1  0
 56 61  1  0
 57 58  1  0
 57 56  1  0
 59 58  1  0
 59 66  1  0
 59 60  1  0
 61 60  1  0
 62 55  2  0
 63 64  2  0
 64 83  1  0
 65 64  1  0
 65 68  1  0
 66 63  1  0
 66 67  1  0
 67 65  2  0
 68 69  1  0
 69 70  2  0
 71 74  1  0
 71 70  1  0
 72 71  2  0
 73 72  1  0
 73 68  2  0
 74 75  1  0
 75 80  2  0
 75 76  1  0
 76 77  2  0
 78 77  1  0
 78 82  1  0
 79 78  2  0
 80 79  1  0
 81 80  1  0
 83 84  1  0
 84 87  1  0
 84 86  1  0
 85 83  2  0
 88 89  1  0
 88 63  1  0
 90 88  1  0
M  ISO  4   3 101   6 101  54 100  55 100
M  END
>  <TORSDO>  (67) 
F 20

>  <SCORE>  (67) 
-14.933

>  <name>  (67) 
66

>  <ligand_id>  (67) 
66

>  <original_smiles>  (67) 
[H]c1c([H])c([H])c2c(c1[H])C([H])([H])C([H])([H])C([H])([H])C2([H])N([H])C(=O)C1([H])N(C(=O)C([H])(N([H])C(=O)C([H])(N([H])C([H])([H])[H])C([H])([H])[H])C(C([H])([H])[H])(C([H])([H])[H])C([H])([H])[H])C([H])([H])c2c([H])c(Oc3nc([H])n(C([H])([H])C(F)(F)C([H])(C([H])([H])[H])C([H])(C(=O)N4C([H])([H])C([H])([H])C([H])([H])C([H])(n5nc(-c6c([H])c([H])c(Oc7c([H])c([H])c(F)c([H])c7F)c([H])c6[H])c(C(=O)N([H])[H])c5N([H])[H])C4([H])[H])C([H])([H])[H])c3[H])c([H])c([H])c2C1([H])[H]

>  <smiles>  (67) 
[H]c1c([H])c([H])c2c(c1[H])C([H])([H])C([H])([H])C([H])([H])C2([H])N([H])C(=O)C1([H])N(C(=O)C([H])(N([H])C(=O)C([H])(N([H])C([H])([H])[H])C([H])([H])[H])C(C([H])([H])[H])(C([H])([H])[H])C([H])([H])[H])C([H])([H])c2c([H])c(Oc3nc([H])n(C([H])([H])C(F)(F)C([H])(C([H])([H])[H])C([H])(C(=O)N4C([H])([H])C([H])([H])C([H])([H])C([H])(n5nc(-c6c([H])c([H])c(Oc7c([H])c([H])c(F)c([H])c7F)c([H])c6[H])c(C(=O)N([H])[H])c5N([H])[H])C4([H])[H])C([H])([H])[H])c3[H])c([H])c([H])c2C1([H])[H]

$$$$
67:0:0
     RDKit          3D

 91 99  0  0  1  0  0  0  0  0999 V2000
  -31.1880  -21.5190   21.1430 C   0  0  0  0  0  0  0  0  0  0  0  0
  -29.2660  -22.4080   20.4020 C   0  0  0  0  0  0  0  0  0  0  0  0
  -29.5890  -20.0950   20.4950 C   0  0  0  0  0  0  0  0  0  0  0  0
  -32.5910  -21.7310   21.6710 C   0  0  0  0  0  1  0  0  0  0  0  0
  -30.4820  -22.6160   20.8940 N   0  0  0  0  0  4  0  0  0  0  0  0
  -30.8260  -20.2570   20.9440 N   0  0  0  0  0  0  0  0  0  0  0  0
  -28.7630  -21.1490   20.1890 N   0  0  0  0  0  2  0  0  0  0  0  0
  -29.1100  -18.3690   18.6590 C   0  0  0  0  0  1  0  0  0  0  0  0
  -29.1930  -18.5690   20.1800 C   0  0  0  0  0  3  0  0  0  0  0  0
  -30.0970  -17.3580   20.8010 C   0  0  0  0  0  2  0  0  0  0  0  0
  -30.4960  -14.7610   20.3760 C   0  0  0  0  0  0  0  0  0  0  0  0
  -30.3000  -12.4970   19.3320 C   0  0  0  0  0  2  0  0  0  0  0  0
  -29.3460  -12.5780   18.1200 C   0  0  0  0  0  2  0  0  0  0  0  0
  -27.8810  -12.3970   18.5650 C   0  0  0  0  0  2  0  0  0  0  0  0
  -27.5190  -13.2730   19.7940 C   0  0  0  0  0  3  0  0  0  0  0  0
  -28.5900  -13.1710   20.9020 C   0  0  0  0  0  2  0  0  0  0  0  0
  -29.8760  -13.5360   20.2960 N   0  0  0  0  0  0  0  0  0  0  0  0
  -31.6830  -14.8740   20.0560 O   0  0  0  0  0  0  0  0  0  0  0  0
  -29.7120  -15.8770   20.6270 N   0  0  0  0  0  0  0  0  0  0  0  0
  -28.7410  -15.6660   20.8030 H   0  0  0  0  0  0  0  0  0  0  0  0
  -25.1390  -13.8580   20.5480 C   0  0  0  0  0  0  0  0  0  0  0  0
  -24.0780  -13.0800   20.9250 C   0  0  0  0  0  0  0  0  0  0  0  0
  -24.5440  -11.7300   20.8840 C   0  0  0  0  0  0  0  0  0  0  0  0
  -26.1820  -12.9810   20.2960 N   0  0  0  0  0  0  0  0  0  0  0  0
  -25.8320  -11.6960   20.5630 N   0  0  0  0  0  0  0  0  0  0  0  0
  -23.8220  -10.4650   21.0740 C   0  0  0  0  0  0  0  0  0  0  0  0
  -24.2720   -9.4870   21.9890 C   0  0  0  0  0  3  0  0  0  0  0  0
  -23.5490   -8.2890   22.1670 C   0  0  0  0  0  3  0  0  0  0  0  0
  -22.3630   -8.0590   21.4320 C   0  0  0  0  0  0  0  0  0  0  0  0
  -21.9330   -9.0250   20.5050 C   0  0  0  0  0  3  0  0  0  0  0  0
  -22.6550  -10.2150   20.3240 C   0  0  0  0  0  3  0  0  0  0  0  0
  -21.6090   -6.9130   21.5200 O   0  0  0  0  0  0  0  0  0  0  0  0
  -21.5930   -6.1490   22.6600 C   0  0  0  0  0  0  0  0  0  0  0  0
  -21.2100   -6.6840   23.9090 C   0  0  0  0  0  3  0  0  0  0  0  0
  -21.1400   -5.8470   25.0420 C   0  0  0  0  0  3  0  0  0  0  0  0
  -21.4430   -4.4780   24.9260 C   0  0  0  0  0  0  0  0  0  0  0  0
  -21.8190   -3.9420   23.6810 C   0  0  0  0  0  3  0  0  0  0  0  0
  -21.8920   -4.7760   22.5510 C   0  0  0  0  0  0  0  0  0  0  0  0
  -22.2340   -4.2500   21.3500 F   0  0  0  0  0  0  0  0  0  0  0  0
  -21.3690   -3.6720   26.0110 F   0  0  0  0  0  0  0  0  0  0  0  0
  -22.6830  -13.5520   21.2110 C   0  0  0  0  0  0  0  0  0  0  0  0
  -21.9630  -12.8510   22.0800 N   0  0  0  0  0  0  0  0  0  0  0  0
  -22.2390  -14.5790   20.6980 O   0  0  0  0  0  0  0  0  0  0  0  0
  -22.3340  -12.0210   22.5170 H   0  0  0  0  0  0  0  0  0  0  0  0
  -21.0270  -13.1510   22.3140 H   0  0  0  0  0  0  0  0  0  0  0  0
  -25.2970  -15.2300   20.3730 N   0  0  0  0  0  0  0  0  0  0  0  0
  -24.5220  -15.8750   20.4890 H   0  0  0  0  0  0  0  0  0  0  0  0
  -26.1230  -15.6720   19.9920 H   0  0  0  0  0  0  0  0  0  0  0  0
  -28.5810  -23.7360   19.8240 C   0  0  0  0  0  2  0  0  0  0  0  0
  -28.2930  -25.0450   20.7400 C   0  0  0  0  0  2  0  0  0  0  0  0
  -28.3590  -26.4540   20.2110 O   0  0  0  0  0  0  0  0  0  0  0  0
  -24.6180  -31.8990   23.2440 C   0  0  0  0  0  0  0  0  0  0  0  0
  -27.2320  -27.2970   20.2290 C   0  0  0  0  0  0  0  0  0  0  0  0
  -23.4140  -30.4860   21.6160 C   0  0  0  0  0  3  0  0  0  0  0  0
  -24.8650  -28.9180   20.2030 C   0  0  0  0  0  0  0  0  0  0  0  0
  -25.9540  -30.8040   21.4230 C   0  0  0  0  0  2  0  0  0  0  0  0
  -26.0360  -29.4160   20.7890 C   0  0  0  0  0  0  0  0  0  0  0  0
  -27.2240  -28.6200   20.7810 C   0  0  0  0  0  3  0  0  0  0  0  0
  -26.0370  -26.8490   19.6300 C   0  0  0  0  0  3  0  0  0  0  0  0
  -24.8700  -27.6420   19.6120 C   0  0  0  0  0  3  0  0  0  0  0  0
  -23.6270  -29.7950   20.2420 C   0  0  0  0  0  2  0  0  0  0  0  0
  -24.6810  -31.0830   22.1510 N   0  0  0  0  0  0  0  0  0  0  0  0
  -23.5350  -32.1790   23.7790 O   0  0  0  0  0  0  0  0  0  0  0  0
  -22.7530  -29.4800   22.5880 C   0  0  0  0  0  0  0  0  0  0  0  0
  -21.4270  -29.2990   22.4640 N   0  0  0  0  0  0  0  0  0  0  0  0
  -23.4340  -28.8610   23.4110 O   0  0  0  0  0  0  0  0  0  0  0  0
  -20.9370  -29.8500   21.7720 H   0  0  0  0  0  0  0  0  0  0  0  0
  -18.0540  -28.0920   22.9720 C   0  0  0  0  0  0  0  0  0  0  0  0
  -20.6110  -28.3640   23.2420 C   0  0  0  0  0  3  0  0  0  0  0  0
  -20.7190  -26.9280   22.6780 C   0  0  0  0  0  2  0  0  0  0  0  0
  -19.6200  -26.5920   21.6660 C   0  0  0  0  0  2  0  0  0  0  0  0
  -18.2370  -26.7370   22.3080 C   0  0  0  0  0  2  0  0  0  0  0  0
  -19.1690  -28.8620   23.3970 C   0  0  0  0  0  0  0  0  0  0  0  0
  -18.9440  -30.1290   23.9770 C   0  0  0  0  0  3  0  0  0  0  0  0
  -17.6360  -30.6250   24.1390 C   0  0  0  0  0  3  0  0  0  0  0  0
  -16.5360  -29.8510   23.7300 C   0  0  0  0  0  3  0  0  0  0  0  0
  -16.7460  -28.5860   23.1530 C   0  0  0  0  0  3  0  0  0  0  0  0
  -25.8990  -32.5400   23.8610 C   0  0  0  0  0  3  0  0  0  0  0  0
  -26.4190  -31.7780   25.1430 C   0  0  1  0  0  0  0  0  0  0  0  0
  -25.3290  -31.5470   26.2150 C   0  0  0  0  0  1  0  0  0  0  0  0
  -27.0040  -30.3990   24.7600 C   0  0  0  0  0  1  0  0  0  0  0  0
  -27.5690  -32.5790   25.7980 C   0  0  0  0  0  1  0  0  0  0  0  0
  -25.5850  -33.9390   24.1860 N   0  0  0  0  0  0  0  0  0  0  0  0
  -25.9150  -34.9910   23.4240 C   0  0  0  0  0  0  0  0  0  0  0  0
  -26.5820  -34.8860   22.3910 O   0  0  0  0  0  0  0  0  0  0  0  0
  -24.9920  -34.0950   24.9870 H   0  0  0  0  0  0  0  0  0  0  0  0
  -24.1810  -36.7810   23.0700 C   0  0  0  0  0  1  0  0  0  0  0  0
  -25.4260  -36.3800   23.8780 C   0  0  0  0  0  3  0  0  0  0  0  0
  -27.5620  -37.2720   24.6990 C   0  0  0  0  0  1  0  0  0  0  0  0
  -26.4550  -37.4360   23.7580 N   0  0  0  0  0  0  0  0  0  0  0  0
  -26.0490  -38.3550   23.9040 H   0  0  0  0  0  0  0  0  0  0  0  0
  1  4  1  0
  2  5  2  0
  3  6  2  0
  5  1  2  0
  6  1  1  0
  7  2  1  0
  7  3  1  0
  9  8  1  0
  9  3  1  0
  9 10  1  0
 11 19  1  0
 12 17  1  0
 13 14  1  0
 13 12  1  0
 15 14  1  0
 15 24  1  0
 15 16  1  0
 17 11  1  0
 17 16  1  0
 18 11  2  0
 19 10  1  0
 19 20  1  0
 21 22  2  0
 22 41  1  0
 23 22  1  0
 23 26  1  0
 24 21  1  0
 24 25  1  0
 25 23  2  0
 26 27  1  0
 27 28  2  0
 29 32  1  0
 29 28  1  0
 30 29  2  0
 31 30  1  0
 31 26  2  0
 32 33  1  0
 33 34  1  0
 34 35  2  0
 36 35  1  0
 36 40  1  0
 37 36  2  0
 38 33  2  0
 38 37  1  0
 39 38  1  0
 41 42  1  0
 42 45  1  0
 42 44  1  0
 43 41  2  0
 46 47  1  0
 46 21  1  0
 48 46  1  0
 49  2  1  0
 49 50  1  0
 51 53  1  0
 51 50  1  0
 52 63  2  0
 53 58  1  0
 54 62  1  0
 54 64  1  0
 55 61  1  0
 55 57  1  0
 56 62  1  0
 57 56  1  0
 58 57  2  0
 59 53  2  0
 60 59  1  0
 60 55  2  0
 61 54  1  0
 62 52  1  0
 64 66  2  0
 65 64  1  0
 67 65  1  0
 68 77  2  0
 68 73  1  0
 69 65  1  0
 69 73  1  0
 70 69  1  0
 71 72  1  0
 71 70  1  0
 72 68  1  0
 73 74  2  0
 74 75  1  0
 76 75  2  0
 77 76  1  0
 78 52  1  0
 78 83  1  0
 78 79  1  0
 79 82  1  1
 79 80  1  0
 81 79  1  0
 83 86  1  0
 84 88  1  0
 84 83  1  0
 85 84  2  0
 88 87  1  0
 90 88  1  0
 90 91  1  0
 90 89  1  0
M  ISO  4  11 100  19 100  50 101  51 101
M  END
>  <TORSDO>  (68) 
F 20

>  <SCORE>  (68) 
-13.746

>  <name>  (68) 
67

>  <ligand_id>  (68) 
67

>  <original_smiles>  (68) 
[H]c1c([H])c([H])c2c(c1[H])C([H])([H])C([H])([H])C([H])([H])C2([H])N([H])C(=O)C1([H])N(C(=O)C([H])(N([H])C(=O)C([H])(N([H])C([H])([H])[H])C([H])([H])[H])C(C([H])([H])[H])(C([H])([H])[H])C([H])([H])[H])C([H])([H])c2c([H])c(OC([H])([H])C([H])([H])c3nc(C([H])([H])[H])nc(C([H])(C([H])([H])[H])C([H])([H])N([H])C(=O)N4C([H])([H])C([H])([H])C([H])([H])C([H])(n5nc(-c6c([H])c([H])c(Oc7c([H])c([H])c(F)c([H])c7F)c([H])c6[H])c(C(=O)N([H])[H])c5N([H])[H])C4([H])[H])n3)c([H])c([H])c2C1([H])[H]

>  <smiles>  (68) 
[H]c1c([H])c([H])c2c(c1[H])C([H])([H])C([H])([H])C([H])([H])C2([H])N([H])C(=O)C1([H])N(C(=O)C([H])(N([H])C(=O)C([H])(N([H])C([H])([H])[H])C([H])([H])[H])C(C([H])([H])[H])(C([H])([H])[H])C([H])([H])[H])C([H])([H])c2c([H])c(OC([H])([H])C([H])([H])c3nc(C([H])([H])[H])nc(C([H])(C([H])([H])[H])C([H])([H])N([H])C(=O)N4C([H])([H])C([H])([H])C([H])([H])C([H])(n5nc(-c6c([H])c([H])c(Oc7c([H])c([H])c(F)c([H])c7F)c([H])c6[H])c(C(=O)N([H])[H])c5N([H])[H])C4([H])[H])n3)c([H])c([H])c2C1([H])[H]

$$$$
68:0:0
     RDKit          3D

 87 95  0  0  1  0  0  0  0  0999 V2000
  -29.8010  -24.4360   19.0290 C   0  0  0  0  0  1  0  0  0  0  0  0
  -27.4680  -23.9590   18.4290 C   0  0  0  0  0  1  0  0  0  0  0  0
  -28.4070  -24.1800   19.6270 C   0  0  2  0  0  0  0  0  0  0  0  0
  -28.1960  -25.7560   20.2070 O   0  0  0  0  0  0  0  0  0  0  0  0
  -24.6380  -31.8130   23.1020 C   0  0  0  0  0  0  0  0  0  0  0  0
  -27.1810  -26.8720   20.0840 C   0  0  0  0  0  0  0  0  0  0  0  0
  -23.4440  -30.4110   21.4730 C   0  0  0  0  0  3  0  0  0  0  0  0
  -24.8870  -28.7980   20.0510 C   0  0  0  0  0  0  0  0  0  0  0  0
  -26.0150  -30.6020   21.3310 C   0  0  0  0  0  2  0  0  0  0  0  0
  -26.0800  -29.1870   20.6720 C   0  0  0  0  0  0  0  0  0  0  0  0
  -27.2140  -28.2450   20.6650 C   0  0  0  0  0  3  0  0  0  0  0  0
  -25.9480  -26.6570   19.4230 C   0  0  0  0  0  3  0  0  0  0  0  0
  -24.8500  -27.5550   19.4090 C   0  0  0  0  0  3  0  0  0  0  0  0
  -23.6730  -29.7250   20.0990 C   0  0  0  0  0  2  0  0  0  0  0  0
  -24.7220  -30.9700   22.0200 N   0  0  0  0  0  0  0  0  0  0  0  0
  -23.5470  -32.1080   23.6190 O   0  0  0  0  0  0  0  0  0  0  0  0
  -22.7470  -29.4210   22.4440 C   0  0  0  0  0  0  0  0  0  0  0  0
  -21.4120  -29.2760   22.3390 N   0  0  0  0  0  0  0  0  0  0  0  0
  -23.4150  -28.7820   23.2610 O   0  0  0  0  0  0  0  0  0  0  0  0
  -20.9260  -29.8400   21.6560 H   0  0  0  0  0  0  0  0  0  0  0  0
  -18.0200  -28.1170   22.9070 C   0  0  0  0  0  0  0  0  0  0  0  0
  -20.5890  -28.3460   23.1190 C   0  0  0  0  0  3  0  0  0  0  0  0
  -20.6580  -26.9170   22.5320 C   0  0  0  0  0  2  0  0  0  0  0  0
  -19.5300  -26.6160   21.5390 C   0  0  0  0  0  2  0  0  0  0  0  0
  -18.1640  -26.7730   22.2130 C   0  0  0  0  0  2  0  0  0  0  0  0
  -19.1570  -28.8620   23.3180 C   0  0  0  0  0  0  0  0  0  0  0  0
  -18.9650  -30.1170   23.9330 C   0  0  0  0  0  3  0  0  0  0  0  0
  -17.6690  -30.6300   24.1360 C   0  0  0  0  0  3  0  0  0  0  0  0
  -16.5470  -29.8830   23.7370 C   0  0  0  0  0  3  0  0  0  0  0  0
  -16.7240  -28.6270   23.1290 C   0  0  0  0  0  3  0  0  0  0  0  0
  -25.9060  -32.4630   23.7320 C   0  0  0  0  0  3  0  0  0  0  0  0
  -26.4210  -31.6960   25.0130 C   0  0  1  0  0  0  0  0  0  0  0  0
  -25.3270  -31.4590   26.0800 C   0  0  0  0  0  1  0  0  0  0  0  0
  -27.0090  -30.3180   24.6350 C   0  0  0  0  0  1  0  0  0  0  0  0
  -27.5690  -32.4950   25.6750 C   0  0  0  0  0  1  0  0  0  0  0  0
  -25.5790  -33.8580   24.0770 N   0  0  0  0  0  0  0  0  0  0  0  0
  -25.8970  -34.9290   23.3360 C   0  0  0  0  0  0  0  0  0  0  0  0
  -26.5560  -34.8470   22.2980 O   0  0  0  0  0  0  0  0  0  0  0  0
  -24.9880  -33.9940   24.8840 H   0  0  0  0  0  0  0  0  0  0  0  0
  -24.1520  -36.7210   23.0380 C   0  0  0  0  0  1  0  0  0  0  0  0
  -25.4090  -36.3090   23.8220 C   0  0  0  0  0  3  0  0  0  0  0  0
  -27.5440  -37.2070   24.6370 C   0  0  0  0  0  1  0  0  0  0  0  0
  -26.4320  -37.3720   23.7050 N   0  0  0  0  0  0  0  0  0  0  0  0
  -26.0210  -38.2890   23.8600 H   0  0  0  0  0  0  0  0  0  0  0  0
  -28.6070  -22.4920   20.3240 C   0  0  0  0  0  3  0  0  0  0  0  0
  -29.1460  -20.8960   19.6050 C   0  0  0  0  0  3  0  0  0  0  0  0
  -28.3030  -18.4680   20.7190 C   0  0  0  0  0  2  0  0  0  0  0  0
  -29.6720  -16.8710   20.0650 C   0  0  0  0  0  0  0  0  0  0  0  0
  -28.5050  -17.1020   20.7750 N   0  0  0  0  0  0  0  0  0  0  0  0
  -30.1090  -18.1620   19.6270 N   0  0  0  0  0  2  0  0  0  0  0  0
  -29.1980  -19.2540   20.0700 N   0  0  0  0  0  0  0  0  0  0  0  0
  -30.3870  -15.3220   19.8920 C   0  0  0  0  0  0  0  0  0  0  0  0
  -30.3200  -12.8390   19.0890 C   0  0  0  0  0  2  0  0  0  0  0  0
  -29.3460  -12.6140   17.9020 C   0  0  0  0  0  2  0  0  0  0  0  0
  -27.9220  -12.3440   18.4140 C   0  0  0  0  0  2  0  0  0  0  0  0
  -27.5250  -13.3150   19.5530 C   0  0  0  0  0  3  0  0  0  0  0  0
  -28.6270  -13.4980   20.6160 C   0  0  0  0  0  2  0  0  0  0  0  0
  -29.8240  -14.0030   19.9230 N   0  0  0  0  0  0  0  0  0  0  0  0
  -31.5840  -15.2690   19.5550 O   0  0  0  0  0  0  0  0  0  0  0  0
  -25.2230  -13.8700   20.4880 C   0  0  0  0  0  0  0  0  0  0  0  0
  -24.1770  -13.0920   20.8970 C   0  0  0  0  0  0  0  0  0  0  0  0
  -24.6240  -11.7380   20.7950 C   0  0  0  0  0  0  0  0  0  0  0  0
  -26.2340  -12.9910   20.1440 N   0  0  0  0  0  0  0  0  0  0  0  0
  -25.8920  -11.7000   20.3990 N   0  0  0  0  0  0  0  0  0  0  0  0
  -23.8930  -10.4790   20.9960 C   0  0  0  0  0  0  0  0  0  0  0  0
  -24.3470   -9.4970   21.9050 C   0  0  0  0  0  3  0  0  0  0  0  0
  -23.6120   -8.3070   22.0970 C   0  0  0  0  0  3  0  0  0  0  0  0
  -22.4120   -8.0890   21.3800 C   0  0  0  0  0  0  0  0  0  0  0  0
  -21.9770   -9.0590   20.4610 C   0  0  0  0  0  3  0  0  0  0  0  0
  -22.7110  -10.2410   20.2670 C   0  0  0  0  0  3  0  0  0  0  0  0
  -21.6480   -6.9510   21.4820 O   0  0  0  0  0  0  0  0  0  0  0  0
  -21.6030   -6.2130   22.6390 C   0  0  0  0  0  0  0  0  0  0  0  0
  -21.1870   -6.7760   23.8650 C   0  0  0  0  0  3  0  0  0  0  0  0
  -21.0900   -5.9650   25.0140 C   0  0  0  0  0  3  0  0  0  0  0  0
  -21.3970   -4.5940   24.9380 C   0  0  0  0  0  0  0  0  0  0  0  0
  -21.8050   -4.0310   23.7160 C   0  0  0  0  0  3  0  0  0  0  0  0
  -21.9050   -4.8380   22.5700 C   0  0  0  0  0  0  0  0  0  0  0  0
  -22.2770   -4.2850   21.3890 F   0  0  0  0  0  0  0  0  0  0  0  0
  -21.2960   -3.8140   26.0380 F   0  0  0  0  0  0  0  0  0  0  0  0
  -22.8070  -13.5780   21.2690 C   0  0  0  0  0  0  0  0  0  0  0  0
  -22.1280  -12.8690   22.1630 N   0  0  0  0  0  0  0  0  0  0  0  0
  -22.3510  -14.6210   20.8040 O   0  0  0  0  0  0  0  0  0  0  0  0
  -22.5100  -12.0230   22.5600 H   0  0  0  0  0  0  0  0  0  0  0  0
  -21.2110  -13.1770   22.4550 H   0  0  0  0  0  0  0  0  0  0  0  0
  -25.3990  -15.2450   20.3550 N   0  0  0  0  0  0  0  0  0  0  0  0
  -24.6740  -15.9110   20.6010 H   0  0  0  0  0  0  0  0  0  0  0  0
  -26.2830  -15.6870   20.1320 H   0  0  0  0  0  0  0  0  0  0  0  0
  3  1  1  6
  2  3  1  0
  3  4  1  0
  3 45  1  0
  5 16  2  0
  6  4  1  0
  6 11  1  0
  7 15  1  0
  7 17  1  0
  8 14  1  0
  8 10  1  0
  9 15  1  0
 10  9  1  0
 11 10  2  0
 12  6  2  0
 13 12  1  0
 13  8  2  0
 14  7  1  0
 15  5  1  0
 17 19  2  0
 18 17  1  0
 20 18  1  0
 21 30  2  0
 21 26  1  0
 22 18  1  0
 22 26  1  0
 23 22  1  0
 24 25  1  0
 24 23  1  0
 25 21  1  0
 26 27  2  0
 27 28  1  0
 29 28  2  0
 30 29  1  0
 31  5  1  0
 31 36  1  0
 31 32  1  0
 32 35  1  1
 32 33  1  0
 34 32  1  0
 36 39  1  0
 37 41  1  0
 37 36  1  0
 38 37  2  0
 41 40  1  0
 43 41  1  0
 43 44  1  0
 43 42  1  0
 46 51  1  0
 46 45  2  0
 47 49  1  0
 48 49  2  0
 50 48  1  0
 50 51  1  0
 51 47  1  0
 52 58  1  0
 52 48  1  0
 53 58  1  0
 54 55  1  0
 54 53  1  0
 56 55  1  0
 56 63  1  0
 56 57  1  0
 58 57  1  0
 59 52  2  0
 60 61  2  0
 61 80  1  0
 62 61  1  0
 62 65  1  0
 63 64  1  0
 63 60  1  0
 64 62  2  0
 65 66  1  0
 66 67  2  0
 68 71  1  0
 68 67  1  0
 69 68  2  0
 70 69  1  0
 70 65  2  0
 71 72  1  0
 72 73  1  0
 73 74  2  0
 75 74  1  0
 75 79  1  0
 76 75  2  0
 77 72  2  0
 77 76  1  0
 78 77  1  0
 80 81  1  0
 81 84  1  0
 81 83  1  0
 82 80  2  0
 85 60  1  0
 85 86  1  0
 87 85  1  0
M  ISO  4   3 101   4 101  48 100  52 100
M  END
>  <TORSDO>  (69) 
F 19

>  <SCORE>  (69) 
-16.375

>  <name>  (69) 
68

>  <ligand_id>  (69) 
68

>  <original_smiles>  (69) 
[H]c1c([H])c([H])c2c(c1[H])C([H])([H])C([H])([H])C([H])([H])C2([H])N([H])C(=O)C1([H])N(C(=O)C([H])(N([H])C(=O)C([H])(N([H])C([H])([H])[H])C([H])([H])[H])C(C([H])([H])[H])(C([H])([H])[H])C([H])([H])[H])C([H])([H])c2c([H])c(OC(C([H])([H])[H])(C([H])([H])[H])C([H])([H])C([H])([H])n3nc(C(=O)N4C([H])([H])C([H])([H])C([H])([H])C([H])(n5nc(-c6c([H])c([H])c(Oc7c([H])c([H])c(F)c([H])c7F)c([H])c6[H])c(C(=O)N([H])[H])c5N([H])[H])C4([H])[H])nc3[H])c([H])c([H])c2C1([H])[H]

>  <smiles>  (69) 
[H]c1c([H])c([H])c2c(c1[H])C([H])([H])C([H])([H])C([H])([H])C2([H])N([H])C(=O)C1([H])N(C(=O)C([H])(N([H])C(=O)C([H])(N([H])C([H])([H])[H])C([H])([H])[H])C(C([H])([H])[H])(C([H])([H])[H])C([H])([H])[H])C([H])([H])c2c([H])c(OC(C([H])([H])[H])(C([H])([H])[H])C([H])([H])C([H])([H])n3nc(C(=O)N4C([H])([H])C([H])([H])C([H])([H])C([H])(n5nc(-c6c([H])c([H])c(Oc7c([H])c([H])c(F)c([H])c7F)c([H])c6[H])c(C(=O)N([H])[H])c5N([H])[H])C4([H])[H])nc3[H])c([H])c([H])c2C1([H])[H]

$$$$
69:0:0
     RDKit          3D

 94102  0  0  1  0  0  0  0  0999 V2000
  -31.5660  -18.9860   20.9640 C   0  0  0  0  0  3  0  0  0  0  0  0
  -31.9960  -20.2970   21.2910 C   0  0  0  0  0  0  0  0  0  0  0  0
  -30.3090  -19.0780   20.4190 C   0  0  0  0  0  0  0  0  0  0  0  0
  -31.0550  -21.1880   21.0000 N   0  0  0  0  0  0  0  0  0  0  0  0
  -29.9780  -20.5550   20.4580 N   0  0  0  0  0  0  0  0  0  0  0  0
  -33.3460  -20.7070   21.8900 C   0  0  1  0  0  0  0  0  0  0  0  0
  -34.0770  -19.6300   22.1880 F   0  0  0  0  0  0  0  0  0  0  0  0
  -34.0490  -21.4500   21.0310 F   0  0  0  0  0  0  0  0  0  0  0  0
  -33.1730  -21.4050   23.0120 F   0  0  0  0  0  0  0  0  0  0  0  0
  -27.6930  -21.3560   21.1710 C   0  0  0  0  0  1  0  0  0  0  0  0
  -28.2730  -21.2710   18.7540 C   0  0  0  0  0  1  0  0  0  0  0  0
  -28.8220  -21.6090   20.1470 C   0  0  2  0  0  0  0  0  0  0  0  0
  -29.1510  -23.2990   20.2080 C   0  0  0  0  0  3  0  0  0  0  0  0
  -28.0660  -24.6060   20.0610 C   0  0  0  0  0  3  0  0  0  0  0  0
  -28.3400  -26.1540   20.1150 O   0  0  0  0  0  0  0  0  0  0  0  0
  -24.6670  -31.8150   23.1550 C   0  0  0  0  0  0  0  0  0  0  0  0
  -27.2770  -27.1410   20.0650 C   0  0  0  0  0  0  0  0  0  0  0  0
  -23.4760  -30.4360   21.4920 C   0  0  0  0  0  3  0  0  0  0  0  0
  -24.9390  -28.8840   20.0470 C   0  0  0  0  0  0  0  0  0  0  0  0
  -26.0240  -30.7130   21.3350 C   0  0  0  0  0  2  0  0  0  0  0  0
  -26.1130  -29.3260   20.6680 C   0  0  0  0  0  0  0  0  0  0  0  0
  -27.2840  -28.4730   20.6560 C   0  0  0  0  0  3  0  0  0  0  0  0
  -26.0760  -26.8090   19.4010 C   0  0  0  0  0  3  0  0  0  0  0  0
  -24.9340  -27.6430   19.3950 C   0  0  0  0  0  3  0  0  0  0  0  0
  -23.7050  -29.7690   20.1080 C   0  0  0  0  0  2  0  0  0  0  0  0
  -24.7420  -31.0070   22.0510 N   0  0  0  0  0  0  0  0  0  0  0  0
  -23.5780  -32.0910   23.6790 O   0  0  0  0  0  0  0  0  0  0  0  0
  -22.7960  -29.4170   22.4400 C   0  0  0  0  0  0  0  0  0  0  0  0
  -21.4630  -29.2640   22.3210 N   0  0  0  0  0  0  0  0  0  0  0  0
  -23.4680  -28.7650   23.2430 O   0  0  0  0  0  0  0  0  0  0  0  0
  -20.9780  -29.8610   21.6660 H   0  0  0  0  0  0  0  0  0  0  0  0
  -18.0680  -28.1050   22.8580 C   0  0  0  0  0  0  0  0  0  0  0  0
  -20.6370  -28.3120   23.0670 C   0  0  0  0  0  3  0  0  0  0  0  0
  -20.6950  -26.9010   22.4400 C   0  0  0  0  0  2  0  0  0  0  0  0
  -19.5610  -26.6380   21.4380 C   0  0  0  0  0  2  0  0  0  0  0  0
  -18.1990  -26.7790   22.1250 C   0  0  0  0  0  2  0  0  0  0  0  0
  -19.2120  -28.8310   23.2840 C   0  0  0  0  0  0  0  0  0  0  0  0
  -19.0380  -30.0720   23.9290 C   0  0  0  0  0  3  0  0  0  0  0  0
  -17.7480  -30.5900   24.1540 C   0  0  0  0  0  3  0  0  0  0  0  0
  -16.6170  -29.8630   23.7430 C   0  0  0  0  0  3  0  0  0  0  0  0
  -16.7780  -28.6230   23.1010 C   0  0  0  0  0  3  0  0  0  0  0  0
  -25.9380  -32.4430   23.7990 C   0  0  0  0  0  3  0  0  0  0  0  0
  -25.6150  -33.8340   24.1630 N   0  0  0  0  0  0  0  0  0  0  0  0
  -25.9270  -34.9100   23.4250 C   0  0  0  0  0  0  0  0  0  0  0  0
  -26.5880  -34.8340   22.3860 O   0  0  0  0  0  0  0  0  0  0  0  0
  -25.0110  -33.9660   24.9620 H   0  0  0  0  0  0  0  0  0  0  0  0
  -24.1650  -36.6910   23.1610 C   0  0  0  0  0  1  0  0  0  0  0  0
  -25.4390  -36.2860   23.9200 C   0  0  0  0  0  3  0  0  0  0  0  0
  -27.5870  -37.1870   24.6940 C   0  0  0  0  0  1  0  0  0  0  0  0
  -26.4530  -37.3550   23.7890 N   0  0  0  0  0  0  0  0  0  0  0  0
  -26.0390  -38.2690   23.9630 H   0  0  0  0  0  0  0  0  0  0  0  0
  -26.4510  -31.6450   25.0620 C   0  0  1  0  0  0  0  0  0  0  0  0
  -25.3520  -31.3750   26.1210 C   0  0  0  0  0  1  0  0  0  0  0  0
  -27.0520  -30.2800   24.6530 C   0  0  0  0  0  1  0  0  0  0  0  0
  -27.5950  -32.4340   25.7400 C   0  0  0  0  0  1  0  0  0  0  0  0
  -29.6870  -17.6750   19.8620 C   0  0  0  0  0  2  0  0  0  0  0  0
  -30.6500  -15.0380   19.9840 C   0  0  0  0  0  0  0  0  0  0  0  0
  -30.4430  -12.7190   18.9490 C   0  0  0  0  0  2  0  0  0  0  0  0
  -29.4320  -12.7020   17.7750 C   0  0  0  0  0  2  0  0  0  0  0  0
  -27.9930  -12.4940   18.2830 C   0  0  0  0  0  2  0  0  0  0  0  0
  -27.6750  -13.3780   19.5150 C   0  0  0  0  0  3  0  0  0  0  0  0
  -28.7930  -13.3130   20.5750 C   0  0  0  0  0  2  0  0  0  0  0  0
  -30.0280  -13.7770   19.9220 N   0  0  0  0  0  0  0  0  0  0  0  0
  -31.7710  -15.1080   19.4660 O   0  0  0  0  0  0  0  0  0  0  0  0
  -29.8990  -16.3470   21.9260 C   0  0  0  0  0  1  0  0  0  0  0  0
  -29.9880  -16.2220   20.4660 N   0  0  0  0  0  0  0  0  0  0  0  0
  -25.3480  -13.9720   20.3900 C   0  0  0  0  0  0  0  0  0  0  0  0
  -24.2920  -13.2050   20.8060 C   0  0  0  0  0  0  0  0  0  0  0  0
  -24.7320  -11.8500   20.7210 C   0  0  0  0  0  0  0  0  0  0  0  0
  -26.3620  -13.0830   20.0770 N   0  0  0  0  0  0  0  0  0  0  0  0
  -26.0040  -11.7990   20.3380 N   0  0  0  0  0  0  0  0  0  0  0  0
  -23.9970  -10.5950   20.9300 C   0  0  0  0  0  0  0  0  0  0  0  0
  -24.4540   -9.6150   21.8370 C   0  0  0  0  0  3  0  0  0  0  0  0
  -23.7180   -8.4260   22.0390 C   0  0  0  0  0  3  0  0  0  0  0  0
  -22.5120   -8.2090   21.3310 C   0  0  0  0  0  0  0  0  0  0  0  0
  -22.0740   -9.1790   20.4110 C   0  0  0  0  0  3  0  0  0  0  0  0
  -22.8100  -10.3590   20.2100 C   0  0  0  0  0  3  0  0  0  0  0  0
  -21.7480   -7.0730   21.4420 O   0  0  0  0  0  0  0  0  0  0  0  0
  -21.7190   -6.3330   22.5970 C   0  0  0  0  0  0  0  0  0  0  0  0
  -21.3420   -6.8970   23.8360 C   0  0  0  0  0  3  0  0  0  0  0  0
  -21.2590   -6.0850   24.9830 C   0  0  0  0  0  3  0  0  0  0  0  0
  -21.5420   -4.7090   24.8940 C   0  0  0  0  0  0  0  0  0  0  0  0
  -21.9150   -4.1440   23.6610 C   0  0  0  0  0  3  0  0  0  0  0  0
  -21.9980   -4.9540   22.5140 C   0  0  0  0  0  0  0  0  0  0  0  0
  -22.3360   -4.4000   21.3250 F   0  0  0  0  0  0  0  0  0  0  0  0
  -21.4550   -3.9270   25.9950 F   0  0  0  0  0  0  0  0  0  0  0  0
  -22.9220  -13.6980   21.1670 C   0  0  0  0  0  0  0  0  0  0  0  0
  -22.2400  -12.9980   22.0670 N   0  0  0  0  0  0  0  0  0  0  0  0
  -22.4710  -14.7360   20.6880 O   0  0  0  0  0  0  0  0  0  0  0  0
  -22.6240  -12.1590   22.4750 H   0  0  0  0  0  0  0  0  0  0  0  0
  -21.3220  -13.3060   22.3500 H   0  0  0  0  0  0  0  0  0  0  0  0
  -25.5260  -15.3420   20.2300 N   0  0  0  0  0  0  0  0  0  0  0  0
  -24.7950  -16.0210   20.4100 H   0  0  0  0  0  0  0  0  0  0  0  0
  -26.3690  -15.7610   19.8600 H   0  0  0  0  0  0  0  0  0  0  0  0
  1  2  1  0
  2  6  1  0
  3  5  1  0
  3  1  2  0
  4  2  2  0
  5  4  1  0
  6  7  1  1
  6  9  1  0
  8  6  1  0
 12 11  1  6
 12 13  1  0
 12  5  1  0
 12 10  1  0
 14 15  1  0
 14 13  2  0
 16 27  2  0
 17 15  1  0
 17 22  1  0
 18 26  1  0
 18 28  1  0
 19 25  1  0
 19 21  1  0
 20 26  1  0
 21 20  1  0
 22 21  2  0
 23 17  2  0
 24 23  1  0
 24 19  2  0
 25 18  1  0
 26 16  1  0
 28 30  2  0
 29 28  1  0
 31 29  1  0
 32 41  2  0
 32 37  1  0
 33 29  1  0
 33 37  1  0
 34 33  1  0
 35 36  1  0
 35 34  1  0
 36 32  1  0
 37 38  2  0
 38 39  1  0
 40 39  2  0
 41 40  1  0
 42 16  1  0
 42 43  1  0
 42 52  1  0
 43 46  1  0
 44 48  1  0
 44 43  1  0
 45 44  2  0
 48 47  1  0
 50 48  1  0
 50 51  1  0
 50 49  1  0
 52 55  1  1
 52 53  1  0
 54 52  1  0
 56  3  1  0
 56 66  1  0
 57 66  1  0
 58 63  1  0
 59 60  1  0
 59 58  1  0
 61 60  1  0
 61 70  1  0
 61 62  1  0
 63 57  1  0
 63 62  1  0
 64 57  2  0
 66 65  1  0
 67 68  2  0
 68 87  1  0
 69 68  1  0
 69 72  1  0
 70 71  1  0
 70 67  1  0
 71 69  2  0
 72 73  1  0
 73 74  2  0
 75 78  1  0
 75 74  1  0
 76 75  2  0
 77 76  1  0
 77 72  2  0
 78 79  1  0
 79 80  1  0
 80 81  2  0
 82 81  1  0
 82 86  1  0
 83 82  2  0
 84 79  2  0
 84 83  1  0
 85 84  1  0
 87 88  1  0
 88 91  1  0
 88 90  1  0
 89 87  2  0
 92 67  1  0
 92 93  1  0
 94 92  1  0
M  ISO  4  14 101  15 101  57 100  66 100
M  END
>  <TORSDO>  (70) 
F 21

>  <SCORE>  (70) 
-14.219

>  <name>  (70) 
69

>  <ligand_id>  (70) 
69

>  <original_smiles>  (70) 
[H]c1c([H])c([H])c2c(c1[H])C([H])([H])C([H])([H])C([H])([H])C2([H])N([H])C(=O)C1([H])N(C(=O)C([H])(N([H])C(=O)C([H])(N([H])C([H])([H])[H])C([H])([H])[H])C(C([H])([H])[H])(C([H])([H])[H])C([H])([H])[H])C([H])([H])c2c([H])c(OC([H])([H])C([H])([H])C(n3nc(C(F)(F)F)c([H])c3C([H])([H])N(C(=O)N3C([H])([H])C([H])([H])C([H])([H])C([H])(n4nc(-c5c([H])c([H])c(Oc6c([H])c([H])c(F)c([H])c6F)c([H])c5[H])c(C(=O)N([H])[H])c4N([H])[H])C3([H])[H])C([H])([H])[H])(C([H])([H])[H])C([H])([H])[H])c([H])c([H])c2C1([H])[H]

>  <smiles>  (70) 
[H]c1c([H])c([H])c2c(c1[H])C([H])([H])C([H])([H])C([H])([H])C2([H])N([H])C(=O)C1([H])N(C(=O)C([H])(N([H])C(=O)C([H])(N([H])C([H])([H])[H])C([H])([H])[H])C(C([H])([H])[H])(C([H])([H])[H])C([H])([H])[H])C([H])([H])c2c([H])c(OC([H])([H])C([H])([H])C(n3nc(C(F)(F)F)c([H])c3C([H])([H])N(C(=O)N3C([H])([H])C([H])([H])C([H])([H])C([H])(n4nc(-c5c([H])c([H])c(Oc6c([H])c([H])c(F)c([H])c6F)c([H])c5[H])c(C(=O)N([H])[H])c4N([H])[H])C3([H])[H])C([H])([H])[H])(C([H])([H])[H])C([H])([H])[H])c([H])c([H])c2C1([H])[H]

$$$$
70:0:0
     RDKit          3D

 88 96  0  0  1  0  0  0  0  0999 V2000
  -28.5010  -22.2020   20.8770 C   0  0  0  0  0  2  0  0  0  0  0  0
  -29.3250  -19.1960   19.0630 C   0  0  0  0  0  3  0  0  0  0  0  0
  -29.6440  -18.7280   20.3740 C   0  0  0  0  0  0  0  0  0  0  0  0
  -28.9410  -20.4670   19.0560 N   0  0  0  0  0  0  0  0  0  0  0  0
  -29.4260  -19.7860   21.1710 N   0  0  0  0  0  0  0  0  0  0  0  0
  -29.0300  -20.8570   20.3570 N   0  0  0  0  0  0  0  0  0  0  0  0
  -30.3200  -17.3590   20.8350 C   0  0  0  0  0  2  0  0  0  0  0  0
  -30.5740  -14.8030   20.2530 C   0  0  0  0  0  0  0  0  0  0  0  0
  -30.3570  -12.5330   19.2170 C   0  0  0  0  0  2  0  0  0  0  0  0
  -29.3970  -12.5930   18.0090 C   0  0  0  0  0  2  0  0  0  0  0  0
  -27.9380  -12.4120   18.4680 C   0  0  0  0  0  2  0  0  0  0  0  0
  -27.5790  -13.3030   19.6870 C   0  0  0  0  0  3  0  0  0  0  0  0
  -28.6550  -13.2240   20.7900 C   0  0  0  0  0  2  0  0  0  0  0  0
  -29.9350  -13.5850   20.1700 N   0  0  0  0  0  0  0  0  0  0  0  0
  -31.7650  -14.8870   19.9400 O   0  0  0  0  0  0  0  0  0  0  0  0
  -29.8250  -15.9460   20.5090 N   0  0  0  0  0  0  0  0  0  0  0  0
  -28.8390  -15.7920   20.6500 H   0  0  0  0  0  0  0  0  0  0  0  0
  -25.2040  -13.8910   20.4530 C   0  0  0  0  0  0  0  0  0  0  0  0
  -24.1470  -13.1170   20.8440 C   0  0  0  0  0  0  0  0  0  0  0  0
  -24.6120  -11.7650   20.8090 C   0  0  0  0  0  0  0  0  0  0  0  0
  -26.2450  -13.0130   20.1990 N   0  0  0  0  0  0  0  0  0  0  0  0
  -25.8970  -11.7300   20.4780 N   0  0  0  0  0  0  0  0  0  0  0  0
  -23.8890  -10.5030   21.0110 C   0  0  0  0  0  0  0  0  0  0  0  0
  -24.3390   -9.5330   21.9350 C   0  0  0  0  0  3  0  0  0  0  0  0
  -23.6170   -8.3350   22.1240 C   0  0  0  0  0  3  0  0  0  0  0  0
  -22.4300   -8.0990   21.3910 C   0  0  0  0  0  0  0  0  0  0  0  0
  -21.9980   -9.0570   20.4570 C   0  0  0  0  0  3  0  0  0  0  0  0
  -22.7220  -10.2460   20.2660 C   0  0  0  0  0  3  0  0  0  0  0  0
  -21.6780   -6.9530   21.4910 O   0  0  0  0  0  0  0  0  0  0  0  0
  -21.6580   -6.2040   22.6400 C   0  0  0  0  0  0  0  0  0  0  0  0
  -21.2660   -6.7510   23.8800 C   0  0  0  0  0  3  0  0  0  0  0  0
  -21.1930   -5.9280   25.0220 C   0  0  0  0  0  3  0  0  0  0  0  0
  -21.5010   -4.5570   24.9230 C   0  0  0  0  0  0  0  0  0  0  0  0
  -21.8860   -4.0090   23.6880 C   0  0  0  0  0  3  0  0  0  0  0  0
  -21.9610   -4.8300   22.5490 C   0  0  0  0  0  0  0  0  0  0  0  0
  -22.3120   -4.2920   21.3550 F   0  0  0  0  0  0  0  0  0  0  0  0
  -21.4240   -3.7650   26.0170 F   0  0  0  0  0  0  0  0  0  0  0  0
  -22.7520  -13.5920   21.1310 C   0  0  0  0  0  0  0  0  0  0  0  0
  -22.0350  -12.8960   22.0060 N   0  0  0  0  0  0  0  0  0  0  0  0
  -22.3090  -14.6180   20.6160 O   0  0  0  0  0  0  0  0  0  0  0  0
  -22.4050  -12.0650   22.4430 H   0  0  0  0  0  0  0  0  0  0  0  0
  -21.1010  -13.1990   22.2390 H   0  0  0  0  0  0  0  0  0  0  0  0
  -25.3590  -15.2620   20.2660 N   0  0  0  0  0  0  0  0  0  0  0  0
  -24.5900  -15.9120   20.3900 H   0  0  0  0  0  0  0  0  0  0  0  0
  -26.1700  -15.6910   19.8390 H   0  0  0  0  0  0  0  0  0  0  0  0
  -28.7900  -23.6340   20.1530 C   0  0  0  0  0  3  0  0  0  0  0  0
  -28.0440  -24.9670   20.7260 C   0  0  0  0  0  3  0  0  0  0  0  0
  -28.2990  -26.3800   20.2560 O   0  0  0  0  0  0  0  0  0  0  0  0
  -24.6120  -31.8990   23.2520 C   0  0  0  0  0  0  0  0  0  0  0  0
  -27.2120  -27.2860   20.2240 C   0  0  0  0  0  0  0  0  0  0  0  0
  -23.4110  -30.4980   21.6130 C   0  0  0  0  0  3  0  0  0  0  0  0
  -24.8630  -28.9390   20.1930 C   0  0  0  0  0  0  0  0  0  0  0  0
  -25.9530  -30.8060   21.4310 C   0  0  0  0  0  2  0  0  0  0  0  0
  -26.0340  -29.4200   20.7910 C   0  0  0  0  0  0  0  0  0  0  0  0
  -27.2160  -28.6080   20.7910 C   0  0  0  0  0  3  0  0  0  0  0  0
  -26.0200  -26.8770   19.5890 C   0  0  0  0  0  3  0  0  0  0  0  0
  -24.8610  -27.6770   19.5780 C   0  0  0  0  0  3  0  0  0  0  0  0
  -23.6280  -29.8200   20.2350 C   0  0  0  0  0  2  0  0  0  0  0  0
  -24.6780  -31.0880   22.1550 N   0  0  0  0  0  0  0  0  0  0  0  0
  -23.5270  -32.1740   23.7880 O   0  0  0  0  0  0  0  0  0  0  0  0
  -22.7440  -29.4850   22.5760 C   0  0  0  0  0  0  0  0  0  0  0  0
  -21.4170  -29.3080   22.4510 N   0  0  0  0  0  0  0  0  0  0  0  0
  -23.4210  -28.8610   23.3970 O   0  0  0  0  0  0  0  0  0  0  0  0
  -20.9290  -29.8640   21.7630 H   0  0  0  0  0  0  0  0  0  0  0  0
  -18.0430  -28.0960   22.9440 C   0  0  0  0  0  0  0  0  0  0  0  0
  -20.5990  -28.3700   23.2230 C   0  0  0  0  0  3  0  0  0  0  0  0
  -20.7110  -26.9360   22.6560 C   0  0  0  0  0  2  0  0  0  0  0  0
  -19.6140  -26.6040   21.6390 C   0  0  0  0  0  2  0  0  0  0  0  0
  -18.2300  -26.7450   22.2770 C   0  0  0  0  0  2  0  0  0  0  0  0
  -19.1560  -28.8660   23.3760 C   0  0  0  0  0  0  0  0  0  0  0  0
  -18.9280  -30.1300   23.9620 C   0  0  0  0  0  3  0  0  0  0  0  0
  -17.6190  -30.6240   24.1240 C   0  0  0  0  0  3  0  0  0  0  0  0
  -16.5210  -29.8520   23.7080 C   0  0  0  0  0  3  0  0  0  0  0  0
  -16.7340  -28.5910   23.1220 C   0  0  0  0  0  3  0  0  0  0  0  0
  -25.8910  -32.5360   23.8770 C   0  0  0  0  0  3  0  0  0  0  0  0
  -26.4020  -31.7710   25.1580 C   0  0  1  0  0  0  0  0  0  0  0  0
  -25.3060  -31.5430   26.2270 C   0  0  0  0  0  1  0  0  0  0  0  0
  -26.9830  -30.3890   24.7790 C   0  0  0  0  0  1  0  0  0  0  0  0
  -27.5510  -32.5680   25.8180 C   0  0  0  0  0  1  0  0  0  0  0  0
  -25.5780  -33.9360   24.2010 N   0  0  0  0  0  0  0  0  0  0  0  0
  -25.9080  -34.9870   23.4400 C   0  0  0  0  0  0  0  0  0  0  0  0
  -26.5750  -34.8790   22.4070 O   0  0  0  0  0  0  0  0  0  0  0  0
  -24.9780  -34.0900   24.9990 H   0  0  0  0  0  0  0  0  0  0  0  0
  -24.1810  -36.7860   23.0860 C   0  0  0  0  0  1  0  0  0  0  0  0
  -25.4220  -36.3780   23.8940 C   0  0  0  0  0  3  0  0  0  0  0  0
  -27.5600  -37.2690   24.7140 C   0  0  0  0  0  1  0  0  0  0  0  0
  -26.4550  -37.4310   23.7730 N   0  0  0  0  0  0  0  0  0  0  0  0
  -26.0490  -38.3520   23.9150 H   0  0  0  0  0  0  0  0  0  0  0  0
  2  3  1  0
  3  7  1  0
  3  5  2  0
  4  2  2  0
  4  6  1  0
  6  1  1  0
  6  5  1  0
  8 16  1  0
  9 14  1  0
 10 11  1  0
 10  9  1  0
 12 11  1  0
 12 21  1  0
 12 13  1  0
 14  8  1  0
 14 13  1  0
 15  8  2  0
 16 17  1  0
 16  7  1  0
 18 19  2  0
 19 38  1  0
 20 19  1  0
 20 23  1  0
 21 18  1  0
 21 22  1  0
 22 20  2  0
 23 24  1  0
 24 25  2  0
 26 29  1  0
 26 25  1  0
 27 26  2  0
 28 27  1  0
 28 23  2  0
 29 30  1  0
 30 31  1  0
 31 32  2  0
 33 32  1  0
 33 37  1  0
 34 33  2  0
 35 30  2  0
 35 34  1  0
 36 35  1  0
 38 39  1  0
 39 42  1  0
 39 41  1  0
 40 38  2  0
 43 44  1  0
 43 18  1  0
 45 43  1  0
 46 47  2  0
 46  1  1  0
 48 47  1  0
 49 60  2  0
 50 48  1  0
 50 55  1  0
 51 59  1  0
 51 61  1  0
 52 58  1  0
 52 54  1  0
 53 59  1  0
 54 55  2  0
 54 53  1  0
 56 50  2  0
 57 56  1  0
 57 52  2  0
 58 51  1  0
 59 49  1  0
 61 63  2  0
 62 61  1  0
 64 62  1  0
 65 74  2  0
 65 70  1  0
 66 62  1  0
 66 70  1  0
 67 66  1  0
 68 69  1  0
 68 67  1  0
 69 65  1  0
 70 71  2  0
 71 72  1  0
 73 72  2  0
 74 73  1  0
 75 49  1  0
 75 80  1  0
 75 76  1  0
 76 79  1  1
 76 77  1  0
 78 76  1  0
 80 83  1  0
 81 85  1  0
 81 80  1  0
 82 81  2  0
 85 84  1  0
 87 85  1  0
 87 88  1  0
 87 86  1  0
M  ISO  4   8 100  16 100  47 101  48 101
M  END
>  <TORSDO>  (71) 
F 20

>  <SCORE>  (71) 
-13.706

>  <name>  (71) 
70

>  <ligand_id>  (71) 
70

>  <original_smiles>  (71) 
[H]c1nn(C([H])([H])C([H])([H])C([H])([H])Oc2c([H])c([H])c3c(c2[H])C([H])([H])N(C(=O)C([H])(N([H])C(=O)C([H])(N([H])C([H])([H])[H])C([H])([H])[H])C(C([H])([H])[H])(C([H])([H])[H])C([H])([H])[H])C([H])(C(=O)N([H])C2([H])c4c([H])c([H])c([H])c([H])c4C([H])([H])C([H])([H])C2([H])[H])C3([H])[H])nc1C([H])([H])N([H])C(=O)N1C([H])([H])C([H])([H])C([H])([H])C([H])(n2nc(-c3c([H])c([H])c(Oc4c([H])c([H])c(F)c([H])c4F)c([H])c3[H])c(C(=O)N([H])[H])c2N([H])[H])C1([H])[H]

>  <smiles>  (71) 
[H]c1nn(C([H])([H])C([H])([H])C([H])([H])Oc2c([H])c([H])c3c(c2[H])C([H])([H])N(C(=O)C([H])(N([H])C(=O)C([H])(N([H])C([H])([H])[H])C([H])([H])[H])C(C([H])([H])[H])(C([H])([H])[H])C([H])([H])[H])C([H])(C(=O)N([H])C2([H])c4c([H])c([H])c([H])c([H])c4C([H])([H])C([H])([H])C2([H])[H])C3([H])[H])nc1C([H])([H])N([H])C(=O)N1C([H])([H])C([H])([H])C([H])([H])C([H])(n2nc(-c3c([H])c([H])c(Oc4c([H])c([H])c(F)c([H])c4F)c([H])c3[H])c(C(=O)N([H])[H])c2N([H])[H])C1([H])[H]

$$$$
71:0:0
     RDKit          3D

 91 99  0  0  1  0  0  0  0  0999 V2000
  -29.3750  -20.0630   20.4550 C   0  0  0  0  0  0  0  0  0  0  0  0
  -28.8490  -22.4690   20.6290 C   0  0  0  0  0  3  0  0  0  0  0  0
  -29.4170  -21.2980   21.2790 N   0  0  0  0  0  0  0  0  0  0  0  0
  -28.8120  -20.5010   19.3180 N   0  0  0  0  0  2  0  0  0  0  0  0
  -28.5090  -21.8990   19.4160 N   0  0  0  0  0  0  0  0  0  0  0  0
  -26.2910  -22.6790   18.6330 C   0  0  0  0  0  1  0  0  0  0  0  0
  -27.8490  -21.6230   17.0070 C   0  0  0  0  0  1  0  0  0  0  0  0
  -28.4010  -23.8730   17.8990 C   0  0  0  0  0  1  0  0  0  0  0  0
  -27.7820  -22.5110   18.2770 C   0  0  2  0  0  0  0  0  0  0  0  0
  -30.6820  -18.4060   22.0530 C   0  0  0  0  0  1  0  0  0  0  0  0
  -30.1350  -18.4350   20.6180 C   0  0  0  0  0  0  0  0  0  0  0  0
  -30.4890  -15.4600   20.1130 C   0  0  0  0  0  0  0  0  0  0  0  0
  -30.4120  -13.0390   19.0830 C   0  0  0  0  0  2  0  0  0  0  0  0
  -29.4290  -12.8320   17.9020 C   0  0  0  0  0  2  0  0  0  0  0  0
  -28.0090  -12.5290   18.4120 C   0  0  0  0  0  2  0  0  0  0  0  0
  -27.6180  -13.4390   19.6000 C   0  0  0  0  0  3  0  0  0  0  0  0
  -28.7280  -13.5720   20.6630 C   0  0  0  0  0  2  0  0  0  0  0  0
  -29.8970  -14.1550   19.9760 N   0  0  0  0  0  0  0  0  0  0  0  0
  -31.7110  -15.4040   19.8910 O   0  0  0  0  0  0  0  0  0  0  0  0
  -29.7780  -16.7870   20.3030 N   0  0  0  0  0  4  0  0  0  0  0  0
  -28.7800  -16.6450   20.3200 H   0  0  0  0  0  0  0  0  0  0  0  0
  -25.2940  -13.9620   20.4950 C   0  0  0  0  0  0  0  0  0  0  0  0
  -24.2510  -13.1720   20.8880 C   0  0  0  0  0  0  0  0  0  0  0  0
  -24.7160  -11.8230   20.7920 C   0  0  0  0  0  0  0  0  0  0  0  0
  -26.3230  -13.0970   20.1710 N   0  0  0  0  0  0  0  0  0  0  0  0
  -25.9940  -11.8020   20.4190 N   0  0  0  0  0  0  0  0  0  0  0  0
  -23.9970  -10.5560   20.9740 C   0  0  0  0  0  0  0  0  0  0  0  0
  -24.4260   -9.5880   21.9090 C   0  0  0  0  0  3  0  0  0  0  0  0
  -23.7020   -8.3880   22.0810 C   0  0  0  0  0  3  0  0  0  0  0  0
  -22.5350   -8.1480   21.3180 C   0  0  0  0  0  0  0  0  0  0  0  0
  -22.1250   -9.1040   20.3720 C   0  0  0  0  0  3  0  0  0  0  0  0
  -22.8490  -10.2950   20.1980 C   0  0  0  0  0  3  0  0  0  0  0  0
  -21.7840   -7.0000   21.3990 O   0  0  0  0  0  0  0  0  0  0  0  0
  -21.6890   -6.2820   22.5650 C   0  0  0  0  0  0  0  0  0  0  0  0
  -21.1310   -6.8350   23.7360 C   0  0  0  0  0  3  0  0  0  0  0  0
  -20.9890   -6.0410   24.8920 C   0  0  0  0  0  3  0  0  0  0  0  0
  -21.3950   -4.6930   24.8750 C   0  0  0  0  0  0  0  0  0  0  0  0
  -21.9470   -4.1390   23.7070 C   0  0  0  0  0  3  0  0  0  0  0  0
  -22.0900   -4.9310   22.5540 C   0  0  0  0  0  0  0  0  0  0  0  0
  -22.6020   -4.3860   21.4240 F   0  0  0  0  0  0  0  0  0  0  0  0
  -21.2520   -3.9280   25.9820 F   0  0  0  0  0  0  0  0  0  0  0  0
  -22.8680  -13.6400   21.2310 C   0  0  0  0  0  0  0  0  0  0  0  0
  -22.1700  -12.9110   22.0940 N   0  0  0  0  0  0  0  0  0  0  0  0
  -22.4170  -14.6870   20.7700 O   0  0  0  0  0  0  0  0  0  0  0  0
  -22.5510  -12.0630   22.4900 H   0  0  0  0  0  0  0  0  0  0  0  0
  -21.2430  -13.2070   22.3660 H   0  0  0  0  0  0  0  0  0  0  0  0
  -25.4460  -15.3380   20.3530 N   0  0  0  0  0  0  0  0  0  0  0  0
  -24.6770  -15.9800   20.5170 H   0  0  0  0  0  0  0  0  0  0  0  0
  -26.2600  -15.7890   19.9580 H   0  0  0  0  0  0  0  0  0  0  0  0
  -28.2640  -24.0780   21.2350 C   0  0  0  0  0  2  0  0  0  0  0  0
  -28.5780  -25.7140   20.9240 O   0  0  0  0  0  0  0  0  0  0  0  0
  -24.7760  -31.9260   23.3870 C   0  0  0  0  0  0  0  0  0  0  0  0
  -27.5730  -26.8500   20.8230 C   0  0  0  0  0  0  0  0  0  0  0  0
  -23.7050  -30.4170   21.7680 C   0  0  0  0  0  3  0  0  0  0  0  0
  -25.2610  -28.7460   20.5340 C   0  0  0  0  0  0  0  0  0  0  0  0
  -26.2790  -30.6420   21.7690 C   0  0  0  0  0  2  0  0  0  0  0  0
  -26.4100  -29.1880   21.2020 C   0  0  0  0  0  0  0  0  0  0  0  0
  -27.5610  -28.2650   21.3130 C   0  0  0  0  0  3  0  0  0  0  0  0
  -26.3880  -26.5830   20.0980 C   0  0  0  0  0  3  0  0  0  0  0  0
  -25.2810  -27.4640   19.9630 C   0  0  0  0  0  3  0  0  0  0  0  0
  -24.0310  -29.6560   20.4520 C   0  0  0  0  0  2  0  0  0  0  0  0
  -24.9390  -31.0280   22.3600 N   0  0  0  0  0  0  0  0  0  0  0  0
  -23.6520  -32.2250   23.8250 O   0  0  0  0  0  0  0  0  0  0  0  0
  -22.9660  -29.4670   22.7500 C   0  0  0  0  0  0  0  0  0  0  0  0
  -21.6490  -29.2670   22.5560 N   0  0  0  0  0  0  0  0  0  0  0  0
  -23.5900  -28.9090   23.6560 O   0  0  0  0  0  0  0  0  0  0  0  0
  -21.1990  -29.7660   21.8030 H   0  0  0  0  0  0  0  0  0  0  0  0
  -18.2630  -28.0160   22.9520 C   0  0  0  0  0  0  0  0  0  0  0  0
  -20.8010  -28.3550   23.3320 C   0  0  0  0  0  3  0  0  0  0  0  0
  -20.9590  -26.8950   22.8430 C   0  0  0  0  0  2  0  0  0  0  0  0
  -19.9180  -26.4950   21.7920 C   0  0  0  0  0  2  0  0  0  0  0  0
  -18.5020  -26.6400   22.3550 C   0  0  0  0  0  2  0  0  0  0  0  0
  -19.3420  -28.8280   23.3950 C   0  0  0  0  0  0  0  0  0  0  0  0
  -19.0620  -30.1110   23.9140 C   0  0  0  0  0  3  0  0  0  0  0  0
  -17.7380  -30.5840   23.9920 C   0  0  0  0  0  3  0  0  0  0  0  0
  -16.6740  -29.7720   23.5630 C   0  0  0  0  0  3  0  0  0  0  0  0
  -16.9370  -28.4900   23.0480 C   0  0  0  0  0  3  0  0  0  0  0  0
  -25.9910  -32.6350   24.0550 C   0  0  0  0  0  3  0  0  0  0  0  0
  -26.4310  -31.9580   25.4130 C   0  0  1  0  0  0  0  0  0  0  0  0
  -25.2640  -31.7300   26.4030 C   0  0  0  0  0  1  0  0  0  0  0  0
  -27.1030  -30.5900   25.1600 C   0  0  0  0  0  1  0  0  0  0  0  0
  -27.4880  -32.8410   26.1190 C   0  0  0  0  0  1  0  0  0  0  0  0
  -25.6240  -34.0440   24.2930 N   0  0  0  0  0  0  0  0  0  0  0  0
  -25.9710  -35.0730   23.5070 C   0  0  0  0  0  0  0  0  0  0  0  0
  -26.6920  -34.9380   22.5160 O   0  0  0  0  0  0  0  0  0  0  0  0
  -24.9880  -34.2180   25.0560 H   0  0  0  0  0  0  0  0  0  0  0  0
  -24.2300  -36.8190   22.9910 C   0  0  0  0  0  1  0  0  0  0  0  0
  -25.4370  -36.4730   23.8780 C   0  0  0  0  0  3  0  0  0  0  0  0
  -27.4960  -37.4580   24.7850 C   0  0  0  0  0  1  0  0  0  0  0  0
  -26.4540  -37.5420   23.7670 N   0  0  0  0  0  0  0  0  0  0  0  0
  -26.0200  -38.4590   23.8340 H   0  0  0  0  0  0  0  0  0  0  0  0
  1 11  1  0
  1  3  2  0
  2 50  1  0
  2  3  1  0
  4  5  1  0
  4  1  1  0
  5  2  1  0
  9  7  1  6
  8  9  1  0
  9  6  1  0
  9  5  1  0
 11 10  1  0
 12 20  1  0
 13 18  1  0
 14 15  1  0
 14 13  1  0
 16 15  1  0
 16 25  1  0
 16 17  1  0
 18 12  1  0
 18 17  1  0
 19 12  2  0
 20 21  1  0
 20 11  2  0
 22 23  2  0
 23 42  1  0
 24 23  1  0
 24 27  1  0
 25 26  1  0
 25 22  1  0
 26 24  2  0
 27 28  1  0
 28 29  2  0
 30 33  1  0
 30 29  1  0
 31 30  2  0
 32 31  1  0
 32 27  2  0
 33 34  1  0
 34 35  1  0
 35 36  2  0
 37 36  1  0
 37 41  1  0
 38 37  2  0
 39 34  2  0
 39 38  1  0
 40 39  1  0
 42 43  1  0
 43 46  1  0
 43 45  1  0
 44 42  2  0
 47 22  1  0
 47 48  1  0
 49 47  1  0
 51 50  1  0
 52 63  2  0
 53 51  1  0
 53 58  1  0
 54 62  1  0
 54 64  1  0
 55 57  1  0
 56 62  1  0
 57 58  2  0
 57 56  1  0
 59 53  2  0
 60 59  1  0
 60 55  2  0
 61 55  1  0
 61 54  1  0
 62 52  1  0
 64 66  2  0
 65 64  1  0
 67 65  1  0
 68 77  2  0
 68 73  1  0
 69 65  1  0
 69 73  1  0
 70 69  1  0
 71 72  1  0
 71 70  1  0
 72 68  1  0
 73 74  2  0
 74 75  1  0
 76 75  2  0
 77 76  1  0
 78 52  1  0
 78 83  1  0
 78 79  1  0
 79 82  1  1
 79 80  1  0
 81 79  1  0
 83 86  1  0
 84 88  1  0
 84 83  1  0
 85 84  2  0
 88 87  1  0
 90 91  1  0
 90 88  1  0
 90 89  1  0
M  ISO  4  12 100  20 100  50 101  51 101
M  END
>  <TORSDO>  (72) 
F 19

>  <SCORE>  (72) 
-15.436

>  <name>  (72) 
71

>  <ligand_id>  (72) 
71

>  <original_smiles>  (72) 
[H]c1c([H])c([H])c2c(c1[H])C([H])([H])C([H])([H])C([H])([H])C2([H])N([H])C(=O)C1([H])N(C(=O)C([H])(N([H])C(=O)C([H])(N([H])C([H])([H])[H])C([H])([H])[H])C(C([H])([H])[H])(C([H])([H])[H])C([H])([H])[H])C([H])([H])c2c([H])c(OC([H])([H])c3nc(C([H])(N([H])C(=O)N4C([H])([H])C([H])([H])C([H])([H])C([H])(n5nc(-c6c([H])c([H])c(Oc7c([H])c([H])c(F)c([H])c7F)c([H])c6[H])c(C(=O)N([H])[H])c5N([H])[H])C4([H])[H])C([H])([H])[H])nn3C(C([H])([H])[H])(C([H])([H])[H])C([H])([H])[H])c([H])c([H])c2C1([H])[H]

>  <smiles>  (72) 
[H]c1c([H])c([H])c2c(c1[H])C([H])([H])C([H])([H])C([H])([H])C2([H])N([H])C(=O)C1([H])N(C(=O)C([H])(N([H])C(=O)C([H])(N([H])C([H])([H])[H])C([H])([H])[H])C(C([H])([H])[H])(C([H])([H])[H])C([H])([H])[H])C([H])([H])c2c([H])c(OC([H])([H])c3nc(C([H])(N([H])C(=O)N4C([H])([H])C([H])([H])C([H])([H])C([H])(n5nc(-c6c([H])c([H])c(Oc7c([H])c([H])c(F)c([H])c7F)c([H])c6[H])c(C(=O)N([H])[H])c5N([H])[H])C4([H])[H])C([H])([H])[H])nn3C(C([H])([H])[H])(C([H])([H])[H])C([H])([H])[H])c([H])c([H])c2C1([H])[H]

$$$$
72:0:0
     RDKit          3D

 89 97  0  0  1  0  0  0  0  0999 V2000
  -29.7470  -22.7670   20.9730 C   0  0  0  0  0  3  0  0  0  0  0  0
  -28.5980  -23.3640   20.3690 C   0  0  0  0  0  0  0  0  0  0  0  0
  -27.8680  -22.3410   19.6810 C   0  0  0  0  0  0  0  0  0  0  0  0
  -29.2760  -20.5110   20.3210 C   0  0  0  0  0  0  0  0  0  0  0  0
  -26.5530  -22.6620   19.0010 C   0  0  0  0  0  1  0  0  0  0  0  0
  -30.0570  -21.4110   20.9540 N   0  0  0  0  0  0  0  0  0  0  0  0
  -28.2050  -20.9960   19.6620 N   0  0  0  0  0  0  0  0  0  0  0  0
  -27.9800  -24.8420   20.7570 C   0  0  0  0  0  2  0  0  0  0  0  0
  -28.3090  -26.2420   20.2150 O   0  0  0  0  0  0  0  0  0  0  0  0
  -24.6270  -31.8690   23.2200 C   0  0  0  0  0  0  0  0  0  0  0  0
  -27.2560  -27.2180   20.1900 C   0  0  0  0  0  0  0  0  0  0  0  0
  -23.4420  -30.4660   21.5780 C   0  0  0  0  0  3  0  0  0  0  0  0
  -24.9080  -28.9130   20.1530 C   0  0  0  0  0  0  0  0  0  0  0  0
  -25.9910  -30.7670   21.4140 C   0  0  0  0  0  2  0  0  0  0  0  0
  -26.0820  -29.3790   20.7620 C   0  0  0  0  0  0  0  0  0  0  0  0
  -27.2600  -28.5470   20.7640 C   0  0  0  0  0  3  0  0  0  0  0  0
  -26.0610  -26.8480   19.5380 C   0  0  0  0  0  3  0  0  0  0  0  0
  -24.9090  -27.6590   19.5240 C   0  0  0  0  0  3  0  0  0  0  0  0
  -23.6680  -29.7920   20.2000 C   0  0  0  0  0  2  0  0  0  0  0  0
  -24.7050  -31.0540   22.1260 N   0  0  0  0  0  0  0  0  0  0  0  0
  -23.5390  -32.1430   23.7480 O   0  0  0  0  0  0  0  0  0  0  0  0
  -22.7720  -29.4500   22.5380 C   0  0  0  0  0  0  0  0  0  0  0  0
  -21.4450  -29.2720   22.4110 N   0  0  0  0  0  0  0  0  0  0  0  0
  -23.4490  -28.8250   23.3580 O   0  0  0  0  0  0  0  0  0  0  0  0
  -20.9550  -29.8240   21.7220 H   0  0  0  0  0  0  0  0  0  0  0  0
  -18.0720  -28.0490   22.9090 C   0  0  0  0  0  0  0  0  0  0  0  0
  -20.6290  -28.3290   23.1800 C   0  0  0  0  0  3  0  0  0  0  0  0
  -20.7430  -26.8970   22.6070 C   0  0  0  0  0  2  0  0  0  0  0  0
  -19.6450  -26.5670   21.5910 C   0  0  0  0  0  2  0  0  0  0  0  0
  -18.2620  -26.7010   22.2340 C   0  0  0  0  0  2  0  0  0  0  0  0
  -19.1850  -28.8190   23.3400 C   0  0  0  0  0  0  0  0  0  0  0  0
  -18.9550  -30.0790   23.9340 C   0  0  0  0  0  3  0  0  0  0  0  0
  -17.6470  -30.5700   24.1010 C   0  0  0  0  0  3  0  0  0  0  0  0
  -16.5490  -29.7950   23.6870 C   0  0  0  0  0  3  0  0  0  0  0  0
  -16.7630  -28.5370   23.0960 C   0  0  0  0  0  3  0  0  0  0  0  0
  -25.9000  -32.5150   23.8490 C   0  0  0  0  0  3  0  0  0  0  0  0
  -26.4120  -31.7530   25.1330 C   0  0  1  0  0  0  0  0  0  0  0  0
  -25.3150  -31.5170   26.1960 C   0  0  0  0  0  1  0  0  0  0  0  0
  -27.0050  -30.3760   24.7560 C   0  0  0  0  0  1  0  0  0  0  0  0
  -27.5560  -32.5550   25.7970 C   0  0  0  0  0  1  0  0  0  0  0  0
  -25.5780  -33.9120   24.1770 N   0  0  0  0  0  0  0  0  0  0  0  0
  -25.9150  -34.9700   23.4260 C   0  0  0  0  0  0  0  0  0  0  0  0
  -26.5960  -34.8720   22.4020 O   0  0  0  0  0  0  0  0  0  0  0  0
  -24.9740  -34.0620   24.9710 H   0  0  0  0  0  0  0  0  0  0  0  0
  -24.1860  -36.7620   23.0630 C   0  0  0  0  0  1  0  0  0  0  0  0
  -25.4200  -36.3560   23.8860 C   0  0  0  0  0  3  0  0  0  0  0  0
  -27.5430  -37.2440   24.7410 C   0  0  0  0  0  1  0  0  0  0  0  0
  -26.4510  -37.4130   23.7870 N   0  0  0  0  0  0  0  0  0  0  0  0
  -26.0410  -38.3310   23.9350 H   0  0  0  0  0  0  0  0  0  0  0  0
  -29.3430  -18.9110   20.7010 C   0  0  0  0  0  3  0  0  0  0  0  0
  -30.0970  -17.6170   19.9450 C   0  0  0  0  0  3  0  0  0  0  0  0
  -30.6530  -14.9490   20.0080 C   0  0  0  0  0  0  0  0  0  0  0  0
  -30.4160  -12.6660   18.9280 C   0  0  0  0  0  2  0  0  0  0  0  0
  -29.3950  -12.6930   17.7660 C   0  0  0  0  0  2  0  0  0  0  0  0
  -27.9650  -12.4670   18.2860 C   0  0  0  0  0  2  0  0  0  0  0  0
  -27.6520  -13.3450   19.5230 C   0  0  0  0  0  3  0  0  0  0  0  0
  -28.7760  -13.2420   20.5720 C   0  0  0  0  0  2  0  0  0  0  0  0
  -30.0210  -13.7030   19.9300 N   0  0  0  0  0  0  0  0  0  0  0  0
  -31.7630  -15.0460   19.4710 O   0  0  0  0  0  0  0  0  0  0  0  0
  -29.4580  -16.0910   21.8350 C   0  0  0  0  0  1  0  0  0  0  0  0
  -29.9800  -16.1230   20.4630 N   0  0  0  0  0  0  0  0  0  0  0  0
  -25.3230  -13.9280   20.4170 C   0  0  0  0  0  0  0  0  0  0  0  0
  -24.2780  -13.1500   20.8350 C   0  0  0  0  0  0  0  0  0  0  0  0
  -24.7320  -11.7980   20.7450 C   0  0  0  0  0  0  0  0  0  0  0  0
  -26.3420  -13.0480   20.0910 N   0  0  0  0  0  0  0  0  0  0  0  0
  -25.9990  -11.7610   20.3520 N   0  0  0  0  0  0  0  0  0  0  0  0
  -24.0140  -10.5330   20.9540 C   0  0  0  0  0  0  0  0  0  0  0  0
  -24.4750   -9.5620   21.8710 C   0  0  0  0  0  3  0  0  0  0  0  0
  -23.7560   -8.3640   22.0680 C   0  0  0  0  0  3  0  0  0  0  0  0
  -22.5620   -8.1270   21.3470 C   0  0  0  0  0  0  0  0  0  0  0  0
  -22.1200   -9.0850   20.4180 C   0  0  0  0  0  3  0  0  0  0  0  0
  -22.8390  -10.2740   20.2200 C   0  0  0  0  0  3  0  0  0  0  0  0
  -21.8130   -6.9800   21.4540 O   0  0  0  0  0  0  0  0  0  0  0  0
  -21.7610   -6.2600   22.6200 C   0  0  0  0  0  0  0  0  0  0  0  0
  -21.3400   -6.8410   23.8360 C   0  0  0  0  0  3  0  0  0  0  0  0
  -21.2350   -6.0480   24.9960 C   0  0  0  0  0  3  0  0  0  0  0  0
  -21.5400   -4.6750   24.9410 C   0  0  0  0  0  0  0  0  0  0  0  0
  -21.9540   -4.0940   23.7300 C   0  0  0  0  0  3  0  0  0  0  0  0
  -22.0610   -4.8840   22.5730 C   0  0  0  0  0  0  0  0  0  0  0  0
  -22.4400   -4.3150   21.4020 F   0  0  0  0  0  0  0  0  0  0  0  0
  -21.4320   -3.9110   26.0530 F   0  0  0  0  0  0  0  0  0  0  0  0
  -22.9030  -13.6250   21.2060 C   0  0  0  0  0  0  0  0  0  0  0  0
  -22.2320  -12.9120   22.1030 N   0  0  0  0  0  0  0  0  0  0  0  0
  -22.4350  -14.6610   20.7340 O   0  0  0  0  0  0  0  0  0  0  0  0
  -22.6240  -12.0680   22.4940 H   0  0  0  0  0  0  0  0  0  0  0  0
  -21.3150  -13.2120   22.4020 H   0  0  0  0  0  0  0  0  0  0  0  0
  -25.4900  -15.3010   20.2650 N   0  0  0  0  0  0  0  0  0  0  0  0
  -24.7510  -15.9680   20.4550 H   0  0  0  0  0  0  0  0  0  0  0  0
  -26.3380  -15.7330   19.9190 H   0  0  0  0  0  0  0  0  0  0  0  0
  2  8  1  0
  2  1  2  0
  3  2  1  0
  4 50  1  0
  4  6  2  0
  5  3  1  0
  6  1  1  0
  7  3  2  0
  7  4  1  0
  9  8  1  0
 10 21  2  0
 11  9  1  0
 11 16  1  0
 12 20  1  0
 12 22  1  0
 13 19  1  0
 13 15  1  0
 14 20  1  0
 15 16  2  0
 15 14  1  0
 17 11  2  0
 18 17  1  0
 18 13  2  0
 19 12  1  0
 20 10  1  0
 22 24  2  0
 23 22  1  0
 25 23  1  0
 26 35  2  0
 26 31  1  0
 27 23  1  0
 27 31  1  0
 28 27  1  0
 29 30  1  0
 29 28  1  0
 30 26  1  0
 31 32  2  0
 32 33  1  0
 34 33  2  0
 35 34  1  0
 36 10  1  0
 36 41  1  0
 36 37  1  0
 37 40  1  1
 37 38  1  0
 39 37  1  0
 41 44  1  0
 42 46  1  0
 42 41  1  0
 43 42  2  0
 46 45  1  0
 48 46  1  0
 48 49  1  0
 48 47  1  0
 51 61  1  0
 51 50  2  0
 52 61  1  0
 53 58  1  0
 54 55  1  0
 54 53  1  0
 56 55  1  0
 56 65  1  0
 56 57  1  0
 58 52  1  0
 58 57  1  0
 59 52  2  0
 61 60  1  0
 62 63  2  0
 63 82  1  0
 64 63  1  0
 64 67  1  0
 65 66  1  0
 65 62  1  0
 66 64  2  0
 67 68  1  0
 68 69  2  0
 70 73  1  0
 70 69  1  0
 71 70  2  0
 72 71  1  0
 72 67  2  0
 73 74  1  0
 74 75  1  0
 75 76  2  0
 77 76  1  0
 77 81  1  0
 78 77  2  0
 79 74  2  0
 79 78  1  0
 80 79  1  0
 82 83  1  0
 83 86  1  0
 83 85  1  0
 84 82  2  0
 87 62  1  0
 87 88  1  0
 89 87  1  0
M  ISO  4   8 101   9 101  52 100  61 100
M  END
>  <TORSDO>  (73) 
F 19

>  <SCORE>  (73) 
-13.648

>  <name>  (73) 
72

>  <ligand_id>  (73) 
72

>  <original_smiles>  (73) 
[H]c1nc(C([H])([H])C([H])([H])N(C(=O)N2C([H])([H])C([H])([H])C([H])([H])C([H])(n3nc(-c4c([H])c([H])c(Oc5c([H])c([H])c(F)c([H])c5F)c([H])c4[H])c(C(=O)N([H])[H])c3N([H])[H])C2([H])[H])C([H])([H])[H])nc(C([H])([H])[H])c1C([H])([H])Oc1c([H])c([H])c2c(c1[H])C([H])([H])N(C(=O)C([H])(N([H])C(=O)C([H])(N([H])C([H])([H])[H])C([H])([H])[H])C(C([H])([H])[H])(C([H])([H])[H])C([H])([H])[H])C([H])(C(=O)N([H])C1([H])c3c([H])c([H])c([H])c([H])c3C([H])([H])C([H])([H])C1([H])[H])C2([H])[H]

>  <smiles>  (73) 
[H]c1nc(C([H])([H])C([H])([H])N(C(=O)N2C([H])([H])C([H])([H])C([H])([H])C([H])(n3nc(-c4c([H])c([H])c(Oc5c([H])c([H])c(F)c([H])c5F)c([H])c4[H])c(C(=O)N([H])[H])c3N([H])[H])C2([H])[H])C([H])([H])[H])nc(C([H])([H])[H])c1C([H])([H])Oc1c([H])c([H])c2c(c1[H])C([H])([H])N(C(=O)C([H])(N([H])C(=O)C([H])(N([H])C([H])([H])[H])C([H])([H])[H])C(C([H])([H])[H])(C([H])([H])[H])C([H])([H])[H])C([H])(C(=O)N([H])C1([H])c3c([H])c([H])c([H])c([H])c3C([H])([H])C([H])([H])C1([H])[H])C2([H])[H]

$$$$
73:0:0
     RDKit          3D

 87 95  0  0  1  0  0  0  0  0999 V2000
  -28.6250  -21.3640   20.8680 C   0  0  0  0  0  3  0  0  0  0  0  0
  -29.8890  -20.9770   19.2530 C   0  0  0  0  0  3  0  0  0  0  0  0
  -28.6950  -22.6960   20.2330 C   0  0  0  0  0  0  0  0  0  0  0  0
  -29.5440  -22.3070   19.1670 N   0  0  0  0  0  0  0  0  0  0  0  0
  -29.3960  -20.2110   20.2670 N   0  0  0  0  0  0  0  0  0  0  0  0
  -27.8300  -24.2350   20.3430 C   0  0  0  0  0  2  0  0  0  0  0  0
  -28.1970  -25.8470   20.2910 O   0  0  0  0  0  0  0  0  0  0  0  0
  -24.6460  -31.8820   23.2150 C   0  0  0  0  0  0  0  0  0  0  0  0
  -27.1960  -26.9630   20.2450 C   0  0  0  0  0  0  0  0  0  0  0  0
  -23.4520  -30.4740   21.5900 C   0  0  0  0  0  3  0  0  0  0  0  0
  -24.8990  -28.8560   20.1840 C   0  0  0  0  0  0  0  0  0  0  0  0
  -26.0200  -30.6780   21.4430 C   0  0  0  0  0  2  0  0  0  0  0  0
  -26.0890  -29.2600   20.8020 C   0  0  0  0  0  0  0  0  0  0  0  0
  -27.2320  -28.3370   20.8050 C   0  0  0  0  0  3  0  0  0  0  0  0
  -25.9730  -26.7190   19.5770 C   0  0  0  0  0  3  0  0  0  0  0  0
  -24.8670  -27.6060   19.5500 C   0  0  0  0  0  3  0  0  0  0  0  0
  -23.6830  -29.7810   20.2190 C   0  0  0  0  0  2  0  0  0  0  0  0
  -24.7280  -31.0390   22.1370 N   0  0  0  0  0  0  0  0  0  0  0  0
  -23.5570  -32.1790   23.7330 O   0  0  0  0  0  0  0  0  0  0  0  0
  -22.7540  -29.4890   22.5640 C   0  0  0  0  0  0  0  0  0  0  0  0
  -21.4230  -29.3290   22.4420 N   0  0  0  0  0  0  0  0  0  0  0  0
  -23.4180  -28.8670   23.3970 O   0  0  0  0  0  0  0  0  0  0  0  0
  -20.9390  -29.8790   21.7470 H   0  0  0  0  0  0  0  0  0  0  0  0
  -18.0360  -28.1360   22.9690 C   0  0  0  0  0  0  0  0  0  0  0  0
  -20.5970  -28.4000   23.2240 C   0  0  0  0  0  3  0  0  0  0  0  0
  -20.6950  -26.9620   22.6630 C   0  0  0  0  0  2  0  0  0  0  0  0
  -19.5890  -26.6340   21.6530 C   0  0  0  0  0  2  0  0  0  0  0  0
  -18.2090  -26.7830   22.2990 C   0  0  0  0  0  2  0  0  0  0  0  0
  -19.1560  -28.9010   23.3900 C   0  0  0  0  0  0  0  0  0  0  0  0
  -18.9370  -30.1640   23.9800 C   0  0  0  0  0  3  0  0  0  0  0  0
  -17.6320  -30.6640   24.1500 C   0  0  0  0  0  3  0  0  0  0  0  0
  -16.5260  -29.8960   23.7440 C   0  0  0  0  0  3  0  0  0  0  0  0
  -16.7290  -28.6330   23.1610 C   0  0  0  0  0  3  0  0  0  0  0  0
  -25.9170  -32.5300   23.8430 C   0  0  0  0  0  3  0  0  0  0  0  0
  -26.4260  -31.7700   25.1310 C   0  0  1  0  0  0  0  0  0  0  0  0
  -25.3280  -31.5430   26.1970 C   0  0  0  0  0  1  0  0  0  0  0  0
  -27.0070  -30.3870   24.7620 C   0  0  0  0  0  1  0  0  0  0  0  0
  -27.5760  -32.5660   25.7890 C   0  0  0  0  0  1  0  0  0  0  0  0
  -25.5990  -33.9290   24.1750 N   0  0  0  0  0  0  0  0  0  0  0  0
  -25.9250  -34.9910   23.4260 C   0  0  0  0  0  0  0  0  0  0  0  0
  -26.5890  -34.8940   22.3910 O   0  0  0  0  0  0  0  0  0  0  0  0
  -25.0100  -34.0770   24.9820 H   0  0  0  0  0  0  0  0  0  0  0  0
  -24.1920  -36.7880   23.0970 C   0  0  0  0  0  1  0  0  0  0  0  0
  -25.4400  -36.3780   23.8950 C   0  0  0  0  0  3  0  0  0  0  0  0
  -27.5800  -37.2650   24.7130 C   0  0  0  0  0  1  0  0  0  0  0  0
  -26.4710  -37.4340   23.7790 N   0  0  0  0  0  0  0  0  0  0  0  0
  -26.0650  -38.3530   23.9320 H   0  0  0  0  0  0  0  0  0  0  0  0
  -29.7960  -18.6220   20.7120 C   0  0  0  0  0  2  0  0  0  0  0  0
  -28.1630  -16.8360   19.7840 C   0  0  0  0  0  1  0  0  0  0  0  0
  -30.1930  -17.3590   18.4960 C   0  0  0  0  0  1  0  0  0  0  0  0
  -29.6780  -17.0120   19.9100 C   0  0  1  0  0  0  0  0  0  0  0  0
  -30.4110  -15.3920   20.1900 C   0  0  0  0  0  0  0  0  0  0  0  0
  -30.3940  -12.9120   19.3780 C   0  0  0  0  0  2  0  0  0  0  0  0
  -29.4750  -12.6580   18.1560 C   0  0  0  0  0  2  0  0  0  0  0  0
  -28.0370  -12.3490   18.6090 C   0  0  0  0  0  2  0  0  0  0  0  0
  -27.5650  -13.3350   19.7020 C   0  0  0  0  0  3  0  0  0  0  0  0
  -28.6130  -13.5600   20.8130 C   0  0  0  0  0  2  0  0  0  0  0  0
  -29.8430  -14.0740   20.1760 N   0  0  0  0  0  0  0  0  0  0  0  0
  -31.6470  -15.3200   20.0940 O   0  0  0  0  0  0  0  0  0  0  0  0
  -25.2010  -13.9070   20.4680 C   0  0  0  0  0  0  0  0  0  0  0  0
  -24.1400  -13.1350   20.8410 C   0  0  0  0  0  0  0  0  0  0  0  0
  -24.6070  -11.7850   20.8150 C   0  0  0  0  0  0  0  0  0  0  0  0
  -26.2430  -13.0280   20.2250 N   0  0  0  0  0  0  0  0  0  0  0  0
  -25.8970  -11.7450   20.5030 N   0  0  0  0  0  0  0  0  0  0  0  0
  -23.8780  -10.5270   21.0090 C   0  0  0  0  0  0  0  0  0  0  0  0
  -24.3170   -9.5550   21.9350 C   0  0  0  0  0  3  0  0  0  0  0  0
  -23.5870   -8.3610   22.1170 C   0  0  0  0  0  3  0  0  0  0  0  0
  -22.4050   -8.1310   21.3730 C   0  0  0  0  0  0  0  0  0  0  0  0
  -21.9870   -9.0910   20.4350 C   0  0  0  0  0  3  0  0  0  0  0  0
  -22.7170  -10.2770   20.2510 C   0  0  0  0  0  3  0  0  0  0  0  0
  -21.6460   -6.9910   21.4650 O   0  0  0  0  0  0  0  0  0  0  0  0
  -21.6140   -6.2400   22.6120 C   0  0  0  0  0  0  0  0  0  0  0  0
  -21.2190   -6.7900   23.8520 C   0  0  0  0  0  3  0  0  0  0  0  0
  -21.1340   -5.9650   24.9910 C   0  0  0  0  0  3  0  0  0  0  0  0
  -21.4330   -4.5930   24.8920 C   0  0  0  0  0  0  0  0  0  0  0  0
  -21.8210   -4.0440   23.6580 C   0  0  0  0  0  3  0  0  0  0  0  0
  -21.9080   -4.8650   22.5200 C   0  0  0  0  0  0  0  0  0  0  0  0
  -22.2620   -4.3270   21.3280 F   0  0  0  0  0  0  0  0  0  0  0  0
  -21.3420   -3.7980   25.9840 F   0  0  0  0  0  0  0  0  0  0  0  0
  -22.7440  -13.6170   21.1060 C   0  0  0  0  0  0  0  0  0  0  0  0
  -22.0130  -12.9280   21.9740 N   0  0  0  0  0  0  0  0  0  0  0  0
  -22.3100  -14.6400   20.5780 O   0  0  0  0  0  0  0  0  0  0  0  0
  -22.3770  -12.1000   22.4220 H   0  0  0  0  0  0  0  0  0  0  0  0
  -21.0750  -13.2320   22.1950 H   0  0  0  0  0  0  0  0  0  0  0  0
  -25.3520  -15.2760   20.2840 N   0  0  0  0  0  0  0  0  0  0  0  0
  -24.5810  -15.9230   20.4120 H   0  0  0  0  0  0  0  0  0  0  0  0
  -26.1970  -15.7240   19.9600 H   0  0  0  0  0  0  0  0  0  0  0  0
  2  5  1  0
  3  6  1  0
  3  1  2  0
  4  2  2  0
  4  3  1  0
  5 48  1  0
  5  1  1  0
  7  6  1  0
  8 19  2  0
  9  7  1  0
  9 14  1  0
 10 18  1  0
 10 20  1  0
 11 17  1  0
 11 13  1  0
 12 18  1  0
 13 14  2  0
 13 12  1  0
 15  9  2  0
 16 15  1  0
 16 11  2  0
 17 10  1  0
 18  8  1  0
 20 22  2  0
 21 20  1  0
 23 21  1  0
 24 33  2  0
 24 29  1  0
 25 21  1  0
 25 29  1  0
 26 25  1  0
 27 28  1  0
 27 26  1  0
 28 24  1  0
 29 30  2  0
 30 31  1  0
 32 31  2  0
 33 32  1  0
 34  8  1  0
 34 39  1  0
 34 35  1  0
 35 38  1  1
 35 36  1  0
 37 35  1  0
 39 42  1  0
 40 44  1  0
 40 39  1  0
 41 40  2  0
 44 43  1  0
 46 44  1  0
 46 47  1  0
 46 45  1  0
 51 49  1  6
 50 51  1  0
 51 52  1  0
 51 48  1  0
 53 58  1  0
 54 55  1  0
 54 53  1  0
 56 55  1  0
 56 63  1  0
 56 57  1  0
 58 52  1  0
 58 57  1  0
 59 52  2  0
 60 61  2  0
 61 80  1  0
 62 61  1  0
 62 65  1  0
 63 60  1  0
 63 64  1  0
 64 62  2  0
 65 66  1  0
 66 67  2  0
 68 71  1  0
 68 67  1  0
 69 68  2  0
 70 69  1  0
 70 65  2  0
 71 72  1  0
 72 73  1  0
 73 74  2  0
 75 74  1  0
 75 79  1  0
 76 75  2  0
 77 72  2  0
 77 76  1  0
 78 77  1  0
 80 81  1  0
 81 84  1  0
 81 83  1  0
 82 80  2  0
 85 86  1  0
 85 60  1  0
 87 85  1  0
M  ISO  4   6 101   7 101  51 100  52 100
M  END
>  <TORSDO>  (74) 
F 19

>  <SCORE>  (74) 
-16.729

>  <name>  (74) 
73

>  <ligand_id>  (74) 
73

>  <original_smiles>  (74) 
[H]c1c([H])c([H])c2c(c1[H])C([H])([H])C([H])([H])C([H])([H])C2([H])N([H])C(=O)C1([H])N(C(=O)C([H])(N([H])C(=O)C([H])(N([H])C([H])([H])[H])C([H])([H])[H])C(C([H])([H])[H])(C([H])([H])[H])C([H])([H])[H])C([H])([H])c2c([H])c(OC([H])([H])c3nc([H])n(C([H])([H])C(C(=O)N4C([H])([H])C([H])([H])C([H])([H])C([H])(n5nc(-c6c([H])c([H])c(Oc7c([H])c([H])c(F)c([H])c7F)c([H])c6[H])c(C(=O)N([H])[H])c5N([H])[H])C4([H])[H])(C([H])([H])[H])C([H])([H])[H])c3[H])c([H])c([H])c2C1([H])[H]

>  <smiles>  (74) 
[H]c1c([H])c([H])c2c(c1[H])C([H])([H])C([H])([H])C([H])([H])C2([H])N([H])C(=O)C1([H])N(C(=O)C([H])(N([H])C(=O)C([H])(N([H])C([H])([H])[H])C([H])([H])[H])C(C([H])([H])[H])(C([H])([H])[H])C([H])([H])[H])C([H])([H])c2c([H])c(OC([H])([H])c3nc([H])n(C([H])([H])C(C(=O)N4C([H])([H])C([H])([H])C([H])([H])C([H])(n5nc(-c6c([H])c([H])c(Oc7c([H])c([H])c(F)c([H])c7F)c([H])c6[H])c(C(=O)N([H])[H])c5N([H])[H])C4([H])[H])(C([H])([H])[H])C([H])([H])[H])c3[H])c([H])c([H])c2C1([H])[H]

$$$$
74:0:0
     RDKit          3D

 89 97  0  0  1  0  0  0  0  0999 V2000
  -29.3230  -22.5950   21.5250 C   0  0  0  0  0  3  0  0  0  0  0  0
  -28.5830  -21.3560   19.2910 C   0  0  0  0  0  3  0  0  0  0  0  0
  -28.6280  -23.4040   20.5500 C   0  0  0  0  0  0  0  0  0  0  0  0
  -29.2900  -20.5510   20.2570 C   0  0  0  0  0  0  0  0  0  0  0  0
  -28.2580  -22.7060   19.4250 N   0  0  0  0  0  0  0  0  0  0  0  0
  -29.6630  -21.2460   21.3830 N   0  0  0  0  0  0  0  0  0  0  0  0
  -31.3800  -19.1640   19.6780 C   0  0  0  0  0  1  0  0  0  0  0  0
  -29.8670  -19.0450   19.9060 C   0  0  0  0  0  3  0  0  0  0  0  0
  -29.5930  -17.5900   20.6980 C   0  0  0  0  0  2  0  0  0  0  0  0
  -30.5060  -14.9920   20.2920 C   0  0  0  0  0  0  0  0  0  0  0  0
  -30.3890  -12.6300   19.3870 C   0  0  0  0  0  2  0  0  0  0  0  0
  -29.4730  -12.5470   18.1460 C   0  0  0  0  0  2  0  0  0  0  0  0
  -27.9920  -12.3990   18.5560 C   0  0  0  0  0  2  0  0  0  0  0  0
  -27.5740  -13.3250   19.7310 C   0  0  0  0  0  3  0  0  0  0  0  0
  -28.6230  -13.3570   20.8600 C   0  0  0  0  0  2  0  0  0  0  0  0
  -29.8950  -13.7420   20.2390 N   0  0  0  0  0  0  0  0  0  0  0  0
  -31.7380  -15.0260   20.2060 O   0  0  0  0  0  0  0  0  0  0  0  0
  -29.3760  -16.3190   18.6030 C   0  0  0  0  0  1  0  0  0  0  0  0
  -29.7430  -16.1700   20.0170 N   0  0  0  0  0  0  0  0  0  0  0  0
  -25.1870  -13.9090   20.4470 C   0  0  0  0  0  0  0  0  0  0  0  0
  -24.1200  -13.1330   20.8120 C   0  0  0  0  0  0  0  0  0  0  0  0
  -24.5900  -11.7840   20.8050 C   0  0  0  0  0  0  0  0  0  0  0  0
  -26.2350  -13.0280   20.2280 N   0  0  0  0  0  0  0  0  0  0  0  0
  -25.8860  -11.7480   20.5140 N   0  0  0  0  0  0  0  0  0  0  0  0
  -23.8670  -10.5200   21.0010 C   0  0  0  0  0  0  0  0  0  0  0  0
  -24.2910   -9.5670   21.9520 C   0  0  0  0  0  3  0  0  0  0  0  0
  -23.5680   -8.3680   22.1360 C   0  0  0  0  0  3  0  0  0  0  0  0
  -22.4070   -8.1150   21.3670 C   0  0  0  0  0  0  0  0  0  0  0  0
  -22.0030   -9.0580   20.4070 C   0  0  0  0  0  3  0  0  0  0  0  0
  -22.7260  -10.2470   20.2220 C   0  0  0  0  0  3  0  0  0  0  0  0
  -21.6570   -6.9670   21.4580 O   0  0  0  0  0  0  0  0  0  0  0  0
  -21.6030   -6.2320   22.6150 C   0  0  0  0  0  0  0  0  0  0  0  0
  -21.1570   -6.7920   23.8330 C   0  0  0  0  0  3  0  0  0  0  0  0
  -21.0500   -5.9830   24.9820 C   0  0  0  0  0  3  0  0  0  0  0  0
  -21.3780   -4.6160   24.9140 C   0  0  0  0  0  0  0  0  0  0  0  0
  -21.8160   -4.0540   23.7020 C   0  0  0  0  0  3  0  0  0  0  0  0
  -21.9250   -4.8610   22.5550 C   0  0  0  0  0  0  0  0  0  0  0  0
  -22.3270   -4.3120   21.3840 F   0  0  0  0  0  0  0  0  0  0  0  0
  -21.2670   -3.8370   26.0160 F   0  0  0  0  0  0  0  0  0  0  0  0
  -22.7180  -13.6080   21.0510 C   0  0  0  0  0  0  0  0  0  0  0  0
  -21.9760  -12.9180   21.9120 N   0  0  0  0  0  0  0  0  0  0  0  0
  -22.2840  -14.6240   20.5100 O   0  0  0  0  0  0  0  0  0  0  0  0
  -22.3400  -12.0950   22.3690 H   0  0  0  0  0  0  0  0  0  0  0  0
  -21.0330  -13.2160   22.1150 H   0  0  0  0  0  0  0  0  0  0  0  0
  -25.3540  -15.2760   20.2560 N   0  0  0  0  0  0  0  0  0  0  0  0
  -24.5920  -15.9400   20.3530 H   0  0  0  0  0  0  0  0  0  0  0  0
  -26.2230  -15.7060   19.9680 H   0  0  0  0  0  0  0  0  0  0  0  0
  -27.9720  -24.8740   20.8950 C   0  0  0  0  0  2  0  0  0  0  0  0
  -28.2510  -26.2560   20.2740 O   0  0  0  0  0  0  0  0  0  0  0  0
  -24.5730  -31.8970   23.2460 C   0  0  0  0  0  0  0  0  0  0  0  0
  -27.1910  -27.2220   20.2480 C   0  0  0  0  0  0  0  0  0  0  0  0
  -23.3810  -30.4890   21.6070 C   0  0  0  0  0  3  0  0  0  0  0  0
  -24.8430  -28.9180   20.1990 C   0  0  0  0  0  0  0  0  0  0  0  0
  -25.9300  -30.7830   21.4400 C   0  0  0  0  0  2  0  0  0  0  0  0
  -26.0180  -29.3880   20.8010 C   0  0  0  0  0  0  0  0  0  0  0  0
  -27.1970  -28.5570   20.8060 C   0  0  0  0  0  3  0  0  0  0  0  0
  -25.9930  -26.8420   19.6050 C   0  0  0  0  0  3  0  0  0  0  0  0
  -24.8400  -27.6550   19.5870 C   0  0  0  0  0  3  0  0  0  0  0  0
  -23.6080  -29.8020   20.2360 C   0  0  0  0  0  2  0  0  0  0  0  0
  -24.6470  -31.0780   22.1530 N   0  0  0  0  0  0  0  0  0  0  0  0
  -23.4860  -32.1750   23.7750 O   0  0  0  0  0  0  0  0  0  0  0  0
  -22.7070  -29.4820   22.5750 C   0  0  0  0  0  0  0  0  0  0  0  0
  -21.3810  -29.2980   22.4420 N   0  0  0  0  0  0  0  0  0  0  0  0
  -23.3810  -28.8680   23.4060 O   0  0  0  0  0  0  0  0  0  0  0  0
  -20.8930  -29.8450   21.7460 H   0  0  0  0  0  0  0  0  0  0  0  0
  -18.0100  -28.0640   22.9220 C   0  0  0  0  0  0  0  0  0  0  0  0
  -20.5630  -28.3590   23.2150 C   0  0  0  0  0  3  0  0  0  0  0  0
  -20.6870  -26.9230   22.6580 C   0  0  0  0  0  2  0  0  0  0  0  0
  -19.6000  -26.5760   21.6350 C   0  0  0  0  0  2  0  0  0  0  0  0
  -18.2100  -26.7100   22.2620 C   0  0  0  0  0  2  0  0  0  0  0  0
  -19.1140  -28.8440   23.3550 C   0  0  0  0  0  0  0  0  0  0  0  0
  -18.8730  -30.1100   23.9340 C   0  0  0  0  0  3  0  0  0  0  0  0
  -17.5600  -30.5940   24.0820 C   0  0  0  0  0  3  0  0  0  0  0  0
  -16.4700  -29.8120   23.6640 C   0  0  0  0  0  3  0  0  0  0  0  0
  -16.6950  -28.5480   23.0890 C   0  0  0  0  0  3  0  0  0  0  0  0
  -25.8480  -32.5390   23.8740 C   0  0  0  0  0  3  0  0  0  0  0  0
  -26.3500  -31.7830   25.1650 C   0  0  1  0  0  0  0  0  0  0  0  0
  -25.2490  -31.5650   26.2280 C   0  0  0  0  0  1  0  0  0  0  0  0
  -26.9330  -30.3970   24.8030 C   0  0  0  0  0  1  0  0  0  0  0  0
  -27.4990  -32.5820   25.8240 C   0  0  0  0  0  1  0  0  0  0  0  0
  -25.5350  -33.9420   24.1850 N   0  0  0  0  0  0  0  0  0  0  0  0
  -25.8800  -34.9880   23.4230 C   0  0  0  0  0  0  0  0  0  0  0  0
  -26.5600  -34.8740   22.4000 O   0  0  0  0  0  0  0  0  0  0  0  0
  -24.9280  -34.1040   24.9750 H   0  0  0  0  0  0  0  0  0  0  0  0
  -24.1670  -36.7920   23.0320 C   0  0  0  0  0  1  0  0  0  0  0  0
  -25.3940  -36.3820   23.8640 C   0  0  0  0  0  3  0  0  0  0  0  0
  -27.5190  -37.2640   24.7230 C   0  0  0  0  0  1  0  0  0  0  0  0
  -26.4340  -37.4310   23.7600 N   0  0  0  0  0  0  0  0  0  0  0  0
  -26.0290  -38.3530   23.8930 H   0  0  0  0  0  0  0  0  0  0  0  0
  2  5  2  0
  2  4  1  0
  3 48  1  0
  3  1  2  0
  4  6  2  0
  5  3  1  0
  6  1  1  0
  8  7  1  0
  8  4  1  0
  8  9  1  0
 11 16  1  0
 12 13  1  0
 12 11  1  0
 14 13  1  0
 14 23  1  0
 14 15  1  0
 16 10  1  0
 16 15  1  0
 17 10  2  0
 18 19  1  0
 19 10  1  0
 19  9  1  0
 20 21  2  0
 21 40  1  0
 22 21  1  0
 22 25  1  0
 23 20  1  0
 23 24  1  0
 24 22  2  0
 25 26  1  0
 26 27  2  0
 28 31  1  0
 28 27  1  0
 29 28  2  0
 30 29  1  0
 30 25  2  0
 31 32  1  0
 32 33  1  0
 33 34  2  0
 35 34  1  0
 35 39  1  0
 36 35  2  0
 37 32  2  0
 37 36  1  0
 38 37  1  0
 40 41  1  0
 41 44  1  0
 41 43  1  0
 42 40  2  0
 45 46  1  0
 45 20  1  0
 47 45  1  0
 49 48  1  0
 50 61  2  0
 51 49  1  0
 51 56  1  0
 52 60  1  0
 52 62  1  0
 53 59  1  0
 53 55  1  0
 54 60  1  0
 55 56  2  0
 55 54  1  0
 57 51  2  0
 58 57  1  0
 58 53  2  0
 59 52  1  0
 60 50  1  0
 62 64  2  0
 63 62  1  0
 65 63  1  0
 66 75  2  0
 66 71  1  0
 67 63  1  0
 67 71  1  0
 68 67  1  0
 69 70  1  0
 69 68  1  0
 70 66  1  0
 71 72  2  0
 72 73  1  0
 74 73  2  0
 75 74  1  0
 76 50  1  0
 76 81  1  0
 76 77  1  0
 77 80  1  1
 77 78  1  0
 79 77  1  0
 81 84  1  0
 82 86  1  0
 82 81  1  0
 83 82  2  0
 86 85  1  0
 88 86  1  0
 88 89  1  0
 88 87  1  0
M  ISO  4  10 100  19 100  48 101  49 101
M  END
>  <TORSDO>  (75) 
F 19

>  <SCORE>  (75) 
-13.933

>  <name>  (75) 
74

>  <ligand_id>  (75) 
74

>  <original_smiles>  (75) 
[H]c1nc(C([H])(C([H])([H])[H])C([H])([H])N(C(=O)N2C([H])([H])C([H])([H])C([H])([H])C([H])(n3nc(-c4c([H])c([H])c(Oc5c([H])c([H])c(F)c([H])c5F)c([H])c4[H])c(C(=O)N([H])[H])c3N([H])[H])C2([H])[H])C([H])([H])[H])c([H])nc1C([H])([H])Oc1c([H])c([H])c2c(c1[H])C([H])([H])N(C(=O)C([H])(N([H])C(=O)C([H])(N([H])C([H])([H])[H])C([H])([H])[H])C(C([H])([H])[H])(C([H])([H])[H])C([H])([H])[H])C([H])(C(=O)N([H])C1([H])c3c([H])c([H])c([H])c([H])c3C([H])([H])C([H])([H])C1([H])[H])C2([H])[H]

>  <smiles>  (75) 
[H]c1nc(C([H])(C([H])([H])[H])C([H])([H])N(C(=O)N2C([H])([H])C([H])([H])C([H])([H])C([H])(n3nc(-c4c([H])c([H])c(Oc5c([H])c([H])c(F)c([H])c5F)c([H])c4[H])c(C(=O)N([H])[H])c3N([H])[H])C2([H])[H])C([H])([H])[H])c([H])nc1C([H])([H])Oc1c([H])c([H])c2c(c1[H])C([H])([H])N(C(=O)C([H])(N([H])C(=O)C([H])(N([H])C([H])([H])[H])C([H])([H])[H])C(C([H])([H])[H])(C([H])([H])[H])C([H])([H])[H])C([H])(C(=O)N([H])C1([H])c3c([H])c([H])c([H])c([H])c3C([H])([H])C([H])([H])C1([H])[H])C2([H])[H]

$$$$
75:0:0
     RDKit          3D

 93101  0  0  1  0  0  0  0  0999 V2000
  -29.0880  -24.2810   21.6560 C   0  0  0  0  0  3  0  0  0  0  0  0
  -29.2770  -23.0930   22.3730 C   0  0  0  0  0  0  0  0  0  0  0  0
  -28.6410  -24.1820   20.3330 C   0  0  0  0  0  0  0  0  0  0  0  0
  -28.6310  -21.8700   20.5480 C   0  0  0  0  0  0  0  0  0  0  0  0
  -29.7380  -23.1060   23.8120 C   0  0  0  0  0  1  0  0  0  0  0  0
  -29.0640  -21.8900   21.8080 N   0  0  0  0  0  0  0  0  0  0  0  0
  -28.4150  -22.9570   19.7930 N   0  0  0  0  0  0  0  0  0  0  0  0
  -28.5140  -25.4260   19.4300 C   0  0  0  0  0  2  0  0  0  0  0  0
  -28.3860  -26.6990   20.1160 O   0  0  0  0  0  0  0  0  0  0  0  0
  -24.5880  -31.8860   23.2320 C   0  0  0  0  0  0  0  0  0  0  0  0
  -27.1940  -27.4090   20.1220 C   0  0  0  0  0  0  0  0  0  0  0  0
  -23.3670  -30.4960   21.5900 C   0  0  0  0  0  3  0  0  0  0  0  0
  -24.8050  -28.9530   20.1620 C   0  0  0  0  0  0  0  0  0  0  0  0
  -25.8970  -30.8400   21.3790 C   0  0  0  0  0  2  0  0  0  0  0  0
  -25.9740  -29.4650   20.7360 C   0  0  0  0  0  0  0  0  0  0  0  0
  -27.1670  -28.7010   20.7100 C   0  0  0  0  0  3  0  0  0  0  0  0
  -25.9890  -26.9090   19.5750 C   0  0  0  0  0  3  0  0  0  0  0  0
  -24.8080  -27.6750   19.5850 C   0  0  0  0  0  3  0  0  0  0  0  0
  -23.5720  -29.8270   20.2070 C   0  0  0  0  0  2  0  0  0  0  0  0
  -24.6370  -31.0870   22.1270 N   0  0  0  0  0  0  0  0  0  0  0  0
  -23.5110  -32.1590   23.7810 O   0  0  0  0  0  0  0  0  0  0  0  0
  -22.7150  -29.4720   22.5490 C   0  0  0  0  0  0  0  0  0  0  0  0
  -21.3890  -29.2910   22.4310 N   0  0  0  0  0  0  0  0  0  0  0  0
  -23.4020  -28.8420   23.3560 O   0  0  0  0  0  0  0  0  0  0  0  0
  -20.8940  -29.8580   21.7570 H   0  0  0  0  0  0  0  0  0  0  0  0
  -18.0170  -28.0870   22.9340 C   0  0  0  0  0  0  0  0  0  0  0  0
  -20.5760  -28.3510   23.2050 C   0  0  0  0  0  3  0  0  0  0  0  0
  -20.6780  -26.9170   22.6340 C   0  0  0  0  0  2  0  0  0  0  0  0
  -19.5780  -26.5910   21.6200 C   0  0  0  0  0  2  0  0  0  0  0  0
  -18.1970  -26.7360   22.2630 C   0  0  0  0  0  2  0  0  0  0  0  0
  -19.1350  -28.8510   23.3640 C   0  0  0  0  0  0  0  0  0  0  0  0
  -18.9130  -30.1160   23.9520 C   0  0  0  0  0  3  0  0  0  0  0  0
  -17.6070  -30.6170   24.1100 C   0  0  0  0  0  3  0  0  0  0  0  0
  -16.5040  -29.8490   23.6960 C   0  0  0  0  0  3  0  0  0  0  0  0
  -16.7110  -28.5860   23.1150 C   0  0  0  0  0  3  0  0  0  0  0  0
  -25.8780  -32.5170   23.8430 C   0  0  0  0  0  3  0  0  0  0  0  0
  -25.5740  -33.9110   24.1840 N   0  0  0  0  0  0  0  0  0  0  0  0
  -25.8950  -34.9670   23.4230 C   0  0  0  0  0  0  0  0  0  0  0  0
  -26.5510  -34.8650   22.3830 O   0  0  0  0  0  0  0  0  0  0  0  0
  -24.9910  -34.0610   24.9940 H   0  0  0  0  0  0  0  0  0  0  0  0
  -24.1670  -36.7620   23.0780 C   0  0  0  0  0  1  0  0  0  0  0  0
  -25.4100  -36.3540   23.8860 C   0  0  0  0  0  3  0  0  0  0  0  0
  -27.5500  -37.2320   24.7070 C   0  0  0  0  0  1  0  0  0  0  0  0
  -26.4420  -37.4070   23.7710 N   0  0  0  0  0  0  0  0  0  0  0  0
  -26.0400  -38.3280   23.9280 H   0  0  0  0  0  0  0  0  0  0  0  0
  -26.4020  -31.7390   25.1110 C   0  0  1  0  0  0  0  0  0  0  0  0
  -25.3200  -31.4960   26.1900 C   0  0  0  0  0  1  0  0  0  0  0  0
  -26.9750  -30.3630   24.7040 C   0  0  0  0  0  1  0  0  0  0  0  0
  -27.5600  -32.5250   25.7690 C   0  0  0  0  0  1  0  0  0  0  0  0
  -28.4320  -20.4750   19.9330 C   0  0  0  0  0  2  0  0  0  0  0  0
  -30.7660  -19.8760   19.4830 C   0  0  0  0  0  1  0  0  0  0  0  0
  -29.5560  -19.5490   20.2820 N   0  0  2  0  0  4  0  0  0  0  0  0
  -29.7480  -19.8410   21.2340 H   0  0  0  0  0  0  0  0  0  0  0  0
  -29.1820  -18.0840   20.2860 C   0  0  0  0  0  3  0  0  0  0  0  0
  -30.3130  -17.0600   20.6820 C   0  0  0  0  0  3  0  0  0  0  0  0
  -30.6560  -14.5530   20.4010 C   0  0  0  0  0  0  0  0  0  0  0  0
  -30.3850  -12.3480   19.3190 C   0  0  0  0  0  2  0  0  0  0  0  0
  -29.4450  -12.5360   18.1080 C   0  0  0  0  0  2  0  0  0  0  0  0
  -27.9720  -12.4010   18.5410 C   0  0  0  0  0  2  0  0  0  0  0  0
  -27.6310  -13.2360   19.8040 C   0  0  0  0  0  3  0  0  0  0  0  0
  -28.6950  -13.0490   20.9100 C   0  0  0  0  0  2  0  0  0  0  0  0
  -30.0070  -13.3580   20.3220 N   0  0  0  0  0  0  0  0  0  0  0  0
  -31.8160  -14.6990   20.0100 O   0  0  0  0  0  0  0  0  0  0  0  0
  -29.8950  -15.6290   20.7280 N   0  0  0  0  0  0  0  0  0  0  0  0
  -28.9430  -15.4320   20.9990 H   0  0  0  0  0  0  0  0  0  0  0  0
  -25.2310  -13.8360   20.5090 C   0  0  0  0  0  0  0  0  0  0  0  0
  -24.1630  -13.0600   20.8800 C   0  0  0  0  0  0  0  0  0  0  0  0
  -24.6330  -11.7100   20.8580 C   0  0  0  0  0  0  0  0  0  0  0  0
  -26.2780  -12.9570   20.2850 N   0  0  0  0  0  0  0  0  0  0  0  0
  -25.9230  -11.6750   20.5520 N   0  0  0  0  0  0  0  0  0  0  0  0
  -23.9120  -10.4450   21.0560 C   0  0  0  0  0  0  0  0  0  0  0  0
  -24.3520   -9.4770   21.9850 C   0  0  0  0  0  3  0  0  0  0  0  0
  -23.6260   -8.2800   22.1680 C   0  0  0  0  0  3  0  0  0  0  0  0
  -22.4490   -8.0410   21.4220 C   0  0  0  0  0  0  0  0  0  0  0  0
  -22.0280   -8.9990   20.4820 C   0  0  0  0  0  3  0  0  0  0  0  0
  -22.7540  -10.1880   20.2950 C   0  0  0  0  0  3  0  0  0  0  0  0
  -21.6960   -6.8940   21.5130 O   0  0  0  0  0  0  0  0  0  0  0  0
  -21.6660   -6.1450   22.6630 C   0  0  0  0  0  0  0  0  0  0  0  0
  -21.2620   -6.6970   23.8980 C   0  0  0  0  0  3  0  0  0  0  0  0
  -21.1790   -5.8770   25.0420 C   0  0  0  0  0  3  0  0  0  0  0  0
  -21.4900   -4.5060   24.9490 C   0  0  0  0  0  0  0  0  0  0  0  0
  -21.8880   -3.9560   23.7170 C   0  0  0  0  0  3  0  0  0  0  0  0
  -21.9710   -4.7720   22.5760 C   0  0  0  0  0  0  0  0  0  0  0  0
  -22.3350   -4.2330   21.3880 F   0  0  0  0  0  0  0  0  0  0  0  0
  -21.4030   -3.7140   26.0430 F   0  0  0  0  0  0  0  0  0  0  0  0
  -22.7660  -13.5320   21.1490 C   0  0  0  0  0  0  0  0  0  0  0  0
  -22.0450  -12.8380   22.0230 N   0  0  0  0  0  0  0  0  0  0  0  0
  -22.3200  -14.5530   20.6220 O   0  0  0  0  0  0  0  0  0  0  0  0
  -22.4130  -12.0060   22.4590 H   0  0  0  0  0  0  0  0  0  0  0  0
  -21.1090  -13.1380   22.2520 H   0  0  0  0  0  0  0  0  0  0  0  0
  -25.3930  -15.2040   20.3230 N   0  0  0  0  0  0  0  0  0  0  0  0
  -24.6280  -15.8630   20.4300 H   0  0  0  0  0  0  0  0  0  0  0  0
  -26.2280  -15.6180   19.9330 H   0  0  0  0  0  0  0  0  0  0  0  0
  1  2  2  0
  2  5  1  0
  3  1  1  0
  4  6  2  0
  6  2  1  0
  7  3  2  0
  7  4  1  0
  8  9  1  0
  8  3  1  0
  9 11  1  0
 10 21  2  0
 11 16  1  0
 12 20  1  0
 12 22  1  0
 13 19  1  0
 13 15  1  0
 14 20  1  0
 15 14  1  0
 16 15  2  0
 17 18  1  0
 17 11  2  0
 18 13  2  0
 19 12  1  0
 20 10  1  0
 22 24  2  0
 23 22  1  0
 25 23  1  0
 26 35  2  0
 26 31  1  0
 27 23  1  0
 27 31  1  0
 28 27  1  0
 29 30  1  0
 29 28  1  0
 30 26  1  0
 31 32  2  0
 32 33  1  0
 34 33  2  0
 35 34  1  0
 36 10  1  0
 36 37  1  0
 36 46  1  0
 37 40  1  0
 38 42  1  0
 38 37  1  0
 39 38  2  0
 42 41  1  0
 44 42  1  0
 44 45  1  0
 44 43  1  0
 46 49  1  1
 46 47  1  0
 48 46  1  0
 50 52  1  0
 50  4  1  0
 51 52  1  0
 52 54  1  0
 52 53  1  1
 54 55  2  0
 55 64  1  0
 56 64  1  0
 57 62  1  0
 58 59  1  0
 58 57  1  0
 60 59  1  0
 60 69  1  0
 60 61  1  0
 62 56  1  0
 62 61  1  0
 63 56  2  0
 64 65  1  0
 66 67  2  0
 67 86  1  0
 68 67  1  0
 68 71  1  0
 69 66  1  0
 69 70  1  0
 70 68  2  0
 71 72  1  0
 72 73  2  0
 74 77  1  0
 74 73  1  0
 75 74  2  0
 76 75  1  0
 76 71  2  0
 77 78  1  0
 78 79  1  0
 79 80  2  0
 81 80  1  0
 81 85  1  0
 82 81  2  0
 83 78  2  0
 83 82  1  0
 84 83  1  0
 86 87  1  0
 87 90  1  0
 87 89  1  0
 88 86  2  0
 91 92  1  0
 91 66  1  0
 93 91  1  0
M  ISO  4   8 101   9 101  56 100  64 100
M  END
>  <TORSDO>  (76) 
F 21

>  <SCORE>  (76) 
-13.603

>  <name>  (76) 
75

>  <ligand_id>  (76) 
75

>  <original_smiles>  (76) 
[H]c1c(C([H])([H])[H])nc(C([H])([H])[N+]([H])(C([H])([H])[H])C([H])([H])C([H])([H])N([H])C(=O)N2C([H])([H])C([H])([H])C([H])([H])C([H])(n3nc(-c4c([H])c([H])c(Oc5c([H])c([H])c(F)c([H])c5F)c([H])c4[H])c(C(=O)N([H])[H])c3N([H])[H])C2([H])[H])nc1C([H])([H])Oc1c([H])c([H])c2c(c1[H])C([H])([H])N(C(=O)C([H])(N([H])C(=O)C([H])(N([H])C([H])([H])[H])C([H])([H])[H])C(C([H])([H])[H])(C([H])([H])[H])C([H])([H])[H])C([H])(C(=O)N([H])C1([H])c3c([H])c([H])c([H])c([H])c3C([H])([H])C([H])([H])C1([H])[H])C2([H])[H]

>  <smiles>  (76) 
[H]c1c(C([H])([H])[H])nc(C([H])([H])[N+]([H])(C([H])([H])[H])C([H])([H])C([H])([H])N([H])C(=O)N2C([H])([H])C([H])([H])C([H])([H])C([H])(n3nc(-c4c([H])c([H])c(Oc5c([H])c([H])c(F)c([H])c5F)c([H])c4[H])c(C(=O)N([H])[H])c3N([H])[H])C2([H])[H])nc1C([H])([H])Oc1c([H])c([H])c2c(c1[H])C([H])([H])N(C(=O)C([H])(N([H])C(=O)C([H])(N([H])C([H])([H])[H])C([H])([H])[H])C(C([H])([H])[H])(C([H])([H])[H])C([H])([H])[H])C([H])(C(=O)N([H])C1([H])c3c([H])c([H])c([H])c([H])c3C([H])([H])C([H])([H])C1([H])[H])C2([H])[H]

$$$$
76:0:0
     RDKit          3D

 96104  0  0  1  0  0  0  0  0999 V2000
  -28.1690  -25.1950   21.4470 C   0  0  0  0  0  2  0  0  0  0  0  0
  -29.1210  -26.1240   21.2440 C   0  0  0  0  0  0  0  0  0  0  0  0
  -27.9470  -24.1760   20.4300 C   0  0  0  0  0  0  0  0  0  0  0  0
  -29.7630  -25.2330   19.2310 C   0  0  0  0  0  3  0  0  0  0  0  0
  -30.7070  -25.1150   18.0420 C   0  0  0  0  0  1  0  0  0  0  0  0
  -29.9960  -26.1050   20.1620 N   0  0  0  0  0  0  0  0  0  0  0  0
  -28.6590  -24.3310   19.2710 N   0  0  0  0  0  0  0  0  0  0  0  0
  -27.0860  -23.3090   20.5760 O   0  0  0  0  0  0  0  0  0  0  0  0
  -29.2430  -27.2530   22.0090 O   0  0  0  0  0  0  0  0  0  0  0  0
  -24.5300  -28.2680   27.2640 C   0  0  0  0  0  0  0  0  0  0  0  0
  -28.0570  -27.8220   22.4180 C   0  0  0  0  0  0  0  0  0  0  0  0
  -23.8020  -28.9610   25.0040 C   0  0  0  0  0  3  0  0  0  0  0  0
  -25.6220  -28.9990   23.2230 C   0  0  0  0  0  0  0  0  0  0  0  0
  -26.2820  -28.9490   25.6350 C   0  0  0  0  0  2  0  0  0  0  0  0
  -26.5890  -28.6630   24.1800 C   0  0  0  0  0  0  0  0  0  0  0  0
  -27.8120  -28.0760   23.7840 C   0  0  0  0  0  3  0  0  0  0  0  0
  -27.0700  -28.1650   21.4650 C   0  0  0  0  0  3  0  0  0  0  0  0
  -25.8540  -28.7470   21.8620 C   0  0  0  0  0  3  0  0  0  0  0  0
  -24.3520  -29.6430   23.7250 C   0  0  0  0  0  2  0  0  0  0  0  0
  -24.8750  -28.6840   26.0140 N   0  0  0  0  0  0  0  0  0  0  0  0
  -23.3420  -28.1530   27.5940 O   0  0  0  0  0  0  0  0  0  0  0  0
  -23.0130  -27.6990   24.5860 C   0  0  0  0  0  0  0  0  0  0  0  0
  -21.9360  -27.8980   23.8100 N   0  0  0  0  0  0  0  0  0  0  0  0
  -23.3870  -26.5760   24.9360 O   0  0  0  0  0  0  0  0  0  0  0  0
  -21.6900  -28.8490   23.5750 H   0  0  0  0  0  0  0  0  0  0  0  0
  -19.2270  -27.2800   21.5020 C   0  0  0  0  0  0  0  0  0  0  0  0
  -21.0640  -26.8570   23.2690 C   0  0  0  0  0  3  0  0  0  0  0  0
  -21.7880  -26.0410   22.1710 C   0  0  0  0  0  2  0  0  0  0  0  0
  -21.5390  -26.5750   20.7570 C   0  0  0  0  0  2  0  0  0  0  0  0
  -20.0420  -26.5690   20.4360 C   0  0  0  0  0  2  0  0  0  0  0  0
  -19.7130  -27.4270   22.8280 C   0  0  0  0  0  0  0  0  0  0  0  0
  -18.9290  -28.1250   23.7710 C   0  0  0  0  0  3  0  0  0  0  0  0
  -17.6810  -28.6670   23.4100 C   0  0  0  0  0  3  0  0  0  0  0  0
  -17.1970  -28.5040   22.1010 C   0  0  0  0  0  3  0  0  0  0  0  0
  -17.9680  -27.8080   21.1510 C   0  0  0  0  0  3  0  0  0  0  0  0
  -25.6080  -27.9420   28.3450 C   0  0  0  0  0  3  0  0  0  0  0  0
  -25.0600  -28.3420   29.6480 N   0  0  0  0  0  0  0  0  0  0  0  0
  -25.4970  -29.3810   30.3710 C   0  0  0  0  0  0  0  0  0  0  0  0
  -26.4640  -30.0710   30.0340 O   0  0  0  0  0  0  0  0  0  0  0  0
  -24.2310  -27.8560   29.9570 H   0  0  0  0  0  0  0  0  0  0  0  0
  -23.8150  -30.9140   31.4430 C   0  0  0  0  0  1  0  0  0  0  0  0
  -24.7420  -29.7090   31.6730 C   0  0  0  0  0  3  0  0  0  0  0  0
  -26.3640  -28.8020   33.2780 C   0  0  0  0  0  1  0  0  0  0  0  0
  -25.6390  -29.9820   32.8180 N   0  0  0  0  0  0  0  0  0  0  0  0
  -25.1150  -30.3580   33.6040 H   0  0  0  0  0  0  0  0  0  0  0  0
  -26.0350  -26.4240   28.3580 C   0  0  1  0  0  0  0  0  0  0  0  0
  -24.8450  -25.4440   28.4860 C   0  0  0  0  0  1  0  0  0  0  0  0
  -26.8080  -26.0620   27.0690 C   0  0  0  0  0  1  0  0  0  0  0  0
  -26.9980  -26.1610   29.5410 C   0  0  0  0  0  1  0  0  0  0  0  0
  -27.9920  -23.9660   17.9920 C   0  0  0  0  0  2  0  0  0  0  0  0
  -26.8760  -21.7260   17.2270 C   0  0  0  0  0  1  0  0  0  0  0  0
  -28.1820  -22.5310   17.4130 C   0  0  0  0  0  3  0  0  0  0  0  0
  -29.2120  -21.7130   18.1000 N   0  0  0  0  0  4  0  0  0  0  0  0
  -29.9140  -22.3140   18.4990 H   0  0  0  0  0  0  0  0  0  0  0  0
  -28.7760  -21.2000   18.8490 H   0  0  0  0  0  0  0  0  0  0  0  0
  -29.8970  -20.7780   17.1790 C   0  0  0  0  0  2  0  0  0  0  0  0
  -30.6910  -19.6540   17.8700 C   0  0  0  0  0  2  0  0  0  0  0  0
  -31.6040  -18.9820   16.8260 C   0  0  0  0  0  2  0  0  0  0  0  0
  -32.0390  -16.4100   17.0010 C   0  0  0  0  0  1  0  0  0  0  0  0
  -32.5100  -17.8420   17.3490 C   0  0  0  0  0  3  0  0  0  0  0  0
  -34.0070  -18.0980   17.0500 C   0  0  0  0  0  0  0  0  0  0  0  0
  -36.0770  -17.7270   15.7520 C   0  0  0  0  0  2  0  0  0  0  0  0
  -36.1910  -18.6760   14.5440 C   0  0  0  0  0  2  0  0  0  0  0  0
  -35.4860  -18.0740   13.3170 C   0  0  0  0  0  2  0  0  0  0  0  0
  -34.0480  -17.6010   13.6390 C   0  0  0  0  0  3  0  0  0  0  0  0
  -34.0300  -16.7290   14.9150 C   0  0  0  0  0  2  0  0  0  0  0  0
  -34.6510  -17.4860   16.0170 N   0  0  0  0  0  0  0  0  0  0  0  0
  -34.5880  -18.8900   17.8000 O   0  0  0  0  0  0  0  0  0  0  0  0
  -32.3960  -17.3110   11.6810 C   0  0  0  0  0  0  0  0  0  0  0  0
  -32.2770  -16.3420   10.7210 C   0  0  0  0  0  0  0  0  0  0  0  0
  -33.3000  -15.3840   11.0000 C   0  0  0  0  0  0  0  0  0  0  0  0
  -33.4450  -16.9140   12.4960 N   0  0  0  0  0  0  0  0  0  0  0  0
  -33.9560  -15.7170   12.1040 N   0  0  0  0  0  0  0  0  0  0  0  0
  -33.7270  -14.1950   10.2510 C   0  0  0  0  0  0  0  0  0  0  0  0
  -33.8900  -12.9420   10.8820 C   0  0  0  0  0  3  0  0  0  0  0  0
  -34.2840  -11.8090   10.1380 C   0  0  0  0  0  3  0  0  0  0  0  0
  -34.5180  -11.9220    8.7470 C   0  0  0  0  0  0  0  0  0  0  0  0
  -34.3790  -13.1770    8.1280 C   0  0  0  0  0  3  0  0  0  0  0  0
  -33.9930  -14.3040    8.8720 C   0  0  0  0  0  3  0  0  0  0  0  0
  -34.9310  -10.8830    7.9470 O   0  0  0  0  0  0  0  0  0  0  0  0
  -34.6790   -9.5780    8.2820 C   0  0  0  0  0  0  0  0  0  0  0  0
  -33.3630   -9.0860    8.4350 C   0  0  0  0  0  3  0  0  0  0  0  0
  -33.1470   -7.7230    8.7100 C   0  0  0  0  0  3  0  0  0  0  0  0
  -34.2410   -6.8440    8.8250 C   0  0  0  0  0  0  0  0  0  0  0  0
  -35.5520   -7.3290    8.6660 C   0  0  0  0  0  3  0  0  0  0  0  0
  -35.7690   -8.6910    8.3920 C   0  0  0  0  0  0  0  0  0  0  0  0
  -37.0330   -9.1480    8.2210 F   0  0  0  0  0  0  0  0  0  0  0  0
  -34.0350   -5.5310    9.0810 F   0  0  0  0  0  0  0  0  0  0  0  0
  -31.3360  -16.3490    9.5490 C   0  0  0  0  0  0  0  0  0  0  0  0
  -30.9250  -15.1710    9.0900 N   0  0  0  0  0  0  0  0  0  0  0  0
  -30.9180  -17.4010    9.0670 O   0  0  0  0  0  0  0  0  0  0  0  0
  -31.2590  -14.3100    9.4990 H   0  0  0  0  0  0  0  0  0  0  0  0
  -30.2700  -15.1270    8.3220 H   0  0  0  0  0  0  0  0  0  0  0  0
  -31.7220  -18.5050   11.9200 N   0  0  0  0  0  0  0  0  0  0  0  0
  -31.0040  -18.8590   11.2970 H   0  0  0  0  0  0  0  0  0  0  0  0
  -32.0090  -19.1800   12.6180 H   0  0  0  0  0  0  0  0  0  0  0  0
  2  1  1  0
  2  9  1  0
  3  8  2  0
  3  1  1  0
  4  5  1  0
  4  7  1  0
  4  6  1  0
  6  2  2  0
  7  3  1  0
  9 11  1  0
 10 21  2  0
 11 16  1  0
 12 22  1  0
 12 20  1  0
 13 19  1  0
 13 15  1  0
 14 20  1  0
 15 14  1  0
 16 15  2  0
 17 18  1  0
 17 11  2  0
 18 13  2  0
 19 12  1  0
 20 10  1  0
 22 24  2  0
 23 22  1  0
 25 23  1  0
 26 31  1  0
 27 23  1  0
 28 27  1  0
 29 28  1  0
 30 29  1  0
 30 26  1  0
 31 27  1  0
 31 32  2  0
 33 32  1  0
 34 33  2  0
 35 26  2  0
 35 34  1  0
 36 10  1  0
 36 46  1  0
 36 37  1  0
 37 40  1  0
 37 38  1  0
 38 42  1  0
 39 38  2  0
 42 41  1  0
 42 44  1  0
 44 43  1  0
 44 45  1  0
 46 47  1  1
 46 49  1  0
 48 46  1  0
 50  7  1  0
 52 51  1  0
 52 50  1  0
 52 53  1  0
 53 54  1  0
 53 55  1  0
 56 57  1  0
 56 53  1  0
 58 60  1  0
 58 57  1  0
 60 59  1  0
 61 60  1  0
 61 68  2  0
 62 67  1  0
 63 62  1  0
 64 65  1  0
 64 63  1  0
 65 72  1  0
 65 66  1  0
 66 67  1  0
 67 61  1  0
 69 94  1  0
 69 72  1  0
 70 71  1  0
 70 69  2  0
 71 73  2  0
 73 72  1  0
 74 75  1  0
 74 71  1  0
 76 75  2  0
 77 76  1  0
 78 77  2  0
 78 79  1  0
 79 74  2  0
 80 81  1  0
 80 77  1  0
 81 86  2  0
 81 82  1  0
 82 83  2  0
 83 84  1  0
 84 88  1  0
 85 84  2  0
 86 85  1  0
 87 86  1  0
 89 70  1  0
 90 92  1  0
 90 89  1  0
 91 89  2  0
 93 90  1  0
 94 96  1  0
 95 94  1  0
M  ISO  4   2 101   9 101  60 100  61 100
M  END
>  <TORSDO>  (77) 
F 23

>  <SCORE>  (77) 
-2.814

>  <name>  (77) 
76

>  <ligand_id>  (77) 
76

>  <original_smiles>  (77) 
[H]c1c([H])c([H])c2c(c1[H])C([H])([H])C([H])([H])C([H])([H])C2([H])N([H])C(=O)C1([H])N(C(=O)C([H])(N([H])C(=O)C([H])(N([H])C([H])([H])[H])C([H])([H])[H])C(C([H])([H])[H])(C([H])([H])[H])C([H])([H])[H])C([H])([H])c2c([H])c(Oc3nc(C([H])([H])[H])n(C([H])([H])C([H])(C([H])([H])[H])[N+]([H])([H])C([H])([H])C([H])([H])C([H])([H])C([H])(C(=O)N4C([H])([H])C([H])([H])C([H])([H])C([H])(n5nc(-c6c([H])c([H])c(Oc7c([H])c([H])c(F)c([H])c7F)c([H])c6[H])c(C(=O)N([H])[H])c5N([H])[H])C4([H])[H])C([H])([H])[H])c(=O)c3[H])c([H])c([H])c2C1([H])[H]

>  <smiles>  (77) 
[H]c1c([H])c([H])c2c(c1[H])C([H])([H])C([H])([H])C([H])([H])C2([H])N([H])C(=O)C1([H])N(C(=O)C([H])(N([H])C(=O)C([H])(N([H])C([H])([H])[H])C([H])([H])[H])C(C([H])([H])[H])(C([H])([H])[H])C([H])([H])[H])C([H])([H])c2c([H])c(Oc3nc(C([H])([H])[H])n(C([H])([H])C([H])(C([H])([H])[H])[N+]([H])([H])C([H])([H])C([H])([H])C([H])([H])C([H])(C(=O)N4C([H])([H])C([H])([H])C([H])([H])C([H])(n5nc(-c6c([H])c([H])c(Oc7c([H])c([H])c(F)c([H])c7F)c([H])c6[H])c(C(=O)N([H])[H])c5N([H])[H])C4([H])[H])C([H])([H])[H])c(=O)c3[H])c([H])c([H])c2C1([H])[H]

$$$$
77:0:0
     RDKit          3D

 91 99  0  0  1  0  0  0  0  0999 V2000
  -29.4250  -22.4640   21.1190 C   0  0  0  0  0  3  0  0  0  0  0  0
  -28.8660  -22.4470   19.8220 C   0  0  0  0  0  0  0  0  0  0  0  0
  -29.7100  -19.8780   19.8050 C   0  0  0  0  0  0  0  0  0  0  0  0
  -30.1340  -20.1560   21.1380 C   0  0  0  0  0  0  0  0  0  0  0  0
  -30.0060  -21.3900   21.7320 N   0  0  0  0  0  0  0  0  0  0  0  0
  -29.0500  -21.0890   19.2020 N   0  0  0  0  0  0  0  0  0  0  0  0
  -30.7720  -19.0630   22.0090 C   0  0  1  0  0  0  0  0  0  0  0  0
  -31.2230  -19.5600   23.1650 F   0  0  0  0  0  0  0  0  0  0  0  0
  -29.8720  -18.1220   22.2990 F   0  0  0  0  0  0  0  0  0  0  0  0
  -31.8030  -18.5010   21.3790 F   0  0  0  0  0  0  0  0  0  0  0  0
  -30.1030  -18.2820   19.1010 C   0  0  0  0  0  2  0  0  0  0  0  0
  -30.7250  -15.3370   19.3440 C   0  0  0  0  0  0  0  0  0  0  0  0
  -30.6360  -12.8320   18.5800 C   0  0  0  0  0  2  0  0  0  0  0  0
  -29.6090  -12.5590   17.4510 C   0  0  0  0  0  2  0  0  0  0  0  0
  -28.2100  -12.3040   18.0370 C   0  0  0  0  0  2  0  0  0  0  0  0
  -27.8670  -13.3200   19.1530 C   0  0  0  0  0  3  0  0  0  0  0  0
  -29.0110  -13.5170   20.1710 C   0  0  0  0  0  2  0  0  0  0  0  0
  -30.1710  -14.0140   19.4100 N   0  0  0  0  0  0  0  0  0  0  0  0
  -31.9010  -15.3090   18.9450 O   0  0  0  0  0  0  0  0  0  0  0  0
  -29.9840  -16.6320   19.5250 N   0  0  0  0  0  0  0  0  0  0  0  0
  -29.0730  -16.4400   19.9160 H   0  0  0  0  0  0  0  0  0  0  0  0
  -25.6170  -13.9410   20.1680 C   0  0  0  0  0  0  0  0  0  0  0  0
  -24.5720  -13.1980   20.6350 C   0  0  0  0  0  0  0  0  0  0  0  0
  -24.9840  -11.8330   20.5330 C   0  0  0  0  0  0  0  0  0  0  0  0
  -26.5920  -13.0370   19.7950 N   0  0  0  0  0  0  0  0  0  0  0  0
  -26.2320  -11.7590   20.0840 N   0  0  0  0  0  0  0  0  0  0  0  0
  -24.2370  -10.5930   20.7850 C   0  0  0  0  0  0  0  0  0  0  0  0
  -24.5820   -9.7190   21.8410 C   0  0  0  0  0  3  0  0  0  0  0  0
  -23.8310   -8.5460   22.0740 C   0  0  0  0  0  3  0  0  0  0  0  0
  -22.7220   -8.2360   21.2520 C   0  0  0  0  0  0  0  0  0  0  0  0
  -22.3970   -9.0970   20.1890 C   0  0  0  0  0  3  0  0  0  0  0  0
  -23.1460  -10.2620   19.9550 C   0  0  0  0  0  3  0  0  0  0  0  0
  -21.9510   -7.1060   21.3880 O   0  0  0  0  0  0  0  0  0  0  0  0
  -21.5910   -6.6270   22.6230 C   0  0  0  0  0  0  0  0  0  0  0  0
  -20.9050   -7.4270   23.5620 C   0  0  0  0  0  3  0  0  0  0  0  0
  -20.4920   -6.8720   24.7900 C   0  0  0  0  0  3  0  0  0  0  0  0
  -20.7560   -5.5180   25.0770 C   0  0  0  0  0  0  0  0  0  0  0  0
  -21.4320   -4.7200   24.1380 C   0  0  0  0  0  3  0  0  0  0  0  0
  -21.8470   -5.2710   22.9130 C   0  0  0  0  0  0  0  0  0  0  0  0
  -22.4810   -4.4930   22.0040 F   0  0  0  0  0  0  0  0  0  0  0  0
  -20.3510   -4.9820   26.2510 F   0  0  0  0  0  0  0  0  0  0  0  0
  -23.2300  -13.7190   21.0570 C   0  0  0  0  0  0  0  0  0  0  0  0
  -22.6110  -13.0830   22.0440 N   0  0  0  0  0  0  0  0  0  0  0  0
  -22.7440  -14.7270   20.5420 O   0  0  0  0  0  0  0  0  0  0  0  0
  -23.0180  -12.2670   22.4760 H   0  0  0  0  0  0  0  0  0  0  0  0
  -21.7140  -13.4150   22.3700 H   0  0  0  0  0  0  0  0  0  0  0  0
  -25.8170  -15.3090   20.0040 N   0  0  0  0  0  0  0  0  0  0  0  0
  -25.1100  -15.9890   20.2510 H   0  0  0  0  0  0  0  0  0  0  0  0
  -26.6570  -15.7270   19.6300 H   0  0  0  0  0  0  0  0  0  0  0  0
  -27.8750  -23.8680   19.3810 C   0  0  0  0  0  2  0  0  0  0  0  0
  -28.0320  -25.5470   19.4540 O   0  0  0  0  0  0  0  0  0  0  0  0
  -24.5420  -31.4120   22.7770 C   0  0  0  0  0  0  0  0  0  0  0  0
  -26.9990  -26.6530   19.4330 C   0  0  0  0  0  0  0  0  0  0  0  0
  -23.2620  -29.9900   21.2280 C   0  0  0  0  0  3  0  0  0  0  0  0
  -24.6350  -28.4750   19.6300 C   0  0  0  0  0  0  0  0  0  0  0  0
  -25.7960  -30.3030   20.8520 C   0  0  0  0  0  2  0  0  0  0  0  0
  -25.8590  -28.9040   20.1590 C   0  0  0  0  0  0  0  0  0  0  0  0
  -27.0250  -28.0120   20.0400 C   0  0  0  0  0  3  0  0  0  0  0  0
  -25.7410  -26.4020   18.8410 C   0  0  0  0  0  3  0  0  0  0  0  0
  -24.6010  -27.2500   18.9420 C   0  0  0  0  0  3  0  0  0  0  0  0
  -23.3890  -29.3440   19.8200 C   0  0  0  0  0  2  0  0  0  0  0  0
  -24.5600  -30.5990   21.6710 N   0  0  0  0  0  0  0  0  0  0  0  0
  -23.4930  -31.6420   23.4040 O   0  0  0  0  0  0  0  0  0  0  0  0
  -22.7080  -28.9480   22.2370 C   0  0  0  0  0  0  0  0  0  0  0  0
  -21.4180  -28.5840   22.1130 N   0  0  0  0  0  0  0  0  0  0  0  0
  -23.4480  -28.4670   23.0990 O   0  0  0  0  0  0  0  0  0  0  0  0
  -20.8650  -29.0280   21.3940 H   0  0  0  0  0  0  0  0  0  0  0  0
  -18.3150  -26.7460   22.5220 C   0  0  0  0  0  0  0  0  0  0  0  0
  -20.7340  -27.5670   22.9220 C   0  0  0  0  0  3  0  0  0  0  0  0
  -21.1720  -26.1440   22.5130 C   0  0  0  0  0  2  0  0  0  0  0  0
  -20.2520  -25.5080   21.4680 C   0  0  0  0  0  2  0  0  0  0  0  0
  -18.8200  -25.4120   22.0000 C   0  0  0  0  0  2  0  0  0  0  0  0
  -19.2120  -27.7650   22.9390 C   0  0  0  0  0  0  0  0  0  0  0  0
  -18.6880  -28.9950   23.3900 C   0  0  0  0  0  3  0  0  0  0  0  0
  -17.2980  -29.2160   23.4270 C   0  0  0  0  0  3  0  0  0  0  0  0
  -16.4140  -28.2000   23.0220 C   0  0  0  0  0  3  0  0  0  0  0  0
  -16.9230  -26.9680   22.5770 C   0  0  0  0  0  3  0  0  0  0  0  0
  -25.8350  -32.1060   23.3020 C   0  0  0  0  0  3  0  0  0  0  0  0
  -26.5550  -31.2880   24.4450 C   0  0  1  0  0  0  0  0  0  0  0  0
  -25.6130  -30.8600   25.5960 C   0  0  0  0  0  1  0  0  0  0  0  0
  -27.2130  -30.0100   23.8820 C   0  0  0  0  0  1  0  0  0  0  0  0
  -27.6990  -32.1360   25.0510 C   0  0  0  0  0  1  0  0  0  0  0  0
  -25.4640  -33.4420   23.7990 N   0  0  0  0  0  0  0  0  0  0  0  0
  -25.7250  -34.5980   23.1710 C   0  0  0  0  0  0  0  0  0  0  0  0
  -26.3630  -34.6510   22.1170 O   0  0  0  0  0  0  0  0  0  0  0  0
  -24.8860  -33.4700   24.6260 H   0  0  0  0  0  0  0  0  0  0  0  0
  -23.9200  -36.3550   23.0860 C   0  0  0  0  0  1  0  0  0  0  0  0
  -25.1980  -35.9010   23.8100 C   0  0  0  0  0  3  0  0  0  0  0  0
  -27.3110  -36.7740   24.7090 C   0  0  0  0  0  1  0  0  0  0  0  0
  -26.1880  -37.0020   23.8050 N   0  0  0  0  0  0  0  0  0  0  0  0
  -25.7480  -37.8830   24.0570 H   0  0  0  0  0  0  0  0  0  0  0  0
  1  5  1  0
  2  1  2  0
  3  4  1  0
  4  5  2  0
  4  7  1  0
  6  3  2  0
  6  2  1  0
  7  9  1  1
  7  8  1  0
 10  7  1  0
 11 20  1  0
 11  3  1  0
 12 18  1  0
 12 20  1  0
 13 18  1  0
 14 15  1  0
 14 13  1  0
 16 15  1  0
 16 25  1  0
 16 17  1  0
 18 17  1  0
 19 12  2  0
 20 21  1  0
 22 23  2  0
 23 42  1  0
 24 23  1  0
 24 27  1  0
 25 26  1  0
 25 22  1  0
 26 24  2  0
 27 28  1  0
 28 29  2  0
 30 33  1  0
 30 29  1  0
 31 30  2  0
 32 31  1  0
 32 27  2  0
 33 34  1  0
 34 39  2  0
 34 35  1  0
 35 36  2  0
 36 37  1  0
 37 41  1  0
 38 37  2  0
 39 38  1  0
 40 39  1  0
 42 43  1  0
 43 46  1  0
 43 45  1  0
 44 42  2  0
 47 22  1  0
 47 48  1  0
 49 47  1  0
 50 51  1  0
 50  2  1  0
 52 63  2  0
 53 51  1  0
 53 58  1  0
 54 62  1  0
 54 64  1  0
 55 61  1  0
 55 57  1  0
 56 62  1  0
 57 56  1  0
 58 57  2  0
 59 60  1  0
 59 53  2  0
 60 55  2  0
 61 54  1  0
 62 52  1  0
 64 66  2  0
 65 64  1  0
 67 65  1  0
 68 77  2  0
 68 73  1  0
 69 65  1  0
 69 73  1  0
 70 69  1  0
 71 72  1  0
 71 70  1  0
 72 68  1  0
 73 74  2  0
 74 75  1  0
 76 75  2  0
 77 76  1  0
 78 52  1  0
 78 83  1  0
 78 79  1  0
 79 82  1  1
 79 80  1  0
 81 79  1  0
 83 86  1  0
 84 83  1  0
 84 88  1  0
 85 84  2  0
 88 87  1  0
 90 88  1  0
 90 91  1  0
 90 89  1  0
M  ISO  4  12 100  20 100  50 101  51 101
M  END
>  <TORSDO>  (78) 
F 19

>  <SCORE>  (78) 
-12.990

>  <name>  (78) 
77

>  <ligand_id>  (78) 
77

>  <original_smiles>  (78) 
[H]c1nc(C(F)(F)F)c(C([H])([H])N([H])C(=O)N2C([H])([H])C([H])([H])C([H])([H])C([H])(n3nc(-c4c([H])c([H])c(Oc5c([H])c([H])c(F)c([H])c5F)c([H])c4[H])c(C(=O)N([H])[H])c3N([H])[H])C2([H])[H])nc1C([H])([H])Oc1c([H])c([H])c2c(c1[H])C([H])([H])N(C(=O)C([H])(N([H])C(=O)C([H])(N([H])C([H])([H])[H])C([H])([H])[H])C(C([H])([H])[H])(C([H])([H])[H])C([H])([H])[H])C([H])(C(=O)N([H])C1([H])c3c([H])c([H])c([H])c([H])c3C([H])([H])C([H])([H])C1([H])[H])C2([H])[H]

>  <smiles>  (78) 
[H]c1nc(C(F)(F)F)c(C([H])([H])N([H])C(=O)N2C([H])([H])C([H])([H])C([H])([H])C([H])(n3nc(-c4c([H])c([H])c(Oc5c([H])c([H])c(F)c([H])c5F)c([H])c4[H])c(C(=O)N([H])[H])c3N([H])[H])C2([H])[H])nc1C([H])([H])Oc1c([H])c([H])c2c(c1[H])C([H])([H])N(C(=O)C([H])(N([H])C(=O)C([H])(N([H])C([H])([H])[H])C([H])([H])[H])C(C([H])([H])[H])(C([H])([H])[H])C([H])([H])[H])C([H])(C(=O)N([H])C1([H])c3c([H])c([H])c([H])c([H])c3C([H])([H])C([H])([H])C1([H])[H])C2([H])[H]

$$$$
78:0:0
     RDKit          3D

 87 95  0  0  1  0  0  0  0  0999 V2000
  -28.8530  -21.2800   19.4150 C   0  0  0  0  0  3  0  0  0  0  0  0
  -29.4650  -20.0650   20.1350 C   0  0  0  0  0  0  0  0  0  0  0  0
  -28.7270  -22.5640   20.1230 C   0  0  0  0  0  0  0  0  0  0  0  0
  -29.4920  -22.7890   22.5350 C   0  0  0  0  0  1  0  0  0  0  0  0
  -29.7220  -20.6930   21.3030 N   0  0  0  0  0  0  0  0  0  0  0  0
  -29.3040  -22.0510   21.3020 N   0  0  0  0  0  0  0  0  0  0  0  0
  -30.0840  -18.4190   19.7290 C   0  0  0  0  0  2  0  0  0  0  0  0
  -30.5570  -15.4640   19.9090 C   0  0  0  0  0  0  0  0  0  0  0  0
  -30.4910  -13.0140   18.9600 C   0  0  0  0  0  2  0  0  0  0  0  0
  -29.4900  -12.7930   17.7920 C   0  0  0  0  0  2  0  0  0  0  0  0
  -28.0810  -12.4810   18.3250 C   0  0  0  0  0  2  0  0  0  0  0  0
  -27.7020  -13.4070   19.5050 C   0  0  0  0  0  3  0  0  0  0  0  0
  -28.8310  -13.5310   20.5550 C   0  0  0  0  0  2  0  0  0  0  0  0
  -29.9900  -14.1350   19.8590 N   0  0  0  0  0  0  0  0  0  0  0  0
  -31.7340  -15.4380   19.5080 O   0  0  0  0  0  0  0  0  0  0  0  0
  -28.7650  -16.7600   21.1340 C   0  0  0  0  0  1  0  0  0  0  0  0
  -29.8520  -16.7900   20.1630 N   0  0  0  0  0  0  0  0  0  0  0  0
  -25.3870  -13.9270   20.4370 C   0  0  0  0  0  0  0  0  0  0  0  0
  -24.3560  -13.1360   20.8570 C   0  0  0  0  0  0  0  0  0  0  0  0
  -24.8200  -11.7890   20.7440 C   0  0  0  0  0  0  0  0  0  0  0  0
  -26.4130  -13.0650   20.0940 N   0  0  0  0  0  0  0  0  0  0  0  0
  -26.0880  -11.7690   20.3410 N   0  0  0  0  0  0  0  0  0  0  0  0
  -24.1030  -10.5220   20.9350 C   0  0  0  0  0  0  0  0  0  0  0  0
  -24.5530   -9.5480   21.8540 C   0  0  0  0  0  3  0  0  0  0  0  0
  -23.8310   -8.3500   22.0360 C   0  0  0  0  0  3  0  0  0  0  0  0
  -22.6450   -8.1140   21.2980 C   0  0  0  0  0  0  0  0  0  0  0  0
  -22.2150   -9.0770   20.3690 C   0  0  0  0  0  3  0  0  0  0  0  0
  -22.9370  -10.2680   20.1840 C   0  0  0  0  0  3  0  0  0  0  0  0
  -21.8930   -6.9680   21.3920 O   0  0  0  0  0  0  0  0  0  0  0  0
  -21.8090   -6.2560   22.5610 C   0  0  0  0  0  0  0  0  0  0  0  0
  -21.3020   -6.8280   23.7480 C   0  0  0  0  0  3  0  0  0  0  0  0
  -21.1680   -6.0400   24.9080 C   0  0  0  0  0  3  0  0  0  0  0  0
  -21.5340   -4.6810   24.8830 C   0  0  0  0  0  0  0  0  0  0  0  0
  -22.0340   -4.1080   23.7000 C   0  0  0  0  0  3  0  0  0  0  0  0
  -22.1690   -4.8940   22.5420 C   0  0  0  0  0  0  0  0  0  0  0  0
  -22.6330   -4.3310   21.4000 F   0  0  0  0  0  0  0  0  0  0  0  0
  -21.3980   -3.9210   25.9960 F   0  0  0  0  0  0  0  0  0  0  0  0
  -22.9840  -13.6050   21.2410 C   0  0  0  0  0  0  0  0  0  0  0  0
  -22.3190  -12.8830   22.1350 N   0  0  0  0  0  0  0  0  0  0  0  0
  -22.5150  -14.6470   20.7840 O   0  0  0  0  0  0  0  0  0  0  0  0
  -22.7130  -12.0390   22.5240 H   0  0  0  0  0  0  0  0  0  0  0  0
  -21.4010  -13.1790   22.4370 H   0  0  0  0  0  0  0  0  0  0  0  0
  -25.5180  -15.3020   20.2850 N   0  0  0  0  0  0  0  0  0  0  0  0
  -24.7450  -15.9350   20.4630 H   0  0  0  0  0  0  0  0  0  0  0  0
  -26.3150  -15.7600   19.8630 H   0  0  0  0  0  0  0  0  0  0  0  0
  -27.9050  -24.1390   19.8680 C   0  0  0  0  0  2  0  0  0  0  0  0
  -28.1940  -25.7430   20.2610 O   0  0  0  0  0  0  0  0  0  0  0  0
  -24.6330  -31.8330   23.1410 C   0  0  0  0  0  0  0  0  0  0  0  0
  -27.2150  -26.8930   20.1600 C   0  0  0  0  0  0  0  0  0  0  0  0
  -23.4520  -30.4260   21.5060 C   0  0  0  0  0  3  0  0  0  0  0  0
  -24.9140  -28.8100   20.0950 C   0  0  0  0  0  0  0  0  0  0  0  0
  -26.0220  -30.6250   21.3770 C   0  0  0  0  0  2  0  0  0  0  0  0
  -26.1010  -29.2060   20.7250 C   0  0  0  0  0  0  0  0  0  0  0  0
  -27.2410  -28.2690   20.7360 C   0  0  0  0  0  3  0  0  0  0  0  0
  -25.9990  -26.6740   19.4670 C   0  0  0  0  0  3  0  0  0  0  0  0
  -24.8930  -27.5670   19.4440 C   0  0  0  0  0  3  0  0  0  0  0  0
  -23.6930  -29.7340   20.1340 C   0  0  0  0  0  2  0  0  0  0  0  0
  -24.7240  -30.9900   22.0600 N   0  0  0  0  0  0  0  0  0  0  0  0
  -23.5400  -32.1220   23.6570 O   0  0  0  0  0  0  0  0  0  0  0  0
  -22.7520  -29.4360   22.4750 C   0  0  0  0  0  0  0  0  0  0  0  0
  -21.4200  -29.2770   22.3560 N   0  0  0  0  0  0  0  0  0  0  0  0
  -23.4170  -28.8100   23.3040 O   0  0  0  0  0  0  0  0  0  0  0  0
  -20.9340  -29.8330   21.6670 H   0  0  0  0  0  0  0  0  0  0  0  0
  -18.0360  -28.0710   22.8830 C   0  0  0  0  0  0  0  0  0  0  0  0
  -20.5980  -28.3420   23.1330 C   0  0  0  0  0  3  0  0  0  0  0  0
  -20.6960  -26.9070   22.5620 C   0  0  0  0  0  2  0  0  0  0  0  0
  -19.5910  -26.5810   21.5520 C   0  0  0  0  0  2  0  0  0  0  0  0
  -18.2120  -26.7240   22.2030 C   0  0  0  0  0  2  0  0  0  0  0  0
  -19.1550  -28.8380   23.3050 C   0  0  0  0  0  0  0  0  0  0  0  0
  -18.9340  -30.0970   23.9050 C   0  0  0  0  0  3  0  0  0  0  0  0
  -17.6290  -30.5910   24.0820 C   0  0  0  0  0  3  0  0  0  0  0  0
  -16.5240  -29.8240   23.6730 C   0  0  0  0  0  3  0  0  0  0  0  0
  -16.7290  -28.5650   23.0800 C   0  0  0  0  0  3  0  0  0  0  0  0
  -25.8970  -32.4890   23.7750 C   0  0  0  0  0  3  0  0  0  0  0  0
  -25.5580  -33.8780   24.1340 N   0  0  0  0  0  0  0  0  0  0  0  0
  -25.8500  -34.9570   23.3950 C   0  0  0  0  0  0  0  0  0  0  0  0
  -26.4920  -34.8890   22.3440 O   0  0  0  0  0  0  0  0  0  0  0  0
  -24.9820  -34.0020   24.9530 H   0  0  0  0  0  0  0  0  0  0  0  0
  -24.0770  -36.7300   23.1420 C   0  0  0  0  0  1  0  0  0  0  0  0
  -25.3550  -36.3290   23.8980 C   0  0  0  0  0  3  0  0  0  0  0  0
  -27.4940  -37.2520   24.6780 C   0  0  0  0  0  1  0  0  0  0  0  0
  -26.3620  -37.4060   23.7680 N   0  0  0  0  0  0  0  0  0  0  0  0
  -25.9410  -38.3150   23.9380 H   0  0  0  0  0  0  0  0  0  0  0  0
  -26.4200  -31.7150   25.0480 C   0  0  1  0  0  0  0  0  0  0  0  0
  -25.3260  -31.4510   26.1100 C   0  0  0  0  0  1  0  0  0  0  0  0
  -27.0260  -30.3490   24.6560 C   0  0  0  0  0  1  0  0  0  0  0  0
  -27.5550  -32.5210   25.7200 C   0  0  0  0  0  1  0  0  0  0  0  0
  1  3  2  0
  1  2  1  0
  2  5  2  0
  3  6  1  0
  6  5  1  0
  6  4  1  0
  7  2  1  0
  7 17  1  0
  8 17  1  0
  9 14  1  0
 10 11  1  0
 10  9  1  0
 12 11  1  0
 12 21  1  0
 12 13  1  0
 14  8  1  0
 14 13  1  0
 15  8  2  0
 17 16  1  0
 18 19  2  0
 19 38  1  0
 20 19  1  0
 20 23  1  0
 21 22  1  0
 21 18  1  0
 22 20  2  0
 23 24  1  0
 24 25  2  0
 26 29  1  0
 26 25  1  0
 27 26  2  0
 28 27  1  0
 28 23  2  0
 29 30  1  0
 30 31  1  0
 31 32  2  0
 33 32  1  0
 33 37  1  0
 34 33  2  0
 35 30  2  0
 35 34  1  0
 36 35  1  0
 38 39  1  0
 39 42  1  0
 39 41  1  0
 40 38  2  0
 43 18  1  0
 43 44  1  0
 45 43  1  0
 46  3  1  0
 46 47  1  0
 48 59  2  0
 49 47  1  0
 49 54  1  0
 50 58  1  0
 50 60  1  0
 51 57  1  0
 51 53  1  0
 52 58  1  0
 53 54  2  0
 53 52  1  0
 55 49  2  0
 56 55  1  0
 56 51  2  0
 57 50  1  0
 58 48  1  0
 60 62  2  0
 61 60  1  0
 63 61  1  0
 64 73  2  0
 64 69  1  0
 65 61  1  0
 65 69  1  0
 66 65  1  0
 67 68  1  0
 67 66  1  0
 68 64  1  0
 69 70  2  0
 70 71  1  0
 72 71  2  0
 73 72  1  0
 74 48  1  0
 74 75  1  0
 74 84  1  0
 75 78  1  0
 76 80  1  0
 76 75  1  0
 77 76  2  0
 80 79  1  0
 82 80  1  0
 82 83  1  0
 82 81  1  0
 84 87  1  1
 84 85  1  0
 86 84  1  0
M  ISO  4   8 100  17 100  46 101  47 101
M  END
>  <TORSDO>  (79) 
F 18

>  <SCORE>  (79) 
-16.364

>  <name>  (79) 
78

>  <ligand_id>  (79) 
78

>  <original_smiles>  (79) 
[H]c1c([H])c([H])c2c(c1[H])C([H])([H])C([H])([H])C([H])([H])C2([H])N([H])C(=O)C1([H])N(C(=O)C([H])(N([H])C(=O)C([H])(N([H])C([H])([H])[H])C([H])([H])[H])C(C([H])([H])[H])(C([H])([H])[H])C([H])([H])[H])C([H])([H])c2c([H])c(OC([H])([H])c3c([H])c(C([H])([H])N(C(=O)N4C([H])([H])C([H])([H])C([H])([H])C([H])(n5nc(-c6c([H])c([H])c(Oc7c([H])c([H])c(F)c([H])c7F)c([H])c6[H])c(C(=O)N([H])[H])c5N([H])[H])C4([H])[H])C([H])([H])[H])nn3C([H])([H])[H])c([H])c([H])c2C1([H])[H]

>  <smiles>  (79) 
[H]c1c([H])c([H])c2c(c1[H])C([H])([H])C([H])([H])C([H])([H])C2([H])N([H])C(=O)C1([H])N(C(=O)C([H])(N([H])C(=O)C([H])(N([H])C([H])([H])[H])C([H])([H])[H])C(C([H])([H])[H])(C([H])([H])[H])C([H])([H])[H])C([H])([H])c2c([H])c(OC([H])([H])c3c([H])c(C([H])([H])N(C(=O)N4C([H])([H])C([H])([H])C([H])([H])C([H])(n5nc(-c6c([H])c([H])c(Oc7c([H])c([H])c(F)c([H])c7F)c([H])c6[H])c(C(=O)N([H])[H])c5N([H])[H])C4([H])[H])C([H])([H])[H])nn3C([H])([H])[H])c([H])c([H])c2C1([H])[H]

$$$$
79:0:0
     RDKit          3D

 85 93  0  0  1  0  0  0  0  0999 V2000
  -30.2680  -20.3070   20.7070 C   0  0  0  0  0  2  0  0  0  0  0  0
  -28.7170  -21.9620   20.3290 C   0  0  0  0  0  0  0  0  0  0  0  0
  -30.0370  -21.6990   20.7200 N   0  0  0  0  0  0  0  0  0  0  0  0
  -28.2770  -20.5620   20.1070 N   0  0  0  0  0  2  0  0  0  0  0  0
  -29.3070  -19.4070   20.3280 N   0  0  0  0  0  0  0  0  0  0  0  0
  -28.0990  -17.3850   19.1950 C   0  0  0  0  0  1  0  0  0  0  0  0
  -29.1760  -17.5610   20.2780 C   0  0  0  0  0  3  0  0  0  0  0  0
  -30.1280  -15.8760   20.2080 C   0  0  0  0  0  0  0  0  0  0  0  0
  -30.3340  -13.2830   19.4190 C   0  0  0  0  0  2  0  0  0  0  0  0
  -29.4450  -12.8270   18.2190 C   0  0  0  0  0  2  0  0  0  0  0  0
  -28.0370  -12.4220   18.6820 C   0  0  0  0  0  2  0  0  0  0  0  0
  -27.5050  -13.4150   19.7350 C   0  0  0  0  0  3  0  0  0  0  0  0
  -28.5320  -13.7860   20.8330 C   0  0  0  0  0  2  0  0  0  0  0  0
  -29.6910  -14.4570   20.1850 N   0  0  0  0  0  0  0  0  0  0  0  0
  -31.3640  -15.8270   20.0180 O   0  0  0  0  0  0  0  0  0  0  0  0
  -25.1540  -13.9140   20.5470 C   0  0  0  0  0  0  0  0  0  0  0  0
  -24.1050  -13.1230   20.9140 C   0  0  0  0  0  0  0  0  0  0  0  0
  -24.5850  -11.7770   20.8550 C   0  0  0  0  0  0  0  0  0  0  0  0
  -26.2010  -13.0550   20.2720 N   0  0  0  0  0  0  0  0  0  0  0  0
  -25.8740  -11.7600   20.5250 N   0  0  0  0  0  0  0  0  0  0  0  0
  -23.8680  -10.5070   21.0340 C   0  0  0  0  0  0  0  0  0  0  0  0
  -24.2960   -9.5410   21.9710 C   0  0  0  0  0  3  0  0  0  0  0  0
  -23.5740   -8.3400   22.1410 C   0  0  0  0  0  3  0  0  0  0  0  0
  -22.4100   -8.0960   21.3730 C   0  0  0  0  0  0  0  0  0  0  0  0
  -22.0010   -9.0510   20.4250 C   0  0  0  0  0  3  0  0  0  0  0  0
  -22.7240  -10.2440   20.2550 C   0  0  0  0  0  3  0  0  0  0  0  0
  -21.6620   -6.9460   21.4500 O   0  0  0  0  0  0  0  0  0  0  0  0
  -21.5800   -6.2170   22.6100 C   0  0  0  0  0  0  0  0  0  0  0  0
  -21.0720   -6.7710   23.8060 C   0  0  0  0  0  3  0  0  0  0  0  0
  -20.9410   -5.9670   24.9550 C   0  0  0  0  0  3  0  0  0  0  0  0
  -21.3080   -4.6090   24.9100 C   0  0  0  0  0  0  0  0  0  0  0  0
  -21.8090   -4.0530   23.7190 C   0  0  0  0  0  3  0  0  0  0  0  0
  -21.9410   -4.8550   22.5720 C   0  0  0  0  0  0  0  0  0  0  0  0
  -22.4050   -4.3090   21.4220 F   0  0  0  0  0  0  0  0  0  0  0  0
  -21.1760   -3.8340   26.0110 F   0  0  0  0  0  0  0  0  0  0  0  0
  -22.7070  -13.5860   21.2020 C   0  0  0  0  0  0  0  0  0  0  0  0
  -21.9940  -12.8780   22.0680 N   0  0  0  0  0  0  0  0  0  0  0  0
  -22.2580  -14.6130   20.6930 O   0  0  0  0  0  0  0  0  0  0  0  0
  -22.3700  -12.0480   22.5010 H   0  0  0  0  0  0  0  0  0  0  0  0
  -21.0560  -13.1710   22.3040 H   0  0  0  0  0  0  0  0  0  0  0  0
  -25.3020  -15.2900   20.3920 N   0  0  0  0  0  0  0  0  0  0  0  0
  -24.5300  -15.9330   20.5290 H   0  0  0  0  0  0  0  0  0  0  0  0
  -26.1430  -15.7460   20.0650 H   0  0  0  0  0  0  0  0  0  0  0  0
  -27.8180  -23.6570   20.1770 C   0  0  0  0  0  2  0  0  0  0  0  0
  -28.1040  -25.4250   20.3950 O   0  0  0  0  0  0  0  0  0  0  0  0
  -24.6570  -31.8880   23.2670 C   0  0  0  0  0  0  0  0  0  0  0  0
  -27.1660  -26.7000   20.3250 C   0  0  0  0  0  0  0  0  0  0  0  0
  -23.4730  -30.4890   21.6320 C   0  0  0  0  0  3  0  0  0  0  0  0
  -24.9190  -28.8070   20.2410 C   0  0  0  0  0  0  0  0  0  0  0  0
  -26.0570  -30.5870   21.5350 C   0  0  0  0  0  2  0  0  0  0  0  0
  -26.1160  -29.1410   20.8850 C   0  0  0  0  0  0  0  0  0  0  0  0
  -27.2190  -28.1190   20.8920 C   0  0  0  0  0  3  0  0  0  0  0  0
  -25.9350  -26.6040   19.6190 C   0  0  0  0  0  3  0  0  0  0  0  0
  -24.8730  -27.5660   19.5820 C   0  0  0  0  0  3  0  0  0  0  0  0
  -23.7200  -29.7760   20.2690 C   0  0  0  0  0  2  0  0  0  0  0  0
  -24.7550  -31.0230   22.1970 N   0  0  0  0  0  0  0  0  0  0  0  0
  -23.5620  -32.2030   23.7640 O   0  0  0  0  0  0  0  0  0  0  0  0
  -22.7350  -29.5300   22.6060 C   0  0  0  0  0  0  0  0  0  0  0  0
  -21.4020  -29.3860   22.4720 N   0  0  0  0  0  0  0  0  0  0  0  0
  -23.3770  -28.9110   23.4590 O   0  0  0  0  0  0  0  0  0  0  0  0
  -20.9320  -29.9350   21.7650 H   0  0  0  0  0  0  0  0  0  0  0  0
  -18.0030  -28.1910   22.9670 C   0  0  0  0  0  0  0  0  0  0  0  0
  -20.5630  -28.4600   23.2450 C   0  0  0  0  0  3  0  0  0  0  0  0
  -20.6650  -27.0210   22.6880 C   0  0  0  0  0  2  0  0  0  0  0  0
  -19.5720  -26.6920   21.6660 C   0  0  0  0  0  2  0  0  0  0  0  0
  -18.1840  -26.8390   22.2980 C   0  0  0  0  0  2  0  0  0  0  0  0
  -19.1190  -28.9600   23.3970 C   0  0  0  0  0  0  0  0  0  0  0  0
  -18.8910  -30.2210   23.9890 C   0  0  0  0  0  3  0  0  0  0  0  0
  -17.5830  -30.7160   24.1520 C   0  0  0  0  0  3  0  0  0  0  0  0
  -16.4830  -29.9470   23.7330 C   0  0  0  0  0  3  0  0  0  0  0  0
  -16.6940  -28.6860   23.1480 C   0  0  0  0  0  3  0  0  0  0  0  0
  -25.9180  -32.5380   23.9150 C   0  0  0  0  0  3  0  0  0  0  0  0
  -25.6030  -33.9460   24.2320 N   0  0  0  0  0  0  0  0  0  0  0  0
  -25.9220  -35.0010   23.4700 C   0  0  0  0  0  0  0  0  0  0  0  0
  -26.5660  -34.8920   22.4250 O   0  0  0  0  0  0  0  0  0  0  0  0
  -25.0240  -34.1040   25.0440 H   0  0  0  0  0  0  0  0  0  0  0  0
  -24.1790  -36.8010   23.1860 C   0  0  0  0  0  1  0  0  0  0  0  0
  -25.4580  -36.3990   23.9370 C   0  0  0  0  0  3  0  0  0  0  0  0
  -27.6240  -37.3070   24.6600 C   0  0  0  0  0  1  0  0  0  0  0  0
  -26.4830  -37.4530   23.7620 N   0  0  0  0  0  0  0  0  0  0  0  0
  -26.0800  -38.3750   23.9070 H   0  0  0  0  0  0  0  0  0  0  0  0
  -26.3900  -31.7930   25.2270 C   0  0  1  0  0  0  0  0  0  0  0  0
  -25.2660  -31.5960   26.2720 C   0  0  0  0  0  1  0  0  0  0  0  0
  -26.9650  -30.3980   24.8980 C   0  0  0  0  0  1  0  0  0  0  0  0
  -27.5340  -32.5890   25.8980 C   0  0  0  0  0  1  0  0  0  0  0  0
  1  3  1  0
  2  3  2  0
  4  5  1  0
  4  2  1  0
  5  1  1  0
  7  6  1  0
  7  5  1  0
  8  7  1  0
  9 14  1  0
 10 11  1  0
 10  9  1  0
 12 11  1  0
 12 19  1  0
 12 13  1  0
 14  8  1  0
 14 13  1  0
 15  8  2  0
 16 17  2  0
 17 36  1  0
 18 17  1  0
 18 21  1  0
 19 20  1  0
 19 16  1  0
 20 18  2  0
 21 22  1  0
 22 23  2  0
 24 27  1  0
 24 23  1  0
 25 24  2  0
 26 25  1  0
 26 21  2  0
 27 28  1  0
 28 29  1  0
 29 30  2  0
 31 30  1  0
 31 35  1  0
 32 31  2  0
 33 28  2  0
 33 32  1  0
 34 33  1  0
 36 37  1  0
 37 40  1  0
 37 39  1  0
 38 36  2  0
 41 42  1  0
 41 16  1  0
 43 41  1  0
 44  2  1  0
 44 45  1  0
 46 57  2  0
 47 45  1  0
 47 52  1  0
 48 56  1  0
 48 58  1  0
 49 55  1  0
 49 51  1  0
 50 56  1  0
 51 52  2  0
 51 50  1  0
 53 47  2  0
 54 53  1  0
 54 49  2  0
 55 48  1  0
 56 46  1  0
 58 60  2  0
 59 58  1  0
 61 59  1  0
 62 71  2  0
 62 67  1  0
 63 59  1  0
 63 67  1  0
 64 63  1  0
 65 66  1  0
 65 64  1  0
 66 62  1  0
 67 68  2  0
 68 69  1  0
 70 69  2  0
 71 70  1  0
 72 46  1  0
 72 73  1  0
 72 82  1  0
 73 76  1  0
 74 78  1  0
 74 73  1  0
 75 74  2  0
 78 77  1  0
 80 81  1  0
 80 78  1  0
 80 79  1  0
 82 85  1  1
 82 83  1  0
 84 82  1  0
M  ISO  4   7 100   8 100  44 101  45 101
M  END
>  <TORSDO>  (80) 
F 18

>  <SCORE>  (80) 
-16.644

>  <name>  (80) 
79

>  <ligand_id>  (80) 
79

>  <original_smiles>  (80) 
[H]c1c([H])c([H])c2c(c1[H])C([H])([H])C([H])([H])C([H])([H])C2([H])N([H])C(=O)C1([H])N(C(=O)C([H])(N([H])C(=O)C([H])(N([H])C([H])([H])[H])C([H])([H])[H])C(C([H])([H])[H])(C([H])([H])[H])C([H])([H])[H])C([H])([H])c2c([H])c(OC([H])([H])c3nc([H])n(C([H])(C(=O)N4C([H])([H])C([H])([H])C([H])([H])C([H])(n5nc(-c6c([H])c([H])c(Oc7c([H])c([H])c(F)c([H])c7F)c([H])c6[H])c(C(=O)N([H])[H])c5N([H])[H])C4([H])[H])C([H])([H])[H])n3)c([H])c([H])c2C1([H])[H]

>  <smiles>  (80) 
[H]c1c([H])c([H])c2c(c1[H])C([H])([H])C([H])([H])C([H])([H])C2([H])N([H])C(=O)C1([H])N(C(=O)C([H])(N([H])C(=O)C([H])(N([H])C([H])([H])[H])C([H])([H])[H])C(C([H])([H])[H])(C([H])([H])[H])C([H])([H])[H])C([H])([H])c2c([H])c(OC([H])([H])c3nc([H])n(C([H])(C(=O)N4C([H])([H])C([H])([H])C([H])([H])C([H])(n5nc(-c6c([H])c([H])c(Oc7c([H])c([H])c(F)c([H])c7F)c([H])c6[H])c(C(=O)N([H])[H])c5N([H])[H])C4([H])[H])C([H])([H])[H])n3)c([H])c([H])c2C1([H])[H]

$$$$
80:0:0
     RDKit          3D

 88 96  0  0  1  0  0  0  0  0999 V2000
  -28.4690  -22.1200   19.9850 C   0  0  0  0  0  2  0  0  0  0  0  0
  -29.8480  -18.7510   20.2390 C   0  0  0  0  0  0  0  0  0  0  0  0
  -30.4420  -19.3710   21.3120 N   0  0  0  0  0  0  0  0  0  0  0  0
  -29.0950  -19.6450   19.5560 N   0  0  0  0  0  2  0  0  0  0  0  0
  -30.0500  -20.6280   21.3380 N   0  0  0  0  0  2  0  0  0  0  0  0
  -29.2660  -20.8370   20.2530 N   0  0  0  0  0  0  0  0  0  0  0  0
  -30.2080  -17.2990   19.7060 C   0  0  0  0  0  2  0  0  0  0  0  0
  -30.7010  -14.7840   20.0650 C   0  0  0  0  0  0  0  0  0  0  0  0
  -30.3840  -12.5640   18.9390 C   0  0  0  0  0  2  0  0  0  0  0  0
  -29.3750  -12.6900   17.7750 C   0  0  0  0  0  2  0  0  0  0  0  0
  -27.9260  -12.5250   18.2780 C   0  0  0  0  0  2  0  0  0  0  0  0
  -27.6450  -13.3550   19.5580 C   0  0  0  0  0  3  0  0  0  0  0  0
  -28.7640  -13.1660   20.6030 C   0  0  0  0  0  2  0  0  0  0  0  0
  -30.0260  -13.5760   19.9660 N   0  0  0  0  0  0  0  0  0  0  0  0
  -31.8230  -14.8670   19.5530 O   0  0  0  0  0  0  0  0  0  0  0  0
  -29.4600  -16.0680   21.7890 C   0  0  0  0  0  1  0  0  0  0  0  0
  -30.0310  -15.9570   20.4420 N   0  0  0  0  0  0  0  0  0  0  0  0
  -25.3100  -13.9590   20.4280 C   0  0  0  0  0  0  0  0  0  0  0  0
  -24.2540  -13.1890   20.8350 C   0  0  0  0  0  0  0  0  0  0  0  0
  -24.6940  -11.8330   20.7390 C   0  0  0  0  0  0  0  0  0  0  0  0
  -26.3250  -13.0720   20.1100 N   0  0  0  0  0  0  0  0  0  0  0  0
  -25.9640  -11.7860   20.3570 N   0  0  0  0  0  0  0  0  0  0  0  0
  -23.9590  -10.5760   20.9330 C   0  0  0  0  0  0  0  0  0  0  0  0
  -24.4240   -9.5770   21.8160 C   0  0  0  0  0  3  0  0  0  0  0  0
  -23.6880   -8.3850   21.9990 C   0  0  0  0  0  3  0  0  0  0  0  0
  -22.4740   -8.1860   21.2990 C   0  0  0  0  0  0  0  0  0  0  0  0
  -22.0300   -9.1740   20.4030 C   0  0  0  0  0  3  0  0  0  0  0  0
  -22.7650  -10.3570   20.2190 C   0  0  0  0  0  3  0  0  0  0  0  0
  -21.7070   -7.0510   21.3950 O   0  0  0  0  0  0  0  0  0  0  0  0
  -21.6940   -6.2860   22.5340 C   0  0  0  0  0  0  0  0  0  0  0  0
  -21.3520   -6.8270   23.7930 C   0  0  0  0  0  3  0  0  0  0  0  0
  -21.2850   -5.9890   24.9240 C   0  0  0  0  0  3  0  0  0  0  0  0
  -21.5490   -4.6120   24.7980 C   0  0  0  0  0  0  0  0  0  0  0  0
  -21.8850   -4.0710   23.5440 C   0  0  0  0  0  3  0  0  0  0  0  0
  -21.9540   -4.9060   22.4150 C   0  0  0  0  0  0  0  0  0  0  0  0
  -22.2570   -4.3760   21.2060 F   0  0  0  0  0  0  0  0  0  0  0  0
  -21.4770   -3.8060   25.8830 F   0  0  0  0  0  0  0  0  0  0  0  0
  -22.8820  -13.6790   21.1970 C   0  0  0  0  0  0  0  0  0  0  0  0
  -22.1970  -12.9720   22.0900 N   0  0  0  0  0  0  0  0  0  0  0  0
  -22.4290  -14.7210   20.7270 O   0  0  0  0  0  0  0  0  0  0  0  0
  -22.5750  -12.1270   22.4910 H   0  0  0  0  0  0  0  0  0  0  0  0
  -21.2800  -13.2830   22.3790 H   0  0  0  0  0  0  0  0  0  0  0  0
  -25.4870  -15.3310   20.2820 N   0  0  0  0  0  0  0  0  0  0  0  0
  -24.7430  -15.9970   20.4620 H   0  0  0  0  0  0  0  0  0  0  0  0
  -26.3260  -15.7650   19.9190 H   0  0  0  0  0  0  0  0  0  0  0  0
  -28.9990  -23.6240   20.3210 C   0  0  0  0  0  3  0  0  0  0  0  0
  -27.9960  -24.8660   19.9920 C   0  0  0  0  0  3  0  0  0  0  0  0
  -28.2730  -26.3360   20.2280 O   0  0  0  0  0  0  0  0  0  0  0  0
  -24.6210  -31.8890   23.2260 C   0  0  0  0  0  0  0  0  0  0  0  0
  -27.1880  -27.2540   20.1680 C   0  0  0  0  0  0  0  0  0  0  0  0
  -23.4040  -30.4860   21.6020 C   0  0  0  0  0  3  0  0  0  0  0  0
  -24.8410  -28.9260   20.1670 C   0  0  0  0  0  0  0  0  0  0  0  0
  -25.9520  -30.7790   21.4070 C   0  0  0  0  0  2  0  0  0  0  0  0
  -26.0210  -29.3950   20.7590 C   0  0  0  0  0  0  0  0  0  0  0  0
  -27.1980  -28.5710   20.7480 C   0  0  0  0  0  3  0  0  0  0  0  0
  -25.9820  -26.8670   19.5400 C   0  0  0  0  0  3  0  0  0  0  0  0
  -24.8280  -27.6700   19.5470 C   0  0  0  0  0  3  0  0  0  0  0  0
  -23.6100  -29.8100   20.2230 C   0  0  0  0  0  2  0  0  0  0  0  0
  -24.6790  -31.0700   22.1340 N   0  0  0  0  0  0  0  0  0  0  0  0
  -23.5410  -32.1720   23.7650 O   0  0  0  0  0  0  0  0  0  0  0  0
  -22.7420  -29.4760   22.5700 C   0  0  0  0  0  0  0  0  0  0  0  0
  -21.4140  -29.3030   22.4530 N   0  0  0  0  0  0  0  0  0  0  0  0
  -23.4240  -28.8520   23.3890 O   0  0  0  0  0  0  0  0  0  0  0  0
  -20.9220  -29.8550   21.7640 H   0  0  0  0  0  0  0  0  0  0  0  0
  -18.0400  -28.1020   22.9710 C   0  0  0  0  0  0  0  0  0  0  0  0
  -20.5980  -28.3710   23.2340 C   0  0  0  0  0  3  0  0  0  0  0  0
  -20.7030  -26.9330   22.6720 C   0  0  0  0  0  2  0  0  0  0  0  0
  -19.6010  -26.5990   21.6630 C   0  0  0  0  0  2  0  0  0  0  0  0
  -18.2200  -26.7470   22.3070 C   0  0  0  0  0  2  0  0  0  0  0  0
  -19.1570  -28.8710   23.3920 C   0  0  0  0  0  0  0  0  0  0  0  0
  -18.9350  -30.1380   23.9720 C   0  0  0  0  0  3  0  0  0  0  0  0
  -17.6280  -30.6360   24.1370 C   0  0  0  0  0  3  0  0  0  0  0  0
  -16.5260  -29.8630   23.7330 C   0  0  0  0  0  3  0  0  0  0  0  0
  -16.7320  -28.5990   23.1550 C   0  0  0  0  0  3  0  0  0  0  0  0
  -25.9070  -32.5220   23.8380 C   0  0  0  0  0  3  0  0  0  0  0  0
  -26.4400  -31.7460   25.1040 C   0  0  1  0  0  0  0  0  0  0  0  0
  -25.3580  -31.5030   26.1830 C   0  0  0  0  0  1  0  0  0  0  0  0
  -27.0200  -30.3700   24.7040 C   0  0  0  0  0  1  0  0  0  0  0  0
  -27.5990  -32.5380   25.7530 C   0  0  0  0  0  1  0  0  0  0  0  0
  -25.5970  -33.9180   24.1810 N   0  0  0  0  0  0  0  0  0  0  0  0
  -25.9100  -34.9770   23.4220 C   0  0  0  0  0  0  0  0  0  0  0  0
  -26.5580  -34.8820   22.3760 O   0  0  0  0  0  0  0  0  0  0  0  0
  -25.0180  -34.0660   24.9940 H   0  0  0  0  0  0  0  0  0  0  0  0
  -24.1580  -36.7590   23.1260 C   0  0  0  0  0  1  0  0  0  0  0  0
  -25.4270  -36.3610   23.8980 C   0  0  0  0  0  3  0  0  0  0  0  0
  -27.5800  -37.2560   24.6650 C   0  0  0  0  0  1  0  0  0  0  0  0
  -26.4480  -37.4220   23.7570 N   0  0  0  0  0  0  0  0  0  0  0  0
  -26.0410  -38.3380   23.9230 H   0  0  0  0  0  0  0  0  0  0  0  0
  1  6  1  0
  1 46  1  0
  2  3  2  0
  3  5  1  0
  4  2  1  0
  4  6  1  0
  6  5  1  0
  7  2  1  0
  7 17  1  0
  8 17  1  0
  9 14  1  0
 10 11  1  0
 10  9  1  0
 12 11  1  0
 12 21  1  0
 12 13  1  0
 14  8  1  0
 14 13  1  0
 15  8  2  0
 17 16  1  0
 18 19  2  0
 19 38  1  0
 20 19  1  0
 20 23  1  0
 21 22  1  0
 21 18  1  0
 22 20  2  0
 23 24  1  0
 24 25  2  0
 26 29  1  0
 26 25  1  0
 27 26  2  0
 28 27  1  0
 28 23  2  0
 29 30  1  0
 30 31  1  0
 31 32  2  0
 33 32  1  0
 33 37  1  0
 34 33  2  0
 35 30  2  0
 35 34  1  0
 36 35  1  0
 38 39  1  0
 39 42  1  0
 39 41  1  0
 40 38  2  0
 43 18  1  0
 43 44  1  0
 45 43  1  0
 47 48  1  0
 47 46  2  0
 49 60  2  0
 50 48  1  0
 50 55  1  0
 51 59  1  0
 51 61  1  0
 52 58  1  0
 52 54  1  0
 53 59  1  0
 54 53  1  0
 55 54  2  0
 56 57  1  0
 56 50  2  0
 57 52  2  0
 58 51  1  0
 59 49  1  0
 61 63  2  0
 62 61  1  0
 64 62  1  0
 65 74  2  0
 65 70  1  0
 66 62  1  0
 66 70  1  0
 67 66  1  0
 68 69  1  0
 68 67  1  0
 69 65  1  0
 70 71  2  0
 71 72  1  0
 73 72  2  0
 74 73  1  0
 75 49  1  0
 75 80  1  0
 75 76  1  0
 76 79  1  1
 76 77  1  0
 78 76  1  0
 80 83  1  0
 81 85  1  0
 81 80  1  0
 82 81  2  0
 85 84  1  0
 87 85  1  0
 87 88  1  0
 87 86  1  0
M  ISO  4   8 100  17 100  47 101  48 101
M  END
>  <TORSDO>  (81) 
F 20

>  <SCORE>  (81) 
-13.293

>  <name>  (81) 
80

>  <ligand_id>  (81) 
80

>  <original_smiles>  (81) 
[H]c1c([H])c([H])c2c(c1[H])C([H])([H])C([H])([H])C([H])([H])C2([H])N([H])C(=O)C1([H])N(C(=O)C([H])(N([H])C(=O)C([H])(N([H])C([H])([H])[H])C([H])([H])[H])C(C([H])([H])[H])(C([H])([H])[H])C([H])([H])[H])C([H])([H])c2c([H])c(OC([H])([H])C([H])([H])C([H])([H])n3nnc(C([H])([H])N(C(=O)N4C([H])([H])C([H])([H])C([H])([H])C([H])(n5nc(-c6c([H])c([H])c(Oc7c([H])c([H])c(F)c([H])c7F)c([H])c6[H])c(C(=O)N([H])[H])c5N([H])[H])C4([H])[H])C([H])([H])[H])n3)c([H])c([H])c2C1([H])[H]

>  <smiles>  (81) 
[H]c1c([H])c([H])c2c(c1[H])C([H])([H])C([H])([H])C([H])([H])C2([H])N([H])C(=O)C1([H])N(C(=O)C([H])(N([H])C(=O)C([H])(N([H])C([H])([H])[H])C([H])([H])[H])C(C([H])([H])[H])(C([H])([H])[H])C([H])([H])[H])C([H])([H])c2c([H])c(OC([H])([H])C([H])([H])C([H])([H])n3nnc(C([H])([H])N(C(=O)N4C([H])([H])C([H])([H])C([H])([H])C([H])(n5nc(-c6c([H])c([H])c(Oc7c([H])c([H])c(F)c([H])c7F)c([H])c6[H])c(C(=O)N([H])[H])c5N([H])[H])C4([H])[H])C([H])([H])[H])n3)c([H])c([H])c2C1([H])[H]

$$$$
81:0:0
     RDKit          3D

 88 96  0  0  1  0  0  0  0  0999 V2000
  -29.1140  -21.7170   20.4850 C   0  0  0  0  0  2  0  0  0  0  0  0
  -27.5040  -19.3870   18.3390 C   0  0  0  0  0  3  0  0  0  0  0  0
  -29.1680  -18.9500   19.5630 C   0  0  0  0  0  0  0  0  0  0  0  0
  -28.3330  -18.3750   18.6930 N   0  0  0  0  0  0  0  0  0  0  0  0
  -27.7460  -20.5600   18.9020 N   0  0  0  0  0  0  0  0  0  0  0  0
  -28.8270  -20.3640   19.7030 N   0  0  0  0  0  0  0  0  0  0  0  0
  -30.2810  -17.8710   20.0850 C   0  0  0  0  0  2  0  0  0  0  0  0
  -30.6330  -15.1020   19.9630 C   0  0  0  0  0  0  0  0  0  0  0  0
  -30.4870  -12.7600   18.9370 C   0  0  0  0  0  2  0  0  0  0  0  0
  -29.4690  -12.6970   17.7710 C   0  0  0  0  0  2  0  0  0  0  0  0
  -28.0350  -12.4630   18.2860 C   0  0  0  0  0  2  0  0  0  0  0  0
  -27.7050  -13.3500   19.5140 C   0  0  0  0  0  3  0  0  0  0  0  0
  -28.8350  -13.2820   20.5610 C   0  0  0  0  0  2  0  0  0  0  0  0
  -30.0420  -13.8200   19.9010 N   0  0  0  0  0  0  0  0  0  0  0  0
  -31.7900  -15.1610   19.5250 O   0  0  0  0  0  0  0  0  0  0  0  0
  -28.8940  -16.2840   21.3320 C   0  0  0  0  0  1  0  0  0  0  0  0
  -29.9150  -16.3210   20.2800 N   0  0  0  0  0  0  0  0  0  0  0  0
  -25.3720  -13.9200   20.4050 C   0  0  0  0  0  0  0  0  0  0  0  0
  -24.3320  -13.1390   20.8260 C   0  0  0  0  0  0  0  0  0  0  0  0
  -24.7870  -11.7880   20.7270 C   0  0  0  0  0  0  0  0  0  0  0  0
  -26.3970  -13.0460   20.0820 N   0  0  0  0  0  0  0  0  0  0  0  0
  -26.0560  -11.7560   20.3380 N   0  0  0  0  0  0  0  0  0  0  0  0
  -24.0650  -10.5250   20.9250 C   0  0  0  0  0  0  0  0  0  0  0  0
  -24.5140   -9.5550   21.8470 C   0  0  0  0  0  3  0  0  0  0  0  0
  -23.7900   -8.3570   22.0330 C   0  0  0  0  0  3  0  0  0  0  0  0
  -22.6050   -8.1220   21.2970 C   0  0  0  0  0  0  0  0  0  0  0  0
  -22.1760   -9.0820   20.3630 C   0  0  0  0  0  3  0  0  0  0  0  0
  -22.9000  -10.2700   20.1740 C   0  0  0  0  0  3  0  0  0  0  0  0
  -21.8510   -6.9770   21.3930 O   0  0  0  0  0  0  0  0  0  0  0  0
  -21.7720   -6.2640   22.5620 C   0  0  0  0  0  0  0  0  0  0  0  0
  -21.2970   -6.8460   23.7580 C   0  0  0  0  0  3  0  0  0  0  0  0
  -21.1670   -6.0580   24.9200 C   0  0  0  0  0  3  0  0  0  0  0  0
  -21.5010   -4.6910   24.8850 C   0  0  0  0  0  0  0  0  0  0  0  0
  -21.9690   -4.1090   23.6940 C   0  0  0  0  0  3  0  0  0  0  0  0
  -22.1010   -4.8940   22.5350 C   0  0  0  0  0  0  0  0  0  0  0  0
  -22.5320   -4.3250   21.3840 F   0  0  0  0  0  0  0  0  0  0  0  0
  -21.3690   -3.9320   25.9990 F   0  0  0  0  0  0  0  0  0  0  0  0
  -22.9580  -13.6160   21.1990 C   0  0  0  0  0  0  0  0  0  0  0  0
  -22.2830  -12.9000   22.0910 N   0  0  0  0  0  0  0  0  0  0  0  0
  -22.4960  -14.6570   20.7350 O   0  0  0  0  0  0  0  0  0  0  0  0
  -22.6730  -12.0590   22.4890 H   0  0  0  0  0  0  0  0  0  0  0  0
  -21.3640  -13.2000   22.3840 H   0  0  0  0  0  0  0  0  0  0  0  0
  -25.5160  -15.2940   20.2440 N   0  0  0  0  0  0  0  0  0  0  0  0
  -24.7500  -15.9360   20.4180 H   0  0  0  0  0  0  0  0  0  0  0  0
  -26.3300  -15.7470   19.8460 H   0  0  0  0  0  0  0  0  0  0  0  0
  -28.7790  -23.2870   19.8620 C   0  0  0  0  0  2  0  0  0  0  0  0
  -28.2660  -24.6910   20.6870 C   0  0  0  0  0  2  0  0  0  0  0  0
  -28.3980  -26.2110   20.3120 O   0  0  0  0  0  0  0  0  0  0  0  0
  -24.6700  -31.9020   23.2700 C   0  0  0  0  0  0  0  0  0  0  0  0
  -27.3080  -27.1610   20.3170 C   0  0  0  0  0  0  0  0  0  0  0  0
  -23.4870  -30.4710   21.6460 C   0  0  0  0  0  3  0  0  0  0  0  0
  -24.9560  -28.8830   20.2540 C   0  0  0  0  0  0  0  0  0  0  0  0
  -26.0390  -30.7590   21.4810 C   0  0  0  0  0  2  0  0  0  0  0  0
  -26.1310  -29.3550   20.8530 C   0  0  0  0  0  0  0  0  0  0  0  0
  -27.3100  -28.5140   20.8580 C   0  0  0  0  0  3  0  0  0  0  0  0
  -26.1030  -26.7850   19.6900 C   0  0  0  0  0  3  0  0  0  0  0  0
  -24.9550  -27.6110   19.6560 C   0  0  0  0  0  3  0  0  0  0  0  0
  -23.7200  -29.7710   20.2800 C   0  0  0  0  0  2  0  0  0  0  0  0
  -24.7520  -31.0680   22.1870 N   0  0  0  0  0  0  0  0  0  0  0  0
  -23.5790  -32.1820   23.7910 O   0  0  0  0  0  0  0  0  0  0  0  0
  -22.8150  -29.4730   22.6230 C   0  0  0  0  0  0  0  0  0  0  0  0
  -21.4900  -29.2840   22.4910 N   0  0  0  0  0  0  0  0  0  0  0  0
  -23.4890  -28.8690   23.4610 O   0  0  0  0  0  0  0  0  0  0  0  0
  -21.0020  -29.8220   21.7900 H   0  0  0  0  0  0  0  0  0  0  0  0
  -18.1230  -28.0430   22.9920 C   0  0  0  0  0  0  0  0  0  0  0  0
  -20.6760  -28.3470   23.2720 C   0  0  0  0  0  3  0  0  0  0  0  0
  -20.8030  -26.9070   22.7230 C   0  0  0  0  0  2  0  0  0  0  0  0
  -19.7130  -26.5510   21.7070 C   0  0  0  0  0  2  0  0  0  0  0  0
  -18.3240  -26.6850   22.3400 C   0  0  0  0  0  2  0  0  0  0  0  0
  -19.2260  -28.8300   23.4170 C   0  0  0  0  0  0  0  0  0  0  0  0
  -18.9830  -30.0960   23.9880 C   0  0  0  0  0  3  0  0  0  0  0  0
  -17.6700  -30.5780   24.1400 C   0  0  0  0  0  3  0  0  0  0  0  0
  -16.5800  -29.7890   23.7310 C   0  0  0  0  0  3  0  0  0  0  0  0
  -16.8080  -28.5230   23.1630 C   0  0  0  0  0  3  0  0  0  0  0  0
  -25.9380  -32.5590   23.8920 C   0  0  0  0  0  3  0  0  0  0  0  0
  -26.4540  -31.8110   25.1840 C   0  0  1  0  0  0  0  0  0  0  0  0
  -25.3560  -31.5780   26.2480 C   0  0  0  0  0  1  0  0  0  0  0  0
  -27.0540  -30.4350   24.8200 C   0  0  0  0  0  1  0  0  0  0  0  0
  -27.5910  -32.6280   25.8420 C   0  0  0  0  0  1  0  0  0  0  0  0
  -25.6100  -33.9590   24.2080 N   0  0  0  0  0  0  0  0  0  0  0  0
  -25.9340  -35.0120   23.4450 C   0  0  0  0  0  0  0  0  0  0  0  0
  -26.6050  -34.9070   22.4150 O   0  0  0  0  0  0  0  0  0  0  0  0
  -25.0130  -34.1120   25.0070 H   0  0  0  0  0  0  0  0  0  0  0  0
  -24.1900  -36.7900   23.0800 C   0  0  0  0  0  1  0  0  0  0  0  0
  -25.4350  -36.4000   23.8930 C   0  0  0  0  0  3  0  0  0  0  0  0
  -27.5600  -37.3130   24.7200 C   0  0  0  0  0  1  0  0  0  0  0  0
  -26.4590  -37.4610   23.7720 N   0  0  0  0  0  0  0  0  0  0  0  0
  -26.0450  -38.3800   23.9080 H   0  0  0  0  0  0  0  0  0  0  0  0
  2  4  1  0
  2  5  2  0
  3  6  1  0
  3  7  1  0
  4  3  2  0
  5  6  1  0
  6  1  1  0
  7 17  1  0
  8 17  1  0
  9 14  1  0
 10 11  1  0
 10  9  1  0
 12 11  1  0
 12 21  1  0
 12 13  1  0
 14  8  1  0
 14 13  1  0
 15  8  2  0
 17 16  1  0
 18 19  2  0
 19 38  1  0
 20 19  1  0
 20 23  1  0
 21 22  1  0
 21 18  1  0
 22 20  2  0
 23 24  1  0
 24 25  2  0
 26 29  1  0
 26 25  1  0
 27 26  2  0
 28 27  1  0
 28 23  2  0
 29 30  1  0
 30 31  1  0
 31 32  2  0
 33 32  1  0
 33 37  1  0
 34 33  2  0
 35 30  2  0
 35 34  1  0
 36 35  1  0
 38 39  1  0
 39 42  1  0
 39 41  1  0
 40 38  2  0
 43 18  1  0
 43 44  1  0
 45 43  1  0
 46  1  1  0
 46 47  1  0
 48 50  1  0
 48 47  1  0
 49 60  2  0
 50 55  1  0
 51 59  1  0
 51 61  1  0
 52 58  1  0
 52 54  1  0
 53 59  1  0
 54 55  2  0
 54 53  1  0
 56 50  2  0
 57 56  1  0
 57 52  2  0
 58 51  1  0
 59 49  1  0
 61 63  2  0
 62 61  1  0
 64 62  1  0
 65 74  2  0
 65 70  1  0
 66 62  1  0
 66 70  1  0
 67 66  1  0
 68 69  1  0
 68 67  1  0
 69 65  1  0
 70 71  2  0
 71 72  1  0
 73 72  2  0
 74 73  1  0
 75 49  1  0
 75 80  1  0
 75 76  1  0
 76 79  1  1
 76 77  1  0
 78 76  1  0
 80 83  1  0
 81 85  1  0
 81 80  1  0
 82 81  2  0
 85 84  1  0
 87 85  1  0
 87 88  1  0
 87 86  1  0
M  ISO  4   8 100  17 100  47 101  48 101
M  END
>  <TORSDO>  (82) 
F 20

>  <SCORE>  (82) 
-14.542

>  <name>  (82) 
81

>  <ligand_id>  (82) 
81

>  <original_smiles>  (82) 
[H]c1nc(C([H])([H])N(C(=O)N2C([H])([H])C([H])([H])C([H])([H])C([H])(n3nc(-c4c([H])c([H])c(Oc5c([H])c([H])c(F)c([H])c5F)c([H])c4[H])c(C(=O)N([H])[H])c3N([H])[H])C2([H])[H])C([H])([H])[H])n(C([H])([H])C([H])([H])C([H])([H])Oc2c([H])c([H])c3c(c2[H])C([H])([H])N(C(=O)C([H])(N([H])C(=O)C([H])(N([H])C([H])([H])[H])C([H])([H])[H])C(C([H])([H])[H])(C([H])([H])[H])C([H])([H])[H])C([H])(C(=O)N([H])C2([H])c4c([H])c([H])c([H])c([H])c4C([H])([H])C([H])([H])C2([H])[H])C3([H])[H])n1

>  <smiles>  (82) 
[H]c1nc(C([H])([H])N(C(=O)N2C([H])([H])C([H])([H])C([H])([H])C([H])(n3nc(-c4c([H])c([H])c(Oc5c([H])c([H])c(F)c([H])c5F)c([H])c4[H])c(C(=O)N([H])[H])c3N([H])[H])C2([H])[H])C([H])([H])[H])n(C([H])([H])C([H])([H])C([H])([H])Oc2c([H])c([H])c3c(c2[H])C([H])([H])N(C(=O)C([H])(N([H])C(=O)C([H])(N([H])C([H])([H])[H])C([H])([H])[H])C(C([H])([H])[H])(C([H])([H])[H])C([H])([H])[H])C([H])(C(=O)N([H])C2([H])c4c([H])c([H])c([H])c([H])c4C([H])([H])C([H])([H])C2([H])[H])C3([H])[H])n1

$$$$
82:0:0
     RDKit          3D

 94102  0  0  1  0  0  0  0  0999 V2000
  -30.6150  -20.3280   19.9030 C   0  0  0  0  0  3  0  0  0  0  0  0
  -29.0240  -19.9680   21.3170 C   0  0  0  0  0  3  0  0  0  0  0  0
  -30.4020  -21.4940   20.6400 C   0  0  0  0  0  0  0  0  0  0  0  0
  -29.4020  -21.2200   21.5690 N   0  0  0  0  0  0  0  0  0  0  0  0
  -29.6980  -19.3550   20.3290 N   0  0  0  0  0  0  0  0  0  0  0  0
  -32.2040  -22.7080   21.8590 C   0  0  0  0  0  1  0  0  0  0  0  0
  -32.0930  -22.8690   19.3750 C   0  0  0  0  0  1  0  0  0  0  0  0
  -31.2320  -22.7970   20.6620 C   0  0  1  0  0  0  0  0  0  0  0  0
  -30.4490  -24.1810   20.6600 C   0  0  0  0  0  3  0  0  0  0  0  0
  -29.3730  -24.5620   21.7240 C   0  0  0  0  0  3  0  0  0  0  0  0
  -28.8500  -26.0430   21.6790 C   0  0  0  0  0  2  0  0  0  0  0  0
  -28.5360  -26.5370   20.3520 O   0  0  0  0  0  0  0  0  0  0  0  0
  -24.7040  -31.8220   23.1880 C   0  0  0  0  0  0  0  0  0  0  0  0
  -27.4200  -27.3490   20.2570 C   0  0  0  0  0  0  0  0  0  0  0  0
  -23.5310  -30.4180   21.5150 C   0  0  0  0  0  3  0  0  0  0  0  0
  -25.0310  -28.8710   20.1220 C   0  0  0  0  0  0  0  0  0  0  0  0
  -26.0560  -30.7640   21.3870 C   0  0  0  0  0  2  0  0  0  0  0  0
  -26.1600  -29.3870   20.7670 C   0  0  0  0  0  0  0  0  0  0  0  0
  -27.3520  -28.6330   20.8470 C   0  0  0  0  0  3  0  0  0  0  0  0
  -26.3000  -26.8690   19.5490 C   0  0  0  0  0  3  0  0  0  0  0  0
  -25.1010  -27.6130   19.4940 C   0  0  0  0  0  3  0  0  0  0  0  0
  -23.7800  -29.7310   20.1420 C   0  0  0  0  0  2  0  0  0  0  0  0
  -24.7770  -31.0240   22.0850 N   0  0  0  0  0  0  0  0  0  0  0  0
  -23.6170  -32.0970   23.7100 O   0  0  0  0  0  0  0  0  0  0  0  0
  -22.8610  -29.4030   22.4650 C   0  0  0  0  0  0  0  0  0  0  0  0
  -21.5340  -29.2470   22.3330 N   0  0  0  0  0  0  0  0  0  0  0  0
  -23.5290  -28.7610   23.2800 O   0  0  0  0  0  0  0  0  0  0  0  0
  -21.0550  -29.8170   21.6490 H   0  0  0  0  0  0  0  0  0  0  0  0
  -18.1350  -28.1450   22.8540 C   0  0  0  0  0  0  0  0  0  0  0  0
  -20.7010  -28.3180   23.0980 C   0  0  0  0  0  3  0  0  0  0  0  0
  -20.7520  -26.8970   22.4940 C   0  0  0  0  0  2  0  0  0  0  0  0
  -19.6330  -26.6290   21.4860 C   0  0  0  0  0  2  0  0  0  0  0  0
  -18.2640  -26.8020   22.1510 C   0  0  0  0  0  2  0  0  0  0  0  0
  -19.2810  -28.8620   23.2840 C   0  0  0  0  0  0  0  0  0  0  0  0
  -19.1100  -30.1210   23.9040 C   0  0  0  0  0  3  0  0  0  0  0  0
  -17.8260  -30.6600   24.0940 C   0  0  0  0  0  3  0  0  0  0  0  0
  -16.6920  -29.9390   23.6790 C   0  0  0  0  0  3  0  0  0  0  0  0
  -16.8480  -28.6790   23.0660 C   0  0  0  0  0  3  0  0  0  0  0  0
  -25.9840  -32.4510   23.8320 C   0  0  0  0  0  3  0  0  0  0  0  0
  -25.6650  -33.8450   24.1710 N   0  0  0  0  0  0  0  0  0  0  0  0
  -26.0050  -34.9100   23.4290 C   0  0  0  0  0  0  0  0  0  0  0  0
  -26.6840  -34.8210   22.4030 O   0  0  0  0  0  0  0  0  0  0  0  0
  -25.0570  -33.9910   24.9630 H   0  0  0  0  0  0  0  0  0  0  0  0
  -24.2710  -36.6960   23.0830 C   0  0  0  0  0  1  0  0  0  0  0  0
  -25.5080  -36.2900   23.9000 C   0  0  0  0  0  3  0  0  0  0  0  0
  -27.6280  -37.1750   24.7620 C   0  0  0  0  0  1  0  0  0  0  0  0
  -26.5350  -37.3510   23.8100 N   0  0  0  0  0  0  0  0  0  0  0  0
  -26.1220  -38.2680   23.9600 H   0  0  0  0  0  0  0  0  0  0  0  0
  -26.5070  -31.6640   25.0960 C   0  0  1  0  0  0  0  0  0  0  0  0
  -25.4110  -31.3860   26.1540 C   0  0  0  0  0  1  0  0  0  0  0  0
  -27.1150  -30.3030   24.6790 C   0  0  0  0  0  1  0  0  0  0  0  0
  -27.6440  -32.4670   25.7750 C   0  0  0  0  0  1  0  0  0  0  0  0
  -29.4580  -17.9890   19.7970 C   0  0  0  0  0  2  0  0  0  0  0  0
  -30.6820  -17.0140   19.8380 C   0  0  0  0  0  2  0  0  0  0  0  0
  -30.7210  -14.5330   19.3460 C   0  0  0  0  0  0  0  0  0  0  0  0
  -30.2230  -12.3260   18.2800 C   0  0  0  0  0  2  0  0  0  0  0  0
  -29.1510  -12.4120   17.1700 C   0  0  0  0  0  2  0  0  0  0  0  0
  -27.7480  -12.2280   17.7700 C   0  0  0  0  0  2  0  0  0  0  0  0
  -27.5280  -13.1650   18.9780 C   0  0  0  0  0  3  0  0  0  0  0  0
  -28.6970  -13.0810   19.9780 C   0  0  0  0  0  2  0  0  0  0  0  0
  -29.9630  -13.3810   19.2910 N   0  0  0  0  0  0  0  0  0  0  0  0
  -31.6520  -14.6790   18.5470 O   0  0  0  0  0  0  0  0  0  0  0  0
  -30.3840  -15.5710   20.1980 N   0  0  0  0  0  0  0  0  0  0  0  0
  -25.2350  -13.8170   19.9520 C   0  0  0  0  0  0  0  0  0  0  0  0
  -24.2190  -13.0670   20.4700 C   0  0  0  0  0  0  0  0  0  0  0  0
  -24.6710  -11.7130   20.4400 C   0  0  0  0  0  0  0  0  0  0  0  0
  -26.2410  -12.9180   19.6270 N   0  0  0  0  0  0  0  0  0  0  0  0
  -25.9160  -11.6520   19.9890 N   0  0  0  0  0  0  0  0  0  0  0  0
  -23.9720  -10.4670   20.7700 C   0  0  0  0  0  0  0  0  0  0  0  0
  -24.4550   -9.5980   21.7740 C   0  0  0  0  0  3  0  0  0  0  0  0
  -23.7630   -8.4080   22.0880 C   0  0  0  0  0  3  0  0  0  0  0  0
  -22.5690   -8.0810   21.3960 C   0  0  0  0  0  0  0  0  0  0  0  0
  -22.1020   -8.9400   20.3800 C   0  0  0  0  0  3  0  0  0  0  0  0
  -22.7980  -10.1210   20.0710 C   0  0  0  0  0  3  0  0  0  0  0  0
  -21.8390   -6.9380   21.6130 O   0  0  0  0  0  0  0  0  0  0  0  0
  -21.7790   -6.3480   22.8470 C   0  0  0  0  0  0  0  0  0  0  0  0
  -21.3300   -7.0480   23.9880 C   0  0  0  0  0  3  0  0  0  0  0  0
  -21.2250   -6.3820   25.2250 C   0  0  0  0  0  3  0  0  0  0  0  0
  -21.5520   -5.0150   25.3210 C   0  0  0  0  0  0  0  0  0  0  0  0
  -21.9860   -4.3140   24.1800 C   0  0  0  0  0  3  0  0  0  0  0  0
  -22.0990   -4.9800   22.9470 C   0  0  0  0  0  0  0  0  0  0  0  0
  -22.5050   -4.2950   21.8500 F   0  0  0  0  0  0  0  0  0  0  0  0
  -21.4400   -4.3720   26.5060 F   0  0  0  0  0  0  0  0  0  0  0  0
  -22.8620  -13.5600   20.8840 C   0  0  0  0  0  0  0  0  0  0  0  0
  -22.2640  -12.9250   21.8850 N   0  0  0  0  0  0  0  0  0  0  0  0
  -22.3480  -14.5460   20.3560 O   0  0  0  0  0  0  0  0  0  0  0  0
  -22.6950  -12.1270   22.3310 H   0  0  0  0  0  0  0  0  0  0  0  0
  -21.3610  -13.2390   22.2160 H   0  0  0  0  0  0  0  0  0  0  0  0
  -25.3770  -15.1830   19.7010 N   0  0  0  0  0  0  0  0  0  0  0  0
  -24.6240  -15.8440   19.8670 H   0  0  0  0  0  0  0  0  0  0  0  0
  -26.1880  -15.6110   19.2750 H   0  0  0  0  0  0  0  0  0  0  0  0
  -31.4740  -15.7840   22.5330 C   0  0  0  0  0  1  0  0  0  0  0  0
  -28.9670  -15.9570   22.2390 C   0  0  0  0  0  1  0  0  0  0  0  0
  -30.2630  -15.3510   21.6720 C   0  0  0  0  0  3  0  0  0  0  0  0
  1  5  1  0
  1  3  2  0
  2  4  2  0
  3  8  1  0
  3  4  1  0
  5  2  1  0
  8  7  1  6
  8  6  1  0
  9  8  1  0
  9 10  2  0
 11 10  1  0
 12 11  1  0
 13 24  2  0
 14 12  1  0
 14 19  1  0
 15 23  1  0
 15 25  1  0
 16 22  1  0
 16 18  1  0
 17 23  1  0
 18 19  2  0
 18 17  1  0
 20 14  2  0
 21 20  1  0
 21 16  2  0
 22 15  1  0
 23 13  1  0
 25 27  2  0
 26 25  1  0
 28 26  1  0
 29 38  2  0
 29 34  1  0
 30 26  1  0
 30 34  1  0
 31 30  1  0
 32 33  1  0
 32 31  1  0
 33 29  1  0
 34 35  2  0
 35 36  1  0
 37 36  2  0
 38 37  1  0
 39 13  1  0
 39 40  1  0
 39 49  1  0
 40 43  1  0
 41 45  1  0
 41 40  1  0
 42 41  2  0
 45 44  1  0
 47 45  1  0
 47 48  1  0
 47 46  1  0
 49 52  1  1
 49 50  1  0
 51 49  1  0
 53 54  1  0
 53  5  1  0
 54 63  1  0
 55 63  1  0
 56 61  1  0
 57 58  1  0
 57 56  1  0
 59 58  1  0
 59 67  1  0
 59 60  1  0
 61 55  1  0
 61 60  1  0
 62 55  2  0
 63 94  1  0
 64 65  2  0
 65 84  1  0
 66 65  1  0
 66 69  1  0
 67 64  1  0
 67 68  1  0
 68 66  2  0
 69 70  1  0
 70 71  2  0
 72 75  1  0
 72 71  1  0
 73 72  2  0
 74 73  1  0
 74 69  2  0
 75 76  1  0
 76 81  2  0
 76 77  1  0
 77 78  2  0
 78 79  1  0
 79 83  1  0
 80 79  2  0
 81 80  1  0
 82 81  1  0
 84 85  1  0
 85 88  1  0
 85 87  1  0
 86 84  2  0
 89 90  1  0
 89 64  1  0
 91 89  1  0
 94 93  1  0
 94 92  1  0
M  ISO  4  11 101  12 101  55 100  63 100
M  END
>  <TORSDO>  (83) 
F 23

>  <SCORE>  (83) 
-7.161

>  <name>  (83) 
82

>  <ligand_id>  (83) 
82

>  <original_smiles>  (83) 
[H]c1c([H])c([H])c2c(c1[H])C([H])([H])C([H])([H])C([H])([H])C2([H])N([H])C(=O)C1([H])N(C(=O)C([H])(N([H])C(=O)C([H])(N([H])C([H])([H])[H])C([H])([H])[H])C(C([H])([H])[H])(C([H])([H])[H])C([H])([H])[H])C([H])([H])c2c([H])c(OC([H])([H])C([H])([H])C([H])([H])C(c3nc([H])n(C([H])([H])C([H])([H])N(C(=O)N4C([H])([H])C([H])([H])C([H])([H])C([H])(n5nc(-c6c([H])c([H])c(Oc7c([H])c([H])c(F)c([H])c7F)c([H])c6[H])c(C(=O)N([H])[H])c5N([H])[H])C4([H])[H])C([H])(C([H])([H])[H])C([H])([H])[H])c3[H])(C([H])([H])[H])C([H])([H])[H])c([H])c([H])c2C1([H])[H]

>  <smiles>  (83) 
[H]c1c([H])c([H])c2c(c1[H])C([H])([H])C([H])([H])C([H])([H])C2([H])N([H])C(=O)C1([H])N(C(=O)C([H])(N([H])C(=O)C([H])(N([H])C([H])([H])[H])C([H])([H])[H])C(C([H])([H])[H])(C([H])([H])[H])C([H])([H])[H])C([H])([H])c2c([H])c(OC([H])([H])C([H])([H])C([H])([H])C(c3nc([H])n(C([H])([H])C([H])([H])N(C(=O)N4C([H])([H])C([H])([H])C([H])([H])C([H])(n5nc(-c6c([H])c([H])c(Oc7c([H])c([H])c(F)c([H])c7F)c([H])c6[H])c(C(=O)N([H])[H])c5N([H])[H])C4([H])[H])C([H])(C([H])([H])[H])C([H])([H])[H])c3[H])(C([H])([H])[H])C([H])([H])[H])c([H])c([H])c2C1([H])[H]

$$$$
83:0:0
     RDKit          3D

 89 97  0  0  1  0  0  0  0  0999 V2000
  -27.1140  -19.9890   19.0400 C   0  0  0  0  0  0  0  0  0  0  0  0
  -29.0360  -19.6610   19.8770 C   0  0  0  0  0  3  0  0  0  0  0  0
  -25.7800  -19.6820   18.4510 C   0  0  0  0  0  1  0  0  0  0  0  0
  -28.0070  -19.0120   19.3250 N   0  0  0  0  0  0  0  0  0  0  0  0
  -27.4680  -21.2320   19.3230 N   0  0  0  0  0  2  0  0  0  0  0  0
  -28.7110  -21.1560   19.8760 N   0  0  0  0  0  0  0  0  0  0  0  0
  -31.4450  -18.6720   19.3900 C   0  0  0  0  0  1  0  0  0  0  0  0
  -30.2000  -18.4340   20.2620 C   0  0  0  0  0  3  0  0  0  0  0  0
  -30.6600  -15.4780   20.1570 C   0  0  0  0  0  0  0  0  0  0  0  0
  -30.6220  -13.0400   19.2390 C   0  0  0  0  0  2  0  0  0  0  0  0
  -29.6910  -12.8480   18.0180 C   0  0  0  0  0  2  0  0  0  0  0  0
  -28.2560  -12.5360   18.4800 C   0  0  0  0  0  2  0  0  0  0  0  0
  -27.8080  -13.4710   19.6340 C   0  0  0  0  0  3  0  0  0  0  0  0
  -28.8760  -13.6370   20.7350 C   0  0  0  0  0  2  0  0  0  0  0  0
  -30.0850  -14.1740   20.0820 N   0  0  0  0  0  0  0  0  0  0  0  0
  -31.8820  -15.4510   19.9540 O   0  0  0  0  0  0  0  0  0  0  0  0
  -29.9170  -16.7690   20.2530 N   0  0  0  0  0  0  0  0  0  0  0  0
  -28.9230  -16.6000   20.3190 H   0  0  0  0  0  0  0  0  0  0  0  0
  -25.4440  -13.9750   20.4470 C   0  0  0  0  0  0  0  0  0  0  0  0
  -24.4020  -13.1790   20.8280 C   0  0  0  0  0  0  0  0  0  0  0  0
  -24.8910  -11.8360   20.7750 C   0  0  0  0  0  0  0  0  0  0  0  0
  -26.4980  -13.1200   20.1710 N   0  0  0  0  0  0  0  0  0  0  0  0
  -26.1770  -11.8270   20.4410 N   0  0  0  0  0  0  0  0  0  0  0  0
  -24.1830  -10.5600   20.9610 C   0  0  0  0  0  0  0  0  0  0  0  0
  -24.5890   -9.6260   21.9410 C   0  0  0  0  0  3  0  0  0  0  0  0
  -23.8780   -8.4190   22.1210 C   0  0  0  0  0  3  0  0  0  0  0  0
  -22.7510   -8.1360   21.3160 C   0  0  0  0  0  0  0  0  0  0  0  0
  -22.3610   -9.0580   20.3280 C   0  0  0  0  0  3  0  0  0  0  0  0
  -23.0730  -10.2570   20.1480 C   0  0  0  0  0  3  0  0  0  0  0  0
  -22.0140   -6.9770   21.3970 O   0  0  0  0  0  0  0  0  0  0  0  0
  -21.8450   -6.3170   22.5860 C   0  0  0  0  0  0  0  0  0  0  0  0
  -21.1180   -6.8820   23.6550 C   0  0  0  0  0  3  0  0  0  0  0  0
  -20.9050   -6.1390   24.8340 C   0  0  0  0  0  3  0  0  0  0  0  0
  -21.4100   -4.8300   24.9430 C   0  0  0  0  0  0  0  0  0  0  0  0
  -22.1300   -4.2630   23.8760 C   0  0  0  0  0  3  0  0  0  0  0  0
  -22.3450   -5.0040   22.7000 C   0  0  0  0  0  0  0  0  0  0  0  0
  -23.0200   -4.4430   21.6680 F   0  0  0  0  0  0  0  0  0  0  0  0
  -21.2010   -4.1120   26.0720 F   0  0  0  0  0  0  0  0  0  0  0  0
  -23.0000  -13.6330   21.1170 C   0  0  0  0  0  0  0  0  0  0  0  0
  -22.3000  -12.9430   22.0110 N   0  0  0  0  0  0  0  0  0  0  0  0
  -22.5340  -14.6390   20.5840 O   0  0  0  0  0  0  0  0  0  0  0  0
  -22.6900  -12.1330   22.4720 H   0  0  0  0  0  0  0  0  0  0  0  0
  -21.3610  -13.2380   22.2410 H   0  0  0  0  0  0  0  0  0  0  0  0
  -25.5720  -15.3500   20.2780 N   0  0  0  0  0  0  0  0  0  0  0  0
  -24.7750  -15.9710   20.3750 H   0  0  0  0  0  0  0  0  0  0  0  0
  -26.3880  -15.8090   19.8950 H   0  0  0  0  0  0  0  0  0  0  0  0
  -29.1020  -22.7560   20.2330 C   0  0  0  0  0  3  0  0  0  0  0  0
  -28.1350  -24.2880   19.9580 C   0  0  0  0  0  3  0  0  0  0  0  0
  -28.3190  -25.9240   20.2200 O   0  0  0  0  0  0  0  0  0  0  0  0
  -24.5900  -31.8090   23.2120 C   0  0  0  0  0  0  0  0  0  0  0  0
  -27.2890  -27.0150   20.1560 C   0  0  0  0  0  0  0  0  0  0  0  0
  -23.4530  -30.4200   21.5310 C   0  0  0  0  0  3  0  0  0  0  0  0
  -24.9550  -28.8650   20.1030 C   0  0  0  0  0  0  0  0  0  0  0  0
  -26.0210  -30.6760   21.4340 C   0  0  0  0  0  2  0  0  0  0  0  0
  -26.1270  -29.2790   20.7510 C   0  0  0  0  0  0  0  0  0  0  0  0
  -27.2870  -28.3750   20.7490 C   0  0  0  0  0  3  0  0  0  0  0  0
  -26.0850  -26.7590   19.4610 C   0  0  0  0  0  3  0  0  0  0  0  0
  -24.9630  -27.6290   19.4370 C   0  0  0  0  0  3  0  0  0  0  0  0
  -23.7170  -29.7650   20.1480 C   0  0  0  0  0  2  0  0  0  0  0  0
  -24.7090  -30.9950   22.1120 N   0  0  0  0  0  0  0  0  0  0  0  0
  -23.4860  -32.0690   23.7180 O   0  0  0  0  0  0  0  0  0  0  0  0
  -22.7580  -29.3960   22.4680 C   0  0  0  0  0  0  0  0  0  0  0  0
  -21.4380  -29.1890   22.2980 N   0  0  0  0  0  0  0  0  0  0  0  0
  -23.4160  -28.7860   23.3150 O   0  0  0  0  0  0  0  0  0  0  0  0
  -20.9620  -29.7310   21.5900 H   0  0  0  0  0  0  0  0  0  0  0  0
  -18.0670  -27.9210   22.7460 C   0  0  0  0  0  0  0  0  0  0  0  0
  -20.6200  -28.2200   23.0370 C   0  0  0  0  0  3  0  0  0  0  0  0
  -20.7490  -26.8060   22.4230 C   0  0  0  0  0  2  0  0  0  0  0  0
  -19.6600  -26.4950   21.3910 C   0  0  0  0  0  2  0  0  0  0  0  0
  -18.2710  -26.5960   22.0290 C   0  0  0  0  0  2  0  0  0  0  0  0
  -19.1700  -28.6900   23.2050 C   0  0  0  0  0  0  0  0  0  0  0  0
  -18.9240  -29.9270   23.8370 C   0  0  0  0  0  3  0  0  0  0  0  0
  -17.6080  -30.3970   24.0160 C   0  0  0  0  0  3  0  0  0  0  0  0
  -16.5210  -29.6250   23.5740 C   0  0  0  0  0  3  0  0  0  0  0  0
  -16.7510  -28.3880   22.9440 C   0  0  0  0  0  3  0  0  0  0  0  0
  -25.8360  -32.4680   23.8810 C   0  0  0  0  0  3  0  0  0  0  0  0
  -26.2970  -31.7220   25.1930 C   0  0  1  0  0  0  0  0  0  0  0  0
  -25.1550  -31.4660   26.2050 C   0  0  0  0  0  1  0  0  0  0  0  0
  -26.9350  -30.3560   24.8580 C   0  0  0  0  0  1  0  0  0  0  0  0
  -27.3940  -32.5490   25.9060 C   0  0  0  0  0  1  0  0  0  0  0  0
  -25.4940  -33.8680   24.1890 N   0  0  0  0  0  0  0  0  0  0  0  0
  -25.8340  -34.9260   23.4400 C   0  0  0  0  0  0  0  0  0  0  0  0
  -26.5280  -34.8250   22.4250 O   0  0  0  0  0  0  0  0  0  0  0  0
  -24.8790  -34.0150   24.9760 H   0  0  0  0  0  0  0  0  0  0  0  0
  -24.1200  -36.7260   23.0310 C   0  0  0  0  0  1  0  0  0  0  0  0
  -25.3310  -36.3170   23.8850 C   0  0  0  0  0  3  0  0  0  0  0  0
  -27.4070  -37.2330   24.8260 C   0  0  0  0  0  1  0  0  0  0  0  0
  -26.3680  -37.3700   23.8100 N   0  0  0  0  0  0  0  0  0  0  0  0
  -25.9500  -38.2940   23.9010 H   0  0  0  0  0  0  0  0  0  0  0  0
  1  5  1  0
  1  4  2  0
  2  8  1  0
  3  1  1  0
  4  2  1  0
  5  6  1  0
  6  2  1  0
  6 47  1  0
  8  7  1  0
  9 17  1  0
 10 15  1  0
 11 12  1  0
 11 10  1  0
 13 12  1  0
 13 22  1  0
 13 14  1  0
 15  9  1  0
 15 14  1  0
 16  9  2  0
 17  8  1  0
 17 18  1  0
 19 20  2  0
 20 39  1  0
 21 20  1  0
 21 24  1  0
 22 23  1  0
 22 19  1  0
 23 21  2  0
 24 25  1  0
 25 26  2  0
 27 30  1  0
 27 26  1  0
 28 27  2  0
 29 28  1  0
 29 24  2  0
 30 31  1  0
 31 36  2  0
 31 32  1  0
 32 33  2  0
 33 34  1  0
 34 38  1  0
 35 34  2  0
 36 35  1  0
 37 36  1  0
 39 40  1  0
 40 43  1  0
 40 42  1  0
 41 39  2  0
 44 45  1  0
 44 19  1  0
 46 44  1  0
 48 49  1  0
 48 47  2  0
 50 61  2  0
 51 49  1  0
 51 56  1  0
 52 60  1  0
 52 62  1  0
 53 59  1  0
 53 55  1  0
 54 60  1  0
 55 54  1  0
 56 55  2  0
 57 51  2  0
 58 57  1  0
 58 53  2  0
 59 52  1  0
 60 50  1  0
 62 64  2  0
 63 62  1  0
 65 63  1  0
 66 75  2  0
 66 71  1  0
 67 63  1  0
 67 71  1  0
 68 67  1  0
 69 70  1  0
 69 68  1  0
 70 66  1  0
 71 72  2  0
 72 73  1  0
 74 73  2  0
 75 74  1  0
 76 50  1  0
 76 81  1  0
 76 77  1  0
 77 80  1  1
 77 78  1  0
 79 77  1  0
 81 84  1  0
 82 86  1  0
 82 81  1  0
 83 82  2  0
 86 85  1  0
 88 86  1  0
 88 89  1  0
 88 87  1  0
M  ISO  4   9 100  17 100  48 101  49 101
M  END
>  <TORSDO>  (84) 
F 19

>  <SCORE>  (84) 
-16.062

>  <name>  (84) 
83

>  <ligand_id>  (84) 
83

>  <original_smiles>  (84) 
[H]c1c([H])c([H])c2c(c1[H])C([H])([H])C([H])([H])C([H])([H])C2([H])N([H])C(=O)C1([H])N(C(=O)C([H])(N([H])C(=O)C([H])(N([H])C([H])([H])[H])C([H])([H])[H])C(C([H])([H])[H])(C([H])([H])[H])C([H])([H])[H])C([H])([H])c2c([H])c(OC([H])([H])C([H])([H])n3nc(C([H])([H])[H])nc3C([H])(N([H])C(=O)N3C([H])([H])C([H])([H])C([H])([H])C([H])(n4nc(-c5c([H])c([H])c(Oc6c([H])c([H])c(F)c([H])c6F)c([H])c5[H])c(C(=O)N([H])[H])c4N([H])[H])C3([H])[H])C([H])([H])[H])c([H])c([H])c2C1([H])[H]

>  <smiles>  (84) 
[H]c1c([H])c([H])c2c(c1[H])C([H])([H])C([H])([H])C([H])([H])C2([H])N([H])C(=O)C1([H])N(C(=O)C([H])(N([H])C(=O)C([H])(N([H])C([H])([H])[H])C([H])([H])[H])C(C([H])([H])[H])(C([H])([H])[H])C([H])([H])[H])C([H])([H])c2c([H])c(OC([H])([H])C([H])([H])n3nc(C([H])([H])[H])nc3C([H])(N([H])C(=O)N3C([H])([H])C([H])([H])C([H])([H])C([H])(n4nc(-c5c([H])c([H])c(Oc6c([H])c([H])c(F)c([H])c6F)c([H])c5[H])c(C(=O)N([H])[H])c4N([H])[H])C3([H])[H])C([H])([H])[H])c([H])c([H])c2C1([H])[H]

$$$$
84:0:0
     RDKit          3D

 84 91  0  0  1  0  0  0  0  0999 V2000
  -29.0810  -21.9720   20.2170 C   0  0  0  0  0  1  0  0  0  0  0  0
  -28.1910  -18.0250   20.3790 C   0  0  0  0  0  3  0  0  0  0  0  0
  -29.5690  -17.5950   20.1100 C   0  0  0  0  0  0  0  0  0  0  0  0
  -27.8710  -19.3620   20.4080 N   0  0  0  0  0  0  0  0  0  0  0  0
  -30.0200  -18.9740   19.9980 N   0  0  0  0  0  0  0  0  0  0  0  0
  -28.9890  -20.1350   20.1500 N   0  0  0  0  0  0  0  0  0  0  0  0
  -30.3020  -15.8430   20.0310 C   0  0  0  0  0  0  0  0  0  0  0  0
  -30.4240  -13.2500   19.2870 C   0  0  0  0  0  2  0  0  0  0  0  0
  -29.5250  -12.7750   18.1050 C   0  0  0  0  0  2  0  0  0  0  0  0
  -28.1260  -12.3860   18.5990 C   0  0  0  0  0  2  0  0  0  0  0  0
  -27.6100  -13.4040   19.6390 C   0  0  0  0  0  3  0  0  0  0  0  0
  -28.6510  -13.8040   20.7140 C   0  0  0  0  0  2  0  0  0  0  0  0
  -29.7970  -14.4520   20.0250 N   0  0  0  0  0  0  0  0  0  0  0  0
  -31.5290  -15.7180   19.8130 O   0  0  0  0  0  0  0  0  0  0  0  0
  -25.2870  -13.8960   20.5250 C   0  0  0  0  0  0  0  0  0  0  0  0
  -24.2460  -13.1030   20.9140 C   0  0  0  0  0  0  0  0  0  0  0  0
  -24.7170  -11.7570   20.8210 C   0  0  0  0  0  0  0  0  0  0  0  0
  -26.3210  -13.0370   20.2070 N   0  0  0  0  0  0  0  0  0  0  0  0
  -25.9970  -11.7400   20.4530 N   0  0  0  0  0  0  0  0  0  0  0  0
  -23.9980  -10.4870   21.0010 C   0  0  0  0  0  0  0  0  0  0  0  0
  -24.4240   -9.5180   21.9360 C   0  0  0  0  0  3  0  0  0  0  0  0
  -23.6990   -8.3190   22.1060 C   0  0  0  0  0  3  0  0  0  0  0  0
  -22.5320   -8.0790   21.3430 C   0  0  0  0  0  0  0  0  0  0  0  0
  -22.1240   -9.0370   20.3970 C   0  0  0  0  0  3  0  0  0  0  0  0
  -22.8500  -10.2270   20.2250 C   0  0  0  0  0  3  0  0  0  0  0  0
  -21.7800   -6.9320   21.4220 O   0  0  0  0  0  0  0  0  0  0  0  0
  -21.6700   -6.2220   22.5910 C   0  0  0  0  0  0  0  0  0  0  0  0
  -21.1420   -6.7990   23.7660 C   0  0  0  0  0  3  0  0  0  0  0  0
  -20.9820   -6.0140   24.9260 C   0  0  0  0  0  3  0  0  0  0  0  0
  -21.3410   -4.6530   24.9110 C   0  0  0  0  0  0  0  0  0  0  0  0
  -21.8630   -4.0750   23.7400 C   0  0  0  0  0  3  0  0  0  0  0  0
  -22.0230   -4.8570   22.5830 C   0  0  0  0  0  0  0  0  0  0  0  0
  -22.5060   -4.2900   21.4510 F   0  0  0  0  0  0  0  0  0  0  0  0
  -21.1820   -3.8970   26.0220 F   0  0  0  0  0  0  0  0  0  0  0  0
  -22.8600  -13.5690   21.2470 C   0  0  0  0  0  0  0  0  0  0  0  0
  -22.1680  -12.8550   22.1270 N   0  0  0  0  0  0  0  0  0  0  0  0
  -22.4020  -14.6030   20.7610 O   0  0  0  0  0  0  0  0  0  0  0  0
  -22.5540  -12.0200   22.5400 H   0  0  0  0  0  0  0  0  0  0  0  0
  -21.2390  -13.1490   22.3920 H   0  0  0  0  0  0  0  0  0  0  0  0
  -25.4350  -15.2710   20.3750 N   0  0  0  0  0  0  0  0  0  0  0  0
  -24.6530  -15.9050   20.5040 H   0  0  0  0  0  0  0  0  0  0  0  0
  -26.2220  -15.7030   19.9120 H   0  0  0  0  0  0  0  0  0  0  0  0
  -28.0300  -23.6650   20.1580 C   0  0  0  0  0  1  0  0  0  0  0  0
  -28.1720  -25.4620   20.2850 O   0  0  0  0  0  0  0  0  0  0  0  0
  -24.6920  -31.8440   23.2400 C   0  0  0  0  0  0  0  0  0  0  0  0
  -27.2060  -26.7080   20.2420 C   0  0  0  0  0  0  0  0  0  0  0  0
  -23.5070  -30.4560   21.5940 C   0  0  0  0  0  3  0  0  0  0  0  0
  -24.9520  -28.7950   20.1830 C   0  0  0  0  0  0  0  0  0  0  0  0
  -26.0900  -30.5700   21.4880 C   0  0  0  0  0  2  0  0  0  0  0  0
  -26.1490  -29.1320   20.8250 C   0  0  0  0  0  0  0  0  0  0  0  0
  -27.2570  -28.1200   20.8170 C   0  0  0  0  0  3  0  0  0  0  0  0
  -25.9740  -26.6010   19.5450 C   0  0  0  0  0  3  0  0  0  0  0  0
  -24.9080  -27.5570   19.5170 C   0  0  0  0  0  3  0  0  0  0  0  0
  -23.7510  -29.7590   20.2240 C   0  0  0  0  0  2  0  0  0  0  0  0
  -24.7880  -30.9910   22.1600 N   0  0  0  0  0  0  0  0  0  0  0  0
  -23.5980  -32.1470   23.7460 O   0  0  0  0  0  0  0  0  0  0  0  0
  -22.7780  -29.4830   22.5610 C   0  0  0  0  0  0  0  0  0  0  0  0
  -21.4460  -29.3320   22.4290 N   0  0  0  0  0  0  0  0  0  0  0  0
  -23.4260  -28.8580   23.4050 O   0  0  0  0  0  0  0  0  0  0  0  0
  -20.9720  -29.8860   21.7290 H   0  0  0  0  0  0  0  0  0  0  0  0
  -18.0520  -28.1270   22.9290 C   0  0  0  0  0  0  0  0  0  0  0  0
  -20.6130  -28.3960   23.1950 C   0  0  0  0  0  3  0  0  0  0  0  0
  -20.7140  -26.9640   22.6180 C   0  0  0  0  0  2  0  0  0  0  0  0
  -19.6140  -26.6460   21.5990 C   0  0  0  0  0  2  0  0  0  0  0  0
  -18.2320  -26.7830   22.2410 C   0  0  0  0  0  2  0  0  0  0  0  0
  -19.1690  -28.8900   23.3620 C   0  0  0  0  0  0  0  0  0  0  0  0
  -18.9430  -30.1430   23.9720 C   0  0  0  0  0  3  0  0  0  0  0  0
  -17.6360  -30.6350   24.1480 C   0  0  0  0  0  3  0  0  0  0  0  0
  -16.5340  -29.8700   23.7260 C   0  0  0  0  0  3  0  0  0  0  0  0
  -16.7430  -28.6170   23.1240 C   0  0  0  0  0  3  0  0  0  0  0  0
  -25.9530  -32.4900   23.8910 C   0  0  0  0  0  3  0  0  0  0  0  0
  -25.6330  -33.8940   24.2240 N   0  0  0  0  0  0  0  0  0  0  0  0
  -25.9400  -34.9580   23.4690 C   0  0  0  0  0  0  0  0  0  0  0  0
  -26.5790  -34.8620   22.4190 O   0  0  0  0  0  0  0  0  0  0  0  0
  -25.0610  -34.0400   25.0420 H   0  0  0  0  0  0  0  0  0  0  0  0
  -24.1800  -36.7450   23.2220 C   0  0  0  0  0  1  0  0  0  0  0  0
  -25.4720  -36.3480   23.9530 C   0  0  0  0  0  3  0  0  0  0  0  0
  -27.6400  -37.2690   24.6550 C   0  0  0  0  0  1  0  0  0  0  0  0
  -26.4860  -37.4120   23.7720 N   0  0  0  0  0  0  0  0  0  0  0  0
  -26.0780  -38.3290   23.9290 H   0  0  0  0  0  0  0  0  0  0  0  0
  -26.4340  -31.7330   25.1910 C   0  0  1  0  0  0  0  0  0  0  0  0
  -25.3150  -31.5170   26.2390 C   0  0  0  0  0  1  0  0  0  0  0  0
  -27.0170  -30.3450   24.8430 C   0  0  0  0  0  1  0  0  0  0  0  0
  -27.5750  -32.5280   25.8680 C   0  0  0  0  0  1  0  0  0  0  0  0
  2  4  2  0
  3  2  1  0
  5  3  2  0
  5  6  1  0
  6  1  1  0
  6  4  1  0
  7  3  1  0
  8 13  1  0
  9 10  1  0
  9  8  1  0
 11 10  1  0
 11 18  1  0
 11 12  1  0
 13  7  1  0
 13 12  1  0
 14  7  2  0
 15 16  2  0
 16 35  1  0
 17 16  1  0
 17 20  1  0
 18 19  1  0
 18 15  1  0
 19 17  2  0
 20 21  1  0
 21 22  2  0
 23 26  1  0
 23 22  1  0
 24 23  2  0
 25 24  1  0
 25 20  2  0
 26 27  1  0
 27 28  1  0
 28 29  2  0
 30 29  1  0
 30 34  1  0
 31 30  2  0
 32 27  2  0
 32 31  1  0
 33 32  1  0
 35 36  1  0
 36 39  1  0
 36 38  1  0
 37 35  2  0
 40 41  1  0
 40 15  1  0
 42 40  1  0
 43 44  1  0
 45 56  2  0
 46 44  1  0
 46 51  1  0
 47 55  1  0
 47 57  1  0
 48 54  1  0
 48 50  1  0
 49 55  1  0
 50 49  1  0
 51 50  2  0
 52 46  2  0
 53 52  1  0
 53 48  2  0
 54 47  1  0
 55 45  1  0
 57 59  2  0
 58 57  1  0
 60 58  1  0
 61 70  2  0
 61 66  1  0
 62 58  1  0
 62 66  1  0
 63 62  1  0
 64 65  1  0
 64 63  1  0
 65 61  1  0
 66 67  2  0
 67 68  1  0
 69 68  2  0
 70 69  1  0
 71 45  1  0
 71 72  1  0
 71 81  1  0
 72 75  1  0
 73 77  1  0
 73 72  1  0
 74 73  2  0
 77 76  1  0
 79 80  1  0
 79 77  1  0
 79 78  1  0
 81 84  1  1
 81 82  1  0
 83 81  1  0
M  ISO  4   3 100   7 100  43 101  44 101
M  END
>  <TORSDO>  (85) 
F 18

>  <SCORE>  (85) 
-16.414

>  <name>  (85) 
84

>  <ligand_id>  (85) 
84

>  <original_smiles>  (85) 
[H]c1nn(C([H])([H])C([H])([H])Oc2c([H])c([H])c3c(c2[H])C([H])([H])N(C(=O)C([H])(N([H])C(=O)C([H])(N([H])C([H])([H])[H])C([H])([H])[H])C(C([H])([H])[H])(C([H])([H])[H])C([H])([H])[H])C([H])(C(=O)N([H])C2([H])c4c([H])c([H])c([H])c([H])c4C([H])([H])C([H])([H])C2([H])[H])C3([H])[H])nc1C(=O)N1C([H])([H])C([H])([H])C([H])([H])C([H])(n2nc(-c3c([H])c([H])c(Oc4c([H])c([H])c(F)c([H])c4F)c([H])c3[H])c(C(=O)N([H])[H])c2N([H])[H])C1([H])[H]

>  <smiles>  (85) 
[H]c1nn(C([H])([H])C([H])([H])Oc2c([H])c([H])c3c(c2[H])C([H])([H])N(C(=O)C([H])(N([H])C(=O)C([H])(N([H])C([H])([H])[H])C([H])([H])[H])C(C([H])([H])[H])(C([H])([H])[H])C([H])([H])[H])C([H])(C(=O)N([H])C2([H])c4c([H])c([H])c([H])c([H])c4C([H])([H])C([H])([H])C2([H])[H])C3([H])[H])nc1C(=O)N1C([H])([H])C([H])([H])C([H])([H])C([H])(n2nc(-c3c([H])c([H])c(Oc4c([H])c([H])c(F)c([H])c4F)c([H])c3[H])c(C(=O)N([H])[H])c2N([H])[H])C1([H])[H]

$$$$
85:0:0
     RDKit          3D

 84 92  0  0  1  0  0  0  0  0999 V2000
  -28.2710  -20.4840   20.1890 C   0  0  0  0  0  3  0  0  0  0  0  0
  -28.6710  -21.9440   20.2750 C   0  0  0  0  0  0  0  0  0  0  0  0
  -30.0390  -21.5280   20.4820 N   0  0  0  0  0  0  0  0  0  0  0  0
  -30.3370  -20.1660   20.5300 N   0  0  0  0  0  0  0  0  0  0  0  0
  -29.2700  -19.2860   20.3140 N   0  0  0  0  0  0  0  0  0  0  0  0
  -27.8570  -23.6880   20.1560 C   0  0  0  0  0  2  0  0  0  0  0  0
  -28.1260  -25.4510   20.3230 O   0  0  0  0  0  0  0  0  0  0  0  0
  -24.6400  -31.8530   23.2040 C   0  0  0  0  0  0  0  0  0  0  0  0
  -27.1770  -26.7060   20.2560 C   0  0  0  0  0  0  0  0  0  0  0  0
  -23.4650  -30.4530   21.5610 C   0  0  0  0  0  3  0  0  0  0  0  0
  -24.9210  -28.7870   20.1690 C   0  0  0  0  0  0  0  0  0  0  0  0
  -26.0480  -30.5700   21.4700 C   0  0  0  0  0  2  0  0  0  0  0  0
  -26.1140  -29.1290   20.8180 C   0  0  0  0  0  0  0  0  0  0  0  0
  -27.2230  -28.1190   20.8260 C   0  0  0  0  0  3  0  0  0  0  0  0
  -25.9500  -26.5930   19.5490 C   0  0  0  0  0  3  0  0  0  0  0  0
  -24.8820  -27.5450   19.5100 C   0  0  0  0  0  3  0  0  0  0  0  0
  -23.7180  -29.7480   20.1970 C   0  0  0  0  0  2  0  0  0  0  0  0
  -24.7410  -30.9930   22.1310 N   0  0  0  0  0  0  0  0  0  0  0  0
  -23.5410  -32.1600   23.7000 O   0  0  0  0  0  0  0  0  0  0  0  0
  -22.7300  -29.4860   22.5290 C   0  0  0  0  0  0  0  0  0  0  0  0
  -21.3950  -29.3500   22.4020 N   0  0  0  0  0  0  0  0  0  0  0  0
  -23.3740  -28.8550   23.3700 O   0  0  0  0  0  0  0  0  0  0  0  0
  -20.9240  -29.9090   21.7030 H   0  0  0  0  0  0  0  0  0  0  0  0
  -17.9900  -28.1830   22.9180 C   0  0  0  0  0  0  0  0  0  0  0  0
  -20.5550  -28.4220   23.1710 C   0  0  0  0  0  3  0  0  0  0  0  0
  -20.6360  -26.9900   22.5900 C   0  0  0  0  0  2  0  0  0  0  0  0
  -19.5270  -26.6870   21.5770 C   0  0  0  0  0  2  0  0  0  0  0  0
  -18.1500  -26.8400   22.2270 C   0  0  0  0  0  2  0  0  0  0  0  0
  -19.1190  -28.9330   23.3470 C   0  0  0  0  0  0  0  0  0  0  0  0
  -18.9120  -30.1880   23.9600 C   0  0  0  0  0  3  0  0  0  0  0  0
  -17.6110  -30.6940   24.1450 C   0  0  0  0  0  3  0  0  0  0  0  0
  -16.4980  -29.9440   23.7280 C   0  0  0  0  0  3  0  0  0  0  0  0
  -16.6880  -28.6890   23.1210 C   0  0  0  0  0  3  0  0  0  0  0  0
  -25.8950  -32.5050   23.8580 C   0  0  0  0  0  3  0  0  0  0  0  0
  -25.5720  -33.9080   24.1840 N   0  0  0  0  0  0  0  0  0  0  0  0
  -25.9060  -34.9720   23.4400 C   0  0  0  0  0  0  0  0  0  0  0  0
  -26.5720  -34.8750   22.4070 O   0  0  0  0  0  0  0  0  0  0  0  0
  -24.9770  -34.0560   24.9850 H   0  0  0  0  0  0  0  0  0  0  0  0
  -24.1750  -36.7790   23.1250 C   0  0  0  0  0  1  0  0  0  0  0  0
  -25.4290  -36.3630   23.9130 C   0  0  0  0  0  3  0  0  0  0  0  0
  -27.5740  -37.2530   24.7150 C   0  0  0  0  0  1  0  0  0  0  0  0
  -26.4600  -37.4180   23.7850 N   0  0  0  0  0  0  0  0  0  0  0  0
  -26.0550  -38.3370   23.9340 H   0  0  0  0  0  0  0  0  0  0  0  0
  -26.3720  -31.7520   25.1630 C   0  0  1  0  0  0  0  0  0  0  0  0
  -25.2510  -31.5430   26.2080 C   0  0  0  0  0  1  0  0  0  0  0  0
  -26.9530  -30.3620   24.8230 C   0  0  0  0  0  1  0  0  0  0  0  0
  -27.5130  -32.5490   25.8400 C   0  0  0  0  0  1  0  0  0  0  0  0
  -29.2460  -17.4530   20.4560 C   0  0  0  0  0  2  0  0  0  0  0  0
  -30.1730  -15.7950   20.2350 C   0  0  0  0  0  0  0  0  0  0  0  0
  -30.3550  -13.2220   19.4160 C   0  0  0  0  0  2  0  0  0  0  0  0
  -29.4670  -12.8120   18.2000 C   0  0  0  0  0  2  0  0  0  0  0  0
  -28.0450  -12.4350   18.6450 C   0  0  0  0  0  2  0  0  0  0  0  0
  -27.5240  -13.4210   19.7130 C   0  0  0  0  0  3  0  0  0  0  0  0
  -28.5500  -13.7340   20.8280 C   0  0  0  0  0  2  0  0  0  0  0  0
  -29.7250  -14.3870   20.1990 N   0  0  0  0  0  0  0  0  0  0  0  0
  -31.4000  -15.7570   20.0020 O   0  0  0  0  0  0  0  0  0  0  0  0
  -25.1590  -13.9230   20.4850 C   0  0  0  0  0  0  0  0  0  0  0  0
  -24.1070  -13.1320   20.8520 C   0  0  0  0  0  0  0  0  0  0  0  0
  -24.5910  -11.7870   20.8170 C   0  0  0  0  0  0  0  0  0  0  0  0
  -26.2120  -13.0630   20.2340 N   0  0  0  0  0  0  0  0  0  0  0  0
  -25.8850  -11.7710   20.5020 N   0  0  0  0  0  0  0  0  0  0  0  0
  -23.8740  -10.5180   21.0040 C   0  0  0  0  0  0  0  0  0  0  0  0
  -24.2970   -9.5600   21.9520 C   0  0  0  0  0  3  0  0  0  0  0  0
  -23.5760   -8.3590   22.1290 C   0  0  0  0  0  3  0  0  0  0  0  0
  -22.4150   -8.1070   21.3600 C   0  0  0  0  0  0  0  0  0  0  0  0
  -22.0100   -9.0540   20.4020 C   0  0  0  0  0  3  0  0  0  0  0  0
  -22.7330  -10.2460   20.2220 C   0  0  0  0  0  3  0  0  0  0  0  0
  -21.6660   -6.9580   21.4450 O   0  0  0  0  0  0  0  0  0  0  0  0
  -21.5870   -6.2350   22.6080 C   0  0  0  0  0  0  0  0  0  0  0  0
  -21.0950   -6.8000   23.8050 C   0  0  0  0  0  3  0  0  0  0  0  0
  -20.9650   -6.0020   24.9590 C   0  0  0  0  0  3  0  0  0  0  0  0
  -21.3170   -4.6410   24.9170 C   0  0  0  0  0  0  0  0  0  0  0  0
  -21.8020   -4.0740   23.7250 C   0  0  0  0  0  3  0  0  0  0  0  0
  -21.9330   -4.8690   22.5730 C   0  0  0  0  0  0  0  0  0  0  0  0
  -22.3810   -4.3140   21.4220 F   0  0  0  0  0  0  0  0  0  0  0  0
  -21.1860   -3.8720   26.0240 F   0  0  0  0  0  0  0  0  0  0  0  0
  -22.7050  -13.5950   21.1170 C   0  0  0  0  0  0  0  0  0  0  0  0
  -21.9850  -12.8990   21.9880 N   0  0  0  0  0  0  0  0  0  0  0  0
  -22.2590  -14.6120   20.5870 O   0  0  0  0  0  0  0  0  0  0  0  0
  -22.3590  -12.0780   22.4380 H   0  0  0  0  0  0  0  0  0  0  0  0
  -21.0430  -13.1930   22.2090 H   0  0  0  0  0  0  0  0  0  0  0  0
  -25.3050  -15.2960   20.3120 N   0  0  0  0  0  0  0  0  0  0  0  0
  -24.5290  -15.9390   20.4280 H   0  0  0  0  0  0  0  0  0  0  0  0
  -26.1470  -15.7470   19.9770 H   0  0  0  0  0  0  0  0  0  0  0  0
  1  2  2  0
  1  5  1  0
  2  3  1  0
  3  4  2  0
  5 48  1  0
  5  4  1  0
  6  2  1  0
  6  7  1  0
  8 19  2  0
  9  7  1  0
  9 14  1  0
 10 18  1  0
 10 20  1  0
 11 17  1  0
 11 13  1  0
 12 18  1  0
 13 14  2  0
 13 12  1  0
 15  9  2  0
 16 15  1  0
 16 11  2  0
 17 10  1  0
 18  8  1  0
 20 22  2  0
 21 20  1  0
 23 21  1  0
 24 33  2  0
 24 29  1  0
 25 21  1  0
 25 29  1  0
 26 25  1  0
 27 28  1  0
 27 26  1  0
 28 24  1  0
 29 30  2  0
 30 31  1  0
 32 31  2  0
 33 32  1  0
 34  8  1  0
 34 35  1  0
 34 44  1  0
 35 38  1  0
 36 40  1  0
 36 35  1  0
 37 36  2  0
 40 39  1  0
 42 40  1  0
 42 43  1  0
 42 41  1  0
 44 47  1  1
 44 45  1  0
 46 44  1  0
 49 48  1  0
 50 55  1  0
 51 52  1  0
 51 50  1  0
 53 52  1  0
 53 60  1  0
 53 54  1  0
 55 49  1  0
 55 54  1  0
 56 49  2  0
 57 58  2  0
 58 77  1  0
 59 58  1  0
 59 62  1  0
 60 57  1  0
 60 61  1  0
 61 59  2  0
 62 63  1  0
 63 64  2  0
 65 68  1  0
 65 64  1  0
 66 65  2  0
 67 66  1  0
 67 62  2  0
 68 69  1  0
 69 70  1  0
 70 71  2  0
 72 71  1  0
 72 76  1  0
 73 72  2  0
 74 69  2  0
 74 73  1  0
 75 74  1  0
 77 78  1  0
 78 81  1  0
 78 80  1  0
 79 77  2  0
 82 83  1  0
 82 57  1  0
 84 82  1  0
M  ISO  4   6 101   7 101  48 100  49 100
M  END
>  <TORSDO>  (86) 
F 18

>  <SCORE>  (86) 
-16.473

>  <name>  (86) 
85

>  <ligand_id>  (86) 
85

>  <original_smiles>  (86) 
[H]c1c([H])c([H])c2c(c1[H])C([H])([H])C([H])([H])C([H])([H])C2([H])N([H])C(=O)C1([H])N(C(=O)C([H])(N([H])C(=O)C([H])(N([H])C([H])([H])[H])C([H])([H])[H])C(C([H])([H])[H])(C([H])([H])[H])C([H])([H])[H])C([H])([H])c2c([H])c(OC([H])([H])c3nnn(C([H])([H])C(=O)N4C([H])([H])C([H])([H])C([H])([H])C([H])(n5nc(-c6c([H])c([H])c(Oc7c([H])c([H])c(F)c([H])c7F)c([H])c6[H])c(C(=O)N([H])[H])c5N([H])[H])C4([H])[H])c3[H])c([H])c([H])c2C1([H])[H]

>  <smiles>  (86) 
[H]c1c([H])c([H])c2c(c1[H])C([H])([H])C([H])([H])C([H])([H])C2([H])N([H])C(=O)C1([H])N(C(=O)C([H])(N([H])C(=O)C([H])(N([H])C([H])([H])[H])C([H])([H])[H])C(C([H])([H])[H])(C([H])([H])[H])C([H])([H])[H])C([H])([H])c2c([H])c(OC([H])([H])c3nnn(C([H])([H])C(=O)N4C([H])([H])C([H])([H])C([H])([H])C([H])(n5nc(-c6c([H])c([H])c(Oc7c([H])c([H])c(F)c([H])c7F)c([H])c6[H])c(C(=O)N([H])[H])c5N([H])[H])C4([H])[H])c3[H])c([H])c([H])c2C1([H])[H]

$$$$
86:0:0
     RDKit          3D

 91 99  0  0  1  0  0  0  0  0999 V2000
  -29.9730  -22.4930   18.2870 C   0  0  0  0  0  3  0  0  0  0  0  0
  -29.4850  -23.2460   19.4360 C   0  0  0  0  0  0  0  0  0  0  0  0
  -30.2770  -20.2090   19.2990 C   0  0  0  0  0  0  0  0  0  0  0  0
  -29.7690  -20.9430   20.4600 C   0  0  0  0  0  0  0  0  0  0  0  0
  -30.3540  -21.1170   18.2340 N   0  0  0  0  0  0  0  0  0  0  0  0
  -29.3990  -22.3350   20.5020 N   0  0  0  0  0  0  0  0  0  0  0  0
  -29.6520  -20.1970   21.7940 C   0  0  1  0  0  0  0  0  0  0  0  0
  -29.3350  -18.9140   21.6070 F   0  0  0  0  0  0  0  0  0  0  0  0
  -30.8140  -20.2580   22.4440 F   0  0  0  0  0  0  0  0  0  0  0  0
  -28.7070  -20.7430   22.5630 F   0  0  0  0  0  0  0  0  0  0  0  0
  -31.0430  -18.6410   19.1730 C   0  0  0  0  0  2  0  0  0  0  0  0
  -31.4810  -15.7960   19.4350 C   0  0  0  0  0  0  0  0  0  0  0  0
  -31.4760  -13.2750   18.8560 C   0  0  0  0  0  2  0  0  0  0  0  0
  -30.4780  -12.9050   17.7320 C   0  0  0  0  0  2  0  0  0  0  0  0
  -29.0780  -12.6430   18.3160 C   0  0  0  0  0  2  0  0  0  0  0  0
  -28.6720  -13.7160   19.3570 C   0  0  0  0  0  3  0  0  0  0  0  0
  -29.7950  -14.0350   20.3680 C   0  0  0  0  0  2  0  0  0  0  0  0
  -30.9530  -14.4870   19.5820 N   0  0  0  0  0  0  0  0  0  0  0  0
  -32.6800  -15.8070   19.1260 O   0  0  0  0  0  0  0  0  0  0  0  0
  -30.6940  -17.0450   19.4340 N   0  0  0  0  0  0  0  0  0  0  0  0
  -29.7190  -16.8860   19.6370 H   0  0  0  0  0  0  0  0  0  0  0  0
  -26.4630  -14.3040   20.4850 C   0  0  0  0  0  0  0  0  0  0  0  0
  -25.4080  -13.5450   20.9070 C   0  0  0  0  0  0  0  0  0  0  0  0
  -25.7760  -12.1860   20.6640 C   0  0  0  0  0  0  0  0  0  0  0  0
  -27.4040  -13.4120   20.0060 N   0  0  0  0  0  0  0  0  0  0  0  0
  -27.0110  -12.1220   20.1780 N   0  0  0  0  0  0  0  0  0  0  0  0
  -24.9940  -10.9500   20.8070 C   0  0  0  0  0  0  0  0  0  0  0  0
  -25.3670   -9.9420   21.7230 C   0  0  0  0  0  3  0  0  0  0  0  0
  -24.5860   -8.7730   21.8580 C   0  0  0  0  0  3  0  0  0  0  0  0
  -23.4180   -8.6050   21.0770 C   0  0  0  0  0  0  0  0  0  0  0  0
  -23.0640   -9.6010   20.1510 C   0  0  0  0  0  3  0  0  0  0  0  0
  -23.8450  -10.7610   20.0130 C   0  0  0  0  0  3  0  0  0  0  0  0
  -22.6130   -7.4930   21.1230 O   0  0  0  0  0  0  0  0  0  0  0  0
  -22.2690   -6.9020   22.3120 C   0  0  0  0  0  0  0  0  0  0  0  0
  -21.6050   -7.6160   23.3340 C   0  0  0  0  0  3  0  0  0  0  0  0
  -21.2070   -6.9520   24.5110 C   0  0  0  0  0  3  0  0  0  0  0  0
  -21.4630   -5.5760   24.6660 C   0  0  0  0  0  0  0  0  0  0  0  0
  -22.1200   -4.8630   23.6470 C   0  0  0  0  0  3  0  0  0  0  0  0
  -22.5180   -5.5240   22.4720 C   0  0  0  0  0  0  0  0  0  0  0  0
  -23.1310   -4.8280   21.4850 F   0  0  0  0  0  0  0  0  0  0  0  0
  -21.0760   -4.9360   25.7950 F   0  0  0  0  0  0  0  0  0  0  0  0
  -24.0920  -14.0600   21.4120 C   0  0  0  0  0  0  0  0  0  0  0  0
  -23.4540  -13.3240   22.3150 N   0  0  0  0  0  0  0  0  0  0  0  0
  -23.6460  -15.1460   21.0410 O   0  0  0  0  0  0  0  0  0  0  0  0
  -23.8320  -12.4440   22.6330 H   0  0  0  0  0  0  0  0  0  0  0  0
  -22.5750  -13.6460   22.6960 H   0  0  0  0  0  0  0  0  0  0  0  0
  -26.6900  -15.6770   20.4400 N   0  0  0  0  0  0  0  0  0  0  0  0
  -25.9790  -16.3460   20.7140 H   0  0  0  0  0  0  0  0  0  0  0  0
  -27.4980  -16.1110   20.0160 H   0  0  0  0  0  0  0  0  0  0  0  0
  -28.6710  -24.7940   19.4420 C   0  0  0  0  0  2  0  0  0  0  0  0
  -29.0220  -26.3450   19.8250 O   0  0  0  0  0  0  0  0  0  0  0  0
  -25.2360  -31.5890   23.6960 C   0  0  0  0  0  0  0  0  0  0  0  0
  -28.0110  -27.4340   19.9150 C   0  0  0  0  0  0  0  0  0  0  0  0
  -24.1380  -30.5240   21.7690 C   0  0  0  0  0  3  0  0  0  0  0  0
  -25.6770  -29.2500   20.1290 C   0  0  0  0  0  0  0  0  0  0  0  0
  -26.7030  -30.7960   21.7800 C   0  0  0  0  0  2  0  0  0  0  0  0
  -26.8300  -29.5430   20.8680 C   0  0  0  0  0  0  0  0  0  0  0  0
  -27.9920  -28.6590   20.7430 C   0  0  0  0  0  3  0  0  0  0  0  0
  -26.8260  -27.3000   19.1530 C   0  0  0  0  0  3  0  0  0  0  0  0
  -25.6990  -28.1520   19.2570 C   0  0  0  0  0  3  0  0  0  0  0  0
  -24.4390  -30.1270   20.2980 C   0  0  0  0  0  2  0  0  0  0  0  0
  -25.3780  -30.9850   22.4740 N   0  0  0  0  0  0  0  0  0  0  0  0
  -24.1210  -31.7590   24.2150 O   0  0  0  0  0  0  0  0  0  0  0  0
  -23.4280  -29.3490   22.4920 C   0  0  0  0  0  0  0  0  0  0  0  0
  -22.1150  -29.1740   22.2510 N   0  0  0  0  0  0  0  0  0  0  0  0
  -24.0660  -28.6030   23.2370 O   0  0  0  0  0  0  0  0  0  0  0  0
  -21.6520  -29.8330   21.6410 H   0  0  0  0  0  0  0  0  0  0  0  0
  -18.7520  -27.8140   22.3290 C   0  0  0  0  0  0  0  0  0  0  0  0
  -21.2830  -28.0910   22.7890 C   0  0  0  0  0  3  0  0  0  0  0  0
  -21.4660  -26.7910   21.9700 C   0  0  0  0  0  2  0  0  0  0  0  0
  -20.4330  -26.6340   20.8500 C   0  0  0  0  0  2  0  0  0  0  0  0
  -19.0140  -26.6200   21.4260 C   0  0  0  0  0  2  0  0  0  0  0  0
  -19.8180  -28.5140   22.9550 C   0  0  0  0  0  0  0  0  0  0  0  0
  -19.5190  -29.6350   23.7600 C   0  0  0  0  0  3  0  0  0  0  0  0
  -18.1880  -30.0590   23.9410 C   0  0  0  0  0  3  0  0  0  0  0  0
  -17.1370  -29.3550   23.3280 C   0  0  0  0  0  3  0  0  0  0  0  0
  -17.4190  -28.2330   22.5280 C   0  0  0  0  0  3  0  0  0  0  0  0
  -26.4670  -32.1140   24.4960 C   0  0  0  0  0  3  0  0  0  0  0  0
  -26.8480  -31.1920   25.7200 C   0  0  1  0  0  0  0  0  0  0  0  0
  -25.6590  -30.8850   26.6620 C   0  0  0  0  0  1  0  0  0  0  0  0
  -27.4210  -29.8410   25.2380 C   0  0  0  0  0  1  0  0  0  0  0  0
  -27.9570  -31.8680   26.5590 C   0  0  0  0  0  1  0  0  0  0  0  0
  -26.1560  -33.4760   24.9660 N   0  0  0  0  0  0  0  0  0  0  0  0
  -26.5270  -34.6040   24.3470 C   0  0  0  0  0  0  0  0  0  0  0  0
  -27.2270  -34.6070   23.3320 O   0  0  0  0  0  0  0  0  0  0  0  0
  -25.5380  -33.5480   25.7610 H   0  0  0  0  0  0  0  0  0  0  0  0
  -24.8270  -36.4550   24.1570 C   0  0  0  0  0  1  0  0  0  0  0  0
  -26.0440  -35.9430   24.9450 C   0  0  0  0  0  3  0  0  0  0  0  0
  -28.1590  -36.7120   25.9300 C   0  0  0  0  0  1  0  0  0  0  0  0
  -27.0920  -36.9880   24.9730 N   0  0  0  0  0  0  0  0  0  0  0  0
  -26.6880  -37.8940   25.1980 H   0  0  0  0  0  0  0  0  0  0  0  0
  1  2  1  0
  2 50  1  0
  2  6  2  0
  3  4  2  0
  4  6  1  0
  4  7  1  0
  5  1  2  0
  5  3  1  0
  7  9  1  1
  7 10  1  0
  8  7  1  0
 11  3  1  0
 11 20  1  0
 12 18  1  0
 13 18  1  0
 14 15  1  0
 14 13  1  0
 16 15  1  0
 16 25  1  0
 16 17  1  0
 18 17  1  0
 19 12  2  0
 20 12  1  0
 20 21  1  0
 22 23  2  0
 23 42  1  0
 24 27  1  0
 24 23  1  0
 25 26  1  0
 25 22  1  0
 26 24  2  0
 27 28  1  0
 28 29  2  0
 30 33  1  0
 30 29  1  0
 31 30  2  0
 32 31  1  0
 32 27  2  0
 33 34  1  0
 34 39  2  0
 34 35  1  0
 35 36  2  0
 36 37  1  0
 37 41  1  0
 38 37  2  0
 39 38  1  0
 40 39  1  0
 42 43  1  0
 43 45  1  0
 43 46  1  0
 44 42  2  0
 47 22  1  0
 47 48  1  0
 49 47  1  0
 50 51  1  0
 51 53  1  0
 52 63  2  0
 53 58  1  0
 54 62  1  0
 54 64  1  0
 55 61  1  0
 55 57  1  0
 56 62  1  0
 57 56  1  0
 58 57  2  0
 59 60  1  0
 59 53  2  0
 60 55  2  0
 61 54  1  0
 62 52  1  0
 64 66  2  0
 65 64  1  0
 67 65  1  0
 68 77  2  0
 68 73  1  0
 69 65  1  0
 69 73  1  0
 70 69  1  0
 71 72  1  0
 71 70  1  0
 72 68  1  0
 73 74  2  0
 74 75  1  0
 76 75  2  0
 77 76  1  0
 78 52  1  0
 78 83  1  0
 78 79  1  0
 79 82  1  1
 79 80  1  0
 81 79  1  0
 83 86  1  0
 84 88  1  0
 84 83  1  0
 85 84  2  0
 88 87  1  0
 88 90  1  0
 90 91  1  0
 90 89  1  0
M  ISO  4  12 100  20 100  50 101  51 101
M  END
>  <TORSDO>  (87) 
F 19

>  <SCORE>  (87) 
-10.376

>  <name>  (87) 
86

>  <ligand_id>  (87) 
86

>  <original_smiles>  (87) 
[H]c1nc(C([H])([H])N([H])C(=O)N2C([H])([H])C([H])([H])C([H])([H])C([H])(n3nc(-c4c([H])c([H])c(Oc5c([H])c([H])c(F)c([H])c5F)c([H])c4[H])c(C(=O)N([H])[H])c3N([H])[H])C2([H])[H])c(C(F)(F)F)nc1C([H])([H])Oc1c([H])c([H])c2c(c1[H])C([H])([H])N(C(=O)C([H])(N([H])C(=O)C([H])(N([H])C([H])([H])[H])C([H])([H])[H])C(C([H])([H])[H])(C([H])([H])[H])C([H])([H])[H])C([H])(C(=O)N([H])C1([H])c3c([H])c([H])c([H])c([H])c3C([H])([H])C([H])([H])C1([H])[H])C2([H])[H]

>  <smiles>  (87) 
[H]c1nc(C([H])([H])N([H])C(=O)N2C([H])([H])C([H])([H])C([H])([H])C([H])(n3nc(-c4c([H])c([H])c(Oc5c([H])c([H])c(F)c([H])c5F)c([H])c4[H])c(C(=O)N([H])[H])c3N([H])[H])C2([H])[H])c(C(F)(F)F)nc1C([H])([H])Oc1c([H])c([H])c2c(c1[H])C([H])([H])N(C(=O)C([H])(N([H])C(=O)C([H])(N([H])C([H])([H])[H])C([H])([H])[H])C(C([H])([H])[H])(C([H])([H])[H])C([H])([H])[H])C([H])(C(=O)N([H])C1([H])c3c([H])c([H])c([H])c([H])c3C([H])([H])C([H])([H])C1([H])[H])C2([H])[H]

$$$$
87:0:0
     RDKit          3D

 88 96  0  0  1  0  0  0  0  0999 V2000
  -29.1500  -20.2080   19.9730 C   0  0  0  0  0  3  0  0  0  0  0  0
  -30.4950  -16.5030   20.5610 C   0  0  0  0  0  0  0  0  0  0  0  0
  -30.4540  -17.7520   22.4440 C   0  0  0  0  0  0  0  0  0  0  0  0
  -29.8820  -18.8430   20.5590 C   0  0  0  0  0  0  0  0  0  0  0  0
  -30.6970  -17.8230   23.9390 C   0  0  0  0  0  1  0  0  0  0  0  0
  -30.6630  -16.5680   21.8810 N   0  0  0  0  0  4  0  0  0  0  0  0
  -30.0940  -17.6530   19.8570 N   0  0  0  0  0  0  0  0  0  0  0  0
  -30.0620  -18.8880   21.8710 N   0  0  0  0  0  2  0  0  0  0  0  0
  -31.0380  -15.0420   19.9060 C   0  0  0  0  0  0  0  0  0  0  0  0
  -30.6900  -12.7660   18.8340 C   0  0  0  0  0  2  0  0  0  0  0  0
  -29.6990  -12.8760   17.6510 C   0  0  0  0  0  2  0  0  0  0  0  0
  -28.2520  -12.7140   18.1490 C   0  0  0  0  0  2  0  0  0  0  0  0
  -27.9650  -13.5700   19.4100 C   0  0  0  0  0  3  0  0  0  0  0  0
  -29.0780  -13.4560   20.4750 C   0  0  0  0  0  2  0  0  0  0  0  0
  -30.3470  -13.8260   19.8340 N   0  0  0  0  0  0  0  0  0  0  0  0
  -32.1680  -15.0610   19.3970 O   0  0  0  0  0  0  0  0  0  0  0  0
  -25.6380  -14.1990   20.2650 C   0  0  0  0  0  0  0  0  0  0  0  0
  -24.5700  -13.4490   20.6760 C   0  0  0  0  0  0  0  0  0  0  0  0
  -24.9950  -12.0850   20.6060 C   0  0  0  0  0  0  0  0  0  0  0  0
  -26.6430  -13.2980   19.9650 N   0  0  0  0  0  0  0  0  0  0  0  0
  -26.2690  -12.0190   20.2330 N   0  0  0  0  0  0  0  0  0  0  0  0
  -24.2420  -10.8420   20.8160 C   0  0  0  0  0  0  0  0  0  0  0  0
  -24.6720   -9.8620   21.7370 C   0  0  0  0  0  3  0  0  0  0  0  0
  -23.9180   -8.6850   21.9350 C   0  0  0  0  0  3  0  0  0  0  0  0
  -22.7200   -8.4790   21.2120 C   0  0  0  0  0  0  0  0  0  0  0  0
  -22.3070   -9.4480   20.2790 C   0  0  0  0  0  3  0  0  0  0  0  0
  -23.0610  -10.6170   20.0810 C   0  0  0  0  0  3  0  0  0  0  0  0
  -21.9380   -7.3540   21.3200 O   0  0  0  0  0  0  0  0  0  0  0  0
  -21.8710   -6.6320   22.4840 C   0  0  0  0  0  0  0  0  0  0  0  0
  -21.4910   -7.2250   23.7080 C   0  0  0  0  0  3  0  0  0  0  0  0
  -21.3680   -6.4330   24.8670 C   0  0  0  0  0  3  0  0  0  0  0  0
  -21.6150   -5.0490   24.8030 C   0  0  0  0  0  0  0  0  0  0  0  0
  -21.9890   -4.4550   23.5840 C   0  0  0  0  0  3  0  0  0  0  0  0
  -22.1120   -5.2440   22.4280 C   0  0  0  0  0  0  0  0  0  0  0  0
  -22.4520   -4.6650   21.2520 F   0  0  0  0  0  0  0  0  0  0  0  0
  -21.4910   -4.2860   25.9140 F   0  0  0  0  0  0  0  0  0  0  0  0
  -23.2030  -13.9610   21.0220 C   0  0  0  0  0  0  0  0  0  0  0  0
  -22.5090  -13.2910   21.9340 N   0  0  0  0  0  0  0  0  0  0  0  0
  -22.7620  -14.9940   20.5180 O   0  0  0  0  0  0  0  0  0  0  0  0
  -22.8790  -12.4550   22.3630 H   0  0  0  0  0  0  0  0  0  0  0  0
  -21.5950  -13.6190   22.2110 H   0  0  0  0  0  0  0  0  0  0  0  0
  -25.8320  -15.5670   20.0990 N   0  0  0  0  0  0  0  0  0  0  0  0
  -25.0890  -16.2380   20.2620 H   0  0  0  0  0  0  0  0  0  0  0  0
  -26.6730  -15.9920   19.7310 H   0  0  0  0  0  0  0  0  0  0  0  0
  -29.4200  -21.8100   20.4580 C   0  0  0  0  0  3  0  0  0  0  0  0
  -28.4370  -23.2020   20.2640 C   0  0  0  0  0  2  0  0  0  0  0  0
  -28.3930  -24.7720   19.5910 C   0  0  0  0  0  2  0  0  0  0  0  0
  -28.2460  -26.1950   20.2020 O   0  0  0  0  0  0  0  0  0  0  0  0
  -24.6220  -31.8400   23.1220 C   0  0  0  0  0  0  0  0  0  0  0  0
  -27.1610  -27.1330   20.0710 C   0  0  0  0  0  0  0  0  0  0  0  0
  -23.3900  -30.4370   21.5060 C   0  0  0  0  0  3  0  0  0  0  0  0
  -24.8160  -28.8540   20.0630 C   0  0  0  0  0  0  0  0  0  0  0  0
  -25.9360  -30.7120   21.2930 C   0  0  0  0  0  2  0  0  0  0  0  0
  -25.9990  -29.3170   20.6470 C   0  0  0  0  0  0  0  0  0  0  0  0
  -27.1650  -28.4700   20.6380 C   0  0  0  0  0  3  0  0  0  0  0  0
  -25.9520  -26.7630   19.4420 C   0  0  0  0  0  3  0  0  0  0  0  0
  -24.8030  -27.5890   19.4460 C   0  0  0  0  0  3  0  0  0  0  0  0
  -23.5860  -29.7450   20.1280 C   0  0  0  0  0  2  0  0  0  0  0  0
  -24.6690  -31.0200   22.0280 N   0  0  0  0  0  0  0  0  0  0  0  0
  -23.5460  -32.1280   23.6690 O   0  0  0  0  0  0  0  0  0  0  0  0
  -22.7270  -29.4400   22.4880 C   0  0  0  0  0  0  0  0  0  0  0  0
  -21.3960  -29.2770   22.3910 N   0  0  0  0  0  0  0  0  0  0  0  0
  -23.4140  -28.8120   23.2980 O   0  0  0  0  0  0  0  0  0  0  0  0
  -20.8990  -29.8330   21.7080 H   0  0  0  0  0  0  0  0  0  0  0  0
  -18.0240  -28.0800   22.9540 C   0  0  0  0  0  0  0  0  0  0  0  0
  -20.5860  -28.3460   23.1820 C   0  0  0  0  0  3  0  0  0  0  0  0
  -20.6800  -26.9090   22.6180 C   0  0  0  0  0  2  0  0  0  0  0  0
  -19.5640  -26.5780   21.6220 C   0  0  0  0  0  2  0  0  0  0  0  0
  -18.1910  -26.7270   22.2830 C   0  0  0  0  0  2  0  0  0  0  0  0
  -19.1470  -28.8480   23.3620 C   0  0  0  0  0  0  0  0  0  0  0  0
  -18.9340  -30.1130   23.9500 C   0  0  0  0  0  3  0  0  0  0  0  0
  -17.6310  -30.6110   24.1350 C   0  0  0  0  0  3  0  0  0  0  0  0
  -16.5220  -29.8430   23.7420 C   0  0  0  0  0  3  0  0  0  0  0  0
  -16.7210  -28.5790   23.1570 C   0  0  0  0  0  3  0  0  0  0  0  0
  -25.9140  -32.4740   23.7250 C   0  0  0  0  0  3  0  0  0  0  0  0
  -26.4690  -31.6830   24.9720 C   0  0  1  0  0  0  0  0  0  0  0  0
  -25.4070  -31.4190   26.0660 C   0  0  0  0  0  1  0  0  0  0  0  0
  -27.0490  -30.3150   24.5450 C   0  0  0  0  0  1  0  0  0  0  0  0
  -27.6350  -32.4700   25.6160 C   0  0  0  0  0  1  0  0  0  0  0  0
  -25.5990  -33.8610   24.0990 N   0  0  0  0  0  0  0  0  0  0  0  0
  -25.9050  -34.9390   23.3670 C   0  0  0  0  0  0  0  0  0  0  0  0
  -26.5480  -34.8710   22.3150 O   0  0  0  0  0  0  0  0  0  0  0  0
  -25.0270  -33.9860   24.9230 H   0  0  0  0  0  0  0  0  0  0  0  0
  -24.1540  -36.7320   23.1150 C   0  0  0  0  0  1  0  0  0  0  0  0
  -25.4220  -36.3120   23.8780 C   0  0  0  0  0  3  0  0  0  0  0  0
  -27.5760  -37.1890   24.6670 C   0  0  0  0  0  1  0  0  0  0  0  0
  -26.4440  -37.3760   23.7640 N   0  0  0  0  0  0  0  0  0  0  0  0
  -26.0370  -38.2880   23.9510 H   0  0  0  0  0  0  0  0  0  0  0  0
  1 45  2  0
  1  4  1  0
  2  6  2  0
  3  5  1  0
  4  8  1  0
  6  3  2  0
  7  4  2  0
  7  2  1  0
  8  3  1  0
  9  2  1  0
 10 15  1  0
 11 12  1  0
 11 10  1  0
 13 12  1  0
 13 20  1  0
 13 14  1  0
 15  9  1  0
 15 14  1  0
 16  9  2  0
 17 18  2  0
 18 37  1  0
 19 18  1  0
 19 22  1  0
 20 21  1  0
 20 17  1  0
 21 19  2  0
 22 23  1  0
 23 24  2  0
 25 28  1  0
 25 24  1  0
 26 25  2  0
 27 26  1  0
 27 22  2  0
 28 29  1  0
 29 30  1  0
 30 31  2  0
 32 31  1  0
 32 36  1  0
 33 32  2  0
 34 29  2  0
 34 33  1  0
 35 34  1  0
 37 38  1  0
 38 41  1  0
 38 40  1  0
 39 37  2  0
 42 43  1  0
 42 17  1  0
 44 42  1  0
 46 45  1  0
 47 48  1  0
 47 46  1  0
 49 60  2  0
 50 48  1  0
 50 55  1  0
 51 59  1  0
 51 61  1  0
 52 58  1  0
 52 54  1  0
 53 59  1  0
 54 53  1  0
 55 54  2  0
 56 57  1  0
 56 50  2  0
 57 52  2  0
 58 51  1  0
 59 49  1  0
 61 63  2  0
 62 61  1  0
 64 62  1  0
 65 74  2  0
 65 70  1  0
 66 62  1  0
 66 70  1  0
 67 66  1  0
 68 69  1  0
 68 67  1  0
 69 65  1  0
 70 71  2  0
 71 72  1  0
 73 72  2  0
 74 73  1  0
 75 49  1  0
 75 80  1  0
 75 76  1  0
 76 79  1  1
 76 77  1  0
 78 76  1  0
 80 83  1  0
 81 85  1  0
 81 80  1  0
 82 81  2  0
 85 84  1  0
 87 85  1  0
 87 88  1  0
 87 86  1  0
M  ISO  4   2 100   9 100  47 101  48 101
M  END
>  <TORSDO>  (88) 
F 20

>  <SCORE>  (88) 
-13.588

>  <name>  (88) 
87

>  <ligand_id>  (88) 
87

>  <original_smiles>  (88) 
[H]c1c([H])c([H])c2c(c1[H])C([H])([H])C([H])([H])C([H])([H])C2([H])N([H])C(=O)C1([H])N(C(=O)C([H])(N([H])C(=O)C([H])(N([H])C([H])([H])[H])C([H])([H])[H])C(C([H])([H])[H])(C([H])([H])[H])C([H])([H])[H])C([H])([H])c2c([H])c(OC([H])([H])C([H])([H])C([H])([H])C([H])([H])c3nc(C(=O)N4C([H])([H])C([H])([H])C([H])([H])C([H])(n5nc(-c6c([H])c([H])c(Oc7c([H])c([H])c(F)c([H])c7F)c([H])c6[H])c(C(=O)N([H])[H])c5N([H])[H])C4([H])[H])nc(C([H])([H])[H])n3)c([H])c([H])c2C1([H])[H]

>  <smiles>  (88) 
[H]c1c([H])c([H])c2c(c1[H])C([H])([H])C([H])([H])C([H])([H])C2([H])N([H])C(=O)C1([H])N(C(=O)C([H])(N([H])C(=O)C([H])(N([H])C([H])([H])[H])C([H])([H])[H])C(C([H])([H])[H])(C([H])([H])[H])C([H])([H])[H])C([H])([H])c2c([H])c(OC([H])([H])C([H])([H])C([H])([H])C([H])([H])c3nc(C(=O)N4C([H])([H])C([H])([H])C([H])([H])C([H])(n5nc(-c6c([H])c([H])c(Oc7c([H])c([H])c(F)c([H])c7F)c([H])c6[H])c(C(=O)N([H])[H])c5N([H])[H])C4([H])[H])nc(C([H])([H])[H])n3)c([H])c([H])c2C1([H])[H]

$$$$
88:0:0
     RDKit          3D

 88 96  0  0  1  0  0  0  0  0999 V2000
  -27.9630  -19.6520   20.4430 C   0  0  0  0  0  3  0  0  0  0  0  0
  -29.3530  -19.3490   20.2390 C   0  0  0  0  0  0  0  0  0  0  0  0
  -27.6740  -20.9620   20.4690 N   0  0  0  0  0  0  0  0  0  0  0  0
  -29.8800  -20.6120   20.1500 N   0  0  0  0  0  0  0  0  0  0  0  0
  -28.8550  -21.6200   20.2550 N   0  0  0  0  0  0  0  0  0  0  0  0
  -30.6720  -17.9220   18.5730 C   0  0  0  0  0  1  0  0  0  0  0  0
  -30.1920  -17.8930   20.0360 C   0  0  0  0  0  3  0  0  0  0  0  0
  -30.5280  -15.1200   20.1960 C   0  0  0  0  0  0  0  0  0  0  0  0
  -30.3880  -12.7590   19.2400 C   0  0  0  0  0  2  0  0  0  0  0  0
  -29.4310  -12.7030   18.0260 C   0  0  0  0  0  2  0  0  0  0  0  0
  -27.9770  -12.4870   18.4830 C   0  0  0  0  0  2  0  0  0  0  0  0
  -27.5950  -13.3910   19.6850 C   0  0  0  0  0  3  0  0  0  0  0  0
  -28.6770  -13.4130   20.7850 C   0  0  0  0  0  2  0  0  0  0  0  0
  -29.9190  -13.8560   20.1430 N   0  0  0  0  0  0  0  0  0  0  0  0
  -31.7330  -15.1330   19.9160 O   0  0  0  0  0  0  0  0  0  0  0  0
  -29.7920  -16.3570   20.3290 N   0  0  0  0  0  0  0  0  0  0  0  0
  -28.8210  -16.2260   20.5640 H   0  0  0  0  0  0  0  0  0  0  0  0
  -25.2390  -13.9500   20.4970 C   0  0  0  0  0  0  0  0  0  0  0  0
  -24.1860  -13.1690   20.8830 C   0  0  0  0  0  0  0  0  0  0  0  0
  -24.6500  -11.8180   20.8250 C   0  0  0  0  0  0  0  0  0  0  0  0
  -26.2750  -13.0750   20.2170 N   0  0  0  0  0  0  0  0  0  0  0  0
  -25.9340  -11.7870   20.4820 N   0  0  0  0  0  0  0  0  0  0  0  0
  -23.9300  -10.5530   21.0180 C   0  0  0  0  0  0  0  0  0  0  0  0
  -24.3740   -9.5810   21.9420 C   0  0  0  0  0  3  0  0  0  0  0  0
  -23.6510   -8.3830   22.1240 C   0  0  0  0  0  3  0  0  0  0  0  0
  -22.4690   -8.1470   21.3850 C   0  0  0  0  0  0  0  0  0  0  0  0
  -22.0430   -9.1070   20.4490 C   0  0  0  0  0  3  0  0  0  0  0  0
  -22.7670  -10.2980   20.2650 C   0  0  0  0  0  3  0  0  0  0  0  0
  -21.7160   -7.0010   21.4760 O   0  0  0  0  0  0  0  0  0  0  0  0
  -21.6670   -6.2620   22.6300 C   0  0  0  0  0  0  0  0  0  0  0  0
  -21.2210   -6.8140   23.8500 C   0  0  0  0  0  3  0  0  0  0  0  0
  -21.1210   -6.0010   24.9980 C   0  0  0  0  0  3  0  0  0  0  0  0
  -21.4590   -4.6360   24.9250 C   0  0  0  0  0  0  0  0  0  0  0  0
  -21.8980   -4.0830   23.7090 C   0  0  0  0  0  3  0  0  0  0  0  0
  -22.0000   -4.8940   22.5650 C   0  0  0  0  0  0  0  0  0  0  0  0
  -22.4040   -4.3510   21.3900 F   0  0  0  0  0  0  0  0  0  0  0  0
  -21.3570   -3.8520   26.0230 F   0  0  0  0  0  0  0  0  0  0  0  0
  -22.7940  -13.6410   21.1870 C   0  0  0  0  0  0  0  0  0  0  0  0
  -22.0890  -12.9430   22.0680 N   0  0  0  0  0  0  0  0  0  0  0  0
  -22.3430  -14.6650   20.6760 O   0  0  0  0  0  0  0  0  0  0  0  0
  -22.4690  -12.1160   22.5060 H   0  0  0  0  0  0  0  0  0  0  0  0
  -21.1550  -13.2410   22.3090 H   0  0  0  0  0  0  0  0  0  0  0  0
  -25.4000  -15.3220   20.3310 N   0  0  0  0  0  0  0  0  0  0  0  0
  -24.6390  -15.9790   20.4730 H   0  0  0  0  0  0  0  0  0  0  0  0
  -26.2300  -15.7590   19.9520 H   0  0  0  0  0  0  0  0  0  0  0  0
  -29.0660  -23.2240   20.3720 C   0  0  0  0  0  3  0  0  0  0  0  0
  -28.0010  -24.5430   20.0430 C   0  0  0  0  0  3  0  0  0  0  0  0
  -28.2410  -26.1090   20.2400 O   0  0  0  0  0  0  0  0  0  0  0  0
  -24.6310  -31.8760   23.2400 C   0  0  0  0  0  0  0  0  0  0  0  0
  -27.2000  -27.1290   20.1780 C   0  0  0  0  0  0  0  0  0  0  0  0
  -23.4310  -30.4880   21.5970 C   0  0  0  0  0  3  0  0  0  0  0  0
  -24.8780  -28.9150   20.1580 C   0  0  0  0  0  0  0  0  0  0  0  0
  -25.9880  -30.7400   21.4350 C   0  0  0  0  0  2  0  0  0  0  0  0
  -26.0610  -29.3470   20.7710 C   0  0  0  0  0  0  0  0  0  0  0  0
  -27.2210  -28.4710   20.7620 C   0  0  0  0  0  3  0  0  0  0  0  0
  -25.9910  -26.8180   19.5200 C   0  0  0  0  0  3  0  0  0  0  0  0
  -24.8600  -27.6670   19.5150 C   0  0  0  0  0  3  0  0  0  0  0  0
  -23.6500  -29.8150   20.2150 C   0  0  0  0  0  2  0  0  0  0  0  0
  -24.7040  -31.0590   22.1440 N   0  0  0  0  0  0  0  0  0  0  0  0
  -23.5450  -32.1570   23.7720 O   0  0  0  0  0  0  0  0  0  0  0  0
  -22.7540  -29.4760   22.5580 C   0  0  0  0  0  0  0  0  0  0  0  0
  -21.4250  -29.3020   22.4330 N   0  0  0  0  0  0  0  0  0  0  0  0
  -23.4280  -28.8510   23.3800 O   0  0  0  0  0  0  0  0  0  0  0  0
  -20.9370  -29.8570   21.7450 H   0  0  0  0  0  0  0  0  0  0  0  0
  -18.0500  -28.0820   22.9360 C   0  0  0  0  0  0  0  0  0  0  0  0
  -20.6080  -28.3570   23.2010 C   0  0  0  0  0  3  0  0  0  0  0  0
  -20.7160  -26.9280   22.6200 C   0  0  0  0  0  2  0  0  0  0  0  0
  -19.6150  -26.6050   21.6060 C   0  0  0  0  0  2  0  0  0  0  0  0
  -18.2330  -26.7390   22.2510 C   0  0  0  0  0  2  0  0  0  0  0  0
  -19.1640  -28.8510   23.3680 C   0  0  0  0  0  0  0  0  0  0  0  0
  -18.9370  -30.1070   23.9700 C   0  0  0  0  0  3  0  0  0  0  0  0
  -17.6290  -30.5970   24.1430 C   0  0  0  0  0  3  0  0  0  0  0  0
  -16.5300  -29.8260   23.7270 C   0  0  0  0  0  3  0  0  0  0  0  0
  -16.7400  -28.5710   23.1310 C   0  0  0  0  0  3  0  0  0  0  0  0
  -25.9070  -32.5120   23.8710 C   0  0  0  0  0  3  0  0  0  0  0  0
  -26.4150  -31.7460   25.1540 C   0  0  1  0  0  0  0  0  0  0  0  0
  -25.3150  -31.5170   26.2180 C   0  0  0  0  0  1  0  0  0  0  0  0
  -26.9970  -30.3640   24.7790 C   0  0  0  0  0  1  0  0  0  0  0  0
  -27.5640  -32.5410   25.8180 C   0  0  0  0  0  1  0  0  0  0  0  0
  -25.5940  -33.9120   24.2020 N   0  0  0  0  0  0  0  0  0  0  0  0
  -25.9130  -34.9700   23.4420 C   0  0  0  0  0  0  0  0  0  0  0  0
  -26.5650  -34.8690   22.4000 O   0  0  0  0  0  0  0  0  0  0  0  0
  -25.0120  -34.0640   25.0110 H   0  0  0  0  0  0  0  0  0  0  0  0
  -24.1680  -36.7580   23.1380 C   0  0  0  0  0  1  0  0  0  0  0  0
  -25.4340  -36.3570   23.9130 C   0  0  0  0  0  3  0  0  0  0  0  0
  -27.5830  -37.2590   24.6860 C   0  0  0  0  0  1  0  0  0  0  0  0
  -26.4580  -37.4160   23.7690 N   0  0  0  0  0  0  0  0  0  0  0  0
  -26.0510  -38.3340   23.9200 H   0  0  0  0  0  0  0  0  0  0  0  0
  1  3  2  0
  2  1  1  0
  4  2  2  0
  4  5  1  0
  5 46  1  0
  5  3  1  0
  7  6  1  0
  7  2  1  0
  7 16  1  0
  8 16  1  0
  9 14  1  0
 10 11  1  0
 10  9  1  0
 12 11  1  0
 12 21  1  0
 12 13  1  0
 14  8  1  0
 14 13  1  0
 15  8  2  0
 16 17  1  0
 18 19  2  0
 19 38  1  0
 20 19  1  0
 20 23  1  0
 21 22  1  0
 21 18  1  0
 22 20  2  0
 23 24  1  0
 24 25  2  0
 26 29  1  0
 26 25  1  0
 27 26  2  0
 28 27  1  0
 28 23  2  0
 29 30  1  0
 30 31  1  0
 31 32  2  0
 33 32  1  0
 33 37  1  0
 34 33  2  0
 35 30  2  0
 35 34  1  0
 36 35  1  0
 38 39  1  0
 39 42  1  0
 39 41  1  0
 40 38  2  0
 43 44  1  0
 43 18  1  0
 45 43  1  0
 47 48  1  0
 47 46  2  0
 49 60  2  0
 50 48  1  0
 50 55  1  0
 51 59  1  0
 51 61  1  0
 52 58  1  0
 52 54  1  0
 53 59  1  0
 54 53  1  0
 55 54  2  0
 56 50  2  0
 57 56  1  0
 57 52  2  0
 58 51  1  0
 59 49  1  0
 61 63  2  0
 62 61  1  0
 64 62  1  0
 65 74  2  0
 65 70  1  0
 66 62  1  0
 66 70  1  0
 67 66  1  0
 68 69  1  0
 68 67  1  0
 69 65  1  0
 70 71  2  0
 71 72  1  0
 73 72  2  0
 74 73  1  0
 75 49  1  0
 75 80  1  0
 75 76  1  0
 76 79  1  1
 76 77  1  0
 78 76  1  0
 80 83  1  0
 81 85  1  0
 81 80  1  0
 82 81  2  0
 85 84  1  0
 87 85  1  0
 87 88  1  0
 87 86  1  0
M  ISO  4   8 100  16 100  47 101  48 101
M  END
>  <TORSDO>  (89) 
F 19

>  <SCORE>  (89) 
-14.769

>  <name>  (89) 
88

>  <ligand_id>  (89) 
88

>  <original_smiles>  (89) 
[H]c1nn(C([H])([H])C([H])([H])Oc2c([H])c([H])c3c(c2[H])C([H])([H])N(C(=O)C([H])(N([H])C(=O)C([H])(N([H])C([H])([H])[H])C([H])([H])[H])C(C([H])([H])[H])(C([H])([H])[H])C([H])([H])[H])C([H])(C(=O)N([H])C2([H])c4c([H])c([H])c([H])c([H])c4C([H])([H])C([H])([H])C2([H])[H])C3([H])[H])nc1C([H])(N([H])C(=O)N1C([H])([H])C([H])([H])C([H])([H])C([H])(n2nc(-c3c([H])c([H])c(Oc4c([H])c([H])c(F)c([H])c4F)c([H])c3[H])c(C(=O)N([H])[H])c2N([H])[H])C1([H])[H])C([H])([H])[H]

>  <smiles>  (89) 
[H]c1nn(C([H])([H])C([H])([H])Oc2c([H])c([H])c3c(c2[H])C([H])([H])N(C(=O)C([H])(N([H])C(=O)C([H])(N([H])C([H])([H])[H])C([H])([H])[H])C(C([H])([H])[H])(C([H])([H])[H])C([H])([H])[H])C([H])(C(=O)N([H])C2([H])c4c([H])c([H])c([H])c([H])c4C([H])([H])C([H])([H])C2([H])[H])C3([H])[H])nc1C([H])(N([H])C(=O)N1C([H])([H])C([H])([H])C([H])([H])C([H])(n2nc(-c3c([H])c([H])c(Oc4c([H])c([H])c(F)c([H])c4F)c([H])c3[H])c(C(=O)N([H])[H])c2N([H])[H])C1([H])[H])C([H])([H])[H]

$$$$
89:0:0
     RDKit          3D

 89 97  0  0  1  0  0  0  0  0999 V2000
  -28.1280  -21.4240   19.5360 C   0  0  0  0  0  3  0  0  0  0  0  0
  -29.0890  -22.1960   20.2560 C   0  0  0  0  0  0  0  0  0  0  0  0
  -28.4050  -20.1260   19.5460 N   0  0  0  0  0  0  0  0  0  0  0  0
  -29.9740  -21.2930   20.7050 N   0  0  0  0  0  0  0  0  0  0  0  0
  -29.5710  -20.0310   20.2420 N   0  0  0  0  0  0  0  0  0  0  0  0
  -31.7820  -18.8900   20.5690 C   0  0  0  0  0  1  0  0  0  0  0  0
  -30.2570  -18.7000   20.6340 C   0  0  0  0  0  3  0  0  0  0  0  0
  -29.9000  -17.2820   19.8950 C   0  0  0  0  0  2  0  0  0  0  0  0
  -30.8280  -14.7930   20.0250 C   0  0  0  0  0  0  0  0  0  0  0  0
  -30.5420  -12.5400   18.9490 C   0  0  0  0  0  2  0  0  0  0  0  0
  -29.5440  -12.6400   17.7750 C   0  0  0  0  0  2  0  0  0  0  0  0
  -28.0960  -12.4640   18.2710 C   0  0  0  0  0  2  0  0  0  0  0  0
  -27.7930  -13.3230   19.5260 C   0  0  0  0  0  3  0  0  0  0  0  0
  -28.9050  -13.1970   20.5870 C   0  0  0  0  0  2  0  0  0  0  0  0
  -30.1780  -13.5730   19.9540 N   0  0  0  0  0  0  0  0  0  0  0  0
  -31.9210  -14.9220   19.4630 O   0  0  0  0  0  0  0  0  0  0  0  0
  -30.1430  -15.9910   22.0270 C   0  0  0  0  0  1  0  0  0  0  0  0
  -30.1750  -15.9080   20.5620 N   0  0  0  0  0  0  0  0  0  0  0  0
  -25.4530  -13.9120   20.3960 C   0  0  0  0  0  0  0  0  0  0  0  0
  -24.4030  -13.1370   20.8040 C   0  0  0  0  0  0  0  0  0  0  0  0
  -24.8520  -11.7840   20.7200 C   0  0  0  0  0  0  0  0  0  0  0  0
  -26.4740  -13.0320   20.0820 N   0  0  0  0  0  0  0  0  0  0  0  0
  -26.1250  -11.7450   20.3400 N   0  0  0  0  0  0  0  0  0  0  0  0
  -24.1260  -10.5220   20.9230 C   0  0  0  0  0  0  0  0  0  0  0  0
  -24.5710   -9.5560   21.8520 C   0  0  0  0  0  3  0  0  0  0  0  0
  -23.8450   -8.3600   22.0410 C   0  0  0  0  0  3  0  0  0  0  0  0
  -22.6620   -8.1230   21.3020 C   0  0  0  0  0  0  0  0  0  0  0  0
  -22.2380   -9.0780   20.3620 C   0  0  0  0  0  3  0  0  0  0  0  0
  -22.9630  -10.2650   20.1700 C   0  0  0  0  0  3  0  0  0  0  0  0
  -21.9050   -6.9810   21.4020 O   0  0  0  0  0  0  0  0  0  0  0  0
  -21.8190   -6.2730   22.5750 C   0  0  0  0  0  0  0  0  0  0  0  0
  -21.3520   -6.8640   23.7690 C   0  0  0  0  0  3  0  0  0  0  0  0
  -21.2160   -6.0830   24.9340 C   0  0  0  0  0  3  0  0  0  0  0  0
  -21.5350   -4.7120   24.9050 C   0  0  0  0  0  0  0  0  0  0  0  0
  -21.9900   -4.1200   23.7140 C   0  0  0  0  0  3  0  0  0  0  0  0
  -22.1300   -4.8990   22.5510 C   0  0  0  0  0  0  0  0  0  0  0  0
  -22.5500   -4.3180   21.4020 F   0  0  0  0  0  0  0  0  0  0  0  0
  -21.3970   -3.9590   26.0220 F   0  0  0  0  0  0  0  0  0  0  0  0
  -23.0260  -13.6190   21.1600 C   0  0  0  0  0  0  0  0  0  0  0  0
  -22.3430  -12.9200   22.0590 N   0  0  0  0  0  0  0  0  0  0  0  0
  -22.5670  -14.6520   20.6740 O   0  0  0  0  0  0  0  0  0  0  0  0
  -22.7250  -12.0830   22.4750 H   0  0  0  0  0  0  0  0  0  0  0  0
  -21.4200  -13.2260   22.3340 H   0  0  0  0  0  0  0  0  0  0  0  0
  -25.6220  -15.2860   20.2460 N   0  0  0  0  0  0  0  0  0  0  0  0
  -24.8780  -15.9470   20.4420 H   0  0  0  0  0  0  0  0  0  0  0  0
  -26.4750  -15.7280   19.9270 H   0  0  0  0  0  0  0  0  0  0  0  0
  -29.1940  -23.7710   20.5100 C   0  0  0  0  0  3  0  0  0  0  0  0
  -28.0910  -24.8610   20.0230 C   0  0  0  0  0  3  0  0  0  0  0  0
  -28.3020  -26.3480   20.2230 O   0  0  0  0  0  0  0  0  0  0  0  0
  -24.6350  -31.8760   23.2070 C   0  0  0  0  0  0  0  0  0  0  0  0
  -27.2050  -27.2460   20.1560 C   0  0  0  0  0  0  0  0  0  0  0  0
  -23.4140  -30.4650   21.5910 C   0  0  0  0  0  3  0  0  0  0  0  0
  -24.8490  -28.9020   20.1510 C   0  0  0  0  0  0  0  0  0  0  0  0
  -25.9560  -30.7650   21.3860 C   0  0  0  0  0  2  0  0  0  0  0  0
  -26.0270  -29.3810   20.7380 C   0  0  0  0  0  0  0  0  0  0  0  0
  -27.2050  -28.5640   20.7290 C   0  0  0  0  0  3  0  0  0  0  0  0
  -26.0030  -26.8430   19.5300 C   0  0  0  0  0  3  0  0  0  0  0  0
  -24.8440  -27.6440   19.5340 C   0  0  0  0  0  3  0  0  0  0  0  0
  -23.6120  -29.7810   20.2130 C   0  0  0  0  0  2  0  0  0  0  0  0
  -24.6870  -31.0560   22.1150 N   0  0  0  0  0  0  0  0  0  0  0  0
  -23.5560  -32.1590   23.7490 O   0  0  0  0  0  0  0  0  0  0  0  0
  -22.7600  -29.4560   22.5650 C   0  0  0  0  0  0  0  0  0  0  0  0
  -21.4330  -29.2730   22.4470 N   0  0  0  0  0  0  0  0  0  0  0  0
  -23.4440  -28.8440   23.3880 O   0  0  0  0  0  0  0  0  0  0  0  0
  -20.9380  -29.8180   21.7550 H   0  0  0  0  0  0  0  0  0  0  0  0
  -18.0650  -28.0610   22.9780 C   0  0  0  0  0  0  0  0  0  0  0  0
  -20.6230  -28.3390   23.2330 C   0  0  0  0  0  3  0  0  0  0  0  0
  -20.7320  -26.9020   22.6730 C   0  0  0  0  0  2  0  0  0  0  0  0
  -19.6280  -26.5620   21.6680 C   0  0  0  0  0  2  0  0  0  0  0  0
  -18.2480  -26.7060   22.3150 C   0  0  0  0  0  2  0  0  0  0  0  0
  -19.1800  -28.8350   23.3950 C   0  0  0  0  0  0  0  0  0  0  0  0
  -18.9550  -30.1020   23.9750 C   0  0  0  0  0  3  0  0  0  0  0  0
  -17.6470  -30.5950   24.1430 C   0  0  0  0  0  3  0  0  0  0  0  0
  -16.5470  -29.8160   23.7440 C   0  0  0  0  0  3  0  0  0  0  0  0
  -16.7570  -28.5510   23.1680 C   0  0  0  0  0  3  0  0  0  0  0  0
  -25.9220  -32.5130   23.8130 C   0  0  0  0  0  3  0  0  0  0  0  0
  -26.4640  -31.7410   25.0790 C   0  0  1  0  0  0  0  0  0  0  0  0
  -25.3860  -31.4890   26.1610 C   0  0  0  0  0  1  0  0  0  0  0  0
  -27.0510  -30.3690   24.6750 C   0  0  0  0  0  1  0  0  0  0  0  0
  -27.6210  -32.5390   25.7240 C   0  0  0  0  0  1  0  0  0  0  0  0
  -25.6100  -33.9080   24.1580 N   0  0  0  0  0  0  0  0  0  0  0  0
  -25.9280  -34.9690   23.4050 C   0  0  0  0  0  0  0  0  0  0  0  0
  -26.5820  -34.8760   22.3620 O   0  0  0  0  0  0  0  0  0  0  0  0
  -25.0290  -34.0530   24.9690 H   0  0  0  0  0  0  0  0  0  0  0  0
  -24.1910  -36.7610   23.0850 C   0  0  0  0  0  1  0  0  0  0  0  0
  -25.4410  -36.3520   23.8800 C   0  0  0  0  0  3  0  0  0  0  0  0
  -27.5800  -37.2340   24.7020 C   0  0  0  0  0  1  0  0  0  0  0  0
  -26.4710  -37.4090   23.7690 N   0  0  0  0  0  0  0  0  0  0  0  0
  -26.0650  -38.3260   23.9280 H   0  0  0  0  0  0  0  0  0  0  0  0
  1  3  2  0
  1  2  1  0
  2 47  1  0
  2  4  2  0
  3  5  1  0
  5  7  1  0
  5  4  1  0
  7  6  1  0
  8 18  1  0
  8  7  1  0
  9 18  1  0
 10 15  1  0
 11 12  1  0
 11 10  1  0
 13 12  1  0
 13 22  1  0
 13 14  1  0
 15  9  1  0
 15 14  1  0
 16  9  2  0
 18 17  1  0
 19 20  2  0
 20 39  1  0
 21 20  1  0
 21 24  1  0
 22 23  1  0
 22 19  1  0
 23 21  2  0
 24 25  1  0
 25 26  2  0
 27 30  1  0
 27 26  1  0
 28 27  2  0
 29 28  1  0
 29 24  2  0
 30 31  1  0
 31 32  1  0
 32 33  2  0
 34 33  1  0
 34 38  1  0
 35 34  2  0
 36 31  2  0
 36 35  1  0
 37 36  1  0
 39 40  1  0
 40 43  1  0
 40 42  1  0
 41 39  2  0
 44 19  1  0
 44 45  1  0
 46 44  1  0
 48 49  1  0
 48 47  2  0
 50 61  2  0
 51 49  1  0
 51 56  1  0
 52 60  1  0
 52 62  1  0
 53 59  1  0
 53 55  1  0
 54 60  1  0
 55 54  1  0
 56 55  2  0
 57 58  1  0
 57 51  2  0
 58 53  2  0
 59 52  1  0
 60 50  1  0
 62 64  2  0
 63 62  1  0
 65 63  1  0
 66 75  2  0
 66 71  1  0
 67 63  1  0
 67 71  1  0
 68 67  1  0
 69 70  1  0
 69 68  1  0
 70 66  1  0
 71 72  2  0
 72 73  1  0
 74 73  2  0
 75 74  1  0
 76 50  1  0
 76 81  1  0
 76 77  1  0
 77 80  1  1
 77 78  1  0
 79 77  1  0
 81 84  1  0
 82 86  1  0
 82 81  1  0
 83 82  2  0
 86 85  1  0
 88 86  1  0
 88 89  1  0
 88 87  1  0
M  ISO  4   9 100  18 100  48 101  49 101
M  END
>  <TORSDO>  (90) 
F 20

>  <SCORE>  (90) 
-13.468

>  <name>  (90) 
89

>  <ligand_id>  (90) 
89

>  <original_smiles>  (90) 
[H]c1nn(C([H])(C([H])([H])[H])C([H])([H])N(C(=O)N2C([H])([H])C([H])([H])C([H])([H])C([H])(n3nc(-c4c([H])c([H])c(Oc5c([H])c([H])c(F)c([H])c5F)c([H])c4[H])c(C(=O)N([H])[H])c3N([H])[H])C2([H])[H])C([H])([H])[H])nc1C([H])([H])C([H])([H])Oc1c([H])c([H])c2c(c1[H])C([H])([H])N(C(=O)C([H])(N([H])C(=O)C([H])(N([H])C([H])([H])[H])C([H])([H])[H])C(C([H])([H])[H])(C([H])([H])[H])C([H])([H])[H])C([H])(C(=O)N([H])C1([H])c3c([H])c([H])c([H])c([H])c3C([H])([H])C([H])([H])C1([H])[H])C2([H])[H]

>  <smiles>  (90) 
[H]c1nn(C([H])(C([H])([H])[H])C([H])([H])N(C(=O)N2C([H])([H])C([H])([H])C([H])([H])C([H])(n3nc(-c4c([H])c([H])c(Oc5c([H])c([H])c(F)c([H])c5F)c([H])c4[H])c(C(=O)N([H])[H])c3N([H])[H])C2([H])[H])C([H])([H])[H])nc1C([H])([H])C([H])([H])Oc1c([H])c([H])c2c(c1[H])C([H])([H])N(C(=O)C([H])(N([H])C(=O)C([H])(N([H])C([H])([H])[H])C([H])([H])[H])C(C([H])([H])[H])(C([H])([H])[H])C([H])([H])[H])C([H])(C(=O)N([H])C1([H])c3c([H])c([H])c([H])c([H])c3C([H])([H])C([H])([H])C1([H])[H])C2([H])[H]

$$$$
90:0:0
     RDKit          3D

 91 99  0  0  1  0  0  0  0  0999 V2000
  -30.0680  -22.7940   20.2890 C   0  0  0  0  0  3  0  0  0  0  0  0
  -28.7770  -23.1240   19.9130 C   0  0  0  0  0  0  0  0  0  0  0  0
  -29.1970  -20.7230   19.7680 C   0  0  0  0  0  3  0  0  0  0  0  0
  -26.9040  -21.5780   19.1490 C   0  0  0  0  0  1  0  0  0  0  0  0
  -28.2860  -21.7960   19.6050 N   0  0  0  0  0  0  0  0  0  0  0  0
  -30.2760  -21.4080   20.1880 N   0  0  0  0  0  0  0  0  0  0  0  0
  -31.1580  -20.9610   20.4100 H   0  0  0  0  0  0  0  0  0  0  0  0
  -28.8480  -18.8190   18.0130 C   0  0  0  0  0  1  0  0  0  0  0  0
  -27.8140  -18.5870   20.2840 C   0  0  0  0  0  1  0  0  0  0  0  0
  -29.0750  -19.0500   19.5220 C   0  0  2  0  0  0  0  0  0  0  0  0
  -30.2370  -17.8390   19.8680 C   0  0  0  0  0  2  0  0  0  0  0  0
  -30.6850  -15.0560   19.8150 C   0  0  0  0  0  0  0  0  0  0  0  0
  -30.5120  -12.6480   18.9920 C   0  0  0  0  0  2  0  0  0  0  0  0
  -29.5340  -12.5590   17.7990 C   0  0  0  0  0  2  0  0  0  0  0  0
  -28.0880  -12.3800   18.2990 C   0  0  0  0  0  2  0  0  0  0  0  0
  -27.7360  -13.3550   19.4540 C   0  0  0  0  0  3  0  0  0  0  0  0
  -28.8390  -13.4150   20.5320 C   0  0  0  0  0  2  0  0  0  0  0  0
  -30.0800  -13.7960   19.8480 N   0  0  0  0  0  0  0  0  0  0  0  0
  -31.8760  -15.0860   19.4830 O   0  0  0  0  0  0  0  0  0  0  0  0
  -29.9250  -16.2640   19.9600 N   0  0  0  0  0  0  0  0  0  0  0  0
  -28.9600  -16.0770   20.1900 H   0  0  0  0  0  0  0  0  0  0  0  0
  -25.4210  -13.9950   20.3310 C   0  0  0  0  0  0  0  0  0  0  0  0
  -24.3550  -13.2470   20.7520 C   0  0  0  0  0  0  0  0  0  0  0  0
  -24.7730  -11.8830   20.6790 C   0  0  0  0  0  0  0  0  0  0  0  0
  -26.4190  -13.0870   20.0220 N   0  0  0  0  0  0  0  0  0  0  0  0
  -26.0430  -11.8110   20.2960 N   0  0  0  0  0  0  0  0  0  0  0  0
  -24.0150  -10.6420   20.8930 C   0  0  0  0  0  0  0  0  0  0  0  0
  -24.4470   -9.6590   21.8090 C   0  0  0  0  0  3  0  0  0  0  0  0
  -23.6880   -8.4860   22.0130 C   0  0  0  0  0  3  0  0  0  0  0  0
  -22.4820   -8.2880   21.3000 C   0  0  0  0  0  0  0  0  0  0  0  0
  -22.0680   -9.2590   20.3710 C   0  0  0  0  0  3  0  0  0  0  0  0
  -22.8280  -10.4230   20.1650 C   0  0  0  0  0  3  0  0  0  0  0  0
  -21.6950   -7.1670   21.4110 O   0  0  0  0  0  0  0  0  0  0  0  0
  -21.6460   -6.4330   22.5700 C   0  0  0  0  0  0  0  0  0  0  0  0
  -21.2620   -7.0090   23.8020 C   0  0  0  0  0  3  0  0  0  0  0  0
  -21.1600   -6.2040   24.9540 C   0  0  0  0  0  3  0  0  0  0  0  0
  -21.4310   -4.8260   24.8770 C   0  0  0  0  0  0  0  0  0  0  0  0
  -21.8070   -4.2500   23.6510 C   0  0  0  0  0  3  0  0  0  0  0  0
  -21.9130   -5.0510   22.5000 C   0  0  0  0  0  0  0  0  0  0  0  0
  -22.2560   -4.4880   21.3170 F   0  0  0  0  0  0  0  0  0  0  0  0
  -21.3260   -4.0490   25.9810 F   0  0  0  0  0  0  0  0  0  0  0  0
  -22.9900  -13.7660   21.0990 C   0  0  0  0  0  0  0  0  0  0  0  0
  -22.2890  -13.0870   22.0010 N   0  0  0  0  0  0  0  0  0  0  0  0
  -22.5570  -14.8060   20.6080 O   0  0  0  0  0  0  0  0  0  0  0  0
  -22.6550  -12.2460   22.4230 H   0  0  0  0  0  0  0  0  0  0  0  0
  -21.3750  -13.4170   22.2770 H   0  0  0  0  0  0  0  0  0  0  0  0
  -25.6150  -15.3610   20.1560 N   0  0  0  0  0  0  0  0  0  0  0  0
  -24.8600  -16.0240   20.2990 H   0  0  0  0  0  0  0  0  0  0  0  0
  -26.4290  -15.7770   19.7210 H   0  0  0  0  0  0  0  0  0  0  0  0
  -27.9370  -24.5550   19.7360 C   0  0  0  0  0  2  0  0  0  0  0  0
  -28.2750  -26.0590   20.0980 O   0  0  0  0  0  0  0  0  0  0  0  0
  -24.5670  -31.7430   23.1290 C   0  0  0  0  0  0  0  0  0  0  0  0
  -27.2410  -27.0890   20.0290 C   0  0  0  0  0  0  0  0  0  0  0  0
  -23.4080  -30.3670   21.4490 C   0  0  0  0  0  3  0  0  0  0  0  0
  -24.8970  -28.8430   20.0080 C   0  0  0  0  0  0  0  0  0  0  0  0
  -25.9650  -30.6600   21.3210 C   0  0  0  0  0  2  0  0  0  0  0  0
  -26.0680  -29.2800   20.6390 C   0  0  0  0  0  0  0  0  0  0  0  0
  -27.2420  -28.4230   20.6280 C   0  0  0  0  0  3  0  0  0  0  0  0
  -26.0410  -26.7810   19.3470 C   0  0  0  0  0  3  0  0  0  0  0  0
  -24.9010  -27.6110   19.3410 C   0  0  0  0  0  3  0  0  0  0  0  0
  -23.6590  -29.7240   20.0600 C   0  0  0  0  0  2  0  0  0  0  0  0
  -24.6660  -30.9450   22.0210 N   0  0  0  0  0  0  0  0  0  0  0  0
  -23.4700  -32.0000   23.6490 O   0  0  0  0  0  0  0  0  0  0  0  0
  -22.7290  -29.3300   22.3800 C   0  0  0  0  0  0  0  0  0  0  0  0
  -21.3960  -29.1780   22.2650 N   0  0  0  0  0  0  0  0  0  0  0  0
  -23.4040  -28.6680   23.1720 O   0  0  0  0  0  0  0  0  0  0  0  0
  -20.9100  -29.7670   21.6040 H   0  0  0  0  0  0  0  0  0  0  0  0
  -18.0040  -28.0190   22.8060 C   0  0  0  0  0  0  0  0  0  0  0  0
  -20.5750  -28.2210   23.0120 C   0  0  0  0  0  3  0  0  0  0  0  0
  -20.6290  -26.8160   22.3660 C   0  0  0  0  0  2  0  0  0  0  0  0
  -19.4940  -26.5650   21.3690 C   0  0  0  0  0  2  0  0  0  0  0  0
  -18.1340  -26.7030   22.0590 C   0  0  0  0  0  2  0  0  0  0  0  0
  -19.1480  -28.7400   23.2400 C   0  0  0  0  0  0  0  0  0  0  0  0
  -18.9700  -29.9730   23.9030 C   0  0  0  0  0  3  0  0  0  0  0  0
  -17.6800  -30.4850   24.1350 C   0  0  0  0  0  3  0  0  0  0  0  0
  -16.5500  -29.7630   23.7150 C   0  0  0  0  0  3  0  0  0  0  0  0
  -16.7130  -28.5310   23.0560 C   0  0  0  0  0  3  0  0  0  0  0  0
  -25.8260  -32.3860   23.7860 C   0  0  0  0  0  3  0  0  0  0  0  0
  -26.3200  -31.6090   25.0690 C   0  0  1  0  0  0  0  0  0  0  0  0
  -25.2070  -31.3560   26.1130 C   0  0  0  0  0  1  0  0  0  0  0  0
  -26.9200  -30.2380   24.6850 C   0  0  0  0  0  1  0  0  0  0  0  0
  -27.4520  -32.4070   25.7580 C   0  0  0  0  0  1  0  0  0  0  0  0
  -25.4920  -33.7790   24.1290 N   0  0  0  0  0  0  0  0  0  0  0  0
  -25.8200  -34.8480   23.3920 C   0  0  0  0  0  0  0  0  0  0  0  0
  -26.5010  -34.7660   22.3670 O   0  0  0  0  0  0  0  0  0  0  0  0
  -24.8870  -33.9130   24.9260 H   0  0  0  0  0  0  0  0  0  0  0  0
  -24.0760  -36.6340   23.0510 C   0  0  0  0  0  1  0  0  0  0  0  0
  -25.3150  -36.2270   23.8660 C   0  0  0  0  0  3  0  0  0  0  0  0
  -27.4340  -37.1260   24.7250 C   0  0  0  0  0  1  0  0  0  0  0  0
  -26.3380  -37.2920   23.7730 N   0  0  0  0  0  0  0  0  0  0  0  0
  -25.9220  -38.2060   23.9250 H   0  0  0  0  0  0  0  0  0  0  0  0
  2  1  2  0
  3 10  1  0
  3  6  1  0
  4  5  1  0
  5  3  1  0
  5  2  1  0
  6  1  1  0
  6  7  1  0
 10  8  1  6
 10 11  1  0
 10  9  1  0
 11 20  1  0
 12 18  1  0
 12 20  1  0
 13 18  1  0
 14 15  1  0
 14 13  1  0
 16 15  1  0
 16 25  1  0
 16 17  1  0
 18 17  1  0
 19 12  2  0
 20 21  1  0
 22 23  2  0
 23 42  1  0
 24 23  1  0
 24 27  1  0
 25 26  1  0
 25 22  1  0
 26 24  2  0
 27 28  1  0
 28 29  2  0
 30 33  1  0
 30 29  1  0
 31 30  2  0
 32 31  1  0
 32 27  2  0
 33 34  1  0
 34 35  1  0
 35 36  2  0
 37 36  1  0
 37 41  1  0
 38 37  2  0
 39 34  2  0
 39 38  1  0
 40 39  1  0
 42 43  1  0
 43 46  1  0
 43 45  1  0
 44 42  2  0
 47 48  1  0
 47 22  1  0
 49 47  1  0
 50  2  1  0
 50 51  1  0
 52 63  2  0
 53 51  1  0
 53 58  1  0
 54 62  1  0
 54 64  1  0
 55 61  1  0
 55 57  1  0
 56 62  1  0
 57 56  1  0
 58 57  2  0
 59 53  2  0
 60 59  1  0
 60 55  2  0
 61 54  1  0
 62 52  1  0
 64 66  2  0
 65 64  1  0
 67 65  1  0
 68 77  2  0
 68 73  1  0
 69 65  1  0
 69 73  1  0
 70 69  1  0
 71 72  1  0
 71 70  1  0
 72 68  1  0
 73 74  2  0
 74 75  1  0
 76 75  2  0
 77 76  1  0
 78 52  1  0
 78 83  1  0
 78 79  1  0
 79 82  1  1
 79 80  1  0
 81 79  1  0
 83 86  1  0
 84 88  1  0
 84 83  1  0
 85 84  2  0
 88 87  1  0
 90 88  1  0
 90 91  1  0
 90 89  1  0
M  ISO  4  12 100  20 100  50 101  51 101
M  END
>  <TORSDO>  (91) 
F 19

>  <SCORE>  (91) 
-15.108

>  <name>  (91) 
90

>  <ligand_id>  (91) 
90

>  <original_smiles>  (91) 
[H]c1c([H])c([H])c2c(c1[H])C([H])([H])C([H])([H])C([H])([H])C2([H])N([H])C(=O)C1([H])N(C(=O)C([H])(N([H])C(=O)C([H])(N([H])C([H])([H])[H])C([H])([H])[H])C(C([H])([H])[H])(C([H])([H])[H])C([H])([H])[H])C([H])([H])c2c([H])c(OC([H])([H])c3c([H])[n+]([H])c(C(C([H])([H])[H])(C([H])([H])[H])C([H])([H])N([H])C(=O)N4C([H])([H])C([H])([H])C([H])([H])C([H])(n5nc(-c6c([H])c([H])c(Oc7c([H])c([H])c(F)c([H])c7F)c([H])c6[H])c(C(=O)N([H])[H])c5N([H])[H])C4([H])[H])n3C([H])([H])[H])c([H])c([H])c2C1([H])[H]

>  <smiles>  (91) 
[H]c1c([H])c([H])c2c(c1[H])C([H])([H])C([H])([H])C([H])([H])C2([H])N([H])C(=O)C1([H])N(C(=O)C([H])(N([H])C(=O)C([H])(N([H])C([H])([H])[H])C([H])([H])[H])C(C([H])([H])[H])(C([H])([H])[H])C([H])([H])[H])C([H])([H])c2c([H])c(OC([H])([H])c3c([H])[n+]([H])c(C(C([H])([H])[H])(C([H])([H])[H])C([H])([H])N([H])C(=O)N4C([H])([H])C([H])([H])C([H])([H])C([H])(n5nc(-c6c([H])c([H])c(Oc7c([H])c([H])c(F)c([H])c7F)c([H])c6[H])c(C(=O)N([H])[H])c5N([H])[H])C4([H])[H])n3C([H])([H])[H])c([H])c([H])c2C1([H])[H]

$$$$
91:0:0
     RDKit          3D

 93101  0  0  1  0  0  0  0  0999 V2000
  -30.1240  -20.8860   19.2030 C   0  0  0  0  0  3  0  0  0  0  0  0
  -30.1290  -19.7860   20.1250 C   0  0  0  0  0  0  0  0  0  0  0  0
  -29.1030  -21.7060   20.9430 C   0  0  0  0  0  3  0  0  0  0  0  0
  -29.5070  -22.0920   19.7040 N   0  0  0  0  0  0  0  0  0  0  0  0
  -29.4540  -20.3940   21.1660 N   0  0  0  0  0  0  0  0  0  0  0  0
  -29.3040  -19.9360   22.0590 H   0  0  0  0  0  0  0  0  0  0  0  0
  -28.2880  -21.9080   23.3400 C   0  0  0  0  0  1  0  0  0  0  0  0
  -28.4590  -22.5850   21.9730 C   0  0  2  0  0  0  0  0  0  0  0  0
  -27.2470  -22.9400   21.5530 F   0  0  0  0  0  0  0  0  0  0  0  0
  -29.2020  -23.6820   22.1290 F   0  0  0  0  0  0  0  0  0  0  0  0
  -30.0390  -23.6080   17.6730 C   0  0  0  0  0  1  0  0  0  0  0  0
  -29.5260  -23.6440   19.1210 C   0  0  0  0  0  3  0  0  0  0  0  0
  -28.3310  -24.8760   19.1490 C   0  0  0  0  0  2  0  0  0  0  0  0
  -28.5450  -26.4450   19.1430 O   0  0  0  0  0  0  0  0  0  0  0  0
  -24.9990  -31.6100   23.1480 C   0  0  0  0  0  0  0  0  0  0  0  0
  -27.4790  -27.4210   19.3050 C   0  0  0  0  0  0  0  0  0  0  0  0
  -23.7450  -30.4720   21.3570 C   0  0  0  0  0  3  0  0  0  0  0  0
  -25.1420  -29.1450   19.6560 C   0  0  0  0  0  0  0  0  0  0  0  0
  -26.2910  -30.7780   21.1390 C   0  0  0  0  0  2  0  0  0  0  0  0
  -26.3460  -29.5000   20.2750 C   0  0  0  0  0  0  0  0  0  0  0  0
  -27.5130  -28.6600   20.0800 C   0  0  0  0  0  3  0  0  0  0  0  0
  -26.2370  -27.1800   18.6780 C   0  0  0  0  0  3  0  0  0  0  0  0
  -25.0990  -28.0020   18.8450 C   0  0  0  0  0  3  0  0  0  0  0  0
  -23.9190  -30.0190   19.8850 C   0  0  0  0  0  2  0  0  0  0  0  0
  -25.0350  -30.9680   21.9380 N   0  0  0  0  0  0  0  0  0  0  0  0
  -23.9340  -31.7940   23.7580 O   0  0  0  0  0  0  0  0  0  0  0  0
  -23.1060  -29.3230   22.1790 C   0  0  0  0  0  0  0  0  0  0  0  0
  -21.7770  -29.1500   22.0710 N   0  0  0  0  0  0  0  0  0  0  0  0
  -23.8120  -28.5920   22.8790 O   0  0  0  0  0  0  0  0  0  0  0  0
  -21.2620  -29.7950   21.4870 H   0  0  0  0  0  0  0  0  0  0  0  0
  -18.4320  -27.8220   22.4900 C   0  0  0  0  0  0  0  0  0  0  0  0
  -20.9940  -28.0940   22.7200 C   0  0  0  0  0  3  0  0  0  0  0  0
  -21.1010  -26.7650   21.9380 C   0  0  0  0  0  2  0  0  0  0  0  0
  -19.9740  -26.5720   20.9200 C   0  0  0  0  0  2  0  0  0  0  0  0
  -18.6100  -26.5920   21.6140 C   0  0  0  0  0  2  0  0  0  0  0  0
  -19.5500  -28.5360   22.9960 C   0  0  0  0  0  0  0  0  0  0  0  0
  -19.3250  -29.6900   23.7790 C   0  0  0  0  0  3  0  0  0  0  0  0
  -18.0180  -30.1290   24.0570 C   0  0  0  0  0  3  0  0  0  0  0  0
  -16.9160  -29.4090   23.5640 C   0  0  0  0  0  3  0  0  0  0  0  0
  -17.1240  -28.2580   22.7860 C   0  0  0  0  0  3  0  0  0  0  0  0
  -26.2980  -32.1570   23.8160 C   0  0  0  0  0  3  0  0  0  0  0  0
  -26.8320  -31.2360   24.9800 C   0  0  1  0  0  0  0  0  0  0  0  0
  -25.7660  -30.8910   26.0440 C   0  0  0  0  0  1  0  0  0  0  0  0
  -27.3810  -29.9070   24.4160 C   0  0  0  0  0  1  0  0  0  0  0  0
  -28.0120  -31.9340   25.6990 C   0  0  0  0  0  1  0  0  0  0  0  0
  -26.0090  -33.5070   24.3230 N   0  0  0  0  0  0  0  0  0  0  0  0
  -26.3360  -34.6470   23.7000 C   0  0  0  0  0  0  0  0  0  0  0  0
  -26.9810  -34.6730   22.6480 O   0  0  0  0  0  0  0  0  0  0  0  0
  -25.4370  -33.5610   25.1540 H   0  0  0  0  0  0  0  0  0  0  0  0
  -24.6230  -36.4930   23.6300 C   0  0  0  0  0  1  0  0  0  0  0  0
  -25.8770  -35.9700   24.3480 C   0  0  0  0  0  3  0  0  0  0  0  0
  -28.0390  -36.7230   25.2400 C   0  0  0  0  0  1  0  0  0  0  0  0
  -26.9200  -37.0200   24.3500 N   0  0  0  0  0  0  0  0  0  0  0  0
  -26.5250  -37.9150   24.6300 H   0  0  0  0  0  0  0  0  0  0  0  0
  -30.9020  -18.2990   20.1660 C   0  0  0  0  0  2  0  0  0  0  0  0
  -31.2070  -15.5980   20.5600 C   0  0  0  0  0  0  0  0  0  0  0  0
  -31.2100  -13.1430   19.8810 C   0  0  0  0  0  2  0  0  0  0  0  0
  -30.3760  -12.9120   18.5980 C   0  0  0  0  0  2  0  0  0  0  0  0
  -28.8970  -12.6830   18.9550 C   0  0  0  0  0  2  0  0  0  0  0  0
  -28.3740  -13.7150   19.9880 C   0  0  0  0  0  3  0  0  0  0  0  0
  -29.3420  -13.9100   21.1740 C   0  0  0  0  0  2  0  0  0  0  0  0
  -30.6350  -14.3190   20.6040 N   0  0  0  0  0  0  0  0  0  0  0  0
  -32.4280  -15.6310   20.3660 O   0  0  0  0  0  0  0  0  0  0  0  0
  -30.4400  -16.8110   20.5140 N   0  0  0  0  0  0  0  0  0  0  0  0
  -29.4490  -16.6930   20.6520 H   0  0  0  0  0  0  0  0  0  0  0  0
  -25.9870  -14.3010   20.6830 C   0  0  0  0  0  0  0  0  0  0  0  0
  -24.8930  -13.5310   20.9660 C   0  0  0  0  0  0  0  0  0  0  0  0
  -25.3260  -12.1730   20.8620 C   0  0  0  0  0  0  0  0  0  0  0  0
  -27.0160  -13.4130   20.4210 N   0  0  0  0  0  0  0  0  0  0  0  0
  -26.6280  -12.1230   20.5960 N   0  0  0  0  0  0  0  0  0  0  0  0
  -24.5640  -10.9210   20.9420 C   0  0  0  0  0  0  0  0  0  0  0  0
  -24.9360   -9.8830   21.8250 C   0  0  0  0  0  3  0  0  0  0  0  0
  -24.1740   -8.6970   21.8970 C   0  0  0  0  0  3  0  0  0  0  0  0
  -23.0260   -8.5390   21.0860 C   0  0  0  0  0  0  0  0  0  0  0  0
  -22.6730   -9.5660   20.1910 C   0  0  0  0  0  3  0  0  0  0  0  0
  -23.4360  -10.7430   20.1160 C   0  0  0  0  0  3  0  0  0  0  0  0
  -22.2400   -7.4130   21.0710 O   0  0  0  0  0  0  0  0  0  0  0  0
  -22.1050   -6.6150   22.1790 C   0  0  0  0  0  0  0  0  0  0  0  0
  -21.6130   -7.1170   23.4040 C   0  0  0  0  0  3  0  0  0  0  0  0
  -21.4260   -6.2480   24.4970 C   0  0  0  0  0  3  0  0  0  0  0  0
  -21.7190   -4.8770   24.3650 C   0  0  0  0  0  0  0  0  0  0  0  0
  -22.2020   -4.3740   23.1460 C   0  0  0  0  0  3  0  0  0  0  0  0
  -22.3920   -5.2410   22.0550 C   0  0  0  0  0  0  0  0  0  0  0  0
  -22.8390   -4.7480   20.8750 F   0  0  0  0  0  0  0  0  0  0  0  0
  -21.5310   -4.0410   25.4130 F   0  0  0  0  0  0  0  0  0  0  0  0
  -23.5000  -14.0260   21.2170 C   0  0  0  0  0  0  0  0  0  0  0  0
  -22.7250  -13.2990   22.0100 N   0  0  0  0  0  0  0  0  0  0  0  0
  -23.1050  -15.0930   20.7430 O   0  0  0  0  0  0  0  0  0  0  0  0
  -23.0560  -12.4330   22.4120 H   0  0  0  0  0  0  0  0  0  0  0  0
  -21.7870  -13.6090   22.2220 H   0  0  0  0  0  0  0  0  0  0  0  0
  -26.1940  -15.6770   20.5990 N   0  0  0  0  0  0  0  0  0  0  0  0
  -25.4400  -16.3460   20.7040 H   0  0  0  0  0  0  0  0  0  0  0  0
  -27.0570  -16.0980   20.2820 H   0  0  0  0  0  0  0  0  0  0  0  0
  1  4  1  0
  1  2  2  0
  2 55  1  0
  2  5  1  0
  3  5  1  0
  3  8  1  0
  4  3  1  0
  5  6  1  0
  8 10  1  0
  8  7  1  1
  9  8  1  0
 12 11  1  0
 12 13  1  0
 12  4  1  0
 14 13  1  0
 14 16  1  0
 15 26  2  0
 16 21  1  0
 17 25  1  0
 17 27  1  0
 18 24  1  0
 18 20  1  0
 19 25  1  0
 20 19  1  0
 21 20  2  0
 22 23  1  0
 22 16  2  0
 23 18  2  0
 24 17  1  0
 25 15  1  0
 27 29  2  0
 28 27  1  0
 30 28  1  0
 31 40  2  0
 31 36  1  0
 32 28  1  0
 32 36  1  0
 33 32  1  0
 34 35  1  0
 34 33  1  0
 35 31  1  0
 36 37  2  0
 37 38  1  0
 39 38  2  0
 40 39  1  0
 41 15  1  0
 41 46  1  0
 41 42  1  0
 42 45  1  1
 42 43  1  0
 44 42  1  0
 46 49  1  0
 47 46  1  0
 47 51  1  0
 48 47  2  0
 51 50  1  0
 51 53  1  0
 53 54  1  0
 53 52  1  0
 55 64  1  0
 56 62  1  0
 57 62  1  0
 58 59  1  0
 58 57  1  0
 60 59  1  0
 60 69  1  0
 60 61  1  0
 62 61  1  0
 63 56  2  0
 64 56  1  0
 64 65  1  0
 66 67  2  0
 67 86  1  0
 68 71  1  0
 68 67  1  0
 69 70  1  0
 69 66  1  0
 70 68  2  0
 71 72  1  0
 72 73  2  0
 74 73  1  0
 75 74  2  0
 76 75  1  0
 76 71  2  0
 77 74  1  0
 77 78  1  0
 78 79  1  0
 79 80  2  0
 81 80  1  0
 81 85  1  0
 82 81  2  0
 83 78  2  0
 83 82  1  0
 84 83  1  0
 86 87  1  0
 87 90  1  0
 87 89  1  0
 88 86  2  0
 91 66  1  0
 91 92  1  0
 93 91  1  0
M  ISO  4  13 101  14 101  56 100  64 100
M  END
>  <TORSDO>  (92) 
F 20

>  <SCORE>  (92) 
-9.777

>  <name>  (92) 
91

>  <ligand_id>  (92) 
91

>  <original_smiles>  (92) 
[H]c1c([H])c([H])c2c(c1[H])C([H])([H])C([H])([H])C([H])([H])C2([H])N([H])C(=O)C1([H])N(C(=O)C([H])(N([H])C(=O)C([H])(N([H])C([H])([H])[H])C([H])([H])[H])C(C([H])([H])[H])(C([H])([H])[H])C([H])([H])[H])C([H])([H])c2c([H])c(OC([H])([H])C([H])(n3c([H])c(C([H])([H])N([H])C(=O)N4C([H])([H])C([H])([H])C([H])([H])C([H])(n5nc(-c6c([H])c([H])c(Oc7c([H])c([H])c(F)c([H])c7F)c([H])c6[H])c(C(=O)N([H])[H])c5N([H])[H])C4([H])[H])[n+]([H])c3C(F)(F)C([H])([H])[H])C([H])([H])[H])c([H])c([H])c2C1([H])[H]

>  <smiles>  (92) 
[H]c1c([H])c([H])c2c(c1[H])C([H])([H])C([H])([H])C([H])([H])C2([H])N([H])C(=O)C1([H])N(C(=O)C([H])(N([H])C(=O)C([H])(N([H])C([H])([H])[H])C([H])([H])[H])C(C([H])([H])[H])(C([H])([H])[H])C([H])([H])[H])C([H])([H])c2c([H])c(OC([H])([H])C([H])(n3c([H])c(C([H])([H])N([H])C(=O)N4C([H])([H])C([H])([H])C([H])([H])C([H])(n5nc(-c6c([H])c([H])c(Oc7c([H])c([H])c(F)c([H])c7F)c([H])c6[H])c(C(=O)N([H])[H])c5N([H])[H])C4([H])[H])[n+]([H])c3C(F)(F)C([H])([H])[H])C([H])([H])[H])c([H])c([H])c2C1([H])[H]

$$$$
92:0:0
     RDKit          3D

 88 96  0  0  1  0  0  0  0  0999 V2000
  -31.9940  -19.4750   20.7570 C   0  0  0  0  0  0  0  0  0  0  0  0
  -30.0070  -19.8810   20.1330 C   0  0  0  0  0  0  0  0  0  0  0  0
  -33.3750  -19.6920   21.2650 C   0  0  0  0  0  1  0  0  0  0  0  0
  -31.1370  -20.4900   20.4990 N   0  0  0  0  0  0  0  0  0  0  0  0
  -31.5370  -18.2540   20.5550 N   0  0  0  0  0  2  0  0  0  0  0  0
  -30.2490  -18.3880   20.1370 N   0  0  0  0  0  0  0  0  0  0  0  0
  -28.6600  -16.6930   21.1500 C   0  0  0  0  0  1  0  0  0  0  0  0
  -29.6510  -16.8510   19.9830 C   0  0  0  0  0  3  0  0  0  0  0  0
  -30.5250  -15.3180   19.8180 C   0  0  0  0  0  0  0  0  0  0  0  0
  -30.5380  -12.8480   19.0130 C   0  0  0  0  0  2  0  0  0  0  0  0
  -29.5570  -12.6260   17.8310 C   0  0  0  0  0  2  0  0  0  0  0  0
  -28.1270  -12.3560   18.3370 C   0  0  0  0  0  2  0  0  0  0  0  0
  -27.7270  -13.3170   19.4860 C   0  0  0  0  0  3  0  0  0  0  0  0
  -28.8330  -13.4490   20.5500 C   0  0  0  0  0  2  0  0  0  0  0  0
  -30.0270  -13.9820   19.8680 N   0  0  0  0  0  0  0  0  0  0  0  0
  -31.7190  -15.3310   19.4770 O   0  0  0  0  0  0  0  0  0  0  0  0
  -25.4100  -13.8560   20.4130 C   0  0  0  0  0  0  0  0  0  0  0  0
  -24.3730  -13.0680   20.8240 C   0  0  0  0  0  0  0  0  0  0  0  0
  -24.8260  -11.7180   20.7040 C   0  0  0  0  0  0  0  0  0  0  0  0
  -26.4300  -12.9870   20.0640 N   0  0  0  0  0  0  0  0  0  0  0  0
  -26.0940  -11.6920   20.3030 N   0  0  0  0  0  0  0  0  0  0  0  0
  -24.1040  -10.4520   20.8890 C   0  0  0  0  0  0  0  0  0  0  0  0
  -24.5300   -9.4870   21.8260 C   0  0  0  0  0  3  0  0  0  0  0  0
  -23.8030   -8.2890   22.0030 C   0  0  0  0  0  3  0  0  0  0  0  0
  -22.6380   -8.0470   21.2380 C   0  0  0  0  0  0  0  0  0  0  0  0
  -22.2290   -9.0020   20.2890 C   0  0  0  0  0  3  0  0  0  0  0  0
  -22.9560  -10.1910   20.1130 C   0  0  0  0  0  3  0  0  0  0  0  0
  -21.8870   -6.8990   21.3190 O   0  0  0  0  0  0  0  0  0  0  0  0
  -21.7370   -6.2180   22.5000 C   0  0  0  0  0  0  0  0  0  0  0  0
  -21.1750   -6.8250   23.6440 C   0  0  0  0  0  3  0  0  0  0  0  0
  -20.9740   -6.0690   24.8160 C   0  0  0  0  0  3  0  0  0  0  0  0
  -21.3290   -4.7070   24.8450 C   0  0  0  0  0  0  0  0  0  0  0  0
  -21.8870   -4.0990   23.7060 C   0  0  0  0  0  3  0  0  0  0  0  0
  -22.0880   -4.8520   22.5360 C   0  0  0  0  0  0  0  0  0  0  0  0
  -22.6050   -4.2570   21.4340 F   0  0  0  0  0  0  0  0  0  0  0  0
  -21.1320   -3.9790   25.9680 F   0  0  0  0  0  0  0  0  0  0  0  0
  -23.0010  -13.5400   21.2090 C   0  0  0  0  0  0  0  0  0  0  0  0
  -22.3340  -12.8190   22.1030 N   0  0  0  0  0  0  0  0  0  0  0  0
  -22.5330  -14.5830   20.7550 O   0  0  0  0  0  0  0  0  0  0  0  0
  -22.7280  -11.9730   22.4890 H   0  0  0  0  0  0  0  0  0  0  0  0
  -21.4210  -13.1200   22.4100 H   0  0  0  0  0  0  0  0  0  0  0  0
  -25.5590  -15.2320   20.2760 N   0  0  0  0  0  0  0  0  0  0  0  0
  -24.7890  -15.8710   20.4480 H   0  0  0  0  0  0  0  0  0  0  0  0
  -26.3630  -15.6890   19.8640 H   0  0  0  0  0  0  0  0  0  0  0  0
  -28.8620  -21.1250   19.8650 C   0  0  0  0  0  3  0  0  0  0  0  0
  -29.1010  -22.8950   20.0930 C   0  0  0  0  0  3  0  0  0  0  0  0
  -28.0800  -24.3570   19.9110 C   0  0  0  0  0  3  0  0  0  0  0  0
  -28.3190  -25.9650   20.1190 O   0  0  0  0  0  0  0  0  0  0  0  0
  -24.7070  -31.7940   23.2270 C   0  0  0  0  0  0  0  0  0  0  0  0
  -27.2940  -27.0410   20.0780 C   0  0  0  0  0  0  0  0  0  0  0  0
  -23.5280  -30.4530   21.5350 C   0  0  0  0  0  3  0  0  0  0  0  0
  -24.9880  -28.8990   20.0750 C   0  0  0  0  0  0  0  0  0  0  0  0
  -26.0930  -30.6730   21.4180 C   0  0  0  0  0  2  0  0  0  0  0  0
  -26.1700  -29.2900   20.7180 C   0  0  0  0  0  0  0  0  0  0  0  0
  -27.3180  -28.3830   20.6950 C   0  0  0  0  0  3  0  0  0  0  0  0
  -26.0840  -26.7950   19.3890 C   0  0  0  0  0  3  0  0  0  0  0  0
  -24.9680  -27.6720   19.3920 C   0  0  0  0  0  3  0  0  0  0  0  0
  -23.7700  -29.8190   20.1390 C   0  0  0  0  0  2  0  0  0  0  0  0
  -24.7970  -30.9970   22.1150 N   0  0  0  0  0  0  0  0  0  0  0  0
  -23.6130  -32.0680   23.7480 O   0  0  0  0  0  0  0  0  0  0  0  0
  -22.8250  -29.4260   22.4600 C   0  0  0  0  0  0  0  0  0  0  0  0
  -21.4940  -29.2760   22.3250 N   0  0  0  0  0  0  0  0  0  0  0  0
  -23.4850  -28.7670   23.2680 O   0  0  0  0  0  0  0  0  0  0  0  0
  -21.0160  -29.8600   21.6530 H   0  0  0  0  0  0  0  0  0  0  0  0
  -18.0980  -28.1080   22.8220 C   0  0  0  0  0  0  0  0  0  0  0  0
  -20.6640  -28.3170   23.0610 C   0  0  0  0  0  3  0  0  0  0  0  0
  -20.7360  -26.9130   22.4180 C   0  0  0  0  0  2  0  0  0  0  0  0
  -19.6130  -26.6570   21.4070 C   0  0  0  0  0  2  0  0  0  0  0  0
  -18.2430  -26.7930   22.0760 C   0  0  0  0  0  2  0  0  0  0  0  0
  -19.2350  -28.8300   23.2730 C   0  0  0  0  0  0  0  0  0  0  0  0
  -19.0450  -30.0620   23.9360 C   0  0  0  0  0  3  0  0  0  0  0  0
  -17.7520  -30.5700   24.1580 C   0  0  0  0  0  3  0  0  0  0  0  0
  -16.6280  -29.8450   23.7230 C   0  0  0  0  0  3  0  0  0  0  0  0
  -16.8020  -28.6170   23.0580 C   0  0  0  0  0  3  0  0  0  0  0  0
  -25.9740  -32.4180   23.8880 C   0  0  0  0  0  3  0  0  0  0  0  0
  -26.4380  -31.6440   25.1840 C   0  0  1  0  0  0  0  0  0  0  0  0
  -25.3060  -31.4240   26.2150 C   0  0  0  0  0  1  0  0  0  0  0  0
  -27.0170  -30.2560   24.8250 C   0  0  0  0  0  1  0  0  0  0  0  0
  -27.5730  -32.4300   25.8830 C   0  0  0  0  0  1  0  0  0  0  0  0
  -25.6660  -33.8190   24.2200 N   0  0  0  0  0  0  0  0  0  0  0  0
  -25.9900  -34.8770   23.4630 C   0  0  0  0  0  0  0  0  0  0  0  0
  -26.6420  -34.7740   22.4210 O   0  0  0  0  0  0  0  0  0  0  0  0
  -25.0800  -33.9710   25.0270 H   0  0  0  0  0  0  0  0  0  0  0  0
  -24.2420  -36.6710   23.1910 C   0  0  0  0  0  1  0  0  0  0  0  0
  -25.5220  -36.2670   23.9400 C   0  0  0  0  0  3  0  0  0  0  0  0
  -27.6830  -37.1750   24.6730 C   0  0  0  0  0  1  0  0  0  0  0  0
  -26.5440  -37.3230   23.7730 N   0  0  0  0  0  0  0  0  0  0  0  0
  -26.1380  -38.2420   23.9270 H   0  0  0  0  0  0  0  0  0  0  0  0
  1  3  1  0
  2  6  1  0
  2  4  1  0
  4  1  2  0
  5  1  1  0
  6  5  1  0
  8  6  1  0
  8  7  1  0
  9 15  1  0
  9  8  1  0
 10 15  1  0
 11 12  1  0
 11 10  1  0
 13 12  1  0
 13 20  1  0
 13 14  1  0
 15 14  1  0
 16  9  2  0
 17 18  2  0
 18 37  1  0
 19 18  1  0
 19 22  1  0
 20 21  1  0
 20 17  1  0
 21 19  2  0
 22 23  1  0
 23 24  2  0
 25 28  1  0
 25 24  1  0
 26 25  2  0
 27 26  1  0
 27 22  2  0
 28 29  1  0
 29 34  2  0
 29 30  1  0
 30 31  2  0
 31 32  1  0
 32 36  1  0
 33 32  2  0
 34 33  1  0
 35 34  1  0
 37 38  1  0
 38 41  1  0
 38 40  1  0
 39 37  2  0
 42 17  1  0
 42 43  1  0
 44 42  1  0
 45 46  1  0
 45  2  2  0
 47 46  2  0
 47 48  1  0
 49 60  2  0
 50 48  1  0
 50 55  1  0
 51 59  1  0
 51 61  1  0
 52 58  1  0
 52 54  1  0
 53 59  1  0
 54 53  1  0
 55 54  2  0
 56 57  1  0
 56 50  2  0
 57 52  2  0
 58 51  1  0
 59 49  1  0
 61 63  2  0
 62 61  1  0
 64 62  1  0
 65 74  2  0
 65 70  1  0
 66 62  1  0
 66 70  1  0
 67 66  1  0
 68 69  1  0
 68 67  1  0
 69 65  1  0
 70 71  2  0
 71 72  1  0
 73 72  2  0
 74 73  1  0
 75 49  1  0
 75 80  1  0
 75 76  1  0
 76 79  1  1
 76 77  1  0
 78 76  1  0
 80 83  1  0
 81 85  1  0
 81 80  1  0
 82 81  2  0
 85 84  1  0
 87 88  1  0
 87 85  1  0
 87 86  1  0
M  ISO  4   8 100   9 100  47 101  48 101
M  END
>  <TORSDO>  (93) 
F 20

>  <SCORE>  (93) 
-15.269

>  <name>  (93) 
92

>  <ligand_id>  (93) 
92

>  <original_smiles>  (93) 
[H]c1c([H])c([H])c2c(c1[H])C([H])([H])C([H])([H])C([H])([H])C2([H])N([H])C(=O)C1([H])N(C(=O)C([H])(N([H])C(=O)C([H])(N([H])C([H])([H])[H])C([H])([H])[H])C(C([H])([H])[H])(C([H])([H])[H])C([H])([H])[H])C([H])([H])c2c([H])c(OC([H])([H])C([H])([H])C([H])([H])c3nc(C([H])([H])[H])nn3C([H])(C(=O)N3C([H])([H])C([H])([H])C([H])([H])C([H])(n4nc(-c5c([H])c([H])c(Oc6c([H])c([H])c(F)c([H])c6F)c([H])c5[H])c(C(=O)N([H])[H])c4N([H])[H])C3([H])[H])C([H])([H])[H])c([H])c([H])c2C1([H])[H]

>  <smiles>  (93) 
[H]c1c([H])c([H])c2c(c1[H])C([H])([H])C([H])([H])C([H])([H])C2([H])N([H])C(=O)C1([H])N(C(=O)C([H])(N([H])C(=O)C([H])(N([H])C([H])([H])[H])C([H])([H])[H])C(C([H])([H])[H])(C([H])([H])[H])C([H])([H])[H])C([H])([H])c2c([H])c(OC([H])([H])C([H])([H])C([H])([H])c3nc(C([H])([H])[H])nn3C([H])(C(=O)N3C([H])([H])C([H])([H])C([H])([H])C([H])(n4nc(-c5c([H])c([H])c(Oc6c([H])c([H])c(F)c([H])c6F)c([H])c5[H])c(C(=O)N([H])[H])c4N([H])[H])C3([H])[H])C([H])([H])[H])c([H])c([H])c2C1([H])[H]

$$$$
93:0:0
     RDKit          3D

 88 96  0  0  1  0  0  0  0  0999 V2000
  -29.5560  -20.7940   18.8860 C   0  0  0  0  0  3  0  0  0  0  0  0
  -29.6780  -19.9230   20.0510 C   0  0  0  0  0  0  0  0  0  0  0  0
  -28.9830  -22.0760   21.1320 C   0  0  0  0  0  0  0  0  0  0  0  0
  -28.8580  -22.9460   19.9530 C   0  0  0  0  0  0  0  0  0  0  0  0
  -28.6240  -22.6470   22.4880 C   0  0  0  0  0  1  0  0  0  0  0  0
  -29.1630  -22.1630   18.8380 N   0  0  0  0  0  0  0  0  0  0  0  0
  -29.3850  -20.7010   21.1760 N   0  0  0  0  0  0  0  0  0  0  0  0
  -30.4300  -18.3490   20.0610 C   0  0  0  0  0  2  0  0  0  0  0  0
  -30.6870  -15.4740   20.1480 C   0  0  0  0  0  0  0  0  0  0  0  0
  -30.6570  -13.0440   19.2170 C   0  0  0  0  0  2  0  0  0  0  0  0
  -29.6930  -12.8330   18.0190 C   0  0  0  0  0  2  0  0  0  0  0  0
  -28.2510  -12.5680   18.4910 C   0  0  0  0  0  2  0  0  0  0  0  0
  -27.8400  -13.5060   19.6540 C   0  0  0  0  0  3  0  0  0  0  0  0
  -28.9330  -13.5700   20.7430 C   0  0  0  0  0  2  0  0  0  0  0  0
  -30.1200  -14.1590   20.0880 N   0  0  0  0  0  0  0  0  0  0  0  0
  -31.8970  -15.4620   19.8680 O   0  0  0  0  0  0  0  0  0  0  0  0
  -28.5740  -16.8400   20.7150 C   0  0  0  0  0  1  0  0  0  0  0  0
  -29.9650  -16.7770   20.2750 N   0  0  0  0  0  0  0  0  0  0  0  0
  -25.4790  -14.0580   20.4580 C   0  0  0  0  0  0  0  0  0  0  0  0
  -24.4280  -13.2760   20.8400 C   0  0  0  0  0  0  0  0  0  0  0  0
  -24.8960  -11.9280   20.7770 C   0  0  0  0  0  0  0  0  0  0  0  0
  -26.5220  -13.1890   20.1860 N   0  0  0  0  0  0  0  0  0  0  0  0
  -26.1800  -11.8990   20.4410 N   0  0  0  0  0  0  0  0  0  0  0  0
  -24.1720  -10.6650   20.9600 C   0  0  0  0  0  0  0  0  0  0  0  0
  -24.5860   -9.7070   21.9120 C   0  0  0  0  0  3  0  0  0  0  0  0
  -23.8590   -8.5090   22.0840 C   0  0  0  0  0  3  0  0  0  0  0  0
  -22.7040   -8.2620   21.3060 C   0  0  0  0  0  0  0  0  0  0  0  0
  -22.3110   -9.2080   20.3430 C   0  0  0  0  0  3  0  0  0  0  0  0
  -23.0370  -10.3980   20.1700 C   0  0  0  0  0  3  0  0  0  0  0  0
  -21.9510   -7.1160   21.3870 O   0  0  0  0  0  0  0  0  0  0  0  0
  -21.8210   -6.4210   22.5620 C   0  0  0  0  0  0  0  0  0  0  0  0
  -21.2560   -7.0070   23.7160 C   0  0  0  0  0  3  0  0  0  0  0  0
  -21.0790   -6.2370   24.8820 C   0  0  0  0  0  3  0  0  0  0  0  0
  -21.4550   -4.8800   24.8950 C   0  0  0  0  0  0  0  0  0  0  0  0
  -22.0110   -4.2930   23.7450 C   0  0  0  0  0  3  0  0  0  0  0  0
  -22.1920   -5.0610   22.5820 C   0  0  0  0  0  0  0  0  0  0  0  0
  -22.7090   -4.4840   21.4690 F   0  0  0  0  0  0  0  0  0  0  0  0
  -21.2790   -4.1380   26.0120 F   0  0  0  0  0  0  0  0  0  0  0  0
  -23.0370  -13.7500   21.1470 C   0  0  0  0  0  0  0  0  0  0  0  0
  -22.3340  -13.0550   22.0330 N   0  0  0  0  0  0  0  0  0  0  0  0
  -22.5850  -14.7750   20.6400 O   0  0  0  0  0  0  0  0  0  0  0  0
  -22.7100  -12.2230   22.4650 H   0  0  0  0  0  0  0  0  0  0  0  0
  -21.4050  -13.3590   22.2860 H   0  0  0  0  0  0  0  0  0  0  0  0
  -25.6220  -15.4310   20.2920 N   0  0  0  0  0  0  0  0  0  0  0  0
  -24.8480  -16.0740   20.4210 H   0  0  0  0  0  0  0  0  0  0  0  0
  -26.4600  -15.8810   19.9550 H   0  0  0  0  0  0  0  0  0  0  0  0
  -28.0200  -24.4730   19.8100 C   0  0  0  0  0  2  0  0  0  0  0  0
  -28.3760  -26.0650   19.9460 O   0  0  0  0  0  0  0  0  0  0  0  0
  -24.7650  -31.8390   23.1730 C   0  0  0  0  0  0  0  0  0  0  0  0
  -27.3610  -27.1530   19.9240 C   0  0  0  0  0  0  0  0  0  0  0  0
  -23.5780  -30.5080   21.4780 C   0  0  0  0  0  3  0  0  0  0  0  0
  -25.0360  -28.9940   19.9710 C   0  0  0  0  0  0  0  0  0  0  0  0
  -26.1410  -30.7600   21.3240 C   0  0  0  0  0  2  0  0  0  0  0  0
  -26.2220  -29.3850   20.6060 C   0  0  0  0  0  0  0  0  0  0  0  0
  -27.3790  -28.4880   20.5600 C   0  0  0  0  0  3  0  0  0  0  0  0
  -26.1420  -26.9140   19.2480 C   0  0  0  0  0  3  0  0  0  0  0  0
  -25.0210  -27.7800   19.2690 C   0  0  0  0  0  3  0  0  0  0  0  0
  -23.8040  -29.8950   20.0700 C   0  0  0  0  0  2  0  0  0  0  0  0
  -24.8500  -31.0600   22.0480 N   0  0  0  0  0  0  0  0  0  0  0  0
  -23.6740  -32.0890   23.7140 O   0  0  0  0  0  0  0  0  0  0  0  0
  -22.9040  -29.4570   22.3990 C   0  0  0  0  0  0  0  0  0  0  0  0
  -21.5740  -29.2850   22.2780 N   0  0  0  0  0  0  0  0  0  0  0  0
  -23.5830  -28.7960   23.1900 O   0  0  0  0  0  0  0  0  0  0  0  0
  -21.0820  -29.8710   21.6180 H   0  0  0  0  0  0  0  0  0  0  0  0
  -18.2020  -28.0440   22.7770 C   0  0  0  0  0  0  0  0  0  0  0  0
  -20.7660  -28.3040   23.0070 C   0  0  0  0  0  3  0  0  0  0  0  0
  -20.8580  -26.9070   22.3490 C   0  0  0  0  0  2  0  0  0  0  0  0
  -19.7380  -26.6390   21.3390 C   0  0  0  0  0  2  0  0  0  0  0  0
  -18.3680  -26.7390   22.0170 C   0  0  0  0  0  2  0  0  0  0  0  0
  -19.3270  -28.7860   23.2280 C   0  0  0  0  0  0  0  0  0  0  0  0
  -19.1150  -30.0060   23.9050 C   0  0  0  0  0  3  0  0  0  0  0  0
  -17.8130  -30.4880   24.1320 C   0  0  0  0  0  3  0  0  0  0  0  0
  -16.7020  -29.7440   23.6960 C   0  0  0  0  0  3  0  0  0  0  0  0
  -16.8970  -28.5230   23.0240 C   0  0  0  0  0  3  0  0  0  0  0  0
  -26.0310  -32.4680   23.8300 C   0  0  0  0  0  3  0  0  0  0  0  0
  -25.7050  -33.8540   24.2040 N   0  0  0  0  0  0  0  0  0  0  0  0
  -25.9980  -34.9390   23.4720 C   0  0  0  0  0  0  0  0  0  0  0  0
  -26.6370  -34.8760   22.4180 O   0  0  0  0  0  0  0  0  0  0  0  0
  -25.1360  -33.9740   25.0290 H   0  0  0  0  0  0  0  0  0  0  0  0
  -24.2230  -36.7120   23.2530 C   0  0  0  0  0  1  0  0  0  0  0  0
  -25.5110  -36.3090   23.9890 C   0  0  0  0  0  3  0  0  0  0  0  0
  -27.6640  -37.2240   24.7390 C   0  0  0  0  0  1  0  0  0  0  0  0
  -26.5180  -37.3840   23.8480 N   0  0  0  0  0  0  0  0  0  0  0  0
  -26.1020  -38.2950   24.0250 H   0  0  0  0  0  0  0  0  0  0  0  0
  -26.5310  -31.6680   25.0970 C   0  0  1  0  0  0  0  0  0  0  0  0
  -25.4250  -31.4040   26.1460 C   0  0  0  0  0  1  0  0  0  0  0  0
  -27.1240  -30.3020   24.6840 C   0  0  0  0  0  1  0  0  0  0  0  0
  -27.6730  -32.4490   25.7900 C   0  0  0  0  0  1  0  0  0  0  0  0
  1  2  1  0
  2  8  1  0
  2  7  2  0
  3  7  1  0
  3  5  1  0
  4  3  2  0
  6  1  2  0
  6  4  1  0
  8 18  1  0
  9 18  1  0
 10 15  1  0
 11 12  1  0
 11 10  1  0
 13 12  1  0
 13 22  1  0
 13 14  1  0
 15  9  1  0
 15 14  1  0
 16  9  2  0
 18 17  1  0
 19 20  2  0
 20 39  1  0
 21 20  1  0
 21 24  1  0
 22 23  1  0
 22 19  1  0
 23 21  2  0
 24 25  1  0
 25 26  2  0
 27 30  1  0
 27 26  1  0
 28 27  2  0
 29 28  1  0
 29 24  2  0
 30 31  1  0
 31 36  2  0
 31 32  1  0
 32 33  2  0
 33 34  1  0
 34 38  1  0
 35 34  2  0
 36 35  1  0
 37 36  1  0
 39 40  1  0
 40 43  1  0
 40 42  1  0
 41 39  2  0
 44 45  1  0
 44 19  1  0
 46 44  1  0
 47 48  1  0
 47  4  1  0
 49 60  2  0
 50 48  1  0
 50 55  1  0
 51 59  1  0
 51 61  1  0
 52 58  1  0
 52 54  1  0
 53 59  1  0
 54 53  1  0
 55 54  2  0
 56 57  1  0
 56 50  2  0
 57 52  2  0
 58 51  1  0
 59 49  1  0
 61 63  2  0
 62 61  1  0
 64 62  1  0
 65 74  2  0
 65 70  1  0
 66 62  1  0
 66 70  1  0
 67 66  1  0
 68 69  1  0
 68 67  1  0
 69 65  1  0
 70 71  2  0
 71 72  1  0
 73 72  2  0
 74 73  1  0
 75 49  1  0
 75 76  1  0
 75 85  1  0
 76 79  1  0
 77 81  1  0
 77 76  1  0
 78 77  2  0
 81 80  1  0
 83 81  1  0
 83 84  1  0
 83 82  1  0
 85 88  1  1
 85 86  1  0
 87 85  1  0
M  ISO  4   9 100  18 100  47 101  48 101
M  END
>  <TORSDO>  (94) 
F 18

>  <SCORE>  (94) 
-15.529

>  <name>  (94) 
93

>  <ligand_id>  (94) 
93

>  <original_smiles>  (94) 
[H]c1nc(C([H])([H])Oc2c([H])c([H])c3c(c2[H])C([H])([H])N(C(=O)C([H])(N([H])C(=O)C([H])(N([H])C([H])([H])[H])C([H])([H])[H])C(C([H])([H])[H])(C([H])([H])[H])C([H])([H])[H])C([H])(C(=O)N([H])C2([H])c4c([H])c([H])c([H])c([H])c4C([H])([H])C([H])([H])C2([H])[H])C3([H])[H])c(C([H])([H])[H])nc1C([H])([H])N(C(=O)N1C([H])([H])C([H])([H])C([H])([H])C([H])(n2nc(-c3c([H])c([H])c(Oc4c([H])c([H])c(F)c([H])c4F)c([H])c3[H])c(C(=O)N([H])[H])c2N([H])[H])C1([H])[H])C([H])([H])[H]

>  <smiles>  (94) 
[H]c1nc(C([H])([H])Oc2c([H])c([H])c3c(c2[H])C([H])([H])N(C(=O)C([H])(N([H])C(=O)C([H])(N([H])C([H])([H])[H])C([H])([H])[H])C(C([H])([H])[H])(C([H])([H])[H])C([H])([H])[H])C([H])(C(=O)N([H])C2([H])c4c([H])c([H])c([H])c([H])c4C([H])([H])C([H])([H])C2([H])[H])C3([H])[H])c(C([H])([H])[H])nc1C([H])([H])N(C(=O)N1C([H])([H])C([H])([H])C([H])([H])C([H])(n2nc(-c3c([H])c([H])c(Oc4c([H])c([H])c(F)c([H])c4F)c([H])c3[H])c(C(=O)N([H])[H])c2N([H])[H])C1([H])[H])C([H])([H])[H]

$$$$
94:0:0
     RDKit          3D

 91 99  0  0  1  0  0  0  0  0999 V2000
  -29.6650  -20.4350   21.5250 C   0  0  0  0  0  3  0  0  0  0  0  0
  -28.3930  -19.0910   19.5740 C   0  0  0  0  0  3  0  0  0  0  0  0
  -28.7460  -21.1250   20.6760 C   0  0  0  0  0  0  0  0  0  0  0  0
  -29.2530  -18.3830   20.4630 C   0  0  0  0  0  0  0  0  0  0  0  0
  -28.1420  -20.4330   19.6730 N   0  0  0  0  0  0  0  0  0  0  0  0
  -29.9070  -19.0890   21.4320 N   0  0  0  0  0  0  0  0  0  0  0  0
  -28.1850  -22.5570   21.0070 C   0  0  0  0  0  2  0  0  0  0  0  0
  -28.6880  -23.8790   20.2910 C   0  0  0  0  0  2  0  0  0  0  0  0
  -28.0400  -25.2160   20.8680 C   0  0  0  0  0  2  0  0  0  0  0  0
  -28.3240  -26.5290   20.2540 O   0  0  0  0  0  0  0  0  0  0  0  0
  -24.6110  -31.9260   23.2390 C   0  0  0  0  0  0  0  0  0  0  0  0
  -27.2350  -27.3970   20.1900 C   0  0  0  0  0  0  0  0  0  0  0  0
  -23.4150  -30.5180   21.5930 C   0  0  0  0  0  3  0  0  0  0  0  0
  -24.8750  -28.9870   20.1570 C   0  0  0  0  0  0  0  0  0  0  0  0
  -25.9460  -30.8590   21.4110 C   0  0  0  0  0  2  0  0  0  0  0  0
  -26.0350  -29.4830   20.7670 C   0  0  0  0  0  0  0  0  0  0  0  0
  -27.2250  -28.7000   20.7730 C   0  0  0  0  0  3  0  0  0  0  0  0
  -26.0630  -26.9580   19.5380 C   0  0  0  0  0  3  0  0  0  0  0  0
  -24.8900  -27.7340   19.5250 C   0  0  0  0  0  3  0  0  0  0  0  0
  -23.6340  -29.8540   20.2090 C   0  0  0  0  0  2  0  0  0  0  0  0
  -24.6750  -31.1170   22.1410 N   0  0  0  0  0  0  0  0  0  0  0  0
  -23.5280  -32.2050   23.7710 O   0  0  0  0  0  0  0  0  0  0  0  0
  -22.7590  -29.4970   22.5540 C   0  0  0  0  0  0  0  0  0  0  0  0
  -21.4340  -29.3160   22.4250 N   0  0  0  0  0  0  0  0  0  0  0  0
  -23.4390  -28.8720   23.3730 O   0  0  0  0  0  0  0  0  0  0  0  0
  -20.9480  -29.8810   21.7420 H   0  0  0  0  0  0  0  0  0  0  0  0
  -18.0610  -28.0960   22.8890 C   0  0  0  0  0  0  0  0  0  0  0  0
  -20.6130  -28.3760   23.1870 C   0  0  0  0  0  3  0  0  0  0  0  0
  -20.7300  -26.9420   22.6200 C   0  0  0  0  0  2  0  0  0  0  0  0
  -19.6430  -26.6040   21.5940 C   0  0  0  0  0  2  0  0  0  0  0  0
  -18.2540  -26.7450   22.2210 C   0  0  0  0  0  2  0  0  0  0  0  0
  -19.1680  -28.8690   23.3270 C   0  0  0  0  0  0  0  0  0  0  0  0
  -18.9350  -30.1310   23.9170 C   0  0  0  0  0  3  0  0  0  0  0  0
  -17.6270  -30.6230   24.0670 C   0  0  0  0  0  3  0  0  0  0  0  0
  -16.5310  -29.8500   23.6450 C   0  0  0  0  0  3  0  0  0  0  0  0
  -16.7490  -28.5880   23.0630 C   0  0  0  0  0  3  0  0  0  0  0  0
  -25.8910  -32.5620   23.8600 C   0  0  0  0  0  3  0  0  0  0  0  0
  -25.5810  -33.9600   24.1930 N   0  0  0  0  0  0  0  0  0  0  0  0
  -25.9150  -35.0130   23.4330 C   0  0  0  0  0  0  0  0  0  0  0  0
  -26.5880  -34.9090   22.4050 O   0  0  0  0  0  0  0  0  0  0  0  0
  -24.9910  -34.1100   24.9980 H   0  0  0  0  0  0  0  0  0  0  0  0
  -24.1880  -36.8040   23.0650 C   0  0  0  0  0  1  0  0  0  0  0  0
  -25.4220  -36.3990   23.8890 C   0  0  0  0  0  3  0  0  0  0  0  0
  -27.5520  -37.2810   24.7370 C   0  0  0  0  0  1  0  0  0  0  0  0
  -26.4570  -37.4520   23.7860 N   0  0  0  0  0  0  0  0  0  0  0  0
  -26.0520  -38.3730   23.9340 H   0  0  0  0  0  0  0  0  0  0  0  0
  -26.4090  -31.7890   25.1380 C   0  0  1  0  0  0  0  0  0  0  0  0
  -25.3150  -31.5480   26.2040 C   0  0  0  0  0  1  0  0  0  0  0  0
  -26.9920  -30.4110   24.7430 C   0  0  0  0  0  1  0  0  0  0  0  0
  -27.5610  -32.5840   25.8010 C   0  0  0  0  0  1  0  0  0  0  0  0
  -29.2700  -16.8070   20.5120 C   0  0  0  0  0  2  0  0  0  0  0  0
  -30.8050  -14.7580   20.3370 C   0  0  0  0  0  0  0  0  0  0  0  0
  -30.4390  -12.5300   19.3360 C   0  0  0  0  0  2  0  0  0  0  0  0
  -29.5070  -12.5680   18.1110 C   0  0  0  0  0  2  0  0  0  0  0  0
  -28.0470  -12.4000   18.5600 C   0  0  0  0  0  2  0  0  0  0  0  0
  -27.6630  -13.3360   19.7400 C   0  0  0  0  0  3  0  0  0  0  0  0
  -28.7310  -13.3370   20.8590 C   0  0  0  0  0  2  0  0  0  0  0  0
  -30.0180  -13.6370   20.2160 N   0  0  0  0  0  0  0  0  0  0  0  0
  -32.0230  -14.6060   20.3250 O   0  0  0  0  0  0  0  0  0  0  0  0
  -30.3440  -15.9890   19.8600 N   0  0  0  0  0  0  0  0  0  0  0  0
  -25.2600  -13.9110   20.4460 C   0  0  0  0  0  0  0  0  0  0  0  0
  -24.1930  -13.1310   20.8050 C   0  0  0  0  0  0  0  0  0  0  0  0
  -24.6670  -11.7860   20.7980 C   0  0  0  0  0  0  0  0  0  0  0  0
  -26.3170  -13.0420   20.2350 N   0  0  0  0  0  0  0  0  0  0  0  0
  -25.9650  -11.7590   20.5150 N   0  0  0  0  0  0  0  0  0  0  0  0
  -23.9470  -10.5160   20.9890 C   0  0  0  0  0  0  0  0  0  0  0  0
  -24.3680   -9.5630   21.9400 C   0  0  0  0  0  3  0  0  0  0  0  0
  -23.6460   -8.3630   22.1210 C   0  0  0  0  0  3  0  0  0  0  0  0
  -22.4870   -8.1090   21.3490 C   0  0  0  0  0  0  0  0  0  0  0  0
  -22.0820   -9.0560   20.3900 C   0  0  0  0  0  3  0  0  0  0  0  0
  -22.8080  -10.2440   20.2070 C   0  0  0  0  0  3  0  0  0  0  0  0
  -21.7460   -6.9560   21.4380 O   0  0  0  0  0  0  0  0  0  0  0  0
  -21.6820   -6.2230   22.5980 C   0  0  0  0  0  0  0  0  0  0  0  0
  -21.2400   -6.7890   23.8130 C   0  0  0  0  0  3  0  0  0  0  0  0
  -21.1200   -5.9830   24.9640 C   0  0  0  0  0  3  0  0  0  0  0  0
  -21.4380   -4.6130   24.9030 C   0  0  0  0  0  0  0  0  0  0  0  0
  -21.8770   -4.0490   23.6930 C   0  0  0  0  0  3  0  0  0  0  0  0
  -21.9960   -4.8490   22.5450 C   0  0  0  0  0  0  0  0  0  0  0  0
  -22.3960   -4.2910   21.3760 F   0  0  0  0  0  0  0  0  0  0  0  0
  -21.3220   -3.8410   26.0070 F   0  0  0  0  0  0  0  0  0  0  0  0
  -22.7840  -13.6000   21.0420 C   0  0  0  0  0  0  0  0  0  0  0  0
  -22.0400  -12.9160   21.9000 N   0  0  0  0  0  0  0  0  0  0  0  0
  -22.3500  -14.6160   20.5000 O   0  0  0  0  0  0  0  0  0  0  0  0
  -22.4010  -12.1040   22.3800 H   0  0  0  0  0  0  0  0  0  0  0  0
  -21.0950  -13.2140   22.0950 H   0  0  0  0  0  0  0  0  0  0  0  0
  -25.4100  -15.2820   20.2570 N   0  0  0  0  0  0  0  0  0  0  0  0
  -24.6270  -15.9160   20.3670 H   0  0  0  0  0  0  0  0  0  0  0  0
  -26.2430  -15.7340   19.9040 H   0  0  0  0  0  0  0  0  0  0  0  0
  -30.5180  -17.3650   17.6690 C   0  0  0  0  0  1  0  0  0  0  0  0
  -32.2960  -17.6360   19.5670 C   0  0  0  0  0  1  0  0  0  0  0  0
  -31.2320  -16.7260   18.8890 C   0  0  0  0  0  3  0  0  0  0  0  0
  2  5  2  0
  2  4  1  0
  3  7  1  0
  3  1  2  0
  4 51  1  0
  4  6  2  0
  5  3  1  0
  6  1  1  0
  8  9  1  0
  8  7  1  0
 10  9  1  0
 11 22  2  0
 12 10  1  0
 12 17  1  0
 13 21  1  0
 13 23  1  0
 14 20  1  0
 14 16  1  0
 15 21  1  0
 16 17  2  0
 16 15  1  0
 18 12  2  0
 19 18  1  0
 19 14  2  0
 20 13  1  0
 21 11  1  0
 23 25  2  0
 24 23  1  0
 26 24  1  0
 27 36  2  0
 27 32  1  0
 28 24  1  0
 28 32  1  0
 29 28  1  0
 30 31  1  0
 30 29  1  0
 31 27  1  0
 32 33  2  0
 33 34  1  0
 35 34  2  0
 36 35  1  0
 37 11  1  0
 37 38  1  0
 37 47  1  0
 38 41  1  0
 39 43  1  0
 39 38  1  0
 40 39  2  0
 43 42  1  0
 45 43  1  0
 45 46  1  0
 45 44  1  0
 47 50  1  1
 47 48  1  0
 49 47  1  0
 53 58  1  0
 54 55  1  0
 54 53  1  0
 56 55  1  0
 56 64  1  0
 56 57  1  0
 58 52  1  0
 58 57  1  0
 59 52  2  0
 60 52  1  0
 60 51  1  0
 61 62  2  0
 62 81  1  0
 63 62  1  0
 63 66  1  0
 64 61  1  0
 64 65  1  0
 65 63  2  0
 66 67  1  0
 67 68  2  0
 69 72  1  0
 69 68  1  0
 70 69  2  0
 71 70  1  0
 71 66  2  0
 72 73  1  0
 73 74  1  0
 74 75  2  0
 76 75  1  0
 76 80  1  0
 77 76  2  0
 78 73  2  0
 78 77  1  0
 79 78  1  0
 81 82  1  0
 82 85  1  0
 82 84  1  0
 83 81  2  0
 86 87  1  0
 86 61  1  0
 88 86  1  0
 89 91  1  0
 91 90  1  0
 91 60  1  0
M  ISO  4   9 101  10 101  52 100  60 100
M  END
>  <TORSDO>  (95) 
F 21

>  <SCORE>  (95) 
-13.398

>  <name>  (95) 
94

>  <ligand_id>  (95) 
94

>  <original_smiles>  (95) 
[H]c1nc(C([H])([H])C([H])([H])C([H])([H])Oc2c([H])c([H])c3c(c2[H])C([H])([H])N(C(=O)C([H])(N([H])C(=O)C([H])(N([H])C([H])([H])[H])C([H])([H])[H])C(C([H])([H])[H])(C([H])([H])[H])C([H])([H])[H])C([H])(C(=O)N([H])C2([H])c4c([H])c([H])c([H])c([H])c4C([H])([H])C([H])([H])C2([H])[H])C3([H])[H])c([H])nc1C([H])([H])N(C(=O)N1C([H])([H])C([H])([H])C([H])([H])C([H])(n2nc(-c3c([H])c([H])c(Oc4c([H])c([H])c(F)c([H])c4F)c([H])c3[H])c(C(=O)N([H])[H])c2N([H])[H])C1([H])[H])C([H])(C([H])([H])[H])C([H])([H])[H]

>  <smiles>  (95) 
[H]c1nc(C([H])([H])C([H])([H])C([H])([H])Oc2c([H])c([H])c3c(c2[H])C([H])([H])N(C(=O)C([H])(N([H])C(=O)C([H])(N([H])C([H])([H])[H])C([H])([H])[H])C(C([H])([H])[H])(C([H])([H])[H])C([H])([H])[H])C([H])(C(=O)N([H])C2([H])c4c([H])c([H])c([H])c([H])c4C([H])([H])C([H])([H])C2([H])[H])C3([H])[H])c([H])nc1C([H])([H])N(C(=O)N1C([H])([H])C([H])([H])C([H])([H])C([H])(n2nc(-c3c([H])c([H])c(Oc4c([H])c([H])c(F)c([H])c4F)c([H])c3[H])c(C(=O)N([H])[H])c2N([H])[H])C1([H])[H])C([H])(C([H])([H])[H])C([H])([H])[H]

$$$$
95:0:0
     RDKit          3D

 89 97  0  0  1  0  0  0  0  0999 V2000
  -29.8740  -21.4510   18.3700 C   0  0  0  0  0  0  0  0  0  0  0  0
  -28.7870  -22.5390   20.0640 C   0  0  0  0  0  0  0  0  0  0  0  0
  -29.3600  -20.0060   20.0650 C   0  0  0  0  0  0  0  0  0  0  0  0
  -30.5520  -21.5980   17.0260 C   0  0  0  0  0  1  0  0  0  0  0  0
  -29.3730  -22.5930   18.8710 N   0  0  0  0  0  4  0  0  0  0  0  0
  -29.8900  -20.2030   18.8630 N   0  0  0  0  0  0  0  0  0  0  0  0
  -28.8000  -21.2070   20.6910 N   0  0  0  0  0  2  0  0  0  0  0  0
  -31.1200  -18.5420   21.3910 C   0  0  0  0  0  1  0  0  0  0  0  0
  -29.7470  -18.3850   20.7170 C   0  0  0  0  0  3  0  0  0  0  0  0
  -30.4030  -15.4340   20.2670 C   0  0  0  0  0  0  0  0  0  0  0  0
  -30.4280  -12.9500   19.4070 C   0  0  0  0  0  2  0  0  0  0  0  0
  -29.5130  -12.6340   18.1960 C   0  0  0  0  0  2  0  0  0  0  0  0
  -28.0780  -12.3200   18.6540 C   0  0  0  0  0  2  0  0  0  0  0  0
  -27.5940  -13.2960   19.7500 C   0  0  0  0  0  3  0  0  0  0  0  0
  -28.6460  -13.5480   20.8540 C   0  0  0  0  0  2  0  0  0  0  0  0
  -29.8350  -14.1110   20.1800 N   0  0  0  0  0  0  0  0  0  0  0  0
  -31.6430  -15.3740   20.2360 O   0  0  0  0  0  0  0  0  0  0  0  0
  -28.5490  -16.7080   19.2260 C   0  0  0  0  0  1  0  0  0  0  0  0
  -29.6580  -16.7590   20.1740 N   0  0  0  0  0  0  0  0  0  0  0  0
  -25.2210  -13.8300   20.5030 C   0  0  0  0  0  0  0  0  0  0  0  0
  -24.1650  -13.0450   20.8660 C   0  0  0  0  0  0  0  0  0  0  0  0
  -24.6480  -11.7000   20.8440 C   0  0  0  0  0  0  0  0  0  0  0  0
  -26.2750  -12.9660   20.2700 N   0  0  0  0  0  0  0  0  0  0  0  0
  -25.9420  -11.6780   20.5440 N   0  0  0  0  0  0  0  0  0  0  0  0
  -23.9330  -10.4330   21.0320 C   0  0  0  0  0  0  0  0  0  0  0  0
  -24.3650   -9.4740   21.9740 C   0  0  0  0  0  3  0  0  0  0  0  0
  -23.6450   -8.2740   22.1530 C   0  0  0  0  0  3  0  0  0  0  0  0
  -22.4800   -8.0230   21.3890 C   0  0  0  0  0  0  0  0  0  0  0  0
  -22.0690   -8.9710   20.4360 C   0  0  0  0  0  3  0  0  0  0  0  0
  -22.7890  -10.1640   20.2550 C   0  0  0  0  0  3  0  0  0  0  0  0
  -21.7340   -6.8730   21.4760 O   0  0  0  0  0  0  0  0  0  0  0  0
  -21.6800   -6.1370   22.6320 C   0  0  0  0  0  0  0  0  0  0  0  0
  -21.2300   -6.6950   23.8500 C   0  0  0  0  0  3  0  0  0  0  0  0
  -21.1230   -5.8850   24.9980 C   0  0  0  0  0  3  0  0  0  0  0  0
  -21.4550   -4.5180   24.9300 C   0  0  0  0  0  0  0  0  0  0  0  0
  -21.9000   -3.9610   23.7180 C   0  0  0  0  0  3  0  0  0  0  0  0
  -22.0070   -4.7680   22.5720 C   0  0  0  0  0  0  0  0  0  0  0  0
  -22.4150   -4.2200   21.4010 F   0  0  0  0  0  0  0  0  0  0  0  0
  -21.3460   -3.7390   26.0310 F   0  0  0  0  0  0  0  0  0  0  0  0
  -22.7610  -13.5110   21.1160 C   0  0  0  0  0  0  0  0  0  0  0  0
  -22.0330  -12.8110   21.9770 N   0  0  0  0  0  0  0  0  0  0  0  0
  -22.3210  -14.5310   20.5880 O   0  0  0  0  0  0  0  0  0  0  0  0
  -22.4100  -11.9880   22.4230 H   0  0  0  0  0  0  0  0  0  0  0  0
  -21.0900  -13.1000   22.1940 H   0  0  0  0  0  0  0  0  0  0  0  0
  -25.3610  -15.2020   20.3220 N   0  0  0  0  0  0  0  0  0  0  0  0
  -24.5780  -15.8390   20.4230 H   0  0  0  0  0  0  0  0  0  0  0  0
  -26.1980  -15.6530   19.9830 H   0  0  0  0  0  0  0  0  0  0  0  0
  -27.9830  -24.0750   20.5290 C   0  0  0  0  0  2  0  0  0  0  0  0
  -28.2190  -25.7270   20.2460 O   0  0  0  0  0  0  0  0  0  0  0  0
  -24.6360  -31.8280   23.1890 C   0  0  0  0  0  0  0  0  0  0  0  0
  -27.2100  -26.8570   20.2410 C   0  0  0  0  0  0  0  0  0  0  0  0
  -23.4540  -30.4160   21.5580 C   0  0  0  0  0  3  0  0  0  0  0  0
  -24.9120  -28.7840   20.1650 C   0  0  0  0  0  0  0  0  0  0  0  0
  -26.0250  -30.6100   21.4260 C   0  0  0  0  0  2  0  0  0  0  0  0
  -26.1030  -29.1830   20.7860 C   0  0  0  0  0  0  0  0  0  0  0  0
  -27.2450  -28.2470   20.7890 C   0  0  0  0  0  3  0  0  0  0  0  0
  -25.9840  -26.6300   19.5730 C   0  0  0  0  0  3  0  0  0  0  0  0
  -24.8830  -27.5300   19.5350 C   0  0  0  0  0  3  0  0  0  0  0  0
  -23.6940  -29.7130   20.1930 C   0  0  0  0  0  2  0  0  0  0  0  0
  -24.7270  -30.9790   22.1110 N   0  0  0  0  0  0  0  0  0  0  0  0
  -23.5420  -32.1240   23.6990 O   0  0  0  0  0  0  0  0  0  0  0  0
  -22.7480  -29.4340   22.5310 C   0  0  0  0  0  0  0  0  0  0  0  0
  -21.4160  -29.2770   22.4070 N   0  0  0  0  0  0  0  0  0  0  0  0
  -23.4080  -28.8120   23.3670 O   0  0  0  0  0  0  0  0  0  0  0  0
  -20.9350  -29.8290   21.7110 H   0  0  0  0  0  0  0  0  0  0  0  0
  -18.0260  -28.0920   22.9400 C   0  0  0  0  0  0  0  0  0  0  0  0
  -20.5890  -28.3460   23.1850 C   0  0  0  0  0  3  0  0  0  0  0  0
  -20.6780  -26.9120   22.6130 C   0  0  0  0  0  2  0  0  0  0  0  0
  -19.5690  -26.5940   21.6050 C   0  0  0  0  0  2  0  0  0  0  0  0
  -18.1920  -26.7430   22.2580 C   0  0  0  0  0  2  0  0  0  0  0  0
  -19.1510  -28.8510   23.3600 C   0  0  0  0  0  0  0  0  0  0  0  0
  -18.9370  -30.1110   23.9620 C   0  0  0  0  0  3  0  0  0  0  0  0
  -17.6340  -30.6110   24.1420 C   0  0  0  0  0  3  0  0  0  0  0  0
  -16.5250  -29.8490   23.7340 C   0  0  0  0  0  3  0  0  0  0  0  0
  -16.7230  -28.5920   23.1390 C   0  0  0  0  0  3  0  0  0  0  0  0
  -25.8990  -32.4810   23.8260 C   0  0  0  0  0  3  0  0  0  0  0  0
  -25.5730  -33.8820   24.1530 N   0  0  0  0  0  0  0  0  0  0  0  0
  -25.9090  -34.9440   23.4080 C   0  0  0  0  0  0  0  0  0  0  0  0
  -26.5870  -34.8470   22.3820 O   0  0  0  0  0  0  0  0  0  0  0  0
  -24.9710  -34.0290   24.9490 H   0  0  0  0  0  0  0  0  0  0  0  0
  -24.1860  -36.7470   23.0580 C   0  0  0  0  0  1  0  0  0  0  0  0
  -25.4210  -36.3310   23.8730 C   0  0  0  0  0  3  0  0  0  0  0  0
  -27.5500  -37.2150   24.7250 C   0  0  0  0  0  1  0  0  0  0  0  0
  -26.4550  -37.3850   23.7720 N   0  0  0  0  0  0  0  0  0  0  0  0
  -26.0480  -38.3050   23.9190 H   0  0  0  0  0  0  0  0  0  0  0  0
  -26.3980  -31.7270   25.1210 C   0  0  1  0  0  0  0  0  0  0  0  0
  -25.2910  -31.5060   26.1790 C   0  0  0  0  0  1  0  0  0  0  0  0
  -26.9830  -30.3420   24.7630 C   0  0  0  0  0  1  0  0  0  0  0  0
  -27.5430  -32.5280   25.7860 C   0  0  0  0  0  1  0  0  0  0  0  0
  1  6  1  0
  1  5  2  0
  2 48  1  0
  2  7  1  0
  3  7  1  0
  3  9  1  0
  4  1  1  0
  5  2  2  0
  6  3  2  0
  9  8  1  0
 11 16  1  0
 12 13  1  0
 12 11  1  0
 14 13  1  0
 14 23  1  0
 14 15  1  0
 16 10  1  0
 16 15  1  0
 17 10  2  0
 18 19  1  0
 19 10  1  0
 19  9  1  0
 20 21  2  0
 21 40  1  0
 22 21  1  0
 22 25  1  0
 23 20  1  0
 23 24  1  0
 24 22  2  0
 25 26  1  0
 26 27  2  0
 28 31  1  0
 28 27  1  0
 29 28  2  0
 30 29  1  0
 30 25  2  0
 31 32  1  0
 32 33  1  0
 33 34  2  0
 35 34  1  0
 35 39  1  0
 36 35  2  0
 37 32  2  0
 37 36  1  0
 38 37  1  0
 40 41  1  0
 41 44  1  0
 41 43  1  0
 42 40  2  0
 45 46  1  0
 45 20  1  0
 47 45  1  0
 49 48  1  0
 50 61  2  0
 51 49  1  0
 51 56  1  0
 52 60  1  0
 52 62  1  0
 53 59  1  0
 53 55  1  0
 54 60  1  0
 55 56  2  0
 55 54  1  0
 57 51  2  0
 58 57  1  0
 58 53  2  0
 59 52  1  0
 60 50  1  0
 62 64  2  0
 63 62  1  0
 65 63  1  0
 66 75  2  0
 66 71  1  0
 67 63  1  0
 67 71  1  0
 68 67  1  0
 69 70  1  0
 69 68  1  0
 70 66  1  0
 71 72  2  0
 72 73  1  0
 74 73  2  0
 75 74  1  0
 76 50  1  0
 76 77  1  0
 76 86  1  0
 77 80  1  0
 78 82  1  0
 78 77  1  0
 79 78  2  0
 82 81  1  0
 84 82  1  0
 84 85  1  0
 84 83  1  0
 86 89  1  1
 86 87  1  0
 88 86  1  0
M  ISO  4  10 100  19 100  48 101  49 101
M  END
>  <TORSDO>  (96) 
F 18

>  <SCORE>  (96) 
-16.815

>  <name>  (96) 
95

>  <ligand_id>  (96) 
95

>  <original_smiles>  (96) 
[H]c1c([H])c([H])c2c(c1[H])C([H])([H])C([H])([H])C([H])([H])C2([H])N([H])C(=O)C1([H])N(C(=O)C([H])(N([H])C(=O)C([H])(N([H])C([H])([H])[H])C([H])([H])[H])C(C([H])([H])[H])(C([H])([H])[H])C([H])([H])[H])C([H])([H])c2c([H])c(OC([H])([H])c3nc(C([H])([H])[H])nc(C([H])(N(C(=O)N4C([H])([H])C([H])([H])C([H])([H])C([H])(n5nc(-c6c([H])c([H])c(Oc7c([H])c([H])c(F)c([H])c7F)c([H])c6[H])c(C(=O)N([H])[H])c5N([H])[H])C4([H])[H])C([H])([H])[H])C([H])([H])[H])n3)c([H])c([H])c2C1([H])[H]

>  <smiles>  (96) 
[H]c1c([H])c([H])c2c(c1[H])C([H])([H])C([H])([H])C([H])([H])C2([H])N([H])C(=O)C1([H])N(C(=O)C([H])(N([H])C(=O)C([H])(N([H])C([H])([H])[H])C([H])([H])[H])C(C([H])([H])[H])(C([H])([H])[H])C([H])([H])[H])C([H])([H])c2c([H])c(OC([H])([H])c3nc(C([H])([H])[H])nc(C([H])(N(C(=O)N4C([H])([H])C([H])([H])C([H])([H])C([H])(n5nc(-c6c([H])c([H])c(Oc7c([H])c([H])c(F)c([H])c7F)c([H])c6[H])c(C(=O)N([H])[H])c5N([H])[H])C4([H])[H])C([H])([H])[H])C([H])([H])[H])n3)c([H])c([H])c2C1([H])[H]

$$$$
96:0:0
     RDKit          3D

 89 97  0  0  1  0  0  0  0  0999 V2000
  -29.7990  -20.6680   21.1820 C   0  0  0  0  0  0  0  0  0  0  0  0
  -30.2700  -21.1620   22.3290 N   0  0  0  0  0  0  0  0  0  0  0  0
  -31.0690  -20.2090   22.8710 N   0  0  0  0  0  0  0  0  0  0  0  0
  -31.1180  -19.1680   22.1190 N   0  0  0  0  0  0  0  0  0  0  0  0
  -30.2630  -19.3000   21.0660 N   0  0  0  0  0  0  0  0  0  0  0  0
  -28.8230  -21.7410   20.4580 C   0  0  0  0  0  2  0  0  0  0  0  0
  -29.0980  -23.4200   20.5750 C   0  0  0  0  0  3  0  0  0  0  0  0
  -28.0160  -24.6870   20.2770 C   0  0  0  0  0  3  0  0  0  0  0  0
  -28.2920  -26.2280   20.2740 O   0  0  0  0  0  0  0  0  0  0  0  0
  -24.6940  -31.9350   23.2070 C   0  0  0  0  0  0  0  0  0  0  0  0
  -27.2350  -27.2110   20.1870 C   0  0  0  0  0  0  0  0  0  0  0  0
  -23.4710  -30.5370   21.5840 C   0  0  0  0  0  3  0  0  0  0  0  0
  -24.9070  -28.9620   20.1400 C   0  0  0  0  0  0  0  0  0  0  0  0
  -26.0210  -30.8060   21.3860 C   0  0  0  0  0  2  0  0  0  0  0  0
  -26.0900  -29.4120   20.7370 C   0  0  0  0  0  0  0  0  0  0  0  0
  -27.2540  -28.5550   20.7420 C   0  0  0  0  0  3  0  0  0  0  0  0
  -26.0280  -26.8630   19.5390 C   0  0  0  0  0  3  0  0  0  0  0  0
  -24.8890  -27.7000   19.5230 C   0  0  0  0  0  3  0  0  0  0  0  0
  -23.6730  -29.8540   20.2030 C   0  0  0  0  0  2  0  0  0  0  0  0
  -24.7470  -31.1160   22.1120 N   0  0  0  0  0  0  0  0  0  0  0  0
  -23.6180  -32.2200   23.7520 O   0  0  0  0  0  0  0  0  0  0  0  0
  -22.8080  -29.5320   22.5590 C   0  0  0  0  0  0  0  0  0  0  0  0
  -21.4810  -29.3470   22.4400 N   0  0  0  0  0  0  0  0  0  0  0  0
  -23.4890  -28.9230   23.3880 O   0  0  0  0  0  0  0  0  0  0  0  0
  -20.9880  -29.8890   21.7460 H   0  0  0  0  0  0  0  0  0  0  0  0
  -18.1130  -28.1270   22.9700 C   0  0  0  0  0  0  0  0  0  0  0  0
  -20.6710  -28.4090   23.2200 C   0  0  0  0  0  3  0  0  0  0  0  0
  -20.7820  -26.9730   22.6530 C   0  0  0  0  0  2  0  0  0  0  0  0
  -19.6740  -26.6400   21.6470 C   0  0  0  0  0  2  0  0  0  0  0  0
  -18.2970  -26.7750   22.3010 C   0  0  0  0  0  2  0  0  0  0  0  0
  -19.2280  -28.9000   23.3870 C   0  0  0  0  0  0  0  0  0  0  0  0
  -19.0030  -30.1650   23.9760 C   0  0  0  0  0  3  0  0  0  0  0  0
  -17.6960  -30.6560   24.1490 C   0  0  0  0  0  3  0  0  0  0  0  0
  -16.5950  -29.8790   23.7500 C   0  0  0  0  0  3  0  0  0  0  0  0
  -16.8040  -28.6160   23.1640 C   0  0  0  0  0  3  0  0  0  0  0  0
  -25.9820  -32.5680   23.8120 C   0  0  0  0  0  3  0  0  0  0  0  0
  -25.6700  -33.9620   24.1660 N   0  0  0  0  0  0  0  0  0  0  0  0
  -26.0040  -35.0320   23.4330 C   0  0  0  0  0  0  0  0  0  0  0  0
  -26.6720  -34.9520   22.3990 O   0  0  0  0  0  0  0  0  0  0  0  0
  -25.0640  -34.0990   24.9610 H   0  0  0  0  0  0  0  0  0  0  0  0
  -24.2910  -36.8500   23.1110 C   0  0  0  0  0  1  0  0  0  0  0  0
  -25.5200  -36.4100   23.9250 C   0  0  0  0  0  3  0  0  0  0  0  0
  -27.6420  -37.2660   24.8140 C   0  0  0  0  0  1  0  0  0  0  0  0
  -26.5580  -37.4620   23.8550 N   0  0  0  0  0  0  0  0  0  0  0  0
  -26.1520  -38.3790   24.0220 H   0  0  0  0  0  0  0  0  0  0  0  0
  -26.5230  -31.7900   25.0750 C   0  0  1  0  0  0  0  0  0  0  0  0
  -25.4460  -31.5340   26.1560 C   0  0  0  0  0  1  0  0  0  0  0  0
  -27.1140  -30.4210   24.6700 C   0  0  0  0  0  1  0  0  0  0  0  0
  -27.6700  -32.5910   25.7310 C   0  0  0  0  0  1  0  0  0  0  0  0
  -30.3100  -17.9850   20.1780 C   0  0  0  0  0  2  0  0  0  0  0  0
  -30.8670  -16.2010   22.1440 C   0  0  0  0  0  1  0  0  0  0  0  0
  -28.5960  -16.3630   21.1290 C   0  0  0  0  0  1  0  0  0  0  0  0
  -30.1060  -16.3970   20.7980 C   0  0  1  0  0  0  0  0  0  0  0  0
  -30.6410  -15.0240   19.9920 C   0  0  0  0  0  0  0  0  0  0  0  0
  -30.4790  -12.7200   18.9110 C   0  0  0  0  0  2  0  0  0  0  0  0
  -29.4640  -12.7240   17.7450 C   0  0  0  0  0  2  0  0  0  0  0  0
  -28.0290  -12.5040   18.2610 C   0  0  0  0  0  2  0  0  0  0  0  0
  -27.7160  -13.3370   19.5230 C   0  0  0  0  0  3  0  0  0  0  0  0
  -28.8490  -13.2330   20.5730 C   0  0  0  0  0  2  0  0  0  0  0  0
  -30.0640  -13.7450   19.9210 N   0  0  0  0  0  0  0  0  0  0  0  0
  -31.7250  -15.1390   19.4090 O   0  0  0  0  0  0  0  0  0  0  0  0
  -25.3390  -13.8800   20.3250 C   0  0  0  0  0  0  0  0  0  0  0  0
  -24.3120  -13.0840   20.7370 C   0  0  0  0  0  0  0  0  0  0  0  0
  -24.7980  -11.7410   20.6780 C   0  0  0  0  0  0  0  0  0  0  0  0
  -26.3980  -13.0230   20.0620 N   0  0  0  0  0  0  0  0  0  0  0  0
  -26.0770  -11.7320   20.3230 N   0  0  0  0  0  0  0  0  0  0  0  0
  -24.1060  -10.4660   20.8930 C   0  0  0  0  0  0  0  0  0  0  0  0
  -24.5350   -9.5540   21.8810 C   0  0  0  0  0  3  0  0  0  0  0  0
  -23.8400   -8.3420   22.0830 C   0  0  0  0  0  3  0  0  0  0  0  0
  -22.7040   -8.0350   21.2970 C   0  0  0  0  0  0  0  0  0  0  0  0
  -22.2970   -8.9380   20.2980 C   0  0  0  0  0  3  0  0  0  0  0  0
  -22.9910  -10.1420   20.0950 C   0  0  0  0  0  3  0  0  0  0  0  0
  -21.9830   -6.8690   21.4060 O   0  0  0  0  0  0  0  0  0  0  0  0
  -21.8180   -6.2320   22.6100 C   0  0  0  0  0  0  0  0  0  0  0  0
  -21.2090   -6.8700   23.7140 C   0  0  0  0  0  3  0  0  0  0  0  0
  -20.9950   -6.1620   24.9110 C   0  0  0  0  0  3  0  0  0  0  0  0
  -21.3770   -4.8100   25.0080 C   0  0  0  0  0  0  0  0  0  0  0  0
  -21.9750   -4.1670   23.9090 C   0  0  0  0  0  3  0  0  0  0  0  0
  -22.1920   -4.8750   22.7140 C   0  0  0  0  0  0  0  0  0  0  0  0
  -22.7510   -4.2450   21.6530 F   0  0  0  0  0  0  0  0  0  0  0  0
  -21.1650   -4.1240   26.1560 F   0  0  0  0  0  0  0  0  0  0  0  0
  -22.9190  -13.5320   21.0810 C   0  0  0  0  0  0  0  0  0  0  0  0
  -22.2580  -12.8280   21.9890 N   0  0  0  0  0  0  0  0  0  0  0  0
  -22.4320  -14.5460   20.5780 O   0  0  0  0  0  0  0  0  0  0  0  0
  -22.6700  -12.0140   22.4230 H   0  0  0  0  0  0  0  0  0  0  0  0
  -21.3290  -13.1130   22.2630 H   0  0  0  0  0  0  0  0  0  0  0  0
  -25.4530  -15.2560   20.1300 N   0  0  0  0  0  0  0  0  0  0  0  0
  -24.6830  -15.8970   20.2900 H   0  0  0  0  0  0  0  0  0  0  0  0
  -26.2600  -15.7130   19.7320 H   0  0  0  0  0  0  0  0  0  0  0  0
  1  2  2  0
  2  3  1  0
  4  3  2  0
  5  1  1  0
  5  4  1  0
  6  7  1  0
  6  1  1  0
  8  7  2  0
  9  8  1  0
 10 21  2  0
 11  9  1  0
 11 16  1  0
 12 20  1  0
 12 22  1  0
 13 19  1  0
 13 15  1  0
 14 20  1  0
 15 16  2  0
 15 14  1  0
 17 11  2  0
 18 17  1  0
 18 13  2  0
 19 12  1  0
 20 10  1  0
 22 24  2  0
 23 22  1  0
 25 23  1  0
 26 35  2  0
 26 31  1  0
 27 23  1  0
 27 31  1  0
 28 27  1  0
 29 30  1  0
 29 28  1  0
 30 26  1  0
 31 32  2  0
 32 33  1  0
 34 33  2  0
 35 34  1  0
 36 10  1  0
 36 37  1  0
 36 46  1  0
 37 40  1  0
 38 42  1  0
 38 37  1  0
 39 38  2  0
 42 41  1  0
 44 42  1  0
 44 45  1  0
 44 43  1  0
 46 49  1  1
 46 47  1  0
 48 46  1  0
 50 53  1  0
 50  5  1  0
 53 52  1  1
 53 51  1  0
 54 53  1  0
 55 60  1  0
 56 57  1  0
 56 55  1  0
 58 57  1  0
 58 65  1  0
 58 59  1  0
 60 54  1  0
 60 59  1  0
 61 54  2  0
 62 63  2  0
 63 82  1  0
 64 63  1  0
 64 67  1  0
 65 66  1  0
 65 62  1  0
 66 64  2  0
 67 68  1  0
 68 69  2  0
 70 73  1  0
 70 69  1  0
 71 70  2  0
 72 71  1  0
 72 67  2  0
 73 74  1  0
 74 79  2  0
 74 75  1  0
 75 76  2  0
 76 77  1  0
 77 81  1  0
 78 77  2  0
 79 78  1  0
 80 79  1  0
 82 83  1  0
 83 86  1  0
 83 85  1  0
 84 82  2  0
 87 88  1  0
 87 62  1  0
 89 87  1  0
M  ISO  4   8 101   9 101  53 100  54 100
M  END
>  <TORSDO>  (97) 
F 21

>  <SCORE>  (97) 
-14.362

>  <name>  (97) 
96

>  <ligand_id>  (97) 
96

>  <original_smiles>  (97) 
[H]c1c([H])c([H])c2c(c1[H])C([H])([H])C([H])([H])C([H])([H])C2([H])N([H])C(=O)C1([H])N(C(=O)C([H])(N([H])C(=O)C([H])(N([H])C([H])([H])[H])C([H])([H])[H])C(C([H])([H])[H])(C([H])([H])[H])C([H])([H])[H])C([H])([H])c2c([H])c(OC([H])([H])C([H])([H])C([H])([H])c3nnnn3C([H])([H])C(C(=O)N3C([H])([H])C([H])([H])C([H])([H])C([H])(n4nc(-c5c([H])c([H])c(Oc6c([H])c([H])c(F)c([H])c6F)c([H])c5[H])c(C(=O)N([H])[H])c4N([H])[H])C3([H])[H])(C([H])([H])[H])C([H])([H])[H])c([H])c([H])c2C1([H])[H]

>  <smiles>  (97) 
[H]c1c([H])c([H])c2c(c1[H])C([H])([H])C([H])([H])C([H])([H])C2([H])N([H])C(=O)C1([H])N(C(=O)C([H])(N([H])C(=O)C([H])(N([H])C([H])([H])[H])C([H])([H])[H])C(C([H])([H])[H])(C([H])([H])[H])C([H])([H])[H])C([H])([H])c2c([H])c(OC([H])([H])C([H])([H])C([H])([H])c3nnnn3C([H])([H])C(C(=O)N3C([H])([H])C([H])([H])C([H])([H])C([H])(n4nc(-c5c([H])c([H])c(Oc6c([H])c([H])c(F)c([H])c6F)c([H])c5[H])c(C(=O)N([H])[H])c4N([H])[H])C3([H])[H])(C([H])([H])[H])C([H])([H])[H])c([H])c([H])c2C1([H])[H]

$$$$
97:0:0
     RDKit          3D

 90 98  0  0  1  0  0  0  0  0999 V2000
  -29.9800  -23.3470   21.0940 C   0  0  0  0  0  3  0  0  0  0  0  0
  -30.7030  -22.1980   21.4650 C   0  0  0  0  0  3  0  0  0  0  0  0
  -28.9360  -23.2330   20.1710 C   0  0  0  0  0  0  0  0  0  0  0  0
  -29.4940  -20.7770   20.0900 C   0  0  0  0  0  0  0  0  0  0  0  0
  -30.4570  -20.9570   20.9860 N   0  0  0  0  0  0  0  0  0  0  0  0
  -28.7200  -21.8930   19.7020 N   0  0  0  0  0  0  0  0  0  0  0  0
  -28.9960  -19.0710   18.1860 C   0  0  0  0  0  1  0  0  0  0  0  0
  -27.8700  -18.7970   20.4020 C   0  0  0  0  0  1  0  0  0  0  0  0
  -29.1960  -19.1610   19.7110 C   0  0  2  0  0  0  0  0  0  0  0  0
  -30.2750  -17.8680   20.0610 C   0  0  0  0  0  2  0  0  0  0  0  0
  -30.7210  -15.0920   20.0270 C   0  0  0  0  0  0  0  0  0  0  0  0
  -30.5950  -12.6840   19.1940 C   0  0  0  0  0  2  0  0  0  0  0  0
  -29.6530  -12.5840   17.9740 C   0  0  0  0  0  2  0  0  0  0  0  0
  -28.1940  -12.3880   18.4350 C   0  0  0  0  0  2  0  0  0  0  0  0
  -27.7990  -13.3600   19.5770 C   0  0  0  0  0  3  0  0  0  0  0  0
  -28.8690  -13.4320   20.6860 C   0  0  0  0  0  2  0  0  0  0  0  0
  -30.1230  -13.8270   20.0320 N   0  0  0  0  0  0  0  0  0  0  0  0
  -31.9320  -15.1260   19.7840 O   0  0  0  0  0  0  0  0  0  0  0  0
  -29.9390  -16.2930   20.0780 N   0  0  0  0  0  0  0  0  0  0  0  0
  -28.9520  -16.0940   20.1310 H   0  0  0  0  0  0  0  0  0  0  0  0
  -25.4480  -13.9770   20.3610 C   0  0  0  0  0  0  0  0  0  0  0  0
  -24.3790  -13.2240   20.7550 C   0  0  0  0  0  0  0  0  0  0  0  0
  -24.8210  -11.8630   20.7270 C   0  0  0  0  0  0  0  0  0  0  0  0
  -26.4710  -13.0820   20.1080 N   0  0  0  0  0  0  0  0  0  0  0  0
  -26.1060  -11.8040   20.3940 N   0  0  0  0  0  0  0  0  0  0  0  0
  -24.0750  -10.6160   20.9340 C   0  0  0  0  0  0  0  0  0  0  0  0
  -24.4930   -9.6540   21.8810 C   0  0  0  0  0  3  0  0  0  0  0  0
  -23.7480   -8.4710   22.0790 C   0  0  0  0  0  3  0  0  0  0  0  0
  -22.5700   -8.2440   21.3290 C   0  0  0  0  0  0  0  0  0  0  0  0
  -22.1670   -9.1930   20.3720 C   0  0  0  0  0  3  0  0  0  0  0  0
  -22.9140  -10.3670   20.1740 C   0  0  0  0  0  3  0  0  0  0  0  0
  -21.7990   -7.1120   21.4300 O   0  0  0  0  0  0  0  0  0  0  0  0
  -21.7250   -6.3910   22.5960 C   0  0  0  0  0  0  0  0  0  0  0  0
  -21.3050   -6.9770   23.8090 C   0  0  0  0  0  3  0  0  0  0  0  0
  -21.1840   -6.1850   24.9680 C   0  0  0  0  0  3  0  0  0  0  0  0
  -21.4710   -4.8080   24.9140 C   0  0  0  0  0  0  0  0  0  0  0  0
  -21.8790   -4.2210   23.7040 C   0  0  0  0  0  3  0  0  0  0  0  0
  -22.0060   -5.0100   22.5470 C   0  0  0  0  0  0  0  0  0  0  0  0
  -22.3850   -4.4360   21.3790 F   0  0  0  0  0  0  0  0  0  0  0  0
  -21.3430   -4.0460   26.0240 F   0  0  0  0  0  0  0  0  0  0  0  0
  -22.9950  -13.7250   21.0430 C   0  0  0  0  0  0  0  0  0  0  0  0
  -22.2730  -13.0520   21.9310 N   0  0  0  0  0  0  0  0  0  0  0  0
  -22.5640  -14.7510   20.5170 O   0  0  0  0  0  0  0  0  0  0  0  0
  -22.6370  -12.2220   22.3770 H   0  0  0  0  0  0  0  0  0  0  0  0
  -21.3410  -13.3670   22.1660 H   0  0  0  0  0  0  0  0  0  0  0  0
  -25.6280  -15.3440   20.1650 N   0  0  0  0  0  0  0  0  0  0  0  0
  -24.8610  -16.0010   20.2570 H   0  0  0  0  0  0  0  0  0  0  0  0
  -26.4650  -15.7630   19.7830 H   0  0  0  0  0  0  0  0  0  0  0  0
  -28.0470  -24.5920   19.7660 C   0  0  0  0  0  2  0  0  0  0  0  0
  -28.3050  -26.1020   20.1640 O   0  0  0  0  0  0  0  0  0  0  0  0
  -24.6190  -31.7980   23.1680 C   0  0  0  0  0  0  0  0  0  0  0  0
  -27.2650  -27.1170   20.0840 C   0  0  0  0  0  0  0  0  0  0  0  0
  -23.4490  -30.4100   21.5020 C   0  0  0  0  0  3  0  0  0  0  0  0
  -24.9260  -28.8720   20.0610 C   0  0  0  0  0  0  0  0  0  0  0  0
  -26.0050  -30.6930   21.3690 C   0  0  0  0  0  2  0  0  0  0  0  0
  -26.0980  -29.3080   20.6930 C   0  0  0  0  0  0  0  0  0  0  0  0
  -27.2660  -28.4460   20.6880 C   0  0  0  0  0  3  0  0  0  0  0  0
  -26.0690  -26.8040   19.4000 C   0  0  0  0  0  3  0  0  0  0  0  0
  -24.9290  -27.6380   19.3950 C   0  0  0  0  0  3  0  0  0  0  0  0
  -23.6900  -29.7600   20.1150 C   0  0  0  0  0  2  0  0  0  0  0  0
  -24.7100  -30.9870   22.0680 N   0  0  0  0  0  0  0  0  0  0  0  0
  -23.5240  -32.0650   23.6910 O   0  0  0  0  0  0  0  0  0  0  0  0
  -22.7730  -29.3830   22.4460 C   0  0  0  0  0  0  0  0  0  0  0  0
  -21.4460  -29.2080   22.3180 N   0  0  0  0  0  0  0  0  0  0  0  0
  -23.4480  -28.7480   23.2610 O   0  0  0  0  0  0  0  0  0  0  0  0
  -20.9560  -29.7750   21.6410 H   0  0  0  0  0  0  0  0  0  0  0  0
  -18.0700  -27.9830   22.8150 C   0  0  0  0  0  0  0  0  0  0  0  0
  -20.6280  -28.2530   23.0740 C   0  0  0  0  0  3  0  0  0  0  0  0
  -20.7320  -26.8320   22.4710 C   0  0  0  0  0  2  0  0  0  0  0  0
  -19.6260  -26.5240   21.4560 C   0  0  0  0  0  2  0  0  0  0  0  0
  -18.2480  -26.6500   22.1090 C   0  0  0  0  0  2  0  0  0  0  0  0
  -19.1870  -28.7430   23.2540 C   0  0  0  0  0  0  0  0  0  0  0  0
  -18.9630  -29.9900   23.8780 C   0  0  0  0  0  3  0  0  0  0  0  0
  -17.6550  -30.4770   24.0630 C   0  0  0  0  0  3  0  0  0  0  0  0
  -16.5530  -29.7150   23.6390 C   0  0  0  0  0  3  0  0  0  0  0  0
  -16.7620  -28.4690   23.0220 C   0  0  0  0  0  3  0  0  0  0  0  0
  -25.8840  -32.4440   23.8130 C   0  0  0  0  0  3  0  0  0  0  0  0
  -26.3860  -31.6750   25.0970 C   0  0  1  0  0  0  0  0  0  0  0  0
  -25.2770  -31.4270   26.1480 C   0  0  0  0  0  1  0  0  0  0  0  0
  -26.9870  -30.3000   24.7230 C   0  0  0  0  0  1  0  0  0  0  0  0
  -27.5220  -32.4750   25.7760 C   0  0  0  0  0  1  0  0  0  0  0  0
  -25.5550  -33.8390   24.1510 N   0  0  0  0  0  0  0  0  0  0  0  0
  -25.8660  -34.9030   23.3970 C   0  0  0  0  0  0  0  0  0  0  0  0
  -26.5280  -34.8130   22.3600 O   0  0  0  0  0  0  0  0  0  0  0  0
  -24.9690  -33.9790   24.9610 H   0  0  0  0  0  0  0  0  0  0  0  0
  -24.1040  -36.6740   23.0820 C   0  0  0  0  0  1  0  0  0  0  0  0
  -25.3670  -36.2850   23.8680 C   0  0  0  0  0  3  0  0  0  0  0  0
  -27.5040  -37.2060   24.6580 C   0  0  0  0  0  1  0  0  0  0  0  0
  -26.3820  -37.3540   23.7340 N   0  0  0  0  0  0  0  0  0  0  0  0
  -25.9670  -38.2690   23.8850 H   0  0  0  0  0  0  0  0  0  0  0  0
  1  2  2  0
  3  1  1  0
  4  5  2  0
  5  2  1  0
  6  4  1  0
  6  3  2  0
  9  7  1  6
  9 10  1  0
  9  4  1  0
  9  8  1  0
 10 19  1  0
 11 17  1  0
 11 19  1  0
 12 17  1  0
 13 14  1  0
 13 12  1  0
 15 14  1  0
 15 24  1  0
 15 16  1  0
 17 16  1  0
 18 11  2  0
 19 20  1  0
 21 22  2  0
 22 41  1  0
 23 22  1  0
 23 26  1  0
 24 21  1  0
 24 25  1  0
 25 23  2  0
 26 27  1  0
 27 28  2  0
 29 32  1  0
 29 28  1  0
 30 29  2  0
 31 30  1  0
 31 26  2  0
 32 33  1  0
 33 34  1  0
 34 35  2  0
 36 35  1  0
 36 40  1  0
 37 36  2  0
 38 33  2  0
 38 37  1  0
 39 38  1  0
 41 42  1  0
 42 45  1  0
 42 44  1  0
 43 41  2  0
 46 47  1  0
 46 21  1  0
 48 46  1  0
 49 50  1  0
 49  3  1  0
 51 62  2  0
 52 50  1  0
 52 57  1  0
 53 61  1  0
 53 63  1  0
 54 60  1  0
 54 56  1  0
 55 61  1  0
 56 55  1  0
 57 56  2  0
 58 52  2  0
 59 58  1  0
 59 54  2  0
 60 53  1  0
 61 51  1  0
 63 65  2  0
 64 63  1  0
 66 64  1  0
 67 76  2  0
 67 72  1  0
 68 64  1  0
 68 72  1  0
 69 68  1  0
 70 71  1  0
 70 69  1  0
 71 67  1  0
 72 73  2  0
 73 74  1  0
 75 74  2  0
 76 75  1  0
 77 51  1  0
 77 82  1  0
 77 78  1  0
 78 81  1  1
 78 79  1  0
 80 78  1  0
 82 85  1  0
 83 87  1  0
 83 82  1  0
 84 83  2  0
 87 86  1  0
 89 87  1  0
 89 90  1  0
 89 88  1  0
M  ISO  4  11 100  19 100  49 101  50 101
M  END
>  <TORSDO>  (98) 
F 19

>  <SCORE>  (98) 
-14.812

>  <name>  (98) 
97

>  <ligand_id>  (98) 
97

>  <original_smiles>  (98) 
[H]c1nc(C(C([H])([H])[H])(C([H])([H])[H])C([H])([H])N([H])C(=O)N2C([H])([H])C([H])([H])C([H])([H])C([H])(n3nc(-c4c([H])c([H])c(Oc5c([H])c([H])c(F)c([H])c5F)c([H])c4[H])c(C(=O)N([H])[H])c3N([H])[H])C2([H])[H])nc(C([H])([H])Oc2c([H])c([H])c3c(c2[H])C([H])([H])N(C(=O)C([H])(N([H])C(=O)C([H])(N([H])C([H])([H])[H])C([H])([H])[H])C(C([H])([H])[H])(C([H])([H])[H])C([H])([H])[H])C([H])(C(=O)N([H])C2([H])c4c([H])c([H])c([H])c([H])c4C([H])([H])C([H])([H])C2([H])[H])C3([H])[H])c1[H]

>  <smiles>  (98) 
[H]c1nc(C(C([H])([H])[H])(C([H])([H])[H])C([H])([H])N([H])C(=O)N2C([H])([H])C([H])([H])C([H])([H])C([H])(n3nc(-c4c([H])c([H])c(Oc5c([H])c([H])c(F)c([H])c5F)c([H])c4[H])c(C(=O)N([H])[H])c3N([H])[H])C2([H])[H])nc(C([H])([H])Oc2c([H])c([H])c3c(c2[H])C([H])([H])N(C(=O)C([H])(N([H])C(=O)C([H])(N([H])C([H])([H])[H])C([H])([H])[H])C(C([H])([H])[H])(C([H])([H])[H])C([H])([H])[H])C([H])(C(=O)N([H])C2([H])c4c([H])c([H])c([H])c([H])c4C([H])([H])C([H])([H])C2([H])[H])C3([H])[H])c1[H]

$$$$
